PFT.pdb
     RDKit          3D

 26 27  0  0  1  0  0  0  0  0999 V2000
    7.7348  -15.3460   19.0985 N   0  0  0  0  0  0  0  0  0  0  0  0
    7.1676  -14.7538   17.9062 C   0  0  0  0  0  0  0  0  0  0  0  0
    7.7158  -13.3581   17.8102 C   0  0  0  0  0  0  0  0  0  0  0  0
    8.8915  -13.2925   18.7270 C   0  0  0  0  0  0  0  0  0  0  0  0
    8.9056  -14.6041   19.4333 C   0  0  1  0  0  0  0  0  0  0  0  0
    9.0599  -14.4299   20.9158 C   0  0  0  0  0  0  0  0  0  0  0  0
   10.1447  -13.9684   21.3216 O   0  0  0  0  0  0  0  0  0  0  0  0
    8.0444  -14.7641   21.8206 N   0  0  0  0  0  0  0  0  0  0  0  0
    8.1992  -14.3972   23.2462 C   0  0  1  0  0  0  0  0  0  0  0  0
    6.9325  -13.7818   23.7306 C   0  0  0  0  0  0  0  0  0  0  0  0
    6.9741  -13.2681   25.1046 C   0  0  0  0  0  0  0  0  0  0  0  0
    7.7428  -12.1433   25.4357 C   0  0  0  0  0  0  0  0  0  0  0  0
    7.7345  -11.6433   26.7169 C   0  0  0  0  0  0  0  0  0  0  0  0
    6.9787  -12.2161   27.7283 C   0  0  0  0  0  0  0  0  0  0  0  0
    6.2256  -13.3195   27.4007 C   0  0  0  0  0  0  0  0  0  0  0  0
    6.2238  -13.8257   26.1374 C   0  0  0  0  0  0  0  0  0  0  0  0
    8.4935  -15.6474   23.9657 C   0  0  0  0  0  0  0  0  0  0  0  0
    7.6084  -16.5826   23.8989 O   0  0  0  0  0  0  0  0  0  0  0  0
   10.7858  -18.1681   23.3639 C   0  0  0  0  0  0  0  0  0  0  0  0
   10.9564  -17.9690   24.8408 C   0  0  1  0  0  0  0  0  0  0  0  0
   12.1163  -17.2282   25.0379 O   0  0  0  0  0  0  0  0  0  0  0  0
    9.7504  -17.1999   25.3994 C   0  0  2  0  0  0  0  0  0  0  0  0
    9.6587  -15.9290   24.7191 N   0  0  0  0  0  0  0  0  0  0  0  0
    9.7873  -17.1339   26.8558 C   0  0  0  0  0  0  0  0  0  0  0  0
    9.8450  -18.3416   27.5786 O   0  0  0  0  0  0  0  0  0  0  0  0
    9.7702  -16.0746   27.4820 O   0  0  0  0  0  0  0  0  0  0  0  0
  1  5  1  0
  1  2  1  0
  2  3  1  0
  4  3  1  0
  5  6  1  1
  5  4  1  0
  6  7  2  0
  8  9  1  0
  8  6  1  0
  9 10  1  1
 11 16  1  0
 11 10  1  0
 12 11  2  0
 13 14  2  0
 13 12  1  0
 14 15  1  0
 15 16  2  0
 17  9  1  0
 18 17  2  0
 20 19  1  6
 20 22  1  0
 21 20  1  0
 22 23  1  6
 23 17  1  0
 24 25  1  0
 24 22  1  0
 26 24  2  0
M  END
$$$$
