PFT.pdb
     RDKit          3D

 26 27  0  0  1  0  0  0  0  0999 V2000
    7.7026  -15.2734   19.4591 N   0  0  0  0  0  0  0  0  0  0  0  0
    7.1211  -14.6359   18.2976 C   0  0  0  0  0  0  0  0  0  0  0  0
    7.6284  -13.2217   18.2774 C   0  0  0  0  0  0  0  0  0  0  0  0
    8.7996  -13.1703   19.2009 C   0  0  0  0  0  0  0  0  0  0  0  0
    8.8504  -14.5165   19.8371 C   0  0  1  0  0  0  0  0  0  0  0  0
    8.9959  -14.4164   21.3273 C   0  0  0  0  0  0  0  0  0  0  0  0
   10.0655  -13.9446   21.7611 O   0  0  0  0  0  0  0  0  0  0  0  0
    7.9890  -14.8283   22.2093 N   0  0  0  0  0  0  0  0  0  0  0  0
    8.1647  -14.6009   23.6614 C   0  0  1  0  0  0  0  0  0  0  0  0
    6.8524  -14.2261   24.2575 C   0  0  0  0  0  0  0  0  0  0  0  0
    6.9282  -13.5507   25.5580 C   0  0  0  0  0  0  0  0  0  0  0  0
    7.6855  -14.0850   26.6101 C   0  0  0  0  0  0  0  0  0  0  0  0
    7.7873  -13.4168   27.8079 C   0  0  0  0  0  0  0  0  0  0  0  0
    7.1573  -12.2023   28.0319 C   0  0  0  0  0  0  0  0  0  0  0  0
    6.4148  -11.6806   26.9981 C   0  0  0  0  0  0  0  0  0  0  0  0
    6.3048  -12.3301   25.8074 C   0  0  0  0  0  0  0  0  0  0  0  0
    8.6621  -15.8682   24.2216 C   0  0  0  0  0  0  0  0  0  0  0  0
    7.8590  -16.8765   24.1898 O   0  0  0  0  0  0  0  0  0  0  0  0
   11.0710  -18.0913   23.0982 C   0  0  0  0  0  0  0  0  0  0  0  0
   11.4197  -17.9955   24.5540 C   0  0  1  0  0  0  0  0  0  0  0  0
   12.5251  -17.1604   24.6714 O   0  0  0  0  0  0  0  0  0  0  0  0
   10.2361  -17.3985   25.3289 C   0  0  2  0  0  0  0  0  0  0  0  0
    9.9409  -16.0929   24.7859 N   0  0  0  0  0  0  0  0  0  0  0  0
   10.4622  -17.4459   26.7688 C   0  0  0  0  0  0  0  0  0  0  0  0
   10.6642  -18.7022   27.3730 O   0  0  0  0  0  0  0  0  0  0  0  0
   10.4848  -16.4416   27.4798 O   0  0  0  0  0  0  0  0  0  0  0  0
  1  5  1  0
  1  2  1  0
  2  3  1  0
  4  3  1  0
  5  6  1  1
  5  4  1  0
  6  7  2  0
  8  9  1  0
  8  6  1  0
  9 10  1  1
 11 16  1  0
 11 10  1  0
 12 11  2  0
 13 14  2  0
 13 12  1  0
 14 15  1  0
 15 16  2  0
 17  9  1  0
 18 17  2  0
 20 19  1  6
 20 22  1  0
 21 20  1  0
 22 23  1  6
 23 17  1  0
 24 25  1  0
 24 22  1  0
 26 24  2  0
M  END
$$$$
