PFT.pdb
     RDKit          3D

 26 27  0  0  1  0  0  0  0  0999 V2000
    7.7542  -15.3954   19.0627 N   0  0  0  0  0  0  0  0  0  0  0  0
    7.1416  -14.8326   17.8787 C   0  0  0  0  0  0  0  0  0  0  0  0
    7.5956  -13.4029   17.7912 C   0  0  0  0  0  0  0  0  0  0  0  0
    8.7701  -13.2668   18.7019 C   0  0  0  0  0  0  0  0  0  0  0  0
    8.8754  -14.5802   19.3970 C   0  0  1  0  0  0  0  0  0  0  0  0
    9.0270  -14.4080   20.8800 C   0  0  0  0  0  0  0  0  0  0  0  0
   10.1139  -13.9541   21.2889 O   0  0  0  0  0  0  0  0  0  0  0  0
    8.0070  -14.7358   21.7820 N   0  0  0  0  0  0  0  0  0  0  0  0
    8.1614  -14.3725   23.2086 C   0  0  1  0  0  0  0  0  0  0  0  0
    6.8866  -13.7803   23.7007 C   0  0  0  0  0  0  0  0  0  0  0  0
    6.9218  -13.2825   25.0807 C   0  0  0  0  0  0  0  0  0  0  0  0
    6.2857  -13.9775   26.1191 C   0  0  0  0  0  0  0  0  0  0  0  0
    6.3676  -13.5258   27.4156 C   0  0  0  0  0  0  0  0  0  0  0  0
    7.0710  -12.3804   27.7555 C   0  0  0  0  0  0  0  0  0  0  0  0
    7.6939  -11.7006   26.7348 C   0  0  0  0  0  0  0  0  0  0  0  0
    7.6217  -12.1352   25.4472 C   0  0  0  0  0  0  0  0  0  0  0  0
    8.4793  -15.6207   23.9215 C   0  0  0  0  0  0  0  0  0  0  0  0
    7.6192  -16.5776   23.8369 O   0  0  0  0  0  0  0  0  0  0  0  0
   10.8340  -18.0804   23.3518 C   0  0  0  0  0  0  0  0  0  0  0  0
   10.9725  -17.8961   24.8339 C   0  0  1  0  0  0  0  0  0  0  0  0
   12.1217  -17.1476   25.0628 O   0  0  0  0  0  0  0  0  0  0  0  0
    9.7488  -17.1434   25.3759 C   0  0  2  0  0  0  0  0  0  0  0  0
    9.6425  -15.8787   24.6862 N   0  0  0  0  0  0  0  0  0  0  0  0
    9.7705  -17.0673   26.8321 C   0  0  0  0  0  0  0  0  0  0  0  0
    9.8305  -18.2696   27.5637 O   0  0  0  0  0  0  0  0  0  0  0  0
    9.7391  -16.0039   27.4509 O   0  0  0  0  0  0  0  0  0  0  0  0
  1  5  1  0
  1  2  1  0
  2  3  1  0
  4  3  1  0
  5  6  1  1
  5  4  1  0
  6  7  2  0
  8  9  1  0
  8  6  1  0
  9 10  1  1
 11 16  1  0
 11 10  1  0
 12 11  2  0
 13 14  2  0
 13 12  1  0
 14 15  1  0
 15 16  2  0
 17  9  1  0
 18 17  2  0
 20 19  1  6
 20 22  1  0
 21 20  1  0
 22 23  1  6
 23 17  1  0
 24 25  1  0
 24 22  1  0
 26 24  2  0
M  END
$$$$
