PFT.pdb
     RDKit          3D

 26 27  0  0  1  0  0  0  0  0999 V2000
    7.6310  -15.4066   19.1718 N   0  0  0  0  0  0  0  0  0  0  0  0
    7.0218  -14.8440   17.9860 C   0  0  0  0  0  0  0  0  0  0  0  0
    7.5228  -13.4324   17.8670 C   0  0  0  0  0  0  0  0  0  0  0  0
    8.7135  -13.3206   18.7598 C   0  0  0  0  0  0  0  0  0  0  0  0
    8.7836  -14.6245   19.4770 C   0  0  1  0  0  0  0  0  0  0  0  0
    8.9610  -14.4317   20.9545 C   0  0  0  0  0  0  0  0  0  0  0  0
   10.0499  -13.9598   21.3370 O   0  0  0  0  0  0  0  0  0  0  0  0
    7.9622  -14.7600   21.8798 N   0  0  0  0  0  0  0  0  0  0  0  0
    8.1343  -14.3676   23.2966 C   0  0  1  0  0  0  0  0  0  0  0  0
    6.8583  -13.7870   23.7992 C   0  0  0  0  0  0  0  0  0  0  0  0
    6.8962  -13.3023   25.1837 C   0  0  0  0  0  0  0  0  0  0  0  0
    7.4372  -12.0477   25.4988 C   0  0  0  0  0  0  0  0  0  0  0  0
    7.4222  -11.5851   26.7938 C   0  0  0  0  0  0  0  0  0  0  0  0
    6.8808  -12.3228   27.8354 C   0  0  0  0  0  0  0  0  0  0  0  0
    6.3508  -13.5532   27.5235 C   0  0  0  0  0  0  0  0  0  0  0  0
    6.3585  -14.0244   26.2468 C   0  0  0  0  0  0  0  0  0  0  0  0
    8.4846  -15.5969   24.0269 C   0  0  0  0  0  0  0  0  0  0  0  0
    7.6513  -16.5781   23.9534 O   0  0  0  0  0  0  0  0  0  0  0  0
   10.8295  -17.9826   23.3917 C   0  0  0  0  0  0  0  0  0  0  0  0
   11.0288  -17.8030   24.8675 C   0  0  1  0  0  0  0  0  0  0  0  0
   12.1691  -17.0290   25.0506 O   0  0  0  0  0  0  0  0  0  0  0  0
    9.8129  -17.0822   25.4675 C   0  0  2  0  0  0  0  0  0  0  0  0
    9.6526  -15.8126   24.7974 N   0  0  0  0  0  0  0  0  0  0  0  0
    9.8924  -17.0214   26.9223 C   0  0  0  0  0  0  0  0  0  0  0  0
   10.0208  -18.2291   27.6361 O   0  0  0  0  0  0  0  0  0  0  0  0
    9.8527  -15.9665   27.5549 O   0  0  0  0  0  0  0  0  0  0  0  0
  1  5  1  0
  1  2  1  0
  2  3  1  0
  4  3  1  0
  5  6  1  1
  5  4  1  0
  6  7  2  0
  8  9  1  0
  8  6  1  0
  9 10  1  1
 11 16  1  0
 11 10  1  0
 12 11  2  0
 13 14  2  0
 13 12  1  0
 14 15  1  0
 15 16  2  0
 17  9  1  0
 18 17  2  0
 20 19  1  6
 20 22  1  0
 21 20  1  0
 22 23  1  6
 23 17  1  0
 24 25  1  0
 24 22  1  0
 26 24  2  0
M  END
$$$$
