PFT.pdb
     RDKit          3D

 26 27  0  0  1  0  0  0  0  0999 V2000
    7.4488  -15.0782   19.9793 N   0  0  0  0  0  0  0  0  0  0  0  0
    6.8046  -14.2530   18.9803 C   0  0  0  0  0  0  0  0  0  0  0  0
    7.3651  -12.8673   19.1327 C   0  0  0  0  0  0  0  0  0  0  0  0
    8.6059  -12.9917   19.9527 C   0  0  0  0  0  0  0  0  0  0  0  0
    8.6521  -14.4208   20.3709 C   0  0  1  0  0  0  0  0  0  0  0  0
    8.9173  -14.5562   21.8417 C   0  0  0  0  0  0  0  0  0  0  0  0
   10.0430  -14.2068   22.2483 O   0  0  0  0  0  0  0  0  0  0  0  0
    7.9585  -15.0501   22.7351 N   0  0  0  0  0  0  0  0  0  0  0  0
    8.2776  -15.1021   24.1796 C   0  0  1  0  0  0  0  0  0  0  0  0
    7.0207  -14.9401   24.9618 C   0  0  0  0  0  0  0  0  0  0  0  0
    6.9188  -13.6923   25.7273 C   0  0  0  0  0  0  0  0  0  0  0  0
    8.0424  -13.1276   26.3473 C   0  0  0  0  0  0  0  0  0  0  0  0
    7.9427  -11.9325   27.0206 C   0  0  0  0  0  0  0  0  0  0  0  0
    6.7469  -11.2377   27.1187 C   0  0  0  0  0  0  0  0  0  0  0  0
    5.6462  -11.7941   26.5096 C   0  0  0  0  0  0  0  0  0  0  0  0
    5.7294  -12.9758   25.8399 C   0  0  0  0  0  0  0  0  0  0  0  0
    8.8897  -16.4190   24.4211 C   0  0  0  0  0  0  0  0  0  0  0  0
    8.1634  -17.4554   24.1739 O   0  0  0  0  0  0  0  0  0  0  0  0
   11.5218  -18.1939   22.8948 C   0  0  0  0  0  0  0  0  0  0  0  0
   11.8302  -18.3710   24.3521 C   0  0  1  0  0  0  0  0  0  0  0  0
   12.8700  -17.5061   24.6739 O   0  0  0  0  0  0  0  0  0  0  0  0
   10.5898  -18.0217   25.1871 C   0  0  2  0  0  0  0  0  0  0  0  0
   10.2028  -16.6618   24.8913 N   0  0  0  0  0  0  0  0  0  0  0  0
   10.7933  -18.3262   26.5987 C   0  0  0  0  0  0  0  0  0  0  0  0
   11.2152  -19.6238   26.9487 O   0  0  0  0  0  0  0  0  0  0  0  0
   10.6140  -17.5044   27.4970 O   0  0  0  0  0  0  0  0  0  0  0  0
  1  5  1  0
  1  2  1  0
  2  3  1  0
  4  3  1  0
  5  6  1  1
  5  4  1  0
  6  7  2  0
  8  9  1  0
  8  6  1  0
  9 10  1  1
 11 16  1  0
 11 10  1  0
 12 11  2  0
 13 14  2  0
 13 12  1  0
 14 15  1  0
 15 16  2  0
 17  9  1  0
 18 17  2  0
 20 19  1  6
 20 22  1  0
 21 20  1  0
 22 23  1  1
 23 17  1  0
 24 25  1  0
 24 22  1  0
 26 24  2  0
M  END
$$$$
