PFT.pdb
     RDKit          3D

 26 27  0  0  1  0  0  0  0  0999 V2000
    7.6537  -15.1503   19.5887 N   0  0  0  0  0  0  0  0  0  0  0  0
    7.0256  -14.4221   18.5075 C   0  0  0  0  0  0  0  0  0  0  0  0
    7.5107  -13.0029   18.5988 C   0  0  0  0  0  0  0  0  0  0  0  0
    8.7100  -13.0133   19.4870 C   0  0  0  0  0  0  0  0  0  0  0  0
    8.8015  -14.4098   19.9978 C   0  0  1  0  0  0  0  0  0  0  0  0
    8.9934  -14.4406   21.4858 C   0  0  0  0  0  0  0  0  0  0  0  0
   10.0960  -14.0557   21.9224 O   0  0  0  0  0  0  0  0  0  0  0  0
    7.9929  -14.8781   22.3628 N   0  0  0  0  0  0  0  0  0  0  0  0
    8.2195  -14.7797   23.8223 C   0  0  1  0  0  0  0  0  0  0  0  0
    6.9236  -14.4933   24.4977 C   0  0  0  0  0  0  0  0  0  0  0  0
    6.9623  -13.4116   25.4886 C   0  0  0  0  0  0  0  0  0  0  0  0
    5.8448  -13.1134   26.2813 C   0  0  0  0  0  0  0  0  0  0  0  0
    5.9102  -12.1294   27.2398 C   0  0  0  0  0  0  0  0  0  0  0  0
    7.0641  -11.3951   27.4670 C   0  0  0  0  0  0  0  0  0  0  0  0
    8.1587  -11.6896   26.6878 C   0  0  0  0  0  0  0  0  0  0  0  0
    8.1092  -12.6604   25.7354 C   0  0  0  0  0  0  0  0  0  0  0  0
    8.7649  -16.0802   24.2450 C   0  0  0  0  0  0  0  0  0  0  0  0
    7.9792  -17.0990   24.1600 O   0  0  0  0  0  0  0  0  0  0  0  0
   11.3727  -18.1288   22.9755 C   0  0  0  0  0  0  0  0  0  0  0  0
   11.6358  -18.1530   24.4520 C   0  0  1  0  0  0  0  0  0  0  0  0
   12.7106  -17.3083   24.7054 O   0  0  0  0  0  0  0  0  0  0  0  0
   10.3950  -17.6510   25.2045 C   0  0  2  0  0  0  0  0  0  0  0  0
   10.0724  -16.3257   24.7293 N   0  0  0  0  0  0  0  0  0  0  0  0
   10.5570  -17.7810   26.6480 C   0  0  0  0  0  0  0  0  0  0  0  0
   10.8333  -19.0566   27.1777 O   0  0  0  0  0  0  0  0  0  0  0  0
   10.4639  -16.8302   27.4238 O   0  0  0  0  0  0  0  0  0  0  0  0
  1  5  1  0
  1  2  1  0
  2  3  1  0
  4  3  1  0
  5  6  1  1
  5  4  1  0
  6  7  2  0
  8  9  1  0
  8  6  1  0
  9 10  1  1
 11 16  1  0
 11 10  1  0
 12 11  2  0
 13 14  2  0
 13 12  1  0
 14 15  1  0
 15 16  2  0
 17  9  1  0
 18 17  2  0
 20 19  1  6
 20 22  1  0
 21 20  1  0
 22 23  1  1
 23 17  1  0
 24 25  1  0
 24 22  1  0
 26 24  2  0
M  END
$$$$
