PFT.pdb
     RDKit          3D

 26 27  0  0  1  0  0  0  0  0999 V2000
    7.4555  -15.2634   19.2997 N   0  0  0  0  0  0  0  0  0  0  0  0
    6.8920  -14.5828   18.1538 C   0  0  0  0  0  0  0  0  0  0  0  0
    7.5534  -13.2357   18.0787 C   0  0  0  0  0  0  0  0  0  0  0  0
    8.7676  -13.3026   18.9438 C   0  0  0  0  0  0  0  0  0  0  0  0
    8.6986  -14.6354   19.6058 C   0  0  1  0  0  0  0  0  0  0  0  0
    8.9289  -14.5285   21.0847 C   0  0  0  0  0  0  0  0  0  0  0  0
   10.0430  -14.1088   21.4552 O   0  0  0  0  0  0  0  0  0  0  0  0
    7.9509  -14.8787   22.0241 N   0  0  0  0  0  0  0  0  0  0  0  0
    8.1567  -14.5235   23.4462 C   0  0  1  0  0  0  0  0  0  0  0  0
    6.8673  -14.0488   24.0207 C   0  0  0  0  0  0  0  0  0  0  0  0
    6.9589  -13.4724   25.3670 C   0  0  0  0  0  0  0  0  0  0  0  0
    7.1982  -12.1038   25.5556 C   0  0  0  0  0  0  0  0  0  0  0  0
    7.2331  -11.5681   26.8219 C   0  0  0  0  0  0  0  0  0  0  0  0
    7.0370  -12.3407   27.9563 C   0  0  0  0  0  0  0  0  0  0  0  0
    6.8026  -13.6831   27.7683 C   0  0  0  0  0  0  0  0  0  0  0  0
    6.7651  -14.2274   26.5216 C   0  0  0  0  0  0  0  0  0  0  0  0
    8.6192  -15.7500   24.1164 C   0  0  0  0  0  0  0  0  0  0  0  0
    7.8698  -16.7936   24.0079 O   0  0  0  0  0  0  0  0  0  0  0  0
   11.2067  -17.9360   23.4927 C   0  0  0  0  0  0  0  0  0  0  0  0
   11.3323  -17.7810   24.9794 C   0  0  1  0  0  0  0  0  0  0  0  0
   12.4121  -16.9415   25.2287 O   0  0  0  0  0  0  0  0  0  0  0  0
   10.0487  -17.1535   25.5420 C   0  0  2  0  0  0  0  0  0  0  0  0
    9.8123  -15.9004   24.8635 N   0  0  0  0  0  0  0  0  0  0  0  0
   10.0816  -17.0852   26.9983 C   0  0  0  0  0  0  0  0  0  0  0  0
   10.1820  -18.2895   27.7221 O   0  0  0  0  0  0  0  0  0  0  0  0
   10.0259  -16.0268   27.6238 O   0  0  0  0  0  0  0  0  0  0  0  0
  1  5  1  0
  1  2  1  0
  2  3  1  0
  4  3  1  0
  5  6  1  1
  5  4  1  0
  6  7  2  0
  8  9  1  0
  8  6  1  0
  9 10  1  1
 11 16  1  0
 11 10  1  0
 12 11  2  0
 13 14  2  0
 13 12  1  0
 14 15  1  0
 15 16  2  0
 17  9  1  0
 18 17  2  0
 20 19  1  6
 20 22  1  0
 21 20  1  0
 22 23  1  6
 23 17  1  0
 24 25  1  0
 24 22  1  0
 26 24  2  0
M  END
$$$$
