PFT.pdb
     RDKit          3D

 26 27  0  0  1  0  0  0  0  0999 V2000
    7.6625  -15.4000   19.2341 N   0  0  0  0  0  0  0  0  0  0  0  0
    7.0525  -14.8519   18.0418 C   0  0  0  0  0  0  0  0  0  0  0  0
    7.5489  -13.4400   17.9084 C   0  0  0  0  0  0  0  0  0  0  0  0
    8.7385  -13.3149   18.8009 C   0  0  0  0  0  0  0  0  0  0  0  0
    8.8123  -14.6109   19.5319 C   0  0  1  0  0  0  0  0  0  0  0  0
    8.9879  -14.4019   21.0074 C   0  0  0  0  0  0  0  0  0  0  0  0
   10.0586  -13.8847   21.3824 O   0  0  0  0  0  0  0  0  0  0  0  0
    8.0066  -14.7639   21.9389 N   0  0  0  0  0  0  0  0  0  0  0  0
    8.1866  -14.3878   23.3592 C   0  0  1  0  0  0  0  0  0  0  0  0
    6.9246  -13.7806   23.8655 C   0  0  0  0  0  0  0  0  0  0  0  0
    6.9761  -13.2985   25.2505 C   0  0  0  0  0  0  0  0  0  0  0  0
    6.3138  -13.9803   26.2813 C   0  0  0  0  0  0  0  0  0  0  0  0
    6.4105  -13.5451   27.5823 C   0  0  0  0  0  0  0  0  0  0  0  0
    7.1547  -12.4296   27.9345 C   0  0  0  0  0  0  0  0  0  0  0  0
    7.8032  -11.7625   26.9213 C   0  0  0  0  0  0  0  0  0  0  0  0
    7.7168  -12.1812   25.6293 C   0  0  0  0  0  0  0  0  0  0  0  0
    8.5061  -15.6314   24.0793 C   0  0  0  0  0  0  0  0  0  0  0  0
    7.6220  -16.5694   24.0467 O   0  0  0  0  0  0  0  0  0  0  0  0
   10.5280  -18.2662   23.4252 C   0  0  0  0  0  0  0  0  0  0  0  0
   10.8862  -18.0102   24.8591 C   0  0  1  0  0  0  0  0  0  0  0  0
   12.0954  -17.3244   24.8784 O   0  0  0  0  0  0  0  0  0  0  0  0
    9.7952  -17.1532   25.5174 C   0  0  2  0  0  0  0  0  0  0  0  0
    9.6942  -15.9039   24.7994 N   0  0  0  0  0  0  0  0  0  0  0  0
   10.0022  -17.0382   26.9564 C   0  0  0  0  0  0  0  0  0  0  0  0
   10.0700  -18.2207   27.7189 O   0  0  0  0  0  0  0  0  0  0  0  0
   10.1203  -15.9584   27.5350 O   0  0  0  0  0  0  0  0  0  0  0  0
  1  5  1  0
  1  2  1  0
  2  3  1  0
  4  3  1  0
  5  6  1  1
  5  4  1  0
  6  7  2  0
  8  9  1  0
  8  6  1  0
  9 10  1  1
 11 16  1  0
 11 10  1  0
 12 11  2  0
 13 14  2  0
 13 12  1  0
 14 15  1  0
 15 16  2  0
 17  9  1  0
 18 17  2  0
 20 19  1  6
 20 22  1  0
 21 20  1  0
 22 23  1  6
 23 17  1  0
 24 25  1  0
 24 22  1  0
 26 24  2  0
M  END
$$$$
