PFT.pdb
     RDKit          3D

 26 27  0  0  1  0  0  0  0  0999 V2000
    7.7080  -15.2880   19.0146 N   0  0  0  0  0  0  0  0  0  0  0  0
    7.1018  -14.7166   17.8314 C   0  0  0  0  0  0  0  0  0  0  0  0
    7.5636  -13.2890   17.7518 C   0  0  0  0  0  0  0  0  0  0  0  0
    8.7362  -13.1633   18.6664 C   0  0  0  0  0  0  0  0  0  0  0  0
    8.8325  -14.4804   19.3559 C   0  0  1  0  0  0  0  0  0  0  0  0
    8.9808  -14.3158   20.8400 C   0  0  0  0  0  0  0  0  0  0  0  0
   10.0319  -13.7838   21.2483 O   0  0  0  0  0  0  0  0  0  0  0  0
    7.9958  -14.7335   21.7438 N   0  0  0  0  0  0  0  0  0  0  0  0
    8.1434  -14.3976   23.1778 C   0  0  1  0  0  0  0  0  0  0  0  0
    6.8376  -13.9075   23.6997 C   0  0  0  0  0  0  0  0  0  0  0  0
    6.8599  -13.4302   25.0872 C   0  0  0  0  0  0  0  0  0  0  0  0
    6.3991  -14.2349   26.1388 C   0  0  0  0  0  0  0  0  0  0  0  0
    6.4708  -13.7941   27.4396 C   0  0  0  0  0  0  0  0  0  0  0  0
    6.9933  -12.5534   27.7713 C   0  0  0  0  0  0  0  0  0  0  0  0
    7.4444  -11.7660   26.7376 C   0  0  0  0  0  0  0  0  0  0  0  0
    7.3800  -12.1885   25.4455 C   0  0  0  0  0  0  0  0  0  0  0  0
    8.5554  -15.6390   23.8534 C   0  0  0  0  0  0  0  0  0  0  0  0
    7.7979  -16.6702   23.6942 O   0  0  0  0  0  0  0  0  0  0  0  0
   11.0341  -17.9486   23.3369 C   0  0  0  0  0  0  0  0  0  0  0  0
   11.1492  -17.7543   24.8198 C   0  0  1  0  0  0  0  0  0  0  0  0
   12.2519  -16.9415   25.0569 O   0  0  0  0  0  0  0  0  0  0  0  0
    9.8800  -17.0714   25.3498 C   0  0  2  0  0  0  0  0  0  0  0  0
    9.7080  -15.8161   24.6563 N   0  0  0  0  0  0  0  0  0  0  0  0
    9.8850  -16.9916   26.8059 C   0  0  0  0  0  0  0  0  0  0  0  0
   10.0585  -18.1810   27.5403 O   0  0  0  0  0  0  0  0  0  0  0  0
    9.7449  -15.9356   27.4223 O   0  0  0  0  0  0  0  0  0  0  0  0
  1  5  1  0
  1  2  1  0
  2  3  1  0
  4  3  1  0
  5  6  1  1
  5  4  1  0
  6  7  2  0
  8  9  1  0
  8  6  1  0
  9 10  1  1
 11 16  1  0
 11 10  1  0
 12 11  2  0
 13 14  2  0
 13 12  1  0
 14 15  1  0
 15 16  2  0
 17  9  1  0
 18 17  2  0
 20 19  1  6
 20 22  1  0
 21 20  1  0
 22 23  1  6
 23 17  1  0
 24 25  1  0
 24 22  1  0
 26 24  2  0
M  END
$$$$
