PFT.pdb
     RDKit          3D

 26 27  0  0  1  0  0  0  0  0999 V2000
    7.8827  -17.4285   20.0852 N   0  0  0  0  0  0  0  0  0  0  0  0
    7.2841  -17.3433   18.7705 C   0  0  0  0  0  0  0  0  0  0  0  0
    7.6997  -16.0222   18.1877 C   0  0  0  0  0  0  0  0  0  0  0  0
    8.8469  -15.5313   19.0064 C   0  0  0  0  0  0  0  0  0  0  0  0
    8.9718  -16.5089   20.1235 C   0  0  1  0  0  0  0  0  0  0  0  0
    9.0816  -15.8176   21.4509 C   0  0  0  0  0  0  0  0  0  0  0  0
   10.0820  -15.0958   21.6321 O   0  0  0  0  0  0  0  0  0  0  0  0
    8.1159  -15.9624   22.4549 N   0  0  0  0  0  0  0  0  0  0  0  0
    8.2804  -15.2223   23.7262 C   0  0  1  0  0  0  0  0  0  0  0  0
    6.9611  -14.6711   24.1426 C   0  0  0  0  0  0  0  0  0  0  0  0
    6.9884  -13.8269   25.3426 C   0  0  0  0  0  0  0  0  0  0  0  0
    7.0492  -14.3905   26.6250 C   0  0  0  0  0  0  0  0  0  0  0  0
    7.1234  -13.5873   27.7389 C   0  0  0  0  0  0  0  0  0  0  0  0
    7.1416  -12.2037   27.6518 C   0  0  0  0  0  0  0  0  0  0  0  0
    7.0817  -11.6535   26.3925 C   0  0  0  0  0  0  0  0  0  0  0  0
    7.0079  -12.4354   25.2811 C   0  0  0  0  0  0  0  0  0  0  0  0
    8.7859  -16.1948   24.7089 C   0  0  0  0  0  0  0  0  0  0  0  0
    8.0531  -17.2311   24.9360 O   0  0  0  0  0  0  0  0  0  0  0  0
   11.5475  -18.2572   24.4560 C   0  0  0  0  0  0  0  0  0  0  0  0
   11.6690  -17.8066   25.8816 C   0  0  1  0  0  0  0  0  0  0  0  0
   12.6837  -16.8580   25.9417 O   0  0  0  0  0  0  0  0  0  0  0  0
   10.3447  -17.1768   26.3372 C   0  0  2  0  0  0  0  0  0  0  0  0
   10.0039  -16.1095   25.4256 N   0  0  0  0  0  0  0  0  0  0  0  0
   10.3849  -16.8116   27.7485 C   0  0  0  0  0  0  0  0  0  0  0  0
   10.6676  -17.8185   28.6921 O   0  0  0  0  0  0  0  0  0  0  0  0
   10.1837  -15.6669   28.1533 O   0  0  0  0  0  0  0  0  0  0  0  0
  1  5  1  0
  1  2  1  0
  2  3  1  0
  4  3  1  0
  5  6  1  1
  5  4  1  0
  6  7  2  0
  8  9  1  0
  8  6  1  0
  9 10  1  1
 11 16  1  0
 11 10  1  0
 12 11  2  0
 13 14  2  0
 13 12  1  0
 14 15  1  0
 15 16  2  0
 17  9  1  0
 18 17  2  0
 20 19  1  6
 20 22  1  0
 21 20  1  0
 22 23  1  6
 23 17  1  0
 24 25  1  0
 24 22  1  0
 26 24  2  0
M  END
$$$$
