QAK.pdb
     RDKit          3D

 24 23  0  0  1  0  0  0  0  0999 V2000
    8.8800  -12.2193   18.1817 N   0  0  0  0  0  0  0  0  0  0  0  0
    7.6028  -12.8244   18.2322 C   0  0  0  0  0  0  0  0  0  0  0  0
    6.6144  -12.1806   17.7808 O   0  0  0  0  0  0  0  0  0  0  0  0
    7.4045  -14.1841   18.7982 C   0  0  0  0  0  0  0  0  0  0  0  0
    8.6956  -14.7181   19.3711 C   0  0  0  0  0  0  0  0  0  0  0  0
    9.5592  -15.3827   18.3486 C   0  0  2  0  0  0  0  0  0  0  0  0
    8.8259  -16.4471   17.7409 N   0  0  0  0  0  0  0  0  0  0  0  0
   10.8713  -15.8126   18.8932 C   0  0  0  0  0  0  0  0  0  0  0  0
   10.9872  -16.8742   19.5582 O   0  0  0  0  0  0  0  0  0  0  0  0
   14.3363  -15.0108   17.9846 C   0  0  0  0  0  0  0  0  0  0  0  0
   13.3801  -15.5530   19.0552 C   0  0  2  0  0  0  0  0  0  0  0  0
   12.0680  -15.0660   18.7034 N   0  0  0  0  0  0  0  0  0  0  0  0
   13.8098  -15.1701   20.4056 C   0  0  0  0  0  0  0  0  0  0  0  0
   13.6877  -13.9864   20.7560 O   0  0  0  0  0  0  0  0  0  0  0  0
   14.3693  -16.0876   21.3600 N   0  0  0  0  0  0  0  0  0  0  0  0
   14.8130  -15.7815   22.6534 C   0  0  1  0  0  0  0  0  0  0  0  0
   14.4886  -16.6053   23.8218 C   0  0  0  0  0  0  0  0  0  0  0  0
   13.0728  -16.9884   24.0814 C   0  0  0  0  0  0  0  0  0  0  0  0
   12.7723  -17.9158   25.1853 C   0  0  0  0  0  0  0  0  0  0  0  0
   11.2313  -18.0305   25.2646 C   0  0  0  0  0  0  0  0  0  0  0  0
   10.8339  -18.9610   26.2793 N   0  0  0  0  0  0  0  0  0  0  0  0
   16.2443  -15.3163   22.6495 C   0  0  0  0  0  0  0  0  0  0  0  0
   16.7280  -14.7530   23.6575 O   0  0  0  0  0  0  0  0  0  0  0  0
   17.0672  -15.4892   21.5524 O   0  0  0  0  0  0  0  0  0  0  0  0
  2  1  1  0
  2  3  2  0
  4  5  1  0
  4  2  1  0
  6  8  1  0
  6  7  1  1
  6  5  1  0
  8  9  2  0
 11 10  1  6
 11 13  1  0
 12 11  1  0
 12  8  1  0
 13 14  2  0
 13 15  1  0
 15 16  1  0
 16 22  1  0
 16 17  1  1
 18 17  1  0
 19 18  1  0
 20 19  1  0
 21 20  1  0
 22 23  2  0
 22 24  1  0
M  END
$$$$
