QAK.pdb
     RDKit          3D

 24 23  0  0  1  0  0  0  0  0999 V2000
    7.3857  -13.3865   16.3019 N   0  0  0  0  0  0  0  0  0  0  0  0
    8.3744  -14.2052   15.7084 C   0  0  0  0  0  0  0  0  0  0  0  0
    9.3496  -13.6474   15.1314 O   0  0  0  0  0  0  0  0  0  0  0  0
    8.2888  -15.6882   15.7501 C   0  0  0  0  0  0  0  0  0  0  0  0
    9.1160  -16.2396   16.8867 C   0  0  0  0  0  0  0  0  0  0  0  0
    8.3019  -16.5778   18.0932 C   0  0  2  0  0  0  0  0  0  0  0  0
    6.9411  -16.2164   17.8527 N   0  0  0  0  0  0  0  0  0  0  0  0
    8.8505  -15.9926   19.3420 C   0  0  0  0  0  0  0  0  0  0  0  0
   10.0569  -16.1487   19.6624 O   0  0  0  0  0  0  0  0  0  0  0  0
    7.3917  -13.9464   22.1376 C   0  0  0  0  0  0  0  0  0  0  0  0
    8.5342  -14.7734   21.5333 C   0  0  2  0  0  0  0  0  0  0  0  0
    8.0624  -15.2277   20.2473 N   0  0  0  0  0  0  0  0  0  0  0  0
    8.9451  -15.8610   22.4294 C   0  0  0  0  0  0  0  0  0  0  0  0
    8.2461  -16.8844   22.4832 O   0  0  0  0  0  0  0  0  0  0  0  0
   10.1182  -15.8174   23.2586 N   0  0  0  0  0  0  0  0  0  0  0  0
   10.6594  -16.8775   23.9980 C   0  0  1  0  0  0  0  0  0  0  0  0
   11.6421  -17.8140   23.4443 C   0  0  0  0  0  0  0  0  0  0  0  0
   12.1028  -18.9677   24.2661 C   0  0  0  0  0  0  0  0  0  0  0  0
   13.0611  -19.9235   23.6858 C   0  0  0  0  0  0  0  0  0  0  0  0
   13.3200  -21.0048   24.7619 C   0  0  0  0  0  0  0  0  0  0  0  0
   14.1172  -22.0744   24.2385 N   0  0  0  0  0  0  0  0  0  0  0  0
   10.9859  -16.4575   25.4059 C   0  0  0  0  0  0  0  0  0  0  0  0
   11.2893  -15.2689   25.6561 O   0  0  0  0  0  0  0  0  0  0  0  0
   10.9641  -17.3513   26.4600 O   0  0  0  0  0  0  0  0  0  0  0  0
  2  1  1  0
  2  3  2  0
  4  5  1  0
  4  2  1  0
  6  8  1  0
  6  7  1  6
  6  5  1  0
  8  9  2  0
 11 10  1  1
 11 13  1  0
 12 11  1  0
 12  8  1  0
 13 14  2  0
 13 15  1  0
 15 16  1  0
 16 22  1  0
 16 17  1  6
 18 17  1  0
 19 18  1  0
 20 19  1  0
 21 20  1  0
 22 23  2  0
 22 24  1  0
M  END
$$$$
