QAK.pdb
     RDKit          3D

 24 23  0  0  1  0  0  0  0  0999 V2000
    6.1281  -20.1329   17.9197 N   0  0  0  0  0  0  0  0  0  0  0  0
    7.5274  -19.9888   17.7738 C   0  0  0  0  0  0  0  0  0  0  0  0
    8.2539  -21.0140   17.9024 O   0  0  0  0  0  0  0  0  0  0  0  0
    8.1503  -18.6728   17.4762 C   0  0  0  0  0  0  0  0  0  0  0  0
    7.0926  -17.6127   17.2815 C   0  0  0  0  0  0  0  0  0  0  0  0
    7.6637  -16.2551   17.0291 C   0  0  2  0  0  0  0  0  0  0  0  0
    8.5124  -16.3132   15.8817 N   0  0  0  0  0  0  0  0  0  0  0  0
    8.3323  -15.6795   18.2226 C   0  0  0  0  0  0  0  0  0  0  0  0
    9.5398  -15.9237   18.4773 O   0  0  0  0  0  0  0  0  0  0  0  0
    7.2234  -13.4038   21.0020 C   0  0  0  0  0  0  0  0  0  0  0  0
    8.2976  -14.2515   20.3077 C   0  0  2  0  0  0  0  0  0  0  0  0
    7.6643  -14.8260   19.1452 N   0  0  0  0  0  0  0  0  0  0  0  0
    8.8715  -15.2476   21.2204 C   0  0  0  0  0  0  0  0  0  0  0  0
    8.3597  -16.3766   21.2678 O   0  0  0  0  0  0  0  0  0  0  0  0
   10.0012  -14.9978   22.0732 N   0  0  0  0  0  0  0  0  0  0  0  0
   10.6287  -15.9198   22.9215 C   0  0  1  0  0  0  0  0  0  0  0  0
   12.0858  -16.0420   23.0255 C   0  0  0  0  0  0  0  0  0  0  0  0
   12.6753  -17.1303   23.8543 C   0  0  0  0  0  0  0  0  0  0  0  0
   14.1376  -17.3034   23.8747 C   0  0  0  0  0  0  0  0  0  0  0  0
   14.4276  -18.5462   24.7497 C   0  0  0  0  0  0  0  0  0  0  0  0
   15.8369  -18.7753   24.8712 N   0  0  0  0  0  0  0  0  0  0  0  0
    9.9423  -15.9941   24.2588 C   0  0  0  0  0  0  0  0  0  0  0  0
    9.2044  -15.0585   24.6429 O   0  0  0  0  0  0  0  0  0  0  0  0
   10.0964  -17.0791   25.1014 O   0  0  0  0  0  0  0  0  0  0  0  0
  2  1  1  0
  2  3  2  0
  4  5  1  0
  4  2  1  0
  6  8  1  0
  6  7  1  6
  6  5  1  0
  8  9  2  0
 11 10  1  1
 11 13  1  0
 12 11  1  0
 12  8  1  0
 13 14  2  0
 13 15  1  0
 15 16  1  0
 16 22  1  0
 16 17  1  1
 18 17  1  0
 19 18  1  0
 20 19  1  0
 21 20  1  0
 22 23  2  0
 22 24  1  0
M  END
$$$$
