QAK.pdb
     RDKit          3D

 24 23  0  0  1  0  0  0  0  0999 V2000
    5.3266  -17.9246   15.1630 N   0  0  0  0  0  0  0  0  0  0  0  0
    5.4297  -18.5272   16.4382 C   0  0  0  0  0  0  0  0  0  0  0  0
    4.4006  -18.5665   17.1694 O   0  0  0  0  0  0  0  0  0  0  0  0
    6.7078  -19.1068   16.9272 C   0  0  0  0  0  0  0  0  0  0  0  0
    7.2297  -18.3278   18.1109 C   0  0  0  0  0  0  0  0  0  0  0  0
    8.0501  -17.1428   17.7163 C   0  0  2  0  0  0  0  0  0  0  0  0
    9.1284  -17.5786   16.8871 N   0  0  0  0  0  0  0  0  0  0  0  0
    8.4959  -16.3365   18.8798 C   0  0  0  0  0  0  0  0  0  0  0  0
    9.4467  -16.7146   19.6118 O   0  0  0  0  0  0  0  0  0  0  0  0
    7.3875  -13.0741   20.3836 C   0  0  0  0  0  0  0  0  0  0  0  0
    8.2850  -14.3187   20.3871 C   0  0  2  0  0  0  0  0  0  0  0  0
    7.8886  -15.1010   19.2411 N   0  0  0  0  0  0  0  0  0  0  0  0
    8.1934  -15.0459   21.6589 C   0  0  0  0  0  0  0  0  0  0  0  0
    7.3100  -15.9068   21.7903 O   0  0  0  0  0  0  0  0  0  0  0  0
    9.0705  -14.8233   22.7755 N   0  0  0  0  0  0  0  0  0  0  0  0
    9.6659  -15.8042   23.5797 C   0  0  1  0  0  0  0  0  0  0  0  0
   10.2733  -17.0211   23.0325 C   0  0  0  0  0  0  0  0  0  0  0  0
   10.8233  -18.0493   23.9593 C   0  0  0  0  0  0  0  0  0  0  0  0
   11.4250  -19.2709   23.3985 C   0  0  0  0  0  0  0  0  0  0  0  0
   11.8688  -20.1411   24.5985 C   0  0  0  0  0  0  0  0  0  0  0  0
   12.3821  -21.4047   24.1588 N   0  0  0  0  0  0  0  0  0  0  0  0
   10.4865  -15.1900   24.6817 C   0  0  0  0  0  0  0  0  0  0  0  0
   10.8887  -15.8928   25.6365 O   0  0  0  0  0  0  0  0  0  0  0  0
   10.8229  -13.8493   24.6836 O   0  0  0  0  0  0  0  0  0  0  0  0
  2  1  1  0
  2  3  2  0
  4  5  1  0
  4  2  1  0
  6  8  1  0
  6  7  1  1
  6  5  1  0
  8  9  2  0
 11 10  1  1
 11 13  1  0
 12 11  1  0
 12  8  1  0
 13 14  2  0
 13 15  1  0
 15 16  1  0
 16 22  1  0
 16 17  1  6
 18 17  1  0
 19 18  1  0
 20 19  1  0
 21 20  1  0
 22 23  2  0
 22 24  1  0
M  END
$$$$
