QAK.pdb
     RDKit          3D

 24 23  0  0  1  0  0  0  0  0999 V2000
   17.7174  -17.6550   15.1159 N   0  0  0  0  0  0  0  0  0  0  0  0
   16.6527  -16.8825   15.6353 C   0  0  0  0  0  0  0  0  0  0  0  0
   16.9024  -15.7148   16.0469 O   0  0  0  0  0  0  0  0  0  0  0  0
   15.2656  -17.4110   15.7049 C   0  0  0  0  0  0  0  0  0  0  0  0
   14.7106  -17.2733   17.1025 C   0  0  0  0  0  0  0  0  0  0  0  0
   13.2506  -16.9556   17.1241 C   0  0  2  0  0  0  0  0  0  0  0  0
   12.9111  -16.2458   15.9320 N   0  0  0  0  0  0  0  0  0  0  0  0
   12.8313  -16.2534   18.3625 C   0  0  0  0  0  0  0  0  0  0  0  0
   13.3980  -15.1949   18.7380 O   0  0  0  0  0  0  0  0  0  0  0  0
    9.8527  -16.3819   20.5551 C   0  0  0  0  0  0  0  0  0  0  0  0
   11.3403  -16.0427   20.3925 C   0  0  2  0  0  0  0  0  0  0  0  0
   11.7768  -16.7215   19.1961 N   0  0  0  0  0  0  0  0  0  0  0  0
   12.1094  -16.4028   21.5898 C   0  0  0  0  0  0  0  0  0  0  0  0
   12.6360  -17.5246   21.6442 O   0  0  0  0  0  0  0  0  0  0  0  0
   12.2947  -15.5303   22.7168 N   0  0  0  0  0  0  0  0  0  0  0  0
   12.8217  -15.8800   23.9672 C   0  0  1  0  0  0  0  0  0  0  0  0
   12.0695  -16.6533   24.9599 C   0  0  0  0  0  0  0  0  0  0  0  0
   12.7679  -17.1781   26.1663 C   0  0  0  0  0  0  0  0  0  0  0  0
   12.0336  -18.0540   27.0950 C   0  0  0  0  0  0  0  0  0  0  0  0
   13.0286  -18.4567   28.2094 C   0  0  0  0  0  0  0  0  0  0  0  0
   12.4106  -19.3293   29.1634 N   0  0  0  0  0  0  0  0  0  0  0  0
   14.2580  -16.3158   23.8577 C   0  0  0  0  0  0  0  0  0  0  0  0
   15.1758  -15.5798   24.2857 O   0  0  0  0  0  0  0  0  0  0  0  0
   14.6148  -17.5248   23.2902 O   0  0  0  0  0  0  0  0  0  0  0  0
  2  1  1  0
  2  3  2  0
  4  5  1  0
  4  2  1  0
  6  8  1  0
  6  7  1  6
  6  5  1  0
  8  9  2  0
 11 10  1  1
 11 13  1  0
 12 11  1  0
 12  8  1  0
 13 14  2  0
 13 15  1  0
 15 16  1  0
 16 22  1  0
 16 17  1  6
 18 17  1  0
 19 18  1  0
 20 19  1  0
 21 20  1  0
 22 23  2  0
 22 24  1  0
M  END
$$$$
