QAK.pdb
     RDKit          3D

 24 23  0  0  1  0  0  0  0  0999 V2000
    6.8010  -12.2444   17.4066 N   0  0  0  0  0  0  0  0  0  0  0  0
    7.1459  -13.3794   16.6365 C   0  0  0  0  0  0  0  0  0  0  0  0
    6.9077  -13.3592   15.3963 O   0  0  0  0  0  0  0  0  0  0  0  0
    7.7744  -14.5781   17.2501 C   0  0  0  0  0  0  0  0  0  0  0  0
    7.8699  -14.4232   18.7491 C   0  0  0  0  0  0  0  0  0  0  0  0
    9.1415  -14.9679   19.3142 C   0  0  2  0  0  0  0  0  0  0  0  0
    9.8610  -15.6391   18.2789 N   0  0  0  0  0  0  0  0  0  0  0  0
    8.9242  -15.8106   20.5165 C   0  0  0  0  0  0  0  0  0  0  0  0
    8.2836  -15.3800   21.5099 O   0  0  0  0  0  0  0  0  0  0  0  0
    9.5748  -19.4040   21.3469 C   0  0  0  0  0  0  0  0  0  0  0  0
    9.2134  -17.9782   21.7838 C   0  0  2  0  0  0  0  0  0  0  0  0
    9.4173  -17.1412   20.6260 N   0  0  0  0  0  0  0  0  0  0  0  0
    9.9893  -17.5611   22.9580 C   0  0  0  0  0  0  0  0  0  0  0  0
   11.1056  -17.0491   22.7830 O   0  0  0  0  0  0  0  0  0  0  0  0
    9.5351  -17.7088   24.3136 N   0  0  0  0  0  0  0  0  0  0  0  0
   10.1468  -17.1885   25.4618 C   0  0  1  0  0  0  0  0  0  0  0  0
    9.5550  -16.1105   26.2599 C   0  0  0  0  0  0  0  0  0  0  0  0
   10.2585  -15.6282   27.4810 C   0  0  0  0  0  0  0  0  0  0  0  0
    9.6488  -14.5528   28.2814 C   0  0  0  0  0  0  0  0  0  0  0  0
   10.6305  -14.2457   29.4375 C   0  0  0  0  0  0  0  0  0  0  0  0
   10.1546  -13.1622   30.2455 N   0  0  0  0  0  0  0  0  0  0  0  0
   10.7447  -18.2786   26.3099 C   0  0  0  0  0  0  0  0  0  0  0  0
   10.2300  -19.4196   26.3270 O   0  0  0  0  0  0  0  0  0  0  0  0
   11.8661  -18.0671   27.0900 O   0  0  0  0  0  0  0  0  0  0  0  0
  2  1  1  0
  2  3  2  0
  4  5  1  0
  4  2  1  0
  6  8  1  0
  6  7  1  6
  6  5  1  0
  8  9  2  0
 11 10  1  6
 11 13  1  0
 12 11  1  0
 12  8  1  0
 13 14  2  0
 13 15  1  0
 15 16  1  0
 16 22  1  0
 16 17  1  1
 18 17  1  0
 19 18  1  0
 20 19  1  0
 21 20  1  0
 22 23  2  0
 22 24  1  0
M  END
$$$$
