QAK.pdb
     RDKit          3D

 24 23  0  0  1  0  0  0  0  0999 V2000
    7.8331  -11.9616   19.0510 N   0  0  0  0  0  0  0  0  0  0  0  0
    7.8191  -13.2937   19.5256 C   0  0  0  0  0  0  0  0  0  0  0  0
    7.1019  -13.5668   20.5287 O   0  0  0  0  0  0  0  0  0  0  0  0
    8.6209  -14.3629   18.8757 C   0  0  0  0  0  0  0  0  0  0  0  0
    9.4165  -13.8062   17.7193 C   0  0  0  0  0  0  0  0  0  0  0  0
   10.3237  -14.8151   17.0931 C   0  0  2  0  0  0  0  0  0  0  0  0
    9.5332  -15.8180   16.4532 N   0  0  0  0  0  0  0  0  0  0  0  0
   11.3138  -15.3720   18.0482 C   0  0  0  0  0  0  0  0  0  0  0  0
   11.1202  -16.4743   18.6226 O   0  0  0  0  0  0  0  0  0  0  0  0
   14.6214  -14.1824   19.3810 C   0  0  0  0  0  0  0  0  0  0  0  0
   13.4385  -15.1594   19.4006 C   0  0  2  0  0  0  0  0  0  0  0  0
   12.5299  -14.7082   18.3742 N   0  0  0  0  0  0  0  0  0  0  0  0
   12.8295  -15.2421   20.7336 C   0  0  0  0  0  0  0  0  0  0  0  0
   11.8706  -14.5007   20.9973 O   0  0  0  0  0  0  0  0  0  0  0  0
   13.2766  -16.1366   21.7660 N   0  0  0  0  0  0  0  0  0  0  0  0
   12.6273  -16.4060   22.9780 C   0  0  1  0  0  0  0  0  0  0  0  0
   11.2447  -16.8879   23.0503 C   0  0  0  0  0  0  0  0  0  0  0  0
   10.8767  -18.1691   22.3855 C   0  0  0  0  0  0  0  0  0  0  0  0
    9.4850  -18.6440   22.4657 C   0  0  0  0  0  0  0  0  0  0  0  0
    9.4281  -19.9894   21.7034 C   0  0  0  0  0  0  0  0  0  0  0  0
    8.3354  -20.0125   20.7767 N   0  0  0  0  0  0  0  0  0  0  0  0
   13.5391  -17.1086   23.9476 C   0  0  0  0  0  0  0  0  0  0  0  0
   13.1413  -17.3844   25.1022 O   0  0  0  0  0  0  0  0  0  0  0  0
   14.8291  -17.4709   23.6081 O   0  0  0  0  0  0  0  0  0  0  0  0
  2  1  1  0
  2  3  2  0
  4  5  1  0
  4  2  1  0
  6  8  1  0
  6  7  1  1
  6  5  1  0
  8  9  2  0
 11 10  1  1
 11 13  1  0
 12 11  1  0
 12  8  1  0
 13 14  2  0
 13 15  1  0
 15 16  1  0
 16 22  1  0
 16 17  1  6
 18 17  1  0
 19 18  1  0
 20 19  1  0
 21 20  1  0
 22 23  2  0
 22 24  1  0
M  END
$$$$
