QAK.pdb
     RDKit          3D

 24 23  0  0  1  0  0  0  0  0999 V2000
   12.6118  -19.2999   15.6066 N   0  0  0  0  0  0  0  0  0  0  0  0
   11.2932  -18.8132   15.4499 C   0  0  0  0  0  0  0  0  0  0  0  0
   10.9077  -18.4835   14.2933 O   0  0  0  0  0  0  0  0  0  0  0  0
   10.3659  -18.6842   16.6040 C   0  0  0  0  0  0  0  0  0  0  0  0
   11.0790  -18.9907   17.8994 C   0  0  0  0  0  0  0  0  0  0  0  0
   10.1774  -18.9414   19.0900 C   0  0  2  0  0  0  0  0  0  0  0  0
    9.0003  -18.2060   18.7523 N   0  0  0  0  0  0  0  0  0  0  0  0
   10.8565  -18.4315   20.3072 C   0  0  0  0  0  0  0  0  0  0  0  0
   11.9578  -18.9050   20.6886 O   0  0  0  0  0  0  0  0  0  0  0  0
   10.1585  -15.6452   22.7245 C   0  0  0  0  0  0  0  0  0  0  0  0
   10.9554  -16.8879   22.3062 C   0  0  2  0  0  0  0  0  0  0  0  0
   10.3172  -17.3895   21.1129 N   0  0  0  0  0  0  0  0  0  0  0  0
   11.0308  -17.8713   23.3934 C   0  0  0  0  0  0  0  0  0  0  0  0
   10.0389  -18.5788   23.6262 O   0  0  0  0  0  0  0  0  0  0  0  0
   12.1925  -18.0706   24.2159 N   0  0  0  0  0  0  0  0  0  0  0  0
   12.3363  -19.0087   25.2467 C   0  0  1  0  0  0  0  0  0  0  0  0
   13.3064  -20.1065   25.1943 C   0  0  0  0  0  0  0  0  0  0  0  0
   13.3519  -21.1013   26.3019 C   0  0  0  0  0  0  0  0  0  0  0  0
   14.3471  -22.1857   26.2506 C   0  0  0  0  0  0  0  0  0  0  0  0
   14.1313  -23.0495   27.5162 C   0  0  0  0  0  0  0  0  0  0  0  0
   14.9738  -24.2085   27.5006 N   0  0  0  0  0  0  0  0  0  0  0  0
   12.2718  -18.3542   26.6005 C   0  0  0  0  0  0  0  0  0  0  0  0
   12.8707  -17.2749   26.8094 O   0  0  0  0  0  0  0  0  0  0  0  0
   11.5614  -18.9089   27.6485 O   0  0  0  0  0  0  0  0  0  0  0  0
  2  1  1  0
  2  3  2  0
  4  5  1  0
  4  2  1  0
  6  8  1  0
  6  7  1  6
  6  5  1  0
  8  9  2  0
 11 10  1  1
 11 13  1  0
 12 11  1  0
 12  8  1  0
 13 14  2  0
 13 15  1  0
 15 16  1  0
 16 22  1  0
 16 17  1  6
 18 17  1  0
 19 18  1  0
 20 19  1  0
 21 20  1  0
 22 23  2  0
 22 24  1  0
M  END
$$$$
