QAK.pdb
     RDKit          3D

 24 23  0  0  1  0  0  0  0  0999 V2000
   13.4915  -13.3410   20.1985 N   0  0  0  0  0  0  0  0  0  0  0  0
   13.1507  -14.0793   19.0413 C   0  0  0  0  0  0  0  0  0  0  0  0
   14.0067  -14.1785   18.1180 O   0  0  0  0  0  0  0  0  0  0  0  0
   11.8234  -14.7311   18.8934 C   0  0  0  0  0  0  0  0  0  0  0  0
   10.7950  -13.7429   18.3974 C   0  0  0  0  0  0  0  0  0  0  0  0
    9.4257  -14.3302   18.2835 C   0  0  2  0  0  0  0  0  0  0  0  0
    8.5442  -13.3520   17.7302 N   0  0  0  0  0  0  0  0  0  0  0  0
    8.9355  -14.9029   19.5620 C   0  0  0  0  0  0  0  0  0  0  0  0
    8.4858  -14.1675   20.4782 O   0  0  0  0  0  0  0  0  0  0  0  0
    8.2463  -18.3737   20.7737 C   0  0  0  0  0  0  0  0  0  0  0  0
    8.4426  -16.8788   21.0590 C   0  0  2  0  0  0  0  0  0  0  0  0
    8.9403  -16.2999   19.8343 N   0  0  0  0  0  0  0  0  0  0  0  0
    9.3211  -16.6613   22.2147 C   0  0  0  0  0  0  0  0  0  0  0  0
   10.5343  -16.4943   22.0174 O   0  0  0  0  0  0  0  0  0  0  0  0
    8.8622  -16.6286   23.5764 N   0  0  0  0  0  0  0  0  0  0  0  0
    9.6403  -16.3814   24.7152 C   0  0  1  0  0  0  0  0  0  0  0  0
    9.1435  -15.6275   25.8702 C   0  0  0  0  0  0  0  0  0  0  0  0
   10.0221  -15.4381   27.0580 C   0  0  0  0  0  0  0  0  0  0  0  0
    9.5006  -14.7081   28.2259 C   0  0  0  0  0  0  0  0  0  0  0  0
   10.6375  -14.6745   29.2751 C   0  0  0  0  0  0  0  0  0  0  0  0
   10.2707  -13.8791   30.4092 N   0  0  0  0  0  0  0  0  0  0  0  0
   10.4373  -17.5947   25.1123 C   0  0  0  0  0  0  0  0  0  0  0  0
    9.8686  -18.6977   25.2773 O   0  0  0  0  0  0  0  0  0  0  0  0
   11.8047  -17.5406   25.3072 O   0  0  0  0  0  0  0  0  0  0  0  0
  2  1  1  0
  2  3  2  0
  4  5  1  0
  4  2  1  0
  6  8  1  0
  6  7  1  1
  6  5  1  0
  8  9  2  0
 11 10  1  6
 11 13  1  0
 12 11  1  0
 12  8  1  0
 13 14  2  0
 13 15  1  0
 15 16  1  0
 16 22  1  0
 16 17  1  1
 18 17  1  0
 19 18  1  0
 20 19  1  0
 21 20  1  0
 22 23  2  0
 22 24  1  0
M  END
$$$$
