QAK.pdb
     RDKit          3D

 24 23  0  0  1  0  0  0  0  0999 V2000
    8.4227  -12.1395   18.8829 N   0  0  0  0  0  0  0  0  0  0  0  0
    8.2042  -13.5193   18.6628 C   0  0  0  0  0  0  0  0  0  0  0  0
    8.7359  -14.0583   17.6519 O   0  0  0  0  0  0  0  0  0  0  0  0
    7.3726  -14.3353   19.5853 C   0  0  0  0  0  0  0  0  0  0  0  0
    8.2300  -14.9825   20.6467 C   0  0  0  0  0  0  0  0  0  0  0  0
    7.4924  -15.2352   21.9214 C   0  0  2  0  0  0  0  0  0  0  0  0
    6.0973  -15.0216   21.7021 N   0  0  0  0  0  0  0  0  0  0  0  0
    8.0310  -14.4557   23.0638 C   0  0  0  0  0  0  0  0  0  0  0  0
    9.2654  -14.4135   23.3027 O   0  0  0  0  0  0  0  0  0  0  0  0
    6.5658  -12.2454   25.7132 C   0  0  0  0  0  0  0  0  0  0  0  0
    7.6352  -13.2411   25.2447 C   0  0  2  0  0  0  0  0  0  0  0  0
    7.2018  -13.7150   23.9523 N   0  0  0  0  0  0  0  0  0  0  0  0
    7.8424  -14.3117   26.2273 C   0  0  0  0  0  0  0  0  0  0  0  0
    7.1530  -15.3395   26.1424 O   0  0  0  0  0  0  0  0  0  0  0  0
    8.8034  -14.2467   27.2941 N   0  0  0  0  0  0  0  0  0  0  0  0
    9.5645  -15.3090   27.7999 C   0  0  1  0  0  0  0  0  0  0  0  0
   10.2511  -16.2767   26.9390 C   0  0  0  0  0  0  0  0  0  0  0  0
   11.0344  -17.3835   27.5556 C   0  0  0  0  0  0  0  0  0  0  0  0
   11.6940  -18.3680   26.6813 C   0  0  0  0  0  0  0  0  0  0  0  0
   12.3878  -19.3942   27.6087 C   0  0  0  0  0  0  0  0  0  0  0  0
   13.0800  -20.3924   26.8486 N   0  0  0  0  0  0  0  0  0  0  0  0
   10.4029  -14.8769   28.9727 C   0  0  0  0  0  0  0  0  0  0  0  0
   10.9840  -15.7295   29.6818 O   0  0  0  0  0  0  0  0  0  0  0  0
   10.5620  -13.5453   29.3077 O   0  0  0  0  0  0  0  0  0  0  0  0
  2  1  1  0
  2  3  2  0
  4  5  1  0
  4  2  1  0
  6  8  1  0
  6  7  1  6
  6  5  1  0
  8  9  2  0
 11 10  1  1
 11 13  1  0
 12 11  1  0
 12  8  1  0
 13 14  2  0
 13 15  1  0
 15 16  1  0
 16 22  1  0
 16 17  1  6
 18 17  1  0
 19 18  1  0
 20 19  1  0
 21 20  1  0
 22 23  2  0
 22 24  1  0
M  END
$$$$
