QAK.pdb
     RDKit          3D

 24 23  0  0  1  0  0  0  0  0999 V2000
   12.6246  -16.8816   14.5792 N   0  0  0  0  0  0  0  0  0  0  0  0
   11.4202  -16.7664   13.8469 C   0  0  0  0  0  0  0  0  0  0  0  0
   11.3129  -17.4047   12.7623 O   0  0  0  0  0  0  0  0  0  0  0  0
   10.2946  -15.9207   14.3225 C   0  0  0  0  0  0  0  0  0  0  0  0
   10.6343  -15.2723   15.6433 C   0  0  0  0  0  0  0  0  0  0  0  0
    9.7571  -15.7301   16.7631 C   0  0  2  0  0  0  0  0  0  0  0  0
    8.4517  -16.0012   16.2507 N   0  0  0  0  0  0  0  0  0  0  0  0
    9.7511  -14.7908   17.9122 C   0  0  0  0  0  0  0  0  0  0  0  0
   10.7979  -14.5530   18.5680 O   0  0  0  0  0  0  0  0  0  0  0  0
    7.1341  -12.6215   19.5137 C   0  0  0  0  0  0  0  0  0  0  0  0
    8.5374  -13.2421   19.4985 C   0  0  2  0  0  0  0  0  0  0  0  0
    8.5801  -14.1063   18.3436 N   0  0  0  0  0  0  0  0  0  0  0  0
    8.8371  -13.9283   20.7610 C   0  0  0  0  0  0  0  0  0  0  0  0
    8.8557  -13.2654   21.8093 O   0  0  0  0  0  0  0  0  0  0  0  0
    9.1137  -15.3350   20.8637 N   0  0  0  0  0  0  0  0  0  0  0  0
    9.3748  -16.0524   22.0387 C   0  0  1  0  0  0  0  0  0  0  0  0
    8.9922  -17.4564   22.2156 C   0  0  0  0  0  0  0  0  0  0  0  0
    8.4649  -18.2269   21.0550 C   0  0  0  0  0  0  0  0  0  0  0  0
    8.1916  -19.6652   21.2143 C   0  0  0  0  0  0  0  0  0  0  0  0
    7.6585  -20.1716   19.8528 C   0  0  0  0  0  0  0  0  0  0  0  0
    7.3206  -21.5627   19.9152 N   0  0  0  0  0  0  0  0  0  0  0  0
   10.7492  -15.7526   22.5736 C   0  0  0  0  0  0  0  0  0  0  0  0
   11.0650  -16.1003   23.7341 O   0  0  0  0  0  0  0  0  0  0  0  0
   11.7008  -15.0932   21.8183 O   0  0  0  0  0  0  0  0  0  0  0  0
  2  1  1  0
  2  3  2  0
  4  5  1  0
  4  2  1  0
  6  8  1  0
  6  7  1  6
  6  5  1  0
  8  9  2  0
 11 10  1  1
 11 13  1  0
 12 11  1  0
 12  8  1  0
 13 14  2  0
 13 15  1  0
 15 16  1  0
 16 22  1  0
 16 17  1  6
 18 17  1  0
 19 18  1  0
 20 19  1  0
 21 20  1  0
 22 23  2  0
 22 24  1  0
M  END
$$$$
