RQI.pdb
     RDKit          3D

 29 28  0  0  1  0  0  0  0  0999 V2000
   10.4729  -14.4358   16.9293 N   0  0  0  0  0  0  0  0  0  0  0  0
    9.2367  -13.7556   16.9333 C   0  0  0  0  0  0  0  0  0  0  0  0
    8.6039  -13.5596   15.8427 N   0  0  0  0  0  0  0  0  0  0  0  0
    8.6449  -13.2588   18.1602 N   0  0  0  0  0  0  0  0  0  0  0  0
    7.2505  -13.4053   18.3803 C   0  0  0  0  0  0  0  0  0  0  0  0
    6.8210  -14.7551   18.7923 C   0  0  0  0  0  0  0  0  0  0  0  0
    7.4649  -15.4178   19.9521 C   0  0  0  0  0  0  0  0  0  0  0  0
    6.9160  -16.6997   20.3870 C   0  0  2  0  0  0  0  0  0  0  0  0
    5.5522  -16.9288   19.9391 N   0  0  0  0  0  0  0  0  0  0  0  0
    6.9126  -16.8877   21.8691 C   0  0  0  0  0  0  0  0  0  0  0  0
    5.8728  -16.5459   22.4695 O   0  0  0  0  0  0  0  0  0  0  0  0
    7.6244  -13.2359   15.8540 N   0  0  0  0  0  0  0  0  0  0  0  0
   10.4763  -20.3732   25.6980 C   0  0  0  0  0  0  0  0  0  0  0  0
    9.8294  -19.4993   26.6181 O   0  0  0  0  0  0  0  0  0  0  0  0
   10.0155  -19.7098   27.8421 C   0  0  0  0  0  0  0  0  0  0  0  0
    8.9663  -18.3801   26.1342 C   0  0  0  0  0  0  0  0  0  0  0  0
    8.8956  -18.4260   24.6440 C   0  0  1  0  0  0  0  0  0  0  0  0
    8.0149  -17.3463   24.0551 N   0  0  0  0  0  0  0  0  0  0  0  0
    7.9720  -17.4095   22.6134 C   0  0  0  0  0  0  0  0  0  0  0  0
    8.5128  -16.0568   24.5879 O   0  0  0  0  0  0  0  0  0  0  0  0
    9.4743  -15.4804   24.0476 C   0  0  0  0  0  0  0  0  0  0  0  0
    6.3717  -10.9054   26.7166 C   0  0  0  0  0  0  0  0  0  0  0  0
    7.5555  -11.8676   26.6929 C   0  0  2  0  0  0  0  0  0  0  0  0
    7.1504  -13.2221   26.2160 C   0  0  0  0  0  0  0  0  0  0  0  0
    6.0928  -13.7616   27.1485 C   0  0  2  0  0  0  0  0  0  0  0  0
    8.3527  -14.1545   26.1568 N   0  0  0  0  0  0  0  0  0  0  0  0
    7.8878  -15.4851   25.7140 C   0  0  0  0  0  0  0  0  0  0  0  0
    9.0446  -14.2999   27.4608 O   0  0  0  0  0  0  0  0  0  0  0  0
    8.9493  -15.2880   28.2215 O   0  0  0  0  0  0  0  0  0  0  0  0
  2  3  2  0
  2  1  1  0
  4  2  1  0
  5  4  1  0
  6  5  1  0
  7  6  1  0
  8  7  1  0
  8  9  1  1
 10  8  1  0
 10 11  2  0
 13 12  1  0
 13 14  2  0
 15 16  1  0
 15 13  1  0
 17 16  1  1
 17 18  1  0
 17 19  1  0
 18 10  1  0
 19 20  2  0
 19 26  1  0
 22 21  1  0
 23 22  1  0
 23 25  1  0
 23 24  1  6
 25 27  1  0
 25 26  1  1
 27 28  2  0
 27 29  1  0
M  END
$$$$
