RQI.pdb
     RDKit          3D

 29 28  0  0  1  0  0  0  0  0999 V2000
    8.9942  -15.0931   16.7982 N   0  0  0  0  0  0  0  0  0  0  0  0
    8.2235  -13.9219   16.9564 C   0  0  0  0  0  0  0  0  0  0  0  0
    8.6067  -12.8214   16.4366 N   0  0  0  0  0  0  0  0  0  0  0  0
    6.9826  -13.9225   17.7064 N   0  0  0  0  0  0  0  0  0  0  0  0
    7.0128  -13.7963   19.1198 C   0  0  0  0  0  0  0  0  0  0  0  0
    7.4727  -14.9959   19.8449 C   0  0  0  0  0  0  0  0  0  0  0  0
    7.0061  -16.3403   19.4280 C   0  0  0  0  0  0  0  0  0  0  0  0
    7.4096  -17.4790   20.2491 C   0  0  2  0  0  0  0  0  0  0  0  0
    6.9691  -18.7598   19.7213 N   0  0  0  0  0  0  0  0  0  0  0  0
    6.9241  -17.4126   21.6605 C   0  0  0  0  0  0  0  0  0  0  0  0
    5.7838  -17.8722   21.8773 O   0  0  0  0  0  0  0  0  0  0  0  0
    8.0903  -11.9467   16.6168 N   0  0  0  0  0  0  0  0  0  0  0  0
    6.3219  -20.1436   26.4161 C   0  0  0  0  0  0  0  0  0  0  0  0
    7.5177  -20.1907   25.6435 O   0  0  0  0  0  0  0  0  0  0  0  0
    8.3079  -21.1422   25.8607 C   0  0  0  0  0  0  0  0  0  0  0  0
    7.8092  -19.1438   24.6183 C   0  0  0  0  0  0  0  0  0  0  0  0
    6.6911  -18.1551   24.5974 C   0  0  1  0  0  0  0  0  0  0  0  0
    7.1038  -16.7995   24.0679 N   0  0  0  0  0  0  0  0  0  0  0  0
    7.6447  -16.8822   22.7319 C   0  0  0  0  0  0  0  0  0  0  0  0
    8.0381  -16.2232   25.0625 O   0  0  0  0  0  0  0  0  0  0  0  0
    9.2573  -16.4637   24.9957 C   0  0  0  0  0  0  0  0  0  0  0  0
    5.8650  -11.5487   26.6860 C   0  0  0  0  0  0  0  0  0  0  0  0
    6.8198  -12.6030   26.1341 C   0  0  2  0  0  0  0  0  0  0  0  0
    7.6121  -13.2471   27.2221 C   0  0  0  0  0  0  0  0  0  0  0  0
    8.4878  -12.1972   27.8625 C   0  0  2  0  0  0  0  0  0  0  0  0
    8.4488  -14.3944   26.6727 N   0  0  0  0  0  0  0  0  0  0  0  0
    7.5355  -15.3976   26.0879 C   0  0  0  0  0  0  0  0  0  0  0  0
    9.2855  -15.0543   27.7046 O   0  0  0  0  0  0  0  0  0  0  0  0
    8.9248  -16.0152   28.4191 O   0  0  0  0  0  0  0  0  0  0  0  0
  2  3  2  0
  2  1  1  0
  4  2  1  0
  5  4  1  0
  6  5  1  0
  7  6  1  0
  8  7  1  0
  8  9  1  6
 10  8  1  0
 10 11  2  0
 13 12  1  0
 13 14  2  0
 15 16  1  0
 15 13  1  0
 17 16  1  6
 17 18  1  0
 17 19  1  0
 18 10  1  0
 19 20  2  0
 19 26  1  0
 22 21  1  0
 23 22  1  0
 23 25  1  0
 23 24  1  1
 25 27  1  0
 25 26  1  6
 27 28  2  0
 27 29  1  0
M  END
$$$$
