RQI.pdb
     RDKit          3D

 29 28  0  0  1  0  0  0  0  0999 V2000
    2.0194  -19.3943   18.9683 N   0  0  0  0  0  0  0  0  0  0  0  0
    2.9474  -20.4200   18.6902 C   0  0  0  0  0  0  0  0  0  0  0  0
    2.6645  -21.3361   17.8483 N   0  0  0  0  0  0  0  0  0  0  0  0
    4.2417  -20.4730   19.3417 N   0  0  0  0  0  0  0  0  0  0  0  0
    4.5904  -19.4845   20.2986 C   0  0  0  0  0  0  0  0  0  0  0  0
    6.0076  -19.0753   20.2866 C   0  0  0  0  0  0  0  0  0  0  0  0
    6.3781  -17.6919   19.9021 C   0  0  0  0  0  0  0  0  0  0  0  0
    7.7950  -17.3383   19.9374 C   0  0  2  0  0  0  0  0  0  0  0  0
    8.6153  -18.1395   19.0440 N   0  0  0  0  0  0  0  0  0  0  0  0
    8.4144  -17.4462   21.2926 C   0  0  0  0  0  0  0  0  0  0  0  0
    8.5557  -18.6000   21.7480 O   0  0  0  0  0  0  0  0  0  0  0  0
    3.3388  -22.0900   17.6450 N   0  0  0  0  0  0  0  0  0  0  0  0
   13.5646  -17.6233   22.8705 C   0  0  0  0  0  0  0  0  0  0  0  0
   13.0682  -17.5494   24.2036 O   0  0  0  0  0  0  0  0  0  0  0  0
   13.8708  -17.8113   25.1335 C   0  0  0  0  0  0  0  0  0  0  0  0
   11.6474  -17.1743   24.4724 C   0  0  0  0  0  0  0  0  0  0  0  0
   10.9473  -16.9478   23.1738 C   0  0  2  0  0  0  0  0  0  0  0  0
    9.5016  -16.5345   23.3398 N   0  0  0  0  0  0  0  0  0  0  0  0
    8.8377  -16.3660   22.0689 C   0  0  0  0  0  0  0  0  0  0  0  0
    9.5036  -15.3183   24.1854 O   0  0  0  0  0  0  0  0  0  0  0  0
   10.2562  -14.3644   23.9163 C   0  0  0  0  0  0  0  0  0  0  0  0
    5.8082  -12.2258   25.6302 C   0  0  0  0  0  0  0  0  0  0  0  0
    7.1809  -12.8512   25.4008 C   0  0  2  0  0  0  0  0  0  0  0  0
    7.7269  -13.4480   26.6545 C   0  0  0  0  0  0  0  0  0  0  0  0
    8.0344  -12.3308   27.6223 C   0  0  2  0  0  0  0  0  0  0  0  0
    8.9721  -14.2735   26.3607 N   0  0  0  0  0  0  0  0  0  0  0  0
    8.6443  -15.2482   25.3000 C   0  0  0  0  0  0  0  0  0  0  0  0
    9.4791  -15.0089   27.5449 O   0  0  0  0  0  0  0  0  0  0  0  0
    9.1170  -16.1546   27.8917 O   0  0  0  0  0  0  0  0  0  0  0  0
  2  3  2  0
  2  1  1  0
  4  2  1  0
  5  4  1  0
  6  5  1  0
  7  6  1  0
  8  7  1  0
  8  9  1  6
 10  8  1  0
 10 11  2  0
 13 12  1  0
 13 14  2  0
 15 16  1  0
 15 13  1  0
 17 16  1  1
 17 18  1  0
 17 19  1  0
 18 10  1  0
 19 20  2  0
 19 26  1  0
 22 21  1  0
 23 22  1  0
 23 25  1  0
 23 24  1  1
 25 27  1  0
 25 26  1  6
 27 28  2  0
 27 29  1  0
M  END
$$$$
