RQI.pdb
     RDKit          3D

 29 28  0  0  1  0  0  0  0  0999 V2000
    8.5599  -12.5690   17.6241 N   0  0  0  0  0  0  0  0  0  0  0  0
    8.7572  -12.4441   19.0156 C   0  0  0  0  0  0  0  0  0  0  0  0
    9.3322  -11.4114   19.4963 N   0  0  0  0  0  0  0  0  0  0  0  0
    8.3208  -13.4709   19.9417 N   0  0  0  0  0  0  0  0  0  0  0  0
    8.0117  -14.7697   19.4600 C   0  0  0  0  0  0  0  0  0  0  0  0
    6.6610  -15.2568   19.7983 C   0  0  0  0  0  0  0  0  0  0  0  0
    6.4311  -15.9871   21.0682 C   0  0  0  0  0  0  0  0  0  0  0  0
    7.2060  -17.2042   21.2964 C   0  0  2  0  0  0  0  0  0  0  0  0
    6.5181  -18.4160   20.8824 N   0  0  0  0  0  0  0  0  0  0  0  0
    7.6080  -17.4104   22.7204 C   0  0  0  0  0  0  0  0  0  0  0  0
    6.6805  -17.5466   23.5448 O   0  0  0  0  0  0  0  0  0  0  0  0
    9.5053  -11.3299   20.5100 N   0  0  0  0  0  0  0  0  0  0  0  0
   12.4482  -20.2570   25.1556 C   0  0  0  0  0  0  0  0  0  0  0  0
   11.2888  -20.7586   24.4976 O   0  0  0  0  0  0  0  0  0  0  0  0
   11.3171  -21.9524   24.1087 C   0  0  0  0  0  0  0  0  0  0  0  0
   10.0926  -19.8894   24.2843 C   0  0  0  0  0  0  0  0  0  0  0  0
   10.3652  -18.5350   24.8495 C   0  0  2  0  0  0  0  0  0  0  0  0
    9.2531  -17.5441   24.5859 N   0  0  0  0  0  0  0  0  0  0  0  0
    8.9243  -17.4604   23.1825 C   0  0  0  0  0  0  0  0  0  0  0  0
    9.6821  -16.2579   25.1827 O   0  0  0  0  0  0  0  0  0  0  0  0
   10.6449  -15.6309   24.7045 C   0  0  0  0  0  0  0  0  0  0  0  0
    6.7309  -12.1906   25.7319 C   0  0  0  0  0  0  0  0  0  0  0  0
    7.9209  -13.1431   25.6655 C   0  0  2  0  0  0  0  0  0  0  0  0
    8.4133  -13.4995   27.0282 C   0  0  0  0  0  0  0  0  0  0  0  0
    8.8925  -12.2399   27.7086 C   0  0  2  0  0  0  0  0  0  0  0  0
    9.5285  -14.5327   26.9451 N   0  0  0  0  0  0  0  0  0  0  0  0
    8.9900  -15.7472   26.2989 C   0  0  0  0  0  0  0  0  0  0  0  0
   10.0828  -14.9027   28.2703 O   0  0  0  0  0  0  0  0  0  0  0  0
   10.8658  -14.1998   28.9462 O   0  0  0  0  0  0  0  0  0  0  0  0
  2  3  2  0
  2  1  1  0
  4  2  1  0
  5  4  1  0
  6  5  1  0
  7  6  1  0
  8  7  1  0
  8  9  1  1
 10  8  1  0
 10 11  2  0
 13 12  1  0
 13 14  2  0
 15 16  1  0
 15 13  1  0
 17 16  1  1
 17 18  1  0
 17 19  1  0
 18 10  1  0
 19 20  2  0
 19 26  1  0
 22 21  1  0
 23 22  1  0
 23 25  1  0
 23 24  1  1
 25 27  1  0
 25 26  1  6
 27 28  2  0
 27 29  1  0
M  END
$$$$
