RQI.pdb
     RDKit          3D

 29 28  0  0  1  0  0  0  0  0999 V2000
    7.2870  -12.4454   19.6881 N   0  0  0  0  0  0  0  0  0  0  0  0
    8.4782  -12.7182   18.9830 C   0  0  0  0  0  0  0  0  0  0  0  0
    9.4183  -11.8562   18.9453 N   0  0  0  0  0  0  0  0  0  0  0  0
    8.6782  -13.9718   18.2823 N   0  0  0  0  0  0  0  0  0  0  0  0
    7.6904  -14.9880   18.3593 C   0  0  0  0  0  0  0  0  0  0  0  0
    8.1446  -16.2573   18.9583 C   0  0  0  0  0  0  0  0  0  0  0  0
    8.2070  -16.4025   20.4327 C   0  0  0  0  0  0  0  0  0  0  0  0
    8.6195  -17.6983   20.9662 C   0  0  2  0  0  0  0  0  0  0  0  0
    7.7247  -18.7856   20.6056 N   0  0  0  0  0  0  0  0  0  0  0  0
    8.7467  -17.7299   22.4544 C   0  0  0  0  0  0  0  0  0  0  0  0
    7.7293  -18.0733   23.0912 O   0  0  0  0  0  0  0  0  0  0  0  0
   10.2761  -12.0371   18.4016 N   0  0  0  0  0  0  0  0  0  0  0  0
   13.8187  -18.9565   25.0961 C   0  0  0  0  0  0  0  0  0  0  0  0
   12.8406  -19.6524   24.3293 O   0  0  0  0  0  0  0  0  0  0  0  0
   13.2552  -20.4427   23.4457 C   0  0  0  0  0  0  0  0  0  0  0  0
   11.3822  -19.4422   24.5757 C   0  0  0  0  0  0  0  0  0  0  0  0
   11.1748  -18.0810   25.1520 C   0  0  2  0  0  0  0  0  0  0  0  0
    9.9460  -17.3849   24.6101 N   0  0  0  0  0  0  0  0  0  0  0  0
    9.9030  -17.4082   23.1671 C   0  0  0  0  0  0  0  0  0  0  0  0
    9.9401  -16.0226   25.1919 O   0  0  0  0  0  0  0  0  0  0  0  0
   10.7753  -15.1763   24.8244 C   0  0  0  0  0  0  0  0  0  0  0  0
    5.7585  -12.9729   25.9632 C   0  0  0  0  0  0  0  0  0  0  0  0
    7.1704  -13.5262   25.7955 C   0  0  2  0  0  0  0  0  0  0  0  0
    7.8225  -13.7714   27.1149 C   0  0  0  0  0  0  0  0  0  0  0  0
    7.9649  -12.4502   27.8315 C   0  0  2  0  0  0  0  0  0  0  0  0
    9.1775  -14.4408   26.9304 N   0  0  0  0  0  0  0  0  0  0  0  0
    8.9789  -15.6901   26.1672 C   0  0  0  0  0  0  0  0  0  0  0  0
    9.8486  -14.7661   28.2126 O   0  0  0  0  0  0  0  0  0  0  0  0
   10.5071  -13.9605   28.9065 O   0  0  0  0  0  0  0  0  0  0  0  0
  2  3  2  0
  2  1  1  0
  4  2  1  0
  5  4  1  0
  6  5  1  0
  7  6  1  0
  8  7  1  0
  8  9  1  1
 10  8  1  0
 10 11  2  0
 13 12  1  0
 13 14  2  0
 15 16  1  0
 15 13  1  0
 17 16  1  1
 17 18  1  0
 17 19  1  0
 18 10  1  0
 19 20  2  0
 19 26  1  0
 22 21  1  0
 23 22  1  0
 23 25  1  0
 23 24  1  1
 25 27  1  0
 25 26  1  6
 27 28  2  0
 27 29  1  0
M  END
$$$$
