RQI.pdb
     RDKit          3D

 29 28  0  0  1  0  0  0  0  0999 V2000
    8.8986  -11.8463   18.8289 N   0  0  0  0  0  0  0  0  0  0  0  0
    8.2724  -12.7561   17.9509 C   0  0  0  0  0  0  0  0  0  0  0  0
    8.6130  -12.8065   16.7222 N   0  0  0  0  0  0  0  0  0  0  0  0
    7.2307  -13.6572   18.4040 N   0  0  0  0  0  0  0  0  0  0  0  0
    7.0399  -13.8724   19.7938 C   0  0  0  0  0  0  0  0  0  0  0  0
    7.7359  -15.0503   20.3454 C   0  0  0  0  0  0  0  0  0  0  0  0
    7.2967  -16.4160   19.9698 C   0  0  0  0  0  0  0  0  0  0  0  0
    7.9080  -17.5393   20.6756 C   0  0  2  0  0  0  0  0  0  0  0  0
    7.3859  -18.8334   20.2688 N   0  0  0  0  0  0  0  0  0  0  0  0
    7.7661  -17.4729   22.1613 C   0  0  0  0  0  0  0  0  0  0  0  0
    6.6004  -17.4323   22.6062 O   0  0  0  0  0  0  0  0  0  0  0  0
    8.1216  -13.4321   16.0655 N   0  0  0  0  0  0  0  0  0  0  0  0
   10.2919  -20.6787   26.5359 C   0  0  0  0  0  0  0  0  0  0  0  0
   11.2068  -19.7786   25.9181 O   0  0  0  0  0  0  0  0  0  0  0  0
   12.4314  -20.0345   26.0283 C   0  0  0  0  0  0  0  0  0  0  0  0
   10.7171  -18.5810   25.1713 C   0  0  0  0  0  0  0  0  0  0  0  0
    9.2258  -18.5468   25.2257 C   0  0  1  0  0  0  0  0  0  0  0  0
    8.6294  -17.3641   24.4952 N   0  0  0  0  0  0  0  0  0  0  0  0
    8.8274  -17.4538   23.0679 C   0  0  0  0  0  0  0  0  0  0  0  0
    9.2125  -16.1490   25.1100 O   0  0  0  0  0  0  0  0  0  0  0  0
   10.1682  -15.5646   24.5679 C   0  0  0  0  0  0  0  0  0  0  0  0
    6.3634  -12.0377   26.2222 C   0  0  0  0  0  0  0  0  0  0  0  0
    7.5286  -12.9806   25.9374 C   0  0  2  0  0  0  0  0  0  0  0  0
    8.1770  -13.4458   27.1981 C   0  0  0  0  0  0  0  0  0  0  0  0
    8.7170  -12.2415   27.9313 C   0  0  2  0  0  0  0  0  0  0  0  0
    9.2866  -14.4440   26.8970 N   0  0  0  0  0  0  0  0  0  0  0  0
    8.6756  -15.6574   26.3165 C   0  0  0  0  0  0  0  0  0  0  0  0
   10.0675  -14.8301   28.0976 O   0  0  0  0  0  0  0  0  0  0  0  0
    9.9049  -15.8806   28.7564 O   0  0  0  0  0  0  0  0  0  0  0  0
  2  3  2  0
  2  1  1  0
  4  2  1  0
  5  4  1  0
  6  5  1  0
  7  6  1  0
  8  7  1  0
  8  9  1  6
 10  8  1  0
 10 11  2  0
 13 12  1  0
 13 14  2  0
 15 16  1  0
 15 13  1  0
 17 16  1  6
 17 18  1  0
 17 19  1  0
 18 10  1  0
 19 20  2  0
 19 26  1  0
 22 21  1  0
 23 22  1  0
 23 25  1  0
 23 24  1  1
 25 27  1  0
 25 26  1  6
 27 28  2  0
 27 29  1  0
M  END
$$$$
