RQI.pdb
     RDKit          3D

 29 28  0  0  1  0  0  0  0  0999 V2000
    7.9160  -13.8428   15.1866 N   0  0  0  0  0  0  0  0  0  0  0  0
    8.2541  -13.8599   16.5563 C   0  0  0  0  0  0  0  0  0  0  0  0
    8.2041  -12.7883   17.2474 N   0  0  0  0  0  0  0  0  0  0  0  0
    8.6669  -15.0792   17.2236 N   0  0  0  0  0  0  0  0  0  0  0  0
    7.8026  -16.2049   17.2332 C   0  0  0  0  0  0  0  0  0  0  0  0
    6.6791  -16.1224   18.1856 C   0  0  0  0  0  0  0  0  0  0  0  0
    6.9369  -15.8189   19.6140 C   0  0  0  0  0  0  0  0  0  0  0  0
    7.4848  -16.8896   20.4430 C   0  0  2  0  0  0  0  0  0  0  0  0
    7.1336  -18.2211   19.9776 N   0  0  0  0  0  0  0  0  0  0  0  0
    7.0721  -16.8192   21.8771 C   0  0  0  0  0  0  0  0  0  0  0  0
    6.3514  -15.8524   22.2004 O   0  0  0  0  0  0  0  0  0  0  0  0
    8.5501  -12.7727   18.2191 N   0  0  0  0  0  0  0  0  0  0  0  0
    7.8037  -21.0386   26.5441 C   0  0  0  0  0  0  0  0  0  0  0  0
    7.3004  -19.9018   27.2393 O   0  0  0  0  0  0  0  0  0  0  0  0
    7.0620  -20.0340   28.4652 C   0  0  0  0  0  0  0  0  0  0  0  0
    7.0694  -18.6089   26.5275 C   0  0  0  0  0  0  0  0  0  0  0  0
    7.3242  -18.8010   25.0693 C   0  0  1  0  0  0  0  0  0  0  0  0
    7.1533  -17.5333   24.2620 N   0  0  0  0  0  0  0  0  0  0  0  0
    7.4304  -17.7428   22.8606 C   0  0  0  0  0  0  0  0  0  0  0  0
    8.0102  -16.5068   24.8995 O   0  0  0  0  0  0  0  0  0  0  0  0
    9.2301  -16.4646   24.6571 C   0  0  0  0  0  0  0  0  0  0  0  0
    5.7844  -11.6889   26.2174 C   0  0  0  0  0  0  0  0  0  0  0  0
    6.8000  -12.7224   25.7396 C   0  0  2  0  0  0  0  0  0  0  0  0
    7.4658  -13.4064   26.8864 C   0  0  0  0  0  0  0  0  0  0  0  0
    8.3021  -12.3921   27.6287 C   0  0  2  0  0  0  0  0  0  0  0  0
    8.3218  -14.5671   26.3983 N   0  0  0  0  0  0  0  0  0  0  0  0
    7.4327  -15.5749   25.7848 C   0  0  0  0  0  0  0  0  0  0  0  0
    9.1018  -15.2144   27.4814 O   0  0  0  0  0  0  0  0  0  0  0  0
    8.7157  -16.1878   28.1652 O   0  0  0  0  0  0  0  0  0  0  0  0
  2  3  2  0
  2  1  1  0
  4  2  1  0
  5  4  1  0
  6  5  1  0
  7  6  1  0
  8  7  1  0
  8  9  1  6
 10  8  1  0
 10 11  2  0
 13 12  1  0
 13 14  2  0
 15 16  1  0
 15 13  1  0
 17 16  1  6
 17 18  1  0
 17 19  1  0
 18 10  1  0
 19 20  2  0
 19 26  1  0
 22 21  1  0
 23 22  1  0
 23 25  1  0
 23 24  1  1
 25 27  1  0
 25 26  1  6
 27 28  2  0
 27 29  1  0
M  END
$$$$
