RQI.pdb
     RDKit          3D

 29 28  0  0  1  0  0  0  0  0999 V2000
    6.8466  -15.3080   15.3570 N   0  0  0  0  0  0  0  0  0  0  0  0
    7.8574  -14.3295   15.4635 C   0  0  0  0  0  0  0  0  0  0  0  0
    7.5590  -13.0889   15.4545 N   0  0  0  0  0  0  0  0  0  0  0  0
    9.2565  -14.6902   15.5852 N   0  0  0  0  0  0  0  0  0  0  0  0
    9.7004  -15.4206   16.7183 C   0  0  0  0  0  0  0  0  0  0  0  0
   10.6174  -14.6896   17.6133 C   0  0  0  0  0  0  0  0  0  0  0  0
   10.1221  -14.1450   18.9004 C   0  0  0  0  0  0  0  0  0  0  0  0
   10.9226  -14.4027   20.0948 C   0  0  2  0  0  0  0  0  0  0  0  0
   12.0391  -15.3037   19.8616 N   0  0  0  0  0  0  0  0  0  0  0  0
   10.1457  -14.9765   21.2346 C   0  0  0  0  0  0  0  0  0  0  0  0
    9.0907  -14.3837   21.5414 O   0  0  0  0  0  0  0  0  0  0  0  0
    8.2980  -12.3700   15.4891 N   0  0  0  0  0  0  0  0  0  0  0  0
   12.0104  -19.8667   22.8738 C   0  0  0  0  0  0  0  0  0  0  0  0
   10.8503  -19.9168   22.0489 O   0  0  0  0  0  0  0  0  0  0  0  0
   10.8348  -20.7686   21.1262 C   0  0  0  0  0  0  0  0  0  0  0  0
    9.7038  -18.9878   22.2818 C   0  0  0  0  0  0  0  0  0  0  0  0
   10.0518  -18.0497   23.3894 C   0  0  2  0  0  0  0  0  0  0  0  0
    9.7296  -16.6062   23.0717 N   0  0  0  0  0  0  0  0  0  0  0  0
   10.5120  -16.1081   21.9654 C   0  0  0  0  0  0  0  0  0  0  0  0
    9.9107  -15.8454   24.3297 O   0  0  0  0  0  0  0  0  0  0  0  0
   11.0498  -15.5224   24.7129 C   0  0  0  0  0  0  0  0  0  0  0  0
    6.3591  -12.0790   25.6440 C   0  0  0  0  0  0  0  0  0  0  0  0
    7.6186  -12.9219   25.4674 C   0  0  2  0  0  0  0  0  0  0  0  0
    7.8191  -13.8536   26.6154 C   0  0  0  0  0  0  0  0  0  0  0  0
    8.0237  -13.0343   27.8668 C   0  0  2  0  0  0  0  0  0  0  0  0
    9.0078  -14.7711   26.3636 N   0  0  0  0  0  0  0  0  0  0  0  0
    8.7807  -15.4880   25.0919 C   0  0  0  0  0  0  0  0  0  0  0  0
    9.2165  -15.7673   27.4427 O   0  0  0  0  0  0  0  0  0  0  0  0
    9.8698  -15.5691   28.4905 O   0  0  0  0  0  0  0  0  0  0  0  0
  2  3  2  0
  2  1  1  0
  4  2  1  0
  5  4  1  0
  6  5  1  0
  7  6  1  0
  8  7  1  0
  8  9  1  6
 10  8  1  0
 10 11  2  0
 13 12  1  0
 13 14  2  0
 15 16  1  0
 15 13  1  0
 17 16  1  6
 17 18  1  0
 17 19  1  0
 18 10  1  0
 19 20  2  0
 19 26  1  0
 22 21  1  0
 23 22  1  0
 23 25  1  0
 23 24  1  1
 25 27  1  0
 25 26  1  6
 27 28  2  0
 27 29  1  0
M  END
$$$$
