RQI.pdb
     RDKit          3D

 29 28  0  0  1  0  0  0  0  0999 V2000
    7.3575  -12.9619   15.8178 N   0  0  0  0  0  0  0  0  0  0  0  0
    8.3654  -13.9294   15.6210 C   0  0  0  0  0  0  0  0  0  0  0  0
    8.3502  -14.6767   14.5868 N   0  0  0  0  0  0  0  0  0  0  0  0
    9.4432  -14.1107   16.5737 N   0  0  0  0  0  0  0  0  0  0  0  0
    9.1584  -14.5956   17.8768 C   0  0  0  0  0  0  0  0  0  0  0  0
    7.7376  -14.5364   18.2692 C   0  0  0  0  0  0  0  0  0  0  0  0
    7.3110  -15.0474   19.5943 C   0  0  0  0  0  0  0  0  0  0  0  0
    7.6999  -16.4099   19.9491 C   0  0  2  0  0  0  0  0  0  0  0  0
    6.7543  -17.4186   19.5002 N   0  0  0  0  0  0  0  0  0  0  0  0
    7.8861  -16.6262   21.4156 C   0  0  0  0  0  0  0  0  0  0  0  0
    6.8509  -16.8338   22.0818 O   0  0  0  0  0  0  0  0  0  0  0  0
    9.0991  -15.3680   14.4265 N   0  0  0  0  0  0  0  0  0  0  0  0
   12.5876  -19.2817   24.3957 C   0  0  0  0  0  0  0  0  0  0  0  0
   11.7842  -18.8612   25.4942 O   0  0  0  0  0  0  0  0  0  0  0  0
   12.1324  -19.2369   26.6409 C   0  0  0  0  0  0  0  0  0  0  0  0
   10.5777  -18.0072   25.2784 C   0  0  0  0  0  0  0  0  0  0  0  0
   10.4180  -17.7466   23.8173 C   0  0  1  0  0  0  0  0  0  0  0  0
    9.2364  -16.8586   23.4956 N   0  0  0  0  0  0  0  0  0  0  0  0
    9.1146  -16.6124   22.0782 C   0  0  0  0  0  0  0  0  0  0  0  0
    9.3953  -15.6313   24.3097 O   0  0  0  0  0  0  0  0  0  0  0  0
   10.2690  -14.7928   24.0225 C   0  0  0  0  0  0  0  0  0  0  0  0
    6.3781  -11.1644   26.6279 C   0  0  0  0  0  0  0  0  0  0  0  0
    7.5816  -12.0761   26.8468 C   0  0  2  0  0  0  0  0  0  0  0  0
    7.4729  -13.3285   26.0432 C   0  0  0  0  0  0  0  0  0  0  0  0
    6.2516  -14.0878   26.5028 C   0  0  2  0  0  0  0  0  0  0  0  0
    8.7296  -14.1752   26.1919 N   0  0  0  0  0  0  0  0  0  0  0  0
    8.5474  -15.4184   25.4148 C   0  0  0  0  0  0  0  0  0  0  0  0
    9.0313  -14.5318   27.5997 O   0  0  0  0  0  0  0  0  0  0  0  0
    9.3833  -13.7254   28.4884 O   0  0  0  0  0  0  0  0  0  0  0  0
  2  3  2  0
  2  1  1  0
  4  2  1  0
  5  4  1  0
  6  5  1  0
  7  6  1  0
  8  7  1  0
  8  9  1  1
 10  8  1  0
 10 11  2  0
 13 12  1  0
 13 14  2  0
 15 16  1  0
 15 13  1  0
 17 16  1  6
 17 18  1  0
 17 19  1  0
 18 10  1  0
 19 20  2  0
 19 26  1  0
 22 21  1  0
 23 22  1  0
 23 25  1  0
 23 24  1  6
 25 27  1  0
 25 26  1  1
 27 28  2  0
 27 29  1  0
M  END
$$$$
