RQI.pdb
     RDKit          3D

 29 28  0  0  1  0  0  0  0  0999 V2000
    7.8001  -14.0458   14.2437 N   0  0  0  0  0  0  0  0  0  0  0  0
    8.2687  -13.6731   15.5213 C   0  0  0  0  0  0  0  0  0  0  0  0
    7.9931  -12.5229   16.0002 N   0  0  0  0  0  0  0  0  0  0  0  0
    9.0715  -14.5702   16.3294 N   0  0  0  0  0  0  0  0  0  0  0  0
    8.4479  -15.6314   17.0361 C   0  0  0  0  0  0  0  0  0  0  0  0
    7.4241  -15.2153   18.0132 C   0  0  0  0  0  0  0  0  0  0  0  0
    7.4225  -15.7929   19.3789 C   0  0  0  0  0  0  0  0  0  0  0  0
    8.6977  -15.8496   20.0891 C   0  0  2  0  0  0  0  0  0  0  0  0
    9.5881  -16.8894   19.6005 N   0  0  0  0  0  0  0  0  0  0  0  0
    8.5640  -16.0634   21.5616 C   0  0  0  0  0  0  0  0  0  0  0  0
    7.7382  -15.3391   22.1549 O   0  0  0  0  0  0  0  0  0  0  0  0
    8.3592  -12.2351   16.9207 N   0  0  0  0  0  0  0  0  0  0  0  0
   11.3487  -21.1086   23.3730 C   0  0  0  0  0  0  0  0  0  0  0  0
   10.0372  -20.9017   23.8889 O   0  0  0  0  0  0  0  0  0  0  0  0
    9.6017  -21.7438   24.7126 C   0  0  0  0  0  0  0  0  0  0  0  0
    9.2218  -19.7259   23.4598 C   0  0  0  0  0  0  0  0  0  0  0  0
    9.6915  -18.5121   24.1905 C   0  0  2  0  0  0  0  0  0  0  0  0
    9.0393  -17.2355   23.7074 N   0  0  0  0  0  0  0  0  0  0  0  0
    9.2853  -16.9997   22.3044 C   0  0  0  0  0  0  0  0  0  0  0  0
    9.5213  -16.1519   24.5950 O   0  0  0  0  0  0  0  0  0  0  0  0
   10.6041  -15.5832   24.3650 C   0  0  0  0  0  0  0  0  0  0  0  0
    6.2062  -12.3581   26.0082 C   0  0  0  0  0  0  0  0  0  0  0  0
    7.4296  -13.2058   25.6725 C   0  0  2  0  0  0  0  0  0  0  0  0
    8.0642  -13.7624   26.9028 C   0  0  0  0  0  0  0  0  0  0  0  0
    8.5061  -12.6126   27.7758 C   0  0  2  0  0  0  0  0  0  0  0  0
    9.2415  -14.6586   26.5438 N   0  0  0  0  0  0  0  0  0  0  0  0
    8.7427  -15.7677   25.7048 C   0  0  0  0  0  0  0  0  0  0  0  0
    9.9263  -15.2278   27.7301 O   0  0  0  0  0  0  0  0  0  0  0  0
    9.6623  -16.3322   28.2543 O   0  0  0  0  0  0  0  0  0  0  0  0
  2  3  2  0
  2  1  1  0
  4  2  1  0
  5  4  1  0
  6  5  1  0
  7  6  1  0
  8  7  1  0
  8  9  1  6
 10  8  1  0
 10 11  2  0
 13 12  1  0
 13 14  2  0
 15 16  1  0
 15 13  1  0
 17 16  1  6
 17 18  1  0
 17 19  1  0
 18 10  1  0
 19 20  2  0
 19 26  1  0
 22 21  1  0
 23 22  1  0
 23 25  1  0
 23 24  1  1
 25 27  1  0
 25 26  1  6
 27 28  2  0
 27 29  1  0
M  END
$$$$
