RQI.pdb
     RDKit          3D

 29 28  0  0  1  0  0  0  0  0999 V2000
    9.3497  -13.4899   15.0195 N   0  0  0  0  0  0  0  0  0  0  0  0
    7.9709  -13.7704   14.9144 C   0  0  0  0  0  0  0  0  0  0  0  0
    7.3115  -13.3939   13.8889 N   0  0  0  0  0  0  0  0  0  0  0  0
    7.2585  -14.4875   15.9539 N   0  0  0  0  0  0  0  0  0  0  0  0
    7.9781  -15.0645   17.0326 C   0  0  0  0  0  0  0  0  0  0  0  0
    8.2480  -14.1545   18.1618 C   0  0  0  0  0  0  0  0  0  0  0  0
    7.6807  -14.4438   19.5010 C   0  0  0  0  0  0  0  0  0  0  0  0
    8.4937  -15.2343   20.4217 C   0  0  2  0  0  0  0  0  0  0  0  0
    8.7249  -16.5961   19.9689 N   0  0  0  0  0  0  0  0  0  0  0  0
    7.9253  -15.3366   21.7996 C   0  0  0  0  0  0  0  0  0  0  0  0
    7.6283  -14.2606   22.3587 O   0  0  0  0  0  0  0  0  0  0  0  0
    6.3384  -13.7051   13.7461 N   0  0  0  0  0  0  0  0  0  0  0  0
    5.8370  -20.4202   24.9817 C   0  0  0  0  0  0  0  0  0  0  0  0
    7.0207  -20.3543   24.1922 O   0  0  0  0  0  0  0  0  0  0  0  0
    7.5761  -21.4402   23.8932 C   0  0  0  0  0  0  0  0  0  0  0  0
    7.5701  -19.0395   23.7435 C   0  0  0  0  0  0  0  0  0  0  0  0
    6.6536  -17.9488   24.1890 C   0  0  1  0  0  0  0  0  0  0  0  0
    7.1475  -16.5673   23.8206 N   0  0  0  0  0  0  0  0  0  0  0  0
    7.7078  -16.5298   22.4905 C   0  0  0  0  0  0  0  0  0  0  0  0
    8.0927  -16.1579   24.8852 O   0  0  0  0  0  0  0  0  0  0  0  0
    9.3144  -16.3559   24.7541 C   0  0  0  0  0  0  0  0  0  0  0  0
    6.9161  -11.4149   26.5302 C   0  0  0  0  0  0  0  0  0  0  0  0
    7.6393  -12.7017   26.1444 C   0  0  2  0  0  0  0  0  0  0  0  0
    7.9837  -13.5172   27.3454 C   0  0  0  0  0  0  0  0  0  0  0  0
    8.9626  -12.7369   28.1893 C   0  0  2  0  0  0  0  0  0  0  0  0
    8.5682  -14.8617   26.9345 N   0  0  0  0  0  0  0  0  0  0  0  0
    7.5978  -15.5402   26.0509 C   0  0  0  0  0  0  0  0  0  0  0  0
    8.8650  -15.7472   28.0870 O   0  0  0  0  0  0  0  0  0  0  0  0
    8.0642  -16.5627   28.5947 O   0  0  0  0  0  0  0  0  0  0  0  0
  2  3  2  0
  2  1  1  0
  4  2  1  0
  5  4  1  0
  6  5  1  0
  7  6  1  0
  8  7  1  0
  8  9  1  6
 10  8  1  0
 10 11  2  0
 13 12  1  0
 13 14  2  0
 15 16  1  0
 15 13  1  0
 17 16  1  6
 17 18  1  0
 17 19  1  0
 18 10  1  0
 19 20  2  0
 19 26  1  0
 22 21  1  0
 23 22  1  0
 23 25  1  0
 23 24  1  1
 25 27  1  0
 25 26  1  6
 27 28  2  0
 27 29  1  0
M  END
$$$$
