RQI.pdb
     RDKit          3D

 29 28  0  0  1  0  0  0  0  0999 V2000
    8.3003  -13.7737   15.3305 N   0  0  0  0  0  0  0  0  0  0  0  0
    8.7023  -14.0601   16.6523 C   0  0  0  0  0  0  0  0  0  0  0  0
    8.7246  -13.1387   17.5347 N   0  0  0  0  0  0  0  0  0  0  0  0
    9.1011  -15.3949   17.0544 N   0  0  0  0  0  0  0  0  0  0  0  0
    8.1542  -16.2611   17.6607 C   0  0  0  0  0  0  0  0  0  0  0  0
    6.9954  -15.5875   18.2769 C   0  0  0  0  0  0  0  0  0  0  0  0
    6.7293  -15.7454   19.7271 C   0  0  0  0  0  0  0  0  0  0  0  0
    7.0636  -17.0291   20.3386 C   0  0  2  0  0  0  0  0  0  0  0  0
    6.3555  -18.1540   19.7502 N   0  0  0  0  0  0  0  0  0  0  0  0
    6.8047  -17.0875   21.8089 C   0  0  0  0  0  0  0  0  0  0  0  0
    5.6112  -17.0066   22.1658 O   0  0  0  0  0  0  0  0  0  0  0  0
    9.0684  -13.3317   18.4880 N   0  0  0  0  0  0  0  0  0  0  0  0
    8.8950  -20.5428   26.2621 C   0  0  0  0  0  0  0  0  0  0  0  0
    7.9846  -20.7655   25.1895 O   0  0  0  0  0  0  0  0  0  0  0  0
    7.6634  -21.9542   24.9426 C   0  0  0  0  0  0  0  0  0  0  0  0
    7.4402  -19.6222   24.3968 C   0  0  0  0  0  0  0  0  0  0  0  0
    7.9572  -18.3427   24.9656 C   0  0  2  0  0  0  0  0  0  0  0  0
    7.4963  -17.1212   24.2015 N   0  0  0  0  0  0  0  0  0  0  0  0
    7.7873  -17.2237   22.7910 C   0  0  0  0  0  0  0  0  0  0  0  0
    8.1173  -15.9497   24.8620 O   0  0  0  0  0  0  0  0  0  0  0  0
    9.2754  -15.6009   24.5689 C   0  0  0  0  0  0  0  0  0  0  0  0
    6.8331  -11.7431   25.1379 C   0  0  0  0  0  0  0  0  0  0  0  0
    6.1003  -12.6822   26.0912 C   0  0  1  0  0  0  0  0  0  0  0  0
    7.0140  -13.2176   27.1422 C   0  0  0  0  0  0  0  0  0  0  0  0
    7.6519  -12.0529   27.8605 C   0  0  2  0  0  0  0  0  0  0  0  0
    8.0711  -14.1241   26.5266 N   0  0  0  0  0  0  0  0  0  0  0  0
    7.3852  -15.2300   25.8272 C   0  0  0  0  0  0  0  0  0  0  0  0
    9.0042  -14.6976   27.5270 O   0  0  0  0  0  0  0  0  0  0  0  0
    8.7941  -15.7305   28.2001 O   0  0  0  0  0  0  0  0  0  0  0  0
  2  3  2  0
  2  1  1  0
  4  2  1  0
  5  4  1  0
  6  5  1  0
  7  6  1  0
  8  7  1  0
  8  9  1  6
 10  8  1  0
 10 11  2  0
 13 12  1  0
 13 14  2  0
 15 16  1  0
 15 13  1  0
 17 16  1  6
 17 18  1  0
 17 19  1  0
 18 10  1  0
 19 20  2  0
 19 26  1  0
 22 21  1  0
 23 22  1  0
 23 25  1  0
 23 24  1  1
 25 27  1  0
 25 26  1  6
 27 28  2  0
 27 29  1  0
M  END
$$$$
