EDM.pdb
     RDKit          3D

 26 25  0  0  1  0  0  0  0  0999 V2000
   27.5235  -20.0573  -15.4890 N   0  0  0  0  0  0  0  0  0  0  0  0
   27.8759  -18.9825  -14.5420 C   0  0  1  0  0  0  0  0  0  0  0  0
   27.5808  -17.7050  -15.2564 C   0  0  0  0  0  0  0  0  0  0  0  0
   28.3120  -17.4942  -16.5372 C   0  0  0  0  0  0  0  0  0  0  0  0
   27.4902  -18.0769  -17.6497 C   0  0  0  0  0  0  0  0  0  0  0  0
   26.2435  -18.1527  -17.5984 O   0  0  0  0  0  0  0  0  0  0  0  0
   26.9760  -19.1293  -13.3639 C   0  0  0  0  0  0  0  0  0  0  0  0
   26.9421  -18.2498  -12.4645 O   0  0  0  0  0  0  0  0  0  0  0  0
   28.1173  -18.5571  -18.7909 O   0  0  0  0  0  0  0  0  0  0  0  0
   26.1160  -20.2679  -13.2027 N   0  0  0  0  0  0  0  0  0  0  0  0
   25.1865  -20.3014  -12.1211 C   0  0  1  0  0  0  0  0  0  0  0  0
   23.9850  -21.1430  -12.4919 C   0  0  0  0  0  0  0  0  0  0  0  0
   23.3581  -20.5809  -13.6905 C   0  0  0  0  0  0  0  0  0  0  0  0
   22.8723  -19.4167  -13.5833 O   0  0  0  0  0  0  0  0  0  0  0  0
   25.7877  -20.8510  -10.8649 C   0  0  0  0  0  0  0  0  0  0  0  0
   26.3685  -21.9507  -10.9489 O   0  0  0  0  0  0  0  0  0  0  0  0
   23.2435  -21.1906  -14.9203 O   0  0  0  0  0  0  0  0  0  0  0  0
   29.0225  -19.7889   -3.8501 C   0  0  0  0  0  0  0  0  0  0  0  0
   28.5853  -19.1261   -5.4683 S   0  0  0  0  0  0  0  0  0  0  0  0
   27.3352  -20.2371   -6.1977 C   0  0  0  0  0  0  0  0  0  0  0  0
   27.0303  -19.7243   -7.5572 C   0  0  0  0  0  0  0  0  0  0  0  0
   26.0525  -20.6171   -8.3200 C   0  0  2  0  0  0  0  0  0  0  0  0
   25.7123  -20.1730   -9.6327 N   0  0  0  0  0  0  0  0  0  0  0  0
   24.9438  -20.9789   -7.4481 C   0  0  0  0  0  0  0  0  0  0  0  0
   23.8012  -20.5429   -7.7371 O   0  0  0  0  0  0  0  0  0  0  0  0
   25.0353  -21.7714   -6.3123 O   0  0  0  0  0  0  0  0  0  0  0  0
  2  1  1  6
  3  2  1  0
  3  4  1  0
  5  4  1  0
  5  6  2  0
  7  2  1  0
  7  8  2  0
  9  5  1  0
 10  7  1  0
 11 10  1  0
 11 12  1  6
 13 12  1  0
 13 17  1  0
 14 13  2  0
 15 11  1  0
 16 15  2  0
 18 19  1  0
 19 20  1  0
 20 21  1  0
 22 21  1  1
 22 23  1  0
 22 24  1  0
 23 15  1  0
 24 26  1  0
 25 24  2  0
M  END
$$$$
