EDM.pdb
     RDKit          3D

 26 25  0  0  1  0  0  0  0  0999 V2000
   13.1049   -9.3835   -9.4021 N   0  0  0  0  0  0  0  0  0  0  0  0
   14.5617   -9.4713   -9.6162 C   0  0  1  0  0  0  0  0  0  0  0  0
   14.7425  -10.3960  -10.7745 C   0  0  0  0  0  0  0  0  0  0  0  0
   14.5661  -11.8458  -10.4808 C   0  0  0  0  0  0  0  0  0  0  0  0
   14.9189  -12.6226  -11.7155 C   0  0  0  0  0  0  0  0  0  0  0  0
   14.0768  -13.2866  -12.3578 O   0  0  0  0  0  0  0  0  0  0  0  0
   15.0311   -8.1038   -9.9754 C   0  0  0  0  0  0  0  0  0  0  0  0
   14.3196   -7.3419  -10.6801 O   0  0  0  0  0  0  0  0  0  0  0  0
   16.2262  -12.6186  -12.1819 O   0  0  0  0  0  0  0  0  0  0  0  0
   16.3025   -7.5986   -9.5389 N   0  0  0  0  0  0  0  0  0  0  0  0
   16.7524   -6.3270  -10.0032 C   0  0  1  0  0  0  0  0  0  0  0  0
   16.5277   -5.2742   -8.9399 C   0  0  0  0  0  0  0  0  0  0  0  0
   16.9012   -3.9636   -9.4771 C   0  0  0  0  0  0  0  0  0  0  0  0
   16.7454   -3.7959  -10.7224 O   0  0  0  0  0  0  0  0  0  0  0  0
   18.2030   -6.3321  -10.3739 C   0  0  0  0  0  0  0  0  0  0  0  0
   18.9840   -6.9161   -9.5976 O   0  0  0  0  0  0  0  0  0  0  0  0
   17.4047   -2.8973   -8.7653 O   0  0  0  0  0  0  0  0  0  0  0  0
   21.8006  -10.5223  -12.5729 C   0  0  0  0  0  0  0  0  0  0  0  0
   21.1606   -9.5489  -13.9485 S   0  0  0  0  0  0  0  0  0  0  0  0
   21.2153   -7.7940  -13.4522 C   0  0  0  0  0  0  0  0  0  0  0  0
   19.9077   -7.4725  -12.8269 C   0  0  0  0  0  0  0  0  0  0  0  0
   19.8235   -6.0253  -12.3440 C   0  0  2  0  0  0  0  0  0  0  0  0
   18.6855   -5.7112  -11.5424 N   0  0  0  0  0  0  0  0  0  0  0  0
   20.1054   -5.1259  -13.4538 C   0  0  0  0  0  0  0  0  0  0  0  0
   19.1318   -4.6741  -14.1073 O   0  0  0  0  0  0  0  0  0  0  0  0
   21.3678   -4.7169  -13.8610 O   0  0  0  0  0  0  0  0  0  0  0  0
  2  1  1  6
  3  2  1  0
  3  4  1  0
  5  4  1  0
  5  6  2  0
  7  2  1  0
  7  8  2  0
  9  5  1  0
 10  7  1  0
 11 10  1  0
 11 12  1  1
 13 12  1  0
 13 17  1  0
 14 13  2  0
 15 11  1  0
 16 15  2  0
 18 19  1  0
 19 20  1  0
 20 21  1  0
 22 21  1  6
 22 23  1  0
 22 24  1  0
 23 15  1  0
 24 26  1  0
 25 24  2  0
M  END
$$$$
