EDM.pdb
     RDKit          3D

 26 25  0  0  1  0  0  0  0  0999 V2000
   28.1194  -21.2240  -15.1965 N   0  0  0  0  0  0  0  0  0  0  0  0
   28.3098  -19.9261  -14.5219 C   0  0  1  0  0  0  0  0  0  0  0  0
   28.1265  -18.8913  -15.5826 C   0  0  0  0  0  0  0  0  0  0  0  0
   26.8725  -18.9953  -16.3803 C   0  0  0  0  0  0  0  0  0  0  0  0
   26.9420  -17.9970  -17.4988 C   0  0  0  0  0  0  0  0  0  0  0  0
   27.8086  -18.0516  -18.3981 O   0  0  0  0  0  0  0  0  0  0  0  0
   27.2334  -19.8061  -13.4990 C   0  0  0  0  0  0  0  0  0  0  0  0
   27.1427  -18.7808  -12.7752 O   0  0  0  0  0  0  0  0  0  0  0  0
   26.0180  -16.9631  -17.5580 O   0  0  0  0  0  0  0  0  0  0  0  0
   26.2613  -20.8432  -13.2947 N   0  0  0  0  0  0  0  0  0  0  0  0
   25.2189  -20.6536  -12.3395 C   0  0  1  0  0  0  0  0  0  0  0  0
   23.9433  -21.3083  -12.8228 C   0  0  0  0  0  0  0  0  0  0  0  0
   22.8088  -20.4368  -12.5082 C   0  0  0  0  0  0  0  0  0  0  0  0
   22.6980  -20.0628  -11.3037 O   0  0  0  0  0  0  0  0  0  0  0  0
   25.5649  -21.2126  -10.9943 C   0  0  0  0  0  0  0  0  0  0  0  0
   25.7374  -22.4449  -10.9203 O   0  0  0  0  0  0  0  0  0  0  0  0
   21.8515  -19.9843  -13.3892 O   0  0  0  0  0  0  0  0  0  0  0  0
   29.4119  -18.8521   -6.5667 C   0  0  0  0  0  0  0  0  0  0  0  0
   28.0498  -19.1511   -5.4245 S   0  0  0  0  0  0  0  0  0  0  0  0
   26.8859  -20.2925   -6.2441 C   0  0  0  0  0  0  0  0  0  0  0  0
   26.7757  -19.8655   -7.6618 C   0  0  0  0  0  0  0  0  0  0  0  0
   25.8525  -20.7670   -8.4804 C   0  0  2  0  0  0  0  0  0  0  0  0
   25.6947  -20.4011   -9.8506 N   0  0  0  0  0  0  0  0  0  0  0  0
   24.6307  -21.0203   -7.7299 C   0  0  0  0  0  0  0  0  0  0  0  0
   24.7391  -21.4991   -6.5731 O   0  0  0  0  0  0  0  0  0  0  0  0
   23.3408  -20.7780   -8.1816 O   0  0  0  0  0  0  0  0  0  0  0  0
  2  1  1  6
  3  2  1  0
  3  4  1  0
  5  4  1  0
  5  6  2  0
  7  2  1  0
  7  8  2  0
  9  5  1  0
 10  7  1  0
 11 10  1  0
 11 12  1  6
 13 12  1  0
 13 17  1  0
 14 13  2  0
 15 11  1  0
 16 15  2  0
 18 19  1  0
 19 20  1  0
 20 21  1  0
 22 21  1  1
 22 23  1  0
 22 24  1  0
 23 15  1  0
 24 26  1  0
 25 24  2  0
M  END
$$$$
