EDM.pdb
     RDKit          3D

 26 25  0  0  1  0  0  0  0  0999 V2000
   15.0739  -13.2149  -17.2906 N   0  0  0  0  0  0  0  0  0  0  0  0
   14.8633  -11.8769  -16.7065 C   0  0  1  0  0  0  0  0  0  0  0  0
   14.8159  -12.0865  -15.2290 C   0  0  0  0  0  0  0  0  0  0  0  0
   13.6035  -12.7801  -14.7108 C   0  0  0  0  0  0  0  0  0  0  0  0
   13.7436  -12.9251  -13.2236 C   0  0  0  0  0  0  0  0  0  0  0  0
   14.8515  -13.0623  -12.6611 O   0  0  0  0  0  0  0  0  0  0  0  0
   16.0507  -11.0532  -17.0683 C   0  0  0  0  0  0  0  0  0  0  0  0
   17.1075  -11.5934  -17.4865 O   0  0  0  0  0  0  0  0  0  0  0  0
   12.6120  -12.9091  -12.4202 O   0  0  0  0  0  0  0  0  0  0  0  0
   16.0437   -9.6214  -16.9576 N   0  0  0  0  0  0  0  0  0  0  0  0
   17.2222   -8.8841  -17.2779 C   0  0  1  0  0  0  0  0  0  0  0  0
   16.8540   -7.5067  -17.7845 C   0  0  0  0  0  0  0  0  0  0  0  0
   18.0714   -6.8110  -18.2083 C   0  0  0  0  0  0  0  0  0  0  0  0
   18.6471   -7.2557  -19.2446 O   0  0  0  0  0  0  0  0  0  0  0  0
   18.1414   -8.7340  -16.1057 C   0  0  0  0  0  0  0  0  0  0  0  0
   17.6128   -8.5742  -14.9882 O   0  0  0  0  0  0  0  0  0  0  0  0
   18.6524   -5.7239  -17.5936 O   0  0  0  0  0  0  0  0  0  0  0  0
   25.2339  -10.9052  -13.4803 C   0  0  0  0  0  0  0  0  0  0  0  0
   24.0324  -10.8952  -14.8242 S   0  0  0  0  0  0  0  0  0  0  0  0
   22.7081   -9.7259  -14.3684 C   0  0  0  0  0  0  0  0  0  0  0  0
   21.7516   -9.6803  -15.5030 C   0  0  0  0  0  0  0  0  0  0  0  0
   20.5578   -8.7655  -15.2332 C   0  0  2  0  0  0  0  0  0  0  0  0
   19.5432   -8.7687  -16.2366 N   0  0  0  0  0  0  0  0  0  0  0  0
   21.0347   -7.4615  -14.7947 C   0  0  0  0  0  0  0  0  0  0  0  0
   21.0736   -6.5337  -15.6414 O   0  0  0  0  0  0  0  0  0  0  0  0
   21.4559   -7.1458  -13.5103 O   0  0  0  0  0  0  0  0  0  0  0  0
  2  1  1  6
  3  2  1  0
  3  4  1  0
  5  4  1  0
  5  6  2  0
  7  2  1  0
  7  8  2  0
  9  5  1  0
 10  7  1  0
 11 10  1  0
 11 12  1  1
 13 12  1  0
 13 17  1  0
 14 13  2  0
 15 11  1  0
 16 15  2  0
 18 19  1  0
 19 20  1  0
 20 21  1  0
 22 21  1  6
 22 23  1  0
 22 24  1  0
 23 15  1  0
 24 26  1  0
 25 24  2  0
M  END
$$$$
