EDM.pdb
     RDKit          3D

 26 25  0  0  1  0  0  0  0  0999 V2000
   18.1477  -11.8195  -18.8798 N   0  0  0  0  0  0  0  0  0  0  0  0
   17.6363  -11.0133  -17.7554 C   0  0  1  0  0  0  0  0  0  0  0  0
   17.8635  -11.8397  -16.5326 C   0  0  0  0  0  0  0  0  0  0  0  0
   16.9135  -12.9688  -16.3272 C   0  0  0  0  0  0  0  0  0  0  0  0
   16.5851  -13.0475  -14.8649 C   0  0  0  0  0  0  0  0  0  0  0  0
   17.1525  -12.3367  -14.0074 O   0  0  0  0  0  0  0  0  0  0  0  0
   18.4632   -9.7755  -17.6969 C   0  0  0  0  0  0  0  0  0  0  0  0
   19.6812   -9.7979  -18.0121 O   0  0  0  0  0  0  0  0  0  0  0  0
   15.6161  -13.9377  -14.4233 O   0  0  0  0  0  0  0  0  0  0  0  0
   17.9144   -8.5148  -17.2828 N   0  0  0  0  0  0  0  0  0  0  0  0
   18.7681   -7.3774  -17.1705 C   0  0  1  0  0  0  0  0  0  0  0  0
   17.9448   -6.1270  -16.9511 C   0  0  0  0  0  0  0  0  0  0  0  0
   18.8284   -4.9593  -16.9881 C   0  0  0  0  0  0  0  0  0  0  0  0
   19.8599   -5.0515  -17.7164 O   0  0  0  0  0  0  0  0  0  0  0  0
   19.7515   -7.5069  -16.0490 C   0  0  0  0  0  0  0  0  0  0  0  0
   19.3031   -7.8572  -14.9400 O   0  0  0  0  0  0  0  0  0  0  0  0
   18.6506   -3.7731  -16.3109 O   0  0  0  0  0  0  0  0  0  0  0  0
   26.9553   -9.9277  -14.3974 C   0  0  0  0  0  0  0  0  0  0  0  0
   25.7201   -9.5336  -15.6497 S   0  0  0  0  0  0  0  0  0  0  0  0
   24.4464   -8.4949  -14.8575 C   0  0  0  0  0  0  0  0  0  0  0  0
   23.4011   -8.2261  -15.8770 C   0  0  0  0  0  0  0  0  0  0  0  0
   22.2127   -7.4479  -15.3139 C   0  0  2  0  0  0  0  0  0  0  0  0
   21.1259   -7.2493  -16.2171 N   0  0  0  0  0  0  0  0  0  0  0  0
   22.6948   -6.2695  -14.6074 C   0  0  0  0  0  0  0  0  0  0  0  0
   22.8109   -6.3387  -13.3581 O   0  0  0  0  0  0  0  0  0  0  0  0
   23.0422   -5.0612  -15.1957 O   0  0  0  0  0  0  0  0  0  0  0  0
  2  1  1  6
  3  2  1  0
  3  4  1  0
  5  4  1  0
  5  6  2  0
  7  2  1  0
  7  8  2  0
  9  5  1  0
 10  7  1  0
 11 10  1  0
 11 12  1  1
 13 12  1  0
 13 17  1  0
 14 13  2  0
 15 11  1  0
 16 15  2  0
 18 19  1  0
 19 20  1  0
 20 21  1  0
 22 21  1  6
 22 23  1  0
 22 24  1  0
 23 15  1  0
 24 26  1  0
 25 24  2  0
M  END
$$$$
