EDM.pdb
     RDKit          3D

 26 25  0  0  1  0  0  0  0  0999 V2000
   15.5380  -11.0220  -14.8685 N   0  0  0  0  0  0  0  0  0  0  0  0
   16.9385  -11.4409  -15.0656 C   0  0  1  0  0  0  0  0  0  0  0  0
   16.9133  -12.4026  -16.2074 C   0  0  0  0  0  0  0  0  0  0  0  0
   15.7213  -13.2934  -16.2790 C   0  0  0  0  0  0  0  0  0  0  0  0
   16.1780  -14.6575  -16.7068 C   0  0  0  0  0  0  0  0  0  0  0  0
   17.3816  -14.9367  -16.8963 O   0  0  0  0  0  0  0  0  0  0  0  0
   17.7079  -10.2216  -15.4409 C   0  0  0  0  0  0  0  0  0  0  0  0
   18.9078  -10.3044  -15.8109 O   0  0  0  0  0  0  0  0  0  0  0  0
   15.2449  -15.6654  -16.9063 O   0  0  0  0  0  0  0  0  0  0  0  0
   17.1220   -8.9112  -15.3981 N   0  0  0  0  0  0  0  0  0  0  0  0
   17.9320   -7.7681  -15.6670 C   0  0  1  0  0  0  0  0  0  0  0  0
   17.0596   -6.5538  -15.8993 C   0  0  0  0  0  0  0  0  0  0  0  0
   16.2332   -6.3237  -14.7120 C   0  0  0  0  0  0  0  0  0  0  0  0
   16.7918   -6.4998  -13.5895 O   0  0  0  0  0  0  0  0  0  0  0  0
   18.8866   -7.4668  -14.5537 C   0  0  0  0  0  0  0  0  0  0  0  0
   18.7010   -8.0586  -13.4726 O   0  0  0  0  0  0  0  0  0  0  0  0
   14.9115   -5.9361  -14.6937 O   0  0  0  0  0  0  0  0  0  0  0  0
   25.8453   -9.6742  -14.3127 C   0  0  0  0  0  0  0  0  0  0  0  0
   24.1547   -9.5555  -14.9269 S   0  0  0  0  0  0  0  0  0  0  0  0
   23.4314   -8.0223  -14.2523 C   0  0  0  0  0  0  0  0  0  0  0  0
   22.0164   -7.9699  -14.6985 C   0  0  0  0  0  0  0  0  0  0  0  0
   21.3165   -6.6736  -14.2927 C   0  0  2  0  0  0  0  0  0  0  0  0
   19.9535   -6.5590  -14.6995 N   0  0  0  0  0  0  0  0  0  0  0  0
   22.1815   -5.5408  -14.5907 C   0  0  0  0  0  0  0  0  0  0  0  0
   22.0931   -5.0161  -15.7290 O   0  0  0  0  0  0  0  0  0  0  0  0
   23.1068   -4.9808  -13.7207 O   0  0  0  0  0  0  0  0  0  0  0  0
  2  1  1  6
  3  2  1  0
  3  4  1  0
  5  4  1  0
  5  6  2  0
  7  2  1  0
  7  8  2  0
  9  5  1  0
 10  7  1  0
 11 10  1  0
 11 12  1  1
 13 12  1  0
 13 17  1  0
 14 13  2  0
 15 11  1  0
 16 15  2  0
 18 19  1  0
 19 20  1  0
 20 21  1  0
 22 21  1  6
 22 23  1  0
 22 24  1  0
 23 15  1  0
 24 26  1  0
 25 24  2  0
M  END
$$$$
