EDM.pdb
     RDKit          3D

 26 25  0  0  1  0  0  0  0  0999 V2000
   22.2710  -21.7826  -15.1279 N   0  0  0  0  0  0  0  0  0  0  0  0
   22.4345  -20.5083  -14.4030 C   0  0  1  0  0  0  0  0  0  0  0  0
   22.4742  -20.8718  -12.9554 C   0  0  0  0  0  0  0  0  0  0  0  0
   21.4905  -21.9016  -12.5180 C   0  0  0  0  0  0  0  0  0  0  0  0
   20.1099  -21.3780  -12.7870 C   0  0  0  0  0  0  0  0  0  0  0  0
   19.8221  -20.1642  -12.7080 O   0  0  0  0  0  0  0  0  0  0  0  0
   23.7440  -19.9350  -14.8223 C   0  0  0  0  0  0  0  0  0  0  0  0
   24.2361  -18.9441  -14.2228 O   0  0  0  0  0  0  0  0  0  0  0  0
   19.0959  -22.2579  -13.1393 O   0  0  0  0  0  0  0  0  0  0  0  0
   24.4960  -20.4807  -15.9173 N   0  0  0  0  0  0  0  0  0  0  0  0
   25.6740  -19.8125  -16.3655 C   0  0  1  0  0  0  0  0  0  0  0  0
   26.5279  -20.7547  -17.1856 C   0  0  0  0  0  0  0  0  0  0  0  0
   27.0565  -21.8050  -16.3120 C   0  0  0  0  0  0  0  0  0  0  0  0
   27.3817  -21.4566  -15.1390 O   0  0  0  0  0  0  0  0  0  0  0  0
   25.3677  -18.6015  -17.1909 C   0  0  0  0  0  0  0  0  0  0  0  0
   24.1674  -18.2895  -17.3152 O   0  0  0  0  0  0  0  0  0  0  0  0
   27.2357  -23.1313  -16.6377 O   0  0  0  0  0  0  0  0  0  0  0  0
   28.3984  -12.1554  -15.9116 C   0  0  0  0  0  0  0  0  0  0  0  0
   27.3420  -13.4866  -15.3105 S   0  0  0  0  0  0  0  0  0  0  0  0
   26.4696  -14.1887  -16.7511 C   0  0  0  0  0  0  0  0  0  0  0  0
   26.4433  -15.6626  -16.5742 C   0  0  0  0  0  0  0  0  0  0  0  0
   26.5219  -16.4183  -17.9000 C   0  0  2  0  0  0  0  0  0  0  0  0
   26.3749  -17.8347  -17.8083 N   0  0  0  0  0  0  0  0  0  0  0  0
   27.6573  -15.9307  -18.6703 C   0  0  0  0  0  0  0  0  0  0  0  0
   28.7569  -16.5244  -18.5379 O   0  0  0  0  0  0  0  0  0  0  0  0
   27.6354  -14.8562  -19.5485 O   0  0  0  0  0  0  0  0  0  0  0  0
  2  1  1  6
  3  2  1  0
  3  4  1  0
  5  4  1  0
  5  6  2  0
  7  2  1  0
  7  8  2  0
  9  5  1  0
 10  7  1  0
 11 10  1  0
 11 12  1  6
 13 12  1  0
 13 17  1  0
 14 13  2  0
 15 11  1  0
 16 15  2  0
 18 19  1  0
 19 20  1  0
 20 21  1  0
 22 21  1  1
 22 23  1  0
 22 24  1  0
 23 15  1  0
 24 26  1  0
 25 24  2  0
M  END
$$$$
