EDM.pdb
     RDKit          3D

 26 25  0  0  1  0  0  0  0  0999 V2000
   19.5817  -12.3804  -17.8026 N   0  0  0  0  0  0  0  0  0  0  0  0
   20.8239  -11.6533  -17.4797 C   0  0  1  0  0  0  0  0  0  0  0  0
   21.6320  -11.6616  -18.7352 C   0  0  0  0  0  0  0  0  0  0  0  0
   22.1938  -12.9818  -19.1363 C   0  0  0  0  0  0  0  0  0  0  0  0
   22.9535  -12.8004  -20.4179 C   0  0  0  0  0  0  0  0  0  0  0  0
   23.0902  -13.7176  -21.2561 O   0  0  0  0  0  0  0  0  0  0  0  0
   20.4329  -10.2584  -17.1325 C   0  0  0  0  0  0  0  0  0  0  0  0
   19.4744   -9.6921  -17.7189 O   0  0  0  0  0  0  0  0  0  0  0  0
   23.5364  -11.5741  -20.7055 O   0  0  0  0  0  0  0  0  0  0  0  0
   21.1241   -9.5049  -16.1242 N   0  0  0  0  0  0  0  0  0  0  0  0
   20.7047   -8.1741  -15.8275 C   0  0  1  0  0  0  0  0  0  0  0  0
   20.3524   -8.0531  -14.3609 C   0  0  0  0  0  0  0  0  0  0  0  0
   19.7919   -6.7230  -14.1112 C   0  0  0  0  0  0  0  0  0  0  0  0
   20.5682   -5.8693  -13.5901 O   0  0  0  0  0  0  0  0  0  0  0  0
   21.7525   -7.1560  -16.1545 C   0  0  0  0  0  0  0  0  0  0  0  0
   22.9259   -7.4275  -15.8334 O   0  0  0  0  0  0  0  0  0  0  0  0
   18.5073   -6.3083  -14.3852 O   0  0  0  0  0  0  0  0  0  0  0  0
   24.3600   -1.7770  -21.1206 C   0  0  0  0  0  0  0  0  0  0  0  0
   23.1983   -3.0999  -20.7332 S   0  0  0  0  0  0  0  0  0  0  0  0
   23.3037   -3.4157  -18.9392 C   0  0  0  0  0  0  0  0  0  0  0  0
   22.2685   -4.4274  -18.6090 C   0  0  0  0  0  0  0  0  0  0  0  0
   22.2999   -4.8472  -17.1401 C   0  0  2  0  0  0  0  0  0  0  0  0
   21.4486   -5.9395  -16.7958 N   0  0  0  0  0  0  0  0  0  0  0  0
   22.2143   -3.6644  -16.2951 C   0  0  0  0  0  0  0  0  0  0  0  0
   21.0720   -3.2169  -16.0230 O   0  0  0  0  0  0  0  0  0  0  0  0
   23.2931   -2.9774  -15.7561 O   0  0  0  0  0  0  0  0  0  0  0  0
  2  1  1  6
  3  2  1  0
  3  4  1  0
  5  4  1  0
  5  6  2  0
  7  2  1  0
  7  8  2  0
  9  5  1  0
 10  7  1  0
 11 10  1  0
 11 12  1  1
 13 12  1  0
 13 17  1  0
 14 13  2  0
 15 11  1  0
 16 15  2  0
 18 19  1  0
 19 20  1  0
 20 21  1  0
 22 21  1  6
 22 23  1  0
 22 24  1  0
 23 15  1  0
 24 26  1  0
 25 24  2  0
M  END
$$$$
