EDM.pdb
     RDKit          3D

 26 25  0  0  1  0  0  0  0  0999 V2000
   17.7329  -12.1817  -14.7842 N   0  0  0  0  0  0  0  0  0  0  0  0
   18.9104  -12.0509  -15.6631 C   0  0  1  0  0  0  0  0  0  0  0  0
   18.5406  -12.7396  -16.9352 C   0  0  0  0  0  0  0  0  0  0  0  0
   18.3185  -14.2094  -16.8363 C   0  0  0  0  0  0  0  0  0  0  0  0
   16.8822  -14.4449  -16.4700 C   0  0  0  0  0  0  0  0  0  0  0  0
   16.3170  -13.8381  -15.5347 O   0  0  0  0  0  0  0  0  0  0  0  0
   19.1094  -10.5951  -15.9089 C   0  0  0  0  0  0  0  0  0  0  0  0
   19.9690  -10.1919  -16.7347 O   0  0  0  0  0  0  0  0  0  0  0  0
   16.1316  -15.3685  -17.1841 O   0  0  0  0  0  0  0  0  0  0  0  0
   18.3382   -9.5970  -15.2225 N   0  0  0  0  0  0  0  0  0  0  0  0
   18.5998   -8.2155  -15.4634 C   0  0  1  0  0  0  0  0  0  0  0  0
   17.3551   -7.3958  -15.2023 C   0  0  0  0  0  0  0  0  0  0  0  0
   16.3188   -7.7790  -16.1640 C   0  0  0  0  0  0  0  0  0  0  0  0
   15.2213   -8.1872  -15.6824 O   0  0  0  0  0  0  0  0  0  0  0  0
   19.7108   -7.6849  -14.6115 C   0  0  0  0  0  0  0  0  0  0  0  0
   19.4887   -7.5843  -13.3891 O   0  0  0  0  0  0  0  0  0  0  0  0
   16.4180   -7.7404  -17.5373 O   0  0  0  0  0  0  0  0  0  0  0  0
   25.5735  -10.8444  -14.5747 C   0  0  0  0  0  0  0  0  0  0  0  0
   25.3164   -9.1309  -15.0720 S   0  0  0  0  0  0  0  0  0  0  0  0
   23.6384   -8.6504  -14.5406 C   0  0  0  0  0  0  0  0  0  0  0  0
   23.4465   -7.2283  -14.9213 C   0  0  0  0  0  0  0  0  0  0  0  0
   22.0765   -6.6873  -14.5146 C   0  0  2  0  0  0  0  0  0  0  0  0
   20.9588   -7.3103  -15.1460 N   0  0  0  0  0  0  0  0  0  0  0  0
   22.1049   -5.2316  -14.5312 C   0  0  0  0  0  0  0  0  0  0  0  0
   21.6766   -4.6462  -15.5574 O   0  0  0  0  0  0  0  0  0  0  0  0
   22.5678   -4.4213  -13.5038 O   0  0  0  0  0  0  0  0  0  0  0  0
  2  1  1  1
  3  2  1  0
  3  4  1  0
  5  4  1  0
  5  6  2  0
  7  2  1  0
  7  8  2  0
  9  5  1  0
 10  7  1  0
 11 10  1  0
 11 12  1  1
 13 12  1  0
 13 17  1  0
 14 13  2  0
 15 11  1  0
 16 15  2  0
 18 19  1  0
 19 20  1  0
 20 21  1  0
 22 21  1  6
 22 23  1  0
 22 24  1  0
 23 15  1  0
 24 26  1  0
 25 24  2  0
M  END
$$$$
