EDM.pdb
     RDKit          3D

 26 25  0  0  1  0  0  0  0  0999 V2000
   23.2776  -20.2425  -16.8131 N   0  0  0  0  0  0  0  0  0  0  0  0
   23.7374  -19.4317  -15.6698 C   0  0  1  0  0  0  0  0  0  0  0  0
   22.5083  -19.1097  -14.8855 C   0  0  0  0  0  0  0  0  0  0  0  0
   21.2734  -18.8711  -15.6839 C   0  0  0  0  0  0  0  0  0  0  0  0
   20.1878  -18.4233  -14.7493 C   0  0  0  0  0  0  0  0  0  0  0  0
   19.9904  -17.2204  -14.4726 O   0  0  0  0  0  0  0  0  0  0  0  0
   24.6470  -20.2934  -14.8640 C   0  0  0  0  0  0  0  0  0  0  0  0
   24.3645  -21.4995  -14.6422 O   0  0  0  0  0  0  0  0  0  0  0  0
   19.3574  -19.3643  -14.1566 O   0  0  0  0  0  0  0  0  0  0  0  0
   25.8736  -19.7930  -14.3099 N   0  0  0  0  0  0  0  0  0  0  0  0
   26.6695  -20.6388  -13.4815 C   0  0  1  0  0  0  0  0  0  0  0  0
   28.1367  -20.4485  -13.7987 C   0  0  0  0  0  0  0  0  0  0  0  0
   28.3469  -20.6539  -15.2338 C   0  0  0  0  0  0  0  0  0  0  0  0
   28.3257  -21.8515  -15.6442 O   0  0  0  0  0  0  0  0  0  0  0  0
   26.4565  -20.3778  -12.0227 C   0  0  0  0  0  0  0  0  0  0  0  0
   26.3964  -19.1858  -11.6633 O   0  0  0  0  0  0  0  0  0  0  0  0
   28.5654  -19.6771  -16.1800 O   0  0  0  0  0  0  0  0  0  0  0  0
   29.4517  -19.7728   -7.3534 C   0  0  0  0  0  0  0  0  0  0  0  0
   27.8673  -19.3696   -6.5942 S   0  0  0  0  0  0  0  0  0  0  0  0
   26.5845  -20.3467   -7.4480 C   0  0  0  0  0  0  0  0  0  0  0  0
   27.0150  -20.4993   -8.8606 C   0  0  0  0  0  0  0  0  0  0  0  0
   26.0538  -21.3576   -9.6819 C   0  0  2  0  0  0  0  0  0  0  0  0
   26.3274  -21.4173  -11.0811 N   0  0  0  0  0  0  0  0  0  0  0  0
   24.6825  -21.0519   -9.2997 C   0  0  0  0  0  0  0  0  0  0  0  0
   23.9141  -20.5926  -10.1816 O   0  0  0  0  0  0  0  0  0  0  0  0
   24.1397  -21.2237   -8.0338 O   0  0  0  0  0  0  0  0  0  0  0  0
  2  1  1  6
  3  2  1  0
  3  4  1  0
  5  4  1  0
  5  6  2  0
  7  2  1  0
  7  8  2  0
  9  5  1  0
 10  7  1  0
 11 10  1  0
 11 12  1  6
 13 12  1  0
 13 17  1  0
 14 13  2  0
 15 11  1  0
 16 15  2  0
 18 19  1  0
 19 20  1  0
 20 21  1  0
 22 21  1  1
 22 23  1  0
 22 24  1  0
 23 15  1  0
 24 26  1  0
 25 24  2  0
M  END
$$$$
