EDM.pdb
     RDKit          3D

 26 25  0  0  1  0  0  0  0  0999 V2000
   20.3181  -12.9302  -19.9398 N   0  0  0  0  0  0  0  0  0  0  0  0
   20.7343  -13.0900  -18.5337 C   0  0  1  0  0  0  0  0  0  0  0  0
   21.6283  -14.2857  -18.5128 C   0  0  0  0  0  0  0  0  0  0  0  0
   20.9850  -15.5829  -18.8636 C   0  0  0  0  0  0  0  0  0  0  0  0
   20.2629  -16.0933  -17.6509 C   0  0  0  0  0  0  0  0  0  0  0  0
   20.2091  -15.4526  -16.5790 O   0  0  0  0  0  0  0  0  0  0  0  0
   21.5049  -11.8689  -18.1673 C   0  0  0  0  0  0  0  0  0  0  0  0
   22.1690  -11.8213  -17.0994 O   0  0  0  0  0  0  0  0  0  0  0  0
   19.6218  -17.3234  -17.6978 O   0  0  0  0  0  0  0  0  0  0  0  0
   21.5249  -10.7037  -19.0063 N   0  0  0  0  0  0  0  0  0  0  0  0
   22.2493   -9.5476  -18.5894 C   0  0  1  0  0  0  0  0  0  0  0  0
   22.6326   -8.7111  -19.7906 C   0  0  0  0  0  0  0  0  0  0  0  0
   23.6046   -9.4511  -20.5989 C   0  0  0  0  0  0  0  0  0  0  0  0
   24.7518   -9.6213  -20.0911 O   0  0  0  0  0  0  0  0  0  0  0  0
   21.4687   -8.6931  -17.6396 C   0  0  0  0  0  0  0  0  0  0  0  0
   20.3076   -8.3882  -17.9752 O   0  0  0  0  0  0  0  0  0  0  0  0
   23.3967   -9.9791  -21.8540 O   0  0  0  0  0  0  0  0  0  0  0  0
   20.6716   -9.4576  -11.0778 C   0  0  0  0  0  0  0  0  0  0  0  0
   22.2246   -9.6329  -11.9761 S   0  0  0  0  0  0  0  0  0  0  0  0
   21.8720   -9.3489  -13.7435 C   0  0  0  0  0  0  0  0  0  0  0  0
   21.8168   -7.8797  -13.9507 C   0  0  0  0  0  0  0  0  0  0  0  0
   21.3864   -7.4984  -15.3664 C   0  0  2  0  0  0  0  0  0  0  0  0
   22.0024   -8.2429  -16.4165 N   0  0  0  0  0  0  0  0  0  0  0  0
   21.3981   -6.0488  -15.5035 C   0  0  0  0  0  0  0  0  0  0  0  0
   22.3321   -5.5274  -16.1630 O   0  0  0  0  0  0  0  0  0  0  0  0
   20.4596   -5.1793  -14.9652 O   0  0  0  0  0  0  0  0  0  0  0  0
  2  1  1  6
  3  2  1  0
  3  4  1  0
  5  4  1  0
  5  6  2  0
  7  2  1  0
  7  8  2  0
  9  5  1  0
 10  7  1  0
 11 10  1  0
 11 12  1  6
 13 12  1  0
 13 17  1  0
 14 13  2  0
 15 11  1  0
 16 15  2  0
 18 19  1  0
 19 20  1  0
 20 21  1  0
 22 21  1  1
 22 23  1  0
 22 24  1  0
 23 15  1  0
 24 26  1  0
 25 24  2  0
M  END
$$$$
