YCQ.pdb
     RDKit          3D

 28 28  0  0  1  0  0  0  0  0999 V2000
    8.7477  -12.7818   17.2757 O   0  0  0  0  0  0  0  0  0  0  0  0
    8.1621  -13.3365   18.4303 C   0  0  0  0  0  0  0  0  0  0  0  0
    7.7333  -14.6383   18.4341 C   0  0  0  0  0  0  0  0  0  0  0  0
    7.1579  -15.1703   19.5811 C   0  0  0  0  0  0  0  0  0  0  0  0
    7.0025  -14.4230   20.7283 C   0  0  0  0  0  0  0  0  0  0  0  0
    6.3833  -15.0242   21.9344 C   0  0  0  0  0  0  0  0  0  0  0  0
    7.5021  -15.5492   22.7967 C   0  0  2  0  0  0  0  0  0  0  0  0
    6.9145  -16.3827   23.8147 N   0  0  0  0  0  0  0  0  0  0  0  0
    8.3579  -14.4813   23.3592 C   0  0  0  0  0  0  0  0  0  0  0  0
    8.3767  -13.3685   22.7772 O   0  0  0  0  0  0  0  0  0  0  0  0
    7.4422  -13.1166   20.6977 C   0  0  0  0  0  0  0  0  0  0  0  0
    8.0201  -12.5638   19.5632 C   0  0  0  0  0  0  0  0  0  0  0  0
    9.1561  -14.6513   24.5201 N   0  0  0  0  0  0  0  0  0  0  0  0
    8.7094  -14.2869   25.8705 C   0  0  1  0  0  0  0  0  0  0  0  0
    7.2367  -13.9389   25.8278 C   0  0  0  0  0  0  0  0  0  0  0  0
    6.7806  -12.4662   26.7013 S   0  0  0  0  0  0  0  0  0  0  0  0
    9.0589  -15.3255   26.8422 C   0  0  0  0  0  0  0  0  0  0  0  0
    8.6903  -15.2836   28.0646 O   0  0  0  0  0  0  0  0  0  0  0  0
   10.8272  -20.0019   23.2429 N   0  0  0  0  0  0  0  0  0  0  0  0
   11.2989  -19.5344   24.5294 C   0  0  0  0  0  0  0  0  0  0  0  0
   12.5229  -19.5942   24.7599 O   0  0  0  0  0  0  0  0  0  0  0  0
   10.2674  -19.0261   25.4483 C   0  0  0  0  0  0  0  0  0  0  0  0
   10.9025  -18.5812   26.7339 C   0  0  0  0  0  0  0  0  0  0  0  0
   10.1038  -17.5261   27.4081 C   0  0  2  0  0  0  0  0  0  0  0  0
    9.8326  -16.4428   26.4576 N   0  0  0  0  0  0  0  0  0  0  0  0
   10.9437  -16.9991   28.5409 C   0  0  0  0  0  0  0  0  0  0  0  0
   11.3609  -17.8867   29.5094 O   0  0  0  0  0  0  0  0  0  0  0  0
   11.2748  -15.7965   28.6364 O   0  0  0  0  0  0  0  0  0  0  0  0
  2  1  1  0
  3  2  2  0
  4  3  1  0
  5  4  2  0
  5 11  1  0
  6  5  1  0
  7  6  1  0
  7  9  1  0
  7  8  1  1
  9 10  2  0
 11 12  2  0
 12  2  1  0
 13  9  1  0
 13 14  1  0
 14 15  1  6
 15 16  1  0
 17 14  1  0
 17 18  2  0
 20 22  1  0
 20 19  1  0
 21 20  2  0
 23 22  1  0
 24 23  1  6
 24 25  1  0
 25 17  1  0
 26 27  1  0
 26 24  1  0
 28 26  2  0
M  END
$$$$
