YCQ.pdb
     RDKit          3D

 28 28  0  0  1  0  0  0  0  0999 V2000
    0.2631  -23.9076   20.6873 O   0  0  0  0  0  0  0  0  0  0  0  0
    1.4335  -23.1314   20.7946 C   0  0  0  0  0  0  0  0  0  0  0  0
    2.1398  -23.0991   21.9687 C   0  0  0  0  0  0  0  0  0  0  0  0
    3.2921  -22.3285   22.0580 C   0  0  0  0  0  0  0  0  0  0  0  0
    3.7533  -21.5870   20.9922 C   0  0  0  0  0  0  0  0  0  0  0  0
    4.9875  -20.7753   21.1240 C   0  0  0  0  0  0  0  0  0  0  0  0
    4.6815  -19.6479   22.0760 C   0  0  2  0  0  0  0  0  0  0  0  0
    3.7037  -18.7975   21.4459 N   0  0  0  0  0  0  0  0  0  0  0  0
    5.8856  -18.9060   22.5107 C   0  0  0  0  0  0  0  0  0  0  0  0
    6.2529  -17.9190   21.8264 O   0  0  0  0  0  0  0  0  0  0  0  0
    3.0244  -21.6371   19.8229 C   0  0  0  0  0  0  0  0  0  0  0  0
    1.8702  -22.4000   19.7106 C   0  0  0  0  0  0  0  0  0  0  0  0
    6.6438  -19.2531   23.6589 N   0  0  0  0  0  0  0  0  0  0  0  0
    7.8183  -18.4978   24.1127 C   0  0  1  0  0  0  0  0  0  0  0  0
    7.3558  -17.2697   24.8676 C   0  0  0  0  0  0  0  0  0  0  0  0
    6.1451  -17.5660   26.1271 S   0  0  0  0  0  0  0  0  0  0  0  0
    8.7435  -19.3544   24.8576 C   0  0  0  0  0  0  0  0  0  0  0  0
    8.3561  -20.1811   25.7513 O   0  0  0  0  0  0  0  0  0  0  0  0
   13.8302  -21.8871   23.5551 N   0  0  0  0  0  0  0  0  0  0  0  0
   14.3862  -21.3986   24.7995 C   0  0  0  0  0  0  0  0  0  0  0  0
   15.5948  -21.6098   25.0221 O   0  0  0  0  0  0  0  0  0  0  0  0
   13.4519  -20.6891   25.6883 C   0  0  0  0  0  0  0  0  0  0  0  0
   12.4400  -19.9384   24.8717 C   0  0  0  0  0  0  0  0  0  0  0  0
   11.0624  -20.1211   25.3959 C   0  0  2  0  0  0  0  0  0  0  0  0
   10.1331  -19.3026   24.6104 N   0  0  0  0  0  0  0  0  0  0  0  0
   11.0702  -19.6397   26.8223 C   0  0  0  0  0  0  0  0  0  0  0  0
   11.5913  -20.4740   27.7878 O   0  0  0  0  0  0  0  0  0  0  0  0
   10.6256  -18.5209   27.1623 O   0  0  0  0  0  0  0  0  0  0  0  0
  2  1  1  0
  3  2  2  0
  4  3  1  0
  5  4  2  0
  5 11  1  0
  6  5  1  0
  7  6  1  0
  7  9  1  0
  7  8  1  6
  9 10  2  0
 11 12  2  0
 12  2  1  0
 13  9  1  0
 13 14  1  0
 14 15  1  1
 15 16  1  0
 17 14  1  0
 17 18  2  0
 20 22  1  0
 20 19  1  0
 21 20  2  0
 23 22  1  0
 24 23  1  6
 24 25  1  0
 25 17  1  0
 26 27  1  0
 26 24  1  0
 28 26  2  0
M  END
$$$$
