YCQ.pdb
     RDKit          3D

 28 28  0  0  1  0  0  0  0  0999 V2000
    8.2045  -11.5298   17.8636 O   0  0  0  0  0  0  0  0  0  0  0  0
    7.9468  -12.5722   18.7750 C   0  0  0  0  0  0  0  0  0  0  0  0
    8.3991  -12.4928   20.0663 C   0  0  0  0  0  0  0  0  0  0  0  0
    8.1365  -13.5295   20.9528 C   0  0  0  0  0  0  0  0  0  0  0  0
    7.4278  -14.6480   20.5716 C   0  0  0  0  0  0  0  0  0  0  0  0
    7.1665  -15.7358   21.5452 C   0  0  0  0  0  0  0  0  0  0  0  0
    8.2914  -16.7304   21.4167 C   0  0  2  0  0  0  0  0  0  0  0  0
    8.0086  -17.5646   20.2763 N   0  0  0  0  0  0  0  0  0  0  0  0
    8.5244  -17.5128   22.6506 C   0  0  0  0  0  0  0  0  0  0  0  0
    7.7577  -18.4771   22.8948 O   0  0  0  0  0  0  0  0  0  0  0  0
    6.9843  -14.7028   19.2673 C   0  0  0  0  0  0  0  0  0  0  0  0
    7.2348  -13.6789   18.3640 C   0  0  0  0  0  0  0  0  0  0  0  0
    9.5680  -17.2287   23.5693 N   0  0  0  0  0  0  0  0  0  0  0  0
    9.9389  -18.1208   24.6750 C   0  0  1  0  0  0  0  0  0  0  0  0
   10.7587  -19.2708   24.1296 C   0  0  0  0  0  0  0  0  0  0  0  0
   11.5353  -20.2935   25.3506 S   0  0  0  0  0  0  0  0  0  0  0  0
   10.5830  -17.3788   25.7609 C   0  0  0  0  0  0  0  0  0  0  0  0
   11.5933  -16.6187   25.5775 O   0  0  0  0  0  0  0  0  0  0  0  0
    9.9801  -12.4896   27.6002 N   0  0  0  0  0  0  0  0  0  0  0  0
    9.4114  -13.7698   27.9661 C   0  0  0  0  0  0  0  0  0  0  0  0
    8.3749  -14.1379   27.3787 O   0  0  0  0  0  0  0  0  0  0  0  0
   10.1288  -14.5190   29.0103 C   0  0  0  0  0  0  0  0  0  0  0  0
    9.7639  -15.9736   28.9379 C   0  0  0  0  0  0  0  0  0  0  0  0
   10.7695  -16.7577   28.1764 C   0  0  2  0  0  0  0  0  0  0  0  0
   10.1003  -17.4729   27.0849 N   0  0  0  0  0  0  0  0  0  0  0  0
   11.3650  -17.7533   29.1358 C   0  0  0  0  0  0  0  0  0  0  0  0
   12.4412  -17.3569   29.9002 O   0  0  0  0  0  0  0  0  0  0  0  0
   10.9244  -18.9170   29.2649 O   0  0  0  0  0  0  0  0  0  0  0  0
  2  1  1  0
  3  2  2  0
  4  3  1  0
  5  4  2  0
  5 11  1  0
  6  5  1  0
  7  6  1  0
  7  9  1  0
  7  8  1  6
  9 10  2  0
 11 12  2  0
 12  2  1  0
 13  9  1  0
 13 14  1  0
 14 15  1  6
 15 16  1  0
 17 14  1  0
 17 18  2  0
 20 22  1  0
 20 19  1  0
 21 20  2  0
 23 22  1  0
 24 23  1  1
 24 25  1  0
 25 17  1  0
 26 27  1  0
 26 24  1  0
 28 26  2  0
M  END
$$$$
