YCQ.pdb
     RDKit          3D

 28 28  0  0  1  0  0  0  0  0999 V2000
    8.0506  -13.6857   16.1144 O   0  0  0  0  0  0  0  0  0  0  0  0
    8.0253  -13.7051   17.5225 C   0  0  0  0  0  0  0  0  0  0  0  0
    7.0673  -13.0057   18.2092 C   0  0  0  0  0  0  0  0  0  0  0  0
    7.0562  -13.0352   19.5980 C   0  0  0  0  0  0  0  0  0  0  0  0
    7.9878  -13.7531   20.3158 C   0  0  0  0  0  0  0  0  0  0  0  0
    7.9456  -13.7614   21.7982 C   0  0  0  0  0  0  0  0  0  0  0  0
    7.6574  -15.1763   22.2293 C   0  0  2  0  0  0  0  0  0  0  0  0
    6.3042  -15.4841   21.8412 N   0  0  0  0  0  0  0  0  0  0  0  0
    7.9042  -15.4111   23.6691 C   0  0  0  0  0  0  0  0  0  0  0  0
    7.5174  -14.5397   24.4867 O   0  0  0  0  0  0  0  0  0  0  0  0
    8.9404  -14.4477   19.6008 C   0  0  0  0  0  0  0  0  0  0  0  0
    8.9709  -14.4328   18.2131 C   0  0  0  0  0  0  0  0  0  0  0  0
    8.5543  -16.5685   24.1708 N   0  0  0  0  0  0  0  0  0  0  0  0
    8.8301  -16.7889   25.5960 C   0  0  1  0  0  0  0  0  0  0  0  0
    7.5299  -16.7196   26.3684 C   0  0  0  0  0  0  0  0  0  0  0  0
    6.2156  -17.7225   25.7307 S   0  0  0  0  0  0  0  0  0  0  0  0
    9.5933  -18.0215   25.8033 C   0  0  0  0  0  0  0  0  0  0  0  0
    9.4172  -19.0728   25.0993 O   0  0  0  0  0  0  0  0  0  0  0  0
   15.8726  -21.0675   25.8965 N   0  0  0  0  0  0  0  0  0  0  0  0
   14.9202  -19.9773   25.8658 C   0  0  0  0  0  0  0  0  0  0  0  0
   15.1690  -19.0050   25.1258 O   0  0  0  0  0  0  0  0  0  0  0  0
   13.7350  -20.1325   26.7247 C   0  0  0  0  0  0  0  0  0  0  0  0
   12.8067  -18.9687   26.5298 C   0  0  0  0  0  0  0  0  0  0  0  0
   11.4185  -19.2942   26.9452 C   0  0  2  0  0  0  0  0  0  0  0  0
   10.5799  -18.0986   26.8110 N   0  0  0  0  0  0  0  0  0  0  0  0
   11.4799  -19.7023   28.3930 C   0  0  0  0  0  0  0  0  0  0  0  0
   12.1073  -20.8882   28.7088 O   0  0  0  0  0  0  0  0  0  0  0  0
   10.9874  -19.0122   29.3129 O   0  0  0  0  0  0  0  0  0  0  0  0
  2  1  1  0
  3  2  2  0
  4  3  1  0
  5  4  2  0
  5 11  1  0
  6  5  1  0
  7  6  1  0
  7  9  1  0
  7  8  1  1
  9 10  2  0
 11 12  2  0
 12  2  1  0
 13  9  1  0
 13 14  1  0
 14 15  1  1
 15 16  1  0
 17 14  1  0
 17 18  2  0
 20 22  1  0
 20 19  1  0
 21 20  2  0
 23 22  1  0
 24 23  1  1
 24 25  1  0
 25 17  1  0
 26 27  1  0
 26 24  1  0
 28 26  2  0
M  END
$$$$
