YCQ.pdb
     RDKit          3D

 28 28  0  0  1  0  0  0  0  0999 V2000
    5.3425  -12.0803   26.3320 O   0  0  0  0  0  0  0  0  0  0  0  0
    5.9138  -12.8566   25.3050 C   0  0  0  0  0  0  0  0  0  0  0  0
    6.5587  -12.2541   24.2565 C   0  0  0  0  0  0  0  0  0  0  0  0
    7.1169  -13.0342   23.2516 C   0  0  0  0  0  0  0  0  0  0  0  0
    7.0423  -14.4099   23.2753 C   0  0  0  0  0  0  0  0  0  0  0  0
    7.6496  -15.2108   22.1848 C   0  0  0  0  0  0  0  0  0  0  0  0
    9.1362  -14.9675   22.2262 C   0  0  2  0  0  0  0  0  0  0  0  0
    9.7076  -15.5520   21.0395 N   0  0  0  0  0  0  0  0  0  0  0  0
    9.7752  -15.4588   23.4670 C   0  0  0  0  0  0  0  0  0  0  0  0
   10.3083  -16.5957   23.4492 O   0  0  0  0  0  0  0  0  0  0  0  0
    6.3882  -14.9906   24.3411 C   0  0  0  0  0  0  0  0  0  0  0  0
    5.8230  -14.2313   25.3564 C   0  0  0  0  0  0  0  0  0  0  0  0
    9.8153  -14.7113   24.6727 N   0  0  0  0  0  0  0  0  0  0  0  0
   10.5760  -15.1264   25.8579 C   0  0  1  0  0  0  0  0  0  0  0  0
   10.3756  -14.1052   26.9575 C   0  0  0  0  0  0  0  0  0  0  0  0
    8.7201  -13.9718   27.5749 S   0  0  0  0  0  0  0  0  0  0  0  0
   10.2503  -16.5018   26.2414 C   0  0  0  0  0  0  0  0  0  0  0  0
    9.1256  -17.0473   25.9778 O   0  0  0  0  0  0  0  0  0  0  0  0
   12.3005  -23.3086   26.2270 N   0  0  0  0  0  0  0  0  0  0  0  0
   12.5529  -21.8836   26.1826 C   0  0  0  0  0  0  0  0  0  0  0  0
   13.5540  -21.4869   25.5538 O   0  0  0  0  0  0  0  0  0  0  0  0
   11.5840  -21.0349   26.8950 C   0  0  0  0  0  0  0  0  0  0  0  0
   11.8669  -19.5879   26.6117 C   0  0  0  0  0  0  0  0  0  0  0  0
   10.8796  -18.6936   27.2685 C   0  0  2  0  0  0  0  0  0  0  0  0
   11.1890  -17.3003   26.9313 N   0  0  0  0  0  0  0  0  0  0  0  0
   11.0285  -18.8938   28.7532 C   0  0  0  0  0  0  0  0  0  0  0  0
   10.7014  -20.1248   29.2798 O   0  0  0  0  0  0  0  0  0  0  0  0
   11.4343  -17.9934   29.5210 O   0  0  0  0  0  0  0  0  0  0  0  0
  2  1  1  0
  3  2  2  0
  4  3  1  0
  5  4  2  0
  5 11  1  0
  6  5  1  0
  7  6  1  0
  7  9  1  0
  7  8  1  6
  9 10  2  0
 11 12  2  0
 12  2  1  0
 13  9  1  0
 13 14  1  0
 14 15  1  1
 15 16  1  0
 17 14  1  0
 17 18  2  0
 20 22  1  0
 20 19  1  0
 21 20  2  0
 23 22  1  0
 24 23  1  6
 24 25  1  0
 25 17  1  0
 26 27  1  0
 26 24  1  0
 28 26  2  0
M  END
$$$$
