YCQ.pdb
     RDKit          3D

 28 28  0  0  1  0  0  0  0  0999 V2000
   10.9713  -15.4181   30.3552 O   0  0  0  0  0  0  0  0  0  0  0  0
   10.2611  -15.0988   29.1816 C   0  0  0  0  0  0  0  0  0  0  0  0
    9.9624  -13.7947   28.8842 C   0  0  0  0  0  0  0  0  0  0  0  0
    9.2612  -13.4967   27.7226 C   0  0  0  0  0  0  0  0  0  0  0  0
    8.8515  -14.4810   26.8498 C   0  0  0  0  0  0  0  0  0  0  0  0
    8.1043  -14.1257   25.6190 C   0  0  0  0  0  0  0  0  0  0  0  0
    8.3102  -15.2457   24.6321 C   0  0  2  0  0  0  0  0  0  0  0  0
    9.7124  -15.5780   24.6349 N   0  0  0  0  0  0  0  0  0  0  0  0
    7.8018  -14.9334   23.2781 C   0  0  0  0  0  0  0  0  0  0  0  0
    6.6552  -14.4312   23.1767 O   0  0  0  0  0  0  0  0  0  0  0  0
    9.1648  -15.7843   27.1726 C   0  0  0  0  0  0  0  0  0  0  0  0
    9.8645  -16.1058   28.3275 C   0  0  0  0  0  0  0  0  0  0  0  0
    8.5433  -15.1724   22.0919 N   0  0  0  0  0  0  0  0  0  0  0  0
    8.1020  -14.7397   20.7600 C   0  0  1  0  0  0  0  0  0  0  0  0
    7.7752  -13.2621   20.8025 C   0  0  0  0  0  0  0  0  0  0  0  0
    7.7902  -12.4376   19.2341 S   0  0  0  0  0  0  0  0  0  0  0  0
    9.0745  -15.1161   19.7317 C   0  0  0  0  0  0  0  0  0  0  0  0
    8.7521  -15.3129   18.5113 O   0  0  0  0  0  0  0  0  0  0  0  0
   15.2046  -15.4009   19.2849 N   0  0  0  0  0  0  0  0  0  0  0  0
   14.3278  -14.3495   18.8136 C   0  0  0  0  0  0  0  0  0  0  0  0
   14.8503  -13.3061   18.3742 O   0  0  0  0  0  0  0  0  0  0  0  0
   12.8848  -14.6260   18.9015 C   0  0  0  0  0  0  0  0  0  0  0  0
   12.6609  -15.9981   19.4686 C   0  0  0  0  0  0  0  0  0  0  0  0
   11.2227  -16.3688   19.4655 C   0  0  2  0  0  0  0  0  0  0  0  0
   10.4401  -15.2773   20.0542 N   0  0  0  0  0  0  0  0  0  0  0  0
   11.0869  -17.5999   20.3213 C   0  0  0  0  0  0  0  0  0  0  0  0
   11.0253  -17.4383   21.6887 O   0  0  0  0  0  0  0  0  0  0  0  0
   11.0284  -18.7544   19.8432 O   0  0  0  0  0  0  0  0  0  0  0  0
  2  1  1  0
  3  2  2  0
  4  3  1  0
  5  4  2  0
  5 11  1  0
  6  5  1  0
  7  6  1  0
  7  9  1  0
  7  8  1  6
  9 10  2  0
 11 12  2  0
 12  2  1  0
 13  9  1  0
 13 14  1  0
 14 15  1  1
 15 16  1  0
 17 14  1  0
 17 18  2  0
 20 22  1  0
 20 19  1  0
 21 20  2  0
 23 22  1  0
 24 23  1  1
 24 25  1  0
 25 17  1  0
 26 27  1  0
 26 24  1  0
 28 26  2  0
M  END
$$$$
