YCQ.pdb
     RDKit          3D

 28 28  0  0  1  0  0  0  0  0999 V2000
    6.5544  -11.0005   26.5811 O   0  0  0  0  0  0  0  0  0  0  0  0
    6.5984  -12.4080   26.5558 C   0  0  0  0  0  0  0  0  0  0  0  0
    7.7943  -13.0673   26.6716 C   0  0  0  0  0  0  0  0  0  0  0  0
    7.8204  -14.4559   26.6446 C   0  0  0  0  0  0  0  0  0  0  0  0
    6.6697  -15.2005   26.5036 C   0  0  0  0  0  0  0  0  0  0  0  0
    6.7356  -16.6819   26.4786 C   0  0  0  0  0  0  0  0  0  0  0  0
    6.3276  -17.1242   25.0970 C   0  0  2  0  0  0  0  0  0  0  0  0
    6.0164  -18.5297   25.1625 N   0  0  0  0  0  0  0  0  0  0  0  0
    7.3367  -16.8124   24.0608 C   0  0  0  0  0  0  0  0  0  0  0  0
    8.3365  -17.5658   23.9613 O   0  0  0  0  0  0  0  0  0  0  0  0
    5.4802  -14.5128   26.3891 C   0  0  0  0  0  0  0  0  0  0  0  0
    5.4299  -13.1258   26.4134 C   0  0  0  0  0  0  0  0  0  0  0  0
    7.2313  -15.7074   23.1766 N   0  0  0  0  0  0  0  0  0  0  0  0
    8.1728  -15.4565   22.0782 C   0  0  1  0  0  0  0  0  0  0  0  0
    7.7689  -14.1862   21.3604 C   0  0  0  0  0  0  0  0  0  0  0  0
    8.8828  -13.6454   20.0929 S   0  0  0  0  0  0  0  0  0  0  0  0
    9.5576  -15.4695   22.5543 C   0  0  0  0  0  0  0  0  0  0  0  0
    9.9712  -14.7226   23.5047 O   0  0  0  0  0  0  0  0  0  0  0  0
   12.9330  -20.3820   22.8563 N   0  0  0  0  0  0  0  0  0  0  0  0
   14.0008  -19.4608   23.1840 C   0  0  0  0  0  0  0  0  0  0  0  0
   15.1048  -19.9389   23.5117 O   0  0  0  0  0  0  0  0  0  0  0  0
   13.6681  -18.0299   23.0932 C   0  0  0  0  0  0  0  0  0  0  0  0
   12.2602  -17.8628   22.5989 C   0  0  0  0  0  0  0  0  0  0  0  0
   11.8656  -16.4327   22.5294 C   0  0  2  0  0  0  0  0  0  0  0  0
   10.5134  -16.3302   21.9709 N   0  0  0  0  0  0  0  0  0  0  0  0
   12.8413  -15.7546   21.6050 C   0  0  0  0  0  0  0  0  0  0  0  0
   13.9898  -15.2209   22.1490 O   0  0  0  0  0  0  0  0  0  0  0  0
   12.6515  -15.6576   20.3723 O   0  0  0  0  0  0  0  0  0  0  0  0
  2  1  1  0
  3  2  2  0
  4  3  1  0
  5  4  2  0
  5 11  1  0
  6  5  1  0
  7  6  1  0
  7  9  1  0
  7  8  1  1
  9 10  2  0
 11 12  2  0
 12  2  1  0
 13  9  1  0
 13 14  1  0
 14 15  1  1
 15 16  1  0
 17 14  1  0
 17 18  2  0
 20 22  1  0
 20 19  1  0
 21 20  2  0
 23 22  1  0
 24 23  1  6
 24 25  1  0
 25 17  1  0
 26 27  1  0
 26 24  1  0
 28 26  2  0
M  END
$$$$
