YCQ.pdb
     RDKit          3D

 28 28  0  0  1  0  0  0  0  0999 V2000
    7.9583  -14.0901   13.4505 O   0  0  0  0  0  0  0  0  0  0  0  0
    8.1627  -13.8800   14.8281 C   0  0  0  0  0  0  0  0  0  0  0  0
    9.3591  -14.2089   15.4103 C   0  0  0  0  0  0  0  0  0  0  0  0
    9.5446  -13.9954   16.7704 C   0  0  0  0  0  0  0  0  0  0  0  0
    8.5534  -13.4576   17.5621 C   0  0  0  0  0  0  0  0  0  0  0  0
    8.7868  -13.2441   19.0110 C   0  0  0  0  0  0  0  0  0  0  0  0
    8.8780  -14.6039   19.6542 C   0  0  2  0  0  0  0  0  0  0  0  0
    7.6556  -15.3084   19.3613 N   0  0  0  0  0  0  0  0  0  0  0  0
    9.1690  -14.5471   21.1038 C   0  0  0  0  0  0  0  0  0  0  0  0
   10.2228  -13.9735   21.4749 O   0  0  0  0  0  0  0  0  0  0  0  0
    7.3599  -13.1357   16.9516 C   0  0  0  0  0  0  0  0  0  0  0  0
    7.1519  -13.3401   15.5945 C   0  0  0  0  0  0  0  0  0  0  0  0
    8.3191  -15.1071   22.0927 N   0  0  0  0  0  0  0  0  0  0  0  0
    8.6839  -15.2077   23.5114 C   0  0  1  0  0  0  0  0  0  0  0  0
    7.4342  -15.0711   24.3549 C   0  0  0  0  0  0  0  0  0  0  0  0
    7.6169  -15.5228   26.0586 S   0  0  0  0  0  0  0  0  0  0  0  0
    9.4625  -16.4201   23.7734 C   0  0  0  0  0  0  0  0  0  0  0  0
    9.1413  -17.5649   23.3060 O   0  0  0  0  0  0  0  0  0  0  0  0
   14.1554  -16.0778   21.7317 N   0  0  0  0  0  0  0  0  0  0  0  0
   14.4857  -16.1618   23.1388 C   0  0  0  0  0  0  0  0  0  0  0  0
   15.6916  -16.1898   23.4552 O   0  0  0  0  0  0  0  0  0  0  0  0
   13.3445  -16.2044   24.0673 C   0  0  0  0  0  0  0  0  0  0  0  0
   12.6487  -17.5307   23.9617 C   0  0  0  0  0  0  0  0  0  0  0  0
   11.4249  -17.5806   24.8016 C   0  0  2  0  0  0  0  0  0  0  0  0
   10.6284  -16.3714   24.5690 N   0  0  0  0  0  0  0  0  0  0  0  0
   11.8805  -17.6112   26.2362 C   0  0  0  0  0  0  0  0  0  0  0  0
   11.4953  -16.5783   27.0635 O   0  0  0  0  0  0  0  0  0  0  0  0
   12.5893  -18.5305   26.7025 O   0  0  0  0  0  0  0  0  0  0  0  0
  2  1  1  0
  3  2  2  0
  4  3  1  0
  5  4  2  0
  5 11  1  0
  6  5  1  0
  7  6  1  0
  7  9  1  0
  7  8  1  1
  9 10  2  0
 11 12  2  0
 12  2  1  0
 13  9  1  0
 13 14  1  0
 14 15  1  1
 15 16  1  0
 17 14  1  0
 17 18  2  0
 20 22  1  0
 20 19  1  0
 21 20  2  0
 23 22  1  0
 24 23  1  6
 24 25  1  0
 25 17  1  0
 26 27  1  0
 26 24  1  0
 28 26  2  0
M  END
$$$$
