YCQ.pdb
     RDKit          3D

 28 28  0  0  1  0  0  0  0  0999 V2000
    8.5666  -22.7755   14.9663 O   0  0  0  0  0  0  0  0  0  0  0  0
    9.2074  -21.9890   15.9433 C   0  0  0  0  0  0  0  0  0  0  0  0
    8.5679  -21.6818   17.1159 C   0  0  0  0  0  0  0  0  0  0  0  0
    9.2139  -20.9049   18.0693 C   0  0  0  0  0  0  0  0  0  0  0  0
   10.4913  -20.4277   17.8720 C   0  0  0  0  0  0  0  0  0  0  0  0
   11.1499  -19.6006   18.9120 C   0  0  0  0  0  0  0  0  0  0  0  0
   10.2352  -18.4394   19.2051 C   0  0  2  0  0  0  0  0  0  0  0  0
   10.2012  -17.6034   18.0319 N   0  0  0  0  0  0  0  0  0  0  0  0
   10.6106  -17.6924   20.4258 C   0  0  0  0  0  0  0  0  0  0  0  0
   11.7897  -17.2713   20.5240 O   0  0  0  0  0  0  0  0  0  0  0  0
   11.1119  -20.7513   16.6841 C   0  0  0  0  0  0  0  0  0  0  0  0
   10.4861  -21.5259   15.7171 C   0  0  0  0  0  0  0  0  0  0  0  0
    9.7073  -17.4288   21.4881 N   0  0  0  0  0  0  0  0  0  0  0  0
   10.1283  -16.9374   22.8060 C   0  0  1  0  0  0  0  0  0  0  0  0
    9.1200  -15.9223   23.3011 C   0  0  0  0  0  0  0  0  0  0  0  0
    9.3637  -15.3616   24.9643 S   0  0  0  0  0  0  0  0  0  0  0  0
   10.3761  -18.0460   23.7303 C   0  0  0  0  0  0  0  0  0  0  0  0
    9.6857  -19.1209   23.7249 O   0  0  0  0  0  0  0  0  0  0  0  0
   12.3138  -21.9031   22.9526 N   0  0  0  0  0  0  0  0  0  0  0  0
   13.0250  -22.2736   24.1581 C   0  0  0  0  0  0  0  0  0  0  0  0
   13.3264  -23.4736   24.3131 O   0  0  0  0  0  0  0  0  0  0  0  0
   13.3260  -21.1764   25.0919 C   0  0  0  0  0  0  0  0  0  0  0  0
   12.8855  -19.8679   24.5019 C   0  0  0  0  0  0  0  0  0  0  0  0
   11.8917  -19.1799   25.3650 C   0  0  2  0  0  0  0  0  0  0  0  0
   11.4142  -17.9715   24.6850 N   0  0  0  0  0  0  0  0  0  0  0  0
   12.6072  -18.7917   26.6314 C   0  0  0  0  0  0  0  0  0  0  0  0
   12.7307  -17.4505   26.9241 O   0  0  0  0  0  0  0  0  0  0  0  0
   13.0901  -19.6326   27.4218 O   0  0  0  0  0  0  0  0  0  0  0  0
  2  1  1  0
  3  2  2  0
  4  3  1  0
  5  4  2  0
  5 11  1  0
  6  5  1  0
  7  6  1  0
  7  9  1  0
  7  8  1  6
  9 10  2  0
 11 12  2  0
 12  2  1  0
 13  9  1  0
 13 14  1  0
 14 15  1  1
 15 16  1  0
 17 14  1  0
 17 18  2  0
 20 22  1  0
 20 19  1  0
 21 20  2  0
 23 22  1  0
 24 23  1  6
 24 25  1  0
 25 17  1  0
 26 27  1  0
 26 24  1  0
 28 26  2  0
M  END
$$$$
