SFR.pdb
     RDKit          3D

 29 29  0  0  1  0  0  0  0  0999 V2000
   19.6280  -29.5106  -11.8039 O   0  0  0  0  0  0  0  0  0  0  0  0
   20.7952  -28.7562  -11.8336 C   0  0  0  0  0  0  0  0  0  0  0  0
   20.4226  -27.3363  -12.1164 C   0  0  2  0  0  0  0  0  0  0  0  0
   18.9850  -27.1873  -12.2368 N   0  0  0  0  0  0  0  0  0  0  0  0
   21.1065  -26.7912  -13.3321 C   0  0  0  0  0  0  0  0  0  0  0  0
   20.5218  -26.6992  -14.4392 O   0  0  0  0  0  0  0  0  0  0  0  0
   22.4576  -26.3646  -13.2347 N   0  0  0  0  0  0  0  0  0  0  0  0
   23.1260  -25.8360  -14.4301 C   0  0  1  0  0  0  0  0  0  0  0  0
   24.0882  -24.7908  -14.0202 C   0  0  0  0  0  0  0  0  0  0  0  0
   24.9202  -24.1770  -15.0253 C   0  0  0  0  0  0  0  0  0  0  0  0
   26.0956  -24.7742  -15.4253 C   0  0  0  0  0  0  0  0  0  0  0  0
   26.9163  -24.2041  -16.3914 C   0  0  0  0  0  0  0  0  0  0  0  0
   26.5688  -23.0044  -16.9849 C   0  0  0  0  0  0  0  0  0  0  0  0
   25.4049  -22.3931  -16.6026 C   0  0  0  0  0  0  0  0  0  0  0  0
   24.5974  -22.9776  -15.6355 C   0  0  0  0  0  0  0  0  0  0  0  0
   23.5677  -26.9050  -15.3071 C   0  0  0  0  0  0  0  0  0  0  0  0
   24.1434  -27.9146  -14.7538 O   0  0  0  0  0  0  0  0  0  0  0  0
   20.9274  -33.6694  -16.7630 N   0  0  0  0  0  0  0  0  0  0  0  0
   21.6558  -32.8146  -15.8843 C   0  0  0  0  0  0  0  0  0  0  0  0
   21.5708  -32.9328  -14.6139 N   0  0  0  0  0  0  0  0  0  0  0  0
   22.4926  -31.8117  -16.4430 N   0  0  0  0  0  0  0  0  0  0  0  0
   22.7721  -31.7197  -17.8561 C   0  0  0  0  0  0  0  0  0  0  0  0
   23.6675  -30.4991  -18.0999 C   0  0  0  0  0  0  0  0  0  0  0  0
   23.1740  -29.3483  -17.2746 C   0  0  0  0  0  0  0  0  0  0  0  0
   24.0419  -28.1493  -17.4521 C   0  0  2  0  0  0  0  0  0  0  0  0
   23.4485  -27.0017  -16.7109 N   0  0  0  0  0  0  0  0  0  0  0  0
   24.2229  -27.7914  -18.8658 C   0  0  0  0  0  0  0  0  0  0  0  0
   23.5858  -26.8054  -19.3410 O   0  0  0  0  0  0  0  0  0  0  0  0
   25.0576  -28.4677  -19.7273 O   0  0  0  0  0  0  0  0  0  0  0  0
  2  1  1  0
  3  2  1  0
  3  5  1  0
  3  4  1  6
  5  6  2  0
  7  5  1  0
  7  8  1  0
  8  9  1  1
 10  9  1  0
 11 10  2  0
 12 11  1  0
 13 14  1  0
 13 12  2  0
 14 15  2  0
 15 10  1  0
 16  8  1  0
 16 17  2  0
 19 21  1  0
 19 18  1  0
 20 19  2  0
 22 23  1  0
 22 21  1  0
 23 24  1  0
 25 24  1  6
 25 26  1  0
 25 27  1  0
 26 16  1  0
 27 29  1  0
 28 27  2  0
M  END
$$$$
