SFR.pdb
     RDKit          3D

 29 29  0  0  1  0  0  0  0  0999 V2000
   17.7014  -10.0106  -16.7526 O   0  0  0  0  0  0  0  0  0  0  0  0
   19.0318  -10.0106  -17.1558 C   0  0  0  0  0  0  0  0  0  0  0  0
   19.7981  -10.8953  -16.2259 C   0  0  2  0  0  0  0  0  0  0  0  0
   19.3419  -12.2690  -16.3165 N   0  0  0  0  0  0  0  0  0  0  0  0
   19.7474  -10.4221  -14.8059 C   0  0  0  0  0  0  0  0  0  0  0  0
   19.1117  -11.0441  -13.9198 O   0  0  0  0  0  0  0  0  0  0  0  0
   20.4372   -9.2340  -14.4461 N   0  0  0  0  0  0  0  0  0  0  0  0
   20.3159   -8.7273  -13.0736 C   0  0  1  0  0  0  0  0  0  0  0  0
   21.6636   -8.3998  -12.5612 C   0  0  0  0  0  0  0  0  0  0  0  0
   21.7969   -7.9213  -11.2074 C   0  0  0  0  0  0  0  0  0  0  0  0
   21.7487   -6.5725  -10.9309 C   0  0  0  0  0  0  0  0  0  0  0  0
   21.8750   -6.0843   -9.6357 C   0  0  0  0  0  0  0  0  0  0  0  0
   22.0552   -6.9532   -8.5752 C   0  0  0  0  0  0  0  0  0  0  0  0
   22.1062   -8.2981   -8.8268 C   0  0  0  0  0  0  0  0  0  0  0  0
   21.9781   -8.7676  -10.1276 C   0  0  0  0  0  0  0  0  0  0  0  0
   19.2544   -7.7433  -12.9634 C   0  0  0  0  0  0  0  0  0  0  0  0
   19.1530   -6.8840  -13.9164 O   0  0  0  0  0  0  0  0  0  0  0  0
   12.2286   -8.6069   -8.5184 N   0  0  0  0  0  0  0  0  0  0  0  0
   13.0104   -9.4841   -9.3264 C   0  0  0  0  0  0  0  0  0  0  0  0
   12.8248  -10.7491   -9.3125 N   0  0  0  0  0  0  0  0  0  0  0  0
   14.0159   -8.9297  -10.1630 N   0  0  0  0  0  0  0  0  0  0  0  0
   13.9271   -7.6028  -10.7242 C   0  0  0  0  0  0  0  0  0  0  0  0
   15.0883   -7.4075  -11.7062 C   0  0  0  0  0  0  0  0  0  0  0  0
   16.2253   -6.7285  -11.0023 C   0  0  0  0  0  0  0  0  0  0  0  0
   17.3456   -6.4431  -11.9436 C   0  0  2  0  0  0  0  0  0  0  0  0
   18.2916   -7.5936  -11.9413 N   0  0  0  0  0  0  0  0  0  0  0  0
   18.0623   -5.2058  -11.6046 C   0  0  0  0  0  0  0  0  0  0  0  0
   17.4321   -4.1074  -11.5989 O   0  0  0  0  0  0  0  0  0  0  0  0
   19.4005   -5.1582  -11.2834 O   0  0  0  0  0  0  0  0  0  0  0  0
  2  1  1  0
  3  2  1  0
  3  5  1  0
  3  4  1  1
  5  6  2  0
  7  5  1  0
  7  8  1  0
  8  9  1  6
 10  9  1  0
 11 10  2  0
 12 11  1  0
 13 14  1  0
 13 12  2  0
 14 15  2  0
 15 10  1  0
 16  8  1  0
 16 17  2  0
 19 21  1  0
 19 18  1  0
 20 19  2  0
 22 23  1  0
 22 21  1  0
 23 24  1  0
 25 24  1  1
 25 26  1  0
 25 27  1  0
 26 16  1  0
 27 29  1  0
 28 27  2  0
M  END
$$$$
