SFR.pdb
     RDKit          3D

 29 29  0  0  1  0  0  0  0  0999 V2000
   27.1322  -18.8801  -15.3734 O   0  0  0  0  0  0  0  0  0  0  0  0
   28.1240  -18.7888  -14.4036 C   0  0  0  0  0  0  0  0  0  0  0  0
   28.3673  -20.1594  -13.8587 C   0  0  2  0  0  0  0  0  0  0  0  0
   28.8006  -21.0678  -14.9030 N   0  0  0  0  0  0  0  0  0  0  0  0
   27.1744  -20.7170  -13.1451 C   0  0  0  0  0  0  0  0  0  0  0  0
   26.6315  -21.7927  -13.4972 O   0  0  0  0  0  0  0  0  0  0  0  0
   26.6374  -20.0107  -12.0362 N   0  0  0  0  0  0  0  0  0  0  0  0
   25.5354  -20.6114  -11.2746 C   0  0  1  0  0  0  0  0  0  0  0  0
   25.5366  -20.0527   -9.9057 C   0  0  0  0  0  0  0  0  0  0  0  0
   26.7185  -20.2022   -9.0933 C   0  0  0  0  0  0  0  0  0  0  0  0
   26.8397  -19.5275   -7.8982 C   0  0  0  0  0  0  0  0  0  0  0  0
   27.9679  -19.6530   -7.0962 C   0  0  0  0  0  0  0  0  0  0  0  0
   29.0138  -20.4708   -7.4832 C   0  0  0  0  0  0  0  0  0  0  0  0
   28.9147  -21.1509   -8.6673 C   0  0  0  0  0  0  0  0  0  0  0  0
   27.7797  -21.0131   -9.4557 C   0  0  0  0  0  0  0  0  0  0  0  0
   24.3021  -20.6155  -12.0402 C   0  0  0  0  0  0  0  0  0  0  0  0
   23.8910  -19.4825  -12.4922 O   0  0  0  0  0  0  0  0  0  0  0  0
   24.6387  -25.7998  -15.5976 N   0  0  0  0  0  0  0  0  0  0  0  0
   23.3245  -25.9571  -15.0669 C   0  0  0  0  0  0  0  0  0  0  0  0
   23.0157  -26.9564  -14.3313 N   0  0  0  0  0  0  0  0  0  0  0  0
   22.3429  -24.9753  -15.3680 N   0  0  0  0  0  0  0  0  0  0  0  0
   22.6393  -23.7669  -16.0997 C   0  0  0  0  0  0  0  0  0  0  0  0
   22.9785  -22.6578  -15.0969 C   0  0  0  0  0  0  0  0  0  0  0  0
   21.9394  -22.6307  -14.0158 C   0  0  0  0  0  0  0  0  0  0  0  0
   22.1749  -21.5002  -13.0730 C   0  0  2  0  0  0  0  0  0  0  0  0
   23.4730  -21.7091  -12.3732 N   0  0  0  0  0  0  0  0  0  0  0  0
   21.0937  -21.3557  -12.0884 C   0  0  0  0  0  0  0  0  0  0  0  0
   21.3370  -21.5768  -10.8654 O   0  0  0  0  0  0  0  0  0  0  0  0
   19.8071  -20.9858  -12.4109 O   0  0  0  0  0  0  0  0  0  0  0  0
  2  1  1  0
  3  2  1  0
  3  5  1  0
  3  4  1  6
  5  6  2  0
  7  5  1  0
  7  8  1  0
  8  9  1  1
 10  9  1  0
 11 10  2  0
 12 11  1  0
 13 14  1  0
 13 12  2  0
 14 15  2  0
 15 10  1  0
 16  8  1  0
 16 17  2  0
 19 21  1  0
 19 18  1  0
 20 19  2  0
 22 23  1  0
 22 21  1  0
 23 24  1  0
 25 24  1  6
 25 26  1  0
 25 27  1  0
 26 16  1  0
 27 29  1  0
 28 27  2  0
M  END
$$$$
