SFR.pdb
     RDKit          3D

 29 29  0  0  1  0  0  0  0  0999 V2000
   23.9330  -19.2461  -17.4432 O   0  0  0  0  0  0  0  0  0  0  0  0
   25.2404  -19.3511  -16.9826 C   0  0  0  0  0  0  0  0  0  0  0  0
   25.2869  -18.8068  -15.5911 C   0  0  2  0  0  0  0  0  0  0  0  0
   24.3791  -19.5258  -14.7179 N   0  0  0  0  0  0  0  0  0  0  0  0
   25.0068  -17.3365  -15.5368 C   0  0  0  0  0  0  0  0  0  0  0  0
   23.8848  -16.8851  -15.2003 O   0  0  0  0  0  0  0  0  0  0  0  0
   26.0385  -16.4214  -15.8759 N   0  0  0  0  0  0  0  0  0  0  0  0
   25.7493  -14.9822  -15.8569 C   0  0  1  0  0  0  0  0  0  0  0  0
   26.8983  -14.2689  -15.2593 C   0  0  0  0  0  0  0  0  0  0  0  0
   26.9805  -12.8365  -15.4034 C   0  0  0  0  0  0  0  0  0  0  0  0
   27.8508  -12.2701  -16.3089 C   0  0  0  0  0  0  0  0  0  0  0  0
   27.9505  -10.8928  -16.4676 C   0  0  0  0  0  0  0  0  0  0  0  0
   27.1667  -10.0428  -15.7091 C   0  0  0  0  0  0  0  0  0  0  0  0
   26.2946  -10.5839  -14.8029 C   0  0  0  0  0  0  0  0  0  0  0  0
   26.2087  -11.9626  -14.6580 C   0  0  0  0  0  0  0  0  0  0  0  0
   25.2160  -14.5316  -17.1295 C   0  0  0  0  0  0  0  0  0  0  0  0
   25.8242  -14.9295  -18.1919 O   0  0  0  0  0  0  0  0  0  0  0  0
   18.2409   -9.9931  -20.6197 N   0  0  0  0  0  0  0  0  0  0  0  0
   19.1275  -10.3130  -21.6897 C   0  0  0  0  0  0  0  0  0  0  0  0
   18.8580   -9.9957  -22.8988 N   0  0  0  0  0  0  0  0  0  0  0  0
   20.3355  -11.0001  -21.3954 N   0  0  0  0  0  0  0  0  0  0  0  0
   20.7219  -11.3703  -20.0548 C   0  0  0  0  0  0  0  0  0  0  0  0
   22.0858  -12.0684  -20.1133 C   0  0  0  0  0  0  0  0  0  0  0  0
   22.4739  -12.5165  -18.7357 C   0  0  0  0  0  0  0  0  0  0  0  0
   23.7740  -13.2458  -18.7548 C   0  0  2  0  0  0  0  0  0  0  0  0
   24.0971  -13.7058  -17.3755 N   0  0  0  0  0  0  0  0  0  0  0  0
   24.8726  -12.4214  -19.2770 C   0  0  0  0  0  0  0  0  0  0  0  0
   25.3739  -12.7014  -20.4059 O   0  0  0  0  0  0  0  0  0  0  0  0
   25.4043  -11.3404  -18.6100 O   0  0  0  0  0  0  0  0  0  0  0  0
  2  1  1  0
  3  2  1  0
  3  5  1  0
  3  4  1  1
  5  6  2  0
  7  5  1  0
  7  8  1  0
  8  9  1  6
 10  9  1  0
 11 10  2  0
 12 11  1  0
 13 14  1  0
 13 12  2  0
 14 15  2  0
 15 10  1  0
 16  8  1  0
 16 17  2  0
 19 21  1  0
 19 18  1  0
 20 19  2  0
 22 23  1  0
 22 21  1  0
 23 24  1  0
 25 24  1  1
 25 26  1  0
 25 27  1  0
 26 16  1  0
 27 29  1  0
 28 27  2  0
M  END
$$$$
