SFR.pdb
     RDKit          3D

 29 29  0  0  1  0  0  0  0  0999 V2000
   21.2163  -22.8958  -14.7159 O   0  0  0  0  0  0  0  0  0  0  0  0
   22.3113  -22.0699  -14.4894 C   0  0  0  0  0  0  0  0  0  0  0  0
   22.0210  -21.2350  -13.2838 C   0  0  2  0  0  0  0  0  0  0  0  0
   21.0688  -20.1853  -13.5920 N   0  0  0  0  0  0  0  0  0  0  0  0
   23.2584  -20.6531  -12.6731 C   0  0  0  0  0  0  0  0  0  0  0  0
   23.6445  -19.4876  -12.9347 O   0  0  0  0  0  0  0  0  0  0  0  0
   24.0218  -21.4399  -11.7703 N   0  0  0  0  0  0  0  0  0  0  0  0
   25.3493  -20.9667  -11.3591 C   0  0  1  0  0  0  0  0  0  0  0  0
   25.7145  -21.6117  -10.0798 C   0  0  0  0  0  0  0  0  0  0  0  0
   26.8521  -21.1124   -9.3477 C   0  0  0  0  0  0  0  0  0  0  0  0
   28.1277  -21.5269   -9.6629 C   0  0  0  0  0  0  0  0  0  0  0  0
   29.2414  -21.0621   -8.9733 C   0  0  0  0  0  0  0  0  0  0  0  0
   29.0954  -20.1579   -7.9372 C   0  0  0  0  0  0  0  0  0  0  0  0
   27.8368  -19.7323   -7.6068 C   0  0  0  0  0  0  0  0  0  0  0  0
   26.7356  -20.2077   -8.3070 C   0  0  0  0  0  0  0  0  0  0  0  0
   26.2891  -20.9970  -12.4649 C   0  0  0  0  0  0  0  0  0  0  0  0
   26.1669  -21.9607  -13.3094 O   0  0  0  0  0  0  0  0  0  0  0  0
   31.0868  -25.3749  -15.4156 N   0  0  0  0  0  0  0  0  0  0  0  0
   30.8241  -24.6818  -16.6338 C   0  0  0  0  0  0  0  0  0  0  0  0
   30.6593  -25.3074  -17.7368 N   0  0  0  0  0  0  0  0  0  0  0  0
   30.7454  -23.2635  -16.6110 N   0  0  0  0  0  0  0  0  0  0  0  0
   30.4419  -22.5129  -15.4161 C   0  0  0  0  0  0  0  0  0  0  0  0
   29.1257  -21.7570  -15.6335 C   0  0  0  0  0  0  0  0  0  0  0  0
   28.4130  -21.6130  -14.3218 C   0  0  0  0  0  0  0  0  0  0  0  0
   28.0853  -20.1858  -14.0428 C   0  0  2  0  0  0  0  0  0  0  0  0
   27.3379  -20.0977  -12.7575 N   0  0  0  0  0  0  0  0  0  0  0  0
   27.3003  -19.5687  -15.1209 C   0  0  0  0  0  0  0  0  0  0  0  0
   26.2406  -20.1372  -15.5180 O   0  0  0  0  0  0  0  0  0  0  0  0
   27.6438  -18.3880  -15.7406 O   0  0  0  0  0  0  0  0  0  0  0  0
  2  1  1  0
  3  2  1  0
  3  5  1  0
  3  4  1  6
  5  6  2  0
  7  5  1  0
  7  8  1  0
  8  9  1  1
 10  9  1  0
 11 10  2  0
 12 11  1  0
 13 14  1  0
 13 12  2  0
 14 15  2  0
 15 10  1  0
 16  8  1  0
 16 17  2  0
 19 21  1  0
 19 18  1  0
 20 19  2  0
 22 23  1  0
 22 21  1  0
 23 24  1  0
 25 24  1  6
 25 26  1  0
 25 27  1  0
 26 16  1  0
 27 29  1  0
 28 27  2  0
M  END
$$$$
