SFR.pdb
     RDKit          3D

 29 29  0  0  1  0  0  0  0  0999 V2000
   25.6804   -9.8660  -22.8751 O   0  0  0  0  0  0  0  0  0  0  0  0
   24.8709   -9.7337  -21.7528 C   0  0  0  0  0  0  0  0  0  0  0  0
   25.6965  -10.0456  -20.5462 C   0  0  2  0  0  0  0  0  0  0  0  0
   26.0870  -11.4422  -20.5268 N   0  0  0  0  0  0  0  0  0  0  0  0
   25.0101   -9.6787  -19.2666 C   0  0  0  0  0  0  0  0  0  0  0  0
   24.2730  -10.4877  -18.6516 O   0  0  0  0  0  0  0  0  0  0  0  0
   25.1952   -8.3773  -18.7291 N   0  0  0  0  0  0  0  0  0  0  0  0
   24.5036   -8.0146  -17.4860 C   0  0  1  0  0  0  0  0  0  0  0  0
   25.5006   -7.8830  -16.4021 C   0  0  0  0  0  0  0  0  0  0  0  0
   26.1714   -9.0670  -15.9250 C   0  0  0  0  0  0  0  0  0  0  0  0
   27.4269   -9.3974  -16.3860 C   0  0  0  0  0  0  0  0  0  0  0  0
   28.0956  -10.5326  -15.9434 C   0  0  0  0  0  0  0  0  0  0  0  0
   27.5087  -11.3726  -15.0148 C   0  0  0  0  0  0  0  0  0  0  0  0
   26.2612  -11.0637  -14.5429 C   0  0  0  0  0  0  0  0  0  0  0  0
   25.6082   -9.9250  -14.9967 C   0  0  0  0  0  0  0  0  0  0  0  0
   23.5452   -6.9466  -17.7045 C   0  0  0  0  0  0  0  0  0  0  0  0
   23.9728   -5.8916  -18.3055 O   0  0  0  0  0  0  0  0  0  0  0  0
   14.9635   -7.1113  -17.9289 N   0  0  0  0  0  0  0  0  0  0  0  0
   15.5425   -6.3744  -19.0037 C   0  0  0  0  0  0  0  0  0  0  0  0
   14.9329   -6.2272  -20.1181 N   0  0  0  0  0  0  0  0  0  0  0  0
   16.8264   -5.7941  -18.8222 N   0  0  0  0  0  0  0  0  0  0  0  0
   17.5649   -5.8921  -17.5859 C   0  0  0  0  0  0  0  0  0  0  0  0
   18.9212   -5.2010  -17.7694 C   0  0  0  0  0  0  0  0  0  0  0  0
   19.9641   -6.2303  -18.0887 C   0  0  0  0  0  0  0  0  0  0  0  0
   21.3274   -5.7405  -17.7366 C   0  0  2  0  0  0  0  0  0  0  0  0
   22.1790   -6.8998  -17.3502 N   0  0  0  0  0  0  0  0  0  0  0  0
   21.3054   -4.7520  -16.6496 C   0  0  0  0  0  0  0  0  0  0  0  0
   20.7937   -3.6127  -16.8595 O   0  0  0  0  0  0  0  0  0  0  0  0
   21.8118   -4.9853  -15.3905 O   0  0  0  0  0  0  0  0  0  0  0  0
  2  1  1  0
  3  2  1  0
  3  5  1  0
  3  4  1  1
  5  6  2  0
  7  5  1  0
  7  8  1  0
  8  9  1  1
 10  9  1  0
 11 10  2  0
 12 11  1  0
 13 14  1  0
 13 12  2  0
 14 15  2  0
 15 10  1  0
 16  8  1  0
 16 17  2  0
 19 21  1  0
 19 18  1  0
 20 19  2  0
 22 23  1  0
 22 21  1  0
 23 24  1  0
 25 24  1  1
 25 26  1  0
 25 27  1  0
 26 16  1  0
 27 29  1  0
 28 27  2  0
M  END
$$$$
