SFR.pdb
     RDKit          3D

 29 29  0  0  1  0  0  0  0  0999 V2000
   21.6797  -23.3273   -6.5738 O   0  0  0  0  0  0  0  0  0  0  0  0
   22.8821  -22.9295   -7.1471 C   0  0  0  0  0  0  0  0  0  0  0  0
   23.1221  -21.5012   -6.7769 C   0  0  2  0  0  0  0  0  0  0  0  0
   21.8777  -20.7578   -6.7278 N   0  0  0  0  0  0  0  0  0  0  0  0
   24.0976  -20.8244   -7.6898 C   0  0  0  0  0  0  0  0  0  0  0  0
   23.7500  -19.9055   -8.4712 O   0  0  0  0  0  0  0  0  0  0  0  0
   25.4581  -21.2315   -7.6749 N   0  0  0  0  0  0  0  0  0  0  0  0
   26.4008  -20.6013   -8.6073 C   0  0  1  0  0  0  0  0  0  0  0  0
   27.7120  -20.4554   -7.9399 C   0  0  0  0  0  0  0  0  0  0  0  0
   27.7545  -19.9464   -6.5913 C   0  0  0  0  0  0  0  0  0  0  0  0
   27.4593  -18.6266   -6.3287 C   0  0  0  0  0  0  0  0  0  0  0  0
   27.4931  -18.1101   -5.0387 C   0  0  0  0  0  0  0  0  0  0  0  0
   27.8291  -18.9201   -3.9695 C   0  0  0  0  0  0  0  0  0  0  0  0
   28.1263  -20.2353   -4.2073 C   0  0  0  0  0  0  0  0  0  0  0  0
   28.0874  -20.7338   -5.5031 C   0  0  0  0  0  0  0  0  0  0  0  0
   26.3359  -21.2136   -9.9218 C   0  0  0  0  0  0  0  0  0  0  0  0
   25.8262  -22.3935   -9.9923 O   0  0  0  0  0  0  0  0  0  0  0  0
   20.8512  -19.6028  -15.0351 N   0  0  0  0  0  0  0  0  0  0  0  0
   20.3927  -20.6313  -14.1603 C   0  0  0  0  0  0  0  0  0  0  0  0
   19.4509  -21.4270  -14.4995 N   0  0  0  0  0  0  0  0  0  0  0  0
   21.0029  -20.7670  -12.8846 N   0  0  0  0  0  0  0  0  0  0  0  0
   22.1248  -19.9636  -12.4612 C   0  0  0  0  0  0  0  0  0  0  0  0
   23.3774  -20.8474  -12.4332 C   0  0  0  0  0  0  0  0  0  0  0  0
   24.5385  -20.0475  -11.9223 C   0  0  0  0  0  0  0  0  0  0  0  0
   25.8343  -20.6594  -12.3334 C   0  0  2  0  0  0  0  0  0  0  0  0
   26.7553  -20.6869  -11.1632 N   0  0  0  0  0  0  0  0  0  0  0  0
   26.4653  -19.9415  -13.4495 C   0  0  0  0  0  0  0  0  0  0  0  0
   26.3653  -20.4097  -14.6219 O   0  0  0  0  0  0  0  0  0  0  0  0
   27.1709  -18.7678  -13.3052 O   0  0  0  0  0  0  0  0  0  0  0  0
  2  1  1  0
  3  2  1  0
  3  5  1  0
  3  4  1  6
  5  6  2  0
  7  5  1  0
  7  8  1  0
  8  9  1  1
 10  9  1  0
 11 10  2  0
 12 11  1  0
 13 14  1  0
 13 12  2  0
 14 15  2  0
 15 10  1  0
 16  8  1  0
 16 17  2  0
 19 21  1  0
 19 18  1  0
 20 19  2  0
 22 23  1  0
 22 21  1  0
 23 24  1  0
 25 24  1  1
 25 26  1  0
 25 27  1  0
 26 16  1  0
 27 29  1  0
 28 27  2  0
M  END
$$$$
