SFR.pdb
     RDKit          3D

 29 29  0  0  1  0  0  0  0  0999 V2000
   25.5573  -19.5022  -13.9858 O   0  0  0  0  0  0  0  0  0  0  0  0
   26.8643  -19.2370  -13.5936 C   0  0  0  0  0  0  0  0  0  0  0  0
   27.4623  -20.5086  -13.0834 C   0  0  2  0  0  0  0  0  0  0  0  0
   27.1901  -21.6124  -13.9838 N   0  0  0  0  0  0  0  0  0  0  0  0
   27.0086  -20.8439  -11.6960 C   0  0  0  0  0  0  0  0  0  0  0  0
   26.5072  -21.9590  -11.4115 O   0  0  0  0  0  0  0  0  0  0  0  0
   27.1474  -19.8740  -10.6680 N   0  0  0  0  0  0  0  0  0  0  0  0
   26.8285  -20.2504   -9.2853 C   0  0  1  0  0  0  0  0  0  0  0  0
   27.7280  -19.5183   -8.3682 C   0  0  0  0  0  0  0  0  0  0  0  0
   27.5876  -19.7190   -6.9471 C   0  0  0  0  0  0  0  0  0  0  0  0
   28.0163  -18.7595   -6.0562 C   0  0  0  0  0  0  0  0  0  0  0  0
   27.8935  -18.9275   -4.6819 C   0  0  0  0  0  0  0  0  0  0  0  0
   27.3294  -20.0797   -4.1658 C   0  0  0  0  0  0  0  0  0  0  0  0
   26.8964  -21.0467   -5.0329 C   0  0  0  0  0  0  0  0  0  0  0  0
   27.0274  -20.8614   -6.4031 C   0  0  0  0  0  0  0  0  0  0  0  0
   25.3970  -20.2278   -9.0462 C   0  0  0  0  0  0  0  0  0  0  0  0
   24.7432  -19.2199   -9.5082 O   0  0  0  0  0  0  0  0  0  0  0  0
   23.2714  -20.0087  -13.6557 N   0  0  0  0  0  0  0  0  0  0  0  0
   21.8583  -19.8193  -13.6800 C   0  0  0  0  0  0  0  0  0  0  0  0
   21.3119  -18.9619  -14.4556 N   0  0  0  0  0  0  0  0  0  0  0  0
   21.0474  -20.6064  -12.8191 N   0  0  0  0  0  0  0  0  0  0  0  0
   21.5915  -21.5633  -11.8856 C   0  0  0  0  0  0  0  0  0  0  0  0
   22.0604  -20.8136  -10.6329 C   0  0  0  0  0  0  0  0  0  0  0  0
   22.6308  -21.7938   -9.6516 C   0  0  0  0  0  0  0  0  0  0  0  0
   23.1127  -21.1033   -8.4215 C   0  0  2  0  0  0  0  0  0  0  0  0
   24.5995  -21.1770   -8.3699 N   0  0  0  0  0  0  0  0  0  0  0  0
   22.5409  -21.6764   -7.1952 C   0  0  0  0  0  0  0  0  0  0  0  0
   22.7765  -22.8876   -6.9099 O   0  0  0  0  0  0  0  0  0  0  0  0
   21.7514  -20.9709   -6.3147 O   0  0  0  0  0  0  0  0  0  0  0  0
  2  1  1  0
  3  2  1  0
  3  5  1  0
  3  4  1  6
  5  6  2  0
  7  5  1  0
  7  8  1  0
  8  9  1  1
 10  9  1  0
 11 10  2  0
 12 11  1  0
 13 14  1  0
 13 12  2  0
 14 15  2  0
 15 10  1  0
 16  8  1  0
 16 17  2  0
 19 21  1  0
 19 18  1  0
 20 19  2  0
 22 23  1  0
 22 21  1  0
 23 24  1  0
 25 24  1  6
 25 26  1  0
 25 27  1  0
 26 16  1  0
 27 29  1  0
 28 27  2  0
M  END
$$$$
