SFR.pdb
     RDKit          3D

 29 29  0  0  1  0  0  0  0  0999 V2000
   27.2694  -19.2515  -13.6961 O   0  0  0  0  0  0  0  0  0  0  0  0
   28.6152  -19.4640  -13.4199 C   0  0  0  0  0  0  0  0  0  0  0  0
   28.7834  -20.8896  -13.0024 C   0  0  2  0  0  0  0  0  0  0  0  0
   28.1737  -21.7906  -13.9615 N   0  0  0  0  0  0  0  0  0  0  0  0
   28.2520  -21.1548  -11.6275 C   0  0  0  0  0  0  0  0  0  0  0  0
   27.2922  -21.9382  -11.4251 O   0  0  0  0  0  0  0  0  0  0  0  0
   28.8484  -20.5023  -10.5160 N   0  0  0  0  0  0  0  0  0  0  0  0
   28.2822  -20.7128   -9.1780 C   0  0  1  0  0  0  0  0  0  0  0  0
   29.2684  -20.2796   -8.1651 C   0  0  0  0  0  0  0  0  0  0  0  0
   28.8656  -20.2192   -6.7818 C   0  0  0  0  0  0  0  0  0  0  0  0
   28.2554  -19.0922   -6.2762 C   0  0  0  0  0  0  0  0  0  0  0  0
   27.8578  -19.0072   -4.9471 C   0  0  0  0  0  0  0  0  0  0  0  0
   28.0677  -20.0678   -4.0850 C   0  0  0  0  0  0  0  0  0  0  0  0
   28.6726  -21.1980   -4.5661 C   0  0  0  0  0  0  0  0  0  0  0  0
   29.0632  -21.2648   -5.8972 C   0  0  0  0  0  0  0  0  0  0  0  0
   26.9177  -20.2245   -9.0967 C   0  0  0  0  0  0  0  0  0  0  0  0
   26.6357  -19.1636   -9.7689 O   0  0  0  0  0  0  0  0  0  0  0  0
   20.3608  -22.2599  -13.3756 N   0  0  0  0  0  0  0  0  0  0  0  0
   20.1887  -20.8739  -13.0876 C   0  0  0  0  0  0  0  0  0  0  0  0
   19.1690  -20.2257  -13.5061 N   0  0  0  0  0  0  0  0  0  0  0  0
   21.1785  -20.2070  -12.3170 N   0  0  0  0  0  0  0  0  0  0  0  0
   22.3892  -20.8511  -11.8670 C   0  0  0  0  0  0  0  0  0  0  0  0
   22.7011  -20.3691  -10.4452 C   0  0  0  0  0  0  0  0  0  0  0  0
   24.0993  -20.7701  -10.0802 C   0  0  0  0  0  0  0  0  0  0  0  0
   24.4299  -20.3565   -8.6866 C   0  0  2  0  0  0  0  0  0  0  0  0
   25.8290  -20.7615   -8.3751 N   0  0  0  0  0  0  0  0  0  0  0  0
   23.5102  -20.9335   -7.6965 C   0  0  0  0  0  0  0  0  0  0  0  0
   23.7478  -22.0864   -7.2293 O   0  0  0  0  0  0  0  0  0  0  0  0
   22.3848  -20.2918   -7.2297 O   0  0  0  0  0  0  0  0  0  0  0  0
  2  1  1  0
  3  2  1  0
  3  5  1  0
  3  4  1  6
  5  6  2  0
  7  5  1  0
  7  8  1  0
  8  9  1  1
 10  9  1  0
 11 10  2  0
 12 11  1  0
 13 14  1  0
 13 12  2  0
 14 15  2  0
 15 10  1  0
 16  8  1  0
 16 17  2  0
 19 21  1  0
 19 18  1  0
 20 19  2  0
 22 23  1  0
 22 21  1  0
 23 24  1  0
 25 24  1  6
 25 26  1  0
 25 27  1  0
 26 16  1  0
 27 29  1  0
 28 27  2  0
M  END
$$$$
