SFR.pdb
     RDKit          3D

 29 29  0  0  1  0  0  0  0  0999 V2000
   28.0356  -11.2045  -17.2826 O   0  0  0  0  0  0  0  0  0  0  0  0
   28.6296  -11.9088  -16.2416 C   0  0  0  0  0  0  0  0  0  0  0  0
   28.7597  -13.3372  -16.6629 C   0  0  2  0  0  0  0  0  0  0  0  0
   29.6024  -13.4612  -17.8367 N   0  0  0  0  0  0  0  0  0  0  0  0
   27.4338  -13.9915  -16.9019 C   0  0  0  0  0  0  0  0  0  0  0  0
   27.0245  -14.2626  -18.0573 O   0  0  0  0  0  0  0  0  0  0  0  0
   26.6110  -14.3166  -15.7910 N   0  0  0  0  0  0  0  0  0  0  0  0
   25.3538  -15.0386  -16.0224 C   0  0  1  0  0  0  0  0  0  0  0  0
   25.0982  -15.9379  -14.8770 C   0  0  0  0  0  0  0  0  0  0  0  0
   23.8685  -16.6904  -14.8429 C   0  0  0  0  0  0  0  0  0  0  0  0
   22.7683  -16.2085  -14.1681 C   0  0  0  0  0  0  0  0  0  0  0  0
   21.5713  -16.9133  -14.1188 C   0  0  0  0  0  0  0  0  0  0  0  0
   21.4523  -18.1351  -14.7556 C   0  0  0  0  0  0  0  0  0  0  0  0
   22.5333  -18.6332  -15.4324 C   0  0  0  0  0  0  0  0  0  0  0  0
   23.7213  -17.9148  -15.4707 C   0  0  0  0  0  0  0  0  0  0  0  0
   24.3034  -14.1435  -16.4724 C   0  0  0  0  0  0  0  0  0  0  0  0
   24.1455  -13.0495  -15.8128 O   0  0  0  0  0  0  0  0  0  0  0  0
   19.9427  -11.4701  -23.7657 N   0  0  0  0  0  0  0  0  0  0  0  0
   19.3556  -10.7922  -22.6569 C   0  0  0  0  0  0  0  0  0  0  0  0
   18.5035   -9.8532  -22.8222 N   0  0  0  0  0  0  0  0  0  0  0  0
   19.7326  -11.1766  -21.3422 N   0  0  0  0  0  0  0  0  0  0  0  0
   20.7461  -12.1687  -21.0743 C   0  0  0  0  0  0  0  0  0  0  0  0
   20.9459  -12.2675  -19.5572 C   0  0  0  0  0  0  0  0  0  0  0  0
   22.0429  -13.2469  -19.2633 C   0  0  0  0  0  0  0  0  0  0  0  0
   22.3210  -13.3184  -17.8005 C   0  0  2  0  0  0  0  0  0  0  0  0
   23.4138  -14.3010  -17.5578 N   0  0  0  0  0  0  0  0  0  0  0  0
   21.1324  -13.6899  -17.0205 C   0  0  0  0  0  0  0  0  0  0  0  0
   20.6295  -12.8474  -16.2198 O   0  0  0  0  0  0  0  0  0  0  0  0
   20.5129  -14.9169  -17.1041 O   0  0  0  0  0  0  0  0  0  0  0  0
  2  1  1  0
  3  2  1  0
  3  5  1  0
  3  4  1  6
  5  6  2  0
  7  5  1  0
  7  8  1  0
  8  9  1  1
 10  9  1  0
 11 10  2  0
 12 11  1  0
 13 14  1  0
 13 12  2  0
 14 15  2  0
 15 10  1  0
 16  8  1  0
 16 17  2  0
 19 21  1  0
 19 18  1  0
 20 19  2  0
 22 23  1  0
 22 21  1  0
 23 24  1  0
 25 24  1  6
 25 26  1  0
 25 27  1  0
 26 16  1  0
 27 29  1  0
 28 27  2  0
M  END
$$$$
