SFR.pdb
     RDKit          3D

 29 29  0  0  1  0  0  0  0  0999 V2000
   40.7716  -10.1447  -12.7917 O   0  0  0  0  0  0  0  0  0  0  0  0
   40.6796   -9.3120  -11.6824 C   0  0  0  0  0  0  0  0  0  0  0  0
   39.5443   -8.3655  -11.9060 C   0  0  2  0  0  0  0  0  0  0  0  0
   39.7258   -7.6117  -13.1316 N   0  0  0  0  0  0  0  0  0  0  0  0
   39.3304   -7.4374  -10.7502 C   0  0  0  0  0  0  0  0  0  0  0  0
   40.0099   -6.3923  -10.6018 O   0  0  0  0  0  0  0  0  0  0  0  0
   38.3300   -7.7448   -9.7902 N   0  0  0  0  0  0  0  0  0  0  0  0
   38.2080   -6.9032   -8.5935 C   0  0  1  0  0  0  0  0  0  0  0  0
   36.9068   -7.1742   -7.9459 C   0  0  0  0  0  0  0  0  0  0  0  0
   36.5752   -6.4751   -6.7290 C   0  0  0  0  0  0  0  0  0  0  0  0
   36.4351   -5.1046   -6.7218 C   0  0  0  0  0  0  0  0  0  0  0  0
   36.1166   -4.4059   -5.5632 C   0  0  0  0  0  0  0  0  0  0  0  0
   35.9294   -5.0789   -4.3698 C   0  0  0  0  0  0  0  0  0  0  0  0
   36.0638   -6.4413   -4.3537 C   0  0  0  0  0  0  0  0  0  0  0  0
   36.3825   -7.1226   -5.5213 C   0  0  0  0  0  0  0  0  0  0  0  0
   39.4203   -6.9367   -7.7958 C   0  0  0  0  0  0  0  0  0  0  0  0
   39.9158   -8.0955   -7.5340 O   0  0  0  0  0  0  0  0  0  0  0  0
   44.4451   -9.2649   -4.3883 N   0  0  0  0  0  0  0  0  0  0  0  0
   44.5630  -10.1787   -5.4766 C   0  0  0  0  0  0  0  0  0  0  0  0
   44.8097  -11.4187   -5.2848 N   0  0  0  0  0  0  0  0  0  0  0  0
   44.4009   -9.6904   -6.8008 N   0  0  0  0  0  0  0  0  0  0  0  0
   44.1325   -8.3040   -7.0992 C   0  0  0  0  0  0  0  0  0  0  0  0
   42.8155   -7.9036   -6.4237 C   0  0  0  0  0  0  0  0  0  0  0  0
   42.4548   -6.5052   -6.8280 C   0  0  0  0  0  0  0  0  0  0  0  0
   41.1743   -6.0771   -6.1961 C   0  0  2  0  0  0  0  0  0  0  0  0
   40.1543   -5.8563   -7.2588 N   0  0  0  0  0  0  0  0  0  0  0  0
   41.3264   -4.8590   -5.3884 C   0  0  0  0  0  0  0  0  0  0  0  0
   41.9938   -4.9088   -4.3132 O   0  0  0  0  0  0  0  0  0  0  0  0
   40.7835   -3.6402   -5.7290 O   0  0  0  0  0  0  0  0  0  0  0  0
  2  1  1  0
  3  2  1  0
  3  5  1  0
  3  4  1  6
  5  6  2  0
  7  5  1  0
  7  8  1  0
  8  9  1  1
 10  9  1  0
 11 10  2  0
 12 11  1  0
 13 14  1  0
 13 12  2  0
 14 15  2  0
 15 10  1  0
 16  8  1  0
 16 17  2  0
 19 21  1  0
 19 18  1  0
 20 19  2  0
 22 23  1  0
 22 21  1  0
 23 24  1  0
 25 24  1  6
 25 26  1  0
 25 27  1  0
 26 16  1  0
 27 29  1  0
 28 27  2  0
M  END
$$$$
