SFR.pdb
     RDKit          3D

 29 29  0  0  1  0  0  0  0  0999 V2000
   29.5337  -20.5179  -12.1023 O   0  0  0  0  0  0  0  0  0  0  0  0
   30.5778  -20.2273  -11.2318 C   0  0  0  0  0  0  0  0  0  0  0  0
   30.3941  -21.0493   -9.9967 C   0  0  2  0  0  0  0  0  0  0  0  0
   30.9736  -22.3692  -10.1562 N   0  0  0  0  0  0  0  0  0  0  0  0
   28.9586  -21.1571   -9.5833 C   0  0  0  0  0  0  0  0  0  0  0  0
   28.3326  -22.2441   -9.6308 O   0  0  0  0  0  0  0  0  0  0  0  0
   28.2808  -19.9970   -9.1234 N   0  0  0  0  0  0  0  0  0  0  0  0
   26.9180  -20.1306   -8.5941 C   0  0  1  0  0  0  0  0  0  0  0  0
   26.7365  -19.1694   -7.4855 C   0  0  0  0  0  0  0  0  0  0  0  0
   27.4895  -19.3574   -6.2701 C   0  0  0  0  0  0  0  0  0  0  0  0
   28.3167  -18.3633   -5.7951 C   0  0  0  0  0  0  0  0  0  0  0  0
   29.0539  -18.5183   -4.6271 C   0  0  0  0  0  0  0  0  0  0  0  0
   28.9748  -19.6924   -3.9007 C   0  0  0  0  0  0  0  0  0  0  0  0
   28.1588  -20.6938   -4.3542 C   0  0  0  0  0  0  0  0  0  0  0  0
   27.4296  -20.5210   -5.5236 C   0  0  0  0  0  0  0  0  0  0  0  0
   25.9364  -20.1780   -9.6625 C   0  0  0  0  0  0  0  0  0  0  0  0
   25.3283  -19.0796   -9.9465 O   0  0  0  0  0  0  0  0  0  0  0  0
   24.4597  -25.7464  -14.7072 N   0  0  0  0  0  0  0  0  0  0  0  0
   23.9042  -24.5636  -15.2780 C   0  0  0  0  0  0  0  0  0  0  0  0
   22.7690  -24.5746  -15.8664 N   0  0  0  0  0  0  0  0  0  0  0  0
   24.6367  -23.3499  -15.1853 N   0  0  0  0  0  0  0  0  0  0  0  0
   25.8359  -23.2148  -14.3935 C   0  0  0  0  0  0  0  0  0  0  0  0
   25.6833  -21.9944  -13.4778 C   0  0  0  0  0  0  0  0  0  0  0  0
   24.6067  -22.2620  -12.4686 C   0  0  0  0  0  0  0  0  0  0  0  0
   24.4908  -21.1379  -11.4964 C   0  0  2  0  0  0  0  0  0  0  0  0
   25.5483  -21.2790  -10.4571 N   0  0  0  0  0  0  0  0  0  0  0  0
   23.1680  -21.0808  -10.8591 C   0  0  0  0  0  0  0  0  0  0  0  0
   22.1488  -20.8358  -11.5698 O   0  0  0  0  0  0  0  0  0  0  0  0
   22.9557  -21.2823   -9.5135 O   0  0  0  0  0  0  0  0  0  0  0  0
  2  1  1  0
  3  2  1  0
  3  5  1  0
  3  4  1  6
  5  6  2  0
  7  5  1  0
  7  8  1  0
  8  9  1  1
 10  9  1  0
 11 10  2  0
 12 11  1  0
 13 14  1  0
 13 12  2  0
 14 15  2  0
 15 10  1  0
 16  8  1  0
 16 17  2  0
 19 21  1  0
 19 18  1  0
 20 19  2  0
 22 23  1  0
 22 21  1  0
 23 24  1  0
 25 24  1  6
 25 26  1  0
 25 27  1  0
 26 16  1  0
 27 29  1  0
 28 27  2  0
M  END
$$$$
