SFR.pdb
     RDKit          3D

 29 29  0  0  1  0  0  0  0  0999 V2000
   25.6233  -20.5711  -17.3017 O   0  0  0  0  0  0  0  0  0  0  0  0
   26.9560  -20.2151  -17.1292 C   0  0  0  0  0  0  0  0  0  0  0  0
   27.6441  -21.3296  -16.4088 C   0  0  2  0  0  0  0  0  0  0  0  0
   27.6570  -22.5396  -17.2083 N   0  0  0  0  0  0  0  0  0  0  0  0
   27.0479  -21.6014  -15.0621 C   0  0  0  0  0  0  0  0  0  0  0  0
   26.3532  -22.6222  -14.8359 O   0  0  0  0  0  0  0  0  0  0  0  0
   27.2720  -20.6789  -14.0058 N   0  0  0  0  0  0  0  0  0  0  0  0
   26.6958  -20.9550  -12.6841 C   0  0  1  0  0  0  0  0  0  0  0  0
   27.4961  -20.2568  -11.6554 C   0  0  0  0  0  0  0  0  0  0  0  0
   27.0635  -20.3109  -10.2809 C   0  0  0  0  0  0  0  0  0  0  0  0
   26.0192  -19.5270   -9.8414 C   0  0  0  0  0  0  0  0  0  0  0  0
   25.5826  -19.5591   -8.5223 C   0  0  0  0  0  0  0  0  0  0  0  0
   26.1946  -20.3913   -7.6030 C   0  0  0  0  0  0  0  0  0  0  0  0
   27.2347  -21.1792   -8.0178 C   0  0  0  0  0  0  0  0  0  0  0  0
   27.6574  -21.1337   -9.3400 C   0  0  0  0  0  0  0  0  0  0  0  0
   25.2528  -20.7972  -12.6912 C   0  0  0  0  0  0  0  0  0  0  0  0
   24.7780  -19.7928  -13.3412 O   0  0  0  0  0  0  0  0  0  0  0  0
   17.0492  -22.3627  -11.0999 N   0  0  0  0  0  0  0  0  0  0  0  0
   17.4093  -23.1410  -12.2392 C   0  0  0  0  0  0  0  0  0  0  0  0
   16.5668  -23.3998  -13.1656 N   0  0  0  0  0  0  0  0  0  0  0  0
   18.7374  -23.6357  -12.3380 N   0  0  0  0  0  0  0  0  0  0  0  0
   19.7531  -23.3616  -11.3497 C   0  0  0  0  0  0  0  0  0  0  0  0
   20.5483  -22.1281  -11.7937 C   0  0  0  0  0  0  0  0  0  0  0  0
   22.0142  -22.4429  -11.7582 C   0  0  0  0  0  0  0  0  0  0  0  0
   22.8268  -21.2629  -12.1700 C   0  0  2  0  0  0  0  0  0  0  0  0
   24.2727  -21.6088  -12.0789 N   0  0  0  0  0  0  0  0  0  0  0  0
   22.5447  -20.0743  -11.3533 C   0  0  0  0  0  0  0  0  0  0  0  0
   23.2227  -19.8698  -10.3033 O   0  0  0  0  0  0  0  0  0  0  0  0
   21.5745  -19.1462  -11.6592 O   0  0  0  0  0  0  0  0  0  0  0  0
  2  1  1  0
  3  2  1  0
  3  5  1  0
  3  4  1  6
  5  6  2  0
  7  5  1  0
  7  8  1  0
  8  9  1  1
 10  9  1  0
 11 10  2  0
 12 11  1  0
 13 14  1  0
 13 12  2  0
 14 15  2  0
 15 10  1  0
 16  8  1  0
 16 17  2  0
 19 21  1  0
 19 18  1  0
 20 19  2  0
 22 23  1  0
 22 21  1  0
 23 24  1  0
 25 24  1  1
 25 26  1  0
 25 27  1  0
 26 16  1  0
 27 29  1  0
 28 27  2  0
M  END
$$$$
