SFR.pdb
     RDKit          3D

 29 29  0  0  1  0  0  0  0  0999 V2000
   23.9237  -25.0904  -16.9114 O   0  0  0  0  0  0  0  0  0  0  0  0
   24.1997  -23.8105  -17.3783 C   0  0  0  0  0  0  0  0  0  0  0  0
   25.0512  -23.1199  -16.3621 C   0  0  2  0  0  0  0  0  0  0  0  0
   26.2621  -23.8725  -16.0962 N   0  0  0  0  0  0  0  0  0  0  0  0
   24.3179  -22.8448  -15.0855 C   0  0  0  0  0  0  0  0  0  0  0  0
   24.4997  -23.5340  -14.0522 O   0  0  0  0  0  0  0  0  0  0  0  0
   23.3873  -21.7730  -15.0378 N   0  0  0  0  0  0  0  0  0  0  0  0
   22.6481  -21.5259  -13.7937 C   0  0  1  0  0  0  0  0  0  0  0  0
   22.4714  -20.0681  -13.6212 C   0  0  0  0  0  0  0  0  0  0  0  0
   21.7480  -19.5854  -12.4709 C   0  0  0  0  0  0  0  0  0  0  0  0
   22.2588  -19.7455  -11.2015 C   0  0  0  0  0  0  0  0  0  0  0  0
   21.5824  -19.2904  -10.0758 C   0  0  0  0  0  0  0  0  0  0  0  0
   20.3605  -18.6554  -10.2031 C   0  0  0  0  0  0  0  0  0  0  0  0
   19.8339  -18.4855  -11.4554 C   0  0  0  0  0  0  0  0  0  0  0  0
   20.5241  -18.9469  -12.5688 C   0  0  0  0  0  0  0  0  0  0  0  0
   21.4955  -22.4008  -13.6789 C   0  0  0  0  0  0  0  0  0  0  0  0
   20.9096  -22.7419  -14.7731 O   0  0  0  0  0  0  0  0  0  0  0  0
   19.6496  -28.5443  -10.4736 N   0  0  0  0  0  0  0  0  0  0  0  0
   18.2461  -28.5179  -10.2228 C   0  0  0  0  0  0  0  0  0  0  0  0
   17.5394  -29.5828  -10.2640 N   0  0  0  0  0  0  0  0  0  0  0  0
   17.6281  -27.2749   -9.9207 N   0  0  0  0  0  0  0  0  0  0  0  0
   18.3589  -26.0325   -9.8446 C   0  0  0  0  0  0  0  0  0  0  0  0
   18.6680  -25.5579  -11.2694 C   0  0  0  0  0  0  0  0  0  0  0  0
   19.2805  -24.1900  -11.2155 C   0  0  0  0  0  0  0  0  0  0  0  0
   19.6345  -23.7062  -12.5804 C   0  0  2  0  0  0  0  0  0  0  0  0
   20.9153  -22.9487  -12.5139 N   0  0  0  0  0  0  0  0  0  0  0  0
   18.5844  -22.8621  -13.1668 C   0  0  0  0  0  0  0  0  0  0  0  0
   18.3729  -21.7113  -12.6822 O   0  0  0  0  0  0  0  0  0  0  0  0
   17.7993  -23.2437  -14.2318 O   0  0  0  0  0  0  0  0  0  0  0  0
  2  1  1  0
  3  2  1  0
  3  5  1  0
  3  4  1  1
  5  6  2  0
  7  5  1  0
  7  8  1  0
  8  9  1  6
 10  9  1  0
 11 10  2  0
 12 11  1  0
 13 14  1  0
 13 12  2  0
 14 15  2  0
 15 10  1  0
 16  8  1  0
 16 17  2  0
 19 21  1  0
 19 18  1  0
 20 19  2  0
 22 23  1  0
 22 21  1  0
 23 24  1  0
 25 24  1  1
 25 26  1  0
 25 27  1  0
 26 16  1  0
 27 29  1  0
 28 27  2  0
M  END
$$$$
