SFR.pdb
     RDKit          3D

 29 29  0  0  1  0  0  0  0  0999 V2000
   16.5857  -23.3750  -10.3437 O   0  0  0  0  0  0  0  0  0  0  0  0
   16.5718  -23.9781   -9.0913 C   0  0  0  0  0  0  0  0  0  0  0  0
   17.9848  -24.2752   -8.7040 C   0  0  2  0  0  0  0  0  0  0  0  0
   18.7753  -24.6526   -9.8598 N   0  0  0  0  0  0  0  0  0  0  0  0
   18.0831  -25.3249   -7.6403 C   0  0  0  0  0  0  0  0  0  0  0  0
   18.6766  -26.4141   -7.8335 O   0  0  0  0  0  0  0  0  0  0  0  0
   17.4882  -25.0856   -6.3731 N   0  0  0  0  0  0  0  0  0  0  0  0
   17.7217  -26.0420   -5.2841 C   0  0  1  0  0  0  0  0  0  0  0  0
   17.9954  -25.2943   -4.0382 C   0  0  0  0  0  0  0  0  0  0  0  0
   18.1307  -26.0252   -2.8025 C   0  0  0  0  0  0  0  0  0  0  0  0
   19.2811  -26.7310   -2.5258 C   0  0  0  0  0  0  0  0  0  0  0  0
   19.4375  -27.4442   -1.3432 C   0  0  0  0  0  0  0  0  0  0  0  0
   18.4268  -27.4640   -0.3995 C   0  0  0  0  0  0  0  0  0  0  0  0
   17.2746  -26.7696   -0.6536 C   0  0  0  0  0  0  0  0  0  0  0  0
   17.1362  -26.0626   -1.8410 C   0  0  0  0  0  0  0  0  0  0  0  0
   16.7206  -27.0931   -5.2776 C   0  0  0  0  0  0  0  0  0  0  0  0
   15.4939  -26.7327   -5.4264 O   0  0  0  0  0  0  0  0  0  0  0  0
   18.5299  -32.4688   -7.2890 N   0  0  0  0  0  0  0  0  0  0  0  0
   18.3758  -31.9499   -8.6082 C   0  0  0  0  0  0  0  0  0  0  0  0
   19.2739  -32.1196   -9.5025 N   0  0  0  0  0  0  0  0  0  0  0  0
   17.1936  -31.2293   -8.9265 N   0  0  0  0  0  0  0  0  0  0  0  0
   15.9441  -31.4236   -8.2304 C   0  0  0  0  0  0  0  0  0  0  0  0
   15.6857  -30.2038   -7.3381 C   0  0  0  0  0  0  0  0  0  0  0  0
   15.9328  -30.5745   -5.9061 C   0  0  0  0  0  0  0  0  0  0  0  0
   15.7362  -29.4021   -5.0065 C   0  0  2  0  0  0  0  0  0  0  0  0
   16.9036  -28.4861   -5.1345 N   0  0  0  0  0  0  0  0  0  0  0  0
   15.5612  -29.7956   -3.6015 C   0  0  0  0  0  0  0  0  0  0  0  0
   16.5676  -29.8096   -2.8329 O   0  0  0  0  0  0  0  0  0  0  0  0
   14.3514  -30.1554   -3.0509 O   0  0  0  0  0  0  0  0  0  0  0  0
  2  1  1  0
  3  2  1  0
  3  5  1  0
  3  4  1  6
  5  6  2  0
  7  5  1  0
  7  8  1  0
  8  9  1  1
 10  9  1  0
 11 10  2  0
 12 11  1  0
 13 14  1  0
 13 12  2  0
 14 15  2  0
 15 10  1  0
 16  8  1  0
 16 17  2  0
 19 21  1  0
 19 18  1  0
 20 19  2  0
 22 23  1  0
 22 21  1  0
 23 24  1  0
 25 24  1  6
 25 26  1  0
 25 27  1  0
 26 16  1  0
 27 29  1  0
 28 27  2  0
M  END
$$$$
