AVF.pdb
     RDKit          3D

 24 24  0  0  1  0  0  0  0  0999 V2000
   19.2445  -13.3942  -14.7804 C   0  0  0  0  0  0  0  0  0  0  0  0
   18.8265  -13.0938  -16.1900 C   0  0  2  0  0  0  0  0  0  0  0  0
   19.1881  -14.1428  -17.1014 N   0  0  0  0  0  0  0  0  0  0  0  0
   19.3072  -11.7611  -16.6460 C   0  0  0  0  0  0  0  0  0  0  0  0
   20.4550  -11.6224  -17.1035 O   0  0  0  0  0  0  0  0  0  0  0  0
   17.8319   -7.7822  -18.8991 C   0  0  0  0  0  0  0  0  0  0  0  0
   17.6772   -9.0335  -18.1007 C   0  0  2  0  0  0  0  0  0  0  0  0
   16.3464   -9.0474  -17.3431 C   0  0  0  0  0  0  0  0  0  0  0  0
   18.7652   -9.3381  -17.1297 C   0  0  2  0  0  0  0  0  0  0  0  0
   18.4442  -10.6518  -16.5537 N   0  0  0  0  0  0  0  0  0  0  0  0
   18.9421   -8.3382  -16.0521 C   0  0  0  0  0  0  0  0  0  0  0  0
   18.1669   -8.4058  -15.0308 O   0  0  0  0  0  0  0  0  0  0  0  0
   19.9098   -7.3112  -16.0668 N   0  0  0  0  0  0  0  0  0  0  0  0
   20.0280   -6.3323  -14.9883 C   0  0  1  0  0  0  0  0  0  0  0  0
   21.4465   -6.4057  -14.5149 C   0  0  0  0  0  0  0  0  0  0  0  0
   21.8006   -7.6420  -13.7911 C   0  0  0  0  0  0  0  0  0  0  0  0
   22.6172   -8.6082  -14.3362 C   0  0  0  0  0  0  0  0  0  0  0  0
   22.9498   -9.7717  -13.6336 C   0  0  0  0  0  0  0  0  0  0  0  0
   22.4680   -9.9938  -12.3613 C   0  0  0  0  0  0  0  0  0  0  0  0
   21.6504   -9.0257  -11.8172 C   0  0  0  0  0  0  0  0  0  0  0  0
   21.3214   -7.8782  -12.5078 C   0  0  0  0  0  0  0  0  0  0  0  0
   19.7619   -4.9971  -15.5485 C   0  0  0  0  0  0  0  0  0  0  0  0
   19.6048   -3.9062  -14.7166 O   0  0  0  0  0  0  0  0  0  0  0  0
   19.6737   -4.8285  -16.7835 O   0  0  0  0  0  0  0  0  0  0  0  0
  2  1  1  1
  2  4  1  0
  3  2  1  0
  4 10  1  0
  4  5  2  0
  7  6  1  1
  7  8  1  0
  9 11  1  0
  9  7  1  0
  9 10  1  1
 11 12  2  0
 13 14  1  0
 13 11  1  0
 14 15  1  6
 15 16  1  0
 16 21  2  0
 17 18  2  0
 17 16  1  0
 18 19  1  0
 19 20  2  0
 21 20  1  0
 22 14  1  0
 23 22  1  0
 24 22  2  0
M  END
$$$$
