AVF.pdb
     RDKit          3D

 24 24  0  0  1  0  0  0  0  0999 V2000
   19.0707   -7.7517  -19.4783 C   0  0  0  0  0  0  0  0  0  0  0  0
   19.2529   -8.9550  -18.6002 C   0  0  2  0  0  0  0  0  0  0  0  0
   18.1283   -9.8460  -18.6558 N   0  0  0  0  0  0  0  0  0  0  0  0
   19.6076   -8.5822  -17.2037 C   0  0  0  0  0  0  0  0  0  0  0  0
   18.7388   -8.1667  -16.4172 O   0  0  0  0  0  0  0  0  0  0  0  0
   22.8492   -9.3720  -13.6103 C   0  0  0  0  0  0  0  0  0  0  0  0
   22.2017   -9.5198  -14.9468 C   0  0  2  0  0  0  0  0  0  0  0  0
   23.2332   -9.8484  -16.0299 C   0  0  0  0  0  0  0  0  0  0  0  0
   21.3871   -8.3653  -15.4191 C   0  0  2  0  0  0  0  0  0  0  0  0
   20.9448   -8.7053  -16.7790 N   0  0  0  0  0  0  0  0  0  0  0  0
   22.0893   -7.0618  -15.4220 C   0  0  0  0  0  0  0  0  0  0  0  0
   23.0940   -6.9176  -16.2083 O   0  0  0  0  0  0  0  0  0  0  0  0
   21.7289   -5.9589  -14.6187 N   0  0  0  0  0  0  0  0  0  0  0  0
   22.4125   -4.6704  -14.7070 C   0  0  1  0  0  0  0  0  0  0  0  0
   22.1636   -4.1628  -16.0934 C   0  0  0  0  0  0  0  0  0  0  0  0
   20.8343   -3.5594  -16.3088 C   0  0  0  0  0  0  0  0  0  0  0  0
   19.7203   -4.3138  -16.6043 C   0  0  0  0  0  0  0  0  0  0  0  0
   18.4650   -3.7267  -16.7981 C   0  0  0  0  0  0  0  0  0  0  0  0
   18.2976   -2.3621  -16.6996 C   0  0  0  0  0  0  0  0  0  0  0  0
   19.4139   -1.6082  -16.4040 C   0  0  0  0  0  0  0  0  0  0  0  0
   20.6520   -2.1847  -16.2125 C   0  0  0  0  0  0  0  0  0  0  0  0
   21.7995   -3.7572  -13.7284 C   0  0  0  0  0  0  0  0  0  0  0  0
   20.7451   -4.1774  -12.9418 O   0  0  0  0  0  0  0  0  0  0  0  0
   22.2216   -2.5889  -13.5932 O   0  0  0  0  0  0  0  0  0  0  0  0
  2  1  1  6
  2  4  1  0
  3  2  1  0
  4 10  1  0
  4  5  2  0
  7  6  1  1
  7  8  1  0
  9 11  1  0
  9  7  1  0
  9 10  1  6
 11 12  2  0
 13 14  1  0
 13 11  1  0
 14 15  1  6
 15 16  1  0
 16 21  2  0
 17 18  2  0
 17 16  1  0
 18 19  1  0
 19 20  2  0
 21 20  1  0
 22 14  1  0
 23 22  1  0
 24 22  2  0
M  END
$$$$
