AVF.pdb
     RDKit          3D

 24 24  0  0  1  0  0  0  0  0999 V2000
   13.3845  -14.0944    6.1976 C   0  0  0  0  0  0  0  0  0  0  0  0
   14.2969  -13.4216    5.2142 C   0  0  2  0  0  0  0  0  0  0  0  0
   13.6301  -13.0987    3.9842 N   0  0  0  0  0  0  0  0  0  0  0  0
   15.5486  -14.1948    4.9901 C   0  0  0  0  0  0  0  0  0  0  0  0
   15.5611  -15.1755    4.2258 O   0  0  0  0  0  0  0  0  0  0  0  0
   19.0352  -12.8721    7.1377 C   0  0  0  0  0  0  0  0  0  0  0  0
   19.0546  -13.3889    5.7378 C   0  0  2  0  0  0  0  0  0  0  0  0
   18.9324  -12.2481    4.7234 C   0  0  0  0  0  0  0  0  0  0  0  0
   18.0348  -14.4205    5.3986 C   0  0  2  0  0  0  0  0  0  0  0  0
   16.7260  -13.8028    5.6562 N   0  0  0  0  0  0  0  0  0  0  0  0
   18.1552  -15.6916    6.1481 C   0  0  0  0  0  0  0  0  0  0  0  0
   17.5484  -15.7892    7.2754 O   0  0  0  0  0  0  0  0  0  0  0  0
   18.8923  -16.8116    5.7077 N   0  0  0  0  0  0  0  0  0  0  0  0
   18.9896  -18.0413    6.4911 C   0  0  1  0  0  0  0  0  0  0  0  0
   19.4500  -19.1031    5.5412 C   0  0  0  0  0  0  0  0  0  0  0  0
   19.6810  -20.4278    6.1489 C   0  0  0  0  0  0  0  0  0  0  0  0
   20.9234  -21.0223    6.1729 C   0  0  0  0  0  0  0  0  0  0  0  0
   21.1274  -22.2760    6.7602 C   0  0  0  0  0  0  0  0  0  0  0  0
   20.0840  -22.9657    7.3396 C   0  0  0  0  0  0  0  0  0  0  0  0
   18.8409  -22.3693    7.3144 C   0  0  0  0  0  0  0  0  0  0  0  0
   18.6376  -21.1338    6.7364 C   0  0  0  0  0  0  0  0  0  0  0  0
   20.0050  -17.8399    7.5379 C   0  0  0  0  0  0  0  0  0  0  0  0
   21.1207  -17.0641    7.2926 O   0  0  0  0  0  0  0  0  0  0  0  0
   19.8751  -18.3665    8.6636 O   0  0  0  0  0  0  0  0  0  0  0  0
  2  1  1  1
  2  4  1  0
  3  2  1  0
  4 10  1  0
  4  5  2  0
  7  6  1  1
  7  8  1  0
  9 11  1  0
  9  7  1  0
  9 10  1  1
 11 12  2  0
 13 14  1  0
 13 11  1  0
 14 15  1  6
 15 16  1  0
 16 21  2  0
 17 18  2  0
 17 16  1  0
 18 19  1  0
 19 20  2  0
 21 20  1  0
 22 14  1  0
 23 22  1  0
 24 22  2  0
M  END
$$$$
