AVF.pdb
     RDKit          3D

 24 24  0  0  1  0  0  0  0  0999 V2000
   18.4395  -10.3465  -18.5323 C   0  0  0  0  0  0  0  0  0  0  0  0
   19.3219  -11.4025  -17.9337 C   0  0  2  0  0  0  0  0  0  0  0  0
   18.6982  -12.6959  -17.9289 N   0  0  0  0  0  0  0  0  0  0  0  0
   19.8266  -11.0157  -16.5881 C   0  0  0  0  0  0  0  0  0  0  0  0
   19.0899  -11.0867  -15.5890 O   0  0  0  0  0  0  0  0  0  0  0  0
   24.0576  -10.7918  -15.9093 C   0  0  0  0  0  0  0  0  0  0  0  0
   22.9316  -10.9648  -14.9454 C   0  0  2  0  0  0  0  0  0  0  0  0
   22.4818  -12.4269  -14.8741 C   0  0  0  0  0  0  0  0  0  0  0  0
   21.7260  -10.1210  -15.1772 C   0  0  2  0  0  0  0  0  0  0  0  0
   21.1547  -10.5656  -16.4565 N   0  0  0  0  0  0  0  0  0  0  0  0
   21.9783   -8.6624  -15.2108 C   0  0  0  0  0  0  0  0  0  0  0  0
   22.3105   -8.1315  -16.3317 O   0  0  0  0  0  0  0  0  0  0  0  0
   21.8768   -7.8085  -14.0919 N   0  0  0  0  0  0  0  0  0  0  0  0
   22.0557   -6.3617  -14.1932 C   0  0  1  0  0  0  0  0  0  0  0  0
   20.9396   -5.8652  -15.0589 C   0  0  0  0  0  0  0  0  0  0  0  0
   20.9208   -4.4061  -15.2787 C   0  0  0  0  0  0  0  0  0  0  0  0
   21.9932   -3.7263  -15.8128 C   0  0  0  0  0  0  0  0  0  0  0  0
   21.9566   -2.3432  -16.0221 C   0  0  0  0  0  0  0  0  0  0  0  0
   20.8374   -1.6065  -15.6984 C   0  0  0  0  0  0  0  0  0  0  0  0
   19.7648   -2.2885  -15.1636 C   0  0  0  0  0  0  0  0  0  0  0  0
   19.7987   -3.6516  -14.9566 C   0  0  0  0  0  0  0  0  0  0  0  0
   21.9281   -5.7874  -12.8437 C   0  0  0  0  0  0  0  0  0  0  0  0
   21.1916   -6.4362  -11.8723 O   0  0  0  0  0  0  0  0  0  0  0  0
   22.4826   -4.7055  -12.5548 O   0  0  0  0  0  0  0  0  0  0  0  0
  2  1  1  1
  2  4  1  0
  3  2  1  0
  4 10  1  0
  4  5  2  0
  7  6  1  6
  7  8  1  0
  9 11  1  0
  9  7  1  0
  9 10  1  6
 11 12  2  0
 13 14  1  0
 13 11  1  0
 14 15  1  6
 15 16  1  0
 16 21  2  0
 17 18  2  0
 17 16  1  0
 18 19  1  0
 19 20  2  0
 21 20  1  0
 22 14  1  0
 23 22  1  0
 24 22  2  0
M  END
$$$$
