AVF.pdb
     RDKit          3D

 24 24  0  0  1  0  0  0  0  0999 V2000
   26.1688   -7.9890  -20.7313 C   0  0  0  0  0  0  0  0  0  0  0  0
   26.5893   -9.2167  -19.9775 C   0  0  2  0  0  0  0  0  0  0  0  0
   26.9882  -10.2835  -20.8518 N   0  0  0  0  0  0  0  0  0  0  0  0
   25.5611   -9.6502  -18.9927 C   0  0  0  0  0  0  0  0  0  0  0  0
   24.4872  -10.1480  -19.3733 O   0  0  0  0  0  0  0  0  0  0  0  0
   26.8542  -10.3564  -15.0405 C   0  0  0  0  0  0  0  0  0  0  0  0
   25.6333  -10.8865  -15.7153 C   0  0  2  0  0  0  0  0  0  0  0  0
   25.9579  -12.1232  -16.5582 C   0  0  0  0  0  0  0  0  0  0  0  0
   24.8812   -9.9276  -16.5720 C   0  0  2  0  0  0  0  0  0  0  0  0
   25.8178   -9.4902  -17.6171 N   0  0  0  0  0  0  0  0  0  0  0  0
   24.3260   -8.7536  -15.8610 C   0  0  0  0  0  0  0  0  0  0  0  0
   25.1165   -7.7773  -15.5956 O   0  0  0  0  0  0  0  0  0  0  0  0
   22.9805   -8.6295  -15.4537 N   0  0  0  0  0  0  0  0  0  0  0  0
   22.4720   -7.4323  -14.7877 C   0  0  1  0  0  0  0  0  0  0  0  0
   22.6174   -6.3154  -15.7742 C   0  0  0  0  0  0  0  0  0  0  0  0
   21.9974   -5.0390  -15.3690 C   0  0  0  0  0  0  0  0  0  0  0  0
   20.8601   -4.5472  -15.9705 C   0  0  0  0  0  0  0  0  0  0  0  0
   20.2800   -3.3386  -15.5692 C   0  0  0  0  0  0  0  0  0  0  0  0
   20.8308   -2.5917  -14.5500 C   0  0  0  0  0  0  0  0  0  0  0  0
   21.9696   -3.0854  -13.9490 C   0  0  0  0  0  0  0  0  0  0  0  0
   22.5429   -4.2763  -14.3428 C   0  0  0  0  0  0  0  0  0  0  0  0
   21.0466   -7.6443  -14.4869 C   0  0  0  0  0  0  0  0  0  0  0  0
   20.4594   -7.0249  -13.4013 O   0  0  0  0  0  0  0  0  0  0  0  0
   20.3453   -8.3866  -15.2070 O   0  0  0  0  0  0  0  0  0  0  0  0
  2  1  1  6
  2  4  1  0
  3  2  1  0
  4 10  1  0
  4  5  2  0
  7  6  1  6
  7  8  1  0
  9 11  1  0
  9  7  1  0
  9 10  1  6
 11 12  2  0
 13 14  1  0
 13 11  1  0
 14 15  1  6
 15 16  1  0
 16 21  2  0
 17 18  2  0
 17 16  1  0
 18 19  1  0
 19 20  2  0
 21 20  1  0
 22 14  1  0
 23 22  1  0
 24 22  2  0
M  END
$$$$
