AVF.pdb
     RDKit          3D

 24 24  0  0  1  0  0  0  0  0999 V2000
   30.6512  -14.5269    9.5183 C   0  0  0  0  0  0  0  0  0  0  0  0
   31.6915  -14.5929   10.5979 C   0  0  2  0  0  0  0  0  0  0  0  0
   32.3728  -13.3416   10.7760 N   0  0  0  0  0  0  0  0  0  0  0  0
   32.6365  -15.7252   10.3981 C   0  0  0  0  0  0  0  0  0  0  0  0
   33.7173  -15.5538    9.8077 O   0  0  0  0  0  0  0  0  0  0  0  0
   35.0269  -19.0649   12.4309 C   0  0  0  0  0  0  0  0  0  0  0  0
   33.9770  -18.0318   12.1910 C   0  0  2  0  0  0  0  0  0  0  0  0
   32.9550  -18.0041   13.3312 C   0  0  0  0  0  0  0  0  0  0  0  0
   33.2322  -18.1309   10.9047 C   0  0  2  0  0  0  0  0  0  0  0  0
   32.2927  -17.0005   10.8872 N   0  0  0  0  0  0  0  0  0  0  0  0
   32.5033  -19.4030   10.6985 C   0  0  0  0  0  0  0  0  0  0  0  0
   31.3295  -19.5169   11.2061 O   0  0  0  0  0  0  0  0  0  0  0  0
   33.0093  -20.5054    9.9772 N   0  0  0  0  0  0  0  0  0  0  0  0
   32.2132  -21.7034    9.7191 C   0  0  1  0  0  0  0  0  0  0  0  0
   32.7001  -22.2518    8.4138 C   0  0  0  0  0  0  0  0  0  0  0  0
   32.2929  -21.4829    7.2220 C   0  0  0  0  0  0  0  0  0  0  0  0
   31.0280  -20.9563    7.0800 C   0  0  0  0  0  0  0  0  0  0  0  0
   30.6599  -20.2226    5.9467 C   0  0  0  0  0  0  0  0  0  0  0  0
   31.5571  -19.9995    4.9243 C   0  0  0  0  0  0  0  0  0  0  0  0
   32.8230  -20.5276    5.0678 C   0  0  0  0  0  0  0  0  0  0  0  0
   33.1879  -21.2509    6.1839 C   0  0  0  0  0  0  0  0  0  0  0  0
   32.4809  -22.6732   10.7939 C   0  0  0  0  0  0  0  0  0  0  0  0
   33.5540  -22.4980   11.6452 O   0  0  0  0  0  0  0  0  0  0  0  0
   31.7434  -23.6691   10.9538 O   0  0  0  0  0  0  0  0  0  0  0  0
  2  1  1  6
  2  4  1  0
  3  2  1  0
  4 10  1  0
  4  5  2  0
  7  6  1  1
  7  8  1  0
  9 11  1  0
  9  7  1  0
  9 10  1  1
 11 12  2  0
 13 14  1  0
 13 11  1  0
 14 15  1  6
 15 16  1  0
 16 21  2  0
 17 18  2  0
 17 16  1  0
 18 19  1  0
 19 20  2  0
 21 20  1  0
 22 14  1  0
 23 22  1  0
 24 22  2  0
M  END
$$$$
