AVF.pdb
     RDKit          3D

 24 24  0  0  1  0  0  0  0  0999 V2000
   25.9528  -23.6183  -17.7790 C   0  0  0  0  0  0  0  0  0  0  0  0
   27.0354  -22.5871  -17.9083 C   0  0  2  0  0  0  0  0  0  0  0  0
   28.2136  -23.1096  -18.5413 N   0  0  0  0  0  0  0  0  0  0  0  0
   27.3396  -21.9269  -16.6095 C   0  0  0  0  0  0  0  0  0  0  0  0
   28.0811  -22.4763  -15.7762 O   0  0  0  0  0  0  0  0  0  0  0  0
   27.1337  -17.5436  -14.2748 C   0  0  0  0  0  0  0  0  0  0  0  0
   26.8456  -18.4987  -15.3847 C   0  0  2  0  0  0  0  0  0  0  0  0
   25.4360  -18.2890  -15.9454 C   0  0  0  0  0  0  0  0  0  0  0  0
   27.0081  -19.9461  -15.0716 C   0  0  2  0  0  0  0  0  0  0  0  0
   26.7762  -20.6663  -16.3319 N   0  0  0  0  0  0  0  0  0  0  0  0
   26.1092  -20.4640  -14.0154 C   0  0  0  0  0  0  0  0  0  0  0  0
   24.9084  -20.7788  -14.3435 O   0  0  0  0  0  0  0  0  0  0  0  0
   26.4813  -20.6397  -12.6655 N   0  0  0  0  0  0  0  0  0  0  0  0
   25.6343  -21.3447  -11.7059 C   0  0  1  0  0  0  0  0  0  0  0  0
   26.5217  -21.7042  -10.5548 C   0  0  0  0  0  0  0  0  0  0  0  0
   26.3469  -20.8734   -9.3478 C   0  0  0  0  0  0  0  0  0  0  0  0
   26.6907  -19.5399   -9.3135 C   0  0  0  0  0  0  0  0  0  0  0  0
   26.5115  -18.7638   -8.1630 C   0  0  0  0  0  0  0  0  0  0  0  0
   25.9806  -19.3106   -7.0144 C   0  0  0  0  0  0  0  0  0  0  0  0
   25.6373  -20.6458   -7.0503 C   0  0  0  0  0  0  0  0  0  0  0  0
   25.8129  -21.4125   -8.1831 C   0  0  0  0  0  0  0  0  0  0  0  0
   24.5852  -20.4174  -11.2510 C   0  0  0  0  0  0  0  0  0  0  0  0
   23.4267  -20.8982  -10.6733 O   0  0  0  0  0  0  0  0  0  0  0  0
   24.7246  -19.1824  -11.3798 O   0  0  0  0  0  0  0  0  0  0  0  0
  2  1  1  1
  2  4  1  0
  3  2  1  0
  4 10  1  0
  4  5  2  0
  7  6  1  1
  7  8  1  0
  9 11  1  0
  9  7  1  0
  9 10  1  6
 11 12  2  0
 13 14  1  0
 13 11  1  0
 14 15  1  1
 15 16  1  0
 16 21  2  0
 17 18  2  0
 17 16  1  0
 18 19  1  0
 19 20  2  0
 21 20  1  0
 22 14  1  0
 23 22  1  0
 24 22  2  0
M  END
$$$$
