AVF.pdb
     RDKit          3D

 24 24  0  0  1  0  0  0  0  0999 V2000
   23.5815  -13.8199  -16.7909 C   0  0  0  0  0  0  0  0  0  0  0  0
   22.6824  -13.6312  -17.9776 C   0  0  2  0  0  0  0  0  0  0  0  0
   23.1311  -14.3694  -19.1245 N   0  0  0  0  0  0  0  0  0  0  0  0
   22.4556  -12.1931  -18.2868 C   0  0  0  0  0  0  0  0  0  0  0  0
   23.2756  -11.5531  -18.9681 O   0  0  0  0  0  0  0  0  0  0  0  0
   19.1009   -8.7943  -19.0816 C   0  0  0  0  0  0  0  0  0  0  0  0
   19.6486  -10.1347  -18.7208 C   0  0  2  0  0  0  0  0  0  0  0  0
   18.6720  -10.9130  -17.8345 C   0  0  0  0  0  0  0  0  0  0  0  0
   20.9838  -10.1483  -18.0602 C   0  0  2  0  0  0  0  0  0  0  0  0
   21.2964  -11.5604  -17.7974 N   0  0  0  0  0  0  0  0  0  0  0  0
   21.0716   -9.3648  -16.8070 C   0  0  0  0  0  0  0  0  0  0  0  0
   20.6295   -9.8997  -15.7268 O   0  0  0  0  0  0  0  0  0  0  0  0
   21.6121   -8.0644  -16.7145 N   0  0  0  0  0  0  0  0  0  0  0  0
   21.7520   -7.3644  -15.4394 C   0  0  1  0  0  0  0  0  0  0  0  0
   23.2083   -7.0463  -15.2984 C   0  0  0  0  0  0  0  0  0  0  0  0
   24.1006   -8.2197  -15.2307 C   0  0  0  0  0  0  0  0  0  0  0  0
   25.1703   -8.3836  -16.0828 C   0  0  0  0  0  0  0  0  0  0  0  0
   26.0118   -9.4987  -16.0005 C   0  0  0  0  0  0  0  0  0  0  0  0
   25.7980  -10.4802  -15.0566 C   0  0  0  0  0  0  0  0  0  0  0  0
   24.7264  -10.3147  -14.2044 C   0  0  0  0  0  0  0  0  0  0  0  0
   23.8959   -9.2165  -14.2837 C   0  0  0  0  0  0  0  0  0  0  0  0
   20.9777   -6.1146  -15.5141 C   0  0  0  0  0  0  0  0  0  0  0  0
   20.7268   -5.3760  -14.3746 O   0  0  0  0  0  0  0  0  0  0  0  0
   20.5350   -5.7017  -16.6073 O   0  0  0  0  0  0  0  0  0  0  0  0
  2  1  1  1
  2  4  1  0
  3  2  1  0
  4 10  1  0
  4  5  2  0
  7  6  1  1
  7  8  1  0
  9 11  1  0
  9  7  1  0
  9 10  1  1
 11 12  2  0
 13 14  1  0
 13 11  1  0
 14 15  1  6
 15 16  1  0
 16 21  2  0
 17 18  2  0
 17 16  1  0
 18 19  1  0
 19 20  2  0
 21 20  1  0
 22 14  1  0
 23 22  1  0
 24 22  2  0
M  END
$$$$
