AVF.pdb
     RDKit          3D

 24 24  0  0  1  0  0  0  0  0999 V2000
   28.8997  -23.1072  -15.4275 C   0  0  0  0  0  0  0  0  0  0  0  0
   27.6482  -22.4104  -15.8751 C   0  0  2  0  0  0  0  0  0  0  0  0
   27.7467  -21.9246  -17.2226 N   0  0  0  0  0  0  0  0  0  0  0  0
   27.2264  -21.3475  -14.9226 C   0  0  0  0  0  0  0  0  0  0  0  0
   27.6108  -20.1742  -15.0694 O   0  0  0  0  0  0  0  0  0  0  0  0
   23.5953  -19.6161  -12.4077 C   0  0  0  0  0  0  0  0  0  0  0  0
   24.3803  -20.5887  -13.2231 C   0  0  2  0  0  0  0  0  0  0  0  0
   23.7793  -21.9948  -13.1403 C   0  0  0  0  0  0  0  0  0  0  0  0
   25.8345  -20.6887  -12.9157 C   0  0  2  0  0  0  0  0  0  0  0  0
   26.3824  -21.6854  -13.8468 N   0  0  0  0  0  0  0  0  0  0  0  0
   26.1562  -21.0635  -11.5200 C   0  0  0  0  0  0  0  0  0  0  0  0
   25.9163  -22.2683  -11.1464 O   0  0  0  0  0  0  0  0  0  0  0  0
   26.7133  -20.1858  -10.5656 N   0  0  0  0  0  0  0  0  0  0  0  0
   26.8787  -20.5589   -9.1624 C   0  0  1  0  0  0  0  0  0  0  0  0
   27.9164  -19.6337   -8.6066 C   0  0  0  0  0  0  0  0  0  0  0  0
   28.1820  -19.7873   -7.1632 C   0  0  0  0  0  0  0  0  0  0  0  0
   29.0341  -20.7495   -6.6678 C   0  0  0  0  0  0  0  0  0  0  0  0
   29.2813  -20.8771   -5.2964 C   0  0  0  0  0  0  0  0  0  0  0  0
   28.6759  -20.0380   -4.3857 C   0  0  0  0  0  0  0  0  0  0  0  0
   27.8228  -19.0753   -4.8833 C   0  0  0  0  0  0  0  0  0  0  0  0
   27.5779  -18.9477   -6.2345 C   0  0  0  0  0  0  0  0  0  0  0  0
   25.5969  -20.3356   -8.4735 C   0  0  0  0  0  0  0  0  0  0  0  0
   25.1967  -21.1707   -7.4491 O   0  0  0  0  0  0  0  0  0  0  0  0
   24.8509  -19.3890   -8.8033 O   0  0  0  0  0  0  0  0  0  0  0  0
  2  1  1  1
  2  4  1  0
  3  2  1  0
  4 10  1  0
  4  5  2  0
  7  6  1  1
  7  8  1  0
  9 11  1  0
  9  7  1  0
  9 10  1  6
 11 12  2  0
 13 14  1  0
 13 11  1  0
 14 15  1  1
 15 16  1  0
 16 21  2  0
 17 18  2  0
 17 16  1  0
 18 19  1  0
 19 20  2  0
 21 20  1  0
 22 14  1  0
 23 22  1  0
 24 22  2  0
M  END
$$$$
