AVF.pdb
     RDKit          3D

 24 24  0  0  1  0  0  0  0  0999 V2000
   28.5120  -17.0306  -14.7741 C   0  0  0  0  0  0  0  0  0  0  0  0
   27.5177  -18.1106  -15.0859 C   0  0  2  0  0  0  0  0  0  0  0  0
   26.8208  -17.8710  -16.3183 N   0  0  0  0  0  0  0  0  0  0  0  0
   26.5868  -18.3608  -13.9519 C   0  0  0  0  0  0  0  0  0  0  0  0
   25.8432  -17.4582  -13.5297 O   0  0  0  0  0  0  0  0  0  0  0  0
   23.7673  -21.6573  -11.8537 C   0  0  0  0  0  0  0  0  0  0  0  0
   24.8119  -21.1283  -12.7789 C   0  0  2  0  0  0  0  0  0  0  0  0
   25.7651  -22.2379  -13.2322 C   0  0  0  0  0  0  0  0  0  0  0  0
   25.6321  -19.9929  -12.2716 C   0  0  2  0  0  0  0  0  0  0  0  0
   26.5562  -19.6376  -13.3581 N   0  0  0  0  0  0  0  0  0  0  0  0
   26.3883  -20.2712  -11.0295 C   0  0  0  0  0  0  0  0  0  0  0  0
   27.4545  -20.9812  -11.1164 O   0  0  0  0  0  0  0  0  0  0  0  0
   26.0193  -19.8068   -9.7489 N   0  0  0  0  0  0  0  0  0  0  0  0
   26.6943  -20.2508   -8.5313 C   0  0  1  0  0  0  0  0  0  0  0  0
   26.9836  -19.0119   -7.7419 C   0  0  0  0  0  0  0  0  0  0  0  0
   27.6002  -19.2422   -6.4212 C   0  0  0  0  0  0  0  0  0  0  0  0
   26.8553  -19.3508   -5.2677 C   0  0  0  0  0  0  0  0  0  0  0  0
   27.4549  -19.5770   -4.0237 C   0  0  0  0  0  0  0  0  0  0  0  0
   28.8230  -19.6998   -3.9079 C   0  0  0  0  0  0  0  0  0  0  0  0
   29.5674  -19.5905   -5.0637 C   0  0  0  0  0  0  0  0  0  0  0  0
   28.9785  -19.3678   -6.2907 C   0  0  0  0  0  0  0  0  0  0  0  0
   25.7661  -21.1111   -7.7792 C   0  0  0  0  0  0  0  0  0  0  0  0
   26.2474  -22.0781   -6.9188 O   0  0  0  0  0  0  0  0  0  0  0  0
   24.5298  -20.9816   -7.9064 O   0  0  0  0  0  0  0  0  0  0  0  0
  2  1  1  1
  2  4  1  0
  3  2  1  0
  4 10  1  0
  4  5  2  0
  7  6  1  1
  7  8  1  0
  9 11  1  0
  9  7  1  0
  9 10  1  6
 11 12  2  0
 13 14  1  0
 13 11  1  0
 14 15  1  1
 15 16  1  0
 16 21  2  0
 17 18  2  0
 17 16  1  0
 18 19  1  0
 19 20  2  0
 21 20  1  0
 22 14  1  0
 23 22  1  0
 24 22  2  0
M  END
$$$$
