AVF.pdb
     RDKit          3D

 24 24  0  0  1  0  0  0  0  0999 V2000
   20.7930  -18.8079  -12.3032 C   0  0  0  0  0  0  0  0  0  0  0  0
   21.5046  -19.8379  -13.1308 C   0  0  2  0  0  0  0  0  0  0  0  0
   20.5977  -20.6336  -13.9093 N   0  0  0  0  0  0  0  0  0  0  0  0
   22.4285  -20.6724  -12.3153 C   0  0  0  0  0  0  0  0  0  0  0  0
   21.9849  -21.5213  -11.5224 O   0  0  0  0  0  0  0  0  0  0  0  0
   26.5359  -21.0109  -13.5947 C   0  0  0  0  0  0  0  0  0  0  0  0
   25.6443  -21.9435  -12.8448 C   0  0  2  0  0  0  0  0  0  0  0  0
   24.7189  -22.7101  -13.7941 C   0  0  0  0  0  0  0  0  0  0  0  0
   24.8071  -21.3392  -11.7709 C   0  0  2  0  0  0  0  0  0  0  0  0
   23.8185  -20.4903  -12.4511 N   0  0  0  0  0  0  0  0  0  0  0  0
   25.5522  -20.5485  -10.7650 C   0  0  0  0  0  0  0  0  0  0  0  0
   25.6479  -19.2805  -10.9420 O   0  0  0  0  0  0  0  0  0  0  0  0
   26.1666  -21.0927   -9.6170 N   0  0  0  0  0  0  0  0  0  0  0  0
   27.0719  -20.3169   -8.7721 C   0  0  1  0  0  0  0  0  0  0  0  0
   26.7270  -20.6717   -7.3590 C   0  0  0  0  0  0  0  0  0  0  0  0
   27.6343  -20.1169   -6.3361 C   0  0  0  0  0  0  0  0  0  0  0  0
   27.6941  -18.7697   -6.0550 C   0  0  0  0  0  0  0  0  0  0  0  0
   28.5548  -18.2603   -5.0762 C   0  0  0  0  0  0  0  0  0  0  0  0
   29.3797  -19.0952   -4.3533 C   0  0  0  0  0  0  0  0  0  0  0  0
   29.3188  -20.4436   -4.6361 C   0  0  0  0  0  0  0  0  0  0  0  0
   28.4713  -20.9478   -5.6002 C   0  0  0  0  0  0  0  0  0  0  0  0
   28.4509  -20.7404   -9.0661 C   0  0  0  0  0  0  0  0  0  0  0  0
   28.6915  -21.8906   -9.7915 O   0  0  0  0  0  0  0  0  0  0  0  0
   29.4248  -20.0681   -8.6651 O   0  0  0  0  0  0  0  0  0  0  0  0
  2  1  1  1
  2  4  1  0
  3  2  1  0
  4 10  1  0
  4  5  2  0
  7  6  1  6
  7  8  1  0
  9 11  1  0
  9  7  1  0
  9 10  1  6
 11 12  2  0
 13 14  1  0
 13 11  1  0
 14 15  1  1
 15 16  1  0
 16 21  2  0
 17 18  2  0
 17 16  1  0
 18 19  1  0
 19 20  2  0
 21 20  1  0
 22 14  1  0
 23 22  1  0
 24 22  2  0
M  END
$$$$
