AVF.pdb
     RDKit          3D

 24 24  0  0  1  0  0  0  0  0999 V2000
   18.8948   -6.3498  -21.4728 C   0  0  0  0  0  0  0  0  0  0  0  0
   19.6328   -5.9096  -20.2424 C   0  0  2  0  0  0  0  0  0  0  0  0
   20.9825   -6.3986  -20.2119 N   0  0  0  0  0  0  0  0  0  0  0  0
   18.8880   -6.2337  -18.9953 C   0  0  0  0  0  0  0  0  0  0  0  0
   17.7266   -5.8238  -18.8245 O   0  0  0  0  0  0  0  0  0  0  0  0
   18.3275   -9.7541  -17.5052 C   0  0  0  0  0  0  0  0  0  0  0  0
   19.0840   -8.8565  -16.5837 C   0  0  2  0  0  0  0  0  0  0  0  0
   18.8223   -9.2174  -15.1186 C   0  0  0  0  0  0  0  0  0  0  0  0
   18.8543   -7.3938  -16.7477 C   0  0  2  0  0  0  0  0  0  0  0  0
   19.5152   -7.0137  -18.0044 N   0  0  0  0  0  0  0  0  0  0  0  0
   19.3512   -6.5524  -15.6354 C   0  0  0  0  0  0  0  0  0  0  0  0
   18.6877   -6.5488  -14.5362 O   0  0  0  0  0  0  0  0  0  0  0  0
   20.5111   -5.7507  -15.6970 N   0  0  0  0  0  0  0  0  0  0  0  0
   21.0175   -5.0172  -14.5390 C   0  0  1  0  0  0  0  0  0  0  0  0
   22.4133   -5.5098  -14.3139 C   0  0  0  0  0  0  0  0  0  0  0  0
   22.5300   -6.9560  -14.0451 C   0  0  0  0  0  0  0  0  0  0  0  0
   23.2446   -7.8034  -14.8629 C   0  0  0  0  0  0  0  0  0  0  0  0
   23.3520   -9.1717  -14.5897 C   0  0  0  0  0  0  0  0  0  0  0  0
   22.7415   -9.7240  -13.4841 C   0  0  0  0  0  0  0  0  0  0  0  0
   22.0262   -8.8743  -12.6666 C   0  0  0  0  0  0  0  0  0  0  0  0
   21.9192   -7.5256  -12.9339 C   0  0  0  0  0  0  0  0  0  0  0  0
   21.0470   -3.5852  -14.8792 C   0  0  0  0  0  0  0  0  0  0  0  0
   21.4595   -2.6518  -13.9488 O   0  0  0  0  0  0  0  0  0  0  0  0
   20.7000   -3.1907  -16.0130 O   0  0  0  0  0  0  0  0  0  0  0  0
  2  1  1  6
  2  4  1  0
  3  2  1  0
  4 10  1  0
  4  5  2  0
  7  6  1  6
  7  8  1  0
  9 11  1  0
  9  7  1  0
  9 10  1  6
 11 12  2  0
 13 14  1  0
 13 11  1  0
 14 15  1  6
 15 16  1  0
 16 21  2  0
 17 18  2  0
 17 16  1  0
 18 19  1  0
 19 20  2  0
 21 20  1  0
 22 14  1  0
 23 22  1  0
 24 22  2  0
M  END
$$$$
