DKW.pdb
     RDKit          3D

 32 33  0  0  1  0  0  0  0  0999 V2000
   10.9790  -15.9328   18.6474 N   0  0  0  0  0  0  0  0  0  0  0  0
   11.6946  -15.7528   19.8715 C   0  0  1  0  0  0  0  0  0  0  0  0
   12.3234  -14.3765   19.9128 C   0  0  0  0  0  0  0  0  0  0  0  0
   13.4718  -14.2656   18.9923 C   0  0  0  0  0  0  0  0  0  0  0  0
   14.2578  -15.1800   18.7121 O   0  0  0  0  0  0  0  0  0  0  0  0
   10.7590  -15.8269   21.0560 C   0  0  0  0  0  0  0  0  0  0  0  0
   10.3508  -14.7464   21.5236 O   0  0  0  0  0  0  0  0  0  0  0  0
   13.6719  -13.0132   18.3961 O   0  0  0  0  0  0  0  0  0  0  0  0
   10.3689  -17.0739   21.6041 N   0  0  0  0  0  0  0  0  0  0  0  0
    9.5288  -17.3160   22.7216 C   0  0  1  0  0  0  0  0  0  0  0  0
    8.7941  -18.6408   22.6421 C   0  0  0  0  0  0  0  0  0  0  0  0
    8.5719  -19.0912   21.2500 C   0  0  0  0  0  0  0  0  0  0  0  0
    8.0042  -20.4649   21.1660 C   0  0  0  0  0  0  0  0  0  0  0  0
    7.8588  -21.0757   19.8218 C   0  0  0  0  0  0  0  0  0  0  0  0
    7.2343  -22.3685   19.8789 N   0  0  0  0  0  0  0  0  0  0  0  0
   10.0888  -17.0151   24.0540 C   0  0  0  0  0  0  0  0  0  0  0  0
   11.3217  -16.9983   24.2316 O   0  0  0  0  0  0  0  0  0  0  0  0
    9.2689  -16.7409   25.1516 N   0  0  0  0  0  0  0  0  0  0  0  0
    9.8305  -16.5121   26.5033 C   0  0  1  0  0  0  0  0  0  0  0  0
    8.8236  -15.8313   27.3551 C   0  0  0  0  0  0  0  0  0  0  0  0
    7.8076  -15.0415   26.6699 C   0  0  0  0  0  0  0  0  0  0  0  0
    6.6091  -15.5068   26.1082 C   0  0  0  0  0  0  0  0  0  0  0  0
    5.9364  -14.5085   25.5277 N   0  0  0  0  0  0  0  0  0  0  0  0
    6.6448  -13.3777   25.6806 C   0  0  0  0  0  0  0  0  0  0  0  0
    6.3490  -12.0963   25.2677 C   0  0  0  0  0  0  0  0  0  0  0  0
    7.2481  -11.0687   25.5691 C   0  0  0  0  0  0  0  0  0  0  0  0
    8.4027  -11.3534   26.2671 C   0  0  0  0  0  0  0  0  0  0  0  0
    8.6753  -12.6398   26.6673 C   0  0  0  0  0  0  0  0  0  0  0  0
    7.7940  -13.6879   26.3787 C   0  0  0  0  0  0  0  0  0  0  0  0
   10.3557  -17.7260   27.0849 C   0  0  0  0  0  0  0  0  0  0  0  0
   10.1773  -18.8661   26.5383 O   0  0  0  0  0  0  0  0  0  0  0  0
   11.0799  -17.7104   28.2552 O   0  0  0  0  0  0  0  0  0  0  0  0
  2  1  1  6
  2  3  1  0
  3  4  1  0
  4  8  1  0
  5  4  2  0
  6  2  1  0
  7  6  2  0
  9  6  1  0
 10  9  1  0
 10 11  1  1
 11 12  1  0
 12 13  1  0
 13 14  1  0
 14 15  1  0
 16 18  1  0
 16 10  1  0
 17 16  2  0
 19 18  1  0
 19 20  1  1
 21 20  1  0
 21 29  1  0
 22 23  1  0
 22 21  2  0
 23 24  1  0
 24 25  1  0
 24 29  2  0
 25 26  2  0
 26 27  1  0
 28 27  2  0
 29 28  1  0
 30 19  1  0
 30 32  1  0
 31 30  2  0
M  END
$$$$
