DKW.pdb
     RDKit          3D

 32 33  0  0  1  0  0  0  0  0999 V2000
   11.3731  -15.3411   18.4231 N   0  0  0  0  0  0  0  0  0  0  0  0
   12.1651  -15.4075   19.6111 C   0  0  1  0  0  0  0  0  0  0  0  0
   13.0834  -14.2071   19.6958 C   0  0  0  0  0  0  0  0  0  0  0  0
   14.2394  -14.3302   18.7864 C   0  0  0  0  0  0  0  0  0  0  0  0
   14.3476  -15.1567   17.8712 O   0  0  0  0  0  0  0  0  0  0  0  0
   11.2905  -15.3596   20.8426 C   0  0  0  0  0  0  0  0  0  0  0  0
   11.2711  -14.2903   21.4820 O   0  0  0  0  0  0  0  0  0  0  0  0
   15.2913  -13.4274   18.9925 O   0  0  0  0  0  0  0  0  0  0  0  0
   10.5300  -16.4854   21.2449 N   0  0  0  0  0  0  0  0  0  0  0  0
    9.6493  -16.5984   22.3516 C   0  0  1  0  0  0  0  0  0  0  0  0
    8.5192  -17.5831   22.1191 C   0  0  0  0  0  0  0  0  0  0  0  0
    7.8579  -17.3986   20.8079 C   0  0  0  0  0  0  0  0  0  0  0  0
    6.9485  -18.5221   20.4513 C   0  0  0  0  0  0  0  0  0  0  0  0
    6.1759  -18.4168   19.1891 C   0  0  0  0  0  0  0  0  0  0  0  0
    5.3793  -19.5869   18.9423 N   0  0  0  0  0  0  0  0  0  0  0  0
   10.2681  -16.6941   23.6886 C   0  0  0  0  0  0  0  0  0  0  0  0
   11.3786  -17.2397   23.8328 O   0  0  0  0  0  0  0  0  0  0  0  0
    9.6408  -16.1830   24.8276 N   0  0  0  0  0  0  0  0  0  0  0  0
   10.2180  -16.3637   26.1800 C   0  0  1  0  0  0  0  0  0  0  0  0
    9.5714  -15.4245   27.1300 C   0  0  0  0  0  0  0  0  0  0  0  0
    8.2595  -14.9098   26.7566 C   0  0  0  0  0  0  0  0  0  0  0  0
    7.0796  -15.6475   26.5774 C   0  0  0  0  0  0  0  0  0  0  0  0
    6.0738  -14.8525   26.2001 N   0  0  0  0  0  0  0  0  0  0  0  0
    6.5380  -13.5948   26.1190 C   0  0  0  0  0  0  0  0  0  0  0  0
    5.8715  -12.4349   25.7869 C   0  0  0  0  0  0  0  0  0  0  0  0
    6.5779  -11.2282   25.7940 C   0  0  0  0  0  0  0  0  0  0  0  0
    7.9153  -11.2210   26.1301 C   0  0  0  0  0  0  0  0  0  0  0  0
    8.5576  -12.3914   26.4569 C   0  0  0  0  0  0  0  0  0  0  0  0
    7.8757  -13.6135   26.4572 C   0  0  0  0  0  0  0  0  0  0  0  0
   10.1739  -17.7429   26.6085 C   0  0  0  0  0  0  0  0  0  0  0  0
    9.4718  -18.6159   25.9958 O   0  0  0  0  0  0  0  0  0  0  0  0
   10.8929  -18.1835   27.6962 O   0  0  0  0  0  0  0  0  0  0  0  0
  2  1  1  6
  2  3  1  0
  3  4  1  0
  4  8  1  0
  5  4  2  0
  6  2  1  0
  7  6  2  0
  9  6  1  0
 10  9  1  0
 10 11  1  6
 11 12  1  0
 12 13  1  0
 13 14  1  0
 14 15  1  0
 16 18  1  0
 16 10  1  0
 17 16  2  0
 19 18  1  0
 19 20  1  1
 21 20  1  0
 21 29  1  0
 22 23  1  0
 22 21  2  0
 23 24  1  0
 24 25  1  0
 24 29  2  0
 25 26  2  0
 26 27  1  0
 28 27  2  0
 29 28  1  0
 30 19  1  0
 30 32  1  0
 31 30  2  0
M  END
$$$$
