DKW.pdb
     RDKit          3D

 32 33  0  0  1  0  0  0  0  0999 V2000
   10.2846  -16.1474   19.5055 N   0  0  0  0  0  0  0  0  0  0  0  0
    9.2356  -15.5430   20.2653 C   0  0  1  0  0  0  0  0  0  0  0  0
    7.9054  -15.7404   19.5703 C   0  0  0  0  0  0  0  0  0  0  0  0
    7.9659  -15.3661   18.1440 C   0  0  0  0  0  0  0  0  0  0  0  0
    7.2918  -14.4780   17.6059 O   0  0  0  0  0  0  0  0  0  0  0  0
    9.1074  -16.1997   21.6203 C   0  0  0  0  0  0  0  0  0  0  0  0
    8.1851  -15.8013   22.3575 O   0  0  0  0  0  0  0  0  0  0  0  0
    8.8675  -16.0874   17.3497 O   0  0  0  0  0  0  0  0  0  0  0  0
   10.0007  -17.2218   22.0262 N   0  0  0  0  0  0  0  0  0  0  0  0
   10.0311  -17.9202   23.2609 C   0  0  1  0  0  0  0  0  0  0  0  0
   10.7106  -19.2731   23.1667 C   0  0  0  0  0  0  0  0  0  0  0  0
    9.8038  -20.3384   22.6837 C   0  0  0  0  0  0  0  0  0  0  0  0
    9.0232  -20.9789   23.7777 C   0  0  0  0  0  0  0  0  0  0  0  0
    8.0687  -22.0544   23.4125 C   0  0  0  0  0  0  0  0  0  0  0  0
    8.7377  -23.2345   22.9387 N   0  0  0  0  0  0  0  0  0  0  0  0
   10.4015  -17.1406   24.4586 C   0  0  0  0  0  0  0  0  0  0  0  0
   11.4546  -16.4756   24.4783 O   0  0  0  0  0  0  0  0  0  0  0  0
    9.5960  -17.1187   25.6000 N   0  0  0  0  0  0  0  0  0  0  0  0
   10.0049  -16.3945   26.8261 C   0  0  1  0  0  0  0  0  0  0  0  0
    8.8008  -15.9147   27.5492 C   0  0  0  0  0  0  0  0  0  0  0  0
    7.7673  -15.2676   26.7501 C   0  0  0  0  0  0  0  0  0  0  0  0
    6.7109  -15.8893   26.0675 C   0  0  0  0  0  0  0  0  0  0  0  0
    5.9758  -14.9894   25.4072 N   0  0  0  0  0  0  0  0  0  0  0  0
    6.5036  -13.7734   25.6233 C   0  0  0  0  0  0  0  0  0  0  0  0
    6.0833  -12.5425   25.1671 C   0  0  0  0  0  0  0  0  0  0  0  0
    6.7969  -11.4034   25.5525 C   0  0  0  0  0  0  0  0  0  0  0  0
    7.8971  -11.5313   26.3739 C   0  0  0  0  0  0  0  0  0  0  0  0
    8.2966  -12.7703   26.8150 C   0  0  0  0  0  0  0  0  0  0  0  0
    7.6019  -13.9272   26.4444 C   0  0  0  0  0  0  0  0  0  0  0  0
   10.8990  -17.1789   27.6464 C   0  0  0  0  0  0  0  0  0  0  0  0
   11.1462  -18.4051   27.3899 O   0  0  0  0  0  0  0  0  0  0  0  0
   11.5329  -16.6389   28.7422 O   0  0  0  0  0  0  0  0  0  0  0  0
  2  1  1  6
  2  3  1  0
  3  4  1  0
  4  8  1  0
  5  4  2  0
  6  2  1  0
  7  6  2  0
  9  6  1  0
 10  9  1  0
 10 11  1  6
 11 12  1  0
 12 13  1  0
 13 14  1  0
 14 15  1  0
 16 18  1  0
 16 10  1  0
 17 16  2  0
 19 18  1  0
 19 20  1  1
 21 20  1  0
 21 29  1  0
 22 23  1  0
 22 21  2  0
 23 24  1  0
 24 25  1  0
 24 29  2  0
 25 26  2  0
 26 27  1  0
 28 27  2  0
 29 28  1  0
 30 19  1  0
 30 32  1  0
 31 30  2  0
M  END
$$$$
