DKW.pdb
     RDKit          3D

 32 33  0  0  1  0  0  0  0  0999 V2000
    9.9384  -15.1951   18.7461 N   0  0  0  0  0  0  0  0  0  0  0  0
    9.2646  -14.3814   19.7088 C   0  0  1  0  0  0  0  0  0  0  0  0
    7.9141  -13.9512   19.1771 C   0  0  0  0  0  0  0  0  0  0  0  0
    8.0011  -13.4410   17.7950 C   0  0  0  0  0  0  0  0  0  0  0  0
    9.0066  -13.4888   17.0743 O   0  0  0  0  0  0  0  0  0  0  0  0
    8.9928  -15.1611   20.9745 C   0  0  0  0  0  0  0  0  0  0  0  0
    8.2064  -14.6513   21.7957 O   0  0  0  0  0  0  0  0  0  0  0  0
    6.8385  -12.8578   17.2732 O   0  0  0  0  0  0  0  0  0  0  0  0
    9.6096  -16.4150   21.2088 N   0  0  0  0  0  0  0  0  0  0  0  0
    9.4831  -17.2556   22.3448 C   0  0  1  0  0  0  0  0  0  0  0  0
    9.8370  -18.7030   22.0606 C   0  0  0  0  0  0  0  0  0  0  0  0
    8.8764  -19.3597   21.1460 C   0  0  0  0  0  0  0  0  0  0  0  0
    9.2922  -20.7346   20.7542 C   0  0  0  0  0  0  0  0  0  0  0  0
    8.3836  -21.5115   19.8757 C   0  0  0  0  0  0  0  0  0  0  0  0
    9.0014  -21.8533   18.6243 N   0  0  0  0  0  0  0  0  0  0  0  0
   10.0238  -16.7407   23.6183 C   0  0  0  0  0  0  0  0  0  0  0  0
   11.2185  -16.3986   23.7047 O   0  0  0  0  0  0  0  0  0  0  0  0
    9.2272  -16.6185   24.7596 N   0  0  0  0  0  0  0  0  0  0  0  0
    9.8017  -16.2387   26.0714 C   0  0  1  0  0  0  0  0  0  0  0  0
    8.7086  -15.9147   27.0217 C   0  0  0  0  0  0  0  0  0  0  0  0
    7.5969  -15.1273   26.5027 C   0  0  0  0  0  0  0  0  0  0  0  0
    6.4233  -15.6101   25.9043 C   0  0  0  0  0  0  0  0  0  0  0  0
    5.6385  -14.6014   25.5135 N   0  0  0  0  0  0  0  0  0  0  0  0
    6.2465  -13.4467   25.8309 C   0  0  0  0  0  0  0  0  0  0  0  0
    5.8179  -12.1503   25.6418 C   0  0  0  0  0  0  0  0  0  0  0  0
    6.6314  -11.1023   26.0835 C   0  0  0  0  0  0  0  0  0  0  0  0
    7.8355  -11.3823   26.6944 C   0  0  0  0  0  0  0  0  0  0  0  0
    8.2409  -12.6838   26.8709 C   0  0  0  0  0  0  0  0  0  0  0  0
    7.4475  -13.7522   26.4378 C   0  0  0  0  0  0  0  0  0  0  0  0
   10.7247  -17.2334   26.5675 C   0  0  0  0  0  0  0  0  0  0  0  0
   11.4238  -17.0384   27.6181 O   0  0  0  0  0  0  0  0  0  0  0  0
   10.8904  -18.4436   25.9332 O   0  0  0  0  0  0  0  0  0  0  0  0
  2  1  1  6
  2  3  1  0
  3  4  1  0
  4  8  1  0
  5  4  2  0
  6  2  1  0
  7  6  2  0
  9  6  1  0
 10  9  1  0
 10 11  1  6
 11 12  1  0
 12 13  1  0
 13 14  1  0
 14 15  1  0
 16 18  1  0
 16 10  1  0
 17 16  2  0
 19 18  1  0
 19 20  1  1
 21 20  1  0
 21 29  1  0
 22 23  1  0
 22 21  2  0
 23 24  1  0
 24 25  1  0
 24 29  2  0
 25 26  2  0
 26 27  1  0
 28 27  2  0
 29 28  1  0
 30 19  1  0
 30 32  1  0
 31 30  2  0
M  END
$$$$
