DKW.pdb
     RDKit          3D

 32 33  0  0  1  0  0  0  0  0999 V2000
    9.1069  -18.1249   17.8462 N   0  0  0  0  0  0  0  0  0  0  0  0
   10.3815  -17.6392   18.2734 C   0  0  1  0  0  0  0  0  0  0  0  0
   11.2628  -17.3579   17.0752 C   0  0  0  0  0  0  0  0  0  0  0  0
   11.4235  -18.5470   16.2158 C   0  0  0  0  0  0  0  0  0  0  0  0
   10.9700  -18.6714   15.0706 O   0  0  0  0  0  0  0  0  0  0  0  0
   10.2366  -16.3276   19.0100 C   0  0  0  0  0  0  0  0  0  0  0  0
   11.2870  -15.7553   19.3591 O   0  0  0  0  0  0  0  0  0  0  0  0
   12.1531  -19.6129   16.7595 O   0  0  0  0  0  0  0  0  0  0  0  0
    8.9593  -15.7807   19.2873 N   0  0  0  0  0  0  0  0  0  0  0  0
    8.6302  -14.7349   20.1879 C   0  0  1  0  0  0  0  0  0  0  0  0
    7.7104  -13.6913   19.5828 C   0  0  0  0  0  0  0  0  0  0  0  0
    8.1909  -13.1919   18.2751 C   0  0  0  0  0  0  0  0  0  0  0  0
    7.5232  -13.8510   17.1191 C   0  0  0  0  0  0  0  0  0  0  0  0
    7.9521  -13.4603   15.7537 C   0  0  0  0  0  0  0  0  0  0  0  0
    8.5363  -14.5584   15.0343 N   0  0  0  0  0  0  0  0  0  0  0  0
    8.2728  -15.1291   21.5650 C   0  0  0  0  0  0  0  0  0  0  0  0
    7.0956  -15.0389   21.9622 O   0  0  0  0  0  0  0  0  0  0  0  0
    9.2280  -15.6121   22.4630 N   0  0  0  0  0  0  0  0  0  0  0  0
    9.2956  -15.1269   23.8612 C   0  0  1  0  0  0  0  0  0  0  0  0
    7.9552  -15.2255   24.4908 C   0  0  0  0  0  0  0  0  0  0  0  0
    7.8327  -14.7361   25.8586 C   0  0  0  0  0  0  0  0  0  0  0  0
    7.9718  -15.4798   27.0401 C   0  0  0  0  0  0  0  0  0  0  0  0
    7.7572  -14.7128   28.1134 N   0  0  0  0  0  0  0  0  0  0  0  0
    7.4771  -13.4683   27.6931 C   0  0  0  0  0  0  0  0  0  0  0  0
    7.2040  -12.3358   28.4299 C   0  0  0  0  0  0  0  0  0  0  0  0
    6.9616  -11.1362   27.7535 C   0  0  0  0  0  0  0  0  0  0  0  0
    7.0002  -11.1087   26.3754 C   0  0  0  0  0  0  0  0  0  0  0  0
    7.2742  -12.2519   25.6633 C   0  0  0  0  0  0  0  0  0  0  0  0
    7.5196  -13.4664   26.3139 C   0  0  0  0  0  0  0  0  0  0  0  0
   10.3388  -15.7852   24.6136 C   0  0  0  0  0  0  0  0  0  0  0  0
   10.9543  -16.8072   24.1587 O   0  0  0  0  0  0  0  0  0  0  0  0
   10.7237  -15.3372   25.8568 O   0  0  0  0  0  0  0  0  0  0  0  0
  2  1  1  6
  2  3  1  0
  3  4  1  0
  4  8  1  0
  5  4  2  0
  6  2  1  0
  7  6  2  0
  9  6  1  0
 10  9  1  0
 10 11  1  6
 11 12  1  0
 12 13  1  0
 13 14  1  0
 14 15  1  0
 16 18  1  0
 16 10  1  0
 17 16  2  0
 19 18  1  0
 19 20  1  1
 21 20  1  0
 21 29  1  0
 22 23  1  0
 22 21  2  0
 23 24  1  0
 24 25  1  0
 24 29  2  0
 25 26  2  0
 26 27  1  0
 28 27  2  0
 29 28  1  0
 30 19  1  0
 30 32  1  0
 31 30  2  0
M  END
$$$$
