DKW.pdb
     RDKit          3D

 32 33  0  0  1  0  0  0  0  0999 V2000
    9.8376  -18.9750   20.2636 N   0  0  0  0  0  0  0  0  0  0  0  0
   11.1709  -18.4599   20.2751 C   0  0  1  0  0  0  0  0  0  0  0  0
   11.6927  -18.3267   18.8604 C   0  0  0  0  0  0  0  0  0  0  0  0
   11.8258  -19.6371   18.1946 C   0  0  0  0  0  0  0  0  0  0  0  0
   11.3799  -19.9220   17.0754 O   0  0  0  0  0  0  0  0  0  0  0  0
   11.2049  -17.0719   20.8718 C   0  0  0  0  0  0  0  0  0  0  0  0
   12.3057  -16.4881   20.8848 O   0  0  0  0  0  0  0  0  0  0  0  0
   12.5177  -20.6277   18.9045 O   0  0  0  0  0  0  0  0  0  0  0  0
   10.0325  -16.4692   21.3912 N   0  0  0  0  0  0  0  0  0  0  0  0
    9.9059  -15.2140   22.0404 C   0  0  1  0  0  0  0  0  0  0  0  0
    8.8289  -14.3334   21.4359 C   0  0  0  0  0  0  0  0  0  0  0  0
    8.9224  -14.2425   19.9617 C   0  0  0  0  0  0  0  0  0  0  0  0
    7.8517  -13.4001   19.3611 C   0  0  0  0  0  0  0  0  0  0  0  0
    7.7982  -13.2944   17.8823 C   0  0  0  0  0  0  0  0  0  0  0  0
    6.7075  -12.4716   17.4372 N   0  0  0  0  0  0  0  0  0  0  0  0
    9.9205  -15.2229   23.5166 C   0  0  0  0  0  0  0  0  0  0  0  0
   10.1443  -14.1751   24.1522 O   0  0  0  0  0  0  0  0  0  0  0  0
    9.6867  -16.3905   24.2474 N   0  0  0  0  0  0  0  0  0  0  0  0
    9.9748  -16.4700   25.6985 C   0  0  1  0  0  0  0  0  0  0  0  0
    8.7147  -16.7041   26.4470 C   0  0  0  0  0  0  0  0  0  0  0  0
    7.6192  -15.7748   26.1987 C   0  0  0  0  0  0  0  0  0  0  0  0
    6.3672  -16.0713   25.6392 C   0  0  0  0  0  0  0  0  0  0  0  0
    5.6231  -14.9670   25.5256 N   0  0  0  0  0  0  0  0  0  0  0  0
    6.3351  -13.9287   25.9934 C   0  0  0  0  0  0  0  0  0  0  0  0
    5.9826  -12.6001   26.0959 C   0  0  0  0  0  0  0  0  0  0  0  0
    6.9022  -11.7011   26.6448 C   0  0  0  0  0  0  0  0  0  0  0  0
    8.1327  -12.1560   27.0695 C   0  0  0  0  0  0  0  0  0  0  0  0
    8.4608  -13.4859   26.9560 C   0  0  0  0  0  0  0  0  0  0  0  0
    7.5604  -14.4076   26.4098 C   0  0  0  0  0  0  0  0  0  0  0  0
   11.0112  -17.4325   25.9936 C   0  0  0  0  0  0  0  0  0  0  0  0
   11.4253  -17.6318   27.1849 O   0  0  0  0  0  0  0  0  0  0  0  0
   11.5985  -18.1864   25.0031 O   0  0  0  0  0  0  0  0  0  0  0  0
  2  1  1  6
  2  3  1  0
  3  4  1  0
  4  8  1  0
  5  4  2  0
  6  2  1  0
  7  6  2  0
  9  6  1  0
 10  9  1  0
 10 11  1  1
 11 12  1  0
 12 13  1  0
 13 14  1  0
 14 15  1  0
 16 18  1  0
 16 10  1  0
 17 16  2  0
 19 18  1  0
 19 20  1  1
 21 20  1  0
 21 29  1  0
 22 23  1  0
 22 21  2  0
 23 24  1  0
 24 25  1  0
 24 29  2  0
 25 26  2  0
 26 27  1  0
 28 27  2  0
 29 28  1  0
 30 19  1  0
 30 32  1  0
 31 30  2  0
M  END
$$$$
