DKW.pdb
     RDKit          3D

 32 33  0  0  1  0  0  0  0  0999 V2000
    9.6555  -15.6506   17.4145 N   0  0  0  0  0  0  0  0  0  0  0  0
    9.0910  -14.6502   18.2651 C   0  0  1  0  0  0  0  0  0  0  0  0
    7.8609  -14.0481   17.6203 C   0  0  0  0  0  0  0  0  0  0  0  0
    7.9911  -13.9641   16.1525 C   0  0  0  0  0  0  0  0  0  0  0  0
    8.3166  -14.8969   15.4064 O   0  0  0  0  0  0  0  0  0  0  0  0
    8.6317  -15.2540   19.5722 C   0  0  0  0  0  0  0  0  0  0  0  0
    8.1827  -14.4707   20.4309 O   0  0  0  0  0  0  0  0  0  0  0  0
    7.7195  -12.7166   15.5747 O   0  0  0  0  0  0  0  0  0  0  0  0
    8.7120  -16.6498   19.8023 N   0  0  0  0  0  0  0  0  0  0  0  0
    8.4489  -17.3568   21.0039 C   0  0  1  0  0  0  0  0  0  0  0  0
    8.1767  -18.8326   20.7827 C   0  0  0  0  0  0  0  0  0  0  0  0
    9.3262  -19.5441   20.1804 C   0  0  0  0  0  0  0  0  0  0  0  0
    9.1412  -19.8268   18.7305 C   0  0  0  0  0  0  0  0  0  0  0  0
   10.2395  -20.5181   18.0116 C   0  0  0  0  0  0  0  0  0  0  0  0
    9.9646  -20.6582   16.6083 N   0  0  0  0  0  0  0  0  0  0  0  0
    9.3316  -17.0710   22.1522 C   0  0  0  0  0  0  0  0  0  0  0  0
   10.4498  -17.6131   22.2392 O   0  0  0  0  0  0  0  0  0  0  0  0
    8.9523  -16.1935   23.1711 N   0  0  0  0  0  0  0  0  0  0  0  0
    9.7975  -15.9816   24.3692 C   0  0  1  0  0  0  0  0  0  0  0  0
    9.4901  -14.6605   24.9716 C   0  0  0  0  0  0  0  0  0  0  0  0
    8.1034  -14.4160   25.3496 C   0  0  0  0  0  0  0  0  0  0  0  0
    7.0769  -15.3654   25.4651 C   0  0  0  0  0  0  0  0  0  0  0  0
    5.9221  -14.7798   25.7965 N   0  0  0  0  0  0  0  0  0  0  0  0
    6.1365  -13.4588   25.9101 C   0  0  0  0  0  0  0  0  0  0  0  0
    5.2553  -12.4544   26.2484 C   0  0  0  0  0  0  0  0  0  0  0  0
    5.7293  -11.1409   26.3220 C   0  0  0  0  0  0  0  0  0  0  0  0
    7.0567  -10.8774   26.0574 C   0  0  0  0  0  0  0  0  0  0  0  0
    7.9155  -11.8966   25.7214 C   0  0  0  0  0  0  0  0  0  0  0  0
    7.4684  -13.2201   25.6394 C   0  0  0  0  0  0  0  0  0  0  0  0
    9.7005  -17.0805   25.3023 C   0  0  0  0  0  0  0  0  0  0  0  0
    8.7639  -17.9452   25.2289 O   0  0  0  0  0  0  0  0  0  0  0  0
   10.6187  -17.2513   26.3134 O   0  0  0  0  0  0  0  0  0  0  0  0
  2  1  1  6
  2  3  1  0
  3  4  1  0
  4  8  1  0
  5  4  2  0
  6  2  1  0
  7  6  2  0
  9  6  1  0
 10  9  1  0
 10 11  1  6
 11 12  1  0
 12 13  1  0
 13 14  1  0
 14 15  1  0
 16 18  1  0
 16 10  1  0
 17 16  2  0
 19 18  1  0
 19 20  1  1
 21 20  1  0
 21 29  1  0
 22 23  1  0
 22 21  2  0
 23 24  1  0
 24 25  1  0
 24 29  2  0
 25 26  2  0
 26 27  1  0
 28 27  2  0
 29 28  1  0
 30 19  1  0
 30 32  1  0
 31 30  2  0
M  END
$$$$
