DKW.pdb
     RDKit          3D

 32 33  0  0  1  0  0  0  0  0999 V2000
    9.6379  -15.7048   18.3196 N   0  0  0  0  0  0  0  0  0  0  0  0
    9.1844  -14.6640   19.1881 C   0  0  1  0  0  0  0  0  0  0  0  0
    7.9748  -13.9755   18.5929 C   0  0  0  0  0  0  0  0  0  0  0  0
    8.1835  -13.6182   17.1762 C   0  0  0  0  0  0  0  0  0  0  0  0
    8.2974  -14.4230   16.2424 O   0  0  0  0  0  0  0  0  0  0  0  0
    8.7389  -15.2298   20.5167 C   0  0  0  0  0  0  0  0  0  0  0  0
    8.2985  -14.4220   21.3570 O   0  0  0  0  0  0  0  0  0  0  0  0
    8.2558  -12.2494   16.8844 O   0  0  0  0  0  0  0  0  0  0  0  0
    8.8221  -16.6183   20.7863 N   0  0  0  0  0  0  0  0  0  0  0  0
    8.5783  -17.2895   22.0123 C   0  0  1  0  0  0  0  0  0  0  0  0
    8.3998  -18.7871   21.8496 C   0  0  0  0  0  0  0  0  0  0  0  0
    7.6950  -19.1485   20.5994 C   0  0  0  0  0  0  0  0  0  0  0  0
    6.2478  -19.4295   20.8072 C   0  0  0  0  0  0  0  0  0  0  0  0
    5.4346  -19.7988   19.6226 C   0  0  0  0  0  0  0  0  0  0  0  0
    5.3055  -21.2224   19.4767 N   0  0  0  0  0  0  0  0  0  0  0  0
    9.4195  -16.9031   23.1623 C   0  0  0  0  0  0  0  0  0  0  0  0
   10.6196  -16.6124   22.9974 O   0  0  0  0  0  0  0  0  0  0  0  0
    8.9090  -16.8489   24.4617 N   0  0  0  0  0  0  0  0  0  0  0  0
    9.7707  -16.5254   25.6226 C   0  0  1  0  0  0  0  0  0  0  0  0
    8.9486  -15.9322   26.7066 C   0  0  0  0  0  0  0  0  0  0  0  0
    7.7747  -15.1692   26.3000 C   0  0  0  0  0  0  0  0  0  0  0  0
    6.5448  -15.6788   25.8569 C   0  0  0  0  0  0  0  0  0  0  0  0
    5.7080  -14.6882   25.5333 N   0  0  0  0  0  0  0  0  0  0  0  0
    6.3356  -13.5198   25.7454 C   0  0  0  0  0  0  0  0  0  0  0  0
    5.8728  -12.2330   25.5723 C   0  0  0  0  0  0  0  0  0  0  0  0
    6.7201  -11.1660   25.8867 C   0  0  0  0  0  0  0  0  0  0  0  0
    7.9905  -11.4185   26.3597 C   0  0  0  0  0  0  0  0  0  0  0  0
    8.4289  -12.7109   26.5230 C   0  0  0  0  0  0  0  0  0  0  0  0
    7.6028  -13.7978   26.2155 C   0  0  0  0  0  0  0  0  0  0  0  0
   10.5572  -17.6606   26.0472 C   0  0  0  0  0  0  0  0  0  0  0  0
   11.4481  -17.5600   26.9563 O   0  0  0  0  0  0  0  0  0  0  0  0
   10.3790  -18.9086   25.4948 O   0  0  0  0  0  0  0  0  0  0  0  0
  2  1  1  6
  2  3  1  0
  3  4  1  0
  4  8  1  0
  5  4  2  0
  6  2  1  0
  7  6  2  0
  9  6  1  0
 10  9  1  0
 10 11  1  6
 11 12  1  0
 12 13  1  0
 13 14  1  0
 14 15  1  0
 16 18  1  0
 16 10  1  0
 17 16  2  0
 19 18  1  0
 19 20  1  1
 21 20  1  0
 21 29  1  0
 22 23  1  0
 22 21  2  0
 23 24  1  0
 24 25  1  0
 24 29  2  0
 25 26  2  0
 26 27  1  0
 28 27  2  0
 29 28  1  0
 30 19  1  0
 30 32  1  0
 31 30  2  0
M  END
$$$$
