DKW.pdb
     RDKit          3D

 32 33  0  0  1  0  0  0  0  0999 V2000
   10.3974  -15.8975   19.0410 N   0  0  0  0  0  0  0  0  0  0  0  0
   11.2577  -16.3469   20.0903 C   0  0  1  0  0  0  0  0  0  0  0  0
   12.2998  -15.2936   20.4000 C   0  0  0  0  0  0  0  0  0  0  0  0
   13.2920  -15.1617   19.3153 C   0  0  0  0  0  0  0  0  0  0  0  0
   13.4952  -15.9959   18.4234 O   0  0  0  0  0  0  0  0  0  0  0  0
   10.4793  -16.5614   21.3677 C   0  0  0  0  0  0  0  0  0  0  0  0
    9.8034  -15.6020   21.7868 O   0  0  0  0  0  0  0  0  0  0  0  0
   14.0573  -13.9877   19.3122 O   0  0  0  0  0  0  0  0  0  0  0  0
   10.5222  -17.8013   22.0519 N   0  0  0  0  0  0  0  0  0  0  0  0
    9.8256  -18.1775   23.2294 C   0  0  1  0  0  0  0  0  0  0  0  0
    9.6131  -19.6749   23.3464 C   0  0  0  0  0  0  0  0  0  0  0  0
    8.8532  -20.0536   24.5587 C   0  0  0  0  0  0  0  0  0  0  0  0
    8.6913  -21.5260   24.7081 C   0  0  0  0  0  0  0  0  0  0  0  0
    7.8097  -22.0215   25.7935 C   0  0  0  0  0  0  0  0  0  0  0  0
    6.5201  -22.4230   25.3032 N   0  0  0  0  0  0  0  0  0  0  0  0
   10.2428  -17.5267   24.4871 C   0  0  0  0  0  0  0  0  0  0  0  0
   11.4499  -17.3387   24.7305 O   0  0  0  0  0  0  0  0  0  0  0  0
    9.3126  -17.1022   25.4393 N   0  0  0  0  0  0  0  0  0  0  0  0
    9.7355  -16.4782   26.7147 C   0  0  1  0  0  0  0  0  0  0  0  0
    8.5600  -15.8748   27.3908 C   0  0  0  0  0  0  0  0  0  0  0  0
    7.6458  -15.1031   26.5577 C   0  0  0  0  0  0  0  0  0  0  0  0
    6.5308  -15.5831   25.8542 C   0  0  0  0  0  0  0  0  0  0  0  0
    5.9435  -14.6001   25.1650 N   0  0  0  0  0  0  0  0  0  0  0  0
    6.6286  -13.4655   25.3819 C   0  0  0  0  0  0  0  0  0  0  0  0
    6.3936  -12.1950   24.9015 C   0  0  0  0  0  0  0  0  0  0  0  0
    7.2478  -11.1596   25.2932 C   0  0  0  0  0  0  0  0  0  0  0  0
    8.2992  -11.4260   26.1447 C   0  0  0  0  0  0  0  0  0  0  0  0
    8.5129  -12.7018   26.6096 C   0  0  0  0  0  0  0  0  0  0  0  0
    7.6745  -13.7573   26.2333 C   0  0  0  0  0  0  0  0  0  0  0  0
   10.4751  -17.3972   27.5489 C   0  0  0  0  0  0  0  0  0  0  0  0
   11.0017  -17.0297   28.6526 O   0  0  0  0  0  0  0  0  0  0  0  0
   10.6424  -18.7169   27.1959 O   0  0  0  0  0  0  0  0  0  0  0  0
  2  1  1  6
  2  3  1  0
  3  4  1  0
  4  8  1  0
  5  4  2  0
  6  2  1  0
  7  6  2  0
  9  6  1  0
 10  9  1  0
 10 11  1  1
 11 12  1  0
 12 13  1  0
 13 14  1  0
 14 15  1  0
 16 18  1  0
 16 10  1  0
 17 16  2  0
 19 18  1  0
 19 20  1  1
 21 20  1  0
 21 29  1  0
 22 23  1  0
 22 21  2  0
 23 24  1  0
 24 25  1  0
 24 29  2  0
 25 26  2  0
 26 27  1  0
 28 27  2  0
 29 28  1  0
 30 19  1  0
 30 32  1  0
 31 30  2  0
M  END
$$$$
