DKW.pdb
     RDKit          3D

 32 33  0  0  1  0  0  0  0  0999 V2000
   12.5061  -15.4254   18.9716 N   0  0  0  0  0  0  0  0  0  0  0  0
   12.2308  -16.5699   19.7823 C   0  0  1  0  0  0  0  0  0  0  0  0
   13.5237  -17.2076   20.2440 C   0  0  0  0  0  0  0  0  0  0  0  0
   14.3523  -17.6611   19.1100 C   0  0  0  0  0  0  0  0  0  0  0  0
   13.9591  -18.3646   18.1702 O   0  0  0  0  0  0  0  0  0  0  0  0
   11.4831  -16.1735   21.0343 C   0  0  0  0  0  0  0  0  0  0  0  0
   12.1073  -16.2376   22.1108 O   0  0  0  0  0  0  0  0  0  0  0  0
   15.6923  -17.2508   19.1158 O   0  0  0  0  0  0  0  0  0  0  0  0
   10.1324  -15.7494   20.9772 N   0  0  0  0  0  0  0  0  0  0  0  0
    9.2235  -15.5704   22.0520 C   0  0  1  0  0  0  0  0  0  0  0  0
    7.9206  -14.9172   21.6315 C   0  0  0  0  0  0  0  0  0  0  0  0
    8.1254  -13.6499   20.8951 C   0  0  0  0  0  0  0  0  0  0  0  0
    8.1645  -13.8343   19.4183 C   0  0  0  0  0  0  0  0  0  0  0  0
    8.3115  -12.6256   18.5708 C   0  0  0  0  0  0  0  0  0  0  0  0
    8.1473  -12.9201   17.1740 N   0  0  0  0  0  0  0  0  0  0  0  0
    9.0575  -16.7061   22.9805 C   0  0  0  0  0  0  0  0  0  0  0  0
   10.0535  -17.2839   23.4557 O   0  0  0  0  0  0  0  0  0  0  0  0
    7.7944  -17.1698   23.3569 N   0  0  0  0  0  0  0  0  0  0  0  0
    7.4113  -17.3122   24.7809 C   0  0  1  0  0  0  0  0  0  0  0  0
    7.5348  -16.0014   25.4661 C   0  0  0  0  0  0  0  0  0  0  0  0
    8.4319  -15.9405   26.6136 C   0  0  0  0  0  0  0  0  0  0  0  0
    9.0840  -17.0150   27.2372 C   0  0  0  0  0  0  0  0  0  0  0  0
    9.8003  -16.5942   28.2841 N   0  0  0  0  0  0  0  0  0  0  0  0
    9.6533  -15.2633   28.3881 C   0  0  0  0  0  0  0  0  0  0  0  0
   10.2100  -14.3890   29.2968 C   0  0  0  0  0  0  0  0  0  0  0  0
    9.9181  -13.0262   29.1839 C   0  0  0  0  0  0  0  0  0  0  0  0
    9.0870  -12.5863   28.1753 C   0  0  0  0  0  0  0  0  0  0  0  0
    8.5437  -13.4783   27.2818 C   0  0  0  0  0  0  0  0  0  0  0  0
    8.8178  -14.8478   27.3715 C   0  0  0  0  0  0  0  0  0  0  0  0
    6.1122  -17.9258   24.9341 C   0  0  0  0  0  0  0  0  0  0  0  0
    5.1287  -17.6167   24.1808 O   0  0  0  0  0  0  0  0  0  0  0  0
    5.8741  -18.8794   25.8977 O   0  0  0  0  0  0  0  0  0  0  0  0
  2  1  1  6
  2  3  1  0
  3  4  1  0
  4  8  1  0
  5  4  2  0
  6  2  1  0
  7  6  2  0
  9  6  1  0
 10  9  1  0
 10 11  1  6
 11 12  1  0
 12 13  1  0
 13 14  1  0
 14 15  1  0
 16 18  1  0
 16 10  1  0
 17 16  2  0
 19 18  1  0
 19 20  1  6
 21 20  1  0
 21 29  1  0
 22 23  1  0
 22 21  2  0
 23 24  1  0
 24 25  1  0
 24 29  2  0
 25 26  2  0
 26 27  1  0
 28 27  2  0
 29 28  1  0
 30 19  1  0
 30 32  1  0
 31 30  2  0
M  END
$$$$
