DKW.pdb
     RDKit          3D

 32 33  0  0  1  0  0  0  0  0999 V2000
   10.2177  -19.8629   19.5532 N   0  0  0  0  0  0  0  0  0  0  0  0
    9.3231  -19.2738   20.4997 C   0  0  1  0  0  0  0  0  0  0  0  0
    9.1520  -20.1857   21.6959 C   0  0  0  0  0  0  0  0  0  0  0  0
    8.5670  -21.4873   21.3195 C   0  0  0  0  0  0  0  0  0  0  0  0
    8.3779  -21.8811   20.1612 O   0  0  0  0  0  0  0  0  0  0  0  0
    9.8844  -17.9760   21.0331 C   0  0  0  0  0  0  0  0  0  0  0  0
   11.1249  -17.8583   21.0455 O   0  0  0  0  0  0  0  0  0  0  0  0
    8.2019  -22.3334   22.3754 O   0  0  0  0  0  0  0  0  0  0  0  0
    9.0307  -16.9447   21.4966 N   0  0  0  0  0  0  0  0  0  0  0  0
    9.3869  -15.6451   21.9409 C   0  0  1  0  0  0  0  0  0  0  0  0
    8.5254  -14.5503   21.3407 C   0  0  0  0  0  0  0  0  0  0  0  0
    8.5194  -14.5711   19.8609 C   0  0  0  0  0  0  0  0  0  0  0  0
    7.7447  -13.4476   19.2659 C   0  0  0  0  0  0  0  0  0  0  0  0
    7.5983  -13.4093   17.7901 C   0  0  0  0  0  0  0  0  0  0  0  0
    6.7837  -12.3086   17.3548 N   0  0  0  0  0  0  0  0  0  0  0  0
    9.6501  -15.4832   23.3845 C   0  0  0  0  0  0  0  0  0  0  0  0
   10.0434  -14.3909   23.8360 O   0  0  0  0  0  0  0  0  0  0  0  0
    9.4701  -16.5343   24.2873 N   0  0  0  0  0  0  0  0  0  0  0  0
    9.9319  -16.4401   25.6919 C   0  0  1  0  0  0  0  0  0  0  0  0
    8.7623  -16.4548   26.6055 C   0  0  0  0  0  0  0  0  0  0  0  0
    7.6661  -15.5483   26.2860 C   0  0  0  0  0  0  0  0  0  0  0  0
    6.4273  -15.8837   25.7191 C   0  0  0  0  0  0  0  0  0  0  0  0
    5.6787  -14.7926   25.5315 N   0  0  0  0  0  0  0  0  0  0  0  0
    6.3747  -13.7255   25.9564 C   0  0  0  0  0  0  0  0  0  0  0  0
    6.0118  -12.3959   25.9801 C   0  0  0  0  0  0  0  0  0  0  0  0
    6.9147  -11.4619   26.4974 C   0  0  0  0  0  0  0  0  0  0  0  0
    8.1394  -11.8841   26.9699 C   0  0  0  0  0  0  0  0  0  0  0  0
    8.4780  -13.2157   26.9348 C   0  0  0  0  0  0  0  0  0  0  0  0
    7.5946  -14.1722   26.4218 C   0  0  0  0  0  0  0  0  0  0  0  0
   10.9240  -17.4428   26.0048 C   0  0  0  0  0  0  0  0  0  0  0  0
   11.2722  -18.3326   25.1577 O   0  0  0  0  0  0  0  0  0  0  0  0
   11.5469  -17.4830   27.2315 O   0  0  0  0  0  0  0  0  0  0  0  0
  2  1  1  6
  2  3  1  0
  3  4  1  0
  4  8  1  0
  5  4  2  0
  6  2  1  0
  7  6  2  0
  9  6  1  0
 10  9  1  0
 10 11  1  1
 11 12  1  0
 12 13  1  0
 13 14  1  0
 14 15  1  0
 16 18  1  0
 16 10  1  0
 17 16  2  0
 19 18  1  0
 19 20  1  1
 21 20  1  0
 21 29  1  0
 22 23  1  0
 22 21  2  0
 23 24  1  0
 24 25  1  0
 24 29  2  0
 25 26  2  0
 26 27  1  0
 28 27  2  0
 29 28  1  0
 30 19  1  0
 30 32  1  0
 31 30  2  0
M  END
$$$$
