DKW.pdb
     RDKit          3D

 32 33  0  0  1  0  0  0  0  0999 V2000
   13.4215  -15.7731   17.3723 N   0  0  0  0  0  0  0  0  0  0  0  0
   13.6514  -15.6596   18.7784 C   0  0  1  0  0  0  0  0  0  0  0  0
   14.2115  -14.2925   19.1085 C   0  0  0  0  0  0  0  0  0  0  0  0
   15.5323  -14.0718   18.4882 C   0  0  0  0  0  0  0  0  0  0  0  0
   16.5267  -14.7931   18.6414 O   0  0  0  0  0  0  0  0  0  0  0  0
   12.3554  -15.7831   19.5458 C   0  0  0  0  0  0  0  0  0  0  0  0
   11.8709  -14.7338   20.0116 O   0  0  0  0  0  0  0  0  0  0  0  0
   15.6502  -12.9471   17.6604 O   0  0  0  0  0  0  0  0  0  0  0  0
   11.7264  -17.0403   19.7232 N   0  0  0  0  0  0  0  0  0  0  0  0
   10.5058  -17.3237   20.3887 C   0  0  1  0  0  0  0  0  0  0  0  0
    9.9130  -18.6664   20.0056 C   0  0  0  0  0  0  0  0  0  0  0  0
    8.6249  -18.9390   20.6816 C   0  0  0  0  0  0  0  0  0  0  0  0
    8.0984  -20.3034   20.4029 C   0  0  0  0  0  0  0  0  0  0  0  0
    6.7568  -20.6519   20.9318 C   0  0  0  0  0  0  0  0  0  0  0  0
    6.2008  -21.8057   20.2806 N   0  0  0  0  0  0  0  0  0  0  0  0
   10.4512  -17.0299   21.8344 C   0  0  0  0  0  0  0  0  0  0  0  0
   11.3249  -17.4752   22.6027 O   0  0  0  0  0  0  0  0  0  0  0  0
    9.4318  -16.2517   22.3888 N   0  0  0  0  0  0  0  0  0  0  0  0
    9.4025  -15.9237   23.8333 C   0  0  1  0  0  0  0  0  0  0  0  0
    8.7034  -14.6307   24.0390 C   0  0  0  0  0  0  0  0  0  0  0  0
    8.2194  -14.3510   25.3855 C   0  0  0  0  0  0  0  0  0  0  0  0
    8.3061  -15.1884   26.5079 C   0  0  0  0  0  0  0  0  0  0  0  0
    7.7242  -14.6228   27.5698 N   0  0  0  0  0  0  0  0  0  0  0  0
    7.2454  -13.4238   27.1995 C   0  0  0  0  0  0  0  0  0  0  0  0
    6.5851  -12.4747   27.9499 C   0  0  0  0  0  0  0  0  0  0  0  0
    6.2002  -11.2796   27.3344 C   0  0  0  0  0  0  0  0  0  0  0  0
    6.4859  -11.0746   26.0010 C   0  0  0  0  0  0  0  0  0  0  0  0
    7.1451  -12.0370   25.2740 C   0  0  0  0  0  0  0  0  0  0  0  0
    7.5411  -13.2427   25.8639 C   0  0  0  0  0  0  0  0  0  0  0  0
    8.8633  -17.0059   24.6242 C   0  0  0  0  0  0  0  0  0  0  0  0
    9.3600  -17.3244   25.7566 O   0  0  0  0  0  0  0  0  0  0  0  0
    7.7825  -17.7430   24.1964 O   0  0  0  0  0  0  0  0  0  0  0  0
  2  1  1  6
  2  3  1  0
  3  4  1  0
  4  8  1  0
  5  4  2  0
  6  2  1  0
  7  6  2  0
  9  6  1  0
 10  9  1  0
 10 11  1  1
 11 12  1  0
 12 13  1  0
 13 14  1  0
 14 15  1  0
 16 18  1  0
 16 10  1  0
 17 16  2  0
 19 18  1  0
 19 20  1  6
 21 20  1  0
 21 29  1  0
 22 23  1  0
 22 21  2  0
 23 24  1  0
 24 25  1  0
 24 29  2  0
 25 26  2  0
 26 27  1  0
 28 27  2  0
 29 28  1  0
 30 19  1  0
 30 32  1  0
 31 30  2  0
M  END
$$$$
