DKW.pdb
     RDKit          3D

 32 33  0  0  1  0  0  0  0  0999 V2000
   12.8177  -17.8487   19.8584 N   0  0  0  0  0  0  0  0  0  0  0  0
   13.1765  -16.9532   20.9130 C   0  0  1  0  0  0  0  0  0  0  0  0
   13.6629  -15.6388   20.3409 C   0  0  0  0  0  0  0  0  0  0  0  0
   14.9117  -15.7994   19.5708 C   0  0  0  0  0  0  0  0  0  0  0  0
   15.8647  -16.5216   19.8915 O   0  0  0  0  0  0  0  0  0  0  0  0
   11.9757  -16.6240   21.7695 C   0  0  0  0  0  0  0  0  0  0  0  0
   12.1281  -15.7529   22.6474 O   0  0  0  0  0  0  0  0  0  0  0  0
   15.0070  -15.0653   18.3808 O   0  0  0  0  0  0  0  0  0  0  0  0
   10.7359  -17.2820   21.5760 N   0  0  0  0  0  0  0  0  0  0  0  0
    9.6530  -17.3968   22.4856 C   0  0  1  0  0  0  0  0  0  0  0  0
    8.6075  -18.4047   22.0472 C   0  0  0  0  0  0  0  0  0  0  0  0
    7.4955  -18.5359   23.0151 C   0  0  0  0  0  0  0  0  0  0  0  0
    6.3973  -19.4135   22.5248 C   0  0  0  0  0  0  0  0  0  0  0  0
    5.1992  -19.5735   23.3849 C   0  0  0  0  0  0  0  0  0  0  0  0
    4.2849  -20.5517   22.8637 N   0  0  0  0  0  0  0  0  0  0  0  0
    9.9925  -17.4643   23.9207 C   0  0  0  0  0  0  0  0  0  0  0  0
   10.1801  -18.5645   24.4741 O   0  0  0  0  0  0  0  0  0  0  0  0
   10.1152  -16.3128   24.7024 N   0  0  0  0  0  0  0  0  0  0  0  0
   10.0048  -16.3604   26.1790 C   0  0  1  0  0  0  0  0  0  0  0  0
    8.6181  -16.7213   26.5660 C   0  0  0  0  0  0  0  0  0  0  0  0
    7.5818  -15.7304   26.3015 C   0  0  0  0  0  0  0  0  0  0  0  0
    6.2529  -15.9746   25.9238 C   0  0  0  0  0  0  0  0  0  0  0  0
    5.5947  -14.8277   25.7302 N   0  0  0  0  0  0  0  0  0  0  0  0
    6.4400  -13.8113   25.9669 C   0  0  0  0  0  0  0  0  0  0  0  0
    6.2131  -12.4527   25.9128 C   0  0  0  0  0  0  0  0  0  0  0  0
    7.2618  -11.5831   26.2278 C   0  0  0  0  0  0  0  0  0  0  0  0
    8.4916  -12.0957   26.5834 C   0  0  0  0  0  0  0  0  0  0  0  0
    8.6928  -13.4546   26.6293 C   0  0  0  0  0  0  0  0  0  0  0  0
    7.6616  -14.3482   26.3182 C   0  0  0  0  0  0  0  0  0  0  0  0
   11.0114  -17.2113   26.7709 C   0  0  0  0  0  0  0  0  0  0  0  0
   11.1309  -17.3325   28.0364 O   0  0  0  0  0  0  0  0  0  0  0  0
   11.8874  -17.9380   25.9970 O   0  0  0  0  0  0  0  0  0  0  0  0
  2  1  1  6
  2  3  1  0
  3  4  1  0
  4  8  1  0
  5  4  2  0
  6  2  1  0
  7  6  2  0
  9  6  1  0
 10  9  1  0
 10 11  1  6
 11 12  1  0
 12 13  1  0
 13 14  1  0
 14 15  1  0
 16 18  1  0
 16 10  1  0
 17 16  2  0
 19 18  1  0
 19 20  1  6
 21 20  1  0
 21 29  1  0
 22 23  1  0
 22 21  2  0
 23 24  1  0
 24 25  1  0
 24 29  2  0
 25 26  2  0
 26 27  1  0
 28 27  2  0
 29 28  1  0
 30 19  1  0
 30 32  1  0
 31 30  2  0
M  END
$$$$
