DKW.pdb
     RDKit          3D

 32 33  0  0  1  0  0  0  0  0999 V2000
   10.9559  -18.5957   18.0326 N   0  0  0  0  0  0  0  0  0  0  0  0
   11.6542  -17.6330   18.8253 C   0  0  1  0  0  0  0  0  0  0  0  0
   11.9520  -16.3963   18.0048 C   0  0  0  0  0  0  0  0  0  0  0  0
   13.0449  -16.6234   17.0393 C   0  0  0  0  0  0  0  0  0  0  0  0
   12.9456  -17.2533   15.9781 O   0  0  0  0  0  0  0  0  0  0  0  0
   10.8032  -17.1757   19.9874 C   0  0  0  0  0  0  0  0  0  0  0  0
   11.1077  -16.0911   20.5199 O   0  0  0  0  0  0  0  0  0  0  0  0
   14.2905  -16.0724   17.3692 O   0  0  0  0  0  0  0  0  0  0  0  0
    9.7098  -17.9523   20.4445 N   0  0  0  0  0  0  0  0  0  0  0  0
    8.9138  -17.7500   21.6015 C   0  0  1  0  0  0  0  0  0  0  0  0
    7.7262  -18.6902   21.6828 C   0  0  0  0  0  0  0  0  0  0  0  0
    7.4179  -19.3385   20.3886 C   0  0  0  0  0  0  0  0  0  0  0  0
    6.3471  -20.3676   20.4933 C   0  0  0  0  0  0  0  0  0  0  0  0
    5.9738  -21.1096   19.2640 C   0  0  0  0  0  0  0  0  0  0  0  0
    4.8964  -22.0319   19.4941 N   0  0  0  0  0  0  0  0  0  0  0  0
    9.6299  -17.5699   22.8799 C   0  0  0  0  0  0  0  0  0  0  0  0
   10.6763  -18.2046   23.1124 O   0  0  0  0  0  0  0  0  0  0  0  0
    9.1682  -16.6924   23.8643 N   0  0  0  0  0  0  0  0  0  0  0  0
    9.9037  -16.4930   25.1347 C   0  0  1  0  0  0  0  0  0  0  0  0
    9.6910  -15.1081   25.6244 C   0  0  0  0  0  0  0  0  0  0  0  0
    8.3157  -14.6253   25.6566 C   0  0  0  0  0  0  0  0  0  0  0  0
    7.1456  -15.3946   25.5698 C   0  0  0  0  0  0  0  0  0  0  0  0
    6.0604  -14.6149   25.5962 N   0  0  0  0  0  0  0  0  0  0  0  0
    6.4615  -13.3373   25.6995 C   0  0  0  0  0  0  0  0  0  0  0  0
    5.7073  -12.1862   25.7785 C   0  0  0  0  0  0  0  0  0  0  0  0
    6.3653  -10.9588   25.9039 C   0  0  0  0  0  0  0  0  0  0  0  0
    7.7432  -10.9231   25.9460 C   0  0  0  0  0  0  0  0  0  0  0  0
    8.4728  -12.0851   25.8647 C   0  0  0  0  0  0  0  0  0  0  0  0
    7.8408  -13.3272   25.7377 C   0  0  0  0  0  0  0  0  0  0  0  0
    9.5839  -17.5084   26.1116 C   0  0  0  0  0  0  0  0  0  0  0  0
    8.5649  -18.2674   25.9846 O   0  0  0  0  0  0  0  0  0  0  0  0
   10.3674  -17.7104   27.2250 O   0  0  0  0  0  0  0  0  0  0  0  0
  2  1  1  6
  2  3  1  0
  3  4  1  0
  4  8  1  0
  5  4  2  0
  6  2  1  0
  7  6  2  0
  9  6  1  0
 10  9  1  0
 10 11  1  1
 11 12  1  0
 12 13  1  0
 13 14  1  0
 14 15  1  0
 16 18  1  0
 16 10  1  0
 17 16  2  0
 19 18  1  0
 19 20  1  1
 21 20  1  0
 21 29  1  0
 22 23  1  0
 22 21  2  0
 23 24  1  0
 24 25  1  0
 24 29  2  0
 25 26  2  0
 26 27  1  0
 28 27  2  0
 29 28  1  0
 30 19  1  0
 30 32  1  0
 31 30  2  0
M  END
$$$$
