ANH.pdb
     RDKit          3D

 24 24  0  0  1  0  0  0  0  0999 V2000
    6.8057  -13.4838   18.5667 C   0  0  0  0  0  0  0  0  0  0  0  0
    7.9520  -14.0906   17.7541 C   0  0  2  0  0  0  0  0  0  0  0  0
    7.4868  -14.4798   16.4439 N   0  0  0  0  0  0  0  0  0  0  0  0
    8.4425  -15.2518   18.5395 C   0  0  0  0  0  0  0  0  0  0  0  0
    8.8641  -15.0645   19.7071 O   0  0  0  0  0  0  0  0  0  0  0  0
    6.4225  -19.7253   17.7639 N   0  0  0  0  0  0  0  0  0  0  0  0
    7.5768  -19.1342   17.2007 C   0  0  0  0  0  0  0  0  0  0  0  0
    7.5347  -18.7538   16.0136 O   0  0  0  0  0  0  0  0  0  0  0  0
    8.7855  -18.9788   18.0041 C   0  0  0  0  0  0  0  0  0  0  0  0
    8.8539  -17.7199   18.8238 C   0  0  2  0  0  0  0  0  0  0  0  0
    8.4660  -16.5870   18.0452 N   0  0  0  0  0  0  0  0  0  0  0  0
   10.2071  -17.5908   19.4248 C   0  0  0  0  0  0  0  0  0  0  0  0
   11.1793  -17.5266   18.6442 O   0  0  0  0  0  0  0  0  0  0  0  0
   10.4334  -17.5389   20.8150 N   0  0  0  0  0  0  0  0  0  0  0  0
   11.7690  -17.3781   21.4010 C   0  0  1  0  0  0  0  0  0  0  0  0
   11.9255  -16.0067   22.0101 C   0  0  0  0  0  0  0  0  0  0  0  0
   12.0129  -15.0011   20.9220 C   0  0  0  0  0  0  0  0  0  0  0  0
   11.9366  -15.2664   19.5693 C   0  0  0  0  0  0  0  0  0  0  0  0
   12.0546  -14.1191   18.8839 N   0  0  0  0  0  0  0  0  0  0  0  0
   12.2026  -13.1508   19.8003 C   0  0  0  0  0  0  0  0  0  0  0  0
   12.1789  -13.6734   21.0382 N   0  0  0  0  0  0  0  0  0  0  0  0
   11.9646  -18.4787   22.3625 C   0  0  0  0  0  0  0  0  0  0  0  0
   13.2110  -18.7123   22.9758 O   0  0  0  0  0  0  0  0  0  0  0  0
   11.0593  -19.2823   22.7086 O   0  0  0  0  0  0  0  0  0  0  0  0
  2  1  1  1
  3  2  1  0
  4  2  1  0
  5  4  2  0
  6  7  1  0
  7  8  2  0
  9  7  1  0
 10  9  1  6
 10 11  1  0
 10 12  1  0
 11  4  1  0
 12 14  1  0
 13 12  2  0
 14 15  1  0
 15 16  1  1
 15 22  1  0
 17 18  2  0
 17 16  1  0
 19 18  1  0
 20 21  2  0
 20 19  1  0
 21 17  1  0
 22 23  1  0
 24 22  2  0
M  END
$$$$
