ANH.pdb
     RDKit          3D

 24 24  0  0  1  0  0  0  0  0999 V2000
    9.7456  -17.8830   14.6444 C   0  0  0  0  0  0  0  0  0  0  0  0
    9.6867  -16.3775   14.3759 C   0  0  2  0  0  0  0  0  0  0  0  0
   10.7359  -15.9895   13.4630 N   0  0  0  0  0  0  0  0  0  0  0  0
    9.8269  -15.7183   15.6993 C   0  0  0  0  0  0  0  0  0  0  0  0
   10.9767  -15.5003   16.1538 O   0  0  0  0  0  0  0  0  0  0  0  0
    7.6949  -12.1797   19.7188 N   0  0  0  0  0  0  0  0  0  0  0  0
    7.5453  -13.5805   19.5997 C   0  0  0  0  0  0  0  0  0  0  0  0
    7.4321  -14.2599   20.6395 O   0  0  0  0  0  0  0  0  0  0  0  0
    7.5254  -14.2048   18.2804 C   0  0  0  0  0  0  0  0  0  0  0  0
    8.8487  -14.7344   17.8010 C   0  0  2  0  0  0  0  0  0  0  0  0
    8.7222  -15.3104   16.5000 N   0  0  0  0  0  0  0  0  0  0  0  0
    9.4053  -15.6707   18.8121 C   0  0  0  0  0  0  0  0  0  0  0  0
    9.2004  -16.8903   18.6410 O   0  0  0  0  0  0  0  0  0  0  0  0
   10.1417  -15.2456   19.9362 N   0  0  0  0  0  0  0  0  0  0  0  0
   10.8950  -16.1685   20.7929 C   0  0  1  0  0  0  0  0  0  0  0  0
   12.3792  -16.0179   20.5681 C   0  0  0  0  0  0  0  0  0  0  0  0
   13.1000  -16.9873   21.4306 C   0  0  0  0  0  0  0  0  0  0  0  0
   12.5133  -17.9148   22.2681 C   0  0  0  0  0  0  0  0  0  0  0  0
   13.4701  -18.6194   22.8910 N   0  0  0  0  0  0  0  0  0  0  0  0
   14.6392  -18.1354   22.4457 C   0  0  0  0  0  0  0  0  0  0  0  0
   14.4272  -17.1465   21.5607 N   0  0  0  0  0  0  0  0  0  0  0  0
   10.4787  -15.9180   22.1850 C   0  0  0  0  0  0  0  0  0  0  0  0
    9.5385  -14.9200   22.5077 O   0  0  0  0  0  0  0  0  0  0  0  0
   10.9158  -16.5571   23.1778 O   0  0  0  0  0  0  0  0  0  0  0  0
  2  1  1  1
  3  2  1  0
  4  2  1  0
  5  4  2  0
  6  7  1  0
  7  8  2  0
  9  7  1  0
 10  9  1  1
 10 11  1  0
 10 12  1  0
 11  4  1  0
 12 14  1  0
 13 12  2  0
 14 15  1  0
 15 16  1  1
 15 22  1  0
 17 18  2  0
 17 16  1  0
 19 18  1  0
 20 21  2  0
 20 19  1  0
 21 17  1  0
 22 23  1  0
 24 22  2  0
M  END
$$$$
