ANH.pdb
     RDKit          3D

 24 24  0  0  1  0  0  0  0  0999 V2000
    7.4283  -23.4919   23.3405 C   0  0  0  0  0  0  0  0  0  0  0  0
    8.2617  -24.3834   24.2642 C   0  0  2  0  0  0  0  0  0  0  0  0
    7.6560  -25.6887   24.3818 N   0  0  0  0  0  0  0  0  0  0  0  0
    8.3242  -23.6778   25.5696 C   0  0  0  0  0  0  0  0  0  0  0  0
    8.8204  -22.5256   25.6173 O   0  0  0  0  0  0  0  0  0  0  0  0
    5.5330  -22.2723   27.2823 N   0  0  0  0  0  0  0  0  0  0  0  0
    5.4803  -23.1046   28.4240 C   0  0  0  0  0  0  0  0  0  0  0  0
    4.4014  -23.2036   29.0420 O   0  0  0  0  0  0  0  0  0  0  0  0
    6.6718  -23.8270   28.8587 C   0  0  0  0  0  0  0  0  0  0  0  0
    7.9127  -23.5629   28.0514 C   0  0  2  0  0  0  0  0  0  0  0  0
    7.8495  -24.2334   26.7917 N   0  0  0  0  0  0  0  0  0  0  0  0
    9.1126  -23.9190   28.8528 C   0  0  0  0  0  0  0  0  0  0  0  0
    9.3971  -25.1302   28.9553 O   0  0  0  0  0  0  0  0  0  0  0  0
    9.9278  -22.9622   29.4905 N   0  0  0  0  0  0  0  0  0  0  0  0
   11.1010  -23.3217   30.2950 C   0  0  1  0  0  0  0  0  0  0  0  0
   12.0993  -22.1909   30.3221 C   0  0  0  0  0  0  0  0  0  0  0  0
   12.7976  -22.1304   29.0137 C   0  0  0  0  0  0  0  0  0  0  0  0
   12.6528  -23.0326   27.9787 C   0  0  0  0  0  0  0  0  0  0  0  0
   13.4361  -22.6632   26.9541 N   0  0  0  0  0  0  0  0  0  0  0  0
   14.0614  -21.5435   27.3476 C   0  0  0  0  0  0  0  0  0  0  0  0
   13.6822  -21.2115   28.5934 N   0  0  0  0  0  0  0  0  0  0  0  0
   10.6165  -23.7157   31.6307 C   0  0  0  0  0  0  0  0  0  0  0  0
    9.2561  -23.6178   31.9826 O   0  0  0  0  0  0  0  0  0  0  0  0
   11.3568  -24.1613   32.5465 O   0  0  0  0  0  0  0  0  0  0  0  0
  2  1  1  6
  3  2  1  0
  4  2  1  0
  5  4  2  0
  6  7  1  0
  7  8  2  0
  9  7  1  0
 10  9  1  1
 10 11  1  0
 10 12  1  0
 11  4  1  0
 12 14  1  0
 13 12  2  0
 14 15  1  0
 15 16  1  1
 15 22  1  0
 17 18  2  0
 17 16  1  0
 19 18  1  0
 20 21  2  0
 20 19  1  0
 21 17  1  0
 22 23  1  0
 24 22  2  0
M  END
$$$$
