ANH.pdb
     RDKit          3D

 24 24  0  0  1  0  0  0  0  0999 V2000
   15.4951  -16.8901   12.3309 C   0  0  0  0  0  0  0  0  0  0  0  0
   13.9805  -17.0583   12.1889 C   0  0  2  0  0  0  0  0  0  0  0  0
   13.5065  -16.3629   11.0158 N   0  0  0  0  0  0  0  0  0  0  0  0
   13.3879  -16.5143   13.4373 C   0  0  0  0  0  0  0  0  0  0  0  0
   12.2585  -15.9681   13.3891 O   0  0  0  0  0  0  0  0  0  0  0  0
   10.2843  -16.0501   16.8630 N   0  0  0  0  0  0  0  0  0  0  0  0
   11.2129  -17.0944   17.0777 C   0  0  0  0  0  0  0  0  0  0  0  0
   11.1558  -17.7343   18.1467 O   0  0  0  0  0  0  0  0  0  0  0  0
   12.2121  -17.4058   16.0602 C   0  0  0  0  0  0  0  0  0  0  0  0
   13.3469  -16.4249   15.9537 C   0  0  2  0  0  0  0  0  0  0  0  0
   14.0290  -16.5731   14.7074 N   0  0  0  0  0  0  0  0  0  0  0  0
   14.2365  -16.5633   17.1362 C   0  0  0  0  0  0  0  0  0  0  0  0
   15.4292  -16.8666   16.9264 O   0  0  0  0  0  0  0  0  0  0  0  0
   13.7964  -16.3695   18.4611 N   0  0  0  0  0  0  0  0  0  0  0  0
   14.4175  -15.4049   19.3758 C   0  0  1  0  0  0  0  0  0  0  0  0
   14.4174  -14.0206   18.7758 C   0  0  0  0  0  0  0  0  0  0  0  0
   15.7726  -13.7213   18.2496 C   0  0  0  0  0  0  0  0  0  0  0  0
   16.7579  -14.6503   17.9810 C   0  0  0  0  0  0  0  0  0  0  0  0
   17.8487  -14.0206   17.5190 N   0  0  0  0  0  0  0  0  0  0  0  0
   17.5452  -12.7141   17.5004 C   0  0  0  0  0  0  0  0  0  0  0  0
   16.2903  -12.5211   17.9408 N   0  0  0  0  0  0  0  0  0  0  0  0
   13.7021  -15.4925   20.6622 C   0  0  0  0  0  0  0  0  0  0  0  0
   12.5338  -16.2657   20.8077 O   0  0  0  0  0  0  0  0  0  0  0  0
   14.0642  -14.8998   21.7124 O   0  0  0  0  0  0  0  0  0  0  0  0
  2  1  1  1
  3  2  1  0
  4  2  1  0
  5  4  2  0
  6  7  1  0
  7  8  2  0
  9  7  1  0
 10  9  1  1
 10 11  1  0
 10 12  1  0
 11  4  1  0
 12 14  1  0
 13 12  2  0
 14 15  1  0
 15 16  1  6
 15 22  1  0
 17 18  2  0
 17 16  1  0
 19 18  1  0
 20 21  2  0
 20 19  1  0
 21 17  1  0
 22 23  1  0
 24 22  2  0
M  END
$$$$
