ANH.pdb
     RDKit          3D

 24 24  0  0  1  0  0  0  0  0999 V2000
    6.8002  -13.0583   19.5155 C   0  0  0  0  0  0  0  0  0  0  0  0
    8.3219  -13.1378   19.3725 C   0  0  2  0  0  0  0  0  0  0  0  0
    8.6956  -13.1319   17.9779 N   0  0  0  0  0  0  0  0  0  0  0  0
    8.7338  -14.3909   20.0550 C   0  0  0  0  0  0  0  0  0  0  0  0
    8.5533  -14.4994   21.2926 O   0  0  0  0  0  0  0  0  0  0  0  0
    8.0856  -17.6646   17.0121 N   0  0  0  0  0  0  0  0  0  0  0  0
    8.1598  -17.9116   18.4022 C   0  0  0  0  0  0  0  0  0  0  0  0
    7.1048  -18.1474   19.0243 O   0  0  0  0  0  0  0  0  0  0  0  0
    9.4514  -17.8878   19.0819 C   0  0  0  0  0  0  0  0  0  0  0  0
    9.6614  -16.7320   20.0207 C   0  0  2  0  0  0  0  0  0  0  0  0
    9.3307  -15.4965   19.3846 N   0  0  0  0  0  0  0  0  0  0  0  0
   11.0477  -16.7709   20.5550 C   0  0  0  0  0  0  0  0  0  0  0  0
   11.5519  -17.8936   20.7647 O   0  0  0  0  0  0  0  0  0  0  0  0
   11.8027  -15.6129   20.8299 N   0  0  0  0  0  0  0  0  0  0  0  0
   13.1498  -15.6570   21.4098 C   0  0  1  0  0  0  0  0  0  0  0  0
   13.9640  -14.4672   20.9653 C   0  0  0  0  0  0  0  0  0  0  0  0
   14.4206  -14.6873   19.5702 C   0  0  0  0  0  0  0  0  0  0  0  0
   14.3536  -15.8795   18.8773 C   0  0  0  0  0  0  0  0  0  0  0  0
   14.8564  -15.7067   17.6455 N   0  0  0  0  0  0  0  0  0  0  0  0
   15.2322  -14.4210   17.5732 C   0  0  0  0  0  0  0  0  0  0  0  0
   14.9729  -13.7940   18.7332 N   0  0  0  0  0  0  0  0  0  0  0  0
   12.9975  -15.7567   22.8731 C   0  0  0  0  0  0  0  0  0  0  0  0
   11.7300  -15.7443   23.4873 O   0  0  0  0  0  0  0  0  0  0  0  0
   13.9610  -15.8586   23.6772 O   0  0  0  0  0  0  0  0  0  0  0  0
  2  1  1  6
  3  2  1  0
  4  2  1  0
  5  4  2  0
  6  7  1  0
  7  8  2  0
  9  7  1  0
 10  9  1  6
 10 11  1  0
 10 12  1  0
 11  4  1  0
 12 14  1  0
 13 12  2  0
 14 15  1  0
 15 16  1  1
 15 22  1  0
 17 18  2  0
 17 16  1  0
 19 18  1  0
 20 21  2  0
 20 19  1  0
 21 17  1  0
 22 23  1  0
 24 22  2  0
M  END
$$$$
