ANH.pdb
     RDKit          3D

 24 24  0  0  1  0  0  0  0  0999 V2000
   11.0083  -17.4829   15.5738 C   0  0  0  0  0  0  0  0  0  0  0  0
   10.7722  -16.4887   16.7132 C   0  0  2  0  0  0  0  0  0  0  0  0
   10.2331  -15.2529   16.1968 N   0  0  0  0  0  0  0  0  0  0  0  0
   12.0913  -16.2919   17.3667 C   0  0  0  0  0  0  0  0  0  0  0  0
   12.6872  -17.2856   17.8499 O   0  0  0  0  0  0  0  0  0  0  0  0
   17.1278  -13.9715   16.8958 N   0  0  0  0  0  0  0  0  0  0  0  0
   16.1545  -13.6055   17.8538 C   0  0  0  0  0  0  0  0  0  0  0  0
   16.5365  -13.2243   18.9782 O   0  0  0  0  0  0  0  0  0  0  0  0
   14.7354  -13.6774   17.5196 C   0  0  0  0  0  0  0  0  0  0  0  0
   13.9875  -14.8257   18.1389 C   0  0  2  0  0  0  0  0  0  0  0  0
   12.7349  -15.0269   17.4826 N   0  0  0  0  0  0  0  0  0  0  0  0
   13.8606  -14.6045   19.6031 C   0  0  0  0  0  0  0  0  0  0  0  0
   13.0020  -13.7843   19.9886 O   0  0  0  0  0  0  0  0  0  0  0  0
   14.6558  -15.2710   20.5571 N   0  0  0  0  0  0  0  0  0  0  0  0
   14.1756  -15.6071   21.9022 C   0  0  1  0  0  0  0  0  0  0  0  0
   12.9308  -16.4564   21.8303 C   0  0  0  0  0  0  0  0  0  0  0  0
   12.5282  -16.8423   23.2058 C   0  0  0  0  0  0  0  0  0  0  0  0
   12.3421  -15.9771   24.2654 C   0  0  0  0  0  0  0  0  0  0  0  0
   11.9821  -16.6762   25.3524 N   0  0  0  0  0  0  0  0  0  0  0  0
   11.9447  -17.9624   24.9730 C   0  0  0  0  0  0  0  0  0  0  0  0
   12.2737  -18.0748   23.6748 N   0  0  0  0  0  0  0  0  0  0  0  0
   15.2906  -16.2507   22.6210 C   0  0  0  0  0  0  0  0  0  0  0  0
   16.3373  -16.8976   21.9354 O   0  0  0  0  0  0  0  0  0  0  0  0
   15.4000  -16.2767   23.8751 O   0  0  0  0  0  0  0  0  0  0  0  0
  2  1  1  6
  3  2  1  0
  4  2  1  0
  5  4  2  0
  6  7  1  0
  7  8  2  0
  9  7  1  0
 10  9  1  6
 10 11  1  0
 10 12  1  0
 11  4  1  0
 12 14  1  0
 13 12  2  0
 14 15  1  0
 15 16  1  6
 15 22  1  0
 17 18  2  0
 17 16  1  0
 19 18  1  0
 20 21  2  0
 20 19  1  0
 21 17  1  0
 22 23  1  0
 24 22  2  0
M  END
$$$$
