ANH.pdb
     RDKit          3D

 24 24  0  0  1  0  0  0  0  0999 V2000
   10.6200  -19.2130   18.6378 C   0  0  0  0  0  0  0  0  0  0  0  0
   10.9653  -18.6257   20.0083 C   0  0  2  0  0  0  0  0  0  0  0  0
   10.1710  -19.2535   21.0375 N   0  0  0  0  0  0  0  0  0  0  0  0
   10.6991  -17.1679   19.9095 C   0  0  0  0  0  0  0  0  0  0  0  0
   11.4060  -16.4691   19.1427 O   0  0  0  0  0  0  0  0  0  0  0  0
    8.8994  -13.7567   18.0992 N   0  0  0  0  0  0  0  0  0  0  0  0
    7.7780  -14.2324   18.8169 C   0  0  0  0  0  0  0  0  0  0  0  0
    6.6431  -14.0777   18.3233 O   0  0  0  0  0  0  0  0  0  0  0  0
    7.9601  -14.8889   20.1079 C   0  0  0  0  0  0  0  0  0  0  0  0
    9.3895  -15.1058   20.5216 C   0  0  2  0  0  0  0  0  0  0  0  0
    9.6760  -16.5001   20.6411 N   0  0  0  0  0  0  0  0  0  0  0  0
    9.6711  -14.3347   21.7606 C   0  0  0  0  0  0  0  0  0  0  0  0
    9.6889  -13.0896   21.6716 O   0  0  0  0  0  0  0  0  0  0  0  0
    9.9145  -14.9410   23.0095 N   0  0  0  0  0  0  0  0  0  0  0  0
    9.2719  -14.4966   24.2515 C   0  0  1  0  0  0  0  0  0  0  0  0
    7.7899  -14.3006   24.0479 C   0  0  0  0  0  0  0  0  0  0  0  0
    7.2341  -13.5681   25.2130 C   0  0  0  0  0  0  0  0  0  0  0  0
    7.9075  -12.6359   25.9768 C   0  0  0  0  0  0  0  0  0  0  0  0
    7.0949  -12.1820   26.9430 N   0  0  0  0  0  0  0  0  0  0  0  0
    5.9286  -12.8249   26.7819 C   0  0  0  0  0  0  0  0  0  0  0  0
    6.0014  -13.6670   25.7370 N   0  0  0  0  0  0  0  0  0  0  0  0
    9.6004  -15.4839   25.2963 C   0  0  0  0  0  0  0  0  0  0  0  0
   10.3680  -16.6309   25.0149 O   0  0  0  0  0  0  0  0  0  0  0  0
    9.2330  -15.3892   26.4968 O   0  0  0  0  0  0  0  0  0  0  0  0
  2  1  1  6
  3  2  1  0
  4  2  1  0
  5  4  2  0
  6  7  1  0
  7  8  2  0
  9  7  1  0
 10  9  1  1
 10 11  1  0
 10 12  1  0
 11  4  1  0
 12 14  1  0
 13 12  2  0
 14 15  1  0
 15 16  1  6
 15 22  1  0
 17 18  2  0
 17 16  1  0
 19 18  1  0
 20 21  2  0
 20 19  1  0
 21 17  1  0
 22 23  1  0
 24 22  2  0
M  END
$$$$
