ANH.pdb
     RDKit          3D

 24 24  0  0  1  0  0  0  0  0999 V2000
    6.7686  -18.6904   19.4656 C   0  0  0  0  0  0  0  0  0  0  0  0
    6.9592  -18.6105   20.9821 C   0  0  2  0  0  0  0  0  0  0  0  0
    5.7222  -18.2331   21.6239 N   0  0  0  0  0  0  0  0  0  0  0  0
    8.0332  -17.6101   21.2091 C   0  0  0  0  0  0  0  0  0  0  0  0
    9.2183  -17.9122   20.9255 O   0  0  0  0  0  0  0  0  0  0  0  0
    6.9920  -13.1241   19.6277 N   0  0  0  0  0  0  0  0  0  0  0  0
    8.1073  -13.8716   20.0708 C   0  0  0  0  0  0  0  0  0  0  0  0
    8.8298  -14.4282   19.2199 O   0  0  0  0  0  0  0  0  0  0  0  0
    8.3949  -13.9809   21.4977 C   0  0  0  0  0  0  0  0  0  0  0  0
    8.8306  -15.3432   21.9621 C   0  0  2  0  0  0  0  0  0  0  0  0
    7.8017  -16.3080   21.7368 N   0  0  0  0  0  0  0  0  0  0  0  0
    9.2724  -15.2677   23.3791 C   0  0  0  0  0  0  0  0  0  0  0  0
   10.0958  -14.3783   23.6783 O   0  0  0  0  0  0  0  0  0  0  0  0
    8.8080  -16.1437   24.3810 N   0  0  0  0  0  0  0  0  0  0  0  0
    9.2419  -16.0582   25.7801 C   0  0  1  0  0  0  0  0  0  0  0  0
    8.0572  -15.8930   26.6995 C   0  0  0  0  0  0  0  0  0  0  0  0
    7.3921  -14.5994   26.4040 C   0  0  0  0  0  0  0  0  0  0  0  0
    7.9580  -13.3486   26.5497 C   0  0  0  0  0  0  0  0  0  0  0  0
    7.0668  -12.4127   26.1899 N   0  0  0  0  0  0  0  0  0  0  0  0
    5.9584  -13.0741   25.8244 C   0  0  0  0  0  0  0  0  0  0  0  0
    6.1440  -14.3992   25.9501 N   0  0  0  0  0  0  0  0  0  0  0  0
   10.0501  -17.2579   26.0657 C   0  0  0  0  0  0  0  0  0  0  0  0
   10.6338  -17.4728   27.3295 O   0  0  0  0  0  0  0  0  0  0  0  0
   10.2817  -18.1684   25.2276 O   0  0  0  0  0  0  0  0  0  0  0  0
  2  1  1  6
  3  2  1  0
  4  2  1  0
  5  4  2  0
  6  7  1  0
  7  8  2  0
  9  7  1  0
 10  9  1  1
 10 11  1  0
 10 12  1  0
 11  4  1  0
 12 14  1  0
 13 12  2  0
 14 15  1  0
 15 16  1  1
 15 22  1  0
 17 18  2  0
 17 16  1  0
 19 18  1  0
 20 21  2  0
 20 19  1  0
 21 17  1  0
 22 23  1  0
 24 22  2  0
M  END
$$$$
