ANH.pdb
     RDKit          3D

 24 24  0  0  1  0  0  0  0  0999 V2000
    4.4344  -20.7464   17.6354 C   0  0  0  0  0  0  0  0  0  0  0  0
    5.6293  -20.5526   18.5721 C   0  0  2  0  0  0  0  0  0  0  0  0
    6.1943  -21.8306   18.9352 N   0  0  0  0  0  0  0  0  0  0  0  0
    5.1105  -19.8164   19.7529 C   0  0  0  0  0  0  0  0  0  0  0  0
    5.5624  -18.6727   20.0059 O   0  0  0  0  0  0  0  0  0  0  0  0
    1.4323  -18.4721   20.1401 N   0  0  0  0  0  0  0  0  0  0  0  0
    1.3053  -19.6760   20.8705 C   0  0  0  0  0  0  0  0  0  0  0  0
    0.4388  -20.5006   20.5172 O   0  0  0  0  0  0  0  0  0  0  0  0
    2.1771  -19.9347   22.0124 C   0  0  0  0  0  0  0  0  0  0  0  0
    3.6347  -19.6424   21.7861 C   0  0  2  0  0  0  0  0  0  0  0  0
    4.1163  -20.3327   20.6321 N   0  0  0  0  0  0  0  0  0  0  0  0
    4.4009  -19.9483   23.0223 C   0  0  0  0  0  0  0  0  0  0  0  0
    4.2838  -21.0946   23.5028 O   0  0  0  0  0  0  0  0  0  0  0  0
    5.2392  -19.0137   23.6630 N   0  0  0  0  0  0  0  0  0  0  0  0
    6.4840  -19.3914   24.3417 C   0  0  1  0  0  0  0  0  0  0  0  0
    7.4484  -20.0328   23.3749 C   0  0  0  0  0  0  0  0  0  0  0  0
    8.6794  -20.4232   24.1066 C   0  0  0  0  0  0  0  0  0  0  0  0
    9.6541  -19.5598   24.5653 C   0  0  0  0  0  0  0  0  0  0  0  0
   10.6179  -20.2630   25.1789 N   0  0  0  0  0  0  0  0  0  0  0  0
   10.2467  -21.5498   25.1026 C   0  0  0  0  0  0  0  0  0  0  0  0
    9.0740  -21.6587   24.4551 N   0  0  0  0  0  0  0  0  0  0  0  0
    7.0166  -18.1805   24.9933 C   0  0  0  0  0  0  0  0  0  0  0  0
    6.8619  -16.9033   24.4199 O   0  0  0  0  0  0  0  0  0  0  0  0
    7.6383  -18.1841   26.0881 O   0  0  0  0  0  0  0  0  0  0  0  0
  2  1  1  6
  3  2  1  0
  4  2  1  0
  5  4  2  0
  6  7  1  0
  7  8  2  0
  9  7  1  0
 10  9  1  1
 10 11  1  0
 10 12  1  0
 11  4  1  0
 12 14  1  0
 13 12  2  0
 14 15  1  0
 15 16  1  6
 15 22  1  0
 17 18  2  0
 17 16  1  0
 19 18  1  0
 20 21  2  0
 20 19  1  0
 21 17  1  0
 22 23  1  0
 24 22  2  0
M  END
$$$$
