ANH.pdb
     RDKit          3D

 24 24  0  0  1  0  0  0  0  0999 V2000
    7.2176  -13.3862   18.9729 C   0  0  0  0  0  0  0  0  0  0  0  0
    8.5914  -13.4274   19.6462 C   0  0  2  0  0  0  0  0  0  0  0  0
    9.6245  -13.6580   18.6644 N   0  0  0  0  0  0  0  0  0  0  0  0
    8.5237  -14.5186   20.6514 C   0  0  0  0  0  0  0  0  0  0  0  0
    7.4570  -14.6952   21.2895 O   0  0  0  0  0  0  0  0  0  0  0  0
    9.3048  -19.2777   20.0788 N   0  0  0  0  0  0  0  0  0  0  0  0
   10.2407  -18.2215   20.1663 C   0  0  0  0  0  0  0  0  0  0  0  0
   10.8316  -17.8593   19.1294 O   0  0  0  0  0  0  0  0  0  0  0  0
   10.4996  -17.5778   21.4506 C   0  0  0  0  0  0  0  0  0  0  0  0
    9.5223  -16.5027   21.8382 C   0  0  2  0  0  0  0  0  0  0  0  0
    9.6093  -15.3927   20.9434 N   0  0  0  0  0  0  0  0  0  0  0  0
    9.7289  -16.1330   23.2628 C   0  0  0  0  0  0  0  0  0  0  0  0
   10.7635  -15.4948   23.5472 O   0  0  0  0  0  0  0  0  0  0  0  0
    8.8208  -16.4677   24.2875 N   0  0  0  0  0  0  0  0  0  0  0  0
    9.0774  -16.1875   25.7048 C   0  0  1  0  0  0  0  0  0  0  0  0
    7.7917  -15.8798   26.4317 C   0  0  0  0  0  0  0  0  0  0  0  0
    7.3107  -14.5381   26.0172 C   0  0  0  0  0  0  0  0  0  0  0  0
    8.0965  -13.5149   25.5260 C   0  0  0  0  0  0  0  0  0  0  0  0
    7.3244  -12.4512   25.2570 N   0  0  0  0  0  0  0  0  0  0  0  0
    6.0719  -12.8091   25.5775 C   0  0  0  0  0  0  0  0  0  0  0  0
    6.0517  -14.0711   26.0391 N   0  0  0  0  0  0  0  0  0  0  0  0
    9.8083  -17.3426   26.2578 C   0  0  0  0  0  0  0  0  0  0  0  0
   10.3172  -17.3359   27.5712 O   0  0  0  0  0  0  0  0  0  0  0  0
   10.0341  -18.4050   25.6211 O   0  0  0  0  0  0  0  0  0  0  0  0
  2  1  1  6
  3  2  1  0
  4  2  1  0
  5  4  2  0
  6  7  1  0
  7  8  2  0
  9  7  1  0
 10  9  1  6
 10 11  1  0
 10 12  1  0
 11  4  1  0
 12 14  1  0
 13 12  2  0
 14 15  1  0
 15 16  1  1
 15 22  1  0
 17 18  2  0
 17 16  1  0
 19 18  1  0
 20 21  2  0
 20 19  1  0
 21 17  1  0
 22 23  1  0
 24 22  2  0
M  END
$$$$
