ANH.pdb
     RDKit          3D

 24 24  0  0  1  0  0  0  0  0999 V2000
    8.2595  -12.6522   19.3514 C   0  0  0  0  0  0  0  0  0  0  0  0
    8.7644  -13.2671   18.0439 C   0  0  2  0  0  0  0  0  0  0  0  0
    7.6615  -13.8075   17.2851 N   0  0  0  0  0  0  0  0  0  0  0  0
    9.7406  -14.3163   18.4335 C   0  0  0  0  0  0  0  0  0  0  0  0
    9.3261  -15.4771   18.6723 O   0  0  0  0  0  0  0  0  0  0  0  0
   13.2703  -14.7183   15.6046 N   0  0  0  0  0  0  0  0  0  0  0  0
   13.1436  -15.5683   16.7273 C   0  0  0  0  0  0  0  0  0  0  0  0
   12.8897  -16.7746   16.5378 O   0  0  0  0  0  0  0  0  0  0  0  0
   13.3090  -15.0310   18.0744 C   0  0  0  0  0  0  0  0  0  0  0  0
   12.0829  -15.0881   18.9432 C   0  0  2  0  0  0  0  0  0  0  0  0
   11.1407  -14.0869   18.5558 N   0  0  0  0  0  0  0  0  0  0  0  0
   12.4820  -15.0050   20.3724 C   0  0  0  0  0  0  0  0  0  0  0  0
   13.0843  -13.9760   20.7426 O   0  0  0  0  0  0  0  0  0  0  0  0
   12.2131  -16.0223   21.3102 N   0  0  0  0  0  0  0  0  0  0  0  0
   12.6305  -15.9442   22.7147 C   0  0  1  0  0  0  0  0  0  0  0  0
   11.6907  -16.7275   23.5976 C   0  0  0  0  0  0  0  0  0  0  0  0
   10.3288  -16.1472   23.4897 C   0  0  0  0  0  0  0  0  0  0  0  0
   10.0314  -14.8447   23.1418 C   0  0  0  0  0  0  0  0  0  0  0  0
    8.7004  -14.6762   23.1466 N   0  0  0  0  0  0  0  0  0  0  0  0
    8.1758  -15.8609   23.4938 C   0  0  0  0  0  0  0  0  0  0  0  0
    9.1529  -16.7594   23.7041 N   0  0  0  0  0  0  0  0  0  0  0  0
   14.0299  -16.4032   22.7856 C   0  0  0  0  0  0  0  0  0  0  0  0
   14.7681  -16.3436   23.9838 O   0  0  0  0  0  0  0  0  0  0  0  0
   14.6679  -16.8748   21.8080 O   0  0  0  0  0  0  0  0  0  0  0  0
  2  1  1  1
  3  2  1  0
  4  2  1  0
  5  4  2  0
  6  7  1  0
  7  8  2  0
  9  7  1  0
 10  9  1  6
 10 11  1  0
 10 12  1  0
 11  4  1  0
 12 14  1  0
 13 12  2  0
 14 15  1  0
 15 16  1  1
 15 22  1  0
 17 18  2  0
 17 16  1  0
 19 18  1  0
 20 21  2  0
 20 19  1  0
 21 17  1  0
 22 23  1  0
 24 22  2  0
M  END
$$$$
