ANH.pdb
     RDKit          3D

 24 24  0  0  1  0  0  0  0  0999 V2000
   10.5805  -16.1451   16.4918 C   0  0  0  0  0  0  0  0  0  0  0  0
   11.4273  -15.4284   15.4374 C   0  0  2  0  0  0  0  0  0  0  0  0
   11.0314  -15.8403   14.1115 N   0  0  0  0  0  0  0  0  0  0  0  0
   12.8387  -15.7830   15.7336 C   0  0  0  0  0  0  0  0  0  0  0  0
   13.2383  -16.9488   15.4937 O   0  0  0  0  0  0  0  0  0  0  0  0
   16.0638  -12.3985   14.3615 N   0  0  0  0  0  0  0  0  0  0  0  0
   16.2085  -13.7275   14.8215 C   0  0  0  0  0  0  0  0  0  0  0  0
   16.4742  -14.6210   13.9929 O   0  0  0  0  0  0  0  0  0  0  0  0
   16.0475  -14.0326   16.2398 C   0  0  0  0  0  0  0  0  0  0  0  0
   15.1491  -15.1986   16.5475 C   0  0  2  0  0  0  0  0  0  0  0  0
   13.7846  -14.8705   16.2816 N   0  0  0  0  0  0  0  0  0  0  0  0
   15.3878  -15.6560   17.9413 C   0  0  0  0  0  0  0  0  0  0  0  0
   15.1419  -14.8491   18.8616 O   0  0  0  0  0  0  0  0  0  0  0  0
   15.8718  -16.9407   18.2608 N   0  0  0  0  0  0  0  0  0  0  0  0
   15.9910  -17.4290   19.6393 C   0  0  1  0  0  0  0  0  0  0  0  0
   15.8572  -18.9309   19.6894 C   0  0  0  0  0  0  0  0  0  0  0  0
   14.4456  -19.3002   19.4175 C   0  0  0  0  0  0  0  0  0  0  0  0
   13.3440  -18.4980   19.6388 C   0  0  0  0  0  0  0  0  0  0  0  0
   12.2334  -19.1584   19.2780 N   0  0  0  0  0  0  0  0  0  0  0  0
   12.6397  -20.3584   18.8372 C   0  0  0  0  0  0  0  0  0  0  0  0
   13.9777  -20.4554   18.9171 N   0  0  0  0  0  0  0  0  0  0  0  0
   17.2711  -16.9306   20.1751 C   0  0  0  0  0  0  0  0  0  0  0  0
   17.6245  -17.1038   21.5276 O   0  0  0  0  0  0  0  0  0  0  0  0
   18.1347  -16.3238   19.4886 O   0  0  0  0  0  0  0  0  0  0  0  0
  2  1  1  1
  3  2  1  0
  4  2  1  0
  5  4  2  0
  6  7  1  0
  7  8  2  0
  9  7  1  0
 10  9  1  1
 10 11  1  0
 10 12  1  0
 11  4  1  0
 12 14  1  0
 13 12  2  0
 14 15  1  0
 15 16  1  6
 15 22  1  0
 17 18  2  0
 17 16  1  0
 19 18  1  0
 20 21  2  0
 20 19  1  0
 21 17  1  0
 22 23  1  0
 24 22  2  0
M  END
$$$$
