ANH.pdb
     RDKit          3D

 24 24  0  0  1  0  0  0  0  0999 V2000
    9.2370  -18.3414   17.1564 C   0  0  0  0  0  0  0  0  0  0  0  0
    9.1021  -18.4696   18.6756 C   0  0  2  0  0  0  0  0  0  0  0  0
    7.7225  -18.6899   19.0398 N   0  0  0  0  0  0  0  0  0  0  0  0
    9.6338  -17.2045   19.2435 C   0  0  0  0  0  0  0  0  0  0  0  0
   10.8621  -16.9623   19.1499 O   0  0  0  0  0  0  0  0  0  0  0  0
    8.4309  -12.6154   17.9649 N   0  0  0  0  0  0  0  0  0  0  0  0
    7.9817  -13.7294   18.7108 C   0  0  0  0  0  0  0  0  0  0  0  0
    7.2605  -14.5754   18.1454 O   0  0  0  0  0  0  0  0  0  0  0  0
    8.3623  -13.8730   20.1126 C   0  0  0  0  0  0  0  0  0  0  0  0
    9.3233  -14.9919   20.4054 C   0  0  2  0  0  0  0  0  0  0  0  0
    8.8265  -16.2317   19.8989 N   0  0  0  0  0  0  0  0  0  0  0  0
    9.6214  -15.0234   21.8610 C   0  0  0  0  0  0  0  0  0  0  0  0
   10.1136  -13.9950   22.3697 O   0  0  0  0  0  0  0  0  0  0  0  0
    9.3755  -16.1467   22.6761 N   0  0  0  0  0  0  0  0  0  0  0  0
    9.7220  -16.1904   24.1012 C   0  0  1  0  0  0  0  0  0  0  0  0
    8.5002  -16.4674   24.9418 C   0  0  0  0  0  0  0  0  0  0  0  0
    7.6885  -15.2284   25.0387 C   0  0  0  0  0  0  0  0  0  0  0  0
    8.0679  -13.9777   24.5940 C   0  0  0  0  0  0  0  0  0  0  0  0
    7.0860  -13.0992   24.8468 N   0  0  0  0  0  0  0  0  0  0  0  0
    6.1065  -13.7959   25.4424 C   0  0  0  0  0  0  0  0  0  0  0  0
    6.4606  -15.0867   25.5638 N   0  0  0  0  0  0  0  0  0  0  0  0
   10.7924  -17.1913   24.2648 C   0  0  0  0  0  0  0  0  0  0  0  0
   11.5374  -17.2895   25.4562 O   0  0  0  0  0  0  0  0  0  0  0  0
   11.1233  -18.0214   23.3780 O   0  0  0  0  0  0  0  0  0  0  0  0
  2  1  1  6
  3  2  1  0
  4  2  1  0
  5  4  2  0
  6  7  1  0
  7  8  2  0
  9  7  1  0
 10  9  1  1
 10 11  1  0
 10 12  1  0
 11  4  1  0
 12 14  1  0
 13 12  2  0
 14 15  1  0
 15 16  1  1
 15 22  1  0
 17 18  2  0
 17 16  1  0
 19 18  1  0
 20 21  2  0
 20 19  1  0
 21 17  1  0
 22 23  1  0
 24 22  2  0
M  END
$$$$
