ANH.pdb
     RDKit          3D

 24 24  0  0  1  0  0  0  0  0999 V2000
    7.3818  -18.3031   11.9110 C   0  0  0  0  0  0  0  0  0  0  0  0
    8.2510  -17.4340   12.8228 C   0  0  2  0  0  0  0  0  0  0  0  0
    9.6415  -17.5539   12.4534 N   0  0  0  0  0  0  0  0  0  0  0  0
    7.9985  -17.9100   14.2068 C   0  0  0  0  0  0  0  0  0  0  0  0
    6.8446  -17.8001   14.6889 O   0  0  0  0  0  0  0  0  0  0  0  0
   10.3023  -22.0988   15.3607 N   0  0  0  0  0  0  0  0  0  0  0  0
    9.2718  -21.3271   15.9452 C   0  0  0  0  0  0  0  0  0  0  0  0
    8.0899  -21.6953   15.7931 O   0  0  0  0  0  0  0  0  0  0  0  0
    9.5995  -20.1266   16.7083 C   0  0  0  0  0  0  0  0  0  0  0  0
    8.7724  -18.9136   16.3830 C   0  0  2  0  0  0  0  0  0  0  0  0
    8.9981  -18.4931   15.0367 N   0  0  0  0  0  0  0  0  0  0  0  0
    9.0330  -17.8500   17.3877 C   0  0  0  0  0  0  0  0  0  0  0  0
   10.0847  -17.1884   17.2654 O   0  0  0  0  0  0  0  0  0  0  0  0
    8.1571  -17.5629   18.4540 N   0  0  0  0  0  0  0  0  0  0  0  0
    8.4052  -16.4908   19.4246 C   0  0  1  0  0  0  0  0  0  0  0  0
    7.3440  -15.4228   19.3266 C   0  0  0  0  0  0  0  0  0  0  0  0
    7.5003  -14.7022   18.0384 C   0  0  0  0  0  0  0  0  0  0  0  0
    8.0209  -13.4332   17.8811 C   0  0  0  0  0  0  0  0  0  0  0  0
    8.0085  -13.1057   16.5802 N   0  0  0  0  0  0  0  0  0  0  0  0
    7.4859  -14.1595   15.9353 C   0  0  0  0  0  0  0  0  0  0  0  0
    7.1744  -15.1324   16.8086 N   0  0  0  0  0  0  0  0  0  0  0  0
    8.4960  -17.1144   20.7576 C   0  0  0  0  0  0  0  0  0  0  0  0
    8.3162  -18.4994   20.9401 O   0  0  0  0  0  0  0  0  0  0  0  0
    8.7357  -16.4798   21.8183 O   0  0  0  0  0  0  0  0  0  0  0  0
  2  1  1  6
  3  2  1  0
  4  2  1  0
  5  4  2  0
  6  7  1  0
  7  8  2  0
  9  7  1  0
 10  9  1  1
 10 11  1  0
 10 12  1  0
 11  4  1  0
 12 14  1  0
 13 12  2  0
 14 15  1  0
 15 16  1  1
 15 22  1  0
 17 18  2  0
 17 16  1  0
 19 18  1  0
 20 21  2  0
 20 19  1  0
 21 17  1  0
 22 23  1  0
 24 22  2  0
M  END
$$$$
