ANH.pdb
     RDKit          3D

 24 24  0  0  1  0  0  0  0  0999 V2000
   -5.1990  -28.0682   24.2851 C   0  0  0  0  0  0  0  0  0  0  0  0
   -5.3749  -27.7376   25.7691 C   0  0  2  0  0  0  0  0  0  0  0  0
   -6.0637  -28.8120   26.4441 N   0  0  0  0  0  0  0  0  0  0  0  0
   -6.1406  -26.4660   25.8187 C   0  0  0  0  0  0  0  0  0  0  0  0
   -5.6468  -25.4356   25.2984 O   0  0  0  0  0  0  0  0  0  0  0  0
   -9.8705  -22.8842   26.5209 N   0  0  0  0  0  0  0  0  0  0  0  0
  -10.3650  -24.0812   25.9539 C   0  0  0  0  0  0  0  0  0  0  0  0
  -11.5139  -24.0823   25.4684 O   0  0  0  0  0  0  0  0  0  0  0  0
   -9.5368  -25.2831   25.9440 C   0  0  0  0  0  0  0  0  0  0  0  0
   -8.1510  -25.1122   26.5024 C   0  0  2  0  0  0  0  0  0  0  0  0
   -7.4208  -26.3377   26.4289 N   0  0  0  0  0  0  0  0  0  0  0  0
   -8.2343  -24.5535   27.8771 C   0  0  0  0  0  0  0  0  0  0  0  0
   -9.0641  -25.0655   28.6568 O   0  0  0  0  0  0  0  0  0  0  0  0
   -7.4291  -23.4883   28.3283 N   0  0  0  0  0  0  0  0  0  0  0  0
   -7.4491  -23.0034   29.7131 C   0  0  1  0  0  0  0  0  0  0  0  0
   -6.0949  -22.4731   30.1148 C   0  0  0  0  0  0  0  0  0  0  0  0
   -5.1783  -23.6163   30.3510 C   0  0  0  0  0  0  0  0  0  0  0  0
   -5.5024  -24.9518   30.2196 C   0  0  0  0  0  0  0  0  0  0  0  0
   -4.4288  -25.7010   30.5127 N   0  0  0  0  0  0  0  0  0  0  0  0
   -3.4474  -24.8407   30.8232 C   0  0  0  0  0  0  0  0  0  0  0  0
   -3.8901  -23.5753   30.7287 N   0  0  0  0  0  0  0  0  0  0  0  0
   -8.5298  -22.0056   29.8159 C   0  0  0  0  0  0  0  0  0  0  0  0
   -8.9081  -21.4499   31.0537 O   0  0  0  0  0  0  0  0  0  0  0  0
   -9.1893  -21.5763   28.8331 O   0  0  0  0  0  0  0  0  0  0  0  0
  2  1  1  6
  3  2  1  0
  4  2  1  0
  5  4  2  0
  6  7  1  0
  7  8  2  0
  9  7  1  0
 10  9  1  1
 10 11  1  0
 10 12  1  0
 11  4  1  0
 12 14  1  0
 13 12  2  0
 14 15  1  0
 15 16  1  6
 15 22  1  0
 17 18  2  0
 17 16  1  0
 19 18  1  0
 20 21  2  0
 20 19  1  0
 21 17  1  0
 22 23  1  0
 24 22  2  0
M  END
$$$$
