QTT.pdb
     RDKit          3D

 24 23  0  0  1  0  0  0  0  0999 V2000
    9.3452  -19.8250   15.9174 N   0  0  0  0  0  0  0  0  0  0  0  0
   10.5767  -19.2240   16.2533 C   0  0  0  0  0  0  0  0  0  0  0  0
   11.5672  -19.9416   16.4823 O   0  0  0  0  0  0  0  0  0  0  0  0
   10.6831  -17.7599   16.3308 C   0  0  0  0  0  0  0  0  0  0  0  0
    9.3398  -17.1525   16.0240 C   0  0  0  0  0  0  0  0  0  0  0  0
    9.4069  -15.6337   16.0018 C   0  0  2  0  0  0  0  0  0  0  0  0
   10.4629  -15.2703   15.0758 N   0  0  0  0  0  0  0  0  0  0  0  0
    9.7664  -15.1978   17.3915 C   0  0  0  0  0  0  0  0  0  0  0  0
   10.9470  -14.8796   17.6997 O   0  0  0  0  0  0  0  0  0  0  0  0
    7.7917  -12.5989   19.2942 C   0  0  0  0  0  0  0  0  0  0  0  0
    7.9663  -13.7701   20.2034 C   0  0  1  0  0  0  0  0  0  0  0  0
    6.7760  -14.4758   20.2943 O   0  0  0  0  0  0  0  0  0  0  0  0
    9.1182  -14.6715   19.7460 C   0  0  2  0  0  0  0  0  0  0  0  0
    8.7967  -15.1225   18.4260 N   0  0  0  0  0  0  0  0  0  0  0  0
    9.3292  -15.7824   20.7031 C   0  0  0  0  0  0  0  0  0  0  0  0
    9.0491  -16.9726   20.4109 O   0  0  0  0  0  0  0  0  0  0  0  0
   11.9085  -18.4572   23.2790 C   0  0  0  0  0  0  0  0  0  0  0  0
   11.3619  -17.5104   22.2310 C   0  0  1  0  0  0  0  0  0  0  0  0
   10.8576  -18.1620   21.1273 O   0  0  0  0  0  0  0  0  0  0  0  0
   10.2713  -16.6804   22.8697 C   0  0  2  0  0  0  0  0  0  0  0  0
    9.8638  -15.5784   22.0198 N   0  0  0  0  0  0  0  0  0  0  0  0
   10.6898  -16.1901   24.2180 C   0  0  0  0  0  0  0  0  0  0  0  0
   10.3373  -16.8491   25.3864 O   0  0  0  0  0  0  0  0  0  0  0  0
   11.3830  -15.1497   24.3157 O   0  0  0  0  0  0  0  0  0  0  0  0
  2  1  1  0
  2  3  2  0
  4  2  1  0
  5  4  1  0
  6  8  1  0
  6  5  1  0
  6  7  1  6
  8 14  1  0
  9  8  2  0
 11 10  1  6
 11 12  1  0
 13 11  1  0
 13 14  1  6
 15 21  1  0
 15 13  1  0
 16 15  2  0
 18 20  1  0
 18 17  1  1
 19 18  1  0
 20 21  1  6
 20 22  1  0
 22 23  1  0
 24 22  2  0
M  END
$$$$
