QTT.pdb
     RDKit          3D

 24 23  0  0  1  0  0  0  0  0999 V2000
    8.3830  -21.3950   18.1048 N   0  0  0  0  0  0  0  0  0  0  0  0
    9.1220  -21.2098   16.9173 C   0  0  0  0  0  0  0  0  0  0  0  0
    9.5231  -22.2025   16.2832 O   0  0  0  0  0  0  0  0  0  0  0  0
    9.4134  -19.8512   16.4373 C   0  0  0  0  0  0  0  0  0  0  0  0
    8.7658  -18.8540   17.3613 C   0  0  0  0  0  0  0  0  0  0  0  0
    8.8793  -17.4376   16.8205 C   0  0  2  0  0  0  0  0  0  0  0  0
    9.9068  -17.4567   15.7965 N   0  0  0  0  0  0  0  0  0  0  0  0
    9.3097  -16.5716   17.9674 C   0  0  0  0  0  0  0  0  0  0  0  0
   10.5195  -16.4843   18.3120 O   0  0  0  0  0  0  0  0  0  0  0  0
    8.0100  -13.0222   21.1581 C   0  0  0  0  0  0  0  0  0  0  0  0
    7.7174  -13.9039   19.9894 C   0  0  1  0  0  0  0  0  0  0  0  0
    7.6181  -13.1388   18.8371 O   0  0  0  0  0  0  0  0  0  0  0  0
    8.7695  -15.0081   19.8395 C   0  0  2  0  0  0  0  0  0  0  0  0
    8.3775  -15.8092   18.7197 N   0  0  0  0  0  0  0  0  0  0  0  0
    8.8974  -15.7869   21.0932 C   0  0  0  0  0  0  0  0  0  0  0  0
    7.9729  -16.5295   21.5107 O   0  0  0  0  0  0  0  0  0  0  0  0
   11.6624  -18.1025   24.3737 C   0  0  0  0  0  0  0  0  0  0  0  0
   11.5795  -17.2737   23.1090 C   0  0  1  0  0  0  0  0  0  0  0  0
   11.7343  -18.0225   21.9634 O   0  0  0  0  0  0  0  0  0  0  0  0
   10.2332  -16.5857   23.0846 C   0  0  2  0  0  0  0  0  0  0  0  0
   10.0763  -15.7478   21.9116 N   0  0  0  0  0  0  0  0  0  0  0  0
   10.0085  -15.8013   24.3367 C   0  0  0  0  0  0  0  0  0  0  0  0
   10.0541  -14.4152   24.3588 O   0  0  0  0  0  0  0  0  0  0  0  0
    9.7694  -16.3993   25.4127 O   0  0  0  0  0  0  0  0  0  0  0  0
  2  1  1  0
  2  3  2  0
  4  2  1  0
  5  4  1  0
  6  8  1  0
  6  5  1  0
  6  7  1  6
  8 14  1  0
  9  8  2  0
 11 10  1  1
 11 12  1  0
 13 11  1  0
 13 14  1  6
 15 21  1  0
 15 13  1  0
 16 15  2  0
 18 20  1  0
 18 17  1  1
 19 18  1  0
 20 21  1  6
 20 22  1  0
 22 23  1  0
 24 22  2  0
M  END
$$$$
