QTT.pdb
     RDKit          3D

 24 23  0  0  1  0  0  0  0  0999 V2000
   12.8612  -14.6947   17.4229 N   0  0  0  0  0  0  0  0  0  0  0  0
   12.3793  -13.6477   18.2367 C   0  0  0  0  0  0  0  0  0  0  0  0
   13.0558  -13.2650   19.2084 O   0  0  0  0  0  0  0  0  0  0  0  0
   11.0865  -13.0170   17.9340 C   0  0  0  0  0  0  0  0  0  0  0  0
   10.0385  -13.5752   18.8601 C   0  0  0  0  0  0  0  0  0  0  0  0
    9.6681  -15.0019   18.4872 C   0  0  2  0  0  0  0  0  0  0  0  0
    8.7425  -14.9215   17.3730 N   0  0  0  0  0  0  0  0  0  0  0  0
    8.9854  -15.5966   19.6834 C   0  0  0  0  0  0  0  0  0  0  0  0
    7.7284  -15.6467   19.7700 O   0  0  0  0  0  0  0  0  0  0  0  0
    9.2061  -18.8803   23.2260 C   0  0  0  0  0  0  0  0  0  0  0  0
    9.7001  -18.1686   22.0101 C   0  0  1  0  0  0  0  0  0  0  0  0
    9.4482  -18.9353   20.8824 O   0  0  0  0  0  0  0  0  0  0  0  0
    9.0839  -16.7709   21.8862 C   0  0  2  0  0  0  0  0  0  0  0  0
    9.7199  -16.1311   20.7747 N   0  0  0  0  0  0  0  0  0  0  0  0
    9.2321  -16.0162   23.1524 C   0  0  0  0  0  0  0  0  0  0  0  0
   10.3276  -15.5037   23.4954 O   0  0  0  0  0  0  0  0  0  0  0  0
    7.2284  -13.4691   26.8522 C   0  0  0  0  0  0  0  0  0  0  0  0
    6.9734  -14.3525   25.6488 C   0  0  1  0  0  0  0  0  0  0  0  0
    6.4781  -13.6588   24.5669 O   0  0  0  0  0  0  0  0  0  0  0  0
    8.2771  -15.0176   25.2686 C   0  0  2  0  0  0  0  0  0  0  0  0
    8.1439  -15.8195   24.0679 N   0  0  0  0  0  0  0  0  0  0  0  0
    8.8136  -15.8331   26.4002 C   0  0  0  0  0  0  0  0  0  0  0  0
    9.5570  -15.2724   27.4282 O   0  0  0  0  0  0  0  0  0  0  0  0
    8.5944  -17.0672   26.4383 O   0  0  0  0  0  0  0  0  0  0  0  0
  2  1  1  0
  2  3  2  0
  4  2  1  0
  5  4  1  0
  6  8  1  0
  6  5  1  0
  6  7  1  6
  8 14  1  0
  9  8  2  0
 11 10  1  1
 11 12  1  0
 13 11  1  0
 13 14  1  6
 15 21  1  0
 15 13  1  0
 16 15  2  0
 18 20  1  0
 18 17  1  1
 19 18  1  0
 20 21  1  6
 20 22  1  0
 22 23  1  0
 24 22  2  0
M  END
$$$$
