QTT.pdb
     RDKit          3D

 24 23  0  0  1  0  0  0  0  0999 V2000
   10.6636  -19.0771   15.0741 N   0  0  0  0  0  0  0  0  0  0  0  0
    9.4136  -19.7225   14.9664 C   0  0  0  0  0  0  0  0  0  0  0  0
    9.2300  -20.5572   14.0619 O   0  0  0  0  0  0  0  0  0  0  0  0
    8.3391  -19.4071   15.9188 C   0  0  0  0  0  0  0  0  0  0  0  0
    8.8908  -18.5257   17.0080 C   0  0  0  0  0  0  0  0  0  0  0  0
    8.3373  -17.1126   16.9153 C   0  0  2  0  0  0  0  0  0  0  0  0
    8.8045  -16.5567   15.6595 N   0  0  0  0  0  0  0  0  0  0  0  0
    8.9179  -16.3461   18.0668 C   0  0  0  0  0  0  0  0  0  0  0  0
   10.0434  -15.7833   17.9858 O   0  0  0  0  0  0  0  0  0  0  0  0
    7.3459  -13.4776   19.6443 C   0  0  0  0  0  0  0  0  0  0  0  0
    7.6323  -14.4286   20.7591 C   0  0  1  0  0  0  0  0  0  0  0  0
    6.4665  -15.0811   21.1309 O   0  0  0  0  0  0  0  0  0  0  0  0
    8.7349  -15.4236   20.3813 C   0  0  2  0  0  0  0  0  0  0  0  0
    8.2296  -16.2170   19.3021 N   0  0  0  0  0  0  0  0  0  0  0  0
    9.1394  -16.2317   21.5552 C   0  0  0  0  0  0  0  0  0  0  0  0
    8.5993  -17.3359   21.8190 O   0  0  0  0  0  0  0  0  0  0  0  0
   12.3986  -17.6529   22.4471 C   0  0  0  0  0  0  0  0  0  0  0  0
   12.0204  -16.8645   23.6836 C   0  0  1  0  0  0  0  0  0  0  0  0
   12.7024  -15.6727   23.7918 O   0  0  0  0  0  0  0  0  0  0  0  0
   10.5338  -16.5928   23.6320 C   0  0  2  0  0  0  0  0  0  0  0  0
   10.1677  -15.8133   22.4654 N   0  0  0  0  0  0  0  0  0  0  0  0
   10.0654  -15.9304   24.8871 C   0  0  0  0  0  0  0  0  0  0  0  0
   10.1399  -16.5536   26.1240 O   0  0  0  0  0  0  0  0  0  0  0  0
    9.5860  -14.7727   24.8396 O   0  0  0  0  0  0  0  0  0  0  0  0
  2  1  1  0
  2  3  2  0
  4  2  1  0
  5  4  1  0
  6  8  1  0
  6  5  1  0
  6  7  1  6
  8 14  1  0
  9  8  2  0
 11 10  1  6
 11 12  1  0
 13 11  1  0
 13 14  1  6
 15 21  1  0
 15 13  1  0
 16 15  2  0
 18 20  1  0
 18 17  1  6
 19 18  1  0
 20 21  1  6
 20 22  1  0
 22 23  1  0
 24 22  2  0
M  END
$$$$
