QTT.pdb
     RDKit          3D

 24 23  0  0  1  0  0  0  0  0999 V2000
   15.1758  -13.8757   20.0082 N   0  0  0  0  0  0  0  0  0  0  0  0
   15.0558  -14.6850   18.8587 C   0  0  0  0  0  0  0  0  0  0  0  0
   16.0810  -15.0437   18.2513 O   0  0  0  0  0  0  0  0  0  0  0  0
   13.7266  -15.0985   18.3863 C   0  0  0  0  0  0  0  0  0  0  0  0
   12.6799  -14.5424   19.3152 C   0  0  0  0  0  0  0  0  0  0  0  0
   11.2827  -14.9820   18.9076 C   0  0  2  0  0  0  0  0  0  0  0  0
   11.1139  -14.6167   17.5138 N   0  0  0  0  0  0  0  0  0  0  0  0
   10.3215  -14.2110   19.7633 C   0  0  0  0  0  0  0  0  0  0  0  0
   10.1668  -12.9670   19.6273 O   0  0  0  0  0  0  0  0  0  0  0  0
    6.9717  -13.7474   19.8225 C   0  0  0  0  0  0  0  0  0  0  0  0
    7.2340  -14.3820   21.1482 C   0  0  1  0  0  0  0  0  0  0  0  0
    6.9720  -15.7420   21.0780 O   0  0  0  0  0  0  0  0  0  0  0  0
    8.6636  -14.1113   21.6293 C   0  0  2  0  0  0  0  0  0  0  0  0
    9.5403  -14.8433   20.7664 N   0  0  0  0  0  0  0  0  0  0  0  0
    8.8166  -14.4767   23.0568 C   0  0  0  0  0  0  0  0  0  0  0  0
    9.6374  -15.3511   23.4339 O   0  0  0  0  0  0  0  0  0  0  0  0
    8.0221  -12.0573   26.4358 C   0  0  0  0  0  0  0  0  0  0  0  0
    7.3287  -13.4032   26.4016 C   0  0  1  0  0  0  0  0  0  0  0  0
    6.0216  -13.3247   25.9744 O   0  0  0  0  0  0  0  0  0  0  0  0
    8.1085  -14.3110   25.4774 C   0  0  2  0  0  0  0  0  0  0  0  0
    8.0445  -13.8627   24.0998 N   0  0  0  0  0  0  0  0  0  0  0  0
    7.6477  -15.7272   25.6014 C   0  0  0  0  0  0  0  0  0  0  0  0
    7.7582  -16.4395   26.7864 O   0  0  0  0  0  0  0  0  0  0  0  0
    7.1416  -16.3072   24.6115 O   0  0  0  0  0  0  0  0  0  0  0  0
  2  1  1  0
  2  3  2  0
  4  2  1  0
  5  4  1  0
  6  8  1  0
  6  5  1  0
  6  7  1  6
  8 14  1  0
  9  8  2  0
 11 10  1  6
 11 12  1  0
 13 11  1  0
 13 14  1  6
 15 21  1  0
 15 13  1  0
 16 15  2  0
 18 20  1  0
 18 17  1  6
 19 18  1  0
 20 21  1  6
 20 22  1  0
 22 23  1  0
 24 22  2  0
M  END
$$$$
