QTT.pdb
     RDKit          3D

 24 23  0  0  1  0  0  0  0  0999 V2000
   13.3733  -19.2500   17.5884 N   0  0  0  0  0  0  0  0  0  0  0  0
   13.0288  -19.0886   18.9470 C   0  0  0  0  0  0  0  0  0  0  0  0
   13.0826  -20.0670   19.7140 O   0  0  0  0  0  0  0  0  0  0  0  0
   12.6098  -17.7714   19.4475 C   0  0  0  0  0  0  0  0  0  0  0  0
   11.1238  -17.7881   19.6910 C   0  0  0  0  0  0  0  0  0  0  0  0
   10.8026  -17.9827   21.1643 C   0  0  2  0  0  0  0  0  0  0  0  0
    9.6437  -18.8526   21.2334 N   0  0  0  0  0  0  0  0  0  0  0  0
   10.4651  -16.6284   21.7144 C   0  0  0  0  0  0  0  0  0  0  0  0
   11.3092  -15.6918   21.7290 O   0  0  0  0  0  0  0  0  0  0  0  0
    7.7489  -14.2594   20.8053 C   0  0  0  0  0  0  0  0  0  0  0  0
    7.5776  -14.5728   22.2550 C   0  0  1  0  0  0  0  0  0  0  0  0
    6.5433  -15.4816   22.4200 O   0  0  0  0  0  0  0  0  0  0  0  0
    8.8799  -15.0874   22.8777 C   0  0  2  0  0  0  0  0  0  0  0  0
    9.1809  -16.3356   22.2446 N   0  0  0  0  0  0  0  0  0  0  0  0
    8.7512  -15.1997   24.3493 C   0  0  0  0  0  0  0  0  0  0  0  0
    9.0735  -16.2468   24.9659 O   0  0  0  0  0  0  0  0  0  0  0  0
    9.9978  -13.8265   28.4653 C   0  0  0  0  0  0  0  0  0  0  0  0
    9.8844  -14.1888   26.9992 C   0  0  1  0  0  0  0  0  0  0  0  0
   10.3691  -15.4466   26.7163 O   0  0  0  0  0  0  0  0  0  0  0  0
    8.4265  -14.1090   26.6060 C   0  0  2  0  0  0  0  0  0  0  0  0
    8.2537  -14.1293   25.1664 N   0  0  0  0  0  0  0  0  0  0  0  0
    7.7737  -12.9063   27.2066 C   0  0  0  0  0  0  0  0  0  0  0  0
    7.2232  -12.9222   28.4796 O   0  0  0  0  0  0  0  0  0  0  0  0
    7.7122  -11.8382   26.5525 O   0  0  0  0  0  0  0  0  0  0  0  0
  2  1  1  0
  2  3  2  0
  4  2  1  0
  5  4  1  0
  6  8  1  0
  6  5  1  0
  6  7  1  6
  8 14  1  0
  9  8  2  0
 11 10  1  6
 11 12  1  0
 13 11  1  0
 13 14  1  6
 15 21  1  0
 15 13  1  0
 16 15  2  0
 18 20  1  0
 18 17  1  1
 19 18  1  0
 20 21  1  6
 20 22  1  0
 22 23  1  0
 24 22  2  0
M  END
$$$$
