QTT.pdb
     RDKit          3D

 24 23  0  0  1  0  0  0  0  0999 V2000
   13.8731  -17.5678   20.9194 N   0  0  0  0  0  0  0  0  0  0  0  0
   14.7920  -17.3775   19.8657 C   0  0  0  0  0  0  0  0  0  0  0  0
   15.4980  -18.3300   19.4880 O   0  0  0  0  0  0  0  0  0  0  0  0
   14.9103  -16.0611   19.2225 C   0  0  0  0  0  0  0  0  0  0  0  0
   13.8512  -15.1458   19.7775 C   0  0  0  0  0  0  0  0  0  0  0  0
   12.6669  -15.0257   18.8317 C   0  0  2  0  0  0  0  0  0  0  0  0
   13.1222  -14.2752   17.6766 N   0  0  0  0  0  0  0  0  0  0  0  0
   11.6076  -14.2551   19.5631 C   0  0  0  0  0  0  0  0  0  0  0  0
   11.7085  -13.0131   19.7562 O   0  0  0  0  0  0  0  0  0  0  0  0
    8.2121  -13.5666   18.8106 C   0  0  0  0  0  0  0  0  0  0  0  0
    8.1437  -14.2588   20.1318 C   0  0  1  0  0  0  0  0  0  0  0  0
    7.7312  -15.5707   19.9539 O   0  0  0  0  0  0  0  0  0  0  0  0
    9.4824  -14.1884   20.8744 C   0  0  2  0  0  0  0  0  0  0  0  0
   10.4419  -14.8855   20.0727 N   0  0  0  0  0  0  0  0  0  0  0  0
    9.3556  -14.7445   22.2417 C   0  0  0  0  0  0  0  0  0  0  0  0
   10.0160  -15.7472   22.6144 O   0  0  0  0  0  0  0  0  0  0  0  0
    8.0298  -12.6234   25.6670 C   0  0  0  0  0  0  0  0  0  0  0  0
    7.3694  -13.9611   25.4062 C   0  0  1  0  0  0  0  0  0  0  0  0
    6.1421  -13.8450   24.7920 O   0  0  0  0  0  0  0  0  0  0  0  0
    8.2946  -14.7808   24.5354 C   0  0  2  0  0  0  0  0  0  0  0  0
    8.4769  -14.1815   23.2276 N   0  0  0  0  0  0  0  0  0  0  0  0
    7.8109  -16.1898   24.4158 C   0  0  0  0  0  0  0  0  0  0  0  0
    7.6794  -17.0222   25.5174 O   0  0  0  0  0  0  0  0  0  0  0  0
    7.5091  -16.6520   23.2898 O   0  0  0  0  0  0  0  0  0  0  0  0
  2  1  1  0
  2  3  2  0
  4  2  1  0
  5  4  1  0
  6  8  1  0
  6  5  1  0
  6  7  1  6
  8 14  1  0
  9  8  2  0
 11 10  1  6
 11 12  1  0
 13 11  1  0
 13 14  1  6
 15 21  1  0
 15 13  1  0
 16 15  2  0
 18 20  1  0
 18 17  1  6
 19 18  1  0
 20 21  1  6
 20 22  1  0
 22 23  1  0
 24 22  2  0
M  END
$$$$
