QTT.pdb
     RDKit          3D

 24 23  0  0  1  0  0  0  0  0999 V2000
   14.1568  -15.3803   20.7535 N   0  0  0  0  0  0  0  0  0  0  0  0
   14.1086  -14.9459   19.4120 C   0  0  0  0  0  0  0  0  0  0  0  0
   14.8853  -15.4446   18.5774 O   0  0  0  0  0  0  0  0  0  0  0  0
   13.1455  -13.9112   19.0087 C   0  0  0  0  0  0  0  0  0  0  0  0
   11.9422  -13.9810   19.9113 C   0  0  0  0  0  0  0  0  0  0  0  0
   11.0845  -15.1981   19.6036 C   0  0  2  0  0  0  0  0  0  0  0  0
   10.6656  -15.0815   18.2195 N   0  0  0  0  0  0  0  0  0  0  0  0
    9.8923  -15.1258   20.5114 C   0  0  0  0  0  0  0  0  0  0  0  0
    8.8424  -14.5133   20.1761 O   0  0  0  0  0  0  0  0  0  0  0  0
    7.7728  -17.6699   21.5890 C   0  0  0  0  0  0  0  0  0  0  0  0
    8.2389  -17.0758   22.8770 C   0  0  1  0  0  0  0  0  0  0  0  0
    9.1941  -17.8983   23.4551 O   0  0  0  0  0  0  0  0  0  0  0  0
    8.7707  -15.6520   22.6807 C   0  0  2  0  0  0  0  0  0  0  0  0
    9.8880  -15.7425   21.7904 N   0  0  0  0  0  0  0  0  0  0  0  0
    9.1150  -15.0347   23.9827 C   0  0  0  0  0  0  0  0  0  0  0  0
   10.3073  -14.8904   24.3543 O   0  0  0  0  0  0  0  0  0  0  0  0
    7.6310  -11.7453   25.8405 C   0  0  0  0  0  0  0  0  0  0  0  0
    7.4512  -12.9984   26.6717 C   0  0  1  0  0  0  0  0  0  0  0  0
    6.1830  -13.5280   26.5799 O   0  0  0  0  0  0  0  0  0  0  0  0
    8.4610  -14.0221   26.2042 C   0  0  2  0  0  0  0  0  0  0  0  0
    8.1192  -14.5623   24.9026 N   0  0  0  0  0  0  0  0  0  0  0  0
    8.6236  -15.1144   27.2111 C   0  0  0  0  0  0  0  0  0  0  0  0
    9.0915  -14.8732   28.4944 O   0  0  0  0  0  0  0  0  0  0  0  0
    8.3323  -16.2946   26.9034 O   0  0  0  0  0  0  0  0  0  0  0  0
  2  1  1  0
  2  3  2  0
  4  2  1  0
  5  4  1  0
  6  8  1  0
  6  5  1  0
  6  7  1  6
  8 14  1  0
  9  8  2  0
 11 10  1  6
 11 12  1  0
 13 11  1  0
 13 14  1  6
 15 21  1  0
 15 13  1  0
 16 15  2  0
 18 20  1  0
 18 17  1  6
 19 18  1  0
 20 21  1  6
 20 22  1  0
 22 23  1  0
 24 22  2  0
M  END
$$$$
