QTT.pdb
     RDKit          3D

 24 23  0  0  1  0  0  0  0  0999 V2000
   14.6514  -18.6939   19.5658 N   0  0  0  0  0  0  0  0  0  0  0  0
   15.1358  -17.8240   18.5662 C   0  0  0  0  0  0  0  0  0  0  0  0
   15.5684  -18.2960   17.4991 O   0  0  0  0  0  0  0  0  0  0  0  0
   15.1273  -16.3710   18.7892 C   0  0  0  0  0  0  0  0  0  0  0  0
   13.8917  -16.0002   19.5658 C   0  0  0  0  0  0  0  0  0  0  0  0
   12.9437  -15.1518   18.7331 C   0  0  2  0  0  0  0  0  0  0  0  0
   13.7445  -14.1230   18.0970 N   0  0  0  0  0  0  0  0  0  0  0  0
   11.9692  -14.5299   19.6893 C   0  0  0  0  0  0  0  0  0  0  0  0
   12.3320  -13.6689   20.5360 O   0  0  0  0  0  0  0  0  0  0  0  0
    8.4430  -13.0264   19.0012 C   0  0  0  0  0  0  0  0  0  0  0  0
    8.3434  -14.1504   19.9788 C   0  0  1  0  0  0  0  0  0  0  0  0
    7.8834  -15.2909   19.3379 O   0  0  0  0  0  0  0  0  0  0  0  0
    9.6806  -14.4046   20.6830 C   0  0  2  0  0  0  0  0  0  0  0  0
   10.5931  -14.8799   19.6876 N   0  0  0  0  0  0  0  0  0  0  0  0
    9.5099  -15.3491   21.8115 C   0  0  0  0  0  0  0  0  0  0  0  0
   10.4922  -15.8989   22.3713 O   0  0  0  0  0  0  0  0  0  0  0  0
    7.8559  -13.6727   24.3743 C   0  0  0  0  0  0  0  0  0  0  0  0
    8.5830  -14.9712   24.6551 C   0  0  1  0  0  0  0  0  0  0  0  0
    8.4620  -15.3839   25.9636 O   0  0  0  0  0  0  0  0  0  0  0  0
    8.0218  -16.0330   23.7365 C   0  0  2  0  0  0  0  0  0  0  0  0
    8.2217  -15.6990   22.3396 N   0  0  0  0  0  0  0  0  0  0  0  0
    6.5771  -16.2838   24.0255 C   0  0  0  0  0  0  0  0  0  0  0  0
    5.5771  -15.9784   23.1141 O   0  0  0  0  0  0  0  0  0  0  0  0
    6.2389  -16.7864   25.1234 O   0  0  0  0  0  0  0  0  0  0  0  0
  2  1  1  0
  2  3  2  0
  4  2  1  0
  5  4  1  0
  6  8  1  0
  6  5  1  0
  6  7  1  1
  8 14  1  0
  9  8  2  0
 11 10  1  6
 11 12  1  0
 13 11  1  0
 13 14  1  6
 15 21  1  0
 15 13  1  0
 16 15  2  0
 18 20  1  0
 18 17  1  1
 19 18  1  0
 20 21  1  6
 20 22  1  0
 22 23  1  0
 24 22  2  0
M  END
$$$$
