QTT.pdb
     RDKit          3D

 24 23  0  0  1  0  0  0  0  0999 V2000
    8.1956  -12.5724   14.5483 N   0  0  0  0  0  0  0  0  0  0  0  0
    7.9965  -13.9691   14.5410 C   0  0  0  0  0  0  0  0  0  0  0  0
    8.1533  -14.6057   13.4833 O   0  0  0  0  0  0  0  0  0  0  0  0
    7.6064  -14.6624   15.7772 C   0  0  0  0  0  0  0  0  0  0  0  0
    8.5868  -14.3147   16.8660 C   0  0  0  0  0  0  0  0  0  0  0  0
    9.0710  -15.5566   17.5973 C   0  0  2  0  0  0  0  0  0  0  0  0
    7.9793  -16.5117   17.5780 N   0  0  0  0  0  0  0  0  0  0  0  0
    9.3662  -15.1386   19.0076 C   0  0  0  0  0  0  0  0  0  0  0  0
   10.2754  -14.3065   19.2737 O   0  0  0  0  0  0  0  0  0  0  0  0
    7.3492  -13.5513   21.5757 C   0  0  0  0  0  0  0  0  0  0  0  0
    7.7888  -14.8431   22.1815 C   0  0  1  0  0  0  0  0  0  0  0  0
    6.7373  -15.7472   22.1742 O   0  0  0  0  0  0  0  0  0  0  0  0
    9.0200  -15.4104   21.4667 C   0  0  2  0  0  0  0  0  0  0  0  0
    8.6375  -15.6587   20.1097 N   0  0  0  0  0  0  0  0  0  0  0  0
    9.5194  -16.6210   22.1593 C   0  0  0  0  0  0  0  0  0  0  0  0
    9.1108  -17.7721   21.8619 O   0  0  0  0  0  0  0  0  0  0  0  0
   12.2842  -18.6210   22.0522 C   0  0  0  0  0  0  0  0  0  0  0  0
   12.3428  -18.1557   23.4923 C   0  0  1  0  0  0  0  0  0  0  0  0
   13.2069  -17.1002   23.6823 O   0  0  0  0  0  0  0  0  0  0  0  0
   10.9484  -17.7490   23.9125 C   0  0  2  0  0  0  0  0  0  0  0  0
   10.4967  -16.5640   23.2094 N   0  0  0  0  0  0  0  0  0  0  0  0
   10.8685  -17.5564   25.3923 C   0  0  0  0  0  0  0  0  0  0  0  0
   11.0303  -18.6062   26.2843 O   0  0  0  0  0  0  0  0  0  0  0  0
   10.6485  -16.4145   25.8616 O   0  0  0  0  0  0  0  0  0  0  0  0
  2  1  1  0
  2  3  2  0
  4  2  1  0
  5  4  1  0
  6  8  1  0
  6  5  1  0
  6  7  1  1
  8 14  1  0
  9  8  2  0
 11 10  1  6
 11 12  1  0
 13 11  1  0
 13 14  1  6
 15 21  1  0
 15 13  1  0
 16 15  2  0
 18 20  1  0
 18 17  1  6
 19 18  1  0
 20 21  1  6
 20 22  1  0
 22 23  1  0
 24 22  2  0
M  END
$$$$
