QTT.pdb
     RDKit          3D

 24 23  0  0  1  0  0  0  0  0999 V2000
   11.1628  -12.7926   19.8496 N   0  0  0  0  0  0  0  0  0  0  0  0
   10.2913  -13.2144   18.8233 C   0  0  0  0  0  0  0  0  0  0  0  0
   10.7534  -13.8048   17.8302 O   0  0  0  0  0  0  0  0  0  0  0  0
    8.8484  -12.9554   18.9318 C   0  0  0  0  0  0  0  0  0  0  0  0
    8.3254  -13.6042   20.1860 C   0  0  0  0  0  0  0  0  0  0  0  0
    8.6150  -15.0966   20.2039 C   0  0  2  0  0  0  0  0  0  0  0  0
    7.7040  -15.7158   19.2598 N   0  0  0  0  0  0  0  0  0  0  0  0
    8.3214  -15.5760   21.5948 C   0  0  0  0  0  0  0  0  0  0  0  0
    7.3517  -16.3444   21.8381 O   0  0  0  0  0  0  0  0  0  0  0  0
    8.1145  -17.8176   22.7628 C   0  0  0  0  0  0  0  0  0  0  0  0
    9.1394  -17.3360   23.7358 C   0  0  1  0  0  0  0  0  0  0  0  0
   10.4073  -17.6777   23.2901 O   0  0  0  0  0  0  0  0  0  0  0  0
    9.0192  -15.8279   23.9802 C   0  0  2  0  0  0  0  0  0  0  0  0
    9.1196  -15.1886   22.7034 N   0  0  0  0  0  0  0  0  0  0  0  0
   10.0475  -15.3670   24.9420 C   0  0  0  0  0  0  0  0  0  0  0  0
   10.8197  -14.4101   24.6804 O   0  0  0  0  0  0  0  0  0  0  0  0
    9.5599  -13.2097   26.4436 C   0  0  0  0  0  0  0  0  0  0  0  0
    9.6227  -14.0894   27.6747 C   0  0  1  0  0  0  0  0  0  0  0  0
    8.3997  -14.6203   28.0201 O   0  0  0  0  0  0  0  0  0  0  0  0
   10.6012  -15.2098   27.4030 C   0  0  2  0  0  0  0  0  0  0  0  0
   10.2318  -15.9762   26.2288 N   0  0  0  0  0  0  0  0  0  0  0  0
   10.7468  -16.0965   28.5971 C   0  0  0  0  0  0  0  0  0  0  0  0
   11.4939  -15.7268   29.7058 O   0  0  0  0  0  0  0  0  0  0  0  0
   10.1819  -17.2159   28.6152 O   0  0  0  0  0  0  0  0  0  0  0  0
  2  1  1  0
  2  3  2  0
  4  2  1  0
  5  4  1  0
  6  8  1  0
  6  5  1  0
  6  7  1  6
  8 14  1  0
  9  8  2  0
 11 10  1  6
 11 12  1  0
 13 11  1  0
 13 14  1  6
 15 21  1  0
 15 13  1  0
 16 15  2  0
 18 20  1  0
 18 17  1  6
 19 18  1  0
 20 21  1  6
 20 22  1  0
 22 23  1  0
 24 22  2  0
M  END
$$$$
