QTT.pdb
     RDKit          3D

 24 23  0  0  1  0  0  0  0  0999 V2000
    6.7653  -15.0737   18.2181 N   0  0  0  0  0  0  0  0  0  0  0  0
    7.5422  -13.9474   17.8736 C   0  0  0  0  0  0  0  0  0  0  0  0
    7.8208  -13.7364   16.6793 O   0  0  0  0  0  0  0  0  0  0  0  0
    8.0164  -13.0330   18.9224 C   0  0  0  0  0  0  0  0  0  0  0  0
    7.5962  -13.5665   20.2664 C   0  0  0  0  0  0  0  0  0  0  0  0
    8.7645  -13.6111   21.2384 C   0  0  2  0  0  0  0  0  0  0  0  0
    9.7823  -14.4529   20.6383 N   0  0  0  0  0  0  0  0  0  0  0  0
    8.2518  -14.2409   22.4998 C   0  0  0  0  0  0  0  0  0  0  0  0
    7.2840  -13.7465   23.1393 O   0  0  0  0  0  0  0  0  0  0  0  0
    6.8247  -17.5148   23.1680 C   0  0  0  0  0  0  0  0  0  0  0  0
    8.0264  -17.4228   24.0491 C   0  0  1  0  0  0  0  0  0  0  0  0
    9.0692  -18.1528   23.4990 O   0  0  0  0  0  0  0  0  0  0  0  0
    8.4325  -15.9661   24.2975 C   0  0  2  0  0  0  0  0  0  0  0  0
    8.8303  -15.4223   23.0345 N   0  0  0  0  0  0  0  0  0  0  0  0
    9.4965  -15.8843   25.3251 C   0  0  0  0  0  0  0  0  0  0  0  0
   10.7147  -15.8406   25.0174 O   0  0  0  0  0  0  0  0  0  0  0  0
   10.2993  -13.3084   27.8026 C   0  0  0  0  0  0  0  0  0  0  0  0
   10.0747  -14.5562   28.6309 C   0  0  1  0  0  0  0  0  0  0  0  0
    8.8250  -14.6014   29.2084 O   0  0  0  0  0  0  0  0  0  0  0  0
   10.2592  -15.7576   27.7314 C   0  0  2  0  0  0  0  0  0  0  0  0
    9.2126  -15.8494   26.7319 N   0  0  0  0  0  0  0  0  0  0  0  0
   10.3485  -17.0175   28.5302 C   0  0  0  0  0  0  0  0  0  0  0  0
    9.3786  -18.0066   28.4617 O   0  0  0  0  0  0  0  0  0  0  0  0
   11.3260  -17.2040   29.2933 O   0  0  0  0  0  0  0  0  0  0  0  0
  2  1  1  0
  2  3  2  0
  4  2  1  0
  5  4  1  0
  6  8  1  0
  6  5  1  0
  6  7  1  6
  8 14  1  0
  9  8  2  0
 11 10  1  6
 11 12  1  0
 13 11  1  0
 13 14  1  6
 15 21  1  0
 15 13  1  0
 16 15  2  0
 18 20  1  0
 18 17  1  6
 19 18  1  0
 20 21  1  6
 20 22  1  0
 22 23  1  0
 24 22  2  0
M  END
$$$$
