KHV.pdb
     RDKit          3D

 27 27  0  0  1  0  0  0  0  0999 V2000
   23.2125  -22.9897  -20.2395 N   0  0  0  0  0  0  0  0  0  0  0  0
   22.4737  -21.8043  -19.9870 C   0  0  1  0  0  0  0  0  0  0  0  0
   21.0171  -21.8572  -20.2894 C   0  0  0  0  0  0  0  0  0  0  0  0
   20.4631  -23.2326  -20.4851 C   0  0  0  0  0  0  0  0  0  0  0  0
   19.0287  -23.3023  -20.8688 C   0  0  0  0  0  0  0  0  0  0  0  0
   18.5467  -24.7252  -21.0739 C   0  0  0  0  0  0  0  0  0  0  0  0
   17.1679  -24.7634  -21.5002 N   0  0  0  0  0  0  0  0  0  0  0  0
   22.6466  -21.2713  -18.6014 C   0  0  0  0  0  0  0  0  0  0  0  0
   22.6791  -22.0740  -17.6253 O   0  0  0  0  0  0  0  0  0  0  0  0
   22.7819  -19.9000  -18.2789 N   0  0  0  0  0  0  0  0  0  0  0  0
   22.9851  -19.4097  -16.9231 C   0  0  1  0  0  0  0  0  0  0  0  0
   23.5941  -18.0144  -16.9623 C   0  0  0  0  0  0  0  0  0  0  0  0
   25.0070  -17.9984  -17.2867 C   0  0  0  0  0  0  0  0  0  0  0  0
   25.8616  -19.0576  -17.5048 C   0  0  0  0  0  0  0  0  0  0  0  0
   27.0876  -18.5501  -17.7560 N   0  0  0  0  0  0  0  0  0  0  0  0
   27.0292  -17.2079  -17.7022 C   0  0  0  0  0  0  0  0  0  0  0  0
   25.7614  -16.8668  -17.4159 N   0  0  0  0  0  0  0  0  0  0  0  0
   21.7370  -19.3535  -16.1602 C   0  0  0  0  0  0  0  0  0  0  0  0
   20.7059  -18.9269  -16.7308 O   0  0  0  0  0  0  0  0  0  0  0  0
   20.8606  -22.0086  -13.1945 C   0  0  0  0  0  0  0  0  0  0  0  0
   20.3346  -20.6256  -12.9038 C   0  0  1  0  0  0  0  0  0  0  0  0
   21.1161  -20.0049  -11.7960 C   0  0  0  0  0  0  0  0  0  0  0  0
   20.3545  -19.8050  -14.1795 C   0  0  2  0  0  0  0  0  0  0  0  0
   21.6372  -19.7647  -14.7910 N   0  0  0  0  0  0  0  0  0  0  0  0
   19.8064  -18.4514  -13.9170 C   0  0  0  0  0  0  0  0  0  0  0  0
   18.4590  -18.1937  -13.7434 O   0  0  0  0  0  0  0  0  0  0  0  0
   20.6031  -17.4826  -13.8477 O   0  0  0  0  0  0  0  0  0  0  0  0
  2  1  1  1
  2  8  1  0
  2  3  1  0
  4  3  1  0
  5  4  1  0
  6  5  1  0
  7  6  1  0
  8  9  2  0
 10 11  1  0
 10  8  1  0
 11 12  1  6
 12 13  1  0
 13 14  2  0
 15 14  1  0
 16 15  1  0
 17 16  2  0
 17 13  1  0
 18 11  1  0
 19 18  2  0
 21 20  1  6
 21 23  1  0
 22 21  1  0
 23 25  1  0
 23 24  1  1
 24 18  1  0
 25 26  1  0
 27 25  2  0
M  END
$$$$
