KHV.pdb
     RDKit          3D

 27 27  0  0  1  0  0  0  0  0999 V2000
   17.5454  -11.6640  -19.9784 N   0  0  0  0  0  0  0  0  0  0  0  0
   16.6725  -11.7512  -18.8625 C   0  0  1  0  0  0  0  0  0  0  0  0
   16.3237  -13.1234  -18.4030 C   0  0  0  0  0  0  0  0  0  0  0  0
   17.4937  -13.9941  -18.0714 C   0  0  0  0  0  0  0  0  0  0  0  0
   18.0471  -14.7888  -19.1991 C   0  0  0  0  0  0  0  0  0  0  0  0
   19.1647  -15.7178  -18.7667 C   0  0  0  0  0  0  0  0  0  0  0  0
   20.4346  -15.0332  -18.7131 N   0  0  0  0  0  0  0  0  0  0  0  0
   17.1288  -10.9613  -17.6785 C   0  0  0  0  0  0  0  0  0  0  0  0
   16.4028  -10.9138  -16.6447 O   0  0  0  0  0  0  0  0  0  0  0  0
   18.3442  -10.2391  -17.6142 N   0  0  0  0  0  0  0  0  0  0  0  0
   18.7241   -9.4046  -16.4832 C   0  0  1  0  0  0  0  0  0  0  0  0
   19.9677   -9.9740  -15.8134 C   0  0  0  0  0  0  0  0  0  0  0  0
   20.3634   -9.2676  -14.6108 C   0  0  0  0  0  0  0  0  0  0  0  0
   19.8142   -8.1369  -14.0454 C   0  0  0  0  0  0  0  0  0  0  0  0
   20.5331   -7.8400  -12.9415 N   0  0  0  0  0  0  0  0  0  0  0  0
   21.5148   -8.7473  -12.7968 C   0  0  0  0  0  0  0  0  0  0  0  0
   21.4152   -9.6203  -13.8135 N   0  0  0  0  0  0  0  0  0  0  0  0
   18.9986   -8.0227  -16.8804 C   0  0  0  0  0  0  0  0  0  0  0  0
   19.7333   -7.8211  -17.8756 O   0  0  0  0  0  0  0  0  0  0  0  0
   16.6102   -4.8177  -15.7566 C   0  0  0  0  0  0  0  0  0  0  0  0
   17.5306   -4.7567  -16.9494 C   0  0  1  0  0  0  0  0  0  0  0  0
   17.8394   -3.3369  -17.2838 C   0  0  0  0  0  0  0  0  0  0  0  0
   18.7696   -5.5853  -16.6675 C   0  0  2  0  0  0  0  0  0  0  0  0
   18.4658   -6.8879  -16.1861 N   0  0  0  0  0  0  0  0  0  0  0  0
   19.6785   -4.8412  -15.7610 C   0  0  0  0  0  0  0  0  0  0  0  0
   19.9198   -5.2103  -14.4504 O   0  0  0  0  0  0  0  0  0  0  0  0
   20.2634   -3.8201  -16.2005 O   0  0  0  0  0  0  0  0  0  0  0  0
  2  1  1  6
  2  8  1  0
  2  3  1  0
  4  3  1  0
  5  4  1  0
  6  5  1  0
  7  6  1  0
  8  9  2  0
 10 11  1  0
 10  8  1  0
 11 12  1  6
 12 13  1  0
 13 14  2  0
 15 14  1  0
 16 15  1  0
 17 16  2  0
 17 13  1  0
 18 11  1  0
 19 18  2  0
 21 20  1  1
 21 23  1  0
 22 21  1  0
 23 25  1  0
 23 24  1  1
 24 18  1  0
 25 26  1  0
 27 25  2  0
M  END
$$$$
