KHV.pdb
     RDKit          3D

 27 27  0  0  1  0  0  0  0  0999 V2000
   21.8093  -13.9045  -20.5619 N   0  0  0  0  0  0  0  0  0  0  0  0
   21.1570  -12.7123  -20.1519 C   0  0  1  0  0  0  0  0  0  0  0  0
   19.6687  -12.7386  -20.1586 C   0  0  0  0  0  0  0  0  0  0  0  0
   19.0456  -12.8391  -21.5145 C   0  0  0  0  0  0  0  0  0  0  0  0
   17.5597  -12.8716  -21.5415 C   0  0  0  0  0  0  0  0  0  0  0  0
   17.0038  -13.0404  -22.9419 C   0  0  0  0  0  0  0  0  0  0  0  0
   15.5798  -13.2775  -22.9239 N   0  0  0  0  0  0  0  0  0  0  0  0
   21.6117  -12.2046  -18.8218 C   0  0  0  0  0  0  0  0  0  0  0  0
   21.2892  -12.8320  -17.7727 O   0  0  0  0  0  0  0  0  0  0  0  0
   22.3986  -11.0439  -18.6308 N   0  0  0  0  0  0  0  0  0  0  0  0
   22.7906  -10.5457  -17.3201 C   0  0  1  0  0  0  0  0  0  0  0  0
   24.3083  -10.4549  -17.2327 C   0  0  0  0  0  0  0  0  0  0  0  0
   24.9723  -11.7426  -17.1808 C   0  0  0  0  0  0  0  0  0  0  0  0
   25.6281  -12.4244  -18.1833 C   0  0  0  0  0  0  0  0  0  0  0  0
   26.0678  -13.5915  -17.6655 N   0  0  0  0  0  0  0  0  0  0  0  0
   25.7087  -13.6635  -16.3717 C   0  0  0  0  0  0  0  0  0  0  0  0
   25.0398  -12.5374  -16.0717 N   0  0  0  0  0  0  0  0  0  0  0  0
   22.2265   -9.2250  -17.0367 C   0  0  0  0  0  0  0  0  0  0  0  0
   22.3593   -8.3212  -17.8948 O   0  0  0  0  0  0  0  0  0  0  0  0
   19.1868   -8.1318  -17.2816 C   0  0  0  0  0  0  0  0  0  0  0  0
   19.4794   -7.5752  -15.9111 C   0  0  1  0  0  0  0  0  0  0  0  0
   18.6958   -8.3160  -14.8814 C   0  0  0  0  0  0  0  0  0  0  0  0
   20.9756   -7.6156  -15.6642 C   0  0  2  0  0  0  0  0  0  0  0  0
   21.5275   -8.9158  -15.8244 N   0  0  0  0  0  0  0  0  0  0  0  0
   21.2841   -7.0261  -14.3379 C   0  0  0  0  0  0  0  0  0  0  0  0
   21.8070   -7.7513  -13.2831 O   0  0  0  0  0  0  0  0  0  0  0  0
   21.0606   -5.8034  -14.1561 O   0  0  0  0  0  0  0  0  0  0  0  0
  2  1  1  1
  2  8  1  0
  2  3  1  0
  4  3  1  0
  5  4  1  0
  6  5  1  0
  7  6  1  0
  8  9  2  0
 10 11  1  0
 10  8  1  0
 11 12  1  6
 12 13  1  0
 13 14  2  0
 15 14  1  0
 16 15  1  0
 17 16  2  0
 17 13  1  0
 18 11  1  0
 19 18  2  0
 21 20  1  6
 21 23  1  0
 22 21  1  0
 23 25  1  0
 23 24  1  1
 24 18  1  0
 25 26  1  0
 27 25  2  0
M  END
$$$$
