KHV.pdb
     RDKit          3D

 27 27  0  0  1  0  0  0  0  0999 V2000
   14.6303  -17.6131    1.6926 N   0  0  0  0  0  0  0  0  0  0  0  0
   14.1731  -17.5374    3.0342 C   0  0  1  0  0  0  0  0  0  0  0  0
   12.7590  -17.9363    3.2731 C   0  0  0  0  0  0  0  0  0  0  0  0
   11.8841  -17.9154    2.0602 C   0  0  0  0  0  0  0  0  0  0  0  0
   10.9557  -16.7595    1.9536 C   0  0  0  0  0  0  0  0  0  0  0  0
   10.0564  -16.8421    0.7356 C   0  0  0  0  0  0  0  0  0  0  0  0
    9.2487  -15.6546    0.5893 N   0  0  0  0  0  0  0  0  0  0  0  0
   15.0386  -18.2710    4.0071 C   0  0  0  0  0  0  0  0  0  0  0  0
   14.7244  -18.2861    5.2316 O   0  0  0  0  0  0  0  0  0  0  0  0
   16.2180  -18.9734    3.6629 N   0  0  0  0  0  0  0  0  0  0  0  0
   17.0217  -19.7144    4.6246 C   0  0  1  0  0  0  0  0  0  0  0  0
   17.6563  -20.9224    3.9486 C   0  0  0  0  0  0  0  0  0  0  0  0
   18.5204  -21.6963    4.8182 C   0  0  0  0  0  0  0  0  0  0  0  0
   19.8973  -21.7489    4.8538 C   0  0  0  0  0  0  0  0  0  0  0  0
   20.2492  -22.6250    5.8194 N   0  0  0  0  0  0  0  0  0  0  0  0
   19.1381  -23.1231    6.3897 C   0  0  0  0  0  0  0  0  0  0  0  0
   18.0807  -22.5593    5.7817 N   0  0  0  0  0  0  0  0  0  0  0  0
   18.0842  -18.8943    5.2090 C   0  0  0  0  0  0  0  0  0  0  0  0
   18.7306  -18.1281    4.4567 O   0  0  0  0  0  0  0  0  0  0  0  0
   18.0086  -16.1296    7.6375 C   0  0  0  0  0  0  0  0  0  0  0  0
   18.9680  -17.1490    8.1979 C   0  0  1  0  0  0  0  0  0  0  0  0
   18.3269  -17.8892    9.3223 C   0  0  0  0  0  0  0  0  0  0  0  0
   19.4410  -18.0580    7.0793 C   0  0  2  0  0  0  0  0  0  0  0  0
   18.4201  -18.9244    6.6018 N   0  0  0  0  0  0  0  0  0  0  0  0
   20.6570  -18.7930    7.5068 C   0  0  0  0  0  0  0  0  0  0  0  0
   21.8515  -18.1732    7.8246 O   0  0  0  0  0  0  0  0  0  0  0  0
   20.6063  -20.0456    7.5864 O   0  0  0  0  0  0  0  0  0  0  0  0
  2  1  1  6
  2  8  1  0
  2  3  1  0
  4  3  1  0
  5  4  1  0
  6  5  1  0
  7  6  1  0
  8  9  2  0
 10 11  1  0
 10  8  1  0
 11 12  1  6
 12 13  1  0
 13 14  2  0
 15 14  1  0
 16 15  1  0
 17 16  2  0
 17 13  1  0
 18 11  1  0
 19 18  2  0
 21 20  1  6
 21 23  1  0
 22 21  1  0
 23 25  1  0
 23 24  1  1
 24 18  1  0
 25 26  1  0
 27 25  2  0
M  END
$$$$
