KHV.pdb
     RDKit          3D

 27 27  0  0  1  0  0  0  0  0999 V2000
   24.9803  -25.4389  -15.1837 N   0  0  0  0  0  0  0  0  0  0  0  0
   25.9184  -24.3756  -15.1199 C   0  0  1  0  0  0  0  0  0  0  0  0
   27.0758  -24.4596  -16.0522 C   0  0  0  0  0  0  0  0  0  0  0  0
   27.1241  -25.6992  -16.8877 C   0  0  0  0  0  0  0  0  0  0  0  0
   28.3673  -25.8969  -17.6783 C   0  0  0  0  0  0  0  0  0  0  0  0
   28.3495  -27.1807  -18.4848 C   0  0  0  0  0  0  0  0  0  0  0  0
   29.5595  -27.3414  -19.2557 N   0  0  0  0  0  0  0  0  0  0  0  0
   25.3024  -23.0208  -15.2571 C   0  0  0  0  0  0  0  0  0  0  0  0
   24.0622  -22.9208  -15.4812 O   0  0  0  0  0  0  0  0  0  0  0  0
   26.0123  -21.8009  -15.1536 N   0  0  0  0  0  0  0  0  0  0  0  0
   25.3706  -20.4940  -15.1689 C   0  0  1  0  0  0  0  0  0  0  0  0
   25.7255  -19.7273  -13.9018 C   0  0  0  0  0  0  0  0  0  0  0  0
   25.0187  -20.1838  -12.7212 C   0  0  0  0  0  0  0  0  0  0  0  0
   24.0451  -21.1531  -12.6103 C   0  0  0  0  0  0  0  0  0  0  0  0
   23.6726  -21.2135  -11.3137 N   0  0  0  0  0  0  0  0  0  0  0  0
   24.3805  -20.3138  -10.6086 C   0  0  0  0  0  0  0  0  0  0  0  0
   25.2031  -19.6829  -11.4636 N   0  0  0  0  0  0  0  0  0  0  0  0
   25.7703  -19.6929  -16.3271 C   0  0  0  0  0  0  0  0  0  0  0  0
   26.9918  -19.4893  -16.5207 O   0  0  0  0  0  0  0  0  0  0  0  0
   23.0591  -18.1690  -19.3697 C   0  0  0  0  0  0  0  0  0  0  0  0
   24.4026  -18.7978  -19.6406 C   0  0  1  0  0  0  0  0  0  0  0  0
   24.9572  -18.2833  -20.9254 C   0  0  0  0  0  0  0  0  0  0  0  0
   25.3176  -18.5519  -18.4558 C   0  0  2  0  0  0  0  0  0  0  0  0
   24.8311  -19.1308  -17.2521 N   0  0  0  0  0  0  0  0  0  0  0  0
   25.5875  -17.0992  -18.3201 C   0  0  0  0  0  0  0  0  0  0  0  0
   26.5407  -16.4271  -19.0628 O   0  0  0  0  0  0  0  0  0  0  0  0
   24.9183  -16.4379  -17.4876 O   0  0  0  0  0  0  0  0  0  0  0  0
  2  1  1  6
  2  8  1  0
  2  3  1  0
  4  3  1  0
  5  4  1  0
  6  5  1  0
  7  6  1  0
  8  9  2  0
 10 11  1  0
 10  8  1  0
 11 12  1  1
 12 13  1  0
 13 14  2  0
 15 14  1  0
 16 15  1  0
 17 16  2  0
 17 13  1  0
 18 11  1  0
 19 18  2  0
 21 20  1  1
 21 23  1  0
 22 21  1  0
 23 25  1  0
 23 24  1  1
 24 18  1  0
 25 26  1  0
 27 25  2  0
M  END
$$$$
