KHV.pdb
     RDKit          3D

 27 27  0  0  1  0  0  0  0  0999 V2000
   19.5318  -14.6635  -19.8827 N   0  0  0  0  0  0  0  0  0  0  0  0
   18.7815  -13.6257  -19.2705 C   0  0  1  0  0  0  0  0  0  0  0  0
   17.9660  -14.0110  -18.0863 C   0  0  0  0  0  0  0  0  0  0  0  0
   16.8239  -14.9311  -18.3792 C   0  0  0  0  0  0  0  0  0  0  0  0
   16.6762  -16.0898  -17.4599 C   0  0  0  0  0  0  0  0  0  0  0  0
   15.5279  -17.0010  -17.8474 C   0  0  0  0  0  0  0  0  0  0  0  0
   15.4925  -18.1896  -17.0287 N   0  0  0  0  0  0  0  0  0  0  0  0
   19.5972  -12.4266  -18.9089 C   0  0  0  0  0  0  0  0  0  0  0  0
   20.8136  -12.5722  -18.5971 O   0  0  0  0  0  0  0  0  0  0  0  0
   19.1077  -11.0989  -18.8856 N   0  0  0  0  0  0  0  0  0  0  0  0
   19.9473   -9.9373  -18.6296 C   0  0  1  0  0  0  0  0  0  0  0  0
   19.2713   -8.6812  -19.1628 C   0  0  0  0  0  0  0  0  0  0  0  0
   20.0511   -7.4724  -18.9829 C   0  0  0  0  0  0  0  0  0  0  0  0
   21.2913   -7.1530  -19.4926 C   0  0  0  0  0  0  0  0  0  0  0  0
   21.6188   -5.9254  -19.0350 N   0  0  0  0  0  0  0  0  0  0  0  0
   20.6248   -5.4653  -18.2553 C   0  0  0  0  0  0  0  0  0  0  0  0
   19.6661   -6.4061  -18.2204 N   0  0  0  0  0  0  0  0  0  0  0  0
   20.2186   -9.7521  -17.2030 C   0  0  0  0  0  0  0  0  0  0  0  0
   19.3089  -10.0155  -16.3821 O   0  0  0  0  0  0  0  0  0  0  0  0
   24.0701   -9.3954  -15.3892 C   0  0  0  0  0  0  0  0  0  0  0  0
   22.7999   -9.8547  -14.7187 C   0  0  1  0  0  0  0  0  0  0  0  0
   22.9213   -9.7075  -13.2400 C   0  0  0  0  0  0  0  0  0  0  0  0
   21.6243   -9.0914  -15.2989 C   0  0  2  0  0  0  0  0  0  0  0  0
   21.4763   -9.2850  -16.6994 N   0  0  0  0  0  0  0  0  0  0  0  0
   21.7225   -7.6575  -14.9300 C   0  0  0  0  0  0  0  0  0  0  0  0
   21.3992   -7.1675  -13.6780 O   0  0  0  0  0  0  0  0  0  0  0  0
   22.1195   -6.8390  -15.7962 O   0  0  0  0  0  0  0  0  0  0  0  0
  2  1  1  1
  2  8  1  0
  2  3  1  0
  4  3  1  0
  5  4  1  0
  6  5  1  0
  7  6  1  0
  8  9  2  0
 10 11  1  0
 10  8  1  0
 11 12  1  1
 12 13  1  0
 13 14  2  0
 15 14  1  0
 16 15  1  0
 17 16  2  0
 17 13  1  0
 18 11  1  0
 19 18  2  0
 21 20  1  6
 21 23  1  0
 22 21  1  0
 23 25  1  0
 23 24  1  6
 24 18  1  0
 25 26  1  0
 27 25  2  0
M  END
$$$$
