KHV.pdb
     RDKit          3D

 27 27  0  0  1  0  0  0  0  0999 V2000
   26.7626  -22.8555  -16.2990 N   0  0  0  0  0  0  0  0  0  0  0  0
   27.5744  -21.7509  -15.9308 C   0  0  1  0  0  0  0  0  0  0  0  0
   28.0194  -20.8607  -17.0378 C   0  0  0  0  0  0  0  0  0  0  0  0
   28.6502  -21.5635  -18.1977 C   0  0  0  0  0  0  0  0  0  0  0  0
   30.0526  -22.0130  -17.9952 C   0  0  0  0  0  0  0  0  0  0  0  0
   30.2233  -23.5057  -18.1988 C   0  0  0  0  0  0  0  0  0  0  0  0
   31.6005  -23.9097  -18.0426 N   0  0  0  0  0  0  0  0  0  0  0  0
   26.9813  -20.9007  -14.8542 C   0  0  0  0  0  0  0  0  0  0  0  0
   27.4983  -19.7771  -14.5925 O   0  0  0  0  0  0  0  0  0  0  0  0
   25.8532  -21.2580  -14.0779 N   0  0  0  0  0  0  0  0  0  0  0  0
   25.2940  -20.4095  -13.0352 C   0  0  1  0  0  0  0  0  0  0  0  0
   23.7951  -20.2451  -13.2489 C   0  0  0  0  0  0  0  0  0  0  0  0
   23.4469  -19.5989  -14.4991 C   0  0  0  0  0  0  0  0  0  0  0  0
   24.2735  -19.0341  -15.4463 C   0  0  0  0  0  0  0  0  0  0  0  0
   23.4917  -18.5384  -16.4295 N   0  0  0  0  0  0  0  0  0  0  0  0
   22.2024  -18.7738  -16.1292 C   0  0  0  0  0  0  0  0  0  0  0  0
   22.1703  -19.4206  -14.9518 N   0  0  0  0  0  0  0  0  0  0  0  0
   25.5178  -20.9556  -11.6955 C   0  0  0  0  0  0  0  0  0  0  0  0
   25.2852  -22.1713  -11.4988 O   0  0  0  0  0  0  0  0  0  0  0  0
   26.1911  -18.6425   -8.0691 C   0  0  0  0  0  0  0  0  0  0  0  0
   26.9080  -19.9418   -8.3369 C   0  0  1  0  0  0  0  0  0  0  0  0
   27.1776  -20.6500   -7.0528 C   0  0  0  0  0  0  0  0  0  0  0  0
   26.0946  -20.7692   -9.3142 C   0  0  2  0  0  0  0  0  0  0  0  0
   25.9921  -20.1663  -10.5975 N   0  0  0  0  0  0  0  0  0  0  0  0
   24.7694  -21.0854   -8.7265 C   0  0  0  0  0  0  0  0  0  0  0  0
   24.5912  -21.9633   -7.6731 O   0  0  0  0  0  0  0  0  0  0  0  0
   23.7501  -20.5298   -9.2065 O   0  0  0  0  0  0  0  0  0  0  0  0
  2  1  1  6
  2  8  1  0
  2  3  1  0
  4  3  1  0
  5  4  1  0
  6  5  1  0
  7  6  1  0
  8  9  2  0
 10 11  1  0
 10  8  1  0
 11 12  1  6
 12 13  1  0
 13 14  2  0
 15 14  1  0
 16 15  1  0
 17 16  2  0
 17 13  1  0
 18 11  1  0
 19 18  2  0
 21 20  1  1
 21 23  1  0
 22 21  1  0
 23 25  1  0
 23 24  1  6
 24 18  1  0
 25 26  1  0
 27 25  2  0
M  END
$$$$
