KHV.pdb
     RDKit          3D

 27 27  0  0  1  0  0  0  0  0999 V2000
   22.0942  -12.8970  -18.5061 N   0  0  0  0  0  0  0  0  0  0  0  0
   22.0077  -11.4963  -18.7191 C   0  0  1  0  0  0  0  0  0  0  0  0
   20.6962  -10.9815  -19.1996 C   0  0  0  0  0  0  0  0  0  0  0  0
   20.0388  -11.8155  -20.2528 C   0  0  0  0  0  0  0  0  0  0  0  0
   18.8188  -11.2321  -20.8701 C   0  0  0  0  0  0  0  0  0  0  0  0
   18.2468  -12.1034  -21.9712 C   0  0  0  0  0  0  0  0  0  0  0  0
   19.1851  -12.2755  -23.0548 N   0  0  0  0  0  0  0  0  0  0  0  0
   22.4282  -10.6812  -17.5389 C   0  0  0  0  0  0  0  0  0  0  0  0
   21.8597  -10.8607  -16.4241 O   0  0  0  0  0  0  0  0  0  0  0  0
   23.4418   -9.6939  -17.5642 N   0  0  0  0  0  0  0  0  0  0  0  0
   23.8724   -8.9541  -16.3864 C   0  0  1  0  0  0  0  0  0  0  0  0
   25.3926   -8.8692  -16.3546 C   0  0  0  0  0  0  0  0  0  0  0  0
   26.0487  -10.1465  -16.1551 C   0  0  0  0  0  0  0  0  0  0  0  0
   25.4897  -11.3850  -15.9238 C   0  0  0  0  0  0  0  0  0  0  0  0
   26.4995  -12.2706  -15.7829 N   0  0  0  0  0  0  0  0  0  0  0  0
   27.6726  -11.6277  -15.9181 C   0  0  0  0  0  0  0  0  0  0  0  0
   27.4023  -10.3311  -16.1451 N   0  0  0  0  0  0  0  0  0  0  0  0
   23.3278   -7.5956  -16.3543 C   0  0  0  0  0  0  0  0  0  0  0  0
   23.4730   -6.8691  -17.3652 O   0  0  0  0  0  0  0  0  0  0  0  0
   19.8487   -6.6900  -14.6599 C   0  0  0  0  0  0  0  0  0  0  0  0
   20.5609   -5.8356  -15.6781 C   0  0  1  0  0  0  0  0  0  0  0  0
   19.9189   -4.4922  -15.7556 C   0  0  0  0  0  0  0  0  0  0  0  0
   22.0366   -5.7717  -15.3324 C   0  0  2  0  0  0  0  0  0  0  0  0
   22.6347   -7.0565  -15.2218 N   0  0  0  0  0  0  0  0  0  0  0  0
   22.2343   -4.9453  -14.1160 C   0  0  0  0  0  0  0  0  0  0  0  0
   22.1792   -3.5637  -14.1144 O   0  0  0  0  0  0  0  0  0  0  0  0
   22.4648   -5.5249  -13.0256 O   0  0  0  0  0  0  0  0  0  0  0  0
  2  1  1  1
  2  8  1  0
  2  3  1  0
  4  3  1  0
  5  4  1  0
  6  5  1  0
  7  6  1  0
  8  9  2  0
 10 11  1  0
 10  8  1  0
 11 12  1  6
 12 13  1  0
 13 14  2  0
 15 14  1  0
 16 15  1  0
 17 16  2  0
 17 13  1  0
 18 11  1  0
 19 18  2  0
 21 20  1  1
 21 23  1  0
 22 21  1  0
 23 25  1  0
 23 24  1  1
 24 18  1  0
 25 26  1  0
 27 25  2  0
M  END
$$$$
