KHV.pdb
     RDKit          3D

 27 27  0  0  1  0  0  0  0  0999 V2000
   19.3212  -25.1724   -9.1717 N   0  0  0  0  0  0  0  0  0  0  0  0
   18.1071  -25.7206   -8.6816 C   0  0  1  0  0  0  0  0  0  0  0  0
   17.9181  -27.1843   -8.8752 C   0  0  0  0  0  0  0  0  0  0  0  0
   17.6737  -27.6073  -10.2889 C   0  0  0  0  0  0  0  0  0  0  0  0
   18.8732  -28.0505  -11.0468 C   0  0  0  0  0  0  0  0  0  0  0  0
   18.5503  -28.4431  -12.4752 C   0  0  0  0  0  0  0  0  0  0  0  0
   19.7293  -28.8750  -13.1876 N   0  0  0  0  0  0  0  0  0  0  0  0
   17.8370  -25.3979   -7.2474 C   0  0  0  0  0  0  0  0  0  0  0  0
   18.8048  -25.1556   -6.4710 O   0  0  0  0  0  0  0  0  0  0  0  0
   16.5481  -25.3383   -6.6661 N   0  0  0  0  0  0  0  0  0  0  0  0
   16.3063  -24.9380   -5.2872 C   0  0  1  0  0  0  0  0  0  0  0  0
   14.9484  -24.2576   -5.1754 C   0  0  0  0  0  0  0  0  0  0  0  0
   14.6316  -23.7938   -3.8388 C   0  0  0  0  0  0  0  0  0  0  0  0
   15.3743  -23.8988   -2.6825 C   0  0  0  0  0  0  0  0  0  0  0  0
   14.6597  -23.3368   -1.6839 N   0  0  0  0  0  0  0  0  0  0  0  0
   13.4937  -22.8835   -2.1764 C   0  0  0  0  0  0  0  0  0  0  0  0
   13.4721  -23.1604   -3.4912 N   0  0  0  0  0  0  0  0  0  0  0  0
   16.3365  -26.0750   -4.3656 C   0  0  0  0  0  0  0  0  0  0  0  0
   15.5901  -27.0543   -4.5994 O   0  0  0  0  0  0  0  0  0  0  0  0
   19.3391  -27.6366   -3.5378 C   0  0  0  0  0  0  0  0  0  0  0  0
   18.5441  -27.9398   -2.2929 C   0  0  1  0  0  0  0  0  0  0  0  0
   19.3007  -27.5020   -1.0850 C   0  0  0  0  0  0  0  0  0  0  0  0
   17.1755  -27.2951   -2.4046 C   0  0  2  0  0  0  0  0  0  0  0  0
   17.1805  -26.1227   -3.2085 N   0  0  0  0  0  0  0  0  0  0  0  0
   16.6195  -27.0539   -1.0502 C   0  0  0  0  0  0  0  0  0  0  0  0
   16.4590  -25.7938   -0.5041 O   0  0  0  0  0  0  0  0  0  0  0  0
   16.2743  -28.0427   -0.3565 O   0  0  0  0  0  0  0  0  0  0  0  0
  2  1  1  1
  2  8  1  0
  2  3  1  0
  4  3  1  0
  5  4  1  0
  6  5  1  0
  7  6  1  0
  8  9  2  0
 10 11  1  0
 10  8  1  0
 11 12  1  6
 12 13  1  0
 13 14  2  0
 15 14  1  0
 16 15  1  0
 17 16  2  0
 17 13  1  0
 18 11  1  0
 19 18  2  0
 21 20  1  6
 21 23  1  0
 22 21  1  0
 23 25  1  0
 23 24  1  1
 24 18  1  0
 25 26  1  0
 27 25  2  0
M  END
$$$$
