KHV.pdb
     RDKit          3D

 27 27  0  0  1  0  0  0  0  0999 V2000
   20.4193  -12.0217  -17.2813 N   0  0  0  0  0  0  0  0  0  0  0  0
   19.2946  -11.1644  -17.4033 C   0  0  1  0  0  0  0  0  0  0  0  0
   17.9637  -11.7818  -17.1515 C   0  0  0  0  0  0  0  0  0  0  0  0
   17.5100  -12.7508  -18.1965 C   0  0  0  0  0  0  0  0  0  0  0  0
   16.1075  -13.2270  -18.0700 C   0  0  0  0  0  0  0  0  0  0  0  0
   15.7126  -14.1836  -19.1781 C   0  0  0  0  0  0  0  0  0  0  0  0
   16.5696  -15.3449  -19.2088 N   0  0  0  0  0  0  0  0  0  0  0  0
   19.3966   -9.9181  -16.5847 C   0  0  0  0  0  0  0  0  0  0  0  0
   19.0860   -9.9509  -15.3596 O   0  0  0  0  0  0  0  0  0  0  0  0
   19.8255   -8.6639  -17.0803 N   0  0  0  0  0  0  0  0  0  0  0  0
   19.9718   -7.4783  -16.2479 C   0  0  1  0  0  0  0  0  0  0  0  0
   21.4337   -7.2912  -15.8645 C   0  0  0  0  0  0  0  0  0  0  0  0
   21.8922   -8.2013  -14.8333 C   0  0  0  0  0  0  0  0  0  0  0  0
   21.6071   -8.2030  -13.4848 C   0  0  0  0  0  0  0  0  0  0  0  0
   22.2792   -9.2319  -12.9250 N   0  0  0  0  0  0  0  0  0  0  0  0
   22.9761   -9.8747  -13.8784 C   0  0  0  0  0  0  0  0  0  0  0  0
   22.7431   -9.2490  -15.0445 N   0  0  0  0  0  0  0  0  0  0  0  0
   19.5068   -6.2653  -16.9227 C   0  0  0  0  0  0  0  0  0  0  0  0
   19.9374   -6.0188  -18.0736 O   0  0  0  0  0  0  0  0  0  0  0  0
   15.9882   -5.2332  -17.7626 C   0  0  0  0  0  0  0  0  0  0  0  0
   16.6327   -4.0587  -17.0705 C   0  0  1  0  0  0  0  0  0  0  0  0
   16.0811   -3.9124  -15.6931 C   0  0  0  0  0  0  0  0  0  0  0  0
   18.1398   -4.2305  -17.0935 C   0  0  2  0  0  0  0  0  0  0  0  0
   18.5808   -5.3459  -16.3305 N   0  0  0  0  0  0  0  0  0  0  0  0
   18.7980   -2.9652  -16.6844 C   0  0  0  0  0  0  0  0  0  0  0  0
   18.8268   -1.8299  -17.4733 O   0  0  0  0  0  0  0  0  0  0  0  0
   19.3615   -2.9152  -15.5628 O   0  0  0  0  0  0  0  0  0  0  0  0
  2  1  1  1
  2  8  1  0
  2  3  1  0
  4  3  1  0
  5  4  1  0
  6  5  1  0
  7  6  1  0
  8  9  2  0
 10 11  1  0
 10  8  1  0
 11 12  1  6
 12 13  1  0
 13 14  2  0
 15 14  1  0
 16 15  1  0
 17 16  2  0
 17 13  1  0
 18 11  1  0
 19 18  2  0
 21 20  1  1
 21 23  1  0
 22 21  1  0
 23 25  1  0
 23 24  1  1
 24 18  1  0
 25 26  1  0
 27 25  2  0
M  END
$$$$
