KHV.pdb
     RDKit          3D

 27 27  0  0  1  0  0  0  0  0999 V2000
   24.8167  -25.1438  -17.1854 N   0  0  0  0  0  0  0  0  0  0  0  0
   26.1169  -24.8117  -16.7229 C   0  0  1  0  0  0  0  0  0  0  0  0
   27.1964  -24.7896  -17.7476 C   0  0  0  0  0  0  0  0  0  0  0  0
   26.9142  -25.5911  -18.9785 C   0  0  0  0  0  0  0  0  0  0  0  0
   26.1512  -24.8903  -20.0445 C   0  0  0  0  0  0  0  0  0  0  0  0
   25.3132  -25.8363  -20.8821 C   0  0  0  0  0  0  0  0  0  0  0  0
   24.5049  -25.1228  -21.8421 N   0  0  0  0  0  0  0  0  0  0  0  0
   26.1731  -23.5313  -15.9540 C   0  0  0  0  0  0  0  0  0  0  0  0
   27.2635  -23.1694  -15.4264 O   0  0  0  0  0  0  0  0  0  0  0  0
   25.0739  -22.6611  -15.7605 N   0  0  0  0  0  0  0  0  0  0  0  0
   25.1410  -21.4480  -14.9581 C   0  0  1  0  0  0  0  0  0  0  0  0
   24.4326  -20.3093  -15.6798 C   0  0  0  0  0  0  0  0  0  0  0  0
   25.2653  -19.6150  -16.6423 C   0  0  0  0  0  0  0  0  0  0  0  0
   26.6135  -19.7590  -16.8903 C   0  0  0  0  0  0  0  0  0  0  0  0
   26.9470  -18.8841  -17.8634 N   0  0  0  0  0  0  0  0  0  0  0  0
   25.8522  -18.1965  -18.2330 C   0  0  0  0  0  0  0  0  0  0  0  0
   24.8236  -18.6391  -17.4902 N   0  0  0  0  0  0  0  0  0  0  0  0
   24.5272  -21.6195  -13.6402 C   0  0  0  0  0  0  0  0  0  0  0  0
   23.4237  -22.2092  -13.5666 O   0  0  0  0  0  0  0  0  0  0  0  0
   26.5352  -21.7460  -10.1081 C   0  0  0  0  0  0  0  0  0  0  0  0
   25.2428  -20.9785   -9.9878 C   0  0  1  0  0  0  0  0  0  0  0  0
   25.5271  -19.5317   -9.7664 C   0  0  0  0  0  0  0  0  0  0  0  0
   24.3917  -21.2372  -11.2166 C   0  0  2  0  0  0  0  0  0  0  0  0
   25.1287  -21.1461  -12.4288 N   0  0  0  0  0  0  0  0  0  0  0  0
   23.2045  -20.3472  -11.2043 C   0  0  0  0  0  0  0  0  0  0  0  0
   23.0237  -19.3033  -12.0929 O   0  0  0  0  0  0  0  0  0  0  0  0
   22.3119  -20.5465  -10.3433 O   0  0  0  0  0  0  0  0  0  0  0  0
  2  1  1  6
  2  8  1  0
  2  3  1  0
  4  3  1  0
  5  4  1  0
  6  5  1  0
  7  6  1  0
  8  9  2  0
 10 11  1  0
 10  8  1  0
 11 12  1  6
 12 13  1  0
 13 14  2  0
 15 14  1  0
 16 15  1  0
 17 16  2  0
 17 13  1  0
 18 11  1  0
 19 18  2  0
 21 20  1  6
 21 23  1  0
 22 21  1  0
 23 25  1  0
 23 24  1  6
 24 18  1  0
 25 26  1  0
 27 25  2  0
M  END
$$$$
