TPK.pdb
     RDKit          3D

 24 24  0  0  1  0  0  0  0  0999 V2000
    5.8495  -17.4951   19.5601 C   0  0  0  0  0  0  0  0  0  0  0  0
    6.9051  -18.0564   18.6280 C   0  0  1  0  0  0  0  0  0  0  0  0
    6.1631  -18.5490   17.5225 O   0  0  0  0  0  0  0  0  0  0  0  0
    7.7037  -16.8911   18.0634 C   0  0  2  0  0  0  0  0  0  0  0  0
    8.3968  -17.2858   16.8623 N   0  0  0  0  0  0  0  0  0  0  0  0
    8.4895  -16.1618   19.0401 C   0  0  0  0  0  0  0  0  0  0  0  0
    9.5222  -16.7774   19.4878 O   0  0  0  0  0  0  0  0  0  0  0  0
    8.2650  -14.8674   19.5579 N   0  0  0  0  0  0  0  0  0  0  0  0
    7.2621  -13.9305   19.1531 C   0  0  0  0  0  0  0  0  0  0  0  0
    6.8574  -13.2873   20.4952 C   0  0  0  0  0  0  0  0  0  0  0  0
    8.2727  -12.9753   21.0078 C   0  0  0  0  0  0  0  0  0  0  0  0
    9.0332  -14.2253   20.6206 C   0  0  1  0  0  0  0  0  0  0  0  0
    9.1139  -15.0844   21.8303 C   0  0  0  0  0  0  0  0  0  0  0  0
    8.1376  -15.6307   22.3917 O   0  0  0  0  0  0  0  0  0  0  0  0
   10.3978  -15.3032   22.3939 N   0  0  0  0  0  0  0  0  0  0  0  0
   10.6749  -16.2413   23.4590 C   0  0  1  0  0  0  0  0  0  0  0  0
   10.1065  -17.5819   23.3149 C   0  0  0  0  0  0  0  0  0  0  0  0
   10.4931  -18.5759   22.3393 C   0  0  0  0  0  0  0  0  0  0  0  0
    9.9322  -19.9225   22.2112 C   0  0  0  0  0  0  0  0  0  0  0  0
   10.4305  -20.8338   21.1623 C   0  0  0  0  0  0  0  0  0  0  0  0
   11.2007  -21.9180   21.7920 N   0  0  0  0  0  0  0  0  0  0  0  0
   12.0583  -16.1040   23.9438 C   0  0  0  0  0  0  0  0  0  0  0  0
   12.9980  -15.3673   23.2480 O   0  0  0  0  0  0  0  0  0  0  0  0
   12.4205  -16.6566   25.0088 O   0  0  0  0  0  0  0  0  0  0  0  0
  2  1  1  1
  3  2  1  0
  4  6  1  0
  4  2  1  0
  4  5  1  6
  6  8  1  0
  6  7  2  0
  8 12  1  0
  9  8  1  0
  9 10  1  0
 10 11  1  0
 12 11  1  0
 13 15  1  0
 12 13  1  1
 14 13  2  0
 16 17  1  6
 16 15  1  0
 17 18  1  0
 18 19  1  0
 20 19  1  0
 21 20  1  0
 22 16  1  0
 22 23  1  0
 24 22  2  0
M  END
$$$$
