TPK.pdb
     RDKit          3D

 24 24  0  0  1  0  0  0  0  0999 V2000
    7.2928  -17.1959   17.1773 C   0  0  0  0  0  0  0  0  0  0  0  0
    8.6169  -17.1900   16.4393 C   0  0  1  0  0  0  0  0  0  0  0  0
    8.2521  -17.3262   15.0741 O   0  0  0  0  0  0  0  0  0  0  0  0
    9.2067  -15.7913   16.5394 C   0  0  2  0  0  0  0  0  0  0  0  0
   10.1910  -15.5807   15.5072 N   0  0  0  0  0  0  0  0  0  0  0  0
    9.5931  -15.3881   17.8779 C   0  0  0  0  0  0  0  0  0  0  0  0
   10.5006  -16.1073   18.4302 O   0  0  0  0  0  0  0  0  0  0  0  0
    9.1015  -14.3104   18.6465 N   0  0  0  0  0  0  0  0  0  0  0  0
    8.2558  -13.2430   18.2071 C   0  0  0  0  0  0  0  0  0  0  0  0
    7.3385  -13.0311   19.4287 C   0  0  0  0  0  0  0  0  0  0  0  0
    8.4375  -12.9688   20.5018 C   0  0  0  0  0  0  0  0  0  0  0  0
    9.3740  -14.0732   20.0613 C   0  0  1  0  0  0  0  0  0  0  0  0
    9.0621  -15.2701   20.8846 C   0  0  0  0  0  0  0  0  0  0  0  0
    8.4403  -16.2790   20.4815 O   0  0  0  0  0  0  0  0  0  0  0  0
    9.5030  -15.2705   22.2334 N   0  0  0  0  0  0  0  0  0  0  0  0
   10.0898  -16.4105   22.9023 C   0  0  1  0  0  0  0  0  0  0  0  0
   11.0453  -17.2034   22.1282 C   0  0  0  0  0  0  0  0  0  0  0  0
   11.2567  -18.6296   22.2309 C   0  0  0  0  0  0  0  0  0  0  0  0
   12.1964  -19.4218   21.4348 C   0  0  0  0  0  0  0  0  0  0  0  0
   12.3823  -20.8574   21.7238 C   0  0  0  0  0  0  0  0  0  0  0  0
   13.4874  -21.3751   20.9017 N   0  0  0  0  0  0  0  0  0  0  0  0
   10.3957  -16.1036   24.3094 C   0  0  0  0  0  0  0  0  0  0  0  0
    9.7460  -16.7455   25.3466 O   0  0  0  0  0  0  0  0  0  0  0  0
   11.2604  -15.2453   24.6034 O   0  0  0  0  0  0  0  0  0  0  0  0
  2  1  1  1
  3  2  1  0
  4  6  1  0
  4  2  1  0
  4  5  1  6
  6  8  1  0
  6  7  2  0
  8 12  1  0
  9  8  1  0
  9 10  1  0
 10 11  1  0
 12 11  1  0
 13 15  1  0
 12 13  1  1
 14 13  2  0
 16 17  1  6
 16 15  1  0
 17 18  1  0
 18 19  1  0
 20 19  1  0
 21 20  1  0
 22 16  1  0
 22 23  1  0
 24 22  2  0
M  END
$$$$
