TPK.pdb
     RDKit          3D

 24 24  0  0  1  0  0  0  0  0999 V2000
    7.2946  -17.0819   16.9626 C   0  0  0  0  0  0  0  0  0  0  0  0
    8.5241  -16.7911   16.1250 C   0  0  1  0  0  0  0  0  0  0  0  0
    8.0373  -16.7724   14.7915 O   0  0  0  0  0  0  0  0  0  0  0  0
    8.9510  -15.3562   16.3959 C   0  0  2  0  0  0  0  0  0  0  0  0
    9.7877  -14.8659   15.3290 N   0  0  0  0  0  0  0  0  0  0  0  0
    9.4272  -15.1069   17.7429 C   0  0  0  0  0  0  0  0  0  0  0  0
   10.4467  -15.7971   18.1040 O   0  0  0  0  0  0  0  0  0  0  0  0
    8.9156  -14.2060   18.7023 N   0  0  0  0  0  0  0  0  0  0  0  0
    7.8839  -13.2318   18.5176 C   0  0  0  0  0  0  0  0  0  0  0  0
    7.1326  -13.2950   19.8631 C   0  0  0  0  0  0  0  0  0  0  0  0
    8.3572  -13.1929   20.7866 C   0  0  0  0  0  0  0  0  0  0  0  0
    9.3561  -14.0915   20.0897 C   0  0  1  0  0  0  0  0  0  0  0  0
    9.3243  -15.4058   20.7820 C   0  0  0  0  0  0  0  0  0  0  0  0
    8.7381  -16.4281   20.3595 O   0  0  0  0  0  0  0  0  0  0  0  0
   10.0119  -15.5117   22.0188 N   0  0  0  0  0  0  0  0  0  0  0  0
   10.7146  -16.6938   22.4660 C   0  0  1  0  0  0  0  0  0  0  0  0
   11.6225  -17.3190   21.5039 C   0  0  0  0  0  0  0  0  0  0  0  0
   12.3953  -18.5226   21.7126 C   0  0  0  0  0  0  0  0  0  0  0  0
   13.2891  -19.1533   20.7391 C   0  0  0  0  0  0  0  0  0  0  0  0
   14.0952  -20.3271   21.1283 C   0  0  0  0  0  0  0  0  0  0  0  0
   14.8531  -20.8002   19.9592 N   0  0  0  0  0  0  0  0  0  0  0  0
   11.1462  -16.5593   23.8672 C   0  0  0  0  0  0  0  0  0  0  0  0
   10.8612  -17.5313   24.8075 O   0  0  0  0  0  0  0  0  0  0  0  0
   11.7882  -15.5512   24.2447 O   0  0  0  0  0  0  0  0  0  0  0  0
  2  1  1  1
  3  2  1  0
  4  6  1  0
  4  2  1  0
  4  5  1  6
  6  8  1  0
  6  7  2  0
  8 12  1  0
  9  8  1  0
  9 10  1  0
 10 11  1  0
 12 11  1  0
 13 15  1  0
 12 13  1  1
 14 13  2  0
 16 17  1  6
 16 15  1  0
 17 18  1  0
 18 19  1  0
 20 19  1  0
 21 20  1  0
 22 16  1  0
 22 23  1  0
 24 22  2  0
M  END
$$$$
