TPK.pdb
     RDKit          3D

 24 24  0  0  1  0  0  0  0  0999 V2000
    8.2540  -14.8245   25.2512 C   0  0  0  0  0  0  0  0  0  0  0  0
    7.5370  -16.1481   25.4296 C   0  0  1  0  0  0  0  0  0  0  0  0
    6.6247  -15.9066   26.4902 O   0  0  0  0  0  0  0  0  0  0  0  0
    6.6549  -16.3749   24.2110 C   0  0  2  0  0  0  0  0  0  0  0  0
    5.6648  -17.3871   24.4828 N   0  0  0  0  0  0  0  0  0  0  0  0
    7.3714  -16.5072   22.9570 C   0  0  0  0  0  0  0  0  0  0  0  0
    7.8917  -17.6592   22.7380 O   0  0  0  0  0  0  0  0  0  0  0  0
    7.5679  -15.5356   21.9514 N   0  0  0  0  0  0  0  0  0  0  0  0
    6.9352  -14.2568   21.8418 C   0  0  0  0  0  0  0  0  0  0  0  0
    8.0814  -13.3713   21.3120 C   0  0  0  0  0  0  0  0  0  0  0  0
    8.5355  -14.2886   20.1650 C   0  0  0  0  0  0  0  0  0  0  0  0
    8.4666  -15.6574   20.8071 C   0  0  1  0  0  0  0  0  0  0  0  0
    9.8448  -16.0147   21.2320 C   0  0  0  0  0  0  0  0  0  0  0  0
   10.4584  -15.4985   22.1933 O   0  0  0  0  0  0  0  0  0  0  0  0
   10.5191  -17.0197   20.4909 N   0  0  0  0  0  0  0  0  0  0  0  0
   11.7815  -17.6114   20.8747 C   0  0  1  0  0  0  0  0  0  0  0  0
   11.7338  -18.6371   21.9170 C   0  0  0  0  0  0  0  0  0  0  0  0
   10.9062  -19.8223   21.9153 C   0  0  0  0  0  0  0  0  0  0  0  0
   10.9208  -20.8859   22.9216 C   0  0  0  0  0  0  0  0  0  0  0  0
    9.9173  -21.9671   22.8685 C   0  0  0  0  0  0  0  0  0  0  0  0
   10.1159  -22.8657   24.0166 N   0  0  0  0  0  0  0  0  0  0  0  0
   12.6469  -17.8278   19.7033 C   0  0  0  0  0  0  0  0  0  0  0  0
   14.0103  -18.0107   19.8363 O   0  0  0  0  0  0  0  0  0  0  0  0
   12.1638  -17.8515   18.5471 O   0  0  0  0  0  0  0  0  0  0  0  0
  2  1  1  6
  3  2  1  0
  4  6  1  0
  4  2  1  0
  4  5  1  1
  6  8  1  0
  6  7  2  0
  8 12  1  0
  9  8  1  0
  9 10  1  0
 10 11  1  0
 12 11  1  0
 13 15  1  0
 12 13  1  1
 14 13  2  0
 16 17  1  6
 16 15  1  0
 17 18  1  0
 18 19  1  0
 20 19  1  0
 21 20  1  0
 22 16  1  0
 22 23  1  0
 24 22  2  0
M  END
$$$$
