TPK.pdb
     RDKit          3D

 24 24  0  0  1  0  0  0  0  0999 V2000
    6.9762  -13.5371   18.7295 C   0  0  0  0  0  0  0  0  0  0  0  0
    7.3598  -14.1772   20.0489 C   0  0  1  0  0  0  0  0  0  0  0  0
    8.0972  -15.3303   19.6721 O   0  0  0  0  0  0  0  0  0  0  0  0
    8.3796  -13.2776   20.7310 C   0  0  2  0  0  0  0  0  0  0  0  0
    9.4327  -12.9184   19.8140 N   0  0  0  0  0  0  0  0  0  0  0  0
    8.8048  -13.7253   22.0433 C   0  0  0  0  0  0  0  0  0  0  0  0
    9.8816  -14.4223   22.0661 O   0  0  0  0  0  0  0  0  0  0  0  0
    8.1889  -13.4927   23.2925 N   0  0  0  0  0  0  0  0  0  0  0  0
    7.0836  -12.6272   23.5696 C   0  0  0  0  0  0  0  0  0  0  0  0
    6.2998  -13.4297   24.6281 C   0  0  0  0  0  0  0  0  0  0  0  0
    7.4825  -13.7577   25.5538 C   0  0  0  0  0  0  0  0  0  0  0  0
    8.5754  -14.0982   24.5637 C   0  0  1  0  0  0  0  0  0  0  0  0
    8.6354  -15.5796   24.4658 C   0  0  0  0  0  0  0  0  0  0  0  0
    8.0128  -16.2717   23.6288 O   0  0  0  0  0  0  0  0  0  0  0  0
    9.4628  -16.2645   25.3932 N   0  0  0  0  0  0  0  0  0  0  0  0
    9.9453  -17.6163   25.2169 C   0  0  1  0  0  0  0  0  0  0  0  0
   10.6835  -17.8923   23.9841 C   0  0  0  0  0  0  0  0  0  0  0  0
   11.2926  -19.1498   23.6137 C   0  0  0  0  0  0  0  0  0  0  0  0
   11.9889  -19.4339   22.3572 C   0  0  0  0  0  0  0  0  0  0  0  0
   12.5483  -20.7773   22.1099 C   0  0  0  0  0  0  0  0  0  0  0  0
   13.3188  -20.7552   20.8565 N   0  0  0  0  0  0  0  0  0  0  0  0
   10.4448  -18.1738   26.4847 C   0  0  0  0  0  0  0  0  0  0  0  0
   10.9845  -17.3648   27.4667 O   0  0  0  0  0  0  0  0  0  0  0  0
   10.3922  -19.4063   26.7062 O   0  0  0  0  0  0  0  0  0  0  0  0
  2  1  1  6
  3  2  1  0
  4  6  1  0
  4  2  1  0
  4  5  1  6
  6  8  1  0
  6  7  2  0
  8 12  1  0
  9  8  1  0
  9 10  1  0
 10 11  1  0
 12 11  1  0
 13 15  1  0
 12 13  1  6
 14 13  2  0
 16 17  1  6
 16 15  1  0
 17 18  1  0
 18 19  1  0
 20 19  1  0
 21 20  1  0
 22 16  1  0
 22 23  1  0
 24 22  2  0
M  END
$$$$
