TPK.pdb
     RDKit          3D

 24 24  0  0  1  0  0  0  0  0999 V2000
    6.2783  -18.6595   17.4624 C   0  0  0  0  0  0  0  0  0  0  0  0
    7.0649  -18.0877   18.6253 C   0  0  1  0  0  0  0  0  0  0  0  0
    8.0175  -19.0961   18.9271 O   0  0  0  0  0  0  0  0  0  0  0  0
    7.8937  -16.9222   18.1066 C   0  0  2  0  0  0  0  0  0  0  0  0
    8.6016  -17.2969   16.9078 N   0  0  0  0  0  0  0  0  0  0  0  0
    8.6741  -16.2333   19.1165 C   0  0  0  0  0  0  0  0  0  0  0  0
    9.8649  -16.6776   19.2914 O   0  0  0  0  0  0  0  0  0  0  0  0
    8.2932  -15.1415   19.9270 N   0  0  0  0  0  0  0  0  0  0  0  0
    7.1274  -14.3229   19.7918 C   0  0  0  0  0  0  0  0  0  0  0  0
    6.7369  -14.0682   21.2620 C   0  0  0  0  0  0  0  0  0  0  0  0
    8.1229  -13.6404   21.7710 C   0  0  0  0  0  0  0  0  0  0  0  0
    9.0351  -14.6273   21.0746 C   0  0  1  0  0  0  0  0  0  0  0  0
    9.3456  -15.7043   22.0500 C   0  0  0  0  0  0  0  0  0  0  0  0
    8.5348  -16.5712   22.4476 O   0  0  0  0  0  0  0  0  0  0  0  0
   10.6642  -15.7551   22.5722 N   0  0  0  0  0  0  0  0  0  0  0  0
   11.1407  -16.7611   23.4952 C   0  0  1  0  0  0  0  0  0  0  0  0
   12.3414  -17.4972   23.0987 C   0  0  0  0  0  0  0  0  0  0  0  0
   12.9997  -18.5355   23.8589 C   0  0  0  0  0  0  0  0  0  0  0  0
   14.2500  -19.2073   23.4986 C   0  0  0  0  0  0  0  0  0  0  0  0
   14.7320  -20.3500   24.2991 C   0  0  0  0  0  0  0  0  0  0  0  0
   15.9303  -20.9153   23.6592 N   0  0  0  0  0  0  0  0  0  0  0  0
   11.0127  -16.3080   24.8903 C   0  0  0  0  0  0  0  0  0  0  0  0
   10.9688  -14.9648   25.2125 O   0  0  0  0  0  0  0  0  0  0  0  0
   10.9400  -17.1367   25.8277 O   0  0  0  0  0  0  0  0  0  0  0  0
  2  1  1  6
  3  2  1  0
  4  6  1  0
  4  2  1  0
  4  5  1  6
  6  8  1  0
  6  7  2  0
  8 12  1  0
  9  8  1  0
  9 10  1  0
 10 11  1  0
 12 11  1  0
 13 15  1  0
 12 13  1  1
 14 13  2  0
 16 17  1  6
 16 15  1  0
 17 18  1  0
 18 19  1  0
 20 19  1  0
 21 20  1  0
 22 16  1  0
 22 23  1  0
 24 22  2  0
M  END
$$$$
