TPK.pdb
     RDKit          3D

 24 24  0  0  1  0  0  0  0  0999 V2000
    7.3532  -17.2077   17.5713 C   0  0  0  0  0  0  0  0  0  0  0  0
    8.6518  -17.3138   16.7966 C   0  0  1  0  0  0  0  0  0  0  0  0
    8.2416  -17.6432   15.4780 O   0  0  0  0  0  0  0  0  0  0  0  0
    9.2441  -15.9178   16.6749 C   0  0  2  0  0  0  0  0  0  0  0  0
   10.1872  -15.8600   15.5858 N   0  0  0  0  0  0  0  0  0  0  0  0
    9.6822  -15.3312   17.9268 C   0  0  0  0  0  0  0  0  0  0  0  0
   10.6909  -15.8998   18.4792 O   0  0  0  0  0  0  0  0  0  0  0  0
    9.1439  -14.2198   18.6116 N   0  0  0  0  0  0  0  0  0  0  0  0
    8.1262  -13.3247   18.1525 C   0  0  0  0  0  0  0  0  0  0  0  0
    7.3279  -13.0505   19.4433 C   0  0  0  0  0  0  0  0  0  0  0  0
    8.5203  -12.7183   20.3549 C   0  0  0  0  0  0  0  0  0  0  0  0
    9.5364  -13.7609   19.9410 C   0  0  1  0  0  0  0  0  0  0  0  0
    9.4711  -14.8602   20.9384 C   0  0  0  0  0  0  0  0  0  0  0  0
    8.4823  -15.6048   21.1255 O   0  0  0  0  0  0  0  0  0  0  0  0
   10.6188  -15.0845   21.7423 N   0  0  0  0  0  0  0  0  0  0  0  0
   10.7680  -16.1866   22.6666 C   0  0  1  0  0  0  0  0  0  0  0  0
   10.4689  -17.5215   22.1474 C   0  0  0  0  0  0  0  0  0  0  0  0
   10.5627  -18.7654   22.8776 C   0  0  0  0  0  0  0  0  0  0  0  0
   10.3643  -20.1069   22.3251 C   0  0  0  0  0  0  0  0  0  0  0  0
   10.5707  -21.2948   23.1768 C   0  0  0  0  0  0  0  0  0  0  0  0
   10.4558  -22.5064   22.3499 N   0  0  0  0  0  0  0  0  0  0  0  0
   11.9505  -16.0061   23.5250 C   0  0  0  0  0  0  0  0  0  0  0  0
   12.0413  -16.6082   24.7656 O   0  0  0  0  0  0  0  0  0  0  0  0
   12.9119  -15.2958   23.1482 O   0  0  0  0  0  0  0  0  0  0  0  0
  2  1  1  1
  3  2  1  0
  4  6  1  0
  4  2  1  0
  4  5  1  6
  6  8  1  0
  6  7  2  0
  8 12  1  0
  9  8  1  0
  9 10  1  0
 10 11  1  0
 12 11  1  0
 13 15  1  0
 12 13  1  1
 14 13  2  0
 16 17  1  6
 16 15  1  0
 17 18  1  0
 18 19  1  0
 20 19  1  0
 21 20  1  0
 22 16  1  0
 22 23  1  0
 24 22  2  0
M  END
$$$$
