TPK.pdb
     RDKit          3D

 24 24  0  0  1  0  0  0  0  0999 V2000
    6.2306  -13.6840   26.1929 C   0  0  0  0  0  0  0  0  0  0  0  0
    7.2852  -14.2896   25.2879 C   0  0  1  0  0  0  0  0  0  0  0  0
    8.1750  -14.9409   26.1820 O   0  0  0  0  0  0  0  0  0  0  0  0
    6.6390  -15.4199   24.5009 C   0  0  2  0  0  0  0  0  0  0  0  0
    6.1419  -16.4387   25.3918 N   0  0  0  0  0  0  0  0  0  0  0  0
    7.4099  -15.8893   23.3656 C   0  0  0  0  0  0  0  0  0  0  0  0
    8.0123  -17.0095   23.5333 O   0  0  0  0  0  0  0  0  0  0  0  0
    7.5805  -15.2747   22.1058 N   0  0  0  0  0  0  0  0  0  0  0  0
    6.8334  -14.1818   21.5628 C   0  0  0  0  0  0  0  0  0  0  0  0
    7.9211  -13.3845   20.8144 C   0  0  0  0  0  0  0  0  0  0  0  0
    8.5451  -14.5607   20.0461 C   0  0  0  0  0  0  0  0  0  0  0  0
    8.5666  -15.6502   21.0965 C   0  0  1  0  0  0  0  0  0  0  0  0
    9.9394  -15.6886   21.6636 C   0  0  0  0  0  0  0  0  0  0  0  0
   10.3114  -15.0774   22.6908 O   0  0  0  0  0  0  0  0  0  0  0  0
   10.9051  -16.4797   20.9887 N   0  0  0  0  0  0  0  0  0  0  0  0
   11.9751  -17.1998   21.6429 C   0  0  1  0  0  0  0  0  0  0  0  0
   11.6191  -17.9477   22.8491 C   0  0  0  0  0  0  0  0  0  0  0  0
   12.4842  -18.8346   23.5936 C   0  0  0  0  0  0  0  0  0  0  0  0
   12.1541  -19.5052   24.8528 C   0  0  0  0  0  0  0  0  0  0  0  0
   13.1927  -20.2577   25.5836 C   0  0  0  0  0  0  0  0  0  0  0  0
   12.6071  -20.8192   26.8111 N   0  0  0  0  0  0  0  0  0  0  0  0
   12.8770  -17.8231   20.6601 C   0  0  0  0  0  0  0  0  0  0  0  0
   12.3992  -18.3595   19.4795 O   0  0  0  0  0  0  0  0  0  0  0  0
   14.1108  -17.8829   20.8723 O   0  0  0  0  0  0  0  0  0  0  0  0
  2  1  1  1
  3  2  1  0
  4  6  1  0
  4  2  1  0
  4  5  1  1
  6  8  1  0
  6  7  2  0
  8 12  1  0
  9  8  1  0
  9 10  1  0
 10 11  1  0
 12 11  1  0
 13 15  1  0
 12 13  1  1
 14 13  2  0
 16 17  1  1
 16 15  1  0
 17 18  1  0
 18 19  1  0
 20 19  1  0
 21 20  1  0
 22 16  1  0
 22 23  1  0
 24 22  2  0
M  END
$$$$
