TPK.pdb
     RDKit          3D

 24 24  0  0  1  0  0  0  0  0999 V2000
    6.1890  -16.5482   23.6165 C   0  0  0  0  0  0  0  0  0  0  0  0
    7.2104  -16.2971   22.5249 C   0  0  1  0  0  0  0  0  0  0  0  0
    6.4777  -16.4662   21.3207 O   0  0  0  0  0  0  0  0  0  0  0  0
    7.5720  -14.8196   22.5478 C   0  0  2  0  0  0  0  0  0  0  0  0
    8.2242  -14.4378   21.3199 N   0  0  0  0  0  0  0  0  0  0  0  0
    8.2056  -14.3669   23.7714 C   0  0  0  0  0  0  0  0  0  0  0  0
    9.3752  -14.8438   23.9959 O   0  0  0  0  0  0  0  0  0  0  0  0
    7.7027  -13.4726   24.7416 N   0  0  0  0  0  0  0  0  0  0  0  0
    6.5252  -12.6646   24.6525 C   0  0  0  0  0  0  0  0  0  0  0  0
    5.9794  -12.7255   26.0938 C   0  0  0  0  0  0  0  0  0  0  0  0
    7.2895  -12.3873   26.8234 C   0  0  0  0  0  0  0  0  0  0  0  0
    8.3050  -13.1929   26.0420 C   0  0  1  0  0  0  0  0  0  0  0  0
    8.5581  -14.4422   26.8055 C   0  0  0  0  0  0  0  0  0  0  0  0
    7.7187  -15.3507   26.9983 O   0  0  0  0  0  0  0  0  0  0  0  0
    9.8522  -14.6205   27.3599 N   0  0  0  0  0  0  0  0  0  0  0  0
   10.2676  -15.7843   28.1110 C   0  0  1  0  0  0  0  0  0  0  0  0
   11.2287  -16.6749   27.4599 C   0  0  0  0  0  0  0  0  0  0  0  0
   10.9958  -17.4651   26.2721 C   0  0  0  0  0  0  0  0  0  0  0  0
   12.0037  -18.2266   25.5316 C   0  0  0  0  0  0  0  0  0  0  0  0
   11.6411  -18.8989   24.2684 C   0  0  0  0  0  0  0  0  0  0  0  0
   12.8198  -19.6060   23.7433 N   0  0  0  0  0  0  0  0  0  0  0  0
   10.4492  -15.4621   29.5362 C   0  0  0  0  0  0  0  0  0  0  0  0
   10.3749  -14.1617   29.9980 O   0  0  0  0  0  0  0  0  0  0  0  0
   10.6777  -16.3673   30.3724 O   0  0  0  0  0  0  0  0  0  0  0  0
  2  1  1  1
  3  2  1  0
  4  6  1  0
  4  2  1  0
  4  5  1  6
  6  8  1  0
  6  7  2  0
  8 12  1  0
  9  8  1  0
  9 10  1  0
 10 11  1  0
 12 11  1  0
 13 15  1  0
 12 13  1  1
 14 13  2  0
 16 17  1  6
 16 15  1  0
 17 18  1  0
 18 19  1  0
 20 19  1  0
 21 20  1  0
 22 16  1  0
 22 23  1  0
 24 22  2  0
M  END
$$$$
