TPK.pdb
     RDKit          3D

 24 24  0  0  1  0  0  0  0  0999 V2000
    5.9571  -18.5117   17.5351 C   0  0  0  0  0  0  0  0  0  0  0  0
    6.8030  -17.8246   18.5888 C   0  0  1  0  0  0  0  0  0  0  0  0
    7.6224  -18.8627   19.1049 O   0  0  0  0  0  0  0  0  0  0  0  0
    7.7717  -16.8897   17.8803 C   0  0  2  0  0  0  0  0  0  0  0  0
    8.4206  -17.5667   16.7851 N   0  0  0  0  0  0  0  0  0  0  0  0
    8.6382  -16.1299   18.7608 C   0  0  0  0  0  0  0  0  0  0  0  0
    9.7470  -16.6974   19.0679 O   0  0  0  0  0  0  0  0  0  0  0  0
    8.4190  -14.8518   19.3196 N   0  0  0  0  0  0  0  0  0  0  0  0
    7.4114  -13.9038   18.9542 C   0  0  0  0  0  0  0  0  0  0  0  0
    7.0214  -13.3014   20.3195 C   0  0  0  0  0  0  0  0  0  0  0  0
    8.4422  -13.0039   20.8254 C   0  0  0  0  0  0  0  0  0  0  0  0
    9.1988  -14.2412   20.3926 C   0  0  1  0  0  0  0  0  0  0  0  0
    9.2932  -15.1362   21.5749 C   0  0  0  0  0  0  0  0  0  0  0  0
    8.3533  -15.8238   22.0343 O   0  0  0  0  0  0  0  0  0  0  0  0
   10.5463  -15.2185   22.2358 N   0  0  0  0  0  0  0  0  0  0  0  0
   10.8547  -16.1577   23.2914 C   0  0  1  0  0  0  0  0  0  0  0  0
   10.5853  -17.5684   23.0118 C   0  0  0  0  0  0  0  0  0  0  0  0
   10.8293  -18.6800   23.9030 C   0  0  0  0  0  0  0  0  0  0  0  0
   10.5643  -20.0910   23.6145 C   0  0  0  0  0  0  0  0  0  0  0  0
   10.9621  -21.1307   24.5838 C   0  0  0  0  0  0  0  0  0  0  0  0
   10.6710  -22.4563   24.0154 N   0  0  0  0  0  0  0  0  0  0  0  0
   12.1052  -15.7952   23.9788 C   0  0  0  0  0  0  0  0  0  0  0  0
   12.3151  -16.1072   25.3087 O   0  0  0  0  0  0  0  0  0  0  0  0
   13.0177  -15.1897   23.3693 O   0  0  0  0  0  0  0  0  0  0  0  0
  2  1  1  6
  3  2  1  0
  4  6  1  0
  4  2  1  0
  4  5  1  6
  6  8  1  0
  6  7  2  0
  8 12  1  0
  9  8  1  0
  9 10  1  0
 10 11  1  0
 12 11  1  0
 13 15  1  0
 12 13  1  1
 14 13  2  0
 16 17  1  6
 16 15  1  0
 17 18  1  0
 18 19  1  0
 20 19  1  0
 21 20  1  0
 22 16  1  0
 22 23  1  0
 24 22  2  0
M  END
$$$$
