TPK.pdb
     RDKit          3D

 24 24  0  0  1  0  0  0  0  0999 V2000
    6.1282  -17.6218   19.2321 C   0  0  0  0  0  0  0  0  0  0  0  0
    7.1337  -18.0151   18.1681 C   0  0  1  0  0  0  0  0  0  0  0  0
    6.3325  -18.4283   17.0714 O   0  0  0  0  0  0  0  0  0  0  0  0
    7.8246  -16.7501   17.6812 C   0  0  2  0  0  0  0  0  0  0  0  0
    8.4654  -16.9792   16.4102 N   0  0  0  0  0  0  0  0  0  0  0  0
    8.6233  -16.0691   18.6822 C   0  0  0  0  0  0  0  0  0  0  0  0
    9.6920  -16.6797   19.0439 O   0  0  0  0  0  0  0  0  0  0  0  0
    8.3768  -14.8263   19.3055 N   0  0  0  0  0  0  0  0  0  0  0  0
    7.3392  -13.8899   18.9986 C   0  0  0  0  0  0  0  0  0  0  0  0
    6.9507  -13.3657   20.3961 C   0  0  0  0  0  0  0  0  0  0  0  0
    8.3693  -13.0540   20.8997 C   0  0  0  0  0  0  0  0  0  0  0  0
    9.1535  -14.2474   20.3980 C   0  0  1  0  0  0  0  0  0  0  0  0
    9.2873  -15.1959   21.5339 C   0  0  0  0  0  0  0  0  0  0  0  0
    8.3389  -15.6241   22.2298 O   0  0  0  0  0  0  0  0  0  0  0  0
   10.5917  -15.6526   21.8559 N   0  0  0  0  0  0  0  0  0  0  0  0
   10.8997  -16.5418   22.9539 C   0  0  1  0  0  0  0  0  0  0  0  0
   10.9564  -17.9705   22.6432 C   0  0  0  0  0  0  0  0  0  0  0  0
   10.0588  -18.6937   21.7709 C   0  0  0  0  0  0  0  0  0  0  0  0
   10.2032  -20.0887   21.3498 C   0  0  0  0  0  0  0  0  0  0  0  0
    9.2234  -20.6851   20.4206 C   0  0  0  0  0  0  0  0  0  0  0  0
    9.5558  -22.1037   20.2151 N   0  0  0  0  0  0  0  0  0  0  0  0
   11.9283  -15.9645   23.8350 C   0  0  0  0  0  0  0  0  0  0  0  0
   12.6801  -14.8712   23.4483 O   0  0  0  0  0  0  0  0  0  0  0  0
   12.1491  -16.4548   24.9671 O   0  0  0  0  0  0  0  0  0  0  0  0
  2  1  1  1
  3  2  1  0
  4  6  1  0
  4  2  1  0
  4  5  1  6
  6  8  1  0
  6  7  2  0
  8 12  1  0
  9  8  1  0
  9 10  1  0
 10 11  1  0
 12 11  1  0
 13 15  1  0
 12 13  1  1
 14 13  2  0
 16 17  1  6
 16 15  1  0
 17 18  1  0
 18 19  1  0
 20 19  1  0
 21 20  1  0
 22 16  1  0
 22 23  1  0
 24 22  2  0
M  END
$$$$
