TPK.pdb
     RDKit          3D

 24 24  0  0  1  0  0  0  0  0999 V2000
    8.4670  -17.0464   16.8707 C   0  0  0  0  0  0  0  0  0  0  0  0
    8.8431  -15.6758   16.3433 C   0  0  1  0  0  0  0  0  0  0  0  0
    8.1187  -15.5627   15.1276 O   0  0  0  0  0  0  0  0  0  0  0  0
    8.2206  -14.6313   17.2576 C   0  0  2  0  0  0  0  0  0  0  0  0
    8.0976  -13.3677   16.5743 N   0  0  0  0  0  0  0  0  0  0  0  0
    8.7826  -14.5794   18.5936 C   0  0  0  0  0  0  0  0  0  0  0  0
   10.0191  -14.9090   18.6850 O   0  0  0  0  0  0  0  0  0  0  0  0
    8.1466  -14.2135   19.8000 N   0  0  0  0  0  0  0  0  0  0  0  0
    6.8071  -13.7390   19.9680 C   0  0  0  0  0  0  0  0  0  0  0  0
    6.3882  -14.4100   21.2921 C   0  0  0  0  0  0  0  0  0  0  0  0
    7.6253  -14.0228   22.1183 C   0  0  0  0  0  0  0  0  0  0  0  0
    8.7495  -14.2446   21.1295 C   0  0  1  0  0  0  0  0  0  0  0  0
    9.3430  -15.5737   21.4279 C   0  0  0  0  0  0  0  0  0  0  0  0
    8.9365  -16.6638   20.9658 O   0  0  0  0  0  0  0  0  0  0  0  0
   10.4577  -15.6114   22.3052 N   0  0  0  0  0  0  0  0  0  0  0  0
   11.1474  -16.8193   22.7008 C   0  0  1  0  0  0  0  0  0  0  0  0
   12.4444  -17.0688   22.0711 C   0  0  0  0  0  0  0  0  0  0  0  0
   13.2940  -18.2183   22.2860 C   0  0  0  0  0  0  0  0  0  0  0  0
   14.6101  -18.4425   21.6845 C   0  0  0  0  0  0  0  0  0  0  0  0
   15.3511  -19.6866   21.9710 C   0  0  0  0  0  0  0  0  0  0  0  0
   16.6459  -19.6479   21.2732 N   0  0  0  0  0  0  0  0  0  0  0  0
   10.9976  -17.0705   24.1438 C   0  0  0  0  0  0  0  0  0  0  0  0
   11.0766  -18.3472   24.6669 O   0  0  0  0  0  0  0  0  0  0  0  0
   10.7930  -16.1242   24.9398 O   0  0  0  0  0  0  0  0  0  0  0  0
  2  1  1  1
  3  2  1  0
  4  6  1  0
  4  2  1  0
  4  5  1  6
  6  8  1  0
  6  7  2  0
  8 12  1  0
  9  8  1  0
  9 10  1  0
 10 11  1  0
 12 11  1  0
 13 15  1  0
 12 13  1  1
 14 13  2  0
 16 17  1  1
 16 15  1  0
 17 18  1  0
 18 19  1  0
 20 19  1  0
 21 20  1  0
 22 16  1  0
 22 23  1  0
 24 22  2  0
M  END
$$$$
