TPK.pdb
     RDKit          3D

 24 24  0  0  1  0  0  0  0  0999 V2000
    6.5748  -14.1386   20.3320 C   0  0  0  0  0  0  0  0  0  0  0  0
    6.9410  -14.5228   21.7519 C   0  0  1  0  0  0  0  0  0  0  0  0
    7.5793  -15.7835   21.6150 O   0  0  0  0  0  0  0  0  0  0  0  0
    8.0427  -13.5863   22.2249 C   0  0  2  0  0  0  0  0  0  0  0  0
    9.1192  -13.5445   21.2667 N   0  0  0  0  0  0  0  0  0  0  0  0
    8.4323  -13.7562   23.6115 C   0  0  0  0  0  0  0  0  0  0  0  0
    9.4879  -14.4589   23.8057 O   0  0  0  0  0  0  0  0  0  0  0  0
    7.8021  -13.2491   24.7690 N   0  0  0  0  0  0  0  0  0  0  0  0
    6.7605  -12.2702   24.8343 C   0  0  0  0  0  0  0  0  0  0  0  0
    5.8875  -12.8010   25.9897 C   0  0  0  0  0  0  0  0  0  0  0  0
    7.0151  -13.0324   27.0087 C   0  0  0  0  0  0  0  0  0  0  0  0
    8.1050  -13.6305   26.1455 C   0  0  1  0  0  0  0  0  0  0  0  0
    8.0519  -15.1043   26.3270 C   0  0  0  0  0  0  0  0  0  0  0  0
    7.0935  -15.8368   25.9925 O   0  0  0  0  0  0  0  0  0  0  0  0
    9.1750  -15.7315   26.9264 N   0  0  0  0  0  0  0  0  0  0  0  0
    9.3352  -17.1617   27.0672 C   0  0  1  0  0  0  0  0  0  0  0  0
    9.6652  -17.9064   25.8517 C   0  0  0  0  0  0  0  0  0  0  0  0
   10.9128  -17.8487   25.1239 C   0  0  0  0  0  0  0  0  0  0  0  0
   11.2351  -18.5926   23.9046 C   0  0  0  0  0  0  0  0  0  0  0  0
   12.4979  -18.3257   23.1882 C   0  0  0  0  0  0  0  0  0  0  0  0
   12.5065  -19.0845   21.9276 N   0  0  0  0  0  0  0  0  0  0  0  0
   10.0326  -17.4993   28.3192 C   0  0  0  0  0  0  0  0  0  0  0  0
   10.5387  -16.5188   29.1513 O   0  0  0  0  0  0  0  0  0  0  0  0
   10.1855  -18.6946   28.6638 O   0  0  0  0  0  0  0  0  0  0  0  0
  2  1  1  6
  3  2  1  0
  4  6  1  0
  4  2  1  0
  4  5  1  6
  6  8  1  0
  6  7  2  0
  8 12  1  0
  9  8  1  0
  9 10  1  0
 10 11  1  0
 12 11  1  0
 13 15  1  0
 12 13  1  6
 14 13  2  0
 16 17  1  6
 16 15  1  0
 17 18  1  0
 18 19  1  0
 20 19  1  0
 21 20  1  0
 22 16  1  0
 22 23  1  0
 24 22  2  0
M  END
$$$$
