TPK.pdb
     RDKit          3D

 24 24  0  0  1  0  0  0  0  0999 V2000
    7.4294  -14.9895   16.2612 C   0  0  0  0  0  0  0  0  0  0  0  0
    8.1055  -15.3528   17.5685 C   0  0  1  0  0  0  0  0  0  0  0  0
    9.4100  -15.7581   17.1818 O   0  0  0  0  0  0  0  0  0  0  0  0
    8.3223  -14.0715   18.3595 C   0  0  2  0  0  0  0  0  0  0  0  0
    8.9564  -13.0698   17.5390 N   0  0  0  0  0  0  0  0  0  0  0  0
    8.8873  -14.2608   19.6818 C   0  0  0  0  0  0  0  0  0  0  0  0
   10.1296  -14.5800   19.7102 O   0  0  0  0  0  0  0  0  0  0  0  0
    8.2486  -14.1387   20.9352 N   0  0  0  0  0  0  0  0  0  0  0  0
    6.9065  -13.7126   21.1897 C   0  0  0  0  0  0  0  0  0  0  0  0
    6.4905  -14.6293   22.3582 C   0  0  0  0  0  0  0  0  0  0  0  0
    7.7250  -14.4029   23.2458 C   0  0  0  0  0  0  0  0  0  0  0  0
    8.8509  -14.4233   22.2345 C   0  0  1  0  0  0  0  0  0  0  0  0
    9.4514  -15.7819   22.2710 C   0  0  0  0  0  0  0  0  0  0  0  0
    8.9671  -16.7981   21.7233 O   0  0  0  0  0  0  0  0  0  0  0  0
   10.6692  -15.9411   22.9821 N   0  0  0  0  0  0  0  0  0  0  0  0
   11.3503  -17.2033   23.1664 C   0  0  1  0  0  0  0  0  0  0  0  0
   12.7392  -17.2703   22.7111 C   0  0  0  0  0  0  0  0  0  0  0  0
   13.6152  -18.4168   22.7993 C   0  0  0  0  0  0  0  0  0  0  0  0
   15.0116  -18.4709   22.3617 C   0  0  0  0  0  0  0  0  0  0  0  0
   15.7670  -19.7356   22.4562 C   0  0  0  0  0  0  0  0  0  0  0  0
   17.1668  -19.4904   22.0751 N   0  0  0  0  0  0  0  0  0  0  0  0
   10.9945  -17.8177   24.4563 C   0  0  0  0  0  0  0  0  0  0  0  0
   11.1685  -19.1695   24.6850 O   0  0  0  0  0  0  0  0  0  0  0  0
   10.5211  -17.1235   25.3863 O   0  0  0  0  0  0  0  0  0  0  0  0
  2  1  1  6
  3  2  1  0
  4  6  1  0
  4  2  1  0
  4  5  1  6
  6  8  1  0
  6  7  2  0
  8 12  1  0
  9  8  1  0
  9 10  1  0
 10 11  1  0
 12 11  1  0
 13 15  1  0
 12 13  1  6
 14 13  2  0
 16 17  1  1
 16 15  1  0
 17 18  1  0
 18 19  1  0
 20 19  1  0
 21 20  1  0
 22 16  1  0
 22 23  1  0
 24 22  2  0
M  END
$$$$
