TPK.pdb
     RDKit          3D

 24 24  0  0  1  0  0  0  0  0999 V2000
    6.1820  -16.3614   23.3720 C   0  0  0  0  0  0  0  0  0  0  0  0
    7.3802  -16.2239   22.4538 C   0  0  1  0  0  0  0  0  0  0  0  0
    6.8426  -16.4130   21.1535 O   0  0  0  0  0  0  0  0  0  0  0  0
    7.8265  -14.7697   22.4749 C   0  0  2  0  0  0  0  0  0  0  0  0
    8.6423  -14.4726   21.3238 N   0  0  0  0  0  0  0  0  0  0  0  0
    8.3366  -14.3081   23.7517 C   0  0  0  0  0  0  0  0  0  0  0  0
    9.4743  -14.7896   24.0977 O   0  0  0  0  0  0  0  0  0  0  0  0
    7.7449  -13.4007   24.6574 N   0  0  0  0  0  0  0  0  0  0  0  0
    6.6269  -12.5395   24.4203 C   0  0  0  0  0  0  0  0  0  0  0  0
    5.8864  -12.5885   25.7724 C   0  0  0  0  0  0  0  0  0  0  0  0
    7.0975  -12.3163   26.6792 C   0  0  0  0  0  0  0  0  0  0  0  0
    8.1745  -13.1600   26.0320 C   0  0  1  0  0  0  0  0  0  0  0  0
    8.2659  -14.4263   26.8041 C   0  0  0  0  0  0  0  0  0  0  0  0
    7.5123  -15.4150   26.6571 O   0  0  0  0  0  0  0  0  0  0  0  0
    9.2868  -14.5233   27.7849 N   0  0  0  0  0  0  0  0  0  0  0  0
    9.8214  -15.7687   28.2894 C   0  0  1  0  0  0  0  0  0  0  0  0
   10.0623  -16.8241   27.3051 C   0  0  0  0  0  0  0  0  0  0  0  0
   11.2693  -17.0164   26.5334 C   0  0  0  0  0  0  0  0  0  0  0  0
   12.0063  -18.2729   26.3837 C   0  0  0  0  0  0  0  0  0  0  0  0
   13.2444  -18.3122   25.5809 C   0  0  0  0  0  0  0  0  0  0  0  0
   13.7956  -19.6761   25.6117 N   0  0  0  0  0  0  0  0  0  0  0  0
   10.8273  -15.5312   29.3379 C   0  0  0  0  0  0  0  0  0  0  0  0
   11.5630  -14.3620   29.3818 O   0  0  0  0  0  0  0  0  0  0  0  0
   11.0429  -16.3911   30.2238 O   0  0  0  0  0  0  0  0  0  0  0  0
  2  1  1  1
  3  2  1  0
  4  6  1  0
  4  2  1  0
  4  5  1  6
  6  8  1  0
  6  7  2  0
  8 12  1  0
  9  8  1  0
  9 10  1  0
 10 11  1  0
 12 11  1  0
 13 15  1  0
 12 13  1  1
 14 13  2  0
 16 17  1  6
 16 15  1  0
 17 18  1  0
 18 19  1  0
 20 19  1  0
 21 20  1  0
 22 16  1  0
 22 23  1  0
 24 22  2  0
M  END
$$$$
