TPK.pdb
     RDKit          3D

 24 24  0  0  1  0  0  0  0  0999 V2000
    6.8280  -18.2923   19.3694 C   0  0  0  0  0  0  0  0  0  0  0  0
    8.1409  -18.4480   18.6279 C   0  0  1  0  0  0  0  0  0  0  0  0
    7.7584  -18.9113   17.3416 O   0  0  0  0  0  0  0  0  0  0  0  0
    8.7104  -17.0593   18.3800 C   0  0  2  0  0  0  0  0  0  0  0  0
    9.6380  -17.0809   17.2764 N   0  0  0  0  0  0  0  0  0  0  0  0
    9.1561  -16.3626   19.5714 C   0  0  0  0  0  0  0  0  0  0  0  0
   10.2248  -16.8227   20.1119 O   0  0  0  0  0  0  0  0  0  0  0  0
    8.5679  -15.2482   20.2086 N   0  0  0  0  0  0  0  0  0  0  0  0
    7.4871  -14.4423   19.7291 C   0  0  0  0  0  0  0  0  0  0  0  0
    6.7048  -14.1436   21.0243 C   0  0  0  0  0  0  0  0  0  0  0  0
    7.8964  -13.6904   21.8834 C   0  0  0  0  0  0  0  0  0  0  0  0
    8.9636  -14.6926   21.4996 C   0  0  1  0  0  0  0  0  0  0  0  0
    8.9891  -15.7359   22.5572 C   0  0  0  0  0  0  0  0  0  0  0  0
    8.1912  -16.6970   22.6398 O   0  0  0  0  0  0  0  0  0  0  0  0
    9.9963  -15.6360   23.5519 N   0  0  0  0  0  0  0  0  0  0  0  0
   10.6090  -16.7670   24.2128 C   0  0  1  0  0  0  0  0  0  0  0  0
   11.0414  -17.8709   23.3553 C   0  0  0  0  0  0  0  0  0  0  0  0
   11.6609  -19.1021   23.7910 C   0  0  0  0  0  0  0  0  0  0  0  0
   12.1072  -20.1961   22.9261 C   0  0  0  0  0  0  0  0  0  0  0  0
   12.7459  -21.3897   23.5146 C   0  0  0  0  0  0  0  0  0  0  0  0
   13.0129  -22.3683   22.4488 N   0  0  0  0  0  0  0  0  0  0  0  0
   11.4900  -16.3309   25.3088 C   0  0  0  0  0  0  0  0  0  0  0  0
   12.2734  -15.1977   25.1987 O   0  0  0  0  0  0  0  0  0  0  0  0
   11.5515  -16.9825   26.3777 O   0  0  0  0  0  0  0  0  0  0  0  0
  2  1  1  1
  3  2  1  0
  4  6  1  0
  4  2  1  0
  4  5  1  6
  6  8  1  0
  6  7  2  0
  8 12  1  0
  9  8  1  0
  9 10  1  0
 10 11  1  0
 12 11  1  0
 13 15  1  0
 12 13  1  1
 14 13  2  0
 16 17  1  6
 16 15  1  0
 17 18  1  0
 18 19  1  0
 20 19  1  0
 21 20  1  0
 22 16  1  0
 22 23  1  0
 24 22  2  0
M  END
$$$$
