TPK.pdb
     RDKit          3D

 24 24  0  0  1  0  0  0  0  0999 V2000
    7.3976  -17.2661   17.1239 C   0  0  0  0  0  0  0  0  0  0  0  0
    8.6085  -17.0207   16.2456 C   0  0  1  0  0  0  0  0  0  0  0  0
    8.1057  -17.1383   14.9232 O   0  0  0  0  0  0  0  0  0  0  0  0
    8.9978  -15.5559   16.3773 C   0  0  2  0  0  0  0  0  0  0  0  0
    9.8342  -15.1522   15.2745 N   0  0  0  0  0  0  0  0  0  0  0  0
    9.4531  -15.1635   17.6972 C   0  0  0  0  0  0  0  0  0  0  0  0
   10.5114  -15.7566   18.1146 O   0  0  0  0  0  0  0  0  0  0  0  0
    8.8841  -14.2166   18.5767 N   0  0  0  0  0  0  0  0  0  0  0  0
    7.8547  -13.2666   18.2844 C   0  0  0  0  0  0  0  0  0  0  0  0
    7.0348  -13.2635   19.5907 C   0  0  0  0  0  0  0  0  0  0  0  0
    8.2086  -13.0953   20.5690 C   0  0  0  0  0  0  0  0  0  0  0  0
    9.2505  -14.0195   19.9763 C   0  0  1  0  0  0  0  0  0  0  0  0
    9.1945  -15.2934   20.7390 C   0  0  0  0  0  0  0  0  0  0  0  0
    8.5164  -16.2955   20.4179 O   0  0  0  0  0  0  0  0  0  0  0  0
    9.9700  -15.3821   21.9241 N   0  0  0  0  0  0  0  0  0  0  0  0
   10.6798  -16.5675   22.3509 C   0  0  1  0  0  0  0  0  0  0  0  0
   11.3454  -17.3443   21.3048 C   0  0  0  0  0  0  0  0  0  0  0  0
   11.0900  -18.7274   20.9712 C   0  0  0  0  0  0  0  0  0  0  0  0
   11.7296  -19.4874   19.8954 C   0  0  0  0  0  0  0  0  0  0  0  0
   11.4043  -20.9145   19.7045 C   0  0  0  0  0  0  0  0  0  0  0  0
   12.1265  -21.4200   18.5265 N   0  0  0  0  0  0  0  0  0  0  0  0
   11.3845  -16.3378   23.6231 C   0  0  0  0  0  0  0  0  0  0  0  0
   12.2995  -15.3121   23.7672 O   0  0  0  0  0  0  0  0  0  0  0  0
   11.1698  -17.0734   24.6149 O   0  0  0  0  0  0  0  0  0  0  0  0
  2  1  1  1
  3  2  1  0
  4  6  1  0
  4  2  1  0
  4  5  1  6
  6  8  1  0
  6  7  2  0
  8 12  1  0
  9  8  1  0
  9 10  1  0
 10 11  1  0
 12 11  1  0
 13 15  1  0
 12 13  1  1
 14 13  2  0
 16 17  1  6
 16 15  1  0
 17 18  1  0
 18 19  1  0
 20 19  1  0
 21 20  1  0
 22 16  1  0
 22 23  1  0
 24 22  2  0
M  END
$$$$
