HHL.pdb
     RDKit          3D

 29 30  0  0  1  0  0  0  0  0999 V2000
    9.5961  -15.6794   18.4350 N   0  0  0  0  0  0  0  0  0  0  0  0
    8.2373  -15.2095   18.6149 C   0  0  1  0  0  0  0  0  0  0  0  0
    7.3990  -15.7402   17.4741 C   0  0  0  0  0  0  0  0  0  0  0  0
    7.7883  -15.0214   16.2433 C   0  0  0  0  0  0  0  0  0  0  0  0
    8.4027  -13.7921   16.1443 C   0  0  0  0  0  0  0  0  0  0  0  0
    8.5793  -13.5047   14.8379 N   0  0  0  0  0  0  0  0  0  0  0  0
    8.0776  -14.5470   14.1669 C   0  0  0  0  0  0  0  0  0  0  0  0
    7.5893  -15.4853   14.9997 N   0  0  0  0  0  0  0  0  0  0  0  0
    7.7231  -15.6916   19.9341 C   0  0  0  0  0  0  0  0  0  0  0  0
    6.5340  -15.4487   20.2659 O   0  0  0  0  0  0  0  0  0  0  0  0
    8.5881  -16.4306   20.8191 N   0  0  0  0  0  0  0  0  0  0  0  0
    8.0448  -16.7869   22.0979 C   0  0  1  0  0  0  0  0  0  0  0  0
    8.2163  -18.2279   22.4615 C   0  0  0  0  0  0  0  0  0  0  0  0
    9.5679  -18.7520   22.2838 C   0  0  0  0  0  0  0  0  0  0  0  0
   10.7505  -18.2153   21.8759 C   0  0  0  0  0  0  0  0  0  0  0  0
   11.7232  -19.1569   21.9162 N   0  0  0  0  0  0  0  0  0  0  0  0
   11.1577  -20.2750   22.3458 C   0  0  0  0  0  0  0  0  0  0  0  0
    9.8637  -20.0566   22.5734 N   0  0  0  0  0  0  0  0  0  0  0  0
    8.5673  -15.9197   23.1875 C   0  0  0  0  0  0  0  0  0  0  0  0
    9.7208  -15.4490   23.2452 O   0  0  0  0  0  0  0  0  0  0  0  0
    5.9218  -12.0492   26.9907 C   0  0  0  0  0  0  0  0  0  0  0  0
    7.2464  -12.7574   26.6765 C   0  0  2  0  0  0  0  0  0  0  0  0
    8.2282  -11.7100   26.2581 C   0  0  0  0  0  0  0  0  0  0  0  0
    6.9780  -13.7852   25.6256 C   0  0  0  0  0  0  0  0  0  0  0  0
    8.1357  -14.7162   25.3530 C   0  0  2  0  0  0  0  0  0  0  0  0
    7.6874  -15.5944   24.2559 N   0  0  0  0  0  0  0  0  0  0  0  0
    8.5775  -15.4874   26.5088 C   0  0  0  0  0  0  0  0  0  0  0  0
    9.7100  -15.1424   27.2156 O   0  0  0  0  0  0  0  0  0  0  0  0
    7.9246  -16.4891   26.8804 O   0  0  0  0  0  0  0  0  0  0  0  0
  2  3  1  0
  2  1  1  6
  3  4  1  0
  4  8  1  0
  5  4  2  0
  5  6  1  0
  6  7  1  0
  8  7  2  0
  9 10  2  0
  9  2  1  0
 11  9  1  0
 12 11  1  0
 13 14  1  0
 12 13  1  1
 14 18  1  0
 15 14  2  0
 15 16  1  0
 16 17  1  0
 18 17  2  0
 19 12  1  0
 19 26  1  0
 20 19  2  0
 22 21  1  6
 22 23  1  0
 24 22  1  0
 25 26  1  0
 25 24  1  1
 27 28  1  0
 27 25  1  0
 29 27  2  0
M  END
$$$$
