HHL.pdb
     RDKit          3D

 29 30  0  0  1  0  0  0  0  0999 V2000
    7.2533  -16.4560   19.3564 N   0  0  0  0  0  0  0  0  0  0  0  0
    8.2649  -15.7083   20.0754 C   0  0  1  0  0  0  0  0  0  0  0  0
    7.9067  -14.2412   20.0058 C   0  0  0  0  0  0  0  0  0  0  0  0
    8.0540  -13.7970   18.6043 C   0  0  0  0  0  0  0  0  0  0  0  0
    7.1262  -13.1376   17.8278 C   0  0  0  0  0  0  0  0  0  0  0  0
    7.6640  -12.9193   16.6097 N   0  0  0  0  0  0  0  0  0  0  0  0
    8.8944  -13.4407   16.6584 C   0  0  0  0  0  0  0  0  0  0  0  0
    9.1572  -13.9819   17.8627 N   0  0  0  0  0  0  0  0  0  0  0  0
    8.3135  -16.1869   21.4916 C   0  0  0  0  0  0  0  0  0  0  0  0
    7.2546  -16.5589   22.0603 O   0  0  0  0  0  0  0  0  0  0  0  0
    9.5689  -16.2208   22.1990 N   0  0  0  0  0  0  0  0  0  0  0  0
    9.5393  -16.7437   23.5343 C   0  0  1  0  0  0  0  0  0  0  0  0
   10.4212  -17.9325   23.7511 C   0  0  0  0  0  0  0  0  0  0  0  0
   10.0191  -19.1381   23.0314 C   0  0  0  0  0  0  0  0  0  0  0  0
    8.8593  -19.8436   22.9307 C   0  0  0  0  0  0  0  0  0  0  0  0
    9.0293  -20.8942   22.0930 N   0  0  0  0  0  0  0  0  0  0  0  0
   10.2839  -20.8494   21.6706 C   0  0  0  0  0  0  0  0  0  0  0  0
   10.8983  -19.8034   22.2204 N   0  0  0  0  0  0  0  0  0  0  0  0
    9.8334  -15.6978   24.5501 C   0  0  0  0  0  0  0  0  0  0  0  0
   10.8676  -15.0019   24.5911 O   0  0  0  0  0  0  0  0  0  0  0  0
    7.8296  -12.0686   25.8496 C   0  0  0  0  0  0  0  0  0  0  0  0
    7.0371  -13.3310   26.2143 C   0  0  2  0  0  0  0  0  0  0  0  0
    5.6995  -12.8924   26.7186 C   0  0  0  0  0  0  0  0  0  0  0  0
    7.8361  -14.0995   27.2163 C   0  0  0  0  0  0  0  0  0  0  0  0
    9.1716  -14.5881   26.7075 C   0  0  2  0  0  0  0  0  0  0  0  0
    8.8622  -15.4639   25.5617 N   0  0  0  0  0  0  0  0  0  0  0  0
    9.9836  -15.2772   27.7034 C   0  0  0  0  0  0  0  0  0  0  0  0
   10.2655  -16.6227   27.5982 O   0  0  0  0  0  0  0  0  0  0  0  0
   10.4424  -14.6465   28.6829 O   0  0  0  0  0  0  0  0  0  0  0  0
  2  3  1  0
  2  1  1  6
  3  4  1  0
  4  8  1  0
  5  4  2  0
  5  6  1  0
  6  7  1  0
  8  7  2  0
  9 10  2  0
  9  2  1  0
 11  9  1  0
 12 11  1  0
 13 14  1  0
 12 13  1  6
 14 18  1  0
 15 14  2  0
 15 16  1  0
 16 17  1  0
 18 17  2  0
 19 12  1  0
 19 26  1  0
 20 19  2  0
 22 21  1  1
 22 23  1  0
 24 22  1  0
 25 26  1  0
 25 24  1  1
 27 28  1  0
 27 25  1  0
 29 27  2  0
M  END
$$$$
