HHL.pdb
     RDKit          3D

 29 30  0  0  1  0  0  0  0  0999 V2000
    9.1148  -15.8761   19.0942 N   0  0  0  0  0  0  0  0  0  0  0  0
    8.1623  -14.9603   19.6885 C   0  0  1  0  0  0  0  0  0  0  0  0
    7.0179  -14.7735   18.7184 C   0  0  0  0  0  0  0  0  0  0  0  0
    7.5732  -14.2828   17.4401 C   0  0  0  0  0  0  0  0  0  0  0  0
    8.1821  -13.0711   17.1962 C   0  0  0  0  0  0  0  0  0  0  0  0
    8.5424  -13.0261   15.8966 N   0  0  0  0  0  0  0  0  0  0  0  0
    8.1543  -14.1936   15.3727 C   0  0  0  0  0  0  0  0  0  0  0  0
    7.5609  -14.9778   16.2920 N   0  0  0  0  0  0  0  0  0  0  0  0
    7.6835  -15.5264   20.9875 C   0  0  0  0  0  0  0  0  0  0  0  0
    6.7398  -14.9652   21.6018 O   0  0  0  0  0  0  0  0  0  0  0  0
    8.3024  -16.7096   21.5306 N   0  0  0  0  0  0  0  0  0  0  0  0
    7.8911  -17.1022   22.8474 C   0  0  1  0  0  0  0  0  0  0  0  0
    8.1969  -18.5259   23.1905 C   0  0  0  0  0  0  0  0  0  0  0  0
    7.4404  -19.5190   22.4325 C   0  0  0  0  0  0  0  0  0  0  0  0
    6.4427  -19.4532   21.5089 C   0  0  0  0  0  0  0  0  0  0  0  0
    6.1103  -20.7005   21.0987 N   0  0  0  0  0  0  0  0  0  0  0  0
    6.8919  -21.5425   21.7577 C   0  0  0  0  0  0  0  0  0  0  0  0
    7.6994  -20.8565   22.5647 N   0  0  0  0  0  0  0  0  0  0  0  0
    8.4339  -16.1966   23.8950 C   0  0  0  0  0  0  0  0  0  0  0  0
    9.6144  -15.8005   23.9659 O   0  0  0  0  0  0  0  0  0  0  0  0
    5.7346  -12.1179   27.5043 C   0  0  0  0  0  0  0  0  0  0  0  0
    7.0612  -12.8457   27.2490 C   0  0  2  0  0  0  0  0  0  0  0  0
    8.0735  -11.8143   26.8650 C   0  0  0  0  0  0  0  0  0  0  0  0
    6.8222  -13.8767   26.1940 C   0  0  0  0  0  0  0  0  0  0  0  0
    8.0002  -14.7844   25.9300 C   0  0  2  0  0  0  0  0  0  0  0  0
    7.5419  -15.7389   24.9031 N   0  0  0  0  0  0  0  0  0  0  0  0
    8.5109  -15.4722   27.1098 C   0  0  0  0  0  0  0  0  0  0  0  0
    8.0655  -16.7290   27.4609 O   0  0  0  0  0  0  0  0  0  0  0  0
    9.3736  -14.9221   27.8314 O   0  0  0  0  0  0  0  0  0  0  0  0
  2  3  1  0
  2  1  1  6
  3  4  1  0
  4  8  1  0
  5  4  2  0
  5  6  1  0
  6  7  1  0
  8  7  2  0
  9 10  2  0
  9  2  1  0
 11  9  1  0
 12 11  1  0
 13 14  1  0
 12 13  1  1
 14 18  1  0
 15 14  2  0
 15 16  1  0
 16 17  1  0
 18 17  2  0
 19 12  1  0
 19 26  1  0
 20 19  2  0
 22 21  1  6
 22 23  1  0
 24 22  1  0
 25 26  1  0
 25 24  1  1
 27 28  1  0
 27 25  1  0
 29 27  2  0
M  END
$$$$
