HHL.pdb
     RDKit          3D

 29 30  0  0  1  0  0  0  0  0999 V2000
    9.4203  -15.8603   19.0918 N   0  0  0  0  0  0  0  0  0  0  0  0
    8.4289  -15.0002   19.7058 C   0  0  1  0  0  0  0  0  0  0  0  0
    7.2144  -14.9622   18.8064 C   0  0  0  0  0  0  0  0  0  0  0  0
    7.6496  -14.5276   17.4629 C   0  0  0  0  0  0  0  0  0  0  0  0
    8.0975  -13.2806   17.0850 C   0  0  0  0  0  0  0  0  0  0  0  0
    8.3919  -13.3113   15.7686 N   0  0  0  0  0  0  0  0  0  0  0  0
    8.1236  -14.5582   15.3666 C   0  0  0  0  0  0  0  0  0  0  0  0
    7.6698  -15.3198   16.3797 N   0  0  0  0  0  0  0  0  0  0  0  0
    8.0841  -15.5381   21.0582 C   0  0  0  0  0  0  0  0  0  0  0  0
    7.0975  -15.0690   21.6824 O   0  0  0  0  0  0  0  0  0  0  0  0
    8.8802  -16.5889   21.6411 N   0  0  0  0  0  0  0  0  0  0  0  0
    8.5259  -17.0014   22.9683 C   0  0  1  0  0  0  0  0  0  0  0  0
    9.0986  -18.3215   23.3777 C   0  0  0  0  0  0  0  0  0  0  0  0
    8.6070  -19.4688   22.6193 C   0  0  0  0  0  0  0  0  0  0  0  0
    7.3701  -19.9481   22.3140 C   0  0  0  0  0  0  0  0  0  0  0  0
    7.4817  -21.0577   21.5455 N   0  0  0  0  0  0  0  0  0  0  0  0
    8.7765  -21.2738   21.3688 C   0  0  0  0  0  0  0  0  0  0  0  0
    9.4724  -20.3326   22.0042 N   0  0  0  0  0  0  0  0  0  0  0  0
    8.8569  -15.9648   23.9822 C   0  0  0  0  0  0  0  0  0  0  0  0
    9.9489  -15.3695   24.0761 O   0  0  0  0  0  0  0  0  0  0  0  0
    8.3333  -11.9694   26.7589 C   0  0  0  0  0  0  0  0  0  0  0  0
    6.8737  -12.3225   26.4431 C   0  0  2  0  0  0  0  0  0  0  0  0
    6.1570  -12.4795   27.7460 C   0  0  0  0  0  0  0  0  0  0  0  0
    6.8731  -13.5582   25.6029 C   0  0  0  0  0  0  0  0  0  0  0  0
    8.0496  -14.4751   25.8405 C   0  0  2  0  0  0  0  0  0  0  0  0
    7.8529  -15.6161   24.9266 N   0  0  0  0  0  0  0  0  0  0  0  0
    8.2040  -14.9165   27.2215 C   0  0  0  0  0  0  0  0  0  0  0  0
    9.1314  -14.3400   28.0633 O   0  0  0  0  0  0  0  0  0  0  0  0
    7.4858  -15.8397   27.6682 O   0  0  0  0  0  0  0  0  0  0  0  0
  2  3  1  0
  2  1  1  6
  3  4  1  0
  4  8  1  0
  5  4  2  0
  5  6  1  0
  6  7  1  0
  8  7  2  0
  9 10  2  0
  9  2  1  0
 11  9  1  0
 12 11  1  0
 13 14  1  0
 12 13  1  1
 14 18  1  0
 15 14  2  0
 15 16  1  0
 16 17  1  0
 18 17  2  0
 19 12  1  0
 19 26  1  0
 20 19  2  0
 22 21  1  1
 22 23  1  0
 24 22  1  0
 25 26  1  0
 25 24  1  1
 27 28  1  0
 27 25  1  0
 29 27  2  0
M  END
$$$$
