HHL.pdb
     RDKit          3D

 29 30  0  0  1  0  0  0  0  0999 V2000
    9.0730  -16.8531   18.1689 N   0  0  0  0  0  0  0  0  0  0  0  0
    8.9567  -15.6773   19.0076 C   0  0  1  0  0  0  0  0  0  0  0  0
    7.8475  -14.8111   18.4554 C   0  0  0  0  0  0  0  0  0  0  0  0
    8.2567  -14.3361   17.1174 C   0  0  0  0  0  0  0  0  0  0  0  0
    9.4073  -14.6505   16.4276 C   0  0  0  0  0  0  0  0  0  0  0  0
    9.3879  -14.0033   15.2438 N   0  0  0  0  0  0  0  0  0  0  0  0
    8.2428  -13.3129   15.2273 C   0  0  0  0  0  0  0  0  0  0  0  0
    7.5348  -13.4982   16.3572 N   0  0  0  0  0  0  0  0  0  0  0  0
    8.6626  -16.1038   20.4107 C   0  0  0  0  0  0  0  0  0  0  0  0
    7.4714  -16.1405   20.8142 O   0  0  0  0  0  0  0  0  0  0  0  0
    9.7408  -16.4704   21.2943 N   0  0  0  0  0  0  0  0  0  0  0  0
    9.3793  -16.8189   22.6379 C   0  0  1  0  0  0  0  0  0  0  0  0
   10.1652  -17.9542   23.2136 C   0  0  0  0  0  0  0  0  0  0  0  0
    9.9692  -19.2397   22.5485 C   0  0  0  0  0  0  0  0  0  0  0  0
    9.1957  -19.6670   21.5133 C   0  0  0  0  0  0  0  0  0  0  0  0
    9.4188  -20.9829   21.2826 N   0  0  0  0  0  0  0  0  0  0  0  0
   10.3245  -21.3791   22.1642 C   0  0  0  0  0  0  0  0  0  0  0  0
   10.6705  -20.3497   22.9354 N   0  0  0  0  0  0  0  0  0  0  0  0
    9.4313  -15.6466   23.5518 C   0  0  0  0  0  0  0  0  0  0  0  0
   10.3182  -14.7697   23.5514 O   0  0  0  0  0  0  0  0  0  0  0  0
    7.7804  -12.5072   27.2276 C   0  0  0  0  0  0  0  0  0  0  0  0
    6.9230  -12.3676   25.9626 C   0  0  2  0  0  0  0  0  0  0  0  0
    5.5105  -12.1431   26.3991 C   0  0  0  0  0  0  0  0  0  0  0  0
    7.1108  -13.6032   25.1435 C   0  0  0  0  0  0  0  0  0  0  0  0
    8.3816  -14.3629   25.4423 C   0  0  2  0  0  0  0  0  0  0  0  0
    8.3890  -15.5045   24.5082 N   0  0  0  0  0  0  0  0  0  0  0  0
    8.5125  -14.8032   26.8260 C   0  0  0  0  0  0  0  0  0  0  0  0
    9.4276  -14.2281   27.6822 O   0  0  0  0  0  0  0  0  0  0  0  0
    7.7849  -15.7242   27.2620 O   0  0  0  0  0  0  0  0  0  0  0  0
  2  3  1  0
  2  1  1  6
  3  4  1  0
  4  8  1  0
  5  4  2  0
  5  6  1  0
  6  7  1  0
  8  7  2  0
  9 10  2  0
  9  2  1  0
 11  9  1  0
 12 11  1  0
 13 14  1  0
 12 13  1  1
 14 18  1  0
 15 14  2  0
 15 16  1  0
 16 17  1  0
 18 17  2  0
 19 12  1  0
 19 26  1  0
 20 19  2  0
 22 21  1  1
 22 23  1  0
 24 22  1  0
 25 26  1  0
 25 24  1  1
 27 28  1  0
 27 25  1  0
 29 27  2  0
M  END
$$$$
