HHL.pdb
     RDKit          3D

 29 30  0  0  1  0  0  0  0  0999 V2000
   11.0815  -15.3412   18.4508 N   0  0  0  0  0  0  0  0  0  0  0  0
   11.7117  -15.6036   19.7289 C   0  0  1  0  0  0  0  0  0  0  0  0
   12.5973  -14.4266   20.0694 C   0  0  0  0  0  0  0  0  0  0  0  0
   13.9191  -14.6498   19.4480 C   0  0  0  0  0  0  0  0  0  0  0  0
   14.3884  -14.1357   18.2589 C   0  0  0  0  0  0  0  0  0  0  0  0
   15.6441  -14.5885   18.0618 N   0  0  0  0  0  0  0  0  0  0  0  0
   15.9202  -15.3613   19.1175 C   0  0  0  0  0  0  0  0  0  0  0  0
   14.8859  -15.4157   19.9774 N   0  0  0  0  0  0  0  0  0  0  0  0
   10.6522  -15.8015   20.7658 C   0  0  0  0  0  0  0  0  0  0  0  0
    9.7022  -14.9810   20.8507 O   0  0  0  0  0  0  0  0  0  0  0  0
   10.7218  -16.9280   21.6625 N   0  0  0  0  0  0  0  0  0  0  0  0
    9.6930  -17.0207   22.6576 C   0  0  1  0  0  0  0  0  0  0  0  0
    9.4766  -18.4001   23.1947 C   0  0  0  0  0  0  0  0  0  0  0  0
    8.4179  -18.5135   24.1945 C   0  0  0  0  0  0  0  0  0  0  0  0
    8.3652  -18.9662   25.4771 C   0  0  0  0  0  0  0  0  0  0  0  0
    7.1103  -18.8225   25.9661 N   0  0  0  0  0  0  0  0  0  0  0  0
    6.3811  -18.2841   25.0003 C   0  0  0  0  0  0  0  0  0  0  0  0
    7.1445  -18.0892   23.9265 N   0  0  0  0  0  0  0  0  0  0  0  0
    9.9110  -16.0654   23.7766 C   0  0  0  0  0  0  0  0  0  0  0  0
   10.7719  -15.1633   23.7983 O   0  0  0  0  0  0  0  0  0  0  0  0
    8.4034  -12.7374   26.9573 C   0  0  0  0  0  0  0  0  0  0  0  0
    7.4159  -12.9286   25.7984 C   0  0  2  0  0  0  0  0  0  0  0  0
    6.0367  -12.9165   26.3760 C   0  0  0  0  0  0  0  0  0  0  0  0
    7.7666  -14.2044   25.1039 C   0  0  0  0  0  0  0  0  0  0  0  0
    8.8364  -15.0172   25.7941 C   0  0  2  0  0  0  0  0  0  0  0  0
    9.0743  -16.1814   24.9202 N   0  0  0  0  0  0  0  0  0  0  0  0
    8.5027  -15.4275   27.1528 C   0  0  0  0  0  0  0  0  0  0  0  0
    7.5081  -16.3487   27.4041 O   0  0  0  0  0  0  0  0  0  0  0  0
    9.1243  -14.9409   28.1247 O   0  0  0  0  0  0  0  0  0  0  0  0
  2  3  1  0
  2  1  1  6
  3  4  1  0
  4  8  1  0
  5  4  2  0
  5  6  1  0
  6  7  1  0
  8  7  2  0
  9 10  2  0
  9  2  1  0
 11  9  1  0
 12 11  1  0
 13 14  1  0
 12 13  1  1
 14 18  1  0
 15 14  2  0
 15 16  1  0
 16 17  1  0
 18 17  2  0
 19 12  1  0
 19 26  1  0
 20 19  2  0
 22 21  1  1
 22 23  1  0
 24 22  1  0
 25 26  1  0
 25 24  1  6
 27 28  1  0
 27 25  1  0
 29 27  2  0
M  END
$$$$
