HHL.pdb
     RDKit          3D

 29 30  0  0  1  0  0  0  0  0999 V2000
    9.9745  -15.0752   18.8653 N   0  0  0  0  0  0  0  0  0  0  0  0
    8.6057  -15.0419   19.3395 C   0  0  1  0  0  0  0  0  0  0  0  0
    7.7407  -15.7720   18.3374 C   0  0  0  0  0  0  0  0  0  0  0  0
    7.7709  -15.0180   17.0670 C   0  0  0  0  0  0  0  0  0  0  0  0
    8.4930  -13.8802   16.7798 C   0  0  0  0  0  0  0  0  0  0  0  0
    8.2330  -13.5171   15.5066 N   0  0  0  0  0  0  0  0  0  0  0  0
    7.3684  -14.4247   15.0407 C   0  0  0  0  0  0  0  0  0  0  0  0
    7.0703  -15.3504   15.9716 N   0  0  0  0  0  0  0  0  0  0  0  0
    8.5381  -15.6895   20.6860 C   0  0  0  0  0  0  0  0  0  0  0  0
    7.4221  -15.8526   21.2437 O   0  0  0  0  0  0  0  0  0  0  0  0
    9.7474  -16.1236   21.3393 N   0  0  0  0  0  0  0  0  0  0  0  0
    9.6003  -16.7007   22.6442 C   0  0  1  0  0  0  0  0  0  0  0  0
   10.5252  -17.8434   22.9213 C   0  0  0  0  0  0  0  0  0  0  0  0
   10.3705  -18.9915   22.0318 C   0  0  0  0  0  0  0  0  0  0  0  0
   11.0235  -19.4286   20.9204 C   0  0  0  0  0  0  0  0  0  0  0  0
   10.4745  -20.5892   20.4888 N   0  0  0  0  0  0  0  0  0  0  0  0
    9.4861  -20.8794   21.3215 C   0  0  0  0  0  0  0  0  0  0  0  0
    9.4043  -19.9346   22.2566 N   0  0  0  0  0  0  0  0  0  0  0  0
    9.7114  -15.6811   23.7213 C   0  0  0  0  0  0  0  0  0  0  0  0
   10.6442  -14.8627   23.8472 O   0  0  0  0  0  0  0  0  0  0  0  0
    8.3948  -12.7817   27.6139 C   0  0  0  0  0  0  0  0  0  0  0  0
    7.3966  -12.5771   26.4665 C   0  0  2  0  0  0  0  0  0  0  0  0
    6.0475  -12.3669   27.0761 C   0  0  0  0  0  0  0  0  0  0  0  0
    7.4742  -13.7728   25.5735 C   0  0  0  0  0  0  0  0  0  0  0  0
    8.7103  -14.6185   25.7688 C   0  0  2  0  0  0  0  0  0  0  0  0
    8.6744  -15.6262   24.6923 N   0  0  0  0  0  0  0  0  0  0  0  0
    8.8156  -15.2426   27.0823 C   0  0  0  0  0  0  0  0  0  0  0  0
    9.7130  -14.7896   28.0260 O   0  0  0  0  0  0  0  0  0  0  0  0
    8.0815  -16.2136   27.3752 O   0  0  0  0  0  0  0  0  0  0  0  0
  2  3  1  0
  2  1  1  6
  3  4  1  0
  4  8  1  0
  5  4  2  0
  5  6  1  0
  6  7  1  0
  8  7  2  0
  9 10  2  0
  9  2  1  0
 11  9  1  0
 12 11  1  0
 13 14  1  0
 12 13  1  1
 14 18  1  0
 15 14  2  0
 15 16  1  0
 16 17  1  0
 18 17  2  0
 19 12  1  0
 19 26  1  0
 20 19  2  0
 22 21  1  1
 22 23  1  0
 24 22  1  0
 25 26  1  0
 25 24  1  1
 27 28  1  0
 27 25  1  0
 29 27  2  0
M  END
$$$$
