HHL.pdb
     RDKit          3D

 29 30  0  0  1  0  0  0  0  0999 V2000
    9.0618  -16.5463   18.5851 N   0  0  0  0  0  0  0  0  0  0  0  0
    8.7778  -15.4444   19.4822 C   0  0  1  0  0  0  0  0  0  0  0  0
    7.5478  -14.7269   18.9745 C   0  0  0  0  0  0  0  0  0  0  0  0
    7.8620  -14.1563   17.6482 C   0  0  0  0  0  0  0  0  0  0  0  0
    8.5087  -12.9713   17.3728 C   0  0  0  0  0  0  0  0  0  0  0  0
    8.5899  -12.8281   16.0336 N   0  0  0  0  0  0  0  0  0  0  0  0
    8.0004  -13.9117   15.5173 C   0  0  0  0  0  0  0  0  0  0  0  0
    7.5481  -14.7372   16.4797 N   0  0  0  0  0  0  0  0  0  0  0  0
    8.5612  -15.9797   20.8619 C   0  0  0  0  0  0  0  0  0  0  0  0
    7.3929  -16.0636   21.3215 O   0  0  0  0  0  0  0  0  0  0  0  0
    9.6874  -16.3966   21.6591 N   0  0  0  0  0  0  0  0  0  0  0  0
    9.4045  -16.8096   23.0032 C   0  0  1  0  0  0  0  0  0  0  0  0
   10.2315  -17.9607   23.4821 C   0  0  0  0  0  0  0  0  0  0  0  0
    9.9338  -19.2409   22.8452 C   0  0  0  0  0  0  0  0  0  0  0  0
    9.0373  -19.6508   21.9066 C   0  0  0  0  0  0  0  0  0  0  0  0
    9.2055  -20.9706   21.6528 N   0  0  0  0  0  0  0  0  0  0  0  0
   10.1987  -21.3864   22.4242 C   0  0  0  0  0  0  0  0  0  0  0  0
   10.6523  -20.3655   23.1493 N   0  0  0  0  0  0  0  0  0  0  0  0
    9.4968  -15.6794   23.9657 C   0  0  0  0  0  0  0  0  0  0  0  0
   10.4653  -14.9010   24.0743 O   0  0  0  0  0  0  0  0  0  0  0  0
    5.4978  -12.1333   26.7558 C   0  0  0  0  0  0  0  0  0  0  0  0
    6.9308  -12.6686   26.8776 C   0  0  2  0  0  0  0  0  0  0  0  0
    7.8589  -11.5038   26.7440 C   0  0  0  0  0  0  0  0  0  0  0  0
    7.1203  -13.7131   25.8260 C   0  0  0  0  0  0  0  0  0  0  0  0
    8.4595  -14.4100   25.8726 C   0  0  2  0  0  0  0  0  0  0  0  0
    8.3959  -15.4592   24.8378 N   0  0  0  0  0  0  0  0  0  0  0  0
    8.8087  -14.9640   27.1753 C   0  0  0  0  0  0  0  0  0  0  0  0
    8.6232  -16.2994   27.4641 O   0  0  0  0  0  0  0  0  0  0  0  0
    9.2886  -14.2229   28.0630 O   0  0  0  0  0  0  0  0  0  0  0  0
  2  3  1  0
  2  1  1  6
  3  4  1  0
  4  8  1  0
  5  4  2  0
  5  6  1  0
  6  7  1  0
  8  7  2  0
  9 10  2  0
  9  2  1  0
 11  9  1  0
 12 11  1  0
 13 14  1  0
 12 13  1  1
 14 18  1  0
 15 14  2  0
 15 16  1  0
 16 17  1  0
 18 17  2  0
 19 12  1  0
 19 26  1  0
 20 19  2  0
 22 21  1  6
 22 23  1  0
 24 22  1  0
 25 26  1  0
 25 24  1  1
 27 28  1  0
 27 25  1  0
 29 27  2  0
M  END
$$$$
