DIH.pdb
     RDKit          3D

 27 27  0  0  1  0  0  0  0  0999 V2000
   19.9030  -13.7296  -17.9305 N   0  0  0  0  0  0  0  0  0  0  0  0
   20.1681  -12.3845  -18.5255 C   0  0  1  0  0  0  0  0  0  0  0  0
   19.1100  -12.1333  -19.5241 C   0  0  0  0  0  0  0  0  0  0  0  0
   19.1675  -12.9403  -20.7472 C   0  0  0  0  0  0  0  0  0  0  0  0
   18.1685  -13.4133  -21.3404 O   0  0  0  0  0  0  0  0  0  0  0  0
   20.1850  -11.5005  -17.3396 C   0  0  0  0  0  0  0  0  0  0  0  0
   19.2951  -11.7134  -16.4293 O   0  0  0  0  0  0  0  0  0  0  0  0
   20.4348  -13.1970  -21.2858 O   0  0  0  0  0  0  0  0  0  0  0  0
   24.3243  -10.7277  -14.4338 C   0  0  0  0  0  0  0  0  0  0  0  0
   22.9095  -10.9275  -14.9332 C   0  0  0  0  0  0  0  0  0  0  0  0
   22.2961   -9.6044  -15.2343 C   0  0  2  0  0  0  0  0  0  0  0  0
   22.4280   -8.6263  -14.0827 C   0  0  0  0  0  0  0  0  0  0  0  0
   20.9185   -9.6264  -15.8108 C   0  0  2  0  0  0  0  0  0  0  0  0
   21.0456  -10.4369  -17.0561 N   0  0  0  0  0  0  0  0  0  0  0  0
   20.3154   -8.3357  -16.1318 C   0  0  0  0  0  0  0  0  0  0  0  0
   20.9349   -7.5660  -16.9543 O   0  0  0  0  0  0  0  0  0  0  0  0
   19.1083   -7.8167  -15.6454 N   0  0  0  0  0  0  0  0  0  0  0  0
   18.6067   -6.4827  -16.0712 C   0  0  1  0  0  0  0  0  0  0  0  0
   17.1232   -6.5003  -16.1217 C   0  0  0  0  0  0  0  0  0  0  0  0
   16.4681   -5.2114  -16.3941 C   0  0  0  0  0  0  0  0  0  0  0  0
   16.9227   -4.0291  -16.9100 C   0  0  0  0  0  0  0  0  0  0  0  0
   15.9285   -3.1259  -17.0434 N   0  0  0  0  0  0  0  0  0  0  0  0
   14.8361   -3.7498  -16.6070 C   0  0  0  0  0  0  0  0  0  0  0  0
   15.1230   -4.9883  -16.2150 N   0  0  0  0  0  0  0  0  0  0  0  0
   19.1367   -5.4892  -15.0744 C   0  0  0  0  0  0  0  0  0  0  0  0
   19.2110   -5.6438  -13.8522 O   0  0  0  0  0  0  0  0  0  0  0  0
   19.6102   -4.2346  -15.5281 O   0  0  0  0  0  0  0  0  0  0  0  0
  2  1  1  1
  2  3  1  0
  3  4  1  0
  4  5  2  0
  4  8  1  0
  6  2  1  0
  6  7  2  0
  9 10  1  0
 11 13  1  0
 11 10  1  0
 11 12  1  1
 13 14  1  6
 14  6  1  0
 15 13  1  0
 16 15  2  0
 17 15  1  0
 18 25  1  0
 18 17  1  0
 19 20  1  0
 18 19  1  1
 20 21  2  0
 21 22  1  0
 23 22  1  0
 24 20  1  0
 24 23  2  0
 25 27  1  0
 26 25  2  0
M  END
$$$$
