DIH.pdb
     RDKit          3D

 27 27  0  0  1  0  0  0  0  0999 V2000
   28.1948  -20.9198  -16.0537 N   0  0  0  0  0  0  0  0  0  0  0  0
   27.3861  -19.7687  -15.5488 C   0  0  1  0  0  0  0  0  0  0  0  0
   26.9123  -19.0180  -16.7286 C   0  0  0  0  0  0  0  0  0  0  0  0
   27.9402  -18.3252  -17.5122 C   0  0  0  0  0  0  0  0  0  0  0  0
   28.5318  -17.2795  -17.1514 O   0  0  0  0  0  0  0  0  0  0  0  0
   26.3520  -20.4325  -14.7253 C   0  0  0  0  0  0  0  0  0  0  0  0
   25.9297  -21.5861  -15.1214 O   0  0  0  0  0  0  0  0  0  0  0  0
   28.2801  -18.8783  -18.7534 O   0  0  0  0  0  0  0  0  0  0  0  0
   26.7211  -20.9106   -9.5455 C   0  0  0  0  0  0  0  0  0  0  0  0
   26.4733  -21.1554  -11.0184 C   0  0  0  0  0  0  0  0  0  0  0  0
   25.1145  -20.6669  -11.3828 C   0  0  2  0  0  0  0  0  0  0  0  0
   24.0393  -21.1866  -10.4480 C   0  0  0  0  0  0  0  0  0  0  0  0
   24.7289  -20.7867  -12.8207 C   0  0  2  0  0  0  0  0  0  0  0  0
   25.7466  -19.9777  -13.5511 N   0  0  0  0  0  0  0  0  0  0  0  0
   23.3915  -20.3285  -13.1869 C   0  0  0  0  0  0  0  0  0  0  0  0
   23.0071  -19.1791  -12.7581 O   0  0  0  0  0  0  0  0  0  0  0  0
   22.4478  -21.0016  -13.9739 N   0  0  0  0  0  0  0  0  0  0  0  0
   21.0924  -20.4389  -14.2159 C   0  0  1  0  0  0  0  0  0  0  0  0
   20.6444  -20.7886  -15.5872 C   0  0  0  0  0  0  0  0  0  0  0  0
   21.2759  -20.0415  -16.6862 C   0  0  0  0  0  0  0  0  0  0  0  0
   22.2302  -19.0623  -16.7156 C   0  0  0  0  0  0  0  0  0  0  0  0
   22.5543  -18.7168  -17.9796 N   0  0  0  0  0  0  0  0  0  0  0  0
   21.7948  -19.4901  -18.7530 C   0  0  0  0  0  0  0  0  0  0  0  0
   21.0256  -20.2870  -18.0160 N   0  0  0  0  0  0  0  0  0  0  0  0
   20.1959  -21.0132  -13.1538 C   0  0  0  0  0  0  0  0  0  0  0  0
   20.3983  -22.0391  -12.4981 O   0  0  0  0  0  0  0  0  0  0  0  0
   18.9855  -20.3524  -12.8340 O   0  0  0  0  0  0  0  0  0  0  0  0
  2  1  1  6
  2  3  1  0
  3  4  1  0
  4  5  2  0
  4  8  1  0
  6  2  1  0
  6  7  2  0
  9 10  1  0
 11 13  1  0
 11 10  1  0
 11 12  1  1
 13 14  1  6
 14  6  1  0
 15 13  1  0
 16 15  2  0
 17 15  1  0
 18 25  1  0
 18 17  1  0
 19 20  1  0
 18 19  1  6
 20 21  2  0
 21 22  1  0
 23 22  1  0
 24 20  1  0
 24 23  2  0
 25 27  1  0
 26 25  2  0
M  END
$$$$
