DIH.pdb
     RDKit          3D

 27 27  0  0  1  0  0  0  0  0999 V2000
   21.9167  -16.6256  -15.7405 N   0  0  0  0  0  0  0  0  0  0  0  0
   21.5712  -15.4755  -16.6303 C   0  0  1  0  0  0  0  0  0  0  0  0
   20.1279  -15.5716  -16.9263 C   0  0  0  0  0  0  0  0  0  0  0  0
   19.7084  -16.7132  -17.7455 C   0  0  0  0  0  0  0  0  0  0  0  0
   20.3857  -17.2151  -18.6745 O   0  0  0  0  0  0  0  0  0  0  0  0
   22.0099  -14.3062  -15.8377 C   0  0  0  0  0  0  0  0  0  0  0  0
   21.5865  -14.2225  -14.6212 O   0  0  0  0  0  0  0  0  0  0  0  0
   18.4583  -17.2786  -17.4634 O   0  0  0  0  0  0  0  0  0  0  0  0
   26.8517  -13.1585  -14.9348 C   0  0  0  0  0  0  0  0  0  0  0  0
   25.3539  -13.3223  -14.7915 C   0  0  0  0  0  0  0  0  0  0  0  0
   24.6692  -12.0957  -15.2860 C   0  0  2  0  0  0  0  0  0  0  0  0
   25.2151  -10.8298  -14.6539 C   0  0  0  0  0  0  0  0  0  0  0  0
   23.1761  -12.1290  -15.3019 C   0  0  2  0  0  0  0  0  0  0  0  0
   22.8354  -13.2481  -16.2267 N   0  0  0  0  0  0  0  0  0  0  0  0
   22.4924  -10.9145  -15.7381 C   0  0  0  0  0  0  0  0  0  0  0  0
   22.7355  -10.4749  -16.9215 O   0  0  0  0  0  0  0  0  0  0  0  0
   21.5740  -10.1474  -15.0094 N   0  0  0  0  0  0  0  0  0  0  0  0
   20.9736   -8.9087  -15.5732 C   0  0  1  0  0  0  0  0  0  0  0  0
   19.5872   -8.7509  -15.0667 C   0  0  0  0  0  0  0  0  0  0  0  0
   18.9113   -7.4896  -15.4086 C   0  0  0  0  0  0  0  0  0  0  0  0
   19.2301   -6.4653  -16.2569 C   0  0  0  0  0  0  0  0  0  0  0  0
   18.2589   -5.5288  -16.2983 N   0  0  0  0  0  0  0  0  0  0  0  0
   17.3181   -5.9719  -15.4667 C   0  0  0  0  0  0  0  0  0  0  0  0
   17.6751   -7.1326  -14.9232 N   0  0  0  0  0  0  0  0  0  0  0  0
   21.8698   -7.7738  -15.1603 C   0  0  0  0  0  0  0  0  0  0  0  0
   22.4584   -7.6581  -14.0817 O   0  0  0  0  0  0  0  0  0  0  0  0
   22.0953   -6.7039  -16.0594 O   0  0  0  0  0  0  0  0  0  0  0  0
  2  1  1  1
  2  3  1  0
  3  4  1  0
  4  5  2  0
  4  8  1  0
  6  2  1  0
  6  7  2  0
  9 10  1  0
 11 13  1  0
 11 10  1  0
 11 12  1  1
 13 14  1  6
 14  6  1  0
 15 13  1  0
 16 15  2  0
 17 15  1  0
 18 25  1  0
 18 17  1  0
 19 20  1  0
 18 19  1  1
 20 21  2  0
 21 22  1  0
 23 22  1  0
 24 20  1  0
 24 23  2  0
 25 27  1  0
 26 25  2  0
M  END
$$$$
