DIH.pdb
     RDKit          3D

 27 27  0  0  1  0  0  0  0  0999 V2000
   24.3886  -10.9201  -20.5087 N   0  0  0  0  0  0  0  0  0  0  0  0
   22.9449  -11.1601  -20.2052 C   0  0  1  0  0  0  0  0  0  0  0  0
   22.6955  -12.6040  -20.3868 C   0  0  0  0  0  0  0  0  0  0  0  0
   22.7841  -13.1099  -21.7604 C   0  0  0  0  0  0  0  0  0  0  0  0
   22.6153  -12.4154  -22.7913 O   0  0  0  0  0  0  0  0  0  0  0  0
   22.8078  -10.6305  -18.8309 C   0  0  0  0  0  0  0  0  0  0  0  0
   21.6711  -10.7970  -18.2425 O   0  0  0  0  0  0  0  0  0  0  0  0
   23.0793  -14.4693  -21.9241 O   0  0  0  0  0  0  0  0  0  0  0  0
   26.6720  -10.9806  -15.2655 C   0  0  0  0  0  0  0  0  0  0  0  0
   25.2985  -11.0149  -15.9006 C   0  0  0  0  0  0  0  0  0  0  0  0
   24.7287   -9.6393  -15.9298 C   0  0  2  0  0  0  0  0  0  0  0  0
   24.6858   -8.9981  -14.5560 C   0  0  0  0  0  0  0  0  0  0  0  0
   23.4503   -9.4655  -16.6821 C   0  0  2  0  0  0  0  0  0  0  0  0
   23.7549   -9.9541  -18.0577 N   0  0  0  0  0  0  0  0  0  0  0  0
   22.9064   -8.1123  -16.7576 C   0  0  0  0  0  0  0  0  0  0  0  0
   23.5410   -7.2434  -17.4612 O   0  0  0  0  0  0  0  0  0  0  0  0
   21.7429   -7.6281  -16.1454 N   0  0  0  0  0  0  0  0  0  0  0  0
   21.2662   -6.2371  -16.3697 C   0  0  1  0  0  0  0  0  0  0  0  0
   20.7493   -6.1040  -17.7549 C   0  0  0  0  0  0  0  0  0  0  0  0
   20.0705   -4.8386  -18.0752 C   0  0  0  0  0  0  0  0  0  0  0  0
   19.1135   -4.1079  -17.4266 C   0  0  0  0  0  0  0  0  0  0  0  0
   18.8376   -2.9566  -18.0749 N   0  0  0  0  0  0  0  0  0  0  0  0
   19.6327   -2.9642  -19.1430 C   0  0  0  0  0  0  0  0  0  0  0  0
   20.3764   -4.0670  -19.1717 N   0  0  0  0  0  0  0  0  0  0  0  0
   20.2084   -5.9760  -15.3333 C   0  0  0  0  0  0  0  0  0  0  0  0
   19.6131   -6.8236  -14.6620 O   0  0  0  0  0  0  0  0  0  0  0  0
   19.8168   -4.6433  -15.0603 O   0  0  0  0  0  0  0  0  0  0  0  0
  2  1  1  1
  2  3  1  0
  3  4  1  0
  4  5  2  0
  4  8  1  0
  6  2  1  0
  6  7  2  0
  9 10  1  0
 11 13  1  0
 11 10  1  0
 11 12  1  1
 13 14  1  6
 14  6  1  0
 15 13  1  0
 16 15  2  0
 17 15  1  0
 18 25  1  0
 18 17  1  0
 19 20  1  0
 18 19  1  6
 20 21  2  0
 21 22  1  0
 23 22  1  0
 24 20  1  0
 24 23  2  0
 25 27  1  0
 26 25  2  0
M  END
$$$$
