DIH.pdb
     RDKit          3D

 27 27  0  0  1  0  0  0  0  0999 V2000
   22.1907  -14.7671  -18.0613 N   0  0  0  0  0  0  0  0  0  0  0  0
   22.3508  -13.4521  -18.7534 C   0  0  1  0  0  0  0  0  0  0  0  0
   21.1544  -13.2543  -19.5957 C   0  0  0  0  0  0  0  0  0  0  0  0
   21.0346  -14.1275  -20.7677 C   0  0  0  0  0  0  0  0  0  0  0  0
   21.9930  -14.4897  -21.4915 O   0  0  0  0  0  0  0  0  0  0  0  0
   22.5328  -12.5104  -17.6272 C   0  0  0  0  0  0  0  0  0  0  0  0
   21.7613  -12.6560  -16.6028 O   0  0  0  0  0  0  0  0  0  0  0  0
   19.7525  -14.5861  -21.0960 O   0  0  0  0  0  0  0  0  0  0  0  0
   27.0019  -11.3818  -15.2451 C   0  0  0  0  0  0  0  0  0  0  0  0
   25.5488  -11.6701  -15.5552 C   0  0  0  0  0  0  0  0  0  0  0  0
   24.8619  -10.4068  -15.9425 C   0  0  2  0  0  0  0  0  0  0  0  0
   25.0946   -9.2886  -14.9448 C   0  0  0  0  0  0  0  0  0  0  0  0
   23.4282  -10.5260  -16.3437 C   0  0  2  0  0  0  0  0  0  0  0  0
   23.4408  -11.4550  -17.5102 N   0  0  0  0  0  0  0  0  0  0  0  0
   22.7406   -9.2920  -16.7141 C   0  0  0  0  0  0  0  0  0  0  0  0
   23.2603   -8.5632  -17.6369 O   0  0  0  0  0  0  0  0  0  0  0  0
   21.5478   -8.7894  -16.1778 N   0  0  0  0  0  0  0  0  0  0  0  0
   20.9832   -7.4865  -16.6206 C   0  0  1  0  0  0  0  0  0  0  0  0
   19.5088   -7.5996  -16.7497 C   0  0  0  0  0  0  0  0  0  0  0  0
   18.7823   -6.3467  -17.0091 C   0  0  0  0  0  0  0  0  0  0  0  0
   18.7680   -5.4839  -18.0702 C   0  0  0  0  0  0  0  0  0  0  0  0
   17.8797   -4.4837  -17.8902 N   0  0  0  0  0  0  0  0  0  0  0  0
   17.3286   -4.7227  -16.7018 C   0  0  0  0  0  0  0  0  0  0  0  0
   17.8426   -5.8207  -16.1538 N   0  0  0  0  0  0  0  0  0  0  0  0
   21.3945   -6.4709  -15.5906 C   0  0  0  0  0  0  0  0  0  0  0  0
   21.6760   -6.6951  -14.4099 O   0  0  0  0  0  0  0  0  0  0  0  0
   21.4833   -5.1064  -15.9567 O   0  0  0  0  0  0  0  0  0  0  0  0
  2  1  1  1
  2  3  1  0
  3  4  1  0
  4  5  2  0
  4  8  1  0
  6  2  1  0
  6  7  2  0
  9 10  1  0
 11 13  1  0
 11 10  1  0
 11 12  1  1
 13 14  1  6
 14  6  1  0
 15 13  1  0
 16 15  2  0
 17 15  1  0
 18 25  1  0
 18 17  1  0
 19 20  1  0
 18 19  1  1
 20 21  2  0
 21 22  1  0
 23 22  1  0
 24 20  1  0
 24 23  2  0
 25 27  1  0
 26 25  2  0
M  END
$$$$
