DIH.pdb
     RDKit          3D

 27 27  0  0  1  0  0  0  0  0999 V2000
   27.8466  -21.6432  -16.0465 N   0  0  0  0  0  0  0  0  0  0  0  0
   27.1584  -20.4353  -15.4978 C   0  0  1  0  0  0  0  0  0  0  0  0
   26.5673  -19.7130  -16.6418 C   0  0  0  0  0  0  0  0  0  0  0  0
   27.5104  -19.0463  -17.5454 C   0  0  0  0  0  0  0  0  0  0  0  0
   28.2502  -18.0850  -17.2256 O   0  0  0  0  0  0  0  0  0  0  0  0
   26.2132  -21.0147  -14.5185 C   0  0  0  0  0  0  0  0  0  0  0  0
   25.6632  -22.1423  -14.8217 O   0  0  0  0  0  0  0  0  0  0  0  0
   27.5841  -19.5241  -18.8600 O   0  0  0  0  0  0  0  0  0  0  0  0
   25.6151  -19.7920   -8.9866 C   0  0  0  0  0  0  0  0  0  0  0  0
   25.2587  -19.6894  -10.4541 C   0  0  0  0  0  0  0  0  0  0  0  0
   25.2379  -21.0505  -11.0579 C   0  0  2  0  0  0  0  0  0  0  0  0
   26.5385  -21.8012  -10.8455 C   0  0  0  0  0  0  0  0  0  0  0  0
   24.7460  -21.1458  -12.4649 C   0  0  2  0  0  0  0  0  0  0  0  0
   25.8155  -20.5024  -13.2810 N   0  0  0  0  0  0  0  0  0  0  0  0
   23.4635  -20.5131  -12.7610 C   0  0  0  0  0  0  0  0  0  0  0  0
   23.4535  -19.2513  -13.0069 O   0  0  0  0  0  0  0  0  0  0  0  0
   22.2053  -21.1271  -12.8172 N   0  0  0  0  0  0  0  0  0  0  0  0
   20.9599  -20.3347  -12.9999 C   0  0  1  0  0  0  0  0  0  0  0  0
   20.5856  -20.3175  -14.4363 C   0  0  0  0  0  0  0  0  0  0  0  0
   19.3717  -19.5611  -14.7813 C   0  0  0  0  0  0  0  0  0  0  0  0
   18.9612  -18.2864  -14.5033 C   0  0  0  0  0  0  0  0  0  0  0  0
   17.7831  -17.9993  -15.0964 N   0  0  0  0  0  0  0  0  0  0  0  0
   17.4511  -19.1073  -15.7561 C   0  0  0  0  0  0  0  0  0  0  0  0
   18.3729  -20.0519  -15.5892 N   0  0  0  0  0  0  0  0  0  0  0  0
   19.9109  -20.9838  -12.1397 C   0  0  0  0  0  0  0  0  0  0  0  0
   19.8690  -22.1704  -11.8025 O   0  0  0  0  0  0  0  0  0  0  0  0
   18.8411  -20.2030  -11.6400 O   0  0  0  0  0  0  0  0  0  0  0  0
  2  1  1  6
  2  3  1  0
  3  4  1  0
  4  5  2  0
  4  8  1  0
  6  2  1  0
  6  7  2  0
  9 10  1  0
 11 13  1  0
 11 10  1  0
 11 12  1  6
 13 14  1  6
 14  6  1  0
 15 13  1  0
 16 15  2  0
 17 15  1  0
 18 25  1  0
 18 17  1  0
 19 20  1  0
 18 19  1  6
 20 21  2  0
 21 22  1  0
 23 22  1  0
 24 20  1  0
 24 23  2  0
 25 27  1  0
 26 25  2  0
M  END
$$$$
