DIH.pdb
     RDKit          3D

 27 27  0  0  1  0  0  0  0  0999 V2000
   23.9954  -20.5420   -9.2355 N   0  0  0  0  0  0  0  0  0  0  0  0
   23.8698  -21.0541  -10.6340 C   0  0  1  0  0  0  0  0  0  0  0  0
   22.5427  -20.6408  -11.1320 C   0  0  0  0  0  0  0  0  0  0  0  0
   21.3848  -21.2878  -10.5066 C   0  0  0  0  0  0  0  0  0  0  0  0
   21.4398  -22.0392   -9.5036 O   0  0  0  0  0  0  0  0  0  0  0  0
   25.0457  -20.4596  -11.3062 C   0  0  0  0  0  0  0  0  0  0  0  0
   25.2448  -19.1948  -11.1430 O   0  0  0  0  0  0  0  0  0  0  0  0
   20.1292  -21.0436  -11.0774 O   0  0  0  0  0  0  0  0  0  0  0  0
   29.8907  -21.9193  -10.9337 C   0  0  0  0  0  0  0  0  0  0  0  0
   28.6772  -21.0324  -11.1118 C   0  0  0  0  0  0  0  0  0  0  0  0
   28.3135  -20.9697  -12.5545 C   0  0  2  0  0  0  0  0  0  0  0  0
   29.4539  -20.4706  -13.4208 C   0  0  0  0  0  0  0  0  0  0  0  0
   27.0143  -20.3109  -12.8842 C   0  0  2  0  0  0  0  0  0  0  0  0
   25.9958  -21.0849  -12.1177 N   0  0  0  0  0  0  0  0  0  0  0  0
   26.6326  -20.2700  -14.2932 C   0  0  0  0  0  0  0  0  0  0  0  0
   26.3275  -21.3777  -14.8700 O   0  0  0  0  0  0  0  0  0  0  0  0
   26.5500  -19.1415  -15.1194 N   0  0  0  0  0  0  0  0  0  0  0  0
   26.1014  -19.2432  -16.5339 C   0  0  1  0  0  0  0  0  0  0  0  0
   24.9631  -18.3186  -16.7641 C   0  0  0  0  0  0  0  0  0  0  0  0
   23.6517  -18.7691  -16.2723 C   0  0  0  0  0  0  0  0  0  0  0  0
   23.2506  -19.8771  -15.5781 C   0  0  0  0  0  0  0  0  0  0  0  0
   21.9348  -19.8322  -15.2803 N   0  0  0  0  0  0  0  0  0  0  0  0
   21.5053  -18.6808  -15.7928 C   0  0  0  0  0  0  0  0  0  0  0  0
   22.4996  -18.0271  -16.3876 N   0  0  0  0  0  0  0  0  0  0  0  0
   27.2951  -18.9095  -17.3854 C   0  0  0  0  0  0  0  0  0  0  0  0
   27.5522  -19.3689  -18.5018 O   0  0  0  0  0  0  0  0  0  0  0  0
   28.2523  -17.9824  -16.9076 O   0  0  0  0  0  0  0  0  0  0  0  0
  2  1  1  1
  2  3  1  0
  3  4  1  0
  4  5  2  0
  4  8  1  0
  6  2  1  0
  6  7  2  0
  9 10  1  0
 11 13  1  0
 11 10  1  0
 11 12  1  6
 13 14  1  1
 14  6  1  0
 15 13  1  0
 16 15  2  0
 17 15  1  0
 18 25  1  0
 18 17  1  0
 19 20  1  0
 18 19  1  1
 20 21  2  0
 21 22  1  0
 23 22  1  0
 24 20  1  0
 24 23  2  0
 25 27  1  0
 26 25  2  0
M  END
$$$$
