DIH.pdb
     RDKit          3D

 27 27  0  0  1  0  0  0  0  0999 V2000
   17.3781  -12.1401  -16.7382 N   0  0  0  0  0  0  0  0  0  0  0  0
   18.1588  -11.1290  -17.5141 C   0  0  1  0  0  0  0  0  0  0  0  0
   17.1992  -10.1192  -18.0034 C   0  0  0  0  0  0  0  0  0  0  0  0
   16.2971  -10.5482  -19.0770 C   0  0  0  0  0  0  0  0  0  0  0  0
   16.5258  -11.4937  -19.8691 O   0  0  0  0  0  0  0  0  0  0  0  0
   19.1638  -10.6682  -16.5314 C   0  0  0  0  0  0  0  0  0  0  0  0
   18.7764  -10.5307  -15.3079 O   0  0  0  0  0  0  0  0  0  0  0  0
   15.0943   -9.8452  -19.2218 O   0  0  0  0  0  0  0  0  0  0  0  0
   24.8299  -11.3309  -14.9090 C   0  0  0  0  0  0  0  0  0  0  0  0
   23.6587  -10.3961  -14.6960 C   0  0  0  0  0  0  0  0  0  0  0  0
   22.5980  -10.6901  -15.6992 C   0  0  2  0  0  0  0  0  0  0  0  0
   23.1498  -10.8323  -17.1047 C   0  0  0  0  0  0  0  0  0  0  0  0
   21.3783   -9.8297  -15.6480 C   0  0  2  0  0  0  0  0  0  0  0  0
   20.5074  -10.3477  -16.7421 N   0  0  0  0  0  0  0  0  0  0  0  0
   21.5747   -8.3933  -15.8237 C   0  0  0  0  0  0  0  0  0  0  0  0
   21.6368   -7.9331  -17.0224 O   0  0  0  0  0  0  0  0  0  0  0  0
   21.7032   -7.4237  -14.8205 N   0  0  0  0  0  0  0  0  0  0  0  0
   21.7332   -5.9715  -15.1406 C   0  0  1  0  0  0  0  0  0  0  0  0
   20.4216   -5.5562  -15.6982 C   0  0  0  0  0  0  0  0  0  0  0  0
   20.2325   -4.1118  -15.9046 C   0  0  0  0  0  0  0  0  0  0  0  0
   21.0674   -3.0371  -15.7693 C   0  0  0  0  0  0  0  0  0  0  0  0
   20.4671   -1.8868  -16.1414 N   0  0  0  0  0  0  0  0  0  0  0  0
   19.2406   -2.2446  -16.5164 C   0  0  0  0  0  0  0  0  0  0  0  0
   19.0703   -3.5577  -16.3878 N   0  0  0  0  0  0  0  0  0  0  0  0
   22.0652   -5.2586  -13.8588 C   0  0  0  0  0  0  0  0  0  0  0  0
   22.3794   -4.0710  -13.7393 O   0  0  0  0  0  0  0  0  0  0  0  0
   22.0304   -5.9729  -12.6371 O   0  0  0  0  0  0  0  0  0  0  0  0
  2  1  1  1
  2  3  1  0
  3  4  1  0
  4  5  2  0
  4  8  1  0
  6  2  1  0
  6  7  2  0
  9 10  1  0
 11 13  1  0
 11 10  1  0
 11 12  1  6
 13 14  1  6
 14  6  1  0
 15 13  1  0
 16 15  2  0
 17 15  1  0
 18 25  1  0
 18 17  1  0
 19 20  1  0
 18 19  1  1
 20 21  2  0
 21 22  1  0
 23 22  1  0
 24 20  1  0
 24 23  2  0
 25 27  1  0
 26 25  2  0
M  END
$$$$
