DIH.pdb
     RDKit          3D

 27 27  0  0  1  0  0  0  0  0999 V2000
   23.4904  -12.1244  -19.4674 N   0  0  0  0  0  0  0  0  0  0  0  0
   23.2433  -10.6505  -19.4844 C   0  0  1  0  0  0  0  0  0  0  0  0
   22.3883  -10.3653  -20.6538 C   0  0  0  0  0  0  0  0  0  0  0  0
   23.0410  -10.4284  -21.9654 C   0  0  0  0  0  0  0  0  0  0  0  0
   22.5947  -11.0526  -22.9578 O   0  0  0  0  0  0  0  0  0  0  0  0
   22.6498  -10.4036  -18.1521 C   0  0  0  0  0  0  0  0  0  0  0  0
   21.7752  -11.2522  -17.7268 O   0  0  0  0  0  0  0  0  0  0  0  0
   24.2511   -9.7384  -22.1122 O   0  0  0  0  0  0  0  0  0  0  0  0
   25.5168  -10.0609  -15.4063 C   0  0  0  0  0  0  0  0  0  0  0  0
   24.1846  -10.2594  -14.7160 C   0  0  0  0  0  0  0  0  0  0  0  0
   23.3169   -9.0733  -14.9572 C   0  0  2  0  0  0  0  0  0  0  0  0
   22.8452   -8.4259  -13.6694 C   0  0  0  0  0  0  0  0  0  0  0  0
   22.2125   -9.2484  -15.9472 C   0  0  2  0  0  0  0  0  0  0  0  0
   22.9027   -9.3543  -17.2649 N   0  0  0  0  0  0  0  0  0  0  0  0
   21.2072   -8.1909  -16.0101 C   0  0  0  0  0  0  0  0  0  0  0  0
   21.5690   -7.0372  -16.4470 O   0  0  0  0  0  0  0  0  0  0  0  0
   19.8567   -8.2789  -15.6479 N   0  0  0  0  0  0  0  0  0  0  0  0
   18.9205   -7.1409  -15.8506 C   0  0  1  0  0  0  0  0  0  0  0  0
   17.5794   -7.6580  -16.2214 C   0  0  0  0  0  0  0  0  0  0  0  0
   17.4580   -8.2408  -17.5669 C   0  0  0  0  0  0  0  0  0  0  0  0
   17.4149   -7.6890  -18.8176 C   0  0  0  0  0  0  0  0  0  0  0  0
   17.3660   -8.6340  -19.7802 N   0  0  0  0  0  0  0  0  0  0  0  0
   17.3802   -9.7932  -19.1253 C   0  0  0  0  0  0  0  0  0  0  0  0
   17.4346   -9.5939  -17.8111 N   0  0  0  0  0  0  0  0  0  0  0  0
   18.9027   -6.3678  -14.5608 C   0  0  0  0  0  0  0  0  0  0  0  0
   19.3236   -6.7548  -13.4670 O   0  0  0  0  0  0  0  0  0  0  0  0
   18.3597   -5.0607  -14.5415 O   0  0  0  0  0  0  0  0  0  0  0  0
  2  1  1  1
  2  3  1  0
  3  4  1  0
  4  5  2  0
  4  8  1  0
  6  2  1  0
  6  7  2  0
  9 10  1  0
 11 13  1  0
 11 10  1  0
 11 12  1  1
 13 14  1  6
 14  6  1  0
 15 13  1  0
 16 15  2  0
 17 15  1  0
 18 25  1  0
 18 17  1  0
 19 20  1  0
 18 19  1  1
 20 21  2  0
 21 22  1  0
 23 22  1  0
 24 20  1  0
 24 23  2  0
 25 27  1  0
 26 25  2  0
M  END
$$$$
