DIH.pdb
     RDKit          3D

 27 27  0  0  1  0  0  0  0  0999 V2000
   24.7570  -24.8092  -14.8199 N   0  0  0  0  0  0  0  0  0  0  0  0
   23.4618  -24.0770  -14.6775 C   0  0  1  0  0  0  0  0  0  0  0  0
   22.7129  -24.7249  -13.5823 C   0  0  0  0  0  0  0  0  0  0  0  0
   22.1950  -26.0690  -13.8571 C   0  0  0  0  0  0  0  0  0  0  0  0
   22.3862  -26.7063  -14.9206 O   0  0  0  0  0  0  0  0  0  0  0  0
   23.8986  -22.6824  -14.4487 C   0  0  0  0  0  0  0  0  0  0  0  0
   22.9977  -21.8309  -14.0890 O   0  0  0  0  0  0  0  0  0  0  0  0
   21.4319  -26.6787  -12.8531 O   0  0  0  0  0  0  0  0  0  0  0  0
   26.4121  -20.8864  -11.3566 C   0  0  0  0  0  0  0  0  0  0  0  0
   27.0841  -21.5094  -12.5613 C   0  0  0  0  0  0  0  0  0  0  0  0
   26.8368  -20.6640  -13.7621 C   0  0  2  0  0  0  0  0  0  0  0  0
   27.3679  -19.2528  -13.5996 C   0  0  0  0  0  0  0  0  0  0  0  0
   25.4523  -20.6931  -14.3214 C   0  0  2  0  0  0  0  0  0  0  0  0
   25.1791  -22.1374  -14.5728 N   0  0  0  0  0  0  0  0  0  0  0  0
   25.2185  -19.9350  -15.5476 C   0  0  0  0  0  0  0  0  0  0  0  0
   26.1428  -19.9295  -16.4412 O   0  0  0  0  0  0  0  0  0  0  0  0
   24.0781  -19.1945  -15.8851 N   0  0  0  0  0  0  0  0  0  0  0  0
   23.9514  -18.5175  -17.2034 C   0  0  1  0  0  0  0  0  0  0  0  0
   22.5647  -18.0167  -17.3760 C   0  0  0  0  0  0  0  0  0  0  0  0
   22.3023  -17.2418  -18.5989 C   0  0  0  0  0  0  0  0  0  0  0  0
   21.4660  -17.4404  -19.6627 C   0  0  0  0  0  0  0  0  0  0  0  0
   21.5123  -16.4111  -20.5348 N   0  0  0  0  0  0  0  0  0  0  0  0
   22.3875  -15.5553  -20.0108 C   0  0  0  0  0  0  0  0  0  0  0  0
   22.8737  -16.0190  -18.8625 N   0  0  0  0  0  0  0  0  0  0  0  0
   24.9686  -17.4100  -17.2141 C   0  0  0  0  0  0  0  0  0  0  0  0
   25.8015  -17.1866  -18.0971 O   0  0  0  0  0  0  0  0  0  0  0  0
   25.0214  -16.5043  -16.1275 O   0  0  0  0  0  0  0  0  0  0  0  0
  2  1  1  1
  2  3  1  0
  3  4  1  0
  4  5  2  0
  4  8  1  0
  6  2  1  0
  6  7  2  0
  9 10  1  0
 11 13  1  0
 11 10  1  0
 11 12  1  1
 13 14  1  6
 14  6  1  0
 15 13  1  0
 16 15  2  0
 17 15  1  0
 18 25  1  0
 18 17  1  0
 19 20  1  0
 18 19  1  1
 20 21  2  0
 21 22  1  0
 23 22  1  0
 24 20  1  0
 24 23  2  0
 25 27  1  0
 26 25  2  0
M  END
$$$$
