DIH.pdb
     RDKit          3D

 27 27  0  0  1  0  0  0  0  0999 V2000
   26.7707  -21.4862  -13.6751 N   0  0  0  0  0  0  0  0  0  0  0  0
   26.1288  -20.3183  -12.9985 C   0  0  1  0  0  0  0  0  0  0  0  0
   24.9441  -19.9483  -13.7981 C   0  0  0  0  0  0  0  0  0  0  0  0
   25.2068  -19.4189  -15.1402 C   0  0  0  0  0  0  0  0  0  0  0  0
   26.0532  -18.5323  -15.4069 O   0  0  0  0  0  0  0  0  0  0  0  0
   25.8753  -20.8303  -11.6340 C   0  0  0  0  0  0  0  0  0  0  0  0
   25.4951  -22.0588  -11.5234 O   0  0  0  0  0  0  0  0  0  0  0  0
   24.4530  -19.9474  -16.1957 O   0  0  0  0  0  0  0  0  0  0  0  0
   27.2658  -19.8394   -5.8021 C   0  0  0  0  0  0  0  0  0  0  0  0
   26.3369  -20.6244   -6.7030 C   0  0  0  0  0  0  0  0  0  0  0  0
   26.4745  -20.1393   -8.1043 C   0  0  2  0  0  0  0  0  0  0  0  0
   26.4501  -18.6260   -8.2011 C   0  0  0  0  0  0  0  0  0  0  0  0
   25.5977  -20.7916   -9.1223 C   0  0  2  0  0  0  0  0  0  0  0  0
   25.9869  -20.1574  -10.4146 N   0  0  0  0  0  0  0  0  0  0  0  0
   24.1554  -20.6616   -8.9334 C   0  0  0  0  0  0  0  0  0  0  0  0
   23.5605  -19.6635   -9.4836 O   0  0  0  0  0  0  0  0  0  0  0  0
   23.3122  -21.5154   -8.2102 N   0  0  0  0  0  0  0  0  0  0  0  0
   21.8318  -21.4296   -8.3268 C   0  0  1  0  0  0  0  0  0  0  0  0
   21.4267  -21.6784   -9.7330 C   0  0  0  0  0  0  0  0  0  0  0  0
   19.9795  -21.7008   -9.9969 C   0  0  0  0  0  0  0  0  0  0  0  0
   18.8908  -21.3848   -9.2317 C   0  0  0  0  0  0  0  0  0  0  0  0
   17.7400  -21.4954   -9.9284 N   0  0  0  0  0  0  0  0  0  0  0  0
   18.1114  -21.8842  -11.1465 C   0  0  0  0  0  0  0  0  0  0  0  0
   19.4334  -22.0149  -11.2193 N   0  0  0  0  0  0  0  0  0  0  0  0
   21.2690  -22.4503   -7.3766 C   0  0  0  0  0  0  0  0  0  0  0  0
   21.9028  -23.3228   -6.7763 O   0  0  0  0  0  0  0  0  0  0  0  0
   19.8791  -22.4577   -7.1078 O   0  0  0  0  0  0  0  0  0  0  0  0
  2  1  1  6
  2  3  1  0
  3  4  1  0
  4  5  2  0
  4  8  1  0
  6  2  1  0
  6  7  2  0
  9 10  1  0
 11 13  1  0
 11 10  1  0
 11 12  1  1
 13 14  1  6
 14  6  1  0
 15 13  1  0
 16 15  2  0
 17 15  1  0
 18 25  1  0
 18 17  1  0
 19 20  1  0
 18 19  1  6
 20 21  2  0
 21 22  1  0
 23 22  1  0
 24 20  1  0
 24 23  2  0
 25 27  1  0
 26 25  2  0
M  END
$$$$
