DIH.pdb
     RDKit          3D

 27 27  0  0  1  0  0  0  0  0999 V2000
   20.0963  -12.6139  -18.0440 N   0  0  0  0  0  0  0  0  0  0  0  0
   20.6975  -11.3279  -18.5117 C   0  0  1  0  0  0  0  0  0  0  0  0
   19.5983  -10.5045  -19.0537 C   0  0  0  0  0  0  0  0  0  0  0  0
   19.1776  -10.8062  -20.4257 C   0  0  0  0  0  0  0  0  0  0  0  0
   18.2348  -10.2374  -21.0268 O   0  0  0  0  0  0  0  0  0  0  0  0
   21.3696  -10.8204  -17.2956 C   0  0  0  0  0  0  0  0  0  0  0  0
   20.7193  -10.8976  -16.1834 O   0  0  0  0  0  0  0  0  0  0  0  0
   19.8857  -11.8039  -21.1078 O   0  0  0  0  0  0  0  0  0  0  0  0
   26.0473  -12.1481  -15.5500 C   0  0  0  0  0  0  0  0  0  0  0  0
   24.5989  -11.7388  -15.7087 C   0  0  0  0  0  0  0  0  0  0  0  0
   24.4994  -10.2530  -15.7190 C   0  0  2  0  0  0  0  0  0  0  0  0
   25.2619   -9.6109  -14.5759 C   0  0  0  0  0  0  0  0  0  0  0  0
   23.1304   -9.6798  -15.8864 C   0  0  2  0  0  0  0  0  0  0  0  0
   22.6394  -10.2504  -17.1737 N   0  0  0  0  0  0  0  0  0  0  0  0
   23.0240   -8.2240  -15.9296 C   0  0  0  0  0  0  0  0  0  0  0  0
   23.7090   -7.5930  -16.8158 O   0  0  0  0  0  0  0  0  0  0  0  0
   22.2426   -7.4037  -15.1052 N   0  0  0  0  0  0  0  0  0  0  0  0
   22.1872   -5.9302  -15.3006 C   0  0  1  0  0  0  0  0  0  0  0  0
   20.8021   -5.5245  -15.6476 C   0  0  0  0  0  0  0  0  0  0  0  0
   20.3158   -5.9433  -16.9715 C   0  0  0  0  0  0  0  0  0  0  0  0
   20.9305   -6.0835  -18.1851 C   0  0  0  0  0  0  0  0  0  0  0  0
   20.0872   -6.5692  -19.1204 N   0  0  0  0  0  0  0  0  0  0  0  0
   18.9291   -6.7373  -18.4852 C   0  0  0  0  0  0  0  0  0  0  0  0
   19.0320   -6.3752  -17.2092 N   0  0  0  0  0  0  0  0  0  0  0  0
   22.6634   -5.3110  -14.0156 C   0  0  0  0  0  0  0  0  0  0  0  0
   22.9217   -5.9058  -12.9655 O   0  0  0  0  0  0  0  0  0  0  0  0
   22.8504   -3.9095  -13.9469 O   0  0  0  0  0  0  0  0  0  0  0  0
  2  1  1  1
  2  3  1  0
  3  4  1  0
  4  5  2  0
  4  8  1  0
  6  2  1  0
  6  7  2  0
  9 10  1  0
 11 13  1  0
 11 10  1  0
 11 12  1  1
 13 14  1  6
 14  6  1  0
 15 13  1  0
 16 15  2  0
 17 15  1  0
 18 25  1  0
 18 17  1  0
 19 20  1  0
 18 19  1  1
 20 21  2  0
 21 22  1  0
 23 22  1  0
 24 20  1  0
 24 23  2  0
 25 27  1  0
 26 25  2  0
M  END
$$$$
