DIH.pdb
     RDKit          3D

 27 27  0  0  1  0  0  0  0  0999 V2000
   22.2671  -13.9254  -17.5807 N   0  0  0  0  0  0  0  0  0  0  0  0
   21.1871  -13.1609  -16.8857 C   0  0  1  0  0  0  0  0  0  0  0  0
   20.4760  -14.1113  -16.0077 C   0  0  0  0  0  0  0  0  0  0  0  0
   19.7096  -15.1659  -16.6792 C   0  0  0  0  0  0  0  0  0  0  0  0
   19.6503  -15.3270  -17.9219 O   0  0  0  0  0  0  0  0  0  0  0  0
   21.9349  -12.0729  -16.2185 C   0  0  0  0  0  0  0  0  0  0  0  0
   21.3469  -11.4588  -15.2473 O   0  0  0  0  0  0  0  0  0  0  0  0
   18.9942  -16.0541  -15.8660 O   0  0  0  0  0  0  0  0  0  0  0  0
   27.2865  -11.9524  -15.6614 C   0  0  0  0  0  0  0  0  0  0  0  0
   25.8065  -11.8611  -15.3581 C   0  0  0  0  0  0  0  0  0  0  0  0
   25.2652  -10.5831  -15.8981 C   0  0  2  0  0  0  0  0  0  0  0  0
   26.0298   -9.3713  -15.4010 C   0  0  0  0  0  0  0  0  0  0  0  0
   23.7854  -10.3998  -15.8134 C   0  0  2  0  0  0  0  0  0  0  0  0
   23.2190  -11.5979  -16.4973 N   0  0  0  0  0  0  0  0  0  0  0  0
   23.2334   -9.1904  -16.4179 C   0  0  0  0  0  0  0  0  0  0  0  0
   23.6709   -8.8379  -17.5742 O   0  0  0  0  0  0  0  0  0  0  0  0
   22.2545   -8.3429  -15.8826 N   0  0  0  0  0  0  0  0  0  0  0  0
   21.8134   -7.1147  -16.5962 C   0  0  1  0  0  0  0  0  0  0  0  0
   20.5671   -7.3969  -17.3517 C   0  0  0  0  0  0  0  0  0  0  0  0
   19.9627   -6.2551  -18.0557 C   0  0  0  0  0  0  0  0  0  0  0  0
   20.4921   -5.2356  -18.7979 C   0  0  0  0  0  0  0  0  0  0  0  0
   19.5310   -4.4420  -19.3160 N   0  0  0  0  0  0  0  0  0  0  0  0
   18.3840   -4.9712  -18.8948 C   0  0  0  0  0  0  0  0  0  0  0  0
   18.6062   -6.0476  -18.1453 N   0  0  0  0  0  0  0  0  0  0  0  0
   21.6221   -6.0560  -15.5455 C   0  0  0  0  0  0  0  0  0  0  0  0
   21.2538   -4.8930  -15.7335 O   0  0  0  0  0  0  0  0  0  0  0  0
   21.8762   -6.3694  -14.1886 O   0  0  0  0  0  0  0  0  0  0  0  0
  2  1  1  1
  2  3  1  0
  3  4  1  0
  4  5  2  0
  4  8  1  0
  6  2  1  0
  6  7  2  0
  9 10  1  0
 11 13  1  0
 11 10  1  0
 11 12  1  1
 13 14  1  6
 14  6  1  0
 15 13  1  0
 16 15  2  0
 17 15  1  0
 18 25  1  0
 18 17  1  0
 19 20  1  0
 18 19  1  1
 20 21  2  0
 21 22  1  0
 23 22  1  0
 24 20  1  0
 24 23  2  0
 25 27  1  0
 26 25  2  0
M  END
$$$$
