DIH.pdb
     RDKit          3D

 27 27  0  0  1  0  0  0  0  0999 V2000
   20.0836  -15.5818  -15.5924 N   0  0  0  0  0  0  0  0  0  0  0  0
   19.8527  -14.3923  -16.4675 C   0  0  1  0  0  0  0  0  0  0  0  0
   18.3995  -14.3087  -16.7147 C   0  0  0  0  0  0  0  0  0  0  0  0
   17.8618  -15.2152  -17.7344 C   0  0  0  0  0  0  0  0  0  0  0  0
   18.4732  -15.5705  -18.7705 O   0  0  0  0  0  0  0  0  0  0  0  0
   20.4577  -13.2908  -15.6873 C   0  0  0  0  0  0  0  0  0  0  0  0
   20.1029  -13.1754  -14.4518 O   0  0  0  0  0  0  0  0  0  0  0  0
   16.5701  -15.7164  -17.5284 O   0  0  0  0  0  0  0  0  0  0  0  0
   25.5924  -10.5805  -14.6251 C   0  0  0  0  0  0  0  0  0  0  0  0
   24.1102  -10.2861  -14.5384 C   0  0  0  0  0  0  0  0  0  0  0  0
   23.3471  -11.3647  -15.2254 C   0  0  2  0  0  0  0  0  0  0  0  0
   23.8835  -11.6642  -16.6121 C   0  0  0  0  0  0  0  0  0  0  0  0
   21.8587  -11.2441  -15.2017 C   0  0  2  0  0  0  0  0  0  0  0  0
   21.3798  -12.3283  -16.1066 N   0  0  0  0  0  0  0  0  0  0  0  0
   21.2919   -9.9686  -15.6311 C   0  0  0  0  0  0  0  0  0  0  0  0
   21.5073   -9.5868  -16.8397 O   0  0  0  0  0  0  0  0  0  0  0  0
   20.5157   -9.0840  -14.8708 N   0  0  0  0  0  0  0  0  0  0  0  0
   20.0706   -7.7733  -15.4154 C   0  0  1  0  0  0  0  0  0  0  0  0
   18.8506   -7.3238  -14.6991 C   0  0  0  0  0  0  0  0  0  0  0  0
   18.3614   -5.9771  -15.0333 C   0  0  0  0  0  0  0  0  0  0  0  0
   18.6209   -5.1258  -16.0718 C   0  0  0  0  0  0  0  0  0  0  0  0
   17.8754   -4.0029  -15.9970 N   0  0  0  0  0  0  0  0  0  0  0  0
   17.1378   -4.1523  -14.8985 C   0  0  0  0  0  0  0  0  0  0  0  0
   17.4027   -5.3129  -14.3046 N   0  0  0  0  0  0  0  0  0  0  0  0
   21.2237   -6.8242  -15.2396 C   0  0  0  0  0  0  0  0  0  0  0  0
   21.6211   -5.9918  -16.0597 O   0  0  0  0  0  0  0  0  0  0  0  0
   21.9631   -6.8448  -14.0325 O   0  0  0  0  0  0  0  0  0  0  0  0
  2  1  1  1
  2  3  1  0
  3  4  1  0
  4  5  2  0
  4  8  1  0
  6  2  1  0
  6  7  2  0
  9 10  1  0
 11 13  1  0
 11 10  1  0
 11 12  1  6
 13 14  1  6
 14  6  1  0
 15 13  1  0
 16 15  2  0
 17 15  1  0
 18 25  1  0
 18 17  1  0
 19 20  1  0
 18 19  1  1
 20 21  2  0
 21 22  1  0
 23 22  1  0
 24 20  1  0
 24 23  2  0
 25 27  1  0
 26 25  2  0
M  END
$$$$
