DFY.pdb
     RDKit          3D

 32 33  0  0  1  0  0  0  0  0999 V2000
   29.1256  -21.9214  -16.4249 N   0  0  0  0  0  0  0  0  0  0  0  0
   27.8816  -21.1344  -16.7868 C   0  0  1  0  0  0  0  0  0  0  0  0
   27.3931  -21.7558  -18.0505 C   0  0  0  0  0  0  0  0  0  0  0  0
   28.0420  -21.3514  -19.2730 C   0  0  0  0  0  0  0  0  0  0  0  0
   27.5912  -21.5685  -20.4056 O   0  0  0  0  0  0  0  0  0  0  0  0
   27.0044  -21.3188  -15.6112 C   0  0  0  0  0  0  0  0  0  0  0  0
   26.4047  -22.4513  -15.4725 O   0  0  0  0  0  0  0  0  0  0  0  0
   29.2782  -20.6577  -19.2189 O   0  0  0  0  0  0  0  0  0  0  0  0
   26.7352  -20.3915  -14.5900 N   0  0  0  0  0  0  0  0  0  0  0  0
   25.8833  -20.7199  -13.4419 C   0  0  1  0  0  0  0  0  0  0  0  0
   26.4253  -19.9718  -12.2563 C   0  0  0  0  0  0  0  0  0  0  0  0
   27.7439  -20.4729  -11.8399 C   0  0  0  0  0  0  0  0  0  0  0  0
   27.8889  -21.3142  -10.7603 C   0  0  0  0  0  0  0  0  0  0  0  0
   29.1145  -21.8009  -10.3455 C   0  0  0  0  0  0  0  0  0  0  0  0
   30.2286  -21.4103  -11.0637 C   0  0  0  0  0  0  0  0  0  0  0  0
   30.0938  -20.5666  -12.1482 C   0  0  0  0  0  0  0  0  0  0  0  0
   28.8668  -20.0888  -12.5511 C   0  0  0  0  0  0  0  0  0  0  0  0
   24.4508  -20.4946  -13.7038 C   0  0  0  0  0  0  0  0  0  0  0  0
   24.0670  -19.4419  -14.2565 O   0  0  0  0  0  0  0  0  0  0  0  0
   15.7519  -21.2076  -14.4555 O   0  0  0  0  0  0  0  0  0  0  0  0
   17.1194  -21.4707  -14.3911 C   0  0  0  0  0  0  0  0  0  0  0  0
   17.6382  -22.3365  -13.4482 C   0  0  0  0  0  0  0  0  0  0  0  0
   19.0002  -22.5760  -13.4112 C   0  0  0  0  0  0  0  0  0  0  0  0
   19.8927  -21.9872  -14.2811 C   0  0  0  0  0  0  0  0  0  0  0  0
   21.3417  -22.2508  -14.2259 C   0  0  0  0  0  0  0  0  0  0  0  0
   22.0381  -21.2160  -13.4410 C   0  0  2  0  0  0  0  0  0  0  0  0
   23.4721  -21.4283  -13.3538 N   0  0  0  0  0  0  0  0  0  0  0  0
   21.4966  -21.0286  -12.1051 C   0  0  0  0  0  0  0  0  0  0  0  0
   20.7314  -20.0424  -11.8834 O   0  0  0  0  0  0  0  0  0  0  0  0
   19.3727  -21.1218  -15.2233 C   0  0  0  0  0  0  0  0  0  0  0  0
   18.0155  -20.8813  -15.2625 C   0  0  0  0  0  0  0  0  0  0  0  0
   21.7439  -21.8506  -11.0253 O   0  0  0  0  0  0  0  0  0  0  0  0
  2  1  1  1
  2  3  1  0
  3  4  1  0
  4  5  2  0
  4  8  1  0
  6  2  1  0
  7  6  2  0
  9  6  1  0
 10  9  1  0
 11 12  1  0
 10 11  1  1
 12 17  1  0
 13 12  2  0
 14 13  1  0
 14 15  2  0
 15 16  1  0
 17 16  2  0
 18 10  1  0
 18 19  2  0
 21 20  1  0
 21 31  2  0
 22 21  1  0
 23 22  2  0
 23 24  1  0
 24 30  2  0
 25 24  1  0
 26 25  1  1
 26 27  1  0
 27 18  1  0
 28 32  1  0
 28 26  1  0
 29 28  2  0
 30 31  1  0
M  END
$$$$
