DFY.pdb
     RDKit          3D

 32 33  0  0  1  0  0  0  0  0999 V2000
   23.9154  -10.0450  -19.5913 N   0  0  0  0  0  0  0  0  0  0  0  0
   24.2074   -8.6273  -19.1414 C   0  0  1  0  0  0  0  0  0  0  0  0
   23.7564   -7.7689  -20.2735 C   0  0  0  0  0  0  0  0  0  0  0  0
   24.6604   -7.6261  -21.3878 C   0  0  0  0  0  0  0  0  0  0  0  0
   25.7453   -8.2150  -21.4845 O   0  0  0  0  0  0  0  0  0  0  0  0
   23.4230   -8.4939  -17.8954 C   0  0  0  0  0  0  0  0  0  0  0  0
   22.3839   -9.2423  -17.7487 O   0  0  0  0  0  0  0  0  0  0  0  0
   24.3229   -6.7651  -22.4635 O   0  0  0  0  0  0  0  0  0  0  0  0
   23.6747   -7.6330  -16.8134 N   0  0  0  0  0  0  0  0  0  0  0  0
   22.7803   -7.5552  -15.6532 C   0  0  1  0  0  0  0  0  0  0  0  0
   23.6167   -7.8002  -14.4286 C   0  0  0  0  0  0  0  0  0  0  0  0
   24.2228   -9.1403  -14.4300 C   0  0  0  0  0  0  0  0  0  0  0  0
   23.5404  -10.2421  -13.9666 C   0  0  0  0  0  0  0  0  0  0  0  0
   24.0837  -11.5131  -13.9553 C   0  0  0  0  0  0  0  0  0  0  0  0
   25.3712  -11.6575  -14.4361 C   0  0  0  0  0  0  0  0  0  0  0  0
   26.0642  -10.5585  -14.9031 C   0  0  0  0  0  0  0  0  0  0  0  0
   25.5113   -9.2973  -14.9089 C   0  0  0  0  0  0  0  0  0  0  0  0
   21.9917   -6.3111  -15.6156 C   0  0  0  0  0  0  0  0  0  0  0  0
   22.5336   -5.2114  -15.8564 O   0  0  0  0  0  0  0  0  0  0  0  0
   16.5445    0.2110  -16.6485 O   0  0  0  0  0  0  0  0  0  0  0  0
   17.3517   -0.9256  -16.6579 C   0  0  0  0  0  0  0  0  0  0  0  0
   16.9177   -2.1074  -17.2260 C   0  0  0  0  0  0  0  0  0  0  0  0
   17.7435   -3.2172  -17.2187 C   0  0  0  0  0  0  0  0  0  0  0  0
   19.0054   -3.2137  -16.6642 C   0  0  0  0  0  0  0  0  0  0  0  0
   19.8715   -4.4062  -16.6620 C   0  0  0  0  0  0  0  0  0  0  0  0
   19.7586   -5.1394  -15.3886 C   0  0  2  0  0  0  0  0  0  0  0  0
   20.6273   -6.3010  -15.3150 N   0  0  0  0  0  0  0  0  0  0  0  0
   18.3993   -5.5325  -15.0558 C   0  0  0  0  0  0  0  0  0  0  0  0
   17.9066   -6.5666  -15.5991 O   0  0  0  0  0  0  0  0  0  0  0  0
   19.4383   -2.0315  -16.0966 C   0  0  0  0  0  0  0  0  0  0  0  0
   18.6172   -0.9237  -16.1026 C   0  0  0  0  0  0  0  0  0  0  0  0
   17.5726   -4.8658  -14.1756 O   0  0  0  0  0  0  0  0  0  0  0  0
  2  1  1  6
  2  3  1  0
  3  4  1  0
  4  5  2  0
  4  8  1  0
  6  2  1  0
  7  6  2  0
  9  6  1  0
 10  9  1  0
 11 12  1  0
 10 11  1  1
 12 17  1  0
 13 12  2  0
 14 13  1  0
 14 15  2  0
 15 16  1  0
 17 16  2  0
 18 10  1  0
 18 19  2  0
 21 20  1  0
 21 31  2  0
 22 21  1  0
 23 22  2  0
 23 24  1  0
 24 30  2  0
 25 24  1  0
 26 25  1  6
 26 27  1  0
 27 18  1  0
 28 32  1  0
 28 26  1  0
 29 28  2  0
 30 31  1  0
M  END
$$$$
