DFY.pdb
     RDKit          3D

 32 33  0  0  1  0  0  0  0  0999 V2000
   34.8324  -38.9367   -4.5144 N   0  0  0  0  0  0  0  0  0  0  0  0
   33.7684  -37.8942   -4.2337 C   0  0  1  0  0  0  0  0  0  0  0  0
   32.5843  -38.6740   -3.7739 C   0  0  0  0  0  0  0  0  0  0  0  0
   31.7934  -39.3239   -4.7894 C   0  0  0  0  0  0  0  0  0  0  0  0
   32.0524  -39.2932   -5.9999 O   0  0  0  0  0  0  0  0  0  0  0  0
   34.3943  -37.0319   -3.2088 C   0  0  0  0  0  0  0  0  0  0  0  0
   34.9206  -37.5983   -2.1775 O   0  0  0  0  0  0  0  0  0  0  0  0
   30.6357  -40.0559   -4.4204 O   0  0  0  0  0  0  0  0  0  0  0  0
   34.4976  -35.6303   -3.2162 N   0  0  0  0  0  0  0  0  0  0  0  0
   35.0304  -34.8807   -2.0734 C   0  0  1  0  0  0  0  0  0  0  0  0
   35.1116  -33.4376   -2.4858 C   0  0  0  0  0  0  0  0  0  0  0  0
   35.7130  -32.5952   -1.4409 C   0  0  0  0  0  0  0  0  0  0  0  0
   37.0733  -32.3998   -1.3646 C   0  0  0  0  0  0  0  0  0  0  0  0
   37.6670  -31.6143   -0.3943 C   0  0  0  0  0  0  0  0  0  0  0  0
   36.8355  -31.0091    0.5288 C   0  0  0  0  0  0  0  0  0  0  0  0
   35.4697  -31.1988    0.4609 C   0  0  0  0  0  0  0  0  0  0  0  0
   34.8908  -31.9840   -0.5110 C   0  0  0  0  0  0  0  0  0  0  0  0
   34.2805  -35.1188   -0.8275 C   0  0  0  0  0  0  0  0  0  0  0  0
   33.0785  -35.4571   -0.8679 O   0  0  0  0  0  0  0  0  0  0  0  0
   31.7561  -37.5053    7.1300 O   0  0  0  0  0  0  0  0  0  0  0  0
   32.3595  -37.3016    5.8899 C   0  0  0  0  0  0  0  0  0  0  0  0
   33.6547  -36.8320    5.7924 C   0  0  0  0  0  0  0  0  0  0  0  0
   34.2243  -36.6407    4.5462 C   0  0  0  0  0  0  0  0  0  0  0  0
   33.5592  -36.8972    3.3665 C   0  0  0  0  0  0  0  0  0  0  0  0
   34.1796  -36.6847    2.0467 C   0  0  0  0  0  0  0  0  0  0  0  0
   34.2079  -35.2527    1.6998 C   0  0  2  0  0  0  0  0  0  0  0  0
   34.8654  -34.9805    0.4338 N   0  0  0  0  0  0  0  0  0  0  0  0
   34.7854  -34.4095    2.7336 C   0  0  0  0  0  0  0  0  0  0  0  0
   34.0180  -33.6908    3.4421 O   0  0  0  0  0  0  0  0  0  0  0  0
   32.2641  -37.3667    3.4653 C   0  0  0  0  0  0  0  0  0  0  0  0
   31.6941  -37.5583    4.7062 C   0  0  0  0  0  0  0  0  0  0  0  0
   36.1305  -34.3185    3.0249 O   0  0  0  0  0  0  0  0  0  0  0  0
  2  1  1  1
  2  3  1  0
  3  4  1  0
  4  5  2  0
  4  8  1  0
  6  2  1  0
  7  6  2  0
  9  6  1  0
 10  9  1  0
 11 12  1  0
 10 11  1  6
 12 17  1  0
 13 12  2  0
 14 13  1  0
 14 15  2  0
 15 16  1  0
 17 16  2  0
 18 10  1  0
 18 19  2  0
 21 20  1  0
 21 31  2  0
 22 21  1  0
 23 22  2  0
 23 24  1  0
 24 30  2  0
 25 24  1  0
 26 25  1  1
 26 27  1  0
 27 18  1  0
 28 32  1  0
 28 26  1  0
 29 28  2  0
 30 31  1  0
M  END
$$$$
