DFY.pdb
     RDKit          3D

 32 33  0  0  1  0  0  0  0  0999 V2000
   31.8368  -14.0169  -20.8415 N   0  0  0  0  0  0  0  0  0  0  0  0
   30.9105  -13.4500  -19.7839 C   0  0  1  0  0  0  0  0  0  0  0  0
   31.0355  -14.3841  -18.6291 C   0  0  0  0  0  0  0  0  0  0  0  0
   30.3112  -15.6282  -18.7115 C   0  0  0  0  0  0  0  0  0  0  0  0
   29.5793  -15.9467  -19.6581 O   0  0  0  0  0  0  0  0  0  0  0  0
   31.4410  -12.0890  -19.5564 C   0  0  0  0  0  0  0  0  0  0  0  0
   32.7109  -11.9040  -19.6771 O   0  0  0  0  0  0  0  0  0  0  0  0
   30.4163  -16.5761  -17.6613 O   0  0  0  0  0  0  0  0  0  0  0  0
   30.7163  -10.9328  -19.2202 N   0  0  0  0  0  0  0  0  0  0  0  0
   31.3729   -9.6456  -18.9674 C   0  0  1  0  0  0  0  0  0  0  0  0
   30.3289   -8.5751  -19.1198 C   0  0  0  0  0  0  0  0  0  0  0  0
   30.8850   -7.2270  -18.9286 C   0  0  0  0  0  0  0  0  0  0  0  0
   30.8599   -6.6026  -17.7023 C   0  0  0  0  0  0  0  0  0  0  0  0
   31.3742   -5.3368  -17.4923 C   0  0  0  0  0  0  0  0  0  0  0  0
   31.9331   -4.6905  -18.5785 C   0  0  0  0  0  0  0  0  0  0  0  0
   31.9632   -5.3082  -19.8128 C   0  0  0  0  0  0  0  0  0  0  0  0
   31.4472   -6.5698  -20.0086 C   0  0  0  0  0  0  0  0  0  0  0  0
   32.1007   -9.6114  -17.6865 C   0  0  0  0  0  0  0  0  0  0  0  0
   31.6327  -10.1812  -16.6780 O   0  0  0  0  0  0  0  0  0  0  0  0
   38.8291  -10.4628  -12.2477 O   0  0  0  0  0  0  0  0  0  0  0  0
   37.7782  -10.4413  -13.1634 C   0  0  0  0  0  0  0  0  0  0  0  0
   36.6290   -9.7156  -12.9175 C   0  0  0  0  0  0  0  0  0  0  0  0
   35.6044   -9.7154  -13.8470 C   0  0  0  0  0  0  0  0  0  0  0  0
   35.6636  -10.4139  -15.0338 C   0  0  0  0  0  0  0  0  0  0  0  0
   34.5615  -10.4056  -16.0121 C   0  0  0  0  0  0  0  0  0  0  0  0
   34.1851   -9.0273  -16.3732 C   0  0  2  0  0  0  0  0  0  0  0  0
   33.3245   -8.9533  -17.5408 N   0  0  0  0  0  0  0  0  0  0  0  0
   35.3198   -8.1369  -16.5539 C   0  0  0  0  0  0  0  0  0  0  0  0
   35.9763   -8.1878  -17.6373 O   0  0  0  0  0  0  0  0  0  0  0  0
   36.8132  -11.1391  -15.2786 C   0  0  0  0  0  0  0  0  0  0  0  0
   37.8360  -11.1410  -14.3538 C   0  0  0  0  0  0  0  0  0  0  0  0
   35.7595   -7.2128  -15.6291 O   0  0  0  0  0  0  0  0  0  0  0  0
  2  1  1  6
  2  3  1  0
  3  4  1  0
  4  5  2  0
  4  8  1  0
  6  2  1  0
  7  6  2  0
  9  6  1  0
 10  9  1  0
 11 12  1  0
 10 11  1  1
 12 17  1  0
 13 12  2  0
 14 13  1  0
 14 15  2  0
 15 16  1  0
 17 16  2  0
 18 10  1  0
 18 19  2  0
 21 20  1  0
 21 31  2  0
 22 21  1  0
 23 22  2  0
 23 24  1  0
 24 30  2  0
 25 24  1  0
 26 25  1  6
 26 27  1  0
 27 18  1  0
 28 32  1  0
 28 26  1  0
 29 28  2  0
 30 31  1  0
M  END
$$$$
