DFY.pdb
     RDKit          3D

 32 33  0  0  1  0  0  0  0  0999 V2000
   25.1943  -20.1632   -8.5846 N   0  0  0  0  0  0  0  0  0  0  0  0
   24.5134  -21.1012   -9.5615 C   0  0  1  0  0  0  0  0  0  0  0  0
   23.0578  -20.8204   -9.4062 C   0  0  0  0  0  0  0  0  0  0  0  0
   22.4372  -21.2413   -8.1746 C   0  0  0  0  0  0  0  0  0  0  0  0
   23.0557  -21.6939   -7.2020 O   0  0  0  0  0  0  0  0  0  0  0  0
   25.0952  -20.7200  -10.8660 C   0  0  0  0  0  0  0  0  0  0  0  0
   25.2256  -19.4651  -11.1295 O   0  0  0  0  0  0  0  0  0  0  0  0
   21.0295  -21.1474   -8.0264 O   0  0  0  0  0  0  0  0  0  0  0  0
   25.5436  -21.5761  -11.8863 N   0  0  0  0  0  0  0  0  0  0  0  0
   25.9326  -21.0768  -13.2097 C   0  0  1  0  0  0  0  0  0  0  0  0
   27.1995  -21.7860  -13.5989 C   0  0  0  0  0  0  0  0  0  0  0  0
   28.3248  -21.4333  -12.7201 C   0  0  0  0  0  0  0  0  0  0  0  0
   28.6029  -22.1514  -11.5793 C   0  0  0  0  0  0  0  0  0  0  0  0
   29.6529  -21.8438  -10.7344 C   0  0  0  0  0  0  0  0  0  0  0  0
   30.4439  -20.7623  -11.0726 C   0  0  0  0  0  0  0  0  0  0  0  0
   30.1733  -20.0356  -12.2148 C   0  0  0  0  0  0  0  0  0  0  0  0
   29.1240  -20.3525  -13.0482 C   0  0  0  0  0  0  0  0  0  0  0  0
   24.8489  -21.1724  -14.2034 C   0  0  0  0  0  0  0  0  0  0  0  0
   24.3156  -22.2743  -14.4533 O   0  0  0  0  0  0  0  0  0  0  0  0
   17.1756  -17.3398  -13.6250 O   0  0  0  0  0  0  0  0  0  0  0  0
   18.4846  -17.8180  -13.5906 C   0  0  0  0  0  0  0  0  0  0  0  0
   19.5304  -17.0130  -13.1829 C   0  0  0  0  0  0  0  0  0  0  0  0
   20.8180  -17.5184  -13.1602 C   0  0  0  0  0  0  0  0  0  0  0  0
   21.1272  -18.8098  -13.5297 C   0  0  0  0  0  0  0  0  0  0  0  0
   22.5052  -19.3316  -13.5028 C   0  0  0  0  0  0  0  0  0  0  0  0
   23.0092  -19.5647  -14.8679 C   0  0  2  0  0  0  0  0  0  0  0  0
   24.3747  -20.0581  -14.9003 N   0  0  0  0  0  0  0  0  0  0  0  0
   22.8937  -18.4089  -15.7419 C   0  0  0  0  0  0  0  0  0  0  0  0
   23.7876  -17.5109  -15.6969 O   0  0  0  0  0  0  0  0  0  0  0  0
   20.0806  -19.6137  -13.9371 C   0  0  0  0  0  0  0  0  0  0  0  0
   18.7962  -19.1125  -13.9606 C   0  0  0  0  0  0  0  0  0  0  0  0
   21.8726  -18.1940  -16.6439 O   0  0  0  0  0  0  0  0  0  0  0  0
  2  1  1  1
  2  3  1  0
  3  4  1  0
  4  5  2  0
  4  8  1  0
  6  2  1  0
  7  6  2  0
  9  6  1  0
 10  9  1  0
 11 12  1  0
 10 11  1  6
 12 17  1  0
 13 12  2  0
 14 13  1  0
 14 15  2  0
 15 16  1  0
 17 16  2  0
 18 10  1  0
 18 19  2  0
 21 20  1  0
 21 31  2  0
 22 21  1  0
 23 22  2  0
 23 24  1  0
 24 30  2  0
 25 24  1  0
 26 25  1  1
 26 27  1  0
 27 18  1  0
 28 32  1  0
 28 26  1  0
 29 28  2  0
 30 31  1  0
M  END
$$$$
