DFY.pdb
     RDKit          3D

 32 33  0  0  1  0  0  0  0  0999 V2000
   25.4247  -24.8133  -14.8307 N   0  0  0  0  0  0  0  0  0  0  0  0
   24.9647  -23.6842  -15.7314 C   0  0  1  0  0  0  0  0  0  0  0  0
   24.4311  -24.3613  -16.9473 C   0  0  0  0  0  0  0  0  0  0  0  0
   25.3958  -24.9016  -17.8729 C   0  0  0  0  0  0  0  0  0  0  0  0
   25.2465  -25.9620  -18.4947 O   0  0  0  0  0  0  0  0  0  0  0  0
   23.9600  -22.9767  -14.9094 C   0  0  0  0  0  0  0  0  0  0  0  0
   23.1348  -23.6842  -14.2167 O   0  0  0  0  0  0  0  0  0  0  0  0
   26.6074  -24.2047  -18.1153 O   0  0  0  0  0  0  0  0  0  0  0  0
   23.7861  -21.5884  -14.7773 N   0  0  0  0  0  0  0  0  0  0  0  0
   22.7467  -21.0100  -13.9187 C   0  0  1  0  0  0  0  0  0  0  0  0
   23.3811  -19.8885  -13.1448 C   0  0  0  0  0  0  0  0  0  0  0  0
   24.1468  -20.3767  -11.9879 C   0  0  0  0  0  0  0  0  0  0  0  0
   25.4488  -20.8051  -12.1123 C   0  0  0  0  0  0  0  0  0  0  0  0
   26.1931  -21.2692  -11.0438 C   0  0  0  0  0  0  0  0  0  0  0  0
   25.5794  -21.2940   -9.8059 C   0  0  0  0  0  0  0  0  0  0  0  0
   24.2737  -20.8664   -9.6706 C   0  0  0  0  0  0  0  0  0  0  0  0
   23.5431  -20.4063  -10.7433 C   0  0  0  0  0  0  0  0  0  0  0  0
   21.5318  -20.6297  -14.6607 C   0  0  0  0  0  0  0  0  0  0  0  0
   21.6071  -19.8721  -15.6514 O   0  0  0  0  0  0  0  0  0  0  0  0
   16.1281  -24.5254  -10.7345 O   0  0  0  0  0  0  0  0  0  0  0  0
   16.6751  -23.9383  -11.8745 C   0  0  0  0  0  0  0  0  0  0  0  0
   17.9408  -24.2727  -12.3148 C   0  0  0  0  0  0  0  0  0  0  0  0
   18.4545  -23.6715  -13.4500 C   0  0  0  0  0  0  0  0  0  0  0  0
   17.7608  -22.7351  -14.1862 C   0  0  0  0  0  0  0  0  0  0  0  0
   18.3241  -22.1016  -15.3917 C   0  0  0  0  0  0  0  0  0  0  0  0
   19.0407  -20.8598  -15.0510 C   0  0  2  0  0  0  0  0  0  0  0  0
   20.2624  -21.0885  -14.2997 N   0  0  0  0  0  0  0  0  0  0  0  0
   18.2220  -19.8819  -14.3533 C   0  0  0  0  0  0  0  0  0  0  0  0
   18.5122  -19.5765  -13.1575 O   0  0  0  0  0  0  0  0  0  0  0  0
   16.4954  -22.4017  -13.7448 C   0  0  0  0  0  0  0  0  0  0  0  0
   15.9810  -22.9994  -12.6137 C   0  0  0  0  0  0  0  0  0  0  0  0
   17.1281  -19.2348  -14.8891 O   0  0  0  0  0  0  0  0  0  0  0  0
  2  1  1  1
  2  3  1  0
  3  4  1  0
  4  5  2  0
  4  8  1  0
  6  2  1  0
  7  6  2  0
  9  6  1  0
 10  9  1  0
 11 12  1  0
 10 11  1  6
 12 17  1  0
 13 12  2  0
 14 13  1  0
 14 15  2  0
 15 16  1  0
 17 16  2  0
 18 10  1  0
 18 19  2  0
 21 20  1  0
 21 31  2  0
 22 21  1  0
 23 22  2  0
 23 24  1  0
 24 30  2  0
 25 24  1  0
 26 25  1  1
 26 27  1  0
 27 18  1  0
 28 32  1  0
 28 26  1  0
 29 28  2  0
 30 31  1  0
M  END
$$$$
