DFY.pdb
     RDKit          3D

 32 33  0  0  1  0  0  0  0  0999 V2000
   25.4672  -35.9006  -11.5659 N   0  0  0  0  0  0  0  0  0  0  0  0
   25.9106  -36.8998  -10.5157 C   0  0  1  0  0  0  0  0  0  0  0  0
   27.0430  -37.6362  -11.1459 C   0  0  0  0  0  0  0  0  0  0  0  0
   27.4831  -38.8441  -10.4930 C   0  0  0  0  0  0  0  0  0  0  0  0
   26.9922  -39.2890   -9.4469 O   0  0  0  0  0  0  0  0  0  0  0  0
   26.2736  -36.0483   -9.3630 C   0  0  0  0  0  0  0  0  0  0  0  0
   26.5306  -34.8047   -9.5836 O   0  0  0  0  0  0  0  0  0  0  0  0
   28.5442  -39.6014  -11.0524 O   0  0  0  0  0  0  0  0  0  0  0  0
   26.3727  -36.4303   -8.0142 N   0  0  0  0  0  0  0  0  0  0  0  0
   26.7265  -35.4770   -6.9568 C   0  0  1  0  0  0  0  0  0  0  0  0
   25.4769  -35.2023   -6.1680 C   0  0  0  0  0  0  0  0  0  0  0  0
   25.7130  -34.2568   -5.0665 C   0  0  0  0  0  0  0  0  0  0  0  0
   25.8526  -32.9062   -5.2914 C   0  0  0  0  0  0  0  0  0  0  0  0
   26.0753  -31.9939   -4.2769 C   0  0  0  0  0  0  0  0  0  0  0  0
   26.1575  -32.4855   -2.9879 C   0  0  0  0  0  0  0  0  0  0  0  0
   26.0189  -33.8387   -2.7518 C   0  0  0  0  0  0  0  0  0  0  0  0
   25.7972  -34.7371   -3.7716 C   0  0  0  0  0  0  0  0  0  0  0  0
   27.8765  -35.9155   -6.1465 C   0  0  0  0  0  0  0  0  0  0  0  0
   27.8953  -37.0581   -5.6415 O   0  0  0  0  0  0  0  0  0  0  0  0
   35.8907  -36.4726   -2.5798 O   0  0  0  0  0  0  0  0  0  0  0  0
   34.7547  -35.9914   -3.2290 C   0  0  0  0  0  0  0  0  0  0  0  0
   33.7162  -35.4165   -2.5229 C   0  0  0  0  0  0  0  0  0  0  0  0
   32.6026  -34.9487   -3.1974 C   0  0  0  0  0  0  0  0  0  0  0  0
   32.4645  -35.0242   -4.5668 C   0  0  0  0  0  0  0  0  0  0  0  0
   31.2698  -34.5238   -5.2698 C   0  0  0  0  0  0  0  0  0  0  0  0
   30.1294  -35.4405   -5.0932 C   0  0  2  0  0  0  0  0  0  0  0  0
   28.9793  -35.0913   -5.9083 N   0  0  0  0  0  0  0  0  0  0  0  0
   29.7102  -35.5965   -3.7101 C   0  0  0  0  0  0  0  0  0  0  0  0
   29.1316  -34.6296   -3.1291 O   0  0  0  0  0  0  0  0  0  0  0  0
   33.5036  -35.5992   -5.2717 C   0  0  0  0  0  0  0  0  0  0  0  0
   34.6147  -36.0662   -4.6018 C   0  0  0  0  0  0  0  0  0  0  0  0
   29.8868  -36.7340   -2.9501 O   0  0  0  0  0  0  0  0  0  0  0  0
  2  1  1  6
  2  3  1  0
  3  4  1  0
  4  5  2  0
  4  8  1  0
  6  2  1  0
  7  6  2  0
  9  6  1  0
 10  9  1  0
 11 12  1  0
 10 11  1  1
 12 17  1  0
 13 12  2  0
 14 13  1  0
 14 15  2  0
 15 16  1  0
 17 16  2  0
 18 10  1  0
 18 19  2  0
 21 20  1  0
 21 31  2  0
 22 21  1  0
 23 22  2  0
 23 24  1  0
 24 30  2  0
 25 24  1  0
 26 25  1  1
 26 27  1  0
 27 18  1  0
 28 32  1  0
 28 26  1  0
 29 28  2  0
 30 31  1  0
M  END
$$$$
