DFY.pdb
     RDKit          3D

 32 33  0  0  1  0  0  0  0  0999 V2000
   26.7451  -21.8569  -13.2426 N   0  0  0  0  0  0  0  0  0  0  0  0
   26.2460  -20.5498  -12.6593 C   0  0  1  0  0  0  0  0  0  0  0  0
   24.8695  -20.3898  -13.2084 C   0  0  0  0  0  0  0  0  0  0  0  0
   24.7571  -19.9409  -14.5740 C   0  0  0  0  0  0  0  0  0  0  0  0
   23.7598  -20.1191  -15.2860 O   0  0  0  0  0  0  0  0  0  0  0  0
   26.3224  -20.7736  -11.2000 C   0  0  0  0  0  0  0  0  0  0  0  0
   25.9194  -21.9071  -10.7373 O   0  0  0  0  0  0  0  0  0  0  0  0
   25.8360  -19.2464  -15.1790 O   0  0  0  0  0  0  0  0  0  0  0  0
   26.7977  -19.8840  -10.2213 N   0  0  0  0  0  0  0  0  0  0  0  0
   26.7946  -20.2199   -8.7933 C   0  0  1  0  0  0  0  0  0  0  0  0
   27.7542  -19.2840   -8.1132 C   0  0  0  0  0  0  0  0  0  0  0  0
   27.7810  -19.4800   -6.6558 C   0  0  0  0  0  0  0  0  0  0  0  0
   28.2262  -20.6545   -6.0930 C   0  0  0  0  0  0  0  0  0  0  0  0
   28.2629  -20.8676   -4.7277 C   0  0  0  0  0  0  0  0  0  0  0  0
   27.8275  -19.8398   -3.9129 C   0  0  0  0  0  0  0  0  0  0  0  0
   27.3790  -18.6578   -4.4676 C   0  0  0  0  0  0  0  0  0  0  0  0
   27.3476  -18.4582   -5.8297 C   0  0  0  0  0  0  0  0  0  0  0  0
   25.4422  -20.2395   -8.2086 C   0  0  0  0  0  0  0  0  0  0  0  0
   24.6863  -19.2523   -8.3305 O   0  0  0  0  0  0  0  0  0  0  0  0
   17.4658  -22.5360   -5.6661 O   0  0  0  0  0  0  0  0  0  0  0  0
   18.7787  -22.5427   -6.1348 C   0  0  0  0  0  0  0  0  0  0  0  0
   19.7272  -23.3893   -5.5950 C   0  0  0  0  0  0  0  0  0  0  0  0
   21.0216  -23.3712   -6.0829 C   0  0  0  0  0  0  0  0  0  0  0  0
   21.4313  -22.5374   -7.1012 C   0  0  0  0  0  0  0  0  0  0  0  0
   22.8155  -22.5283   -7.6072 C   0  0  0  0  0  0  0  0  0  0  0  0
   23.6060  -21.4624   -6.9662 C   0  0  2  0  0  0  0  0  0  0  0  0
   24.9497  -21.3407   -7.5037 N   0  0  0  0  0  0  0  0  0  0  0  0
   23.6743  -21.5719   -5.5183 C   0  0  0  0  0  0  0  0  0  0  0  0
   24.6497  -22.1880   -4.9925 O   0  0  0  0  0  0  0  0  0  0  0  0
   20.4820  -21.6914   -7.6400 C   0  0  0  0  0  0  0  0  0  0  0  0
   19.1911  -21.7076   -7.1556 C   0  0  0  0  0  0  0  0  0  0  0  0
   22.7499  -21.0497   -4.6378 O   0  0  0  0  0  0  0  0  0  0  0  0
  2  1  1  6
  2  3  1  0
  3  4  1  0
  4  5  2  0
  4  8  1  0
  6  2  1  0
  7  6  2  0
  9  6  1  0
 10  9  1  0
 11 12  1  0
 10 11  1  1
 12 17  1  0
 13 12  2  0
 14 13  1  0
 14 15  2  0
 15 16  1  0
 17 16  2  0
 18 10  1  0
 18 19  2  0
 21 20  1  0
 21 31  2  0
 22 21  1  0
 23 22  2  0
 23 24  1  0
 24 30  2  0
 25 24  1  0
 26 25  1  6
 26 27  1  0
 27 18  1  0
 28 32  1  0
 28 26  1  0
 29 28  2  0
 30 31  1  0
M  END
$$$$
