DFY.pdb
     RDKit          3D

 32 33  0  0  1  0  0  0  0  0999 V2000
   28.1759  -21.8903  -18.3787 N   0  0  0  0  0  0  0  0  0  0  0  0
   27.9721  -20.5792  -17.6458 C   0  0  1  0  0  0  0  0  0  0  0  0
   27.0250  -19.8090  -18.5010 C   0  0  0  0  0  0  0  0  0  0  0  0
   27.5660  -19.1931  -19.6872 C   0  0  0  0  0  0  0  0  0  0  0  0
   28.4819  -18.3597  -19.6835 O   0  0  0  0  0  0  0  0  0  0  0  0
   27.4394  -20.9992  -16.3322 C   0  0  0  0  0  0  0  0  0  0  0  0
   27.0307  -22.2148  -16.2030 O   0  0  0  0  0  0  0  0  0  0  0  0
   27.0436  -19.5361  -20.9607 O   0  0  0  0  0  0  0  0  0  0  0  0
   27.3221  -20.2214  -15.1676 N   0  0  0  0  0  0  0  0  0  0  0  0
   26.6588  -20.7213  -13.9584 C   0  0  1  0  0  0  0  0  0  0  0  0
   27.2571  -19.9922  -12.7881 C   0  0  0  0  0  0  0  0  0  0  0  0
   26.6386  -20.3872  -11.5136 C   0  0  0  0  0  0  0  0  0  0  0  0
   27.0041  -21.5425  -10.8608 C   0  0  0  0  0  0  0  0  0  0  0  0
   26.4407  -21.9396   -9.6626 C   0  0  0  0  0  0  0  0  0  0  0  0
   25.4691  -21.1226   -9.1163 C   0  0  0  0  0  0  0  0  0  0  0  0
   25.0954  -19.9617   -9.7633 C   0  0  0  0  0  0  0  0  0  0  0  0
   25.6647  -19.5774  -10.9568 C   0  0  0  0  0  0  0  0  0  0  0  0
   25.1890  -20.6502  -14.0359 C   0  0  0  0  0  0  0  0  0  0  0  0
   24.6180  -19.5553  -14.2252 O   0  0  0  0  0  0  0  0  0  0  0  0
   17.1291  -21.2109  -11.0717 O   0  0  0  0  0  0  0  0  0  0  0  0
   18.4863  -21.1552  -11.3851 C   0  0  0  0  0  0  0  0  0  0  0  0
   19.3912  -22.0228  -10.8052 C   0  0  0  0  0  0  0  0  0  0  0  0
   20.7315  -21.9412  -11.1380 C   0  0  0  0  0  0  0  0  0  0  0  0
   21.2302  -21.0223  -12.0364 C   0  0  0  0  0  0  0  0  0  0  0  0
   22.6619  -20.9466  -12.3774 C   0  0  0  0  0  0  0  0  0  0  0  0
   22.9679  -21.7692  -13.5613 C   0  0  2  0  0  0  0  0  0  0  0  0
   24.3791  -21.7811  -13.9041 N   0  0  0  0  0  0  0  0  0  0  0  0
   22.1893  -21.4182  -14.7375 C   0  0  0  0  0  0  0  0  0  0  0  0
   22.2637  -20.2385  -15.1959 O   0  0  0  0  0  0  0  0  0  0  0  0
   20.3244  -20.1555  -12.6155 C   0  0  0  0  0  0  0  0  0  0  0  0
   18.9879  -20.2348  -12.2857 C   0  0  0  0  0  0  0  0  0  0  0  0
   21.3543  -22.2762  -15.4225 O   0  0  0  0  0  0  0  0  0  0  0  0
  2  1  1  6
  2  3  1  0
  3  4  1  0
  4  5  2  0
  4  8  1  0
  6  2  1  0
  7  6  2  0
  9  6  1  0
 10  9  1  0
 11 12  1  0
 10 11  1  1
 12 17  1  0
 13 12  2  0
 14 13  1  0
 14 15  2  0
 15 16  1  0
 17 16  2  0
 18 10  1  0
 18 19  2  0
 21 20  1  0
 21 31  2  0
 22 21  1  0
 23 22  2  0
 23 24  1  0
 24 30  2  0
 25 24  1  0
 26 25  1  1
 26 27  1  0
 27 18  1  0
 28 32  1  0
 28 26  1  0
 29 28  2  0
 30 31  1  0
M  END
$$$$
