DFY.pdb
     RDKit          3D

 32 33  0  0  1  0  0  0  0  0999 V2000
   27.6146  -22.0065  -18.1387 N   0  0  0  0  0  0  0  0  0  0  0  0
   27.5329  -20.6420  -17.4836 C   0  0  1  0  0  0  0  0  0  0  0  0
   26.3625  -19.9808  -18.1277 C   0  0  0  0  0  0  0  0  0  0  0  0
   26.6163  -19.2255  -19.3294 C   0  0  0  0  0  0  0  0  0  0  0  0
   27.7428  -19.0321  -19.8057 O   0  0  0  0  0  0  0  0  0  0  0  0
   27.3694  -20.9590  -16.0489 C   0  0  0  0  0  0  0  0  0  0  0  0
   26.6794  -22.0004  -15.7317 O   0  0  0  0  0  0  0  0  0  0  0  0
   25.5333  -18.6498  -20.0422 O   0  0  0  0  0  0  0  0  0  0  0  0
   27.8901  -20.2523  -14.9513 N   0  0  0  0  0  0  0  0  0  0  0  0
   27.5276  -20.5806  -13.5683 C   0  0  1  0  0  0  0  0  0  0  0  0
   28.6041  -20.0214  -12.6807 C   0  0  0  0  0  0  0  0  0  0  0  0
   28.3143  -20.2361  -11.2549 C   0  0  0  0  0  0  0  0  0  0  0  0
   27.4467  -19.4214  -10.5635 C   0  0  0  0  0  0  0  0  0  0  0  0
   27.1550  -19.5984   -9.2239 C   0  0  0  0  0  0  0  0  0  0  0  0
   27.7754  -20.6474   -8.5724 C   0  0  0  0  0  0  0  0  0  0  0  0
   28.6474  -21.4703   -9.2569 C   0  0  0  0  0  0  0  0  0  0  0  0
   28.9294  -21.2831  -10.5917 C   0  0  0  0  0  0  0  0  0  0  0  0
   26.1618  -20.1561  -13.2140 C   0  0  0  0  0  0  0  0  0  0  0  0
   25.7425  -19.0286  -13.5515 O   0  0  0  0  0  0  0  0  0  0  0  0
   17.7702  -19.4879  -11.0319 O   0  0  0  0  0  0  0  0  0  0  0  0
   19.0213  -19.9276  -11.4620 C   0  0  0  0  0  0  0  0  0  0  0  0
   19.6629  -20.9807  -10.8399 C   0  0  0  0  0  0  0  0  0  0  0  0
   20.9040  -21.3925  -11.2913 C   0  0  0  0  0  0  0  0  0  0  0  0
   21.5549  -20.7993  -12.3518 C   0  0  0  0  0  0  0  0  0  0  0  0
   22.8788  -21.2482  -12.8182 C   0  0  0  0  0  0  0  0  0  0  0  0
   23.9576  -20.6012  -12.0504 C   0  0  2  0  0  0  0  0  0  0  0  0
   25.2871  -20.9771  -12.4978 N   0  0  0  0  0  0  0  0  0  0  0  0
   23.8579  -20.8020  -10.6141 C   0  0  0  0  0  0  0  0  0  0  0  0
   24.4725  -21.7761  -10.0842 O   0  0  0  0  0  0  0  0  0  0  0  0
   20.9124  -19.7464  -12.9730 C   0  0  0  0  0  0  0  0  0  0  0  0
   19.6752  -19.3340  -12.5250 C   0  0  0  0  0  0  0  0  0  0  0  0
   23.1371  -20.0054   -9.7489 O   0  0  0  0  0  0  0  0  0  0  0  0
  2  1  1  6
  2  3  1  0
  3  4  1  0
  4  5  2  0
  4  8  1  0
  6  2  1  0
  7  6  2  0
  9  6  1  0
 10  9  1  0
 11 12  1  0
 10 11  1  1
 12 17  1  0
 13 12  2  0
 14 13  1  0
 14 15  2  0
 15 16  1  0
 17 16  2  0
 18 10  1  0
 18 19  2  0
 21 20  1  0
 21 31  2  0
 22 21  1  0
 23 22  2  0
 23 24  1  0
 24 30  2  0
 25 24  1  0
 26 25  1  6
 26 27  1  0
 27 18  1  0
 28 32  1  0
 28 26  1  0
 29 28  2  0
 30 31  1  0
M  END
$$$$
