LMN.pdb
     RDKit          3D

 25 24  0  0  1  0  0  0  0  0999 V2000
    8.3640  -14.4833   18.0858 C   0  0  0  0  0  0  0  0  0  0  0  0
    7.4996  -13.7352   19.0875 C   0  0  2  0  0  0  0  0  0  0  0  0
    7.1429  -12.3525   18.5321 C   0  0  0  0  0  0  0  0  0  0  0  0
    8.2836  -13.5287   20.3554 C   0  0  0  0  0  0  0  0  0  0  0  0
    8.5768  -14.8481   21.0412 C   0  0  2  0  0  0  0  0  0  0  0  0
    7.3876  -15.6700   20.9196 N   0  0  0  0  0  0  0  0  0  0  0  0
    8.9810  -14.6690   22.4571 C   0  0  0  0  0  0  0  0  0  0  0  0
   10.0893  -14.1531   22.7154 O   0  0  0  0  0  0  0  0  0  0  0  0
    7.0534  -11.9920   27.9953 C   0  0  0  0  0  0  0  0  0  0  0  0
    5.9806  -12.2051   26.5543 S   0  0  0  0  0  0  0  0  0  0  0  0
    6.8248  -13.1138   25.2303 C   0  0  0  0  0  0  0  0  0  0  0  0
    7.4623  -14.3587   25.7954 C   0  0  0  0  0  0  0  0  0  0  0  0
    8.5355  -14.9171   24.9190 C   0  0  2  0  0  0  0  0  0  0  0  0
    8.1398  -15.0700   23.5421 N   0  0  0  0  0  0  0  0  0  0  0  0
    9.0176  -16.2549   25.4150 C   0  0  0  0  0  0  0  0  0  0  0  0
    8.2074  -17.1062   25.8467 O   0  0  0  0  0  0  0  0  0  0  0  0
   10.2942  -20.8331   24.3442 N   0  0  0  0  0  0  0  0  0  0  0  0
    9.6195  -19.6028   24.1364 C   0  0  0  0  0  0  0  0  0  0  0  0
    8.3752  -19.5816   24.2771 O   0  0  0  0  0  0  0  0  0  0  0  0
   10.3850  -18.4023   23.7672 C   0  0  0  0  0  0  0  0  0  0  0  0
   11.0123  -17.7819   24.9530 C   0  0  2  0  0  0  0  0  0  0  0  0
   10.3976  -16.5826   25.4052 N   0  0  0  0  0  0  0  0  0  0  0  0
   12.4791  -17.7703   24.8381 C   0  0  0  0  0  0  0  0  0  0  0  0
   13.2262  -16.5978   24.8811 O   0  0  0  0  0  0  0  0  0  0  0  0
   13.1068  -18.8371   24.6938 O   0  0  0  0  0  0  0  0  0  0  0  0
  2  1  1  6
  2  3  1  0
  4  2  1  0
  4  5  1  0
  5  7  1  0
  5  6  1  1
  7  8  2  0
 10 11  1  0
 10  9  1  0
 11 12  1  0
 13 12  1  1
 14 13  1  0
 14  7  1  0
 15 16  2  0
 15 13  1  0
 17 18  1  0
 18 20  1  0
 18 19  2  0
 21 20  1  6
 21 23  1  0
 21 22  1  0
 22 15  1  0
 23 24  1  0
 25 23  2  0
M  END
$$$$
