LMN.pdb
     RDKit          3D

 25 24  0  0  1  0  0  0  0  0999 V2000
    7.8818  -14.5913   18.3822 C   0  0  0  0  0  0  0  0  0  0  0  0
    7.5954  -13.7690   19.6280 C   0  0  2  0  0  0  0  0  0  0  0  0
    7.3645  -12.3049   19.2397 C   0  0  0  0  0  0  0  0  0  0  0  0
    8.7957  -13.8161   20.5345 C   0  0  0  0  0  0  0  0  0  0  0  0
    8.8243  -15.0985   21.3421 C   0  0  2  0  0  0  0  0  0  0  0  0
    7.5248  -15.7270   21.1980 N   0  0  0  0  0  0  0  0  0  0  0  0
    9.1668  -14.8599   22.7655 C   0  0  0  0  0  0  0  0  0  0  0  0
   10.2808  -14.3721   23.0522 O   0  0  0  0  0  0  0  0  0  0  0  0
    7.0210  -10.9993   27.5432 C   0  0  0  0  0  0  0  0  0  0  0  0
    5.9898  -12.3469   26.9159 S   0  0  0  0  0  0  0  0  0  0  0  0
    6.7946  -13.2080   25.5367 C   0  0  0  0  0  0  0  0  0  0  0  0
    7.4160  -14.4903   26.0320 C   0  0  0  0  0  0  0  0  0  0  0  0
    8.5822  -14.9324   25.2096 C   0  0  2  0  0  0  0  0  0  0  0  0
    8.2594  -15.1721   23.8261 N   0  0  0  0  0  0  0  0  0  0  0  0
    9.2099  -16.1842   25.7637 C   0  0  0  0  0  0  0  0  0  0  0  0
    9.5584  -16.2467   26.9647 O   0  0  0  0  0  0  0  0  0  0  0  0
   10.9259  -21.8699   23.9841 N   0  0  0  0  0  0  0  0  0  0  0  0
   10.3933  -20.9158   24.8886 C   0  0  0  0  0  0  0  0  0  0  0  0
   10.4469  -21.1705   26.1136 O   0  0  0  0  0  0  0  0  0  0  0  0
    9.8012  -19.6715   24.3741 C   0  0  0  0  0  0  0  0  0  0  0  0
   10.0868  -18.5320   25.2712 C   0  0  2  0  0  0  0  0  0  0  0  0
    9.4211  -17.3202   24.9411 N   0  0  0  0  0  0  0  0  0  0  0  0
   11.5235  -18.4359   25.5737 C   0  0  0  0  0  0  0  0  0  0  0  0
   12.0509  -18.7536   26.8209 O   0  0  0  0  0  0  0  0  0  0  0  0
   12.3260  -18.0560   24.6993 O   0  0  0  0  0  0  0  0  0  0  0  0
  2  1  1  6
  2  3  1  0
  4  2  1  0
  4  5  1  0
  5  7  1  0
  5  6  1  1
  7  8  2  0
 10 11  1  0
 10  9  1  0
 11 12  1  0
 13 12  1  1
 14 13  1  0
 14  7  1  0
 15 16  2  0
 15 13  1  0
 17 18  1  0
 18 20  1  0
 18 19  2  0
 21 20  1  6
 21 23  1  0
 21 22  1  0
 22 15  1  0
 23 24  1  0
 25 23  2  0
M  END
$$$$
