LMN.pdb
     RDKit          3D

 25 24  0  0  1  0  0  0  0  0999 V2000
    7.1573  -19.6451   19.7234 C   0  0  0  0  0  0  0  0  0  0  0  0
    7.3135  -18.4078   18.8546 C   0  0  2  0  0  0  0  0  0  0  0  0
    8.1543  -18.7458   17.6191 C   0  0  0  0  0  0  0  0  0  0  0  0
    8.0507  -17.3512   19.6323 C   0  0  0  0  0  0  0  0  0  0  0  0
    7.2847  -16.9505   20.8774 C   0  0  2  0  0  0  0  0  0  0  0  0
    5.9877  -16.4637   20.4467 N   0  0  0  0  0  0  0  0  0  0  0  0
    8.0120  -15.9415   21.6855 C   0  0  0  0  0  0  0  0  0  0  0  0
    8.9418  -15.2929   21.1600 O   0  0  0  0  0  0  0  0  0  0  0  0
    5.1206  -12.7500   26.4115 C   0  0  0  0  0  0  0  0  0  0  0  0
    6.7298  -11.9261   26.4787 S   0  0  0  0  0  0  0  0  0  0  0  0
    7.9941  -12.8711   25.5844 C   0  0  0  0  0  0  0  0  0  0  0  0
    7.3327  -13.9320   24.7402 C   0  0  0  0  0  0  0  0  0  0  0  0
    8.2770  -14.6047   23.7982 C   0  0  2  0  0  0  0  0  0  0  0  0
    7.6828  -15.6855   23.0536 N   0  0  0  0  0  0  0  0  0  0  0  0
    9.4864  -15.1444   24.5152 C   0  0  0  0  0  0  0  0  0  0  0  0
   10.0980  -14.4437   25.3535 O   0  0  0  0  0  0  0  0  0  0  0  0
   13.7685  -18.2216   23.4307 N   0  0  0  0  0  0  0  0  0  0  0  0
   13.6254  -16.8340   23.6876 C   0  0  0  0  0  0  0  0  0  0  0  0
   14.6491  -16.1834   23.9996 O   0  0  0  0  0  0  0  0  0  0  0  0
   12.3005  -16.2037   23.5829 C   0  0  0  0  0  0  0  0  0  0  0  0
   11.2913  -16.9456   24.3676 C   0  0  2  0  0  0  0  0  0  0  0  0
    9.9611  -16.4563   24.2596 N   0  0  0  0  0  0  0  0  0  0  0  0
   11.7791  -17.2407   25.7240 C   0  0  0  0  0  0  0  0  0  0  0  0
   11.0164  -17.0068   26.8634 O   0  0  0  0  0  0  0  0  0  0  0  0
   12.9177  -17.7183   25.8926 O   0  0  0  0  0  0  0  0  0  0  0  0
  2  1  1  1
  2  3  1  0
  4  2  1  0
  4  5  1  0
  5  7  1  0
  5  6  1  6
  7  8  2  0
 10 11  1  0
 10  9  1  0
 11 12  1  0
 13 12  1  1
 14 13  1  0
 14  7  1  0
 15 16  2  0
 15 13  1  0
 17 18  1  0
 18 20  1  0
 18 19  2  0
 21 20  1  1
 21 23  1  0
 21 22  1  0
 22 15  1  0
 23 24  1  0
 25 23  2  0
M  END
$$$$
