LMN.pdb
     RDKit          3D

 25 24  0  0  1  0  0  0  0  0999 V2000
    7.5770  -12.9155   18.2443 C   0  0  0  0  0  0  0  0  0  0  0  0
    7.5172  -13.8909   19.4084 C   0  0  2  0  0  0  0  0  0  0  0  0
    7.3217  -13.1213   20.7188 C   0  0  0  0  0  0  0  0  0  0  0  0
    8.8276  -14.6250   19.5022 C   0  0  0  0  0  0  0  0  0  0  0  0
    8.8048  -15.6493   20.6192 C   0  0  2  0  0  0  0  0  0  0  0  0
    7.5262  -16.3312   20.5518 N   0  0  0  0  0  0  0  0  0  0  0  0
    9.0333  -15.0360   21.9503 C   0  0  0  0  0  0  0  0  0  0  0  0
   10.0736  -14.3723   22.1465 O   0  0  0  0  0  0  0  0  0  0  0  0
    6.5433  -11.0584   27.9481 C   0  0  0  0  0  0  0  0  0  0  0  0
    6.0105  -12.3940   26.8502 S   0  0  0  0  0  0  0  0  0  0  0  0
    7.4156  -13.4074   26.3118 C   0  0  0  0  0  0  0  0  0  0  0  0
    7.1605  -13.9310   24.9203 C   0  0  0  0  0  0  0  0  0  0  0  0
    8.3402  -14.6349   24.3334 C   0  0  2  0  0  0  0  0  0  0  0  0
    8.0976  -15.1805   23.0222 N   0  0  0  0  0  0  0  0  0  0  0  0
    8.8174  -15.7540   25.2211 C   0  0  0  0  0  0  0  0  0  0  0  0
    8.0170  -16.3652   25.9651 O   0  0  0  0  0  0  0  0  0  0  0  0
   11.0233  -20.7333   24.1354 N   0  0  0  0  0  0  0  0  0  0  0  0
   10.5448  -19.8493   25.1363 C   0  0  0  0  0  0  0  0  0  0  0  0
   10.6012  -20.2242   26.3300 O   0  0  0  0  0  0  0  0  0  0  0  0
   10.0035  -18.5361   24.7542 C   0  0  0  0  0  0  0  0  0  0  0  0
   10.7228  -17.4410   25.4383 C   0  0  2  0  0  0  0  0  0  0  0  0
   10.1815  -16.1423   25.2362 N   0  0  0  0  0  0  0  0  0  0  0  0
   12.1796  -17.5810   25.2870 C   0  0  0  0  0  0  0  0  0  0  0  0
   12.9188  -18.5310   25.9839 O   0  0  0  0  0  0  0  0  0  0  0  0
   12.8061  -16.8322   24.5125 O   0  0  0  0  0  0  0  0  0  0  0  0
  2  1  1  6
  2  3  1  0
  4  2  1  0
  4  5  1  0
  5  7  1  0
  5  6  1  1
  7  8  2  0
 10 11  1  0
 10  9  1  0
 11 12  1  0
 13 12  1  1
 14 13  1  0
 14  7  1  0
 15 16  2  0
 15 13  1  0
 17 18  1  0
 18 20  1  0
 18 19  2  0
 21 20  1  6
 21 23  1  0
 21 22  1  0
 22 15  1  0
 23 24  1  0
 25 23  2  0
M  END
$$$$
