LMN.pdb
     RDKit          3D

 25 24  0  0  1  0  0  0  0  0999 V2000
    6.7947  -14.0406   19.3648 C   0  0  0  0  0  0  0  0  0  0  0  0
    8.0134  -13.5396   20.1226 C   0  0  2  0  0  0  0  0  0  0  0  0
    8.4502  -12.1826   19.5609 C   0  0  0  0  0  0  0  0  0  0  0  0
    9.1499  -14.5046   19.9183 C   0  0  0  0  0  0  0  0  0  0  0  0
    9.1551  -15.5813   20.9852 C   0  0  2  0  0  0  0  0  0  0  0  0
    7.8820  -16.2721   20.9056 N   0  0  0  0  0  0  0  0  0  0  0  0
    9.3996  -15.0299   22.3403 C   0  0  0  0  0  0  0  0  0  0  0  0
   10.5108  -14.5218   22.6016 O   0  0  0  0  0  0  0  0  0  0  0  0
    6.4657  -11.0711   28.3886 C   0  0  0  0  0  0  0  0  0  0  0  0
    6.1203  -12.2693   27.0779 S   0  0  0  0  0  0  0  0  0  0  0  0
    7.6357  -13.1000   26.5256 C   0  0  0  0  0  0  0  0  0  0  0  0
    7.4067  -13.7276   25.1731 C   0  0  0  0  0  0  0  0  0  0  0  0
    8.6033  -14.4566   24.6551 C   0  0  2  0  0  0  0  0  0  0  0  0
    8.4004  -15.0613   23.3632 N   0  0  0  0  0  0  0  0  0  0  0  0
    9.0524  -15.5339   25.6068 C   0  0  0  0  0  0  0  0  0  0  0  0
    9.2757  -15.2709   26.8104 O   0  0  0  0  0  0  0  0  0  0  0  0
   10.8553  -18.7467   23.6359 N   0  0  0  0  0  0  0  0  0  0  0  0
    9.9070  -19.6569   24.1693 C   0  0  0  0  0  0  0  0  0  0  0  0
    9.7342  -20.7448   23.5735 O   0  0  0  0  0  0  0  0  0  0  0  0
    9.1627  -19.3065   25.3886 C   0  0  0  0  0  0  0  0  0  0  0  0
    9.6073  -18.0058   25.9319 C   0  0  2  0  0  0  0  0  0  0  0  0
    9.2329  -16.8694   25.1644 N   0  0  0  0  0  0  0  0  0  0  0  0
   11.0054  -18.0653   26.3863 C   0  0  0  0  0  0  0  0  0  0  0  0
   11.4422  -18.9621   27.3557 O   0  0  0  0  0  0  0  0  0  0  0  0
   11.8566  -17.2934   25.9040 O   0  0  0  0  0  0  0  0  0  0  0  0
  2  1  1  6
  2  3  1  0
  4  2  1  0
  4  5  1  0
  5  7  1  0
  5  6  1  1
  7  8  2  0
 10 11  1  0
 10  9  1  0
 11 12  1  0
 13 12  1  1
 14 13  1  0
 14  7  1  0
 15 16  2  0
 15 13  1  0
 17 18  1  0
 18 20  1  0
 18 19  2  0
 21 20  1  6
 21 23  1  0
 21 22  1  0
 22 15  1  0
 23 24  1  0
 25 23  2  0
M  END
$$$$
