LMN.pdb
     RDKit          3D

 25 24  0  0  1  0  0  0  0  0999 V2000
    8.8331  -17.6102   18.5156 C   0  0  0  0  0  0  0  0  0  0  0  0
    7.8397  -16.5131   18.8616 C   0  0  2  0  0  0  0  0  0  0  0  0
    7.5879  -15.6360   17.6307 C   0  0  0  0  0  0  0  0  0  0  0  0
    8.4295  -15.6363   19.9330 C   0  0  0  0  0  0  0  0  0  0  0  0
    8.6123  -16.4002   21.2294 C   0  0  2  0  0  0  0  0  0  0  0  0
    7.3605  -17.0774   21.5100 N   0  0  0  0  0  0  0  0  0  0  0  0
    9.0255  -15.5189   22.3487 C   0  0  0  0  0  0  0  0  0  0  0  0
   10.0100  -14.7639   22.2002 O   0  0  0  0  0  0  0  0  0  0  0  0
    6.3528  -12.1751   27.6024 C   0  0  0  0  0  0  0  0  0  0  0  0
    6.3627  -11.7478   25.8445 S   0  0  0  0  0  0  0  0  0  0  0  0
    6.6108  -13.2164   24.8086 C   0  0  0  0  0  0  0  0  0  0  0  0
    7.5314  -14.1834   25.5108 C   0  0  0  0  0  0  0  0  0  0  0  0
    8.6892  -14.6078   24.6676 C   0  0  2  0  0  0  0  0  0  0  0  0
    8.3311  -15.5053   23.5990 N   0  0  0  0  0  0  0  0  0  0  0  0
    9.7623  -15.2705   25.4907 C   0  0  0  0  0  0  0  0  0  0  0  0
   10.9145  -14.7840   25.5494 O   0  0  0  0  0  0  0  0  0  0  0  0
   10.4140  -20.4422   23.5511 N   0  0  0  0  0  0  0  0  0  0  0  0
   10.0149  -19.8532   24.7783 C   0  0  0  0  0  0  0  0  0  0  0  0
   10.0688  -20.5550   25.8142 O   0  0  0  0  0  0  0  0  0  0  0  0
    9.5554  -18.4562   24.8036 C   0  0  0  0  0  0  0  0  0  0  0  0
   10.0389  -17.7556   26.0119 C   0  0  2  0  0  0  0  0  0  0  0  0
    9.4949  -16.4585   26.2179 N   0  0  0  0  0  0  0  0  0  0  0  0
   11.4959  -17.8932   26.1635 C   0  0  0  0  0  0  0  0  0  0  0  0
   12.3988  -17.3736   25.2419 O   0  0  0  0  0  0  0  0  0  0  0  0
   11.9718  -18.4957   27.1451 O   0  0  0  0  0  0  0  0  0  0  0  0
  2  1  1  6
  2  3  1  0
  4  2  1  0
  4  5  1  0
  5  7  1  0
  5  6  1  1
  7  8  2  0
 10 11  1  0
 10  9  1  0
 11 12  1  0
 13 12  1  1
 14 13  1  0
 14  7  1  0
 15 16  2  0
 15 13  1  0
 17 18  1  0
 18 20  1  0
 18 19  2  0
 21 20  1  6
 21 23  1  0
 21 22  1  0
 22 15  1  0
 23 24  1  0
 25 23  2  0
M  END
$$$$
