LMN.pdb
     RDKit          3D

 25 24  0  0  1  0  0  0  0  0999 V2000
    8.3570  -13.9299   17.7836 C   0  0  0  0  0  0  0  0  0  0  0  0
    7.9005  -13.6199   19.1999 C   0  0  2  0  0  0  0  0  0  0  0  0
    7.5441  -12.1342   19.3150 C   0  0  0  0  0  0  0  0  0  0  0  0
    9.0337  -13.8918   20.1520 C   0  0  0  0  0  0  0  0  0  0  0  0
    8.8303  -15.2008   20.8887 C   0  0  2  0  0  0  0  0  0  0  0  0
    7.4330  -15.5630   20.7450 N   0  0  0  0  0  0  0  0  0  0  0  0
    9.2337  -15.1135   22.3135 C   0  0  0  0  0  0  0  0  0  0  0  0
   10.4009  -14.7698   22.5978 O   0  0  0  0  0  0  0  0  0  0  0  0
    6.4577  -10.6919   26.7482 C   0  0  0  0  0  0  0  0  0  0  0  0
    6.4291  -12.5005   26.7174 S   0  0  0  0  0  0  0  0  0  0  0  0
    7.7256  -13.1637   25.6354 C   0  0  0  0  0  0  0  0  0  0  0  0
    7.6555  -14.6705   25.6235 C   0  0  0  0  0  0  0  0  0  0  0  0
    8.7032  -15.2992   24.7639 C   0  0  2  0  0  0  0  0  0  0  0  0
    8.3262  -15.4119   23.3779 N   0  0  0  0  0  0  0  0  0  0  0  0
    9.0755  -16.6726   25.2571 C   0  0  0  0  0  0  0  0  0  0  0  0
    8.2178  -17.5824   25.3226 O   0  0  0  0  0  0  0  0  0  0  0  0
   12.0939  -20.9141   25.4746 N   0  0  0  0  0  0  0  0  0  0  0  0
   12.7520  -19.8244   26.1003 C   0  0  0  0  0  0  0  0  0  0  0  0
   13.6657  -20.0784   26.9183 O   0  0  0  0  0  0  0  0  0  0  0  0
   12.3521  -18.4461   25.7783 C   0  0  0  0  0  0  0  0  0  0  0  0
   10.9297  -18.2114   26.1044 C   0  0  2  0  0  0  0  0  0  0  0  0
   10.4034  -16.9686   25.6582 N   0  0  0  0  0  0  0  0  0  0  0  0
   10.6280  -18.5972   27.4919 C   0  0  0  0  0  0  0  0  0  0  0  0
   10.3220  -19.9037   27.8581 O   0  0  0  0  0  0  0  0  0  0  0  0
   10.6369  -17.7421   28.3983 O   0  0  0  0  0  0  0  0  0  0  0  0
  2  1  1  6
  2  3  1  0
  4  2  1  0
  4  5  1  0
  5  7  1  0
  5  6  1  1
  7  8  2  0
 10 11  1  0
 10  9  1  0
 11 12  1  0
 13 12  1  1
 14 13  1  0
 14  7  1  0
 15 16  2  0
 15 13  1  0
 17 18  1  0
 18 20  1  0
 18 19  2  0
 21 20  1  1
 21 23  1  0
 21 22  1  0
 22 15  1  0
 23 24  1  0
 25 23  2  0
M  END
$$$$
