LMN.pdb
     RDKit          3D

 25 24  0  0  1  0  0  0  0  0999 V2000
    7.3591  -18.5473   19.3623 C   0  0  0  0  0  0  0  0  0  0  0  0
    8.6659  -18.9756   20.0098 C   0  0  2  0  0  0  0  0  0  0  0  0
    8.6330  -20.4807   20.2952 C   0  0  0  0  0  0  0  0  0  0  0  0
    8.8173  -18.2651   21.3277 C   0  0  0  0  0  0  0  0  0  0  0  0
    8.8075  -16.7604   21.1450 C   0  0  2  0  0  0  0  0  0  0  0  0
    9.9000  -16.4284   20.2502 N   0  0  0  0  0  0  0  0  0  0  0  0
    8.9116  -16.0360   22.4352 C   0  0  0  0  0  0  0  0  0  0  0  0
   10.0388  -15.7041   22.8601 O   0  0  0  0  0  0  0  0  0  0  0  0
    6.9783  -10.6241   27.1234 C   0  0  0  0  0  0  0  0  0  0  0  0
    6.9650  -11.6432   25.6287 S   0  0  0  0  0  0  0  0  0  0  0  0
    6.6690  -13.3894   26.0218 C   0  0  0  0  0  0  0  0  0  0  0  0
    6.5762  -14.1886   24.7458 C   0  0  0  0  0  0  0  0  0  0  0  0
    7.8423  -14.9071   24.4108 C   0  0  2  0  0  0  0  0  0  0  0  0
    7.7584  -15.7037   23.2132 N   0  0  0  0  0  0  0  0  0  0  0  0
    8.2859  -15.8049   25.5357 C   0  0  0  0  0  0  0  0  0  0  0  0
    8.5381  -15.3336   26.6679 O   0  0  0  0  0  0  0  0  0  0  0  0
    6.3499  -18.9447   25.2116 N   0  0  0  0  0  0  0  0  0  0  0  0
    7.2232  -19.8386   25.8828 C   0  0  0  0  0  0  0  0  0  0  0  0
    6.7234  -20.8377   26.4487 O   0  0  0  0  0  0  0  0  0  0  0  0
    8.6702  -19.5746   25.8970 C   0  0  0  0  0  0  0  0  0  0  0  0
    8.9539  -18.1662   26.2440 C   0  0  2  0  0  0  0  0  0  0  0  0
    8.4282  -17.2025   25.3409 N   0  0  0  0  0  0  0  0  0  0  0  0
   10.3544  -17.9888   26.6587 C   0  0  0  0  0  0  0  0  0  0  0  0
   10.9587  -18.7882   27.6233 O   0  0  0  0  0  0  0  0  0  0  0  0
   11.0536  -17.0940   26.1453 O   0  0  0  0  0  0  0  0  0  0  0  0
  2  1  1  1
  2  3  1  0
  4  2  1  0
  4  5  1  0
  5  7  1  0
  5  6  1  6
  7  8  2  0
 10 11  1  0
 10  9  1  0
 11 12  1  0
 13 12  1  1
 14 13  1  0
 14  7  1  0
 15 16  2  0
 15 13  1  0
 17 18  1  0
 18 20  1  0
 18 19  2  0
 21 20  1  6
 21 23  1  0
 21 22  1  0
 22 15  1  0
 23 24  1  0
 25 23  2  0
M  END
$$$$
