LMN.pdb
     RDKit          3D

 25 24  0  0  1  0  0  0  0  0999 V2000
    8.0119  -14.5420   17.8712 C   0  0  0  0  0  0  0  0  0  0  0  0
    7.6067  -13.9298   19.2022 C   0  0  2  0  0  0  0  0  0  0  0  0
    7.1360  -12.4878   18.9865 C   0  0  0  0  0  0  0  0  0  0  0  0
    8.8071  -13.8866   20.1088 C   0  0  0  0  0  0  0  0  0  0  0  0
    8.8511  -15.0967   21.0203 C   0  0  2  0  0  0  0  0  0  0  0  0
    7.5583  -15.7490   20.9325 N   0  0  0  0  0  0  0  0  0  0  0  0
    9.1934  -14.7366   22.4180 C   0  0  0  0  0  0  0  0  0  0  0  0
   10.2778  -14.1620   22.6526 O   0  0  0  0  0  0  0  0  0  0  0  0
    6.4575  -10.8707   26.7223 C   0  0  0  0  0  0  0  0  0  0  0  0
    6.2860  -12.4868   27.5172 S   0  0  0  0  0  0  0  0  0  0  0  0
    7.5768  -13.6356   26.9647 C   0  0  0  0  0  0  0  0  0  0  0  0
    7.3368  -14.0145   25.5244 C   0  0  0  0  0  0  0  0  0  0  0  0
    8.5611  -14.5322   24.8427 C   0  0  2  0  0  0  0  0  0  0  0  0
    8.3188  -15.0276   23.5116 N   0  0  0  0  0  0  0  0  0  0  0  0
    9.2153  -15.6325   25.6359 C   0  0  0  0  0  0  0  0  0  0  0  0
    9.7075  -15.4015   26.7638 O   0  0  0  0  0  0  0  0  0  0  0  0
   10.6736  -18.9967   23.0774 N   0  0  0  0  0  0  0  0  0  0  0  0
   11.7711  -18.4723   23.8072 C   0  0  0  0  0  0  0  0  0  0  0  0
   12.9070  -18.5240   23.2822 O   0  0  0  0  0  0  0  0  0  0  0  0
   11.5519  -17.8903   25.1401 C   0  0  0  0  0  0  0  0  0  0  0  0
   10.1376  -18.0129   25.5516 C   0  0  2  0  0  0  0  0  0  0  0  0
    9.2896  -16.9542   25.1265 N   0  0  0  0  0  0  0  0  0  0  0  0
   10.0235  -18.4269   26.9589 C   0  0  0  0  0  0  0  0  0  0  0  0
    9.1854  -17.7851   27.8646 O   0  0  0  0  0  0  0  0  0  0  0  0
   10.6930  -19.3863   27.3882 O   0  0  0  0  0  0  0  0  0  0  0  0
  2  1  1  6
  2  3  1  0
  4  2  1  0
  4  5  1  0
  5  7  1  0
  5  6  1  1
  7  8  2  0
 10 11  1  0
 10  9  1  0
 11 12  1  0
 13 12  1  1
 14 13  1  0
 14  7  1  0
 15 16  2  0
 15 13  1  0
 17 18  1  0
 18 20  1  0
 18 19  2  0
 21 20  1  1
 21 23  1  0
 21 22  1  0
 22 15  1  0
 23 24  1  0
 25 23  2  0
M  END
$$$$
