LMN.pdb
     RDKit          3D

 25 24  0  0  1  0  0  0  0  0999 V2000
    7.5526  -12.2994   18.6164 C   0  0  0  0  0  0  0  0  0  0  0  0
    7.4501  -13.3367   19.7226 C   0  0  2  0  0  0  0  0  0  0  0  0
    7.6210  -12.6581   21.0857 C   0  0  0  0  0  0  0  0  0  0  0  0
    8.5667  -14.3335   19.5665 C   0  0  0  0  0  0  0  0  0  0  0  0
    8.4770  -15.4272   20.6121 C   0  0  2  0  0  0  0  0  0  0  0  0
    7.1054  -15.8995   20.6243 N   0  0  0  0  0  0  0  0  0  0  0  0
    8.9122  -14.9624   21.9518 C   0  0  0  0  0  0  0  0  0  0  0  0
   10.0205  -14.3981   22.0722 O   0  0  0  0  0  0  0  0  0  0  0  0
    5.7527  -12.0380   26.4080 C   0  0  0  0  0  0  0  0  0  0  0  0
    7.1923  -12.4489   27.4236 S   0  0  0  0  0  0  0  0  0  0  0  0
    8.2044  -13.7375   26.6449 C   0  0  0  0  0  0  0  0  0  0  0  0
    7.6535  -14.0592   25.2780 C   0  0  0  0  0  0  0  0  0  0  0  0
    8.5915  -14.8689   24.4436 C   0  0  2  0  0  0  0  0  0  0  0  0
    8.1012  -15.1403   23.1163 N   0  0  0  0  0  0  0  0  0  0  0  0
    8.9195  -16.1860   25.0960 C   0  0  0  0  0  0  0  0  0  0  0  0
    8.0204  -17.0264   25.3264 O   0  0  0  0  0  0  0  0  0  0  0  0
   12.8374  -17.7783   23.2664 N   0  0  0  0  0  0  0  0  0  0  0  0
   11.9523  -18.4563   24.1434 C   0  0  0  0  0  0  0  0  0  0  0  0
   11.1342  -19.2641   23.6470 O   0  0  0  0  0  0  0  0  0  0  0  0
   12.0164  -18.1983   25.5901 C   0  0  0  0  0  0  0  0  0  0  0  0
   10.7273  -17.6853   26.0998 C   0  0  2  0  0  0  0  0  0  0  0  0
   10.2512  -16.5063   25.4643 N   0  0  0  0  0  0  0  0  0  0  0  0
   10.6869  -17.7060   27.5704 C   0  0  0  0  0  0  0  0  0  0  0  0
   11.0437  -18.8251   28.3155 O   0  0  0  0  0  0  0  0  0  0  0  0
   10.3211  -16.6969   28.2036 O   0  0  0  0  0  0  0  0  0  0  0  0
  2  1  1  6
  2  3  1  0
  4  2  1  0
  4  5  1  0
  5  7  1  0
  5  6  1  1
  7  8  2  0
 10 11  1  0
 10  9  1  0
 11 12  1  0
 13 12  1  1
 14 13  1  0
 14  7  1  0
 15 16  2  0
 15 13  1  0
 17 18  1  0
 18 20  1  0
 18 19  2  0
 21 20  1  1
 21 23  1  0
 21 22  1  0
 22 15  1  0
 23 24  1  0
 25 23  2  0
M  END
$$$$
