CTC.pdb
     RDKit          3D

 20 19  0  0  1  0  0  0  0  0999 V2000
   26.0009  -20.2265   -9.1563 N   0  0  0  0  0  0  0  0  0  0  0  0
   25.0386  -20.9213   -9.9888 C   0  0  1  0  0  0  0  0  0  0  0  0
   23.6603  -20.5867   -9.4072 C   0  0  0  0  0  0  0  0  0  0  0  0
   23.5563  -21.3704   -7.7830 S   0  0  0  0  0  0  0  0  0  0  0  0
   25.0697  -20.4133  -11.3890 C   0  0  0  0  0  0  0  0  0  0  0  0
   25.3791  -19.2432  -11.6670 O   0  0  0  0  0  0  0  0  0  0  0  0
   26.0957  -21.4839  -15.9250 C   0  0  0  0  0  0  0  0  0  0  0  0
   25.9184  -21.7225  -14.4609 C   0  0  1  0  0  0  0  0  0  0  0  0
   27.1248  -21.3815  -13.7937 O   0  0  0  0  0  0  0  0  0  0  0  0
   24.7869  -20.9142  -13.8472 C   0  0  2  0  0  0  0  0  0  0  0  0
   24.7278  -21.3231  -12.4263 N   0  0  0  0  0  0  0  0  0  0  0  0
   23.4708  -21.1848  -14.4154 C   0  0  0  0  0  0  0  0  0  0  0  0
   22.8961  -22.3044  -14.1940 O   0  0  0  0  0  0  0  0  0  0  0  0
   22.7650  -20.2604  -15.2186 N   0  0  0  0  0  0  0  0  0  0  0  0
   21.3545  -20.4535  -15.4508 C   0  0  1  0  0  0  0  0  0  0  0  0
   20.6351  -20.3032  -14.1060 C   0  0  0  0  0  0  0  0  0  0  0  0
   18.8489  -20.4329  -14.3973 S   0  0  0  0  0  0  0  0  0  0  0  0
   20.8233  -19.4427  -16.3940 C   0  0  0  0  0  0  0  0  0  0  0  0
   21.2381  -18.2601  -16.2805 O   0  0  0  0  0  0  0  0  0  0  0  0
   19.8953  -19.7410  -17.3897 O   0  0  0  0  0  0  0  0  0  0  0  0
  2  3  1  0
  2  5  1  0
  2  1  1  1
  4  3  1  0
  5  6  2  0
  8  7  1  6
  8  9  1  0
  8 10  1  0
 10 12  1  0
 10 11  1  1
 11  5  1  0
 12 13  2  0
 14 12  1  0
 14 15  1  0
 15 18  1  0
 16 17  1  0
 15 16  1  1
 18 19  2  0
 18 20  1  0
M  END
$$$$
