CTC.pdb
     RDKit          3D

 20 19  0  0  1  0  0  0  0  0999 V2000
   18.7591  -12.8668  -17.0726 N   0  0  0  0  0  0  0  0  0  0  0  0
   19.4021  -11.6304  -17.4718 C   0  0  1  0  0  0  0  0  0  0  0  0
   18.3114  -10.7863  -18.1411 C   0  0  0  0  0  0  0  0  0  0  0  0
   17.6611  -11.7464  -19.5261 S   0  0  0  0  0  0  0  0  0  0  0  0
   19.8937  -10.8707  -16.2882 C   0  0  0  0  0  0  0  0  0  0  0  0
   19.3196  -10.9065  -15.1876 O   0  0  0  0  0  0  0  0  0  0  0  0
   23.2349  -11.3207  -14.8832 C   0  0  0  0  0  0  0  0  0  0  0  0
   23.1155   -9.8748  -15.2394 C   0  0  1  0  0  0  0  0  0  0  0  0
   23.7162   -9.6666  -16.5093 O   0  0  0  0  0  0  0  0  0  0  0  0
   21.6789   -9.3823  -15.3028 C   0  0  2  0  0  0  0  0  0  0  0  0
   21.0658  -10.0835  -16.4526 N   0  0  0  0  0  0  0  0  0  0  0  0
   21.5386   -7.9534  -15.5610 C   0  0  0  0  0  0  0  0  0  0  0  0
   21.0226   -7.5489  -16.6579 O   0  0  0  0  0  0  0  0  0  0  0  0
   21.9465   -6.9540  -14.6485 N   0  0  0  0  0  0  0  0  0  0  0  0
   21.7445   -5.5647  -14.9801 C   0  0  1  0  0  0  0  0  0  0  0  0
   20.2339   -5.3184  -15.0590 C   0  0  0  0  0  0  0  0  0  0  0  0
   19.9576   -3.5401  -15.2904 S   0  0  0  0  0  0  0  0  0  0  0  0
   22.3212   -4.6772  -13.9441 C   0  0  0  0  0  0  0  0  0  0  0  0
   22.3276   -5.0906  -12.7557 O   0  0  0  0  0  0  0  0  0  0  0  0
   22.8507   -3.4193  -14.2252 O   0  0  0  0  0  0  0  0  0  0  0  0
  2  3  1  0
  2  5  1  0
  2  1  1  1
  4  3  1  0
  5  6  2  0
  8  7  1  6
  8  9  1  0
  8 10  1  0
 10 12  1  0
 10 11  1  6
 11  5  1  0
 12 13  2  0
 14 12  1  0
 14 15  1  0
 15 18  1  0
 16 17  1  0
 15 16  1  1
 18 19  2  0
 18 20  1  0
M  END
$$$$
