CTC.pdb
     RDKit          3D

 20 19  0  0  1  0  0  0  0  0999 V2000
   26.2042  -22.2134  -10.7646 N   0  0  0  0  0  0  0  0  0  0  0  0
   25.6308  -20.9082  -11.0282 C   0  0  1  0  0  0  0  0  0  0  0  0
   25.8953  -20.0711   -9.7716 C   0  0  0  0  0  0  0  0  0  0  0  0
   24.7716  -20.6599   -8.4857 S   0  0  0  0  0  0  0  0  0  0  0  0
   26.3178  -20.2367  -12.1670 C   0  0  0  0  0  0  0  0  0  0  0  0
   27.5461  -20.0551  -12.1912 O   0  0  0  0  0  0  0  0  0  0  0  0
   26.5666  -21.6380  -15.3113 C   0  0  0  0  0  0  0  0  0  0  0  0
   25.8501  -20.3499  -15.5551 C   0  0  1  0  0  0  0  0  0  0  0  0
   24.4527  -20.6022  -15.5771 O   0  0  0  0  0  0  0  0  0  0  0  0
   26.1290  -19.2916  -14.5003 C   0  0  2  0  0  0  0  0  0  0  0  0
   25.5134  -19.7972  -13.2534 N   0  0  0  0  0  0  0  0  0  0  0  0
   25.5223  -17.9925  -14.7696 C   0  0  0  0  0  0  0  0  0  0  0  0
   24.3432  -17.7373  -14.3483 O   0  0  0  0  0  0  0  0  0  0  0  0
   26.1735  -16.9631  -15.4866 N   0  0  0  0  0  0  0  0  0  0  0  0
   25.4766  -15.7266  -15.7439 C   0  0  1  0  0  0  0  0  0  0  0  0
   26.5044  -14.5912  -15.6886 C   0  0  0  0  0  0  0  0  0  0  0  0
   25.6677  -13.0429  -16.1299 S   0  0  0  0  0  0  0  0  0  0  0  0
   24.8448  -15.7362  -17.0834 C   0  0  0  0  0  0  0  0  0  0  0  0
   25.4280  -16.3684  -18.0019 O   0  0  0  0  0  0  0  0  0  0  0  0
   23.6470  -15.0833  -17.3671 O   0  0  0  0  0  0  0  0  0  0  0  0
  2  3  1  0
  2  5  1  0
  2  1  1  1
  4  3  1  0
  5  6  2  0
  8  7  1  1
  8  9  1  0
  8 10  1  0
 10 12  1  0
 10 11  1  1
 11  5  1  0
 12 13  2  0
 14 12  1  0
 14 15  1  0
 15 18  1  0
 16 17  1  0
 15 16  1  6
 18 19  2  0
 18 20  1  0
M  END
$$$$
