CTC.pdb
     RDKit          3D

 20 19  0  0  1  0  0  0  0  0999 V2000
   23.3652  -19.0832  -15.4509 N   0  0  0  0  0  0  0  0  0  0  0  0
   22.8165  -17.8804  -16.0458 C   0  0  1  0  0  0  0  0  0  0  0  0
   21.2939  -18.0570  -16.0230 C   0  0  0  0  0  0  0  0  0  0  0  0
   20.9102  -19.5483  -16.9673 S   0  0  0  0  0  0  0  0  0  0  0  0
   23.1406  -16.6775  -15.2287 C   0  0  0  0  0  0  0  0  0  0  0  0
   23.0834  -16.6790  -13.9882 O   0  0  0  0  0  0  0  0  0  0  0  0
   26.2645  -15.0137  -14.8070 C   0  0  0  0  0  0  0  0  0  0  0  0
   25.3596  -14.0287  -15.4725 C   0  0  1  0  0  0  0  0  0  0  0  0
   25.5571  -14.1041  -16.8768 O   0  0  0  0  0  0  0  0  0  0  0  0
   23.8865  -14.2661  -15.1827 C   0  0  2  0  0  0  0  0  0  0  0  0
   23.5268  -15.4974  -15.9204 N   0  0  0  0  0  0  0  0  0  0  0  0
   22.9968  -13.2150  -15.6640 C   0  0  0  0  0  0  0  0  0  0  0  0
   22.5726  -13.2377  -16.8691 O   0  0  0  0  0  0  0  0  0  0  0  0
   22.5565  -12.1394  -14.8595 N   0  0  0  0  0  0  0  0  0  0  0  0
   21.7896  -11.0736  -15.4569 C   0  0  1  0  0  0  0  0  0  0  0  0
   20.4157  -11.0499  -14.7782 C   0  0  0  0  0  0  0  0  0  0  0  0
   19.5308   -9.5667  -15.3341 S   0  0  0  0  0  0  0  0  0  0  0  0
   22.4468   -9.7619  -15.2543 C   0  0  0  0  0  0  0  0  0  0  0  0
   23.1277   -9.6029  -14.2081 O   0  0  0  0  0  0  0  0  0  0  0  0
   22.3449   -8.7089  -16.1612 O   0  0  0  0  0  0  0  0  0  0  0  0
  2  3  1  0
  2  5  1  0
  2  1  1  1
  4  3  1  0
  5  6  2  0
  8  7  1  1
  8  9  1  0
  8 10  1  0
 10 12  1  0
 10 11  1  6
 11  5  1  0
 12 13  2  0
 14 12  1  0
 14 15  1  0
 15 18  1  0
 16 17  1  0
 15 16  1  1
 18 19  2  0
 18 20  1  0
M  END
$$$$
