CTC.pdb
     RDKit          3D

 20 19  0  0  1  0  0  0  0  0999 V2000
   15.8839  -13.0525  -14.2435 N   0  0  0  0  0  0  0  0  0  0  0  0
   15.2690  -11.8075  -13.8268 C   0  0  1  0  0  0  0  0  0  0  0  0
   13.9711  -12.1985  -13.1109 C   0  0  0  0  0  0  0  0  0  0  0  0
   12.7734  -12.6614  -14.3815 S   0  0  0  0  0  0  0  0  0  0  0  0
   16.1237  -11.0858  -12.8429 C   0  0  0  0  0  0  0  0  0  0  0  0
   16.7868  -11.6774  -11.9754 O   0  0  0  0  0  0  0  0  0  0  0  0
   18.9801   -8.8438  -13.5222 C   0  0  0  0  0  0  0  0  0  0  0  0
   17.9154   -8.0417  -12.8477 C   0  0  1  0  0  0  0  0  0  0  0  0
   17.1369   -7.3901  -13.8409 O   0  0  0  0  0  0  0  0  0  0  0  0
   16.9855   -8.8750  -11.9809 C   0  0  2  0  0  0  0  0  0  0  0  0
   16.1635   -9.6672  -12.9224 N   0  0  0  0  0  0  0  0  0  0  0  0
   16.0573   -8.0982  -11.1666 C   0  0  0  0  0  0  0  0  0  0  0  0
   14.8866   -7.8347  -11.6059 O   0  0  0  0  0  0  0  0  0  0  0  0
   16.3759   -7.6033   -9.8815 N   0  0  0  0  0  0  0  0  0  0  0  0
   15.4565   -6.7133   -9.2154 C   0  0  1  0  0  0  0  0  0  0  0  0
   14.9215   -7.4375   -7.9753 C   0  0  0  0  0  0  0  0  0  0  0  0
   13.8526   -6.2904   -7.0622 S   0  0  0  0  0  0  0  0  0  0  0  0
   16.1323   -5.4667   -8.7880 C   0  0  0  0  0  0  0  0  0  0  0  0
   17.3308   -5.5484   -8.4135 O   0  0  0  0  0  0  0  0  0  0  0  0
   15.5057   -4.2221   -8.7827 O   0  0  0  0  0  0  0  0  0  0  0  0
  2  3  1  0
  2  5  1  0
  2  1  1  1
  4  3  1  0
  5  6  2  0
  8  7  1  6
  8  9  1  0
  8 10  1  0
 10 12  1  0
 10 11  1  6
 11  5  1  0
 12 13  2  0
 14 12  1  0
 14 15  1  0
 15 18  1  0
 16 17  1  0
 15 16  1  1
 18 19  2  0
 18 20  1  0
M  END
$$$$
