CTC.pdb
     RDKit          3D

 20 19  0  0  1  0  0  0  0  0999 V2000
   20.0138  -16.7840  -16.8483 N   0  0  0  0  0  0  0  0  0  0  0  0
   19.5090  -15.4276  -16.7647 C   0  0  1  0  0  0  0  0  0  0  0  0
   18.8023  -15.3248  -15.4083 C   0  0  0  0  0  0  0  0  0  0  0  0
   17.3265  -16.3632  -15.4897 S   0  0  0  0  0  0  0  0  0  0  0  0
   20.6213  -14.4363  -16.7669 C   0  0  0  0  0  0  0  0  0  0  0  0
   21.6876  -14.6294  -16.1605 O   0  0  0  0  0  0  0  0  0  0  0  0
   22.5328  -13.4650  -19.6041 C   0  0  0  0  0  0  0  0  0  0  0  0
   21.8593  -12.2206  -19.1245 C   0  0  1  0  0  0  0  0  0  0  0  0
   20.6544  -12.0435  -19.8551 O   0  0  0  0  0  0  0  0  0  0  0  0
   21.5214  -12.2463  -17.6427 C   0  0  2  0  0  0  0  0  0  0  0  0
   20.4282  -13.2330  -17.4985 N   0  0  0  0  0  0  0  0  0  0  0  0
   21.0178  -10.9836  -17.1137 C   0  0  0  0  0  0  0  0  0  0  0  0
   19.7647  -10.7344  -17.1368 O   0  0  0  0  0  0  0  0  0  0  0  0
   21.8501   -9.9859  -16.5571 N   0  0  0  0  0  0  0  0  0  0  0  0
   21.2658   -8.7508  -16.0944 C   0  0  1  0  0  0  0  0  0  0  0  0
   22.0717   -8.2797  -14.8790 C   0  0  0  0  0  0  0  0  0  0  0  0
   21.6449   -9.3367  -13.4674 S   0  0  0  0  0  0  0  0  0  0  0  0
   21.3232   -7.7053  -17.1419 C   0  0  0  0  0  0  0  0  0  0  0  0
   22.0190   -7.9376  -18.1643 O   0  0  0  0  0  0  0  0  0  0  0  0
   20.6481   -6.4901  -17.0453 O   0  0  0  0  0  0  0  0  0  0  0  0
  2  3  1  0
  2  5  1  0
  2  1  1  1
  4  3  1  0
  5  6  2  0
  8  7  1  6
  8  9  1  0
  8 10  1  0
 10 12  1  0
 10 11  1  6
 11  5  1  0
 12 13  2  0
 14 12  1  0
 14 15  1  0
 15 18  1  0
 16 17  1  0
 15 16  1  1
 18 19  2  0
 18 20  1  0
M  END
$$$$
