CTC.pdb
     RDKit          3D

 20 19  0  0  1  0  0  0  0  0999 V2000
   27.6903  -21.3011  -10.4316 N   0  0  0  0  0  0  0  0  0  0  0  0
   26.2550  -21.0991  -10.4565 C   0  0  1  0  0  0  0  0  0  0  0  0
   25.9767  -19.9401   -9.4925 C   0  0  0  0  0  0  0  0  0  0  0  0
   25.9879  -20.6176   -7.8180 S   0  0  0  0  0  0  0  0  0  0  0  0
   25.7922  -20.6784  -11.8087 C   0  0  0  0  0  0  0  0  0  0  0  0
   26.4717  -19.9485  -12.5487 O   0  0  0  0  0  0  0  0  0  0  0  0
   23.9484  -22.2220  -15.7943 C   0  0  0  0  0  0  0  0  0  0  0  0
   24.4951  -22.1654  -14.4051 C   0  0  1  0  0  0  0  0  0  0  0  0
   25.9137  -22.1818  -14.4721 O   0  0  0  0  0  0  0  0  0  0  0  0
   24.0665  -20.9273  -13.6344 C   0  0  2  0  0  0  0  0  0  0  0  0
   24.5216  -21.1443  -12.2433 N   0  0  0  0  0  0  0  0  0  0  0  0
   22.6238  -20.7193  -13.5751 C   0  0  0  0  0  0  0  0  0  0  0  0
   21.8828  -21.5500  -12.9478 O   0  0  0  0  0  0  0  0  0  0  0  0
   21.9700  -19.6235  -14.1830 N   0  0  0  0  0  0  0  0  0  0  0  0
   20.5324  -19.5269  -14.1133 C   0  0  1  0  0  0  0  0  0  0  0  0
   20.1429  -18.0898  -14.4764 C   0  0  0  0  0  0  0  0  0  0  0  0
   20.6663  -16.9985  -13.1246 S   0  0  0  0  0  0  0  0  0  0  0  0
   19.8859  -20.4547  -15.0698 C   0  0  0  0  0  0  0  0  0  0  0  0
   20.5349  -20.7841  -16.0963 O   0  0  0  0  0  0  0  0  0  0  0  0
   18.6056  -20.9724  -14.8842 O   0  0  0  0  0  0  0  0  0  0  0  0
  2  3  1  0
  2  5  1  0
  2  1  1  6
  4  3  1  0
  5  6  2  0
  8  7  1  6
  8  9  1  0
  8 10  1  0
 10 12  1  0
 10 11  1  1
 11  5  1  0
 12 13  2  0
 14 12  1  0
 14 15  1  0
 15 18  1  0
 16 17  1  0
 15 16  1  6
 18 19  2  0
 18 20  1  0
M  END
$$$$
