CTC.pdb
     RDKit          3D

 20 19  0  0  1  0  0  0  0  0999 V2000
   22.2543  -19.6430  -14.7337 N   0  0  0  0  0  0  0  0  0  0  0  0
   21.4195  -18.6094  -15.3138 C   0  0  1  0  0  0  0  0  0  0  0  0
   19.9907  -18.9123  -14.8483 C   0  0  0  0  0  0  0  0  0  0  0  0
   19.5967  -20.5937  -15.3781 S   0  0  0  0  0  0  0  0  0  0  0  0
   21.7853  -17.2631  -14.7910 C   0  0  0  0  0  0  0  0  0  0  0  0
   22.0823  -17.0681  -13.6011 O   0  0  0  0  0  0  0  0  0  0  0  0
   24.6021  -15.3347  -14.9853 C   0  0  0  0  0  0  0  0  0  0  0  0
   23.5723  -14.5902  -15.7710 C   0  0  1  0  0  0  0  0  0  0  0  0
   23.6432  -15.0076  -17.1267 O   0  0  0  0  0  0  0  0  0  0  0  0
   22.1529  -14.8128  -15.2751 C   0  0  2  0  0  0  0  0  0  0  0  0
   21.7864  -16.1788  -15.7102 N   0  0  0  0  0  0  0  0  0  0  0  0
   21.1612  -13.9105  -15.8501 C   0  0  0  0  0  0  0  0  0  0  0  0
   20.6900  -14.1368  -17.0161 O   0  0  0  0  0  0  0  0  0  0  0  0
   20.6692  -12.7667  -15.1810 N   0  0  0  0  0  0  0  0  0  0  0  0
   19.7553  -11.8834  -15.8631 C   0  0  1  0  0  0  0  0  0  0  0  0
   18.4070  -11.9562  -15.1383 C   0  0  0  0  0  0  0  0  0  0  0  0
   17.5032  -13.4016  -15.7594 S   0  0  0  0  0  0  0  0  0  0  0  0
   20.2401  -10.4842  -15.8339 C   0  0  0  0  0  0  0  0  0  0  0  0
   21.2344  -10.2235  -15.1081 O   0  0  0  0  0  0  0  0  0  0  0  0
   19.6498   -9.4564  -16.5666 O   0  0  0  0  0  0  0  0  0  0  0  0
  2  3  1  0
  2  5  1  0
  2  1  1  1
  4  3  1  0
  5  6  2  0
  8  7  1  1
  8  9  1  0
  8 10  1  0
 10 12  1  0
 10 11  1  6
 11  5  1  0
 12 13  2  0
 14 12  1  0
 14 15  1  0
 15 18  1  0
 16 17  1  0
 15 16  1  1
 18 19  2  0
 18 20  1  0
M  END
$$$$
