CTC.pdb
     RDKit          3D

 20 19  0  0  1  0  0  0  0  0999 V2000
   18.1627  -11.3043  -18.5197 N   0  0  0  0  0  0  0  0  0  0  0  0
   18.5976  -10.7540  -17.2510 C   0  0  1  0  0  0  0  0  0  0  0  0
   19.8903  -11.4956  -16.8919 C   0  0  0  0  0  0  0  0  0  0  0  0
   19.4227  -13.1351  -16.2948 S   0  0  0  0  0  0  0  0  0  0  0  0
   18.9307   -9.3072  -17.3757 C   0  0  0  0  0  0  0  0  0  0  0  0
   19.5568   -8.8483  -18.3449 O   0  0  0  0  0  0  0  0  0  0  0  0
   16.5229   -6.6708  -17.6489 C   0  0  0  0  0  0  0  0  0  0  0  0
   17.3128   -6.3704  -16.4170 C   0  0  1  0  0  0  0  0  0  0  0  0
   16.6109   -6.8758  -15.2905 O   0  0  0  0  0  0  0  0  0  0  0  0
   18.7056   -6.9790  -16.4258 C   0  0  2  0  0  0  0  0  0  0  0  0
   18.5038   -8.4419  -16.3319 N   0  0  0  0  0  0  0  0  0  0  0  0
   19.5409   -6.5982  -15.2922 C   0  0  0  0  0  0  0  0  0  0  0  0
   19.3640   -7.1497  -14.1531 O   0  0  0  0  0  0  0  0  0  0  0  0
   20.5677   -5.6302  -15.3726 N   0  0  0  0  0  0  0  0  0  0  0  0
   21.3374   -5.3121  -14.1948 C   0  0  1  0  0  0  0  0  0  0  0  0
   22.6121   -6.1622  -14.2264 C   0  0  0  0  0  0  0  0  0  0  0  0
   22.3303   -7.6497  -13.2264 S   0  0  0  0  0  0  0  0  0  0  0  0
   21.7166   -3.8805  -14.1729 C   0  0  0  0  0  0  0  0  0  0  0  0
   21.6496   -3.2399  -15.2539 O   0  0  0  0  0  0  0  0  0  0  0  0
   22.1393   -3.2204  -13.0209 O   0  0  0  0  0  0  0  0  0  0  0  0
  2  3  1  0
  2  5  1  0
  2  1  1  6
  4  3  1  0
  5  6  2  0
  8  7  1  6
  8  9  1  0
  8 10  1  0
 10 12  1  0
 10 11  1  1
 11  5  1  0
 12 13  2  0
 14 12  1  0
 14 15  1  0
 15 18  1  0
 16 17  1  0
 15 16  1  6
 18 19  2  0
 18 20  1  0
M  END
$$$$
