CTC.pdb
     RDKit          3D

 20 19  0  0  1  0  0  0  0  0999 V2000
   18.6666  -15.2744  -16.5908 N   0  0  0  0  0  0  0  0  0  0  0  0
   17.7448  -14.1666  -16.4330 C   0  0  1  0  0  0  0  0  0  0  0  0
   16.5392  -14.7282  -15.6706 C   0  0  0  0  0  0  0  0  0  0  0  0
   15.8423  -16.0610  -16.6711 S   0  0  0  0  0  0  0  0  0  0  0  0
   18.3385  -13.0847  -15.5985 C   0  0  0  0  0  0  0  0  0  0  0  0
   19.1159  -13.3182  -14.6587 O   0  0  0  0  0  0  0  0  0  0  0  0
   20.3988  -10.3651  -16.9691 C   0  0  0  0  0  0  0  0  0  0  0  0
   19.2262   -9.7357  -16.2901 C   0  0  1  0  0  0  0  0  0  0  0  0
   18.2272   -9.4650  -17.2626 O   0  0  0  0  0  0  0  0  0  0  0  0
   18.6144  -10.6063  -15.2048 C   0  0  2  0  0  0  0  0  0  0  0  0
   17.9851  -11.7439  -15.9115 N   0  0  0  0  0  0  0  0  0  0  0  0
   17.5603   -9.9596  -14.4311 C   0  0  0  0  0  0  0  0  0  0  0  0
   16.3618   -9.9399  -14.8739 O   0  0  0  0  0  0  0  0  0  0  0  0
   17.7827   -9.3351  -13.1827 N   0  0  0  0  0  0  0  0  0  0  0  0
   16.6942   -8.6535  -12.5258 C   0  0  1  0  0  0  0  0  0  0  0  0
   16.9488   -8.7142  -11.0158 C   0  0  0  0  0  0  0  0  0  0  0  0
   16.8656  -10.4496  -10.4929 S   0  0  0  0  0  0  0  0  0  0  0  0
   16.6211   -7.2342  -12.9428 C   0  0  0  0  0  0  0  0  0  0  0  0
   17.6059   -6.7537  -13.5614 O   0  0  0  0  0  0  0  0  0  0  0  0
   15.5222   -6.4179  -12.6828 O   0  0  0  0  0  0  0  0  0  0  0  0
  2  3  1  0
  2  5  1  0
  2  1  1  1
  4  3  1  0
  5  6  2  0
  8  7  1  6
  8  9  1  0
  8 10  1  0
 10 12  1  0
 10 11  1  6
 11  5  1  0
 12 13  2  0
 14 12  1  0
 14 15  1  0
 15 18  1  0
 16 17  1  0
 15 16  1  1
 18 19  2  0
 18 20  1  0
M  END
$$$$
