CTC.pdb
     RDKit          3D

 20 19  0  0  1  0  0  0  0  0999 V2000
   16.2163  -13.9380  -14.5706 N   0  0  0  0  0  0  0  0  0  0  0  0
   15.5980  -12.6525  -14.3125 C   0  0  1  0  0  0  0  0  0  0  0  0
   14.3686  -12.9439  -13.4443 C   0  0  0  0  0  0  0  0  0  0  0  0
   13.2271  -13.9280  -14.4400 S   0  0  0  0  0  0  0  0  0  0  0  0
   16.5020  -11.7666  -13.5265 C   0  0  0  0  0  0  0  0  0  0  0  0
   17.2176  -12.1927  -12.6054 O   0  0  0  0  0  0  0  0  0  0  0  0
   19.1835   -9.5925  -14.9977 C   0  0  0  0  0  0  0  0  0  0  0  0
   18.1972   -8.7275  -14.2828 C   0  0  1  0  0  0  0  0  0  0  0  0
   17.2511   -8.2408  -15.2236 O   0  0  0  0  0  0  0  0  0  0  0  0
   17.4449   -9.4508  -13.1777 C   0  0  2  0  0  0  0  0  0  0  0  0
   16.5266  -10.3861  -13.8645 N   0  0  0  0  0  0  0  0  0  0  0  0
   16.6160   -8.5879  -12.3432 C   0  0  0  0  0  0  0  0  0  0  0  0
   15.4474   -8.2502  -12.7344 O   0  0  0  0  0  0  0  0  0  0  0  0
   17.0319   -8.0859  -11.0890 N   0  0  0  0  0  0  0  0  0  0  0  0
   16.1581   -7.2067  -10.3511 C   0  0  1  0  0  0  0  0  0  0  0  0
   16.5186   -7.3286   -8.8666 C   0  0  0  0  0  0  0  0  0  0  0  0
   15.0071   -7.0906   -7.8915 S   0  0  0  0  0  0  0  0  0  0  0  0
   16.3346   -5.7980  -10.7729 C   0  0  0  0  0  0  0  0  0  0  0  0
   17.4732   -5.4451  -11.1759 O   0  0  0  0  0  0  0  0  0  0  0  0
   15.3065   -4.8579  -10.7432 O   0  0  0  0  0  0  0  0  0  0  0  0
  2  3  1  0
  2  5  1  0
  2  1  1  1
  4  3  1  0
  5  6  2  0
  8  7  1  6
  8  9  1  0
  8 10  1  0
 10 12  1  0
 10 11  1  6
 11  5  1  0
 12 13  2  0
 14 12  1  0
 14 15  1  0
 15 18  1  0
 16 17  1  0
 15 16  1  1
 18 19  2  0
 18 20  1  0
M  END
$$$$
