CTC.pdb
     RDKit          3D

 20 19  0  0  1  0  0  0  0  0999 V2000
   15.8392  -11.4733  -16.5644 N   0  0  0  0  0  0  0  0  0  0  0  0
   16.7544  -10.9283  -15.5810 C   0  0  1  0  0  0  0  0  0  0  0  0
   17.8086  -12.0149  -15.3400 C   0  0  0  0  0  0  0  0  0  0  0  0
   17.1080  -13.1936  -14.1641 S   0  0  0  0  0  0  0  0  0  0  0  0
   17.4610   -9.7273  -16.1082 C   0  0  0  0  0  0  0  0  0  0  0  0
   17.8693   -9.6542  -17.2788 O   0  0  0  0  0  0  0  0  0  0  0  0
   16.1859   -6.5529  -16.8347 C   0  0  0  0  0  0  0  0  0  0  0  0
   17.1452   -6.3562  -15.7064 C   0  0  1  0  0  0  0  0  0  0  0  0
   16.4336   -6.4504  -14.4810 O   0  0  0  0  0  0  0  0  0  0  0  0
   18.2732   -7.3748  -15.6846 C   0  0  2  0  0  0  0  0  0  0  0  0
   17.6622   -8.6386  -15.2167 N   0  0  0  0  0  0  0  0  0  0  0  0
   19.3536   -7.0632  -14.7553 C   0  0  0  0  0  0  0  0  0  0  0  0
   19.1435   -7.0960  -13.4953 O   0  0  0  0  0  0  0  0  0  0  0  0
   20.6605   -6.7183  -15.1689 N   0  0  0  0  0  0  0  0  0  0  0  0
   21.6623   -6.4144  -14.1764 C   0  0  1  0  0  0  0  0  0  0  0  0
   22.9964   -6.9849  -14.6698 C   0  0  0  0  0  0  0  0  0  0  0  0
   22.9081   -8.7952  -14.5861 S   0  0  0  0  0  0  0  0  0  0  0  0
   21.8060   -4.9521  -13.9903 C   0  0  0  0  0  0  0  0  0  0  0  0
   21.4289   -4.2022  -14.9278 O   0  0  0  0  0  0  0  0  0  0  0  0
   22.3343   -4.3778  -12.8359 O   0  0  0  0  0  0  0  0  0  0  0  0
  2  3  1  0
  2  5  1  0
  2  1  1  6
  4  3  1  0
  5  6  2  0
  8  7  1  6
  8  9  1  0
  8 10  1  0
 10 12  1  0
 10 11  1  1
 11  5  1  0
 12 13  2  0
 14 12  1  0
 14 15  1  0
 15 18  1  0
 16 17  1  0
 15 16  1  6
 18 19  2  0
 18 20  1  0
M  END
$$$$
