CTC.pdb
     RDKit          3D

 20 19  0  0  1  0  0  0  0  0999 V2000
   17.3842  -12.7555  -16.5685 N   0  0  0  0  0  0  0  0  0  0  0  0
   17.3310  -11.5326  -15.7917 C   0  0  1  0  0  0  0  0  0  0  0  0
   17.6367  -11.9394  -14.3457 C   0  0  0  0  0  0  0  0  0  0  0  0
   16.1974  -12.8353  -13.7223 S   0  0  0  0  0  0  0  0  0  0  0  0
   18.3878  -10.5740  -16.2207 C   0  0  0  0  0  0  0  0  0  0  0  0
   19.5329  -10.9396  -16.5325 O   0  0  0  0  0  0  0  0  0  0  0  0
   17.9332   -8.2000  -19.0692 C   0  0  0  0  0  0  0  0  0  0  0  0
   18.2379   -7.4063  -17.8407 C   0  0  1  0  0  0  0  0  0  0  0  0
   17.0158   -6.9604  -17.2710 O   0  0  0  0  0  0  0  0  0  0  0  0
   19.0001   -8.1907  -16.7852 C   0  0  2  0  0  0  0  0  0  0  0  0
   18.0456   -9.1951  -16.2658 N   0  0  0  0  0  0  0  0  0  0  0  0
   19.4389   -7.3995  -15.6409 C   0  0  0  0  0  0  0  0  0  0  0  0
   18.6697   -7.2537  -14.6309 O   0  0  0  0  0  0  0  0  0  0  0  0
   20.6998   -6.7646  -15.5714 N   0  0  0  0  0  0  0  0  0  0  0  0
   21.0040   -5.9108  -14.4491 C   0  0  1  0  0  0  0  0  0  0  0  0
   22.0388   -6.6334  -13.5798 C   0  0  0  0  0  0  0  0  0  0  0  0
   22.4882   -5.5414  -12.2022 S   0  0  0  0  0  0  0  0  0  0  0  0
   21.5728   -4.6189  -14.8973 C   0  0  0  0  0  0  0  0  0  0  0  0
   22.1838   -4.5976  -15.9971 O   0  0  0  0  0  0  0  0  0  0  0  0
   21.4621   -3.4402  -14.1625 O   0  0  0  0  0  0  0  0  0  0  0  0
  2  3  1  0
  2  5  1  0
  2  1  1  6
  4  3  1  0
  5  6  2  0
  8  7  1  6
  8  9  1  0
  8 10  1  0
 10 12  1  0
 10 11  1  1
 11  5  1  0
 12 13  2  0
 14 12  1  0
 14 15  1  0
 15 18  1  0
 16 17  1  0
 15 16  1  1
 18 19  2  0
 18 20  1  0
M  END
$$$$
