CTC.pdb
     RDKit          3D

 20 19  0  0  1  0  0  0  0  0999 V2000
   23.9084  -12.9045  -18.2005 N   0  0  0  0  0  0  0  0  0  0  0  0
   23.8197  -12.1214  -16.9837 C   0  0  1  0  0  0  0  0  0  0  0  0
   25.2551  -11.6989  -16.6500 C   0  0  0  0  0  0  0  0  0  0  0  0
   26.1524  -13.1857  -16.1526 S   0  0  0  0  0  0  0  0  0  0  0  0
   23.0251  -10.8794  -17.1975 C   0  0  0  0  0  0  0  0  0  0  0  0
   23.1654  -10.1628  -18.2020 O   0  0  0  0  0  0  0  0  0  0  0  0
   19.2769  -11.0358  -17.0717 C   0  0  0  0  0  0  0  0  0  0  0  0
   19.7451  -10.0122  -16.0894 C   0  0  1  0  0  0  0  0  0  0  0  0
   19.8182  -10.6128  -14.8046 O   0  0  0  0  0  0  0  0  0  0  0  0
   21.1086   -9.4296  -16.4239 C   0  0  2  0  0  0  0  0  0  0  0  0
   22.0780  -10.5247  -16.1987 N   0  0  0  0  0  0  0  0  0  0  0  0
   21.5216   -8.3228  -15.5680 C   0  0  0  0  0  0  0  0  0  0  0  0
   22.5189   -8.4600  -14.7810 O   0  0  0  0  0  0  0  0  0  0  0  0
   20.8726   -7.0672  -15.5523 N   0  0  0  0  0  0  0  0  0  0  0  0
   21.3769   -6.0180  -14.7002 C   0  0  1  0  0  0  0  0  0  0  0  0
   22.7381   -5.5816  -15.2528 C   0  0  0  0  0  0  0  0  0  0  0  0
   23.3301   -4.1782  -14.2669 S   0  0  0  0  0  0  0  0  0  0  0  0
   20.4662   -4.8501  -14.6923 C   0  0  0  0  0  0  0  0  0  0  0  0
   19.8011   -4.6183  -15.7351 O   0  0  0  0  0  0  0  0  0  0  0  0
   20.3158   -4.0069  -13.5932 O   0  0  0  0  0  0  0  0  0  0  0  0
  2  3  1  0
  2  5  1  0
  2  1  1  6
  4  3  1  0
  5  6  2  0
  8  7  1  6
  8  9  1  0
  8 10  1  0
 10 12  1  0
 10 11  1  1
 11  5  1  0
 12 13  2  0
 14 12  1  0
 14 15  1  0
 15 18  1  0
 16 17  1  0
 15 16  1  6
 18 19  2  0
 18 20  1  0
M  END
$$$$
