CTC.pdb
     RDKit          3D

 20 19  0  0  1  0  0  0  0  0999 V2000
   20.7555  -13.5913  -18.0145 N   0  0  0  0  0  0  0  0  0  0  0  0
   21.2498  -12.2681  -18.3408 C   0  0  1  0  0  0  0  0  0  0  0  0
   20.0433  -11.4889  -18.8765 C   0  0  0  0  0  0  0  0  0  0  0  0
   19.6781  -12.1285  -20.5259 S   0  0  0  0  0  0  0  0  0  0  0  0
   21.7375  -11.5588  -17.1248 C   0  0  0  0  0  0  0  0  0  0  0  0
   21.0517  -11.4523  -16.0950 O   0  0  0  0  0  0  0  0  0  0  0  0
   25.8420   -9.7328  -15.0113 C   0  0  0  0  0  0  0  0  0  0  0  0
   25.0784  -10.5470  -16.0042 C   0  0  1  0  0  0  0  0  0  0  0  0
   25.2550  -11.9226  -15.6984 O   0  0  0  0  0  0  0  0  0  0  0  0
   23.5884  -10.2469  -16.0174 C   0  0  2  0  0  0  0  0  0  0  0  0
   23.0401  -10.9920  -17.1723 N   0  0  0  0  0  0  0  0  0  0  0  0
   23.2546   -8.8426  -16.2288 C   0  0  0  0  0  0  0  0  0  0  0  0
   23.2619   -8.3539  -17.4094 O   0  0  0  0  0  0  0  0  0  0  0  0
   22.9102   -7.9584  -15.1813 N   0  0  0  0  0  0  0  0  0  0  0  0
   22.5823   -6.5875  -15.4882 C   0  0  1  0  0  0  0  0  0  0  0  0
   21.1369   -6.5558  -15.9965 C   0  0  0  0  0  0  0  0  0  0  0  0
   21.1450   -6.9661  -17.7639 S   0  0  0  0  0  0  0  0  0  0  0  0
   22.6861   -5.7295  -14.2855 C   0  0  0  0  0  0  0  0  0  0  0  0
   22.8514   -6.2958  -13.1740 O   0  0  0  0  0  0  0  0  0  0  0  0
   22.6098   -4.3389  -14.3310 O   0  0  0  0  0  0  0  0  0  0  0  0
  2  3  1  0
  2  5  1  0
  2  1  1  1
  4  3  1  0
  5  6  2  0
  8  7  1  1
  8  9  1  0
  8 10  1  0
 10 12  1  0
 10 11  1  6
 11  5  1  0
 12 13  2  0
 14 12  1  0
 14 15  1  0
 15 18  1  0
 16 17  1  0
 15 16  1  1
 18 19  2  0
 18 20  1  0
M  END
$$$$
