VWF.pdb
     RDKit          3D

 33 35  0  0  1  0  0  0  0  0999 V2000
   25.8245  -18.6285  -15.9262 C   0  0  0  0  0  0  0  0  0  0  0  0
   27.2196  -18.2302  -15.4928 C   0  0  2  0  0  0  0  0  0  0  0  0
   28.1322  -18.1174  -16.6687 C   0  0  0  0  0  0  0  0  0  0  0  0
   27.6953  -19.2668  -14.4904 C   0  0  2  0  0  0  0  0  0  0  0  0
   27.7450  -20.5933  -15.0242 N   0  0  0  0  0  0  0  0  0  0  0  0
   26.9013  -19.2504  -13.2542 C   0  0  0  0  0  0  0  0  0  0  0  0
   26.6069  -18.1733  -12.7133 O   0  0  0  0  0  0  0  0  0  0  0  0
   26.4817  -20.5084  -12.6945 N   0  0  0  0  0  0  0  0  0  0  0  0
   25.6832  -20.5373  -11.4997 C   0  0  1  0  0  0  0  0  0  0  0  0
   24.4189  -21.3010  -11.5840 C   0  0  0  0  0  0  0  0  0  0  0  0
   23.3074  -20.6712  -12.2994 C   0  0  0  0  0  0  0  0  0  0  0  0
   23.0364  -20.5268  -13.6393 C   0  0  0  0  0  0  0  0  0  0  0  0
   21.8521  -19.8621  -13.7888 N   0  0  0  0  0  0  0  0  0  0  0  0
   21.3674  -19.5830  -12.5666 C   0  0  0  0  0  0  0  0  0  0  0  0
   20.2067  -18.9306  -12.1864 C   0  0  0  0  0  0  0  0  0  0  0  0
   19.9570  -18.7840  -10.8493 C   0  0  0  0  0  0  0  0  0  0  0  0
   20.8026  -19.2533   -9.8730 C   0  0  0  0  0  0  0  0  0  0  0  0
   21.9475  -19.8971  -10.2881 C   0  0  0  0  0  0  0  0  0  0  0  0
   22.2427  -20.0692  -11.6239 C   0  0  0  0  0  0  0  0  0  0  0  0
   26.5233  -20.9877  -10.3315 C   0  0  0  0  0  0  0  0  0  0  0  0
   27.1374  -22.0495  -10.4297 O   0  0  0  0  0  0  0  0  0  0  0  0
   26.5859  -20.1926   -9.1611 N   0  0  0  0  0  0  0  0  0  0  0  0
   27.2977  -20.5597   -7.9526 C   0  0  1  0  0  0  0  0  0  0  0  0
   28.1422  -19.4001   -7.5486 C   0  0  0  0  0  0  0  0  0  0  0  0
   28.7201  -19.6206   -6.2062 C   0  0  0  0  0  0  0  0  0  0  0  0
   29.8417  -20.3999   -5.9711 C   0  0  0  0  0  0  0  0  0  0  0  0
   30.3399  -20.5822   -4.6995 C   0  0  0  0  0  0  0  0  0  0  0  0
   29.7086  -19.9738   -3.6235 C   0  0  0  0  0  0  0  0  0  0  0  0
   28.5900  -19.1900   -3.8143 C   0  0  0  0  0  0  0  0  0  0  0  0
   28.1282  -19.0359   -5.0965 C   0  0  0  0  0  0  0  0  0  0  0  0
   26.3958  -21.0841   -6.9143 C   0  0  0  0  0  0  0  0  0  0  0  0
   26.8181  -21.6518   -5.8749 O   0  0  0  0  0  0  0  0  0  0  0  0
   25.0164  -20.9810   -7.0201 O   0  0  0  0  0  0  0  0  0  0  0  0
  2  1  1  6
  2  3  1  0
  4  2  1  0
  4  5  1  6
  6  7  2  0
  6  4  1  0
  8  6  1  0
  9  8  1  0
 10 11  1  0
  9 10  1  6
 11 19  1  0
 12 13  1  0
 12 11  2  0
 13 14  1  0
 14 19  2  0
 14 15  1  0
 15 16  2  0
 16 17  1  0
 18 17  2  0
 19 18  1  0
 20 22  1  0
 20  9  1  0
 21 20  2  0
 23 22  1  0
 23 31  1  0
 24 25  1  0
 23 24  1  1
 25 30  1  0
 26 25  2  0
 26 27  1  0
 27 28  2  0
 28 29  1  0
 30 29  2  0
 31 33  1  0
 32 31  2  0
M  END
$$$$
