VWF.pdb
     RDKit          3D

 33 35  0  0  1  0  0  0  0  0999 V2000
   26.2944  -18.8719  -15.3389 C   0  0  0  0  0  0  0  0  0  0  0  0
   27.5721  -18.7780  -14.5318 C   0  0  2  0  0  0  0  0  0  0  0  0
   28.6497  -18.1039  -15.3145 C   0  0  0  0  0  0  0  0  0  0  0  0
   27.9533  -20.1896  -14.1222 C   0  0  2  0  0  0  0  0  0  0  0  0
   28.2774  -21.0353  -15.2296 N   0  0  0  0  0  0  0  0  0  0  0  0
   26.9233  -20.8239  -13.2882 C   0  0  0  0  0  0  0  0  0  0  0  0
   26.2544  -21.7706  -13.7309 O   0  0  0  0  0  0  0  0  0  0  0  0
   26.7143  -20.3179  -11.9570 N   0  0  0  0  0  0  0  0  0  0  0  0
   25.7349  -20.9258  -11.0983 C   0  0  1  0  0  0  0  0  0  0  0  0
   26.0290  -20.8837   -9.6490 C   0  0  0  0  0  0  0  0  0  0  0  0
   27.4353  -20.9788   -9.2523 C   0  0  0  0  0  0  0  0  0  0  0  0
   28.5107  -21.6243   -9.8148 C   0  0  0  0  0  0  0  0  0  0  0  0
   29.6219  -21.3919   -9.0544 N   0  0  0  0  0  0  0  0  0  0  0  0
   29.2693  -20.6097   -8.0197 C   0  0  0  0  0  0  0  0  0  0  0  0
   30.0266  -20.0988   -6.9791 C   0  0  0  0  0  0  0  0  0  0  0  0
   29.3997  -19.3165   -6.0480 C   0  0  0  0  0  0  0  0  0  0  0  0
   28.0594  -19.0173   -6.1004 C   0  0  0  0  0  0  0  0  0  0  0  0
   27.3377  -19.5427   -7.1495 C   0  0  0  0  0  0  0  0  0  0  0  0
   27.9248  -20.3363   -8.1121 C   0  0  0  0  0  0  0  0  0  0  0  0
   24.3684  -20.3650  -11.4007 C   0  0  0  0  0  0  0  0  0  0  0  0
   24.1690  -19.1691  -11.1905 O   0  0  0  0  0  0  0  0  0  0  0  0
   23.3559  -21.2140  -11.9107 N   0  0  0  0  0  0  0  0  0  0  0  0
   22.0047  -20.7906  -12.2217 C   0  0  1  0  0  0  0  0  0  0  0  0
   22.0905  -19.6575  -13.1859 C   0  0  0  0  0  0  0  0  0  0  0  0
   22.5083  -20.1399  -14.5191 C   0  0  0  0  0  0  0  0  0  0  0  0
   23.7537  -19.8873  -15.0720 C   0  0  0  0  0  0  0  0  0  0  0  0
   24.0954  -20.3525  -16.3232 C   0  0  0  0  0  0  0  0  0  0  0  0
   23.1754  -21.0925  -17.0528 C   0  0  0  0  0  0  0  0  0  0  0  0
   21.9253  -21.3665  -16.5388 C   0  0  0  0  0  0  0  0  0  0  0  0
   21.6275  -20.8838  -15.2900 C   0  0  0  0  0  0  0  0  0  0  0  0
   21.1510  -21.9162  -12.6350 C   0  0  0  0  0  0  0  0  0  0  0  0
   19.9154  -21.7918  -12.8314 O   0  0  0  0  0  0  0  0  0  0  0  0
   21.6625  -23.1900  -12.8356 O   0  0  0  0  0  0  0  0  0  0  0  0
  2  1  1  6
  2  3  1  0
  4  2  1  0
  4  5  1  6
  6  7  2  0
  6  4  1  0
  8  6  1  0
  9  8  1  0
 10 11  1  0
  9 10  1  1
 11 19  1  0
 12 13  1  0
 12 11  2  0
 13 14  1  0
 14 19  2  0
 14 15  1  0
 15 16  2  0
 16 17  1  0
 18 17  2  0
 19 18  1  0
 20 22  1  0
 20  9  1  0
 21 20  2  0
 23 22  1  0
 23 31  1  0
 24 25  1  0
 23 24  1  6
 25 30  1  0
 26 25  2  0
 26 27  1  0
 27 28  2  0
 28 29  1  0
 30 29  2  0
 31 33  1  0
 32 31  2  0
M  END
$$$$
