VWF.pdb
     RDKit          3D

 33 35  0  0  1  0  0  0  0  0999 V2000
   28.6820  -22.0638  -18.6388 C   0  0  0  0  0  0  0  0  0  0  0  0
   28.6218  -21.5755  -17.2067 C   0  0  2  0  0  0  0  0  0  0  0  0
   27.8884  -22.5464  -16.3420 C   0  0  0  0  0  0  0  0  0  0  0  0
   27.9652  -20.2065  -17.2227 C   0  0  2  0  0  0  0  0  0  0  0  0
   28.6195  -19.2718  -18.0859 N   0  0  0  0  0  0  0  0  0  0  0  0
   27.8308  -19.6384  -15.8743 C   0  0  0  0  0  0  0  0  0  0  0  0
   28.7904  -19.0620  -15.3391 O   0  0  0  0  0  0  0  0  0  0  0  0
   26.5665  -19.7714  -15.1994 N   0  0  0  0  0  0  0  0  0  0  0  0
   26.4038  -19.2665  -13.8634 C   0  0  1  0  0  0  0  0  0  0  0  0
   25.3941  -18.1988  -13.6931 C   0  0  0  0  0  0  0  0  0  0  0  0
   24.0059  -18.5387  -14.0115 C   0  0  0  0  0  0  0  0  0  0  0  0
   23.0956  -19.3675  -13.3999 C   0  0  0  0  0  0  0  0  0  0  0  0
   21.9185  -19.3307  -14.0927 N   0  0  0  0  0  0  0  0  0  0  0  0
   22.0669  -18.4924  -15.1328 C   0  0  0  0  0  0  0  0  0  0  0  0
   21.1722  -18.1172  -16.1208 C   0  0  0  0  0  0  0  0  0  0  0  0
   21.5962  -17.2309  -17.0729 C   0  0  0  0  0  0  0  0  0  0  0  0
   22.8635  -16.6998  -17.0912 C   0  0  0  0  0  0  0  0  0  0  0  0
   23.7263  -17.0955  -16.0930 C   0  0  0  0  0  0  0  0  0  0  0  0
   23.3453  -17.9861  -15.1118 C   0  0  0  0  0  0  0  0  0  0  0  0
   26.1658  -20.4087  -12.9085 C   0  0  0  0  0  0  0  0  0  0  0  0
   25.6384  -21.4321  -13.3429 O   0  0  0  0  0  0  0  0  0  0  0  0
   26.5462  -20.2818  -11.5501 N   0  0  0  0  0  0  0  0  0  0  0  0
   26.3400  -21.2992  -10.5381 C   0  0  1  0  0  0  0  0  0  0  0  0
   27.6334  -21.5064   -9.8271 C   0  0  0  0  0  0  0  0  0  0  0  0
   27.7183  -20.6335   -8.6374 C   0  0  0  0  0  0  0  0  0  0  0  0
   28.5853  -20.8582   -7.5799 C   0  0  0  0  0  0  0  0  0  0  0  0
   28.6233  -20.0195   -6.4874 C   0  0  0  0  0  0  0  0  0  0  0  0
   27.7761  -18.9213   -6.4381 C   0  0  0  0  0  0  0  0  0  0  0  0
   26.8985  -18.6617   -7.4698 C   0  0  0  0  0  0  0  0  0  0  0  0
   26.8940  -19.5226   -8.5375 C   0  0  0  0  0  0  0  0  0  0  0  0
   25.1813  -21.0027   -9.6802 C   0  0  0  0  0  0  0  0  0  0  0  0
   24.6830  -21.8522   -8.8985 O   0  0  0  0  0  0  0  0  0  0  0  0
   24.5665  -19.7591   -9.6813 O   0  0  0  0  0  0  0  0  0  0  0  0
  2  1  1  6
  2  3  1  0
  4  2  1  0
  4  5  1  6
  6  7  2  0
  6  4  1  0
  8  6  1  0
  9  8  1  0
 10 11  1  0
  9 10  1  6
 11 19  1  0
 12 13  1  0
 12 11  2  0
 13 14  1  0
 14 19  2  0
 14 15  1  0
 15 16  2  0
 16 17  1  0
 18 17  2  0
 19 18  1  0
 20 22  1  0
 20  9  1  0
 21 20  2  0
 23 22  1  0
 23 31  1  0
 24 25  1  0
 23 24  1  1
 25 30  1  0
 26 25  2  0
 26 27  1  0
 27 28  2  0
 28 29  1  0
 30 29  2  0
 31 33  1  0
 32 31  2  0
M  END
$$$$
