VWF.pdb
     RDKit          3D

 33 35  0  0  1  0  0  0  0  0999 V2000
   22.7800   -9.7341  -19.1871 C   0  0  0  0  0  0  0  0  0  0  0  0
   24.1066   -9.4913  -19.8759 C   0  0  2  0  0  0  0  0  0  0  0  0
   24.3456  -10.5039  -20.9463 C   0  0  0  0  0  0  0  0  0  0  0  0
   25.1835   -9.5175  -18.8058 C   0  0  2  0  0  0  0  0  0  0  0  0
   25.3887  -10.8141  -18.2370 N   0  0  0  0  0  0  0  0  0  0  0  0
   24.9350   -8.5343  -17.7425 C   0  0  0  0  0  0  0  0  0  0  0  0
   24.5193   -8.9032  -16.6332 O   0  0  0  0  0  0  0  0  0  0  0  0
   25.1837   -7.1449  -18.0245 N   0  0  0  0  0  0  0  0  0  0  0  0
   25.0329   -6.1592  -16.9892 C   0  0  1  0  0  0  0  0  0  0  0  0
   25.7878   -4.9010  -17.1782 C   0  0  0  0  0  0  0  0  0  0  0  0
   25.4151   -4.0667  -18.3223 C   0  0  0  0  0  0  0  0  0  0  0  0
   24.4174   -3.1380  -18.5006 C   0  0  0  0  0  0  0  0  0  0  0  0
   24.5021   -2.6249  -19.7641 N   0  0  0  0  0  0  0  0  0  0  0  0
   25.5366   -3.2123  -20.3897 C   0  0  0  0  0  0  0  0  0  0  0  0
   26.0309   -3.0358  -21.6711 C   0  0  0  0  0  0  0  0  0  0  0  0
   27.1155   -3.7773  -22.0524 C   0  0  0  0  0  0  0  0  0  0  0  0
   27.7323   -4.6840  -21.2242 C   0  0  0  0  0  0  0  0  0  0  0  0
   27.2136   -4.8331  -19.9568 C   0  0  0  0  0  0  0  0  0  0  0  0
   26.1222   -4.1086  -19.5267 C   0  0  0  0  0  0  0  0  0  0  0  0
   23.5694   -5.8932  -16.7429 C   0  0  0  0  0  0  0  0  0  0  0  0
   22.7911   -5.9913  -17.6909 O   0  0  0  0  0  0  0  0  0  0  0  0
   23.1269   -5.5386  -15.4450 N   0  0  0  0  0  0  0  0  0  0  0  0
   21.7468   -5.2744  -15.0886 C   0  0  1  0  0  0  0  0  0  0  0  0
   20.9658   -6.5213  -15.3259 C   0  0  0  0  0  0  0  0  0  0  0  0
   21.2373   -7.5145  -14.2654 C   0  0  0  0  0  0  0  0  0  0  0  0
   20.6706   -7.4636  -13.0018 C   0  0  0  0  0  0  0  0  0  0  0  0
   20.9600   -8.4095  -12.0427 C   0  0  0  0  0  0  0  0  0  0  0  0
   21.8393   -9.4408  -12.3422 C   0  0  0  0  0  0  0  0  0  0  0  0
   22.4247   -9.5281  -13.5878 C   0  0  0  0  0  0  0  0  0  0  0  0
   22.1083   -8.5652  -14.5120 C   0  0  0  0  0  0  0  0  0  0  0  0
   21.6225   -4.6906  -13.7431 C   0  0  0  0  0  0  0  0  0  0  0  0
   22.6175   -4.4681  -13.0074 O   0  0  0  0  0  0  0  0  0  0  0  0
   20.3917   -4.3468  -13.2032 O   0  0  0  0  0  0  0  0  0  0  0  0
  2  1  1  1
  2  3  1  0
  4  2  1  0
  4  5  1  1
  6  7  2  0
  6  4  1  0
  8  6  1  0
  9  8  1  0
 10 11  1  0
  9 10  1  6
 11 19  1  0
 12 13  1  0
 12 11  2  0
 13 14  1  0
 14 19  2  0
 14 15  1  0
 15 16  2  0
 16 17  1  0
 18 17  2  0
 19 18  1  0
 20 22  1  0
 20  9  1  0
 21 20  2  0
 23 22  1  0
 23 31  1  0
 24 25  1  0
 23 24  1  1
 25 30  1  0
 26 25  2  0
 26 27  1  0
 27 28  2  0
 28 29  1  0
 30 29  2  0
 31 33  1  0
 32 31  2  0
M  END
$$$$
