VWF.pdb
     RDKit          3D

 33 35  0  0  1  0  0  0  0  0999 V2000
   29.0492  -21.1496  -17.5123 C   0  0  0  0  0  0  0  0  0  0  0  0
   28.5585  -20.7322  -16.1419 C   0  0  2  0  0  0  0  0  0  0  0  0
   28.5371  -21.8946  -15.2056 C   0  0  0  0  0  0  0  0  0  0  0  0
   27.1846  -20.1115  -16.3229 C   0  0  2  0  0  0  0  0  0  0  0  0
   27.1807  -18.9865  -17.2066 N   0  0  0  0  0  0  0  0  0  0  0  0
   26.5655  -19.7476  -15.0410 C   0  0  0  0  0  0  0  0  0  0  0  0
   26.8077  -18.6487  -14.5183 O   0  0  0  0  0  0  0  0  0  0  0  0
   25.6809  -20.6953  -14.4156 N   0  0  0  0  0  0  0  0  0  0  0  0
   24.9974  -20.3518  -13.1987 C   0  0  1  0  0  0  0  0  0  0  0  0
   23.5194  -20.3516  -13.2639 C   0  0  0  0  0  0  0  0  0  0  0  0
   22.8936  -19.3912  -14.1751 C   0  0  0  0  0  0  0  0  0  0  0  0
   22.9985  -18.0255  -14.2901 C   0  0  0  0  0  0  0  0  0  0  0  0
   22.2073  -17.5994  -15.3193 N   0  0  0  0  0  0  0  0  0  0  0  0
   21.6030  -18.6718  -15.8591 C   0  0  0  0  0  0  0  0  0  0  0  0
   20.7143  -18.7663  -16.9168 C   0  0  0  0  0  0  0  0  0  0  0  0
   20.2494  -20.0063  -17.2604 C   0  0  0  0  0  0  0  0  0  0  0  0
   20.6238  -21.1551  -16.6058 C   0  0  0  0  0  0  0  0  0  0  0  0
   21.5092  -21.0229  -15.5588 C   0  0  0  0  0  0  0  0  0  0  0  0
   22.0053  -19.7950  -15.1753 C   0  0  0  0  0  0  0  0  0  0  0  0
   25.4998  -21.2124  -12.0673 C   0  0  0  0  0  0  0  0  0  0  0  0
   25.5511  -22.4299  -12.2388 O   0  0  0  0  0  0  0  0  0  0  0  0
   25.8945  -20.6114  -10.8470 N   0  0  0  0  0  0  0  0  0  0  0  0
   26.2675  -21.3417   -9.6515 C   0  0  1  0  0  0  0  0  0  0  0  0
   27.6445  -20.9198   -9.2682 C   0  0  0  0  0  0  0  0  0  0  0  0
   27.6322  -20.2315   -7.9603 C   0  0  0  0  0  0  0  0  0  0  0  0
   28.1618  -20.7754   -6.8009 C   0  0  0  0  0  0  0  0  0  0  0  0
   28.1204  -20.0978   -5.6018 C   0  0  0  0  0  0  0  0  0  0  0  0
   27.5360  -18.8402   -5.5464 C   0  0  0  0  0  0  0  0  0  0  0  0
   26.9977  -18.2630   -6.6773 C   0  0  0  0  0  0  0  0  0  0  0  0
   27.0605  -18.9728   -7.8493 C   0  0  0  0  0  0  0  0  0  0  0  0
   25.2497  -21.2328   -8.5938 C   0  0  0  0  0  0  0  0  0  0  0  0
   25.2759  -21.9394   -7.5541 O   0  0  0  0  0  0  0  0  0  0  0  0
   24.1943  -20.3365   -8.6804 O   0  0  0  0  0  0  0  0  0  0  0  0
  2  1  1  6
  2  3  1  0
  4  2  1  0
  4  5  1  6
  6  7  2  0
  6  4  1  0
  8  6  1  0
  9  8  1  0
 10 11  1  0
  9 10  1  6
 11 19  1  0
 12 13  1  0
 12 11  2  0
 13 14  1  0
 14 19  2  0
 14 15  1  0
 15 16  2  0
 16 17  1  0
 18 17  2  0
 19 18  1  0
 20 22  1  0
 20  9  1  0
 21 20  2  0
 23 22  1  0
 23 31  1  0
 24 25  1  0
 23 24  1  1
 25 30  1  0
 26 25  2  0
 26 27  1  0
 27 28  2  0
 28 29  1  0
 30 29  2  0
 31 33  1  0
 32 31  2  0
M  END
$$$$
