VWF.pdb
     RDKit          3D

 33 35  0  0  1  0  0  0  0  0999 V2000
   26.9730  -18.2693  -15.7236 C   0  0  0  0  0  0  0  0  0  0  0  0
   28.3645  -18.3849  -15.1375 C   0  0  2  0  0  0  0  0  0  0  0  0
   29.3497  -17.6050  -15.9432 C   0  0  0  0  0  0  0  0  0  0  0  0
   28.7089  -19.8625  -15.0774 C   0  0  2  0  0  0  0  0  0  0  0  0
   28.7859  -20.4814  -16.3649 N   0  0  0  0  0  0  0  0  0  0  0  0
   27.7892  -20.6131  -14.2116 C   0  0  0  0  0  0  0  0  0  0  0  0
   26.8812  -21.2981  -14.7073 O   0  0  0  0  0  0  0  0  0  0  0  0
   27.9702  -20.5289  -12.7861 N   0  0  0  0  0  0  0  0  0  0  0  0
   27.0417  -21.1764  -11.9003 C   0  0  1  0  0  0  0  0  0  0  0  0
   27.5720  -21.5588  -10.5731 C   0  0  0  0  0  0  0  0  0  0  0  0
   26.8523  -21.0592   -9.3998 C   0  0  0  0  0  0  0  0  0  0  0  0
   25.5214  -20.7980   -9.1762 C   0  0  0  0  0  0  0  0  0  0  0  0
   25.3607  -20.3500   -7.8955 N   0  0  0  0  0  0  0  0  0  0  0  0
   26.5669  -20.3231   -7.3033 C   0  0  0  0  0  0  0  0  0  0  0  0
   26.9314  -19.9502   -6.0204 C   0  0  0  0  0  0  0  0  0  0  0  0
   28.2539  -20.0236   -5.6780 C   0  0  0  0  0  0  0  0  0  0  0  0
   29.2305  -20.4490   -6.5462 C   0  0  0  0  0  0  0  0  0  0  0  0
   28.8313  -20.8121   -7.8136 C   0  0  0  0  0  0  0  0  0  0  0  0
   27.5106  -20.7552   -8.2055 C   0  0  0  0  0  0  0  0  0  0  0  0
   25.7880  -20.3482  -11.7760 C   0  0  0  0  0  0  0  0  0  0  0  0
   25.9027  -19.1528  -11.5077 O   0  0  0  0  0  0  0  0  0  0  0  0
   24.5220  -20.9543  -11.9655 N   0  0  0  0  0  0  0  0  0  0  0  0
   23.2526  -20.2625  -11.8567 C   0  0  1  0  0  0  0  0  0  0  0  0
   23.2588  -19.1378  -12.8345 C   0  0  0  0  0  0  0  0  0  0  0  0
   22.9297  -19.6259  -14.1903 C   0  0  0  0  0  0  0  0  0  0  0  0
   23.8821  -19.9244  -15.1517 C   0  0  0  0  0  0  0  0  0  0  0  0
   23.5261  -20.3702  -16.4059 C   0  0  0  0  0  0  0  0  0  0  0  0
   22.1835  -20.5266  -16.7209 C   0  0  0  0  0  0  0  0  0  0  0  0
   21.2042  -20.2410  -15.7929 C   0  0  0  0  0  0  0  0  0  0  0  0
   21.6034  -19.7998  -14.5571 C   0  0  0  0  0  0  0  0  0  0  0  0
   22.1082  -21.1834  -11.9513 C   0  0  0  0  0  0  0  0  0  0  0  0
   22.2221  -22.3638  -12.3690 O   0  0  0  0  0  0  0  0  0  0  0  0
   20.8268  -20.8018  -11.5811 O   0  0  0  0  0  0  0  0  0  0  0  0
  2  1  1  6
  2  3  1  0
  4  2  1  0
  4  5  1  6
  6  7  2  0
  6  4  1  0
  8  6  1  0
  9  8  1  0
 10 11  1  0
  9 10  1  1
 11 19  1  0
 12 13  1  0
 12 11  2  0
 13 14  1  0
 14 19  2  0
 14 15  1  0
 15 16  2  0
 16 17  1  0
 18 17  2  0
 19 18  1  0
 20 22  1  0
 20  9  1  0
 21 20  2  0
 23 22  1  0
 23 31  1  0
 24 25  1  0
 23 24  1  6
 25 30  1  0
 26 25  2  0
 26 27  1  0
 27 28  2  0
 28 29  1  0
 30 29  2  0
 31 33  1  0
 32 31  2  0
M  END
$$$$
