VWF.pdb
     RDKit          3D

 33 35  0  0  1  0  0  0  0  0999 V2000
   22.2060  -19.5952   -9.2702 C   0  0  0  0  0  0  0  0  0  0  0  0
   21.8715  -19.9122  -10.7126 C   0  0  2  0  0  0  0  0  0  0  0  0
   20.4811  -20.4417  -10.8343 C   0  0  0  0  0  0  0  0  0  0  0  0
   22.9110  -20.9001  -11.2116 C   0  0  2  0  0  0  0  0  0  0  0  0
   22.8261  -22.1818  -10.5818 N   0  0  0  0  0  0  0  0  0  0  0  0
   24.2780  -20.3730  -11.0996 C   0  0  0  0  0  0  0  0  0  0  0  0
   24.5347  -19.2154  -11.4650 O   0  0  0  0  0  0  0  0  0  0  0  0
   25.2997  -21.2317  -10.5608 N   0  0  0  0  0  0  0  0  0  0  0  0
   26.6813  -20.8404  -10.6263 C   0  0  1  0  0  0  0  0  0  0  0  0
   27.4689  -21.0348   -9.3892 C   0  0  0  0  0  0  0  0  0  0  0  0
   27.1207  -20.1967   -8.2401 C   0  0  0  0  0  0  0  0  0  0  0  0
   26.1314  -19.2623   -8.0459 C   0  0  0  0  0  0  0  0  0  0  0  0
   26.2289  -18.7618   -6.7783 N   0  0  0  0  0  0  0  0  0  0  0  0
   27.2628  -19.3634   -6.1654 C   0  0  0  0  0  0  0  0  0  0  0  0
   27.7652  -19.2054   -4.8847 C   0  0  0  0  0  0  0  0  0  0  0  0
   28.8452  -19.9607   -4.5172 C   0  0  0  0  0  0  0  0  0  0  0  0
   29.4493  -20.8640   -5.3584 C   0  0  0  0  0  0  0  0  0  0  0  0
   28.9227  -20.9947   -6.6246 C   0  0  0  0  0  0  0  0  0  0  0  0
   27.8356  -20.2557   -7.0410 C   0  0  0  0  0  0  0  0  0  0  0  0
   27.3445  -21.4952  -11.8115 C   0  0  0  0  0  0  0  0  0  0  0  0
   27.9799  -22.5324  -11.6250 O   0  0  0  0  0  0  0  0  0  0  0  0
   27.2268  -20.9106  -13.0962 N   0  0  0  0  0  0  0  0  0  0  0  0
   26.9546  -21.6471  -14.3149 C   0  0  1  0  0  0  0  0  0  0  0  0
   25.8084  -22.5623  -14.0504 C   0  0  0  0  0  0  0  0  0  0  0  0
   25.3806  -23.2330  -15.2961 C   0  0  0  0  0  0  0  0  0  0  0  0
   24.5984  -22.6263  -16.2658 C   0  0  0  0  0  0  0  0  0  0  0  0
   24.2182  -23.2953  -17.4087 C   0  0  0  0  0  0  0  0  0  0  0  0
   24.6249  -24.6084  -17.6003 C   0  0  0  0  0  0  0  0  0  0  0  0
   25.4043  -25.2488  -16.6598 C   0  0  0  0  0  0  0  0  0  0  0  0
   25.7593  -24.5453  -15.5372 C   0  0  0  0  0  0  0  0  0  0  0  0
   26.8059  -20.7591  -15.4793 C   0  0  0  0  0  0  0  0  0  0  0  0
   27.0753  -21.1282  -16.6506 O   0  0  0  0  0  0  0  0  0  0  0  0
   26.3546  -19.4533  -15.3534 O   0  0  0  0  0  0  0  0  0  0  0  0
  2  1  1  1
  2  3  1  0
  4  2  1  0
  4  5  1  1
  6  7  2  0
  6  4  1  0
  8  6  1  0
  9  8  1  0
 10 11  1  0
  9 10  1  1
 11 19  1  0
 12 13  1  0
 12 11  2  0
 13 14  1  0
 14 19  2  0
 14 15  1  0
 15 16  2  0
 16 17  1  0
 18 17  2  0
 19 18  1  0
 20 22  1  0
 20  9  1  0
 21 20  2  0
 23 22  1  0
 23 31  1  0
 24 25  1  0
 23 24  1  1
 25 30  1  0
 26 25  2  0
 26 27  1  0
 27 28  2  0
 28 29  1  0
 30 29  2  0
 31 33  1  0
 32 31  2  0
M  END
$$$$
