VWF.pdb
     RDKit          3D

 33 35  0  0  1  0  0  0  0  0999 V2000
   28.2495  -18.7735  -16.3519 C   0  0  0  0  0  0  0  0  0  0  0  0
   27.3497  -19.1803  -15.2040 C   0  0  2  0  0  0  0  0  0  0  0  0
   27.2698  -18.0982  -14.1789 C   0  0  0  0  0  0  0  0  0  0  0  0
   27.9007  -20.4755  -14.6342 C   0  0  2  0  0  0  0  0  0  0  0  0
   27.9163  -21.5508  -15.5777 N   0  0  0  0  0  0  0  0  0  0  0  0
   27.1985  -20.8882  -13.4113 C   0  0  0  0  0  0  0  0  0  0  0  0
   26.1010  -21.4626  -13.4829 O   0  0  0  0  0  0  0  0  0  0  0  0
   27.8146  -20.6070  -12.1412 N   0  0  0  0  0  0  0  0  0  0  0  0
   27.1464  -20.9627  -10.9193 C   0  0  1  0  0  0  0  0  0  0  0  0
   27.9756  -20.9303   -9.6945 C   0  0  0  0  0  0  0  0  0  0  0  0
   27.2693  -20.9498   -8.4120 C   0  0  0  0  0  0  0  0  0  0  0  0
   26.0382  -21.4384   -8.0443 C   0  0  0  0  0  0  0  0  0  0  0  0
   25.8466  -21.2148   -6.7100 N   0  0  0  0  0  0  0  0  0  0  0  0
   26.9354  -20.5932   -6.2256 C   0  0  0  0  0  0  0  0  0  0  0  0
   27.2275  -20.1583   -4.9438 C   0  0  0  0  0  0  0  0  0  0  0  0
   28.4322  -19.5468   -4.7285 C   0  0  0  0  0  0  0  0  0  0  0  0
   29.3597  -19.3469   -5.7227 C   0  0  0  0  0  0  0  0  0  0  0  0
   29.0352  -19.7926   -6.9851 C   0  0  0  0  0  0  0  0  0  0  0  0
   27.8337  -20.4143   -7.2514 C   0  0  0  0  0  0  0  0  0  0  0  0
   25.8943  -20.1379  -10.7601 C   0  0  0  0  0  0  0  0  0  0  0  0
   26.0124  -18.9249  -10.5901 O   0  0  0  0  0  0  0  0  0  0  0  0
   24.6261  -20.7669  -10.8064 N   0  0  0  0  0  0  0  0  0  0  0  0
   23.3576  -20.0651  -10.8046 C   0  0  1  0  0  0  0  0  0  0  0  0
   23.3917  -19.0551  -11.9000 C   0  0  0  0  0  0  0  0  0  0  0  0
   23.2041  -19.7063  -13.2135 C   0  0  0  0  0  0  0  0  0  0  0  0
   24.2093  -19.8320  -14.1593 C   0  0  0  0  0  0  0  0  0  0  0  0
   23.9845  -20.4415  -15.3744 C   0  0  0  0  0  0  0  0  0  0  0  0
   22.7238  -20.9440  -15.6650 C   0  0  0  0  0  0  0  0  0  0  0  0
   21.6960  -20.8398  -14.7512 C   0  0  0  0  0  0  0  0  0  0  0  0
   21.9641  -20.2255  -13.5546 C   0  0  0  0  0  0  0  0  0  0  0  0
   22.2117  -20.9887  -10.8244 C   0  0  0  0  0  0  0  0  0  0  0  0
   22.3403  -22.2224  -11.0299 O   0  0  0  0  0  0  0  0  0  0  0  0
   20.9123  -20.5505  -10.6142 O   0  0  0  0  0  0  0  0  0  0  0  0
  2  1  1  6
  2  3  1  0
  4  2  1  0
  4  5  1  6
  6  7  2  0
  6  4  1  0
  8  6  1  0
  9  8  1  0
 10 11  1  0
  9 10  1  1
 11 19  1  0
 12 13  1  0
 12 11  2  0
 13 14  1  0
 14 19  2  0
 14 15  1  0
 15 16  2  0
 16 17  1  0
 18 17  2  0
 19 18  1  0
 20 22  1  0
 20  9  1  0
 21 20  2  0
 23 22  1  0
 23 31  1  0
 24 25  1  0
 23 24  1  6
 25 30  1  0
 26 25  2  0
 26 27  1  0
 27 28  2  0
 28 29  1  0
 30 29  2  0
 31 33  1  0
 32 31  2  0
M  END
$$$$
