VWF.pdb
     RDKit          3D

 33 35  0  0  1  0  0  0  0  0999 V2000
   25.2141  -34.8502   -3.2435 C   0  0  0  0  0  0  0  0  0  0  0  0
   23.8899  -34.8498   -3.9779 C   0  0  2  0  0  0  0  0  0  0  0  0
   23.9131  -35.8093   -5.1212 C   0  0  0  0  0  0  0  0  0  0  0  0
   23.6215  -33.4242   -4.4263 C   0  0  2  0  0  0  0  0  0  0  0  0
   24.5603  -32.9461   -5.3943 N   0  0  0  0  0  0  0  0  0  0  0  0
   23.5449  -32.4903   -3.2945 C   0  0  0  0  0  0  0  0  0  0  0  0
   24.4415  -31.6521   -3.1125 O   0  0  0  0  0  0  0  0  0  0  0  0
   22.4116  -32.5777   -2.4115 N   0  0  0  0  0  0  0  0  0  0  0  0
   22.2815  -31.6636   -1.3099 C   0  0  1  0  0  0  0  0  0  0  0  0
   20.9001  -31.2743   -0.9511 C   0  0  0  0  0  0  0  0  0  0  0  0
   20.4736  -29.9220   -1.3165 C   0  0  0  0  0  0  0  0  0  0  0  0
   20.1133  -29.3617   -2.5188 C   0  0  0  0  0  0  0  0  0  0  0  0
   19.7855  -28.0498   -2.3227 N   0  0  0  0  0  0  0  0  0  0  0  0
   19.9315  -27.7691   -1.0164 C   0  0  0  0  0  0  0  0  0  0  0  0
   19.7239  -26.5898   -0.3209 C   0  0  0  0  0  0  0  0  0  0  0  0
   19.9528  -26.5870    1.0280 C   0  0  0  0  0  0  0  0  0  0  0  0
   20.3770  -27.6969    1.7185 C   0  0  0  0  0  0  0  0  0  0  0  0
   20.5729  -28.8521    0.9942 C   0  0  0  0  0  0  0  0  0  0  0  0
   20.3558  -28.9042   -0.3664 C   0  0  0  0  0  0  0  0  0  0  0  0
   23.0348  -32.1898   -0.1145 C   0  0  0  0  0  0  0  0  0  0  0  0
   22.9009  -33.3761    0.1835 O   0  0  0  0  0  0  0  0  0  0  0  0
   23.8673  -31.3202    0.6317 N   0  0  0  0  0  0  0  0  0  0  0  0
   24.6840  -31.7268    1.7584 C   0  0  1  0  0  0  0  0  0  0  0  0
   25.9054  -30.8728    1.7704 C   0  0  0  0  0  0  0  0  0  0  0  0
   26.7668  -31.2138    2.9220 C   0  0  0  0  0  0  0  0  0  0  0  0
   26.5619  -30.7305    4.2045 C   0  0  0  0  0  0  0  0  0  0  0  0
   27.3972  -31.0713    5.2460 C   0  0  0  0  0  0  0  0  0  0  0  0
   28.4715  -31.9184    5.0124 C   0  0  0  0  0  0  0  0  0  0  0  0
   28.7105  -32.4216    3.7508 C   0  0  0  0  0  0  0  0  0  0  0  0
   27.8541  -32.0563    2.7437 C   0  0  0  0  0  0  0  0  0  0  0  0
   23.9186  -31.7624    3.0152 C   0  0  0  0  0  0  0  0  0  0  0  0
   23.9786  -32.7291    3.8169 O   0  0  0  0  0  0  0  0  0  0  0  0
   23.0809  -30.7235    3.3939 O   0  0  0  0  0  0  0  0  0  0  0  0
  2  1  1  6
  2  3  1  0
  4  2  1  0
  4  5  1  6
  6  7  2  0
  6  4  1  0
  8  6  1  0
  9  8  1  0
 10 11  1  0
  9 10  1  1
 11 19  1  0
 12 13  1  0
 12 11  2  0
 13 14  1  0
 14 19  2  0
 14 15  1  0
 15 16  2  0
 16 17  1  0
 18 17  2  0
 19 18  1  0
 20 22  1  0
 20  9  1  0
 21 20  2  0
 23 22  1  0
 23 31  1  0
 24 25  1  0
 23 24  1  1
 25 30  1  0
 26 25  2  0
 26 27  1  0
 27 28  2  0
 28 29  1  0
 30 29  2  0
 31 33  1  0
 32 31  2  0
M  END
$$$$
