VWF.pdb
     RDKit          3D

 33 35  0  0  1  0  0  0  0  0999 V2000
   28.6106  -18.2952  -16.6179 C   0  0  0  0  0  0  0  0  0  0  0  0
   27.5906  -19.0111  -15.7577 C   0  0  2  0  0  0  0  0  0  0  0  0
   27.1174  -18.1325  -14.6476 C   0  0  0  0  0  0  0  0  0  0  0  0
   28.2424  -20.2844  -15.2480 C   0  0  2  0  0  0  0  0  0  0  0  0
   28.6865  -21.1539  -16.2937 N   0  0  0  0  0  0  0  0  0  0  0  0
   27.3752  -21.0185  -14.3163 C   0  0  0  0  0  0  0  0  0  0  0  0
   26.4092  -21.6707  -14.7417 O   0  0  0  0  0  0  0  0  0  0  0  0
   27.6758  -20.9571  -12.9101 N   0  0  0  0  0  0  0  0  0  0  0  0
   26.7653  -21.5206  -11.9511 C   0  0  1  0  0  0  0  0  0  0  0  0
   27.3329  -21.8224  -10.6187 C   0  0  0  0  0  0  0  0  0  0  0  0
   26.8200  -21.0489   -9.4861 C   0  0  0  0  0  0  0  0  0  0  0  0
   25.5866  -20.5003   -9.2268 C   0  0  0  0  0  0  0  0  0  0  0  0
   25.6191  -19.8761   -8.0118 N   0  0  0  0  0  0  0  0  0  0  0  0
   26.8521  -20.0200   -7.4964 C   0  0  0  0  0  0  0  0  0  0  0  0
   27.3840  -19.5739   -6.2982 C   0  0  0  0  0  0  0  0  0  0  0  0
   28.6912  -19.8692   -6.0226 C   0  0  0  0  0  0  0  0  0  0  0  0
   29.4943  -20.5850   -6.8776 C   0  0  0  0  0  0  0  0  0  0  0  0
   28.9315  -21.0125   -8.0600 C   0  0  0  0  0  0  0  0  0  0  0  0
   27.6190  -20.7397   -8.3823 C   0  0  0  0  0  0  0  0  0  0  0  0
   25.5338  -20.6573  -11.8438 C   0  0  0  0  0  0  0  0  0  0  0  0
   25.6818  -19.4517  -11.6472 O   0  0  0  0  0  0  0  0  0  0  0  0
   24.2502  -21.2432  -11.9674 N   0  0  0  0  0  0  0  0  0  0  0  0
   23.1291  -20.6340  -12.6555 C   0  0  1  0  0  0  0  0  0  0  0  0
   23.6081  -20.1673  -13.9873 C   0  0  0  0  0  0  0  0  0  0  0  0
   22.5108  -19.5204  -14.7371 C   0  0  0  0  0  0  0  0  0  0  0  0
   21.7772  -20.1559  -15.7262 C   0  0  0  0  0  0  0  0  0  0  0  0
   20.7669  -19.5085  -16.4035 C   0  0  0  0  0  0  0  0  0  0  0  0
   20.4713  -18.1885  -16.0930 C   0  0  0  0  0  0  0  0  0  0  0  0
   21.1772  -17.5198  -15.1149 C   0  0  0  0  0  0  0  0  0  0  0  0
   22.1745  -18.2024  -14.4662 C   0  0  0  0  0  0  0  0  0  0  0  0
   21.9463  -21.5099  -12.6744 C   0  0  0  0  0  0  0  0  0  0  0  0
   22.0040  -22.7174  -13.0202 O   0  0  0  0  0  0  0  0  0  0  0  0
   20.6888  -21.0530  -12.3077 O   0  0  0  0  0  0  0  0  0  0  0  0
  2  1  1  1
  2  3  1  0
  4  2  1  0
  4  5  1  6
  6  7  2  0
  6  4  1  0
  8  6  1  0
  9  8  1  0
 10 11  1  0
  9 10  1  1
 11 19  1  0
 12 13  1  0
 12 11  2  0
 13 14  1  0
 14 19  2  0
 14 15  1  0
 15 16  2  0
 16 17  1  0
 18 17  2  0
 19 18  1  0
 20 22  1  0
 20  9  1  0
 21 20  2  0
 23 22  1  0
 23 31  1  0
 24 25  1  0
 23 24  1  6
 25 30  1  0
 26 25  2  0
 26 27  1  0
 27 28  2  0
 28 29  1  0
 30 29  2  0
 31 33  1  0
 32 31  2  0
M  END
$$$$
