VWF.pdb
     RDKit          3D

 33 35  0  0  1  0  0  0  0  0999 V2000
   25.0627  -21.7837  -16.2065 C   0  0  0  0  0  0  0  0  0  0  0  0
   26.3880  -21.1659  -15.8130 C   0  0  2  0  0  0  0  0  0  0  0  0
   27.2889  -21.0366  -16.9962 C   0  0  0  0  0  0  0  0  0  0  0  0
   26.9876  -22.0371  -14.7235 C   0  0  2  0  0  0  0  0  0  0  0  0
   27.2953  -23.3640  -15.1610 N   0  0  0  0  0  0  0  0  0  0  0  0
   26.1428  -22.0856  -13.5223 C   0  0  0  0  0  0  0  0  0  0  0  0
   25.4684  -23.0965  -13.2715 O   0  0  0  0  0  0  0  0  0  0  0  0
   26.1196  -20.9365  -12.6559 N   0  0  0  0  0  0  0  0  0  0  0  0
   25.2014  -20.8827  -11.5513 C   0  0  1  0  0  0  0  0  0  0  0  0
   25.7002  -20.2200  -10.3262 C   0  0  0  0  0  0  0  0  0  0  0  0
   26.9824  -20.6848   -9.7932 C   0  0  0  0  0  0  0  0  0  0  0  0
   27.9920  -21.4374  -10.3442 C   0  0  0  0  0  0  0  0  0  0  0  0
   28.9924  -21.5881   -9.4258 N   0  0  0  0  0  0  0  0  0  0  0  0
   28.6342  -20.9435   -8.3021 C   0  0  0  0  0  0  0  0  0  0  0  0
   29.2997  -20.7998   -7.0962 C   0  0  0  0  0  0  0  0  0  0  0  0
   28.6921  -20.0775   -6.1058 C   0  0  0  0  0  0  0  0  0  0  0  0
   27.4579  -19.4918   -6.2545 C   0  0  0  0  0  0  0  0  0  0  0  0
   26.8256  -19.6555   -7.4673 C   0  0  0  0  0  0  0  0  0  0  0  0
   27.3973  -20.3745   -8.4956 C   0  0  0  0  0  0  0  0  0  0  0  0
   23.8894  -20.2927  -12.0027 C   0  0  0  0  0  0  0  0  0  0  0  0
   23.9139  -19.2654  -12.6797 O   0  0  0  0  0  0  0  0  0  0  0  0
   22.6730  -20.9222  -11.6419 N   0  0  0  0  0  0  0  0  0  0  0  0
   21.3553  -20.4347  -11.9991 C   0  0  1  0  0  0  0  0  0  0  0  0
   21.2747  -20.3807  -13.4863 C   0  0  0  0  0  0  0  0  0  0  0  0
   21.1259  -21.7395  -14.0485 C   0  0  0  0  0  0  0  0  0  0  0  0
   19.9303  -22.4400  -14.0589 C   0  0  0  0  0  0  0  0  0  0  0  0
   19.8422  -23.7090  -14.5885 C   0  0  0  0  0  0  0  0  0  0  0  0
   20.9738  -24.3062  -15.1261 C   0  0  0  0  0  0  0  0  0  0  0  0
   22.1831  -23.6432  -15.1357 C   0  0  0  0  0  0  0  0  0  0  0  0
   22.2253  -22.3821  -14.5981 C   0  0  0  0  0  0  0  0  0  0  0  0
   20.2834  -21.1892  -11.3295 C   0  0  0  0  0  0  0  0  0  0  0  0
   20.5090  -22.2106  -10.6317 O   0  0  0  0  0  0  0  0  0  0  0  0
   18.9511  -20.8151  -11.4274 O   0  0  0  0  0  0  0  0  0  0  0  0
  2  1  1  6
  2  3  1  0
  4  2  1  0
  4  5  1  6
  6  7  2  0
  6  4  1  0
  8  6  1  0
  9  8  1  0
 10 11  1  0
  9 10  1  1
 11 19  1  0
 12 13  1  0
 12 11  2  0
 13 14  1  0
 14 19  2  0
 14 15  1  0
 15 16  2  0
 16 17  1  0
 18 17  2  0
 19 18  1  0
 20 22  1  0
 20  9  1  0
 21 20  2  0
 23 22  1  0
 23 31  1  0
 24 25  1  0
 23 24  1  6
 25 30  1  0
 26 25  2  0
 26 27  1  0
 27 28  2  0
 28 29  1  0
 30 29  2  0
 31 33  1  0
 32 31  2  0
M  END
$$$$
