VWF.pdb
     RDKit          3D

 33 35  0  0  1  0  0  0  0  0999 V2000
   26.2647  -22.9803  -16.3441 C   0  0  0  0  0  0  0  0  0  0  0  0
   26.4252  -22.0631  -15.1500 C   0  0  2  0  0  0  0  0  0  0  0  0
   27.0417  -22.7874  -13.9995 C   0  0  0  0  0  0  0  0  0  0  0  0
   25.0507  -21.5116  -14.8151 C   0  0  2  0  0  0  0  0  0  0  0  0
   24.4518  -20.7843  -15.8917 N   0  0  0  0  0  0  0  0  0  0  0  0
   25.0629  -20.6898  -13.5971 C   0  0  0  0  0  0  0  0  0  0  0  0
   25.5284  -19.5400  -13.6221 O   0  0  0  0  0  0  0  0  0  0  0  0
   24.5262  -21.2538  -12.3865 N   0  0  0  0  0  0  0  0  0  0  0  0
   24.5035  -20.4788  -11.1762 C   0  0  1  0  0  0  0  0  0  0  0  0
   23.1723  -20.2705  -10.5653 C   0  0  0  0  0  0  0  0  0  0  0  0
   22.1501  -19.6341  -11.3984 C   0  0  0  0  0  0  0  0  0  0  0  0
   22.1963  -19.0875  -12.6588 C   0  0  0  0  0  0  0  0  0  0  0  0
   20.9547  -18.6256  -12.9937 N   0  0  0  0  0  0  0  0  0  0  0  0
   20.1223  -18.8704  -11.9673 C   0  0  0  0  0  0  0  0  0  0  0  0
   18.7728  -18.5976  -11.8185 C   0  0  0  0  0  0  0  0  0  0  0  0
   18.1653  -18.9638  -10.6487 C   0  0  0  0  0  0  0  0  0  0  0  0
   18.8318  -19.5871   -9.6211 C   0  0  0  0  0  0  0  0  0  0  0  0
   20.1730  -19.8428   -9.8043 C   0  0  0  0  0  0  0  0  0  0  0  0
   20.8292  -19.4926  -10.9652 C   0  0  0  0  0  0  0  0  0  0  0  0
   25.4835  -21.0497  -10.1827 C   0  0  0  0  0  0  0  0  0  0  0  0
   25.5237  -22.2711  -10.0388 O   0  0  0  0  0  0  0  0  0  0  0  0
   26.3240  -20.1813   -9.4441 N   0  0  0  0  0  0  0  0  0  0  0  0
   27.1472  -20.5882   -8.3223 C   0  0  1  0  0  0  0  0  0  0  0  0
   28.2071  -19.5574   -8.1344 C   0  0  0  0  0  0  0  0  0  0  0  0
   28.6943  -19.5610   -6.7390 C   0  0  0  0  0  0  0  0  0  0  0  0
   28.1987  -18.7263   -5.7500 C   0  0  0  0  0  0  0  0  0  0  0  0
   28.6904  -18.7612   -4.4633 C   0  0  0  0  0  0  0  0  0  0  0  0
   29.7061  -19.6511   -4.1428 C   0  0  0  0  0  0  0  0  0  0  0  0
   30.2269  -20.4993   -5.0975 C   0  0  0  0  0  0  0  0  0  0  0  0
   29.7081  -20.4306   -6.3653 C   0  0  0  0  0  0  0  0  0  0  0  0
   26.3445  -20.9021   -7.1291 C   0  0  0  0  0  0  0  0  0  0  0  0
   25.2141  -20.3924   -6.9207 O   0  0  0  0  0  0  0  0  0  0  0  0
   26.7893  -21.7865   -6.1573 O   0  0  0  0  0  0  0  0  0  0  0  0
  2  1  1  6
  2  3  1  0
  4  2  1  0
  4  5  1  6
  6  7  2  0
  6  4  1  0
  8  6  1  0
  9  8  1  0
 10 11  1  0
  9 10  1  1
 11 19  1  0
 12 13  1  0
 12 11  2  0
 13 14  1  0
 14 19  2  0
 14 15  1  0
 15 16  2  0
 16 17  1  0
 18 17  2  0
 19 18  1  0
 20 22  1  0
 20  9  1  0
 21 20  2  0
 23 22  1  0
 23 31  1  0
 24 25  1  0
 23 24  1  1
 25 30  1  0
 26 25  2  0
 26 27  1  0
 27 28  2  0
 28 29  1  0
 30 29  2  0
 31 33  1  0
 32 31  2  0
M  END
$$$$
