DCE.pdb
     RDKit          3D

 24 23  0  0  1  0  0  0  0  0999 V2000
   14.8445  -10.5985  -12.2502 N   0  0  0  0  0  0  0  0  0  0  0  0
   16.0050   -9.9115  -11.6757 C   0  0  1  0  0  0  0  0  0  0  0  0
   16.9432   -9.6087  -12.8205 C   0  0  0  0  0  0  0  0  0  0  0  0
   17.6513  -10.8102  -13.2582 C   0  0  0  0  0  0  0  0  0  0  0  0
   17.5393  -11.9641  -12.7610 O   0  0  0  0  0  0  0  0  0  0  0  0
   15.5117   -8.6184  -11.1406 C   0  0  0  0  0  0  0  0  0  0  0  0
   14.8069   -7.9099  -11.8594 O   0  0  0  0  0  0  0  0  0  0  0  0
   18.5535  -10.7145  -14.3338 O   0  0  0  0  0  0  0  0  0  0  0  0
   15.8173   -8.1615   -9.8331 N   0  0  0  0  0  0  0  0  0  0  0  0
   15.3012   -7.0143   -9.1994 C   0  0  1  0  0  0  0  0  0  0  0  0
   15.2301   -7.0445   -7.7175 C   0  0  0  0  0  0  0  0  0  0  0  0
   14.0505   -8.3379   -7.2345 S   0  0  0  0  0  0  0  0  0  0  0  0
   16.0570   -5.8129   -9.6189 C   0  0  0  0  0  0  0  0  0  0  0  0
   17.3069   -5.9122   -9.7482 O   0  0  0  0  0  0  0  0  0  0  0  0
   15.4834   -4.5681   -9.8844 N   0  0  0  0  0  0  0  0  0  0  0  0
   16.2249   -3.5162  -10.6211 C   0  0  1  0  0  0  0  0  0  0  0  0
   16.4371   -3.9809  -12.0347 C   0  0  0  0  0  0  0  0  0  0  0  0
   16.9658   -2.9650  -12.9694 C   0  0  0  0  0  0  0  0  0  0  0  0
   17.0263   -3.4328  -14.3556 C   0  0  0  0  0  0  0  0  0  0  0  0
   17.9318   -4.2486  -14.6902 O   0  0  0  0  0  0  0  0  0  0  0  0
   15.4341   -2.2687  -10.6225 C   0  0  0  0  0  0  0  0  0  0  0  0
   14.1873   -2.3395  -10.4226 O   0  0  0  0  0  0  0  0  0  0  0  0
   16.1615   -3.0565  -15.3699 O   0  0  0  0  0  0  0  0  0  0  0  0
   16.0084   -1.0449  -10.8305 O   0  0  0  0  0  0  0  0  0  0  0  0
  2  1  1  6
  2  3  1  0
  3  4  1  0
  4  8  1  0
  5  4  2  0
  6  2  1  0
  7  6  2  0
  9  6  1  0
 10 13  1  0
 10  9  1  0
 10 11  1  1
 12 11  1  0
 13 15  1  0
 14 13  2  0
 15 16  1  0
 16 17  1  6
 16 21  1  0
 17 18  1  0
 19 18  1  0
 20 19  2  0
 21 22  2  0
 21 24  1  0
 23 19  1  0
M  END
$$$$
