DCE.pdb
     RDKit          3D

 24 23  0  0  1  0  0  0  0  0999 V2000
   21.4778  -13.2161  -16.9330 N   0  0  0  0  0  0  0  0  0  0  0  0
   21.1713  -11.8872  -17.4706 C   0  0  1  0  0  0  0  0  0  0  0  0
   19.6782  -11.6978  -17.3399 C   0  0  0  0  0  0  0  0  0  0  0  0
   18.9515  -12.5387  -18.2892 C   0  0  0  0  0  0  0  0  0  0  0  0
   17.8674  -13.1451  -18.0698 O   0  0  0  0  0  0  0  0  0  0  0  0
   21.8322  -10.9042  -16.5770 C   0  0  0  0  0  0  0  0  0  0  0  0
   21.3477  -10.6951  -15.4648 O   0  0  0  0  0  0  0  0  0  0  0  0
   19.4769  -12.7153  -19.5826 O   0  0  0  0  0  0  0  0  0  0  0  0
   23.0017  -10.1929  -16.9489 N   0  0  0  0  0  0  0  0  0  0  0  0
   23.7302   -9.2919  -16.1481 C   0  0  1  0  0  0  0  0  0  0  0  0
   25.2048   -9.2921  -16.3141 C   0  0  0  0  0  0  0  0  0  0  0  0
   25.8662  -10.7680  -15.4883 S   0  0  0  0  0  0  0  0  0  0  0  0
   23.2263   -7.9133  -16.3389 C   0  0  0  0  0  0  0  0  0  0  0  0
   23.0193   -7.5139  -17.5164 O   0  0  0  0  0  0  0  0  0  0  0  0
   22.9611   -7.0158  -15.3030 N   0  0  0  0  0  0  0  0  0  0  0  0
   22.4012   -5.6690  -15.5710 C   0  0  1  0  0  0  0  0  0  0  0  0
   20.9828   -5.8256  -16.0430 C   0  0  0  0  0  0  0  0  0  0  0  0
   20.2031   -4.5744  -16.1518 C   0  0  0  0  0  0  0  0  0  0  0  0
   19.8477   -4.2344  -17.5310 C   0  0  0  0  0  0  0  0  0  0  0  0
   19.4505   -5.1496  -18.3069 O   0  0  0  0  0  0  0  0  0  0  0  0
   22.4251   -4.8720  -14.3277 C   0  0  0  0  0  0  0  0  0  0  0  0
   22.5013   -5.4768  -13.2196 O   0  0  0  0  0  0  0  0  0  0  0  0
   19.9068   -2.9677  -18.0880 O   0  0  0  0  0  0  0  0  0  0  0  0
   22.3697   -3.5054  -14.3399 O   0  0  0  0  0  0  0  0  0  0  0  0
  2  1  1  1
  2  3  1  0
  3  4  1  0
  4  8  1  0
  5  4  2  0
  6  2  1  0
  7  6  2  0
  9  6  1  0
 10 13  1  0
 10  9  1  0
 10 11  1  6
 12 11  1  0
 13 15  1  0
 14 13  2  0
 15 16  1  0
 16 17  1  1
 16 21  1  0
 17 18  1  0
 19 18  1  0
 20 19  2  0
 21 22  2  0
 21 24  1  0
 23 19  1  0
M  END
$$$$
