DCE.pdb
     RDKit          3D

 24 23  0  0  1  0  0  0  0  0999 V2000
   18.5840  -11.7400  -15.8535 N   0  0  0  0  0  0  0  0  0  0  0  0
   18.8704  -10.5238  -16.6200 C   0  0  1  0  0  0  0  0  0  0  0  0
   17.5655   -9.7740  -16.7517 C   0  0  0  0  0  0  0  0  0  0  0  0
   16.6504  -10.4577  -17.6636 C   0  0  0  0  0  0  0  0  0  0  0  0
   16.9726  -11.2751  -18.5687 O   0  0  0  0  0  0  0  0  0  0  0  0
   19.7829   -9.7015  -15.7875 C   0  0  0  0  0  0  0  0  0  0  0  0
   19.4176   -9.3682  -14.6602 O   0  0  0  0  0  0  0  0  0  0  0  0
   15.2696  -10.2086  -17.5556 O   0  0  0  0  0  0  0  0  0  0  0  0
   21.0617   -9.2817  -16.2348 N   0  0  0  0  0  0  0  0  0  0  0  0
   22.0323   -8.5911  -15.4832 C   0  0  1  0  0  0  0  0  0  0  0  0
   23.4455   -8.9977  -15.6824 C   0  0  0  0  0  0  0  0  0  0  0  0
   23.7189  -10.5511  -14.7825 S   0  0  0  0  0  0  0  0  0  0  0  0
   21.9161   -7.1333  -15.7113 C   0  0  0  0  0  0  0  0  0  0  0  0
   21.7938   -6.7254  -16.8977 O   0  0  0  0  0  0  0  0  0  0  0  0
   21.9315   -6.1693  -14.7018 N   0  0  0  0  0  0  0  0  0  0  0  0
   21.7133   -4.7332  -15.0003 C   0  0  1  0  0  0  0  0  0  0  0  0
   20.2526   -4.5199  -15.2836 C   0  0  0  0  0  0  0  0  0  0  0  0
   19.8417   -3.1168  -15.5023 C   0  0  0  0  0  0  0  0  0  0  0  0
   18.4245   -2.9773  -15.8430 C   0  0  0  0  0  0  0  0  0  0  0  0
   17.9543   -1.8238  -16.0568 O   0  0  0  0  0  0  0  0  0  0  0  0
   22.1155   -3.9231  -13.8326 C   0  0  0  0  0  0  0  0  0  0  0  0
   22.1863   -4.4824  -12.7005 O   0  0  0  0  0  0  0  0  0  0  0  0
   17.5183   -4.0186  -15.9569 O   0  0  0  0  0  0  0  0  0  0  0  0
   22.4143   -2.5927  -13.9398 O   0  0  0  0  0  0  0  0  0  0  0  0
  2  1  1  1
  2  3  1  0
  3  4  1  0
  4  8  1  0
  5  4  2  0
  6  2  1  0
  7  6  2  0
  9  6  1  0
 10 13  1  0
 10  9  1  0
 10 11  1  6
 12 11  1  0
 13 15  1  0
 14 13  2  0
 15 16  1  0
 16 17  1  1
 16 21  1  0
 17 18  1  0
 19 18  1  0
 20 19  2  0
 21 22  2  0
 21 24  1  0
 23 19  1  0
M  END
$$$$
