DCE.pdb
     RDKit          3D

 24 23  0  0  1  0  0  0  0  0999 V2000
   17.9312  -11.9279  -15.4129 N   0  0  0  0  0  0  0  0  0  0  0  0
   18.3126  -10.6927  -14.7217 C   0  0  1  0  0  0  0  0  0  0  0  0
   18.6579   -9.6833  -15.7914 C   0  0  0  0  0  0  0  0  0  0  0  0
   19.9531   -9.9785  -16.4013 C   0  0  0  0  0  0  0  0  0  0  0  0
   20.7179  -10.9354  -16.1002 O   0  0  0  0  0  0  0  0  0  0  0  0
   17.1002  -10.2083  -14.0167 C   0  0  0  0  0  0  0  0  0  0  0  0
   16.0082  -10.3134  -14.5752 O   0  0  0  0  0  0  0  0  0  0  0  0
   20.4297   -9.1401  -17.4260 O   0  0  0  0  0  0  0  0  0  0  0  0
   17.1442   -9.6278  -12.7233 N   0  0  0  0  0  0  0  0  0  0  0  0
   16.0426   -9.2397  -11.9360 C   0  0  1  0  0  0  0  0  0  0  0  0
   15.3895  -10.3015  -11.1310 C   0  0  0  0  0  0  0  0  0  0  0  0
   16.6887  -11.3592  -10.4303 S   0  0  0  0  0  0  0  0  0  0  0  0
   16.4199   -8.1229  -11.0410 C   0  0  0  0  0  0  0  0  0  0  0  0
   17.4973   -8.2183  -10.3936 O   0  0  0  0  0  0  0  0  0  0  0  0
   15.6652   -6.9626  -10.8596 N   0  0  0  0  0  0  0  0  0  0  0  0
   16.1547   -5.8455  -10.0162 C   0  0  1  0  0  0  0  0  0  0  0  0
   15.4383   -4.5885  -10.4237 C   0  0  0  0  0  0  0  0  0  0  0  0
   15.7760   -3.3786   -9.6445 C   0  0  0  0  0  0  0  0  0  0  0  0
   15.0577   -2.1843  -10.0937 C   0  0  0  0  0  0  0  0  0  0  0  0
   15.2438   -1.0908   -9.4879 O   0  0  0  0  0  0  0  0  0  0  0  0
   15.8697   -6.1411   -8.5974 C   0  0  0  0  0  0  0  0  0  0  0  0
   14.9770   -6.9935   -8.3218 O   0  0  0  0  0  0  0  0  0  0  0  0
   14.1645   -2.1329  -11.1509 O   0  0  0  0  0  0  0  0  0  0  0  0
   16.5414   -5.5244   -7.5779 O   0  0  0  0  0  0  0  0  0  0  0  0
  2  1  1  6
  2  3  1  0
  3  4  1  0
  4  8  1  0
  5  4  2  0
  6  2  1  0
  7  6  2  0
  9  6  1  0
 10 13  1  0
 10  9  1  0
 10 11  1  1
 12 11  1  0
 13 15  1  0
 14 13  2  0
 15 16  1  0
 16 17  1  6
 16 21  1  0
 17 18  1  0
 19 18  1  0
 20 19  2  0
 21 22  2  0
 21 24  1  0
 23 19  1  0
M  END
$$$$
