DCE.pdb
     RDKit          3D

 24 23  0  0  1  0  0  0  0  0999 V2000
   25.9412  -10.0502  -19.4815 N   0  0  0  0  0  0  0  0  0  0  0  0
   25.8032   -9.1442  -18.3374 C   0  0  1  0  0  0  0  0  0  0  0  0
   25.7116   -7.7444  -18.8983 C   0  0  0  0  0  0  0  0  0  0  0  0
   27.0053   -7.2900  -19.4045 C   0  0  0  0  0  0  0  0  0  0  0  0
   28.0840   -7.2372  -18.7527 O   0  0  0  0  0  0  0  0  0  0  0  0
   24.5023   -9.4617  -17.6982 C   0  0  0  0  0  0  0  0  0  0  0  0
   23.5629   -9.8158  -18.4105 O   0  0  0  0  0  0  0  0  0  0  0  0
   27.1006   -6.8617  -20.7416 O   0  0  0  0  0  0  0  0  0  0  0  0
   24.2931   -9.3750  -16.2980 N   0  0  0  0  0  0  0  0  0  0  0  0
   23.1308   -9.7479  -15.5951 C   0  0  1  0  0  0  0  0  0  0  0  0
   23.3277  -10.4631  -14.3099 C   0  0  0  0  0  0  0  0  0  0  0  0
   21.6929  -10.8919  -13.6456 S   0  0  0  0  0  0  0  0  0  0  0  0
   22.2725   -8.5653  -15.3593 C   0  0  0  0  0  0  0  0  0  0  0  0
   22.8048   -7.5329  -14.8697 O   0  0  0  0  0  0  0  0  0  0  0  0
   20.9065   -8.5082  -15.6414 N   0  0  0  0  0  0  0  0  0  0  0  0
   20.0992   -7.3075  -15.3164 C   0  0  1  0  0  0  0  0  0  0  0  0
   19.3755   -6.8670  -16.5580 C   0  0  0  0  0  0  0  0  0  0  0  0
   18.5529   -5.6465  -16.4197 C   0  0  0  0  0  0  0  0  0  0  0  0
   17.8975   -5.2485  -17.6671 C   0  0  0  0  0  0  0  0  0  0  0  0
   18.1319   -5.9049  -18.7214 O   0  0  0  0  0  0  0  0  0  0  0  0
   19.1190   -7.6460  -14.2646 C   0  0  0  0  0  0  0  0  0  0  0  0
   18.6653   -8.8255  -14.2137 O   0  0  0  0  0  0  0  0  0  0  0  0
   17.0179   -4.1883  -17.8108 O   0  0  0  0  0  0  0  0  0  0  0  0
   18.6913   -6.7261  -13.3473 O   0  0  0  0  0  0  0  0  0  0  0  0
  2  1  1  6
  2  3  1  0
  3  4  1  0
  4  8  1  0
  5  4  2  0
  6  2  1  0
  7  6  2  0
  9  6  1  0
 10 13  1  0
 10  9  1  0
 10 11  1  1
 12 11  1  0
 13 15  1  0
 14 13  2  0
 15 16  1  0
 16 17  1  6
 16 21  1  0
 17 18  1  0
 19 18  1  0
 20 19  2  0
 21 22  2  0
 21 24  1  0
 23 19  1  0
M  END
$$$$
