DCE.pdb
     RDKit          3D

 24 23  0  0  1  0  0  0  0  0999 V2000
   17.9586  -13.1651  -16.1013 N   0  0  0  0  0  0  0  0  0  0  0  0
   18.1447  -11.8166  -16.6452 C   0  0  1  0  0  0  0  0  0  0  0  0
   16.8167  -11.1078  -16.5171 C   0  0  0  0  0  0  0  0  0  0  0  0
   15.8503  -11.6112  -17.4912 C   0  0  0  0  0  0  0  0  0  0  0  0
   14.6176  -11.7918  -17.2934 O   0  0  0  0  0  0  0  0  0  0  0  0
   19.1126  -11.1290  -15.7553 C   0  0  0  0  0  0  0  0  0  0  0  0
   18.8456  -11.0238  -14.5582 O   0  0  0  0  0  0  0  0  0  0  0  0
   16.2959  -11.9379  -18.7854 O   0  0  0  0  0  0  0  0  0  0  0  0
   20.3360  -10.5861  -16.2247 N   0  0  0  0  0  0  0  0  0  0  0  0
   21.2935   -9.8861  -15.4651 C   0  0  1  0  0  0  0  0  0  0  0  0
   22.7177  -10.2218  -15.7121 C   0  0  0  0  0  0  0  0  0  0  0  0
   23.7318   -9.2866  -14.5312 S   0  0  0  0  0  0  0  0  0  0  0  0
   21.1097   -8.4265  -15.6276 C   0  0  0  0  0  0  0  0  0  0  0  0
   21.0221   -7.9651  -16.7974 O   0  0  0  0  0  0  0  0  0  0  0  0
   21.0252   -7.5158  -14.5728 N   0  0  0  0  0  0  0  0  0  0  0  0
   20.9127   -6.0575  -14.8172 C   0  0  1  0  0  0  0  0  0  0  0  0
   19.4794   -5.6488  -14.6224 C   0  0  0  0  0  0  0  0  0  0  0  0
   19.2147   -4.1957  -14.6839 C   0  0  0  0  0  0  0  0  0  0  0  0
   17.8330   -3.8465  -14.3476 C   0  0  0  0  0  0  0  0  0  0  0  0
   17.5098   -2.6275  -14.2647 O   0  0  0  0  0  0  0  0  0  0  0  0
   21.7701   -5.3322  -13.8579 C   0  0  0  0  0  0  0  0  0  0  0  0
   22.2338   -5.9595  -12.8625 O   0  0  0  0  0  0  0  0  0  0  0  0
   16.8120   -4.7497  -14.1024 O   0  0  0  0  0  0  0  0  0  0  0  0
   22.0774   -4.0087  -14.0151 O   0  0  0  0  0  0  0  0  0  0  0  0
  2  1  1  1
  2  3  1  0
  3  4  1  0
  4  8  1  0
  5  4  2  0
  6  2  1  0
  7  6  2  0
  9  6  1  0
 10 13  1  0
 10  9  1  0
 10 11  1  6
 12 11  1  0
 13 15  1  0
 14 13  2  0
 15 16  1  0
 16 17  1  1
 16 21  1  0
 17 18  1  0
 19 18  1  0
 20 19  2  0
 21 22  2  0
 21 24  1  0
 23 19  1  0
M  END
$$$$
