DCE.pdb
     RDKit          3D

 24 23  0  0  1  0  0  0  0  0999 V2000
   22.3410  -13.9861  -15.9133 N   0  0  0  0  0  0  0  0  0  0  0  0
   21.9207  -12.9258  -16.8342 C   0  0  1  0  0  0  0  0  0  0  0  0
   20.4259  -13.0637  -17.0046 C   0  0  0  0  0  0  0  0  0  0  0  0
   20.0843  -14.2921  -17.7193 C   0  0  0  0  0  0  0  0  0  0  0  0
   20.6853  -14.7614  -18.7241 O   0  0  0  0  0  0  0  0  0  0  0  0
   22.1809  -11.6372  -16.1461 C   0  0  0  0  0  0  0  0  0  0  0  0
   21.4481  -11.3043  -15.2147 O   0  0  0  0  0  0  0  0  0  0  0  0
   18.9872  -15.0541  -17.2769 O   0  0  0  0  0  0  0  0  0  0  0  0
   23.2405  -10.7696  -16.5153 N   0  0  0  0  0  0  0  0  0  0  0  0
   23.5944   -9.5583  -15.8897 C   0  0  1  0  0  0  0  0  0  0  0  0
   25.0302   -9.1846  -15.9211 C   0  0  0  0  0  0  0  0  0  0  0  0
   25.9459  -10.3726  -14.8976 S   0  0  0  0  0  0  0  0  0  0  0  0
   22.7961   -8.4422  -16.4443 C   0  0  0  0  0  0  0  0  0  0  0  0
   22.7952   -8.2757  -17.6938 O   0  0  0  0  0  0  0  0  0  0  0  0
   22.0377   -7.5535  -15.6801 N   0  0  0  0  0  0  0  0  0  0  0  0
   21.2667   -6.4546  -16.3102 C   0  0  1  0  0  0  0  0  0  0  0  0
   19.8810   -6.4471  -15.7278 C   0  0  0  0  0  0  0  0  0  0  0  0
   18.9939   -5.3639  -16.2021 C   0  0  0  0  0  0  0  0  0  0  0  0
   17.6519   -5.4207  -15.6189 C   0  0  0  0  0  0  0  0  0  0  0  0
   17.3467   -6.3938  -14.8725 O   0  0  0  0  0  0  0  0  0  0  0  0
   21.9304   -5.1657  -16.0278 C   0  0  0  0  0  0  0  0  0  0  0  0
   22.6809   -5.0780  -15.0137 O   0  0  0  0  0  0  0  0  0  0  0  0
   16.6508   -4.4832  -15.8117 O   0  0  0  0  0  0  0  0  0  0  0  0
   21.7595   -4.0701  -16.8286 O   0  0  0  0  0  0  0  0  0  0  0  0
  2  1  1  1
  2  3  1  0
  3  4  1  0
  4  8  1  0
  5  4  2  0
  6  2  1  0
  7  6  2  0
  9  6  1  0
 10 13  1  0
 10  9  1  0
 10 11  1  6
 12 11  1  0
 13 15  1  0
 14 13  2  0
 15 16  1  0
 16 17  1  1
 16 21  1  0
 17 18  1  0
 19 18  1  0
 20 19  2  0
 21 22  2  0
 21 24  1  0
 23 19  1  0
M  END
$$$$
