DCE.pdb
     RDKit          3D

 24 23  0  0  1  0  0  0  0  0999 V2000
   16.7391  -11.4168  -17.7243 N   0  0  0  0  0  0  0  0  0  0  0  0
   18.1007  -11.2457  -17.2090 C   0  0  1  0  0  0  0  0  0  0  0  0
   18.9813  -10.9386  -18.3975 C   0  0  0  0  0  0  0  0  0  0  0  0
   19.3003  -12.1511  -19.1489 C   0  0  0  0  0  0  0  0  0  0  0  0
   19.8083  -13.2064  -18.6803 O   0  0  0  0  0  0  0  0  0  0  0  0
   18.0784  -10.0436  -16.3395 C   0  0  0  0  0  0  0  0  0  0  0  0
   17.4074   -9.0723  -16.6885 O   0  0  0  0  0  0  0  0  0  0  0  0
   19.0310  -12.1867  -20.5296 O   0  0  0  0  0  0  0  0  0  0  0  0
   18.7983   -9.9641  -15.1200 N   0  0  0  0  0  0  0  0  0  0  0  0
   18.7611   -8.9098  -14.1868 C   0  0  1  0  0  0  0  0  0  0  0  0
   18.6709   -9.2878  -12.7547 C   0  0  0  0  0  0  0  0  0  0  0  0
   18.6512   -7.7635  -11.7679 S   0  0  0  0  0  0  0  0  0  0  0  0
   19.9267   -8.0172  -14.3747 C   0  0  0  0  0  0  0  0  0  0  0  0
   21.0781   -8.5296  -14.3469 O   0  0  0  0  0  0  0  0  0  0  0  0
   19.8447   -6.6392  -14.5823 N   0  0  0  0  0  0  0  0  0  0  0  0
   21.0593   -5.8155  -14.7956 C   0  0  1  0  0  0  0  0  0  0  0  0
   20.6767   -4.5935  -15.5828 C   0  0  0  0  0  0  0  0  0  0  0  0
   21.7767   -3.6500  -15.8740 C   0  0  0  0  0  0  0  0  0  0  0  0
   21.3390   -2.4642  -16.6132 C   0  0  0  0  0  0  0  0  0  0  0  0
   21.2966   -1.3499  -16.0184 O   0  0  0  0  0  0  0  0  0  0  0  0
   21.6124   -5.4098  -13.4875 C   0  0  0  0  0  0  0  0  0  0  0  0
   22.8172   -5.0297  -13.4288 O   0  0  0  0  0  0  0  0  0  0  0  0
   20.9531   -2.4425  -17.9432 O   0  0  0  0  0  0  0  0  0  0  0  0
   20.8625   -5.4311  -12.3439 O   0  0  0  0  0  0  0  0  0  0  0  0
  2  1  1  6
  2  3  1  0
  3  4  1  0
  4  8  1  0
  5  4  2  0
  6  2  1  0
  7  6  2  0
  9  6  1  0
 10 13  1  0
 10  9  1  0
 10 11  1  1
 12 11  1  0
 13 15  1  0
 14 13  2  0
 15 16  1  0
 16 17  1  6
 16 21  1  0
 17 18  1  0
 19 18  1  0
 20 19  2  0
 21 22  2  0
 21 24  1  0
 23 19  1  0
M  END
$$$$
