DCE.pdb
     RDKit          3D

 24 23  0  0  1  0  0  0  0  0999 V2000
   13.6056  -12.9032  -12.4513 N   0  0  0  0  0  0  0  0  0  0  0  0
   14.9689  -12.3932  -12.2776 C   0  0  1  0  0  0  0  0  0  0  0  0
   15.7194  -12.7134  -13.5491 C   0  0  0  0  0  0  0  0  0  0  0  0
   16.0088  -14.1427  -13.6488 C   0  0  0  0  0  0  0  0  0  0  0  0
   15.7208  -15.0230  -12.7924 O   0  0  0  0  0  0  0  0  0  0  0  0
   14.8607  -10.9169  -12.1754 C   0  0  0  0  0  0  0  0  0  0  0  0
   14.0021  -10.3382  -12.8411 O   0  0  0  0  0  0  0  0  0  0  0  0
   16.6706  -14.6248  -14.7932 O   0  0  0  0  0  0  0  0  0  0  0  0
   15.7057  -10.1407  -11.3415 N   0  0  0  0  0  0  0  0  0  0  0  0
   15.6501   -8.7465  -11.1498 C   0  0  1  0  0  0  0  0  0  0  0  0
   14.6101   -8.2408  -10.2198 C   0  0  0  0  0  0  0  0  0  0  0  0
   14.6864   -9.2268   -8.6968 S   0  0  0  0  0  0  0  0  0  0  0  0
   16.9699   -8.2351  -10.7172 C   0  0  0  0  0  0  0  0  0  0  0  0
   17.5467   -8.8154   -9.7583 O   0  0  0  0  0  0  0  0  0  0  0  0
   17.6285   -7.1495  -11.2973 N   0  0  0  0  0  0  0  0  0  0  0  0
   18.9828   -6.7394  -10.8535 C   0  0  1  0  0  0  0  0  0  0  0  0
   19.7627   -6.2842  -12.0551 C   0  0  0  0  0  0  0  0  0  0  0  0
   21.1367   -5.8110  -11.7840 C   0  0  0  0  0  0  0  0  0  0  0  0
   21.8589   -5.4131  -12.9941 C   0  0  0  0  0  0  0  0  0  0  0  0
   22.2694   -4.2226  -13.1015 O   0  0  0  0  0  0  0  0  0  0  0  0
   18.8664   -5.6281   -9.8876 C   0  0  0  0  0  0  0  0  0  0  0  0
   19.8355   -5.3960   -9.1089 O   0  0  0  0  0  0  0  0  0  0  0  0
   22.1450   -6.2393  -14.0683 O   0  0  0  0  0  0  0  0  0  0  0  0
   17.7474   -4.8452   -9.8125 O   0  0  0  0  0  0  0  0  0  0  0  0
  2  1  1  6
  2  3  1  0
  3  4  1  0
  4  8  1  0
  5  4  2  0
  6  2  1  0
  7  6  2  0
  9  6  1  0
 10 13  1  0
 10  9  1  0
 10 11  1  1
 12 11  1  0
 13 15  1  0
 14 13  2  0
 15 16  1  0
 16 17  1  6
 16 21  1  0
 17 18  1  0
 19 18  1  0
 20 19  2  0
 21 22  2  0
 21 24  1  0
 23 19  1  0
M  END
$$$$
