DCE.pdb
     RDKit          3D

 24 23  0  0  1  0  0  0  0  0999 V2000
   21.5306  -11.4929  -18.9691 N   0  0  0  0  0  0  0  0  0  0  0  0
   22.6213  -10.7445  -18.3374 C   0  0  1  0  0  0  0  0  0  0  0  0
   23.0461   -9.6794  -19.3210 C   0  0  0  0  0  0  0  0  0  0  0  0
   23.8231  -10.2508  -20.4192 C   0  0  0  0  0  0  0  0  0  0  0  0
   23.7447   -9.9263  -21.6356 O   0  0  0  0  0  0  0  0  0  0  0  0
   22.0400  -10.0626  -17.1548 C   0  0  0  0  0  0  0  0  0  0  0  0
   20.9794   -9.4514  -17.2851 O   0  0  0  0  0  0  0  0  0  0  0  0
   24.7594  -11.2625  -20.1361 O   0  0  0  0  0  0  0  0  0  0  0  0
   22.6543  -10.0842  -15.8765 N   0  0  0  0  0  0  0  0  0  0  0  0
   22.1664   -9.4887  -14.6970 C   0  0  1  0  0  0  0  0  0  0  0  0
   22.7568   -9.9567  -13.4186 C   0  0  0  0  0  0  0  0  0  0  0  0
   21.7124   -9.3553  -12.0602 S   0  0  0  0  0  0  0  0  0  0  0  0
   22.2959   -8.0163  -14.7744 C   0  0  0  0  0  0  0  0  0  0  0  0
   23.3893   -7.5364  -15.1781 O   0  0  0  0  0  0  0  0  0  0  0  0
   21.2886   -7.1128  -14.4311 N   0  0  0  0  0  0  0  0  0  0  0  0
   21.4645   -5.6519  -14.6149 C   0  0  1  0  0  0  0  0  0  0  0  0
   20.1726   -5.0743  -15.1218 C   0  0  0  0  0  0  0  0  0  0  0  0
   20.1923   -3.6262  -15.4185 C   0  0  0  0  0  0  0  0  0  0  0  0
   18.8952   -3.1105  -15.8607 C   0  0  0  0  0  0  0  0  0  0  0  0
   18.7740   -1.8756  -16.1005 O   0  0  0  0  0  0  0  0  0  0  0  0
   21.8100   -5.0329  -13.3191 C   0  0  0  0  0  0  0  0  0  0  0  0
   21.4819   -5.6302  -12.2538 O   0  0  0  0  0  0  0  0  0  0  0  0
   17.7500   -3.8669  -16.0473 O   0  0  0  0  0  0  0  0  0  0  0  0
   22.4731   -3.8394  -13.2383 O   0  0  0  0  0  0  0  0  0  0  0  0
  2  1  1  6
  2  3  1  0
  3  4  1  0
  4  8  1  0
  5  4  2  0
  6  2  1  0
  7  6  2  0
  9  6  1  0
 10 13  1  0
 10  9  1  0
 10 11  1  1
 12 11  1  0
 13 15  1  0
 14 13  2  0
 15 16  1  0
 16 17  1  1
 16 21  1  0
 17 18  1  0
 19 18  1  0
 20 19  2  0
 21 22  2  0
 21 24  1  0
 23 19  1  0
M  END
$$$$
