DCE.pdb
     RDKit          3D

 24 23  0  0  1  0  0  0  0  0999 V2000
   22.9418  -13.6930  -17.6336 N   0  0  0  0  0  0  0  0  0  0  0  0
   23.2322  -12.4407  -18.3381 C   0  0  1  0  0  0  0  0  0  0  0  0
   22.0041  -12.1026  -19.1506 C   0  0  0  0  0  0  0  0  0  0  0  0
   21.7830  -13.0837  -20.2113 C   0  0  0  0  0  0  0  0  0  0  0  0
   20.6723  -13.5739  -20.5534 O   0  0  0  0  0  0  0  0  0  0  0  0
   23.3891  -11.3942  -17.2980 C   0  0  0  0  0  0  0  0  0  0  0  0
   22.4840  -11.2319  -16.4795 O   0  0  0  0  0  0  0  0  0  0  0  0
   22.8881  -13.5525  -20.9456 O   0  0  0  0  0  0  0  0  0  0  0  0
   24.5398  -10.5702  -17.2049 N   0  0  0  0  0  0  0  0  0  0  0  0
   24.8141   -9.6159  -16.2059 C   0  0  1  0  0  0  0  0  0  0  0  0
   26.2323   -9.2128  -16.0383 C   0  0  0  0  0  0  0  0  0  0  0  0
   27.1592  -10.6486  -15.4243 S   0  0  0  0  0  0  0  0  0  0  0  0
   23.9923   -8.4029  -16.4158 C   0  0  0  0  0  0  0  0  0  0  0  0
   23.7851   -8.0231  -17.5998 O   0  0  0  0  0  0  0  0  0  0  0  0
   23.4250   -7.6426  -15.3916 N   0  0  0  0  0  0  0  0  0  0  0  0
   22.5386   -6.4903  -15.6838 C   0  0  1  0  0  0  0  0  0  0  0  0
   21.1536   -7.0083  -15.9537 C   0  0  0  0  0  0  0  0  0  0  0  0
   20.1183   -5.9778  -16.1806 C   0  0  0  0  0  0  0  0  0  0  0  0
   18.7658   -6.5306  -16.2771 C   0  0  0  0  0  0  0  0  0  0  0  0
   17.9202   -6.2464  -15.3818 O   0  0  0  0  0  0  0  0  0  0  0  0
   22.5109   -5.5849  -14.5172 C   0  0  0  0  0  0  0  0  0  0  0  0
   22.7573   -6.0618  -13.3720 O   0  0  0  0  0  0  0  0  0  0  0  0
   18.3068   -7.3622  -17.2850 O   0  0  0  0  0  0  0  0  0  0  0  0
   22.2301   -4.2519  -14.6389 O   0  0  0  0  0  0  0  0  0  0  0  0
  2  1  1  1
  2  3  1  0
  3  4  1  0
  4  8  1  0
  5  4  2  0
  6  2  1  0
  7  6  2  0
  9  6  1  0
 10 13  1  0
 10  9  1  0
 10 11  1  6
 12 11  1  0
 13 15  1  0
 14 13  2  0
 15 16  1  0
 16 17  1  1
 16 21  1  0
 17 18  1  0
 19 18  1  0
 20 19  2  0
 21 22  2  0
 21 24  1  0
 23 19  1  0
M  END
$$$$
