CVM.pdb
     RDKit          3D

 22 21  0  0  1  0  0  0  0  0999 V2000
    7.7027  -14.7601   17.7513 N   0  0  0  0  0  0  0  0  0  0  0  0
    8.4708  -14.3565   18.9171 C   0  0  1  0  0  0  0  0  0  0  0  0
    8.1699  -12.9133   19.2745 C   0  0  0  0  0  0  0  0  0  0  0  0
    9.1300  -11.8292   18.1815 S   0  0  0  0  0  0  0  0  0  0  0  0
    8.1891  -15.2684   20.0548 C   0  0  0  0  0  0  0  0  0  0  0  0
    7.0114  -15.5764   20.3374 O   0  0  0  0  0  0  0  0  0  0  0  0
    9.3859  -18.8962   20.9527 C   0  0  0  0  0  0  0  0  0  0  0  0
    9.7360  -17.9371   22.0769 C   0  0  1  0  0  0  0  0  0  0  0  0
   11.2133  -17.6910   22.1666 C   0  0  0  0  0  0  0  0  0  0  0  0
    8.9371  -16.6639   22.0007 C   0  0  2  0  0  0  0  0  0  0  0  0
    9.1889  -15.8427   20.8820 N   0  0  0  0  0  0  0  0  0  0  0  0
    9.2810  -15.9012   23.2337 C   0  0  0  0  0  0  0  0  0  0  0  0
   10.4351  -15.3704   23.2725 O   0  0  0  0  0  0  0  0  0  0  0  0
    5.3273  -11.7811   26.3865 C   0  0  0  0  0  0  0  0  0  0  0  0
    6.8991  -11.7583   27.3358 S   0  0  0  0  0  0  0  0  0  0  0  0
    7.9341  -13.1229   27.0064 C   0  0  0  0  0  0  0  0  0  0  0  0
    7.8221  -13.9637   25.8334 C   0  0  0  0  0  0  0  0  0  0  0  0
    8.7824  -15.0172   25.4866 C   0  0  2  0  0  0  0  0  0  0  0  0
    8.3728  -15.7711   24.3080 N   0  0  0  0  0  0  0  0  0  0  0  0
    9.1300  -15.9328   26.5657 C   0  0  0  0  0  0  0  0  0  0  0  0
    9.7224  -15.3448   27.5834 O   0  0  0  0  0  0  0  0  0  0  0  0
    8.9702  -17.2640   26.7248 O   0  0  0  0  0  0  0  0  0  0  0  0
  2  1  1  6
  2  5  1  0
  3  2  1  0
  4  3  1  0
  5 11  1  0
  5  6  2  0
  8  7  1  6
  8 10  1  0
  8  9  1  0
 10 12  1  0
 10 11  1  6
 12 13  2  0
 14 15  1  0
 15 16  1  0
 16 17  1  0
 18 17  1  1
 18 20  1  0
 19 12  1  0
 19 18  1  0
 20 22  1  0
 21 20  2  0
M  END
$$$$
