CVM.pdb
     RDKit          3D

 22 21  0  0  1  0  0  0  0  0999 V2000
   11.9699  -16.7597   18.4545 N   0  0  0  0  0  0  0  0  0  0  0  0
   10.9912  -17.3527   19.3503 C   0  0  1  0  0  0  0  0  0  0  0  0
   11.5094  -18.6663   19.9041 C   0  0  0  0  0  0  0  0  0  0  0  0
   11.8326  -19.7955   18.5214 S   0  0  0  0  0  0  0  0  0  0  0  0
   10.6517  -16.4003   20.4380 C   0  0  0  0  0  0  0  0  0  0  0  0
   11.4907  -15.5567   20.8200 O   0  0  0  0  0  0  0  0  0  0  0  0
    7.2777  -14.1321   20.8983 C   0  0  0  0  0  0  0  0  0  0  0  0
    7.6063  -14.9916   22.1064 C   0  0  1  0  0  0  0  0  0  0  0  0
    6.6437  -16.1316   22.2641 C   0  0  0  0  0  0  0  0  0  0  0  0
    9.0433  -15.4387   22.1059 C   0  0  2  0  0  0  0  0  0  0  0  0
    9.4007  -16.3682   21.1070 N   0  0  0  0  0  0  0  0  0  0  0  0
    9.2675  -16.0671   23.4382 C   0  0  0  0  0  0  0  0  0  0  0  0
    9.4036  -17.3306   23.4569 O   0  0  0  0  0  0  0  0  0  0  0  0
   10.0632  -12.5643   29.2384 C   0  0  0  0  0  0  0  0  0  0  0  0
   10.8302  -14.2088   29.5210 S   0  0  0  0  0  0  0  0  0  0  0  0
   10.5339  -15.3484   28.2344 C   0  0  0  0  0  0  0  0  0  0  0  0
   10.0661  -14.9810   26.9147 C   0  0  0  0  0  0  0  0  0  0  0  0
    9.7535  -15.9495   25.8580 C   0  0  2  0  0  0  0  0  0  0  0  0
    9.3272  -15.3012   24.6238 N   0  0  0  0  0  0  0  0  0  0  0  0
    8.8064  -16.9953   26.2222 C   0  0  0  0  0  0  0  0  0  0  0  0
    7.5584  -16.7009   25.9249 O   0  0  0  0  0  0  0  0  0  0  0  0
    8.9551  -18.2022   26.8091 O   0  0  0  0  0  0  0  0  0  0  0  0
  2  1  1  6
  2  5  1  0
  3  2  1  0
  4  3  1  0
  5 11  1  0
  5  6  2  0
  8  7  1  6
  8 10  1  0
  8  9  1  0
 10 12  1  0
 10 11  1  6
 12 13  2  0
 14 15  1  0
 15 16  1  0
 16 17  1  0
 18 17  1  1
 18 20  1  0
 19 12  1  0
 19 18  1  0
 20 22  1  0
 21 20  2  0
M  END
$$$$
