CVM.pdb
     RDKit          3D

 22 21  0  0  1  0  0  0  0  0999 V2000
    8.9008  -18.5100   17.9717 N   0  0  0  0  0  0  0  0  0  0  0  0
    8.0490  -18.1974   19.1069 C   0  0  1  0  0  0  0  0  0  0  0  0
    7.8093  -19.4386   19.9453 C   0  0  0  0  0  0  0  0  0  0  0  0
    6.6030  -20.4934   19.0945 S   0  0  0  0  0  0  0  0  0  0  0  0
    8.6523  -17.1054   19.9125 C   0  0  0  0  0  0  0  0  0  0  0  0
    9.8604  -17.1510   20.2290 O   0  0  0  0  0  0  0  0  0  0  0  0
    8.0027  -13.1727   19.2718 C   0  0  0  0  0  0  0  0  0  0  0  0
    7.9150  -13.5233   20.7468 C   0  0  1  0  0  0  0  0  0  0  0  0
    6.5180  -13.3844   21.2758 C   0  0  0  0  0  0  0  0  0  0  0  0
    8.5187  -14.8697   21.0427 C   0  0  2  0  0  0  0  0  0  0  0  0
    7.9402  -15.9671   20.3714 N   0  0  0  0  0  0  0  0  0  0  0  0
    8.3496  -15.0706   22.5095 C   0  0  0  0  0  0  0  0  0  0  0  0
    7.3729  -15.7963   22.8767 O   0  0  0  0  0  0  0  0  0  0  0  0
    6.7971  -11.2926   27.5477 C   0  0  0  0  0  0  0  0  0  0  0  0
    5.8280  -12.7557   27.0069 S   0  0  0  0  0  0  0  0  0  0  0  0
    6.8082  -14.0369   26.3439 C   0  0  0  0  0  0  0  0  0  0  0  0
    7.5143  -13.9510   25.0832 C   0  0  0  0  0  0  0  0  0  0  0  0
    8.8576  -14.4964   24.8584 C   0  0  2  0  0  0  0  0  0  0  0  0
    9.2285  -14.4864   23.4487 N   0  0  0  0  0  0  0  0  0  0  0  0
    9.1056  -15.8147   25.4277 C   0  0  0  0  0  0  0  0  0  0  0  0
   10.0551  -15.8234   26.3392 O   0  0  0  0  0  0  0  0  0  0  0  0
    8.5588  -17.0282   25.2008 O   0  0  0  0  0  0  0  0  0  0  0  0
  2  1  1  6
  2  5  1  0
  3  2  1  0
  4  3  1  0
  5 11  1  0
  5  6  2  0
  8  7  1  6
  8 10  1  0
  8  9  1  0
 10 12  1  0
 10 11  1  6
 12 13  2  0
 14 15  1  0
 15 16  1  0
 16 17  1  0
 18 17  1  6
 18 20  1  0
 19 12  1  0
 19 18  1  0
 20 22  1  0
 21 20  2  0
M  END
$$$$
