CVM.pdb
     RDKit          3D

 22 21  0  0  1  0  0  0  0  0999 V2000
    6.4673  -19.7023   20.8943 N   0  0  0  0  0  0  0  0  0  0  0  0
    6.3753  -18.5353   21.7555 C   0  0  1  0  0  0  0  0  0  0  0  0
    6.5383  -18.9372   23.2091 C   0  0  0  0  0  0  0  0  0  0  0  0
    6.1082  -17.5206   24.2579 S   0  0  0  0  0  0  0  0  0  0  0  0
    7.3860  -17.5239   21.3545 C   0  0  0  0  0  0  0  0  0  0  0  0
    8.5948  -17.8340   21.2898 O   0  0  0  0  0  0  0  0  0  0  0  0
    6.3269  -13.3505   21.0556 C   0  0  0  0  0  0  0  0  0  0  0  0
    7.5002  -13.8704   20.2436 C   0  0  1  0  0  0  0  0  0  0  0  0
    8.5677  -12.8308   20.0686 C   0  0  0  0  0  0  0  0  0  0  0  0
    8.0339  -15.1667   20.7910 C   0  0  2  0  0  0  0  0  0  0  0  0
    7.0792  -16.1783   21.0250 N   0  0  0  0  0  0  0  0  0  0  0  0
    8.6802  -14.8179   22.0875 C   0  0  0  0  0  0  0  0  0  0  0  0
    9.6968  -14.0572   22.0313 O   0  0  0  0  0  0  0  0  0  0  0  0
    5.6979  -12.1777   28.3729 C   0  0  0  0  0  0  0  0  0  0  0  0
    6.6505  -11.7620   26.8589 S   0  0  0  0  0  0  0  0  0  0  0  0
    7.7229  -13.0345   26.3367 C   0  0  0  0  0  0  0  0  0  0  0  0
    7.6164  -13.7163   25.0642 C   0  0  0  0  0  0  0  0  0  0  0  0
    8.6203  -14.6558   24.5523 C   0  0  2  0  0  0  0  0  0  0  0  0
    8.1907  -15.3052   23.3199 N   0  0  0  0  0  0  0  0  0  0  0  0
    9.0898  -15.6556   25.5028 C   0  0  0  0  0  0  0  0  0  0  0  0
    9.5760  -15.1392   26.6116 O   0  0  0  0  0  0  0  0  0  0  0  0
    9.1301  -17.0048   25.4682 O   0  0  0  0  0  0  0  0  0  0  0  0
  2  1  1  6
  2  5  1  0
  3  2  1  0
  4  3  1  0
  5 11  1  0
  5  6  2  0
  8  7  1  1
  8 10  1  0
  8  9  1  0
 10 12  1  0
 10 11  1  1
 12 13  2  0
 14 15  1  0
 15 16  1  0
 16 17  1  0
 18 17  1  1
 18 20  1  0
 19 12  1  0
 19 18  1  0
 20 22  1  0
 21 20  2  0
M  END
$$$$
