CVM.pdb
     RDKit          3D

 22 21  0  0  1  0  0  0  0  0999 V2000
    7.9178  -15.1674   17.2474 N   0  0  0  0  0  0  0  0  0  0  0  0
    8.4830  -14.5125   18.4151 C   0  0  1  0  0  0  0  0  0  0  0  0
    7.7349  -13.2271   18.7139 C   0  0  0  0  0  0  0  0  0  0  0  0
    8.4379  -12.4769   20.2087 S   0  0  0  0  0  0  0  0  0  0  0  0
    8.4631  -15.4359   19.5780 C   0  0  0  0  0  0  0  0  0  0  0  0
    7.3993  -15.9968   19.9177 O   0  0  0  0  0  0  0  0  0  0  0  0
   10.8580  -18.0451   23.0996 C   0  0  0  0  0  0  0  0  0  0  0  0
   10.8413  -17.3993   21.7252 C   0  0  1  0  0  0  0  0  0  0  0  0
   11.0964  -18.3954   20.6326 C   0  0  0  0  0  0  0  0  0  0  0  0
    9.5919  -16.5920   21.4971 C   0  0  2  0  0  0  0  0  0  0  0  0
    9.6001  -15.7467   20.3680 N   0  0  0  0  0  0  0  0  0  0  0  0
    9.4309  -15.7505   22.7162 C   0  0  0  0  0  0  0  0  0  0  0  0
   10.1632  -14.7147   22.7947 O   0  0  0  0  0  0  0  0  0  0  0  0
    6.5603  -11.2626   27.7057 C   0  0  0  0  0  0  0  0  0  0  0  0
    7.1701  -12.1074   26.1934 S   0  0  0  0  0  0  0  0  0  0  0  0
    6.5591  -13.7301   26.0051 C   0  0  0  0  0  0  0  0  0  0  0  0
    6.9923  -14.6471   24.9722 C   0  0  0  0  0  0  0  0  0  0  0  0
    8.3572  -15.1746   24.8658 C   0  0  2  0  0  0  0  0  0  0  0  0
    8.5113  -16.0828   23.7359 N   0  0  0  0  0  0  0  0  0  0  0  0
    8.8904  -15.7905   26.0741 C   0  0  0  0  0  0  0  0  0  0  0  0
    8.6172  -17.0741   26.1742 O   0  0  0  0  0  0  0  0  0  0  0  0
    9.6029  -15.3038   27.1126 O   0  0  0  0  0  0  0  0  0  0  0  0
  2  1  1  6
  2  5  1  0
  3  2  1  0
  4  3  1  0
  5 11  1  0
  5  6  2  0
  8  7  1  1
  8 10  1  0
  8  9  1  0
 10 12  1  0
 10 11  1  6
 12 13  2  0
 14 15  1  0
 15 16  1  0
 16 17  1  0
 18 17  1  1
 18 20  1  0
 19 12  1  0
 19 18  1  0
 20 22  1  0
 21 20  2  0
M  END
$$$$
