CVM.pdb
     RDKit          3D

 22 21  0  0  1  0  0  0  0  0999 V2000
   11.5808  -16.7705   19.4189 N   0  0  0  0  0  0  0  0  0  0  0  0
   11.7119  -17.6703   20.5526 C   0  0  1  0  0  0  0  0  0  0  0  0
   13.1739  -17.9724   20.8211 C   0  0  0  0  0  0  0  0  0  0  0  0
   13.7796  -19.1077   19.5420 S   0  0  0  0  0  0  0  0  0  0  0  0
   11.0491  -17.0869   21.7466 C   0  0  0  0  0  0  0  0  0  0  0  0
   11.1219  -15.8595   21.9697 O   0  0  0  0  0  0  0  0  0  0  0  0
    7.3777  -18.0911   22.8147 C   0  0  0  0  0  0  0  0  0  0  0  0
    8.2470  -17.9639   24.0534 C   0  0  1  0  0  0  0  0  0  0  0  0
    8.4169  -19.2773   24.7585 C   0  0  0  0  0  0  0  0  0  0  0  0
    9.5588  -17.2895   23.7545 C   0  0  2  0  0  0  0  0  0  0  0  0
   10.3091  -17.8401   22.6946 N   0  0  0  0  0  0  0  0  0  0  0  0
   10.3593  -17.3983   25.0065 C   0  0  0  0  0  0  0  0  0  0  0  0
   11.1835  -18.3635   25.0742 O   0  0  0  0  0  0  0  0  0  0  0  0
    7.9426  -12.6414   28.5527 C   0  0  0  0  0  0  0  0  0  0  0  0
    9.2172  -13.8905   28.9858 S   0  0  0  0  0  0  0  0  0  0  0  0
   10.4186  -14.1227   27.7431 C   0  0  0  0  0  0  0  0  0  0  0  0
   11.3993  -15.1874   27.7492 C   0  0  0  0  0  0  0  0  0  0  0  0
   11.1708  -16.5143   27.1665 C   0  0  2  0  0  0  0  0  0  0  0  0
   10.2136  -16.4770   26.0675 N   0  0  0  0  0  0  0  0  0  0  0  0
   10.8026  -17.5618   28.1102 C   0  0  0  0  0  0  0  0  0  0  0  0
    9.6057  -18.0656   27.8956 O   0  0  0  0  0  0  0  0  0  0  0  0
   11.4432  -18.1125   29.1635 O   0  0  0  0  0  0  0  0  0  0  0  0
  2  1  1  6
  2  5  1  0
  3  2  1  0
  4  3  1  0
  5 11  1  0
  5  6  2  0
  8  7  1  6
  8 10  1  0
  8  9  1  0
 10 12  1  0
 10 11  1  6
 12 13  2  0
 14 15  1  0
 15 16  1  0
 16 17  1  0
 18 17  1  1
 18 20  1  0
 19 12  1  0
 19 18  1  0
 20 22  1  0
 21 20  2  0
M  END
$$$$
