CVM.pdb
     RDKit          3D

 22 21  0  0  1  0  0  0  0  0999 V2000
   10.4147  -15.5966   19.4101 N   0  0  0  0  0  0  0  0  0  0  0  0
    9.9655  -16.5111   20.4464 C   0  0  1  0  0  0  0  0  0  0  0  0
   10.8691  -17.7281   20.5051 C   0  0  0  0  0  0  0  0  0  0  0  0
   10.1941  -19.0093   19.4122 S   0  0  0  0  0  0  0  0  0  0  0  0
    9.9098  -15.8117   21.7553 C   0  0  0  0  0  0  0  0  0  0  0  0
   10.7598  -14.9409   22.0398 O   0  0  0  0  0  0  0  0  0  0  0  0
    6.7863  -16.5853   24.7658 C   0  0  0  0  0  0  0  0  0  0  0  0
    7.4693  -15.2431   24.5703 C   0  0  1  0  0  0  0  0  0  0  0  0
    7.4520  -14.4157   25.8218 C   0  0  0  0  0  0  0  0  0  0  0  0
    8.8498  -15.3925   23.9901 C   0  0  2  0  0  0  0  0  0  0  0  0
    8.9300  -16.0614   22.7509 N   0  0  0  0  0  0  0  0  0  0  0  0
    9.6255  -16.1694   24.9975 C   0  0  0  0  0  0  0  0  0  0  0  0
   10.1762  -17.2403   24.5908 O   0  0  0  0  0  0  0  0  0  0  0  0
    8.4866  -13.1380   28.9965 C   0  0  0  0  0  0  0  0  0  0  0  0
   10.2827  -13.1043   29.3779 S   0  0  0  0  0  0  0  0  0  0  0  0
   11.2160  -14.2467   28.4475 C   0  0  0  0  0  0  0  0  0  0  0  0
   10.9736  -15.6737   28.4326 C   0  0  0  0  0  0  0  0  0  0  0  0
   10.6745  -16.4406   27.2182 C   0  0  2  0  0  0  0  0  0  0  0  0
    9.7463  -15.7410   26.3382 N   0  0  0  0  0  0  0  0  0  0  0  0
   10.2197  -17.8083   27.4329 C   0  0  0  0  0  0  0  0  0  0  0  0
    8.9338  -17.9761   27.2075 O   0  0  0  0  0  0  0  0  0  0  0  0
   10.8546  -18.9343   27.8229 O   0  0  0  0  0  0  0  0  0  0  0  0
  2  1  1  6
  2  5  1  0
  3  2  1  0
  4  3  1  0
  5 11  1  0
  5  6  2  0
  8  7  1  1
  8 10  1  0
  8  9  1  0
 10 12  1  0
 10 11  1  6
 12 13  2  0
 14 15  1  0
 15 16  1  0
 16 17  1  0
 18 17  1  1
 18 20  1  0
 19 12  1  0
 19 18  1  0
 20 22  1  0
 21 20  2  0
M  END
$$$$
