CVM.pdb
     RDKit          3D

 22 21  0  0  1  0  0  0  0  0999 V2000
    6.4270  -20.0213   22.8257 N   0  0  0  0  0  0  0  0  0  0  0  0
    6.2023  -18.8272   23.6230 C   0  0  1  0  0  0  0  0  0  0  0  0
    6.4256  -19.1240   25.0937 C   0  0  0  0  0  0  0  0  0  0  0  0
    8.0351  -19.9387   25.2866 S   0  0  0  0  0  0  0  0  0  0  0  0
    7.0798  -17.7259   23.1513 C   0  0  0  0  0  0  0  0  0  0  0  0
    8.0762  -17.9763   22.4398 O   0  0  0  0  0  0  0  0  0  0  0  0
    6.6704  -13.6358   24.5993 C   0  0  0  0  0  0  0  0  0  0  0  0
    7.1443  -13.9130   23.1833 C   0  0  1  0  0  0  0  0  0  0  0  0
    8.0789  -12.8504   22.6849 C   0  0  0  0  0  0  0  0  0  0  0  0
    7.7101  -15.3002   23.0399 C   0  0  2  0  0  0  0  0  0  0  0  0
    6.8712  -16.3555   23.4548 N   0  0  0  0  0  0  0  0  0  0  0  0
    8.9421  -15.3186   23.8777 C   0  0  0  0  0  0  0  0  0  0  0  0
    9.8518  -14.4852   23.5723 O   0  0  0  0  0  0  0  0  0  0  0  0
    9.1907  -12.8164   29.0488 C   0  0  0  0  0  0  0  0  0  0  0  0
   10.4172  -14.0957   29.5300 S   0  0  0  0  0  0  0  0  0  0  0  0
   10.6078  -15.3614   28.3453 C   0  0  0  0  0  0  0  0  0  0  0  0
    9.7386  -15.5424   27.2020 C   0  0  0  0  0  0  0  0  0  0  0  0
   10.1988  -16.0100   25.8897 C   0  0  2  0  0  0  0  0  0  0  0  0
    9.0958  -16.2149   24.9589 N   0  0  0  0  0  0  0  0  0  0  0  0
   11.0593  -17.1859   25.9063 C   0  0  0  0  0  0  0  0  0  0  0  0
   10.4500  -18.2885   25.5249 O   0  0  0  0  0  0  0  0  0  0  0  0
   12.3546  -17.3687   26.2411 O   0  0  0  0  0  0  0  0  0  0  0  0
  2  1  1  6
  2  5  1  0
  3  2  1  0
  4  3  1  0
  5 11  1  0
  5  6  2  0
  8  7  1  1
  8 10  1  0
  8  9  1  0
 10 12  1  0
 10 11  1  1
 12 13  2  0
 14 15  1  0
 15 16  1  0
 16 17  1  0
 18 17  1  1
 18 20  1  0
 19 12  1  0
 19 18  1  0
 20 22  1  0
 21 20  2  0
M  END
$$$$
