CVM.pdb
     RDKit          3D

 22 21  0  0  1  0  0  0  0  0999 V2000
   12.5353  -16.9805   19.3295 N   0  0  0  0  0  0  0  0  0  0  0  0
   11.5511  -17.5801   20.2149 C   0  0  1  0  0  0  0  0  0  0  0  0
   12.2025  -18.6293   21.0957 C   0  0  0  0  0  0  0  0  0  0  0  0
   12.7193  -20.0241   20.0569 S   0  0  0  0  0  0  0  0  0  0  0  0
   10.8848  -16.5284   21.0243 C   0  0  0  0  0  0  0  0  0  0  0  0
   11.5313  -15.5346   21.4193 O   0  0  0  0  0  0  0  0  0  0  0  0
    6.7718  -14.2083   22.5438 C   0  0  0  0  0  0  0  0  0  0  0  0
    7.4767  -15.1803   21.6139 C   0  0  1  0  0  0  0  0  0  0  0  0
    7.4801  -14.6974   20.1934 C   0  0  0  0  0  0  0  0  0  0  0  0
    8.8514  -15.5387   22.1104 C   0  0  2  0  0  0  0  0  0  0  0  0
    9.5173  -16.5604   21.4017 N   0  0  0  0  0  0  0  0  0  0  0  0
    8.6642  -15.9858   23.5194 C   0  0  0  0  0  0  0  0  0  0  0  0
    8.9917  -17.1847   23.7855 O   0  0  0  0  0  0  0  0  0  0  0  0
    5.7204  -11.8494   27.0772 C   0  0  0  0  0  0  0  0  0  0  0  0
    7.5438  -11.7366   27.2645 S   0  0  0  0  0  0  0  0  0  0  0  0
    8.3739  -13.2346   26.9349 C   0  0  0  0  0  0  0  0  0  0  0  0
    7.7182  -14.5205   26.8258 C   0  0  0  0  0  0  0  0  0  0  0  0
    8.1379  -15.5774   25.8989 C   0  0  2  0  0  0  0  0  0  0  0  0
    8.1496  -15.1239   24.5135 N   0  0  0  0  0  0  0  0  0  0  0  0
    7.4073  -16.8339   26.0038 C   0  0  0  0  0  0  0  0  0  0  0  0
    6.3864  -16.9188   25.1773 O   0  0  0  0  0  0  0  0  0  0  0  0
    7.5666  -17.9239   26.7845 O   0  0  0  0  0  0  0  0  0  0  0  0
  2  1  1  1
  2  5  1  0
  3  2  1  0
  4  3  1  0
  5 11  1  0
  5  6  2  0
  8  7  1  1
  8 10  1  0
  8  9  1  0
 10 12  1  0
 10 11  1  6
 12 13  2  0
 14 15  1  0
 15 16  1  0
 16 17  1  0
 18 17  1  1
 18 20  1  0
 19 12  1  0
 19 18  1  0
 20 22  1  0
 21 20  2  0
M  END
$$$$
