CVM.pdb
     RDKit          3D

 22 21  0  0  1  0  0  0  0  0999 V2000
   12.8238  -17.6810   19.8933 N   0  0  0  0  0  0  0  0  0  0  0  0
   11.6021  -17.9972   20.6140 C   0  0  1  0  0  0  0  0  0  0  0  0
   11.8995  -18.9239   21.7774 C   0  0  0  0  0  0  0  0  0  0  0  0
   12.0185  -20.6235   21.1538 S   0  0  0  0  0  0  0  0  0  0  0  0
   10.9403  -16.7481   21.0694 C   0  0  0  0  0  0  0  0  0  0  0  0
   11.6215  -15.8080   21.5320 O   0  0  0  0  0  0  0  0  0  0  0  0
    6.8462  -13.9172   21.5616 C   0  0  0  0  0  0  0  0  0  0  0  0
    7.5859  -15.0221   20.8280 C   0  0  1  0  0  0  0  0  0  0  0  0
    7.7439  -14.7192   19.3670 C   0  0  0  0  0  0  0  0  0  0  0  0
    8.8899  -15.3669   21.4955 C   0  0  2  0  0  0  0  0  0  0  0  0
    9.5398  -16.5251   21.0205 N   0  0  0  0  0  0  0  0  0  0  0  0
    8.5621  -15.5660   22.9354 C   0  0  0  0  0  0  0  0  0  0  0  0
    8.7644  -16.7271   23.4109 O   0  0  0  0  0  0  0  0  0  0  0  0
    6.9172  -10.4846   27.1205 C   0  0  0  0  0  0  0  0  0  0  0  0
    6.9254  -11.9853   28.1790 S   0  0  0  0  0  0  0  0  0  0  0  0
    7.2726  -13.4545   27.3057 C   0  0  0  0  0  0  0  0  0  0  0  0
    7.5757  -13.5070   25.8912 C   0  0  0  0  0  0  0  0  0  0  0  0
    7.8990  -14.7423   25.1686 C   0  0  2  0  0  0  0  0  0  0  0  0
    8.0526  -14.5195   23.7361 N   0  0  0  0  0  0  0  0  0  0  0  0
    6.9979  -15.8632   25.4029 C   0  0  0  0  0  0  0  0  0  0  0  0
    5.9727  -15.8948   24.5780 O   0  0  0  0  0  0  0  0  0  0  0  0
    7.0035  -16.8708   26.3017 O   0  0  0  0  0  0  0  0  0  0  0  0
  2  1  1  1
  2  5  1  0
  3  2  1  0
  4  3  1  0
  5 11  1  0
  5  6  2  0
  8  7  1  1
  8 10  1  0
  8  9  1  0
 10 12  1  0
 10 11  1  6
 12 13  2  0
 14 15  1  0
 15 16  1  0
 16 17  1  0
 18 17  1  1
 18 20  1  0
 19 12  1  0
 19 18  1  0
 20 22  1  0
 21 20  2  0
M  END
$$$$
