CVM.pdb
     RDKit          3D

 22 21  0  0  1  0  0  0  0  0999 V2000
   13.5515  -15.3263   19.5520 N   0  0  0  0  0  0  0  0  0  0  0  0
   12.3418  -16.0830   19.8277 C   0  0  1  0  0  0  0  0  0  0  0  0
   12.6862  -17.4179   20.4604 C   0  0  0  0  0  0  0  0  0  0  0  0
   13.3110  -18.5308   19.1710 S   0  0  0  0  0  0  0  0  0  0  0  0
   11.4301  -15.2909   20.6918 C   0  0  0  0  0  0  0  0  0  0  0  0
   11.8910  -14.5982   21.6242 O   0  0  0  0  0  0  0  0  0  0  0  0
    7.0261  -15.4816   20.4226 C   0  0  0  0  0  0  0  0  0  0  0  0
    7.7886  -14.2093   20.7482 C   0  0  1  0  0  0  0  0  0  0  0  0
    6.9764  -13.2654   21.5851 C   0  0  0  0  0  0  0  0  0  0  0  0
    9.1404  -14.4990   21.3429 C   0  0  2  0  0  0  0  0  0  0  0  0
   10.0197  -15.2544   20.5395 N   0  0  0  0  0  0  0  0  0  0  0  0
    8.8719  -15.2609   22.5950 C   0  0  0  0  0  0  0  0  0  0  0  0
    9.2999  -16.4569   22.6375 O   0  0  0  0  0  0  0  0  0  0  0  0
    6.8871  -10.4038   26.7777 C   0  0  0  0  0  0  0  0  0  0  0  0
    6.3075  -12.1073   26.4106 S   0  0  0  0  0  0  0  0  0  0  0  0
    7.6020  -13.2622   26.2306 C   0  0  0  0  0  0  0  0  0  0  0  0
    7.4028  -14.6747   25.9846 C   0  0  0  0  0  0  0  0  0  0  0  0
    8.0977  -15.4289   24.9354 C   0  0  2  0  0  0  0  0  0  0  0  0
    8.1776  -14.6868   23.6832 N   0  0  0  0  0  0  0  0  0  0  0  0
    7.5916  -16.7723   24.6851 C   0  0  0  0  0  0  0  0  0  0  0  0
    6.6803  -16.8223   23.7367 O   0  0  0  0  0  0  0  0  0  0  0  0
    7.8678  -17.9731   25.2373 O   0  0  0  0  0  0  0  0  0  0  0  0
  2  1  1  1
  2  5  1  0
  3  2  1  0
  4  3  1  0
  5 11  1  0
  5  6  2  0
  8  7  1  1
  8 10  1  0
  8  9  1  0
 10 12  1  0
 10 11  1  6
 12 13  2  0
 14 15  1  0
 15 16  1  0
 16 17  1  0
 18 17  1  1
 18 20  1  0
 19 12  1  0
 19 18  1  0
 20 22  1  0
 21 20  2  0
M  END
$$$$
