CVM.pdb
     RDKit          3D

 22 21  0  0  1  0  0  0  0  0999 V2000
    8.2079  -15.1162   16.7903 N   0  0  0  0  0  0  0  0  0  0  0  0
    8.6470  -14.4990   18.0306 C   0  0  1  0  0  0  0  0  0  0  0  0
    8.0727  -13.1008   18.1573 C   0  0  0  0  0  0  0  0  0  0  0  0
    8.5264  -12.4286   19.7803 S   0  0  0  0  0  0  0  0  0  0  0  0
    8.2666  -15.3498   19.1868 C   0  0  0  0  0  0  0  0  0  0  0  0
    7.1299  -15.8663   19.2407 O   0  0  0  0  0  0  0  0  0  0  0  0
    9.4568  -18.6952   20.3790 C   0  0  0  0  0  0  0  0  0  0  0  0
    9.6575  -17.7102   21.5173 C   0  0  1  0  0  0  0  0  0  0  0  0
   11.1061  -17.3807   21.7271 C   0  0  0  0  0  0  0  0  0  0  0  0
    8.7984  -16.4846   21.3601 C   0  0  2  0  0  0  0  0  0  0  0  0
    9.1235  -15.6366   20.2809 N   0  0  0  0  0  0  0  0  0  0  0  0
    8.9582  -15.7183   22.6280 C   0  0  0  0  0  0  0  0  0  0  0  0
    9.9150  -14.8829   22.6725 O   0  0  0  0  0  0  0  0  0  0  0  0
    6.6325  -11.1710   28.1620 C   0  0  0  0  0  0  0  0  0  0  0  0
    6.4362  -11.9910   26.5306 S   0  0  0  0  0  0  0  0  0  0  0  0
    6.8251  -13.6910   26.5518 C   0  0  0  0  0  0  0  0  0  0  0  0
    6.9708  -14.5065   25.3647 C   0  0  0  0  0  0  0  0  0  0  0  0
    8.2498  -15.0551   24.9004 C   0  0  2  0  0  0  0  0  0  0  0  0
    8.0918  -15.9068   23.7279 N   0  0  0  0  0  0  0  0  0  0  0  0
    9.0440  -15.7428   25.9102 C   0  0  0  0  0  0  0  0  0  0  0  0
    8.9132  -17.0522   25.8797 O   0  0  0  0  0  0  0  0  0  0  0  0
    9.8813  -15.3025   26.8736 O   0  0  0  0  0  0  0  0  0  0  0  0
  2  1  1  6
  2  5  1  0
  3  2  1  0
  4  3  1  0
  5 11  1  0
  5  6  2  0
  8  7  1  6
  8 10  1  0
  8  9  1  0
 10 12  1  0
 10 11  1  6
 12 13  2  0
 14 15  1  0
 15 16  1  0
 16 17  1  0
 18 17  1  1
 18 20  1  0
 19 12  1  0
 19 18  1  0
 20 22  1  0
 21 20  2  0
M  END
$$$$
