FHQ.pdb
     RDKit          3D

 31 32  0  0  1  0  0  0  0  0999 V2000
   25.2935  -18.5254  -17.1073 N   0  0  0  0  0  0  0  0  0  0  0  0
   24.6548  -19.3536  -16.1129 C   0  0  1  0  0  0  0  0  0  0  0  0
   25.5899  -19.6742  -14.9501 C   0  0  0  0  0  0  0  0  0  0  0  0
   26.8215  -20.3509  -15.4238 C   0  0  0  0  0  0  0  0  0  0  0  0
   26.7878  -21.7077  -15.6947 C   0  0  0  0  0  0  0  0  0  0  0  0
   27.9300  -22.3847  -16.1369 C   0  0  0  0  0  0  0  0  0  0  0  0
   29.1203  -21.7058  -16.3122 C   0  0  0  0  0  0  0  0  0  0  0  0
   29.1579  -20.3566  -16.0439 C   0  0  0  0  0  0  0  0  0  0  0  0
   28.0226  -19.6953  -15.6071 C   0  0  0  0  0  0  0  0  0  0  0  0
   23.4391  -18.6552  -15.6277 C   0  0  0  0  0  0  0  0  0  0  0  0
   23.5181  -17.5299  -15.0618 O   0  0  0  0  0  0  0  0  0  0  0  0
   22.1500  -19.2337  -15.7866 N   0  0  0  0  0  0  0  0  0  0  0  0
   20.9010  -18.5970  -15.4996 C   0  0  1  0  0  0  0  0  0  0  0  0
   20.6246  -17.3235  -16.2024 C   0  0  0  0  0  0  0  0  0  0  0  0
   19.3537  -16.7210  -15.8809 C   0  0  0  0  0  0  0  0  0  0  0  0
   18.9801  -15.9486  -14.8336 C   0  0  0  0  0  0  0  0  0  0  0  0
   17.6526  -15.6108  -14.9314 N   0  0  0  0  0  0  0  0  0  0  0  0
   17.2287  -16.1986  -16.0657 C   0  0  0  0  0  0  0  0  0  0  0  0
   18.2347  -16.8694  -16.6495 N   0  0  0  0  0  0  0  0  0  0  0  0
   19.7571  -19.5740  -15.6703 C   0  0  0  0  0  0  0  0  0  0  0  0
   19.8263  -20.3470  -16.6487 O   0  0  0  0  0  0  0  0  0  0  0  0
   20.1420  -23.5521  -12.9069 N   0  0  0  0  0  0  0  0  0  0  0  0
   18.7932  -23.1787  -12.6706 C   0  0  0  0  0  0  0  0  0  0  0  0
   17.9556  -23.9100  -12.0851 O   0  0  0  0  0  0  0  0  0  0  0  0
   18.3499  -21.8458  -13.1442 C   0  0  0  0  0  0  0  0  0  0  0  0
   17.9658  -21.9087  -14.6200 C   0  0  0  0  0  0  0  0  0  0  0  0
   17.5123  -20.5083  -15.0284 C   0  0  2  0  0  0  0  0  0  0  0  0
   18.6543  -19.6374  -14.7895 N   0  0  0  0  0  0  0  0  0  0  0  0
   16.3401  -20.1407  -14.2146 C   0  0  0  0  0  0  0  0  0  0  0  0
   16.4130  -19.1815  -13.2426 O   0  0  0  0  0  0  0  0  0  0  0  0
   15.2625  -20.7369  -14.4388 O   0  0  0  0  0  0  0  0  0  0  0  0
  2  1  1  6
  2  3  1  0
  3  4  1  0
  4  9  1  0
  4  5  2  0
  5  6  1  0
  6  7  2  0
  8  7  1  0
  9  8  2  0
 10  2  1  0
 10 11  2  0
 12 10  1  0
 13 12  1  0
 13 14  1  6
 15 14  1  0
 15 16  2  0
 17 16  1  0
 18 17  1  0
 19 18  2  0
 19 15  1  0
 20 13  1  0
 21 20  2  0
 23 22  1  0
 23 25  1  0
 24 23  2  0
 26 25  1  0
 27 26  1  1
 27 28  1  0
 28 20  1  0
 29 27  1  0
 29 30  1  0
 31 29  2  0
M  END
$$$$
