FHQ.pdb
     RDKit          3D

 31 32  0  0  1  0  0  0  0  0999 V2000
   25.6971   -8.7542  -17.9610 N   0  0  0  0  0  0  0  0  0  0  0  0
   24.5543   -9.2422  -17.2272 C   0  0  1  0  0  0  0  0  0  0  0  0
   24.8257   -9.3115  -15.7269 C   0  0  0  0  0  0  0  0  0  0  0  0
   25.7957  -10.3866  -15.4070 C   0  0  0  0  0  0  0  0  0  0  0  0
   25.3348  -11.6745  -15.1964 C   0  0  0  0  0  0  0  0  0  0  0  0
   26.2168  -12.7156  -14.8855 C   0  0  0  0  0  0  0  0  0  0  0  0
   27.5732  -12.4746  -14.7826 C   0  0  0  0  0  0  0  0  0  0  0  0
   28.0355  -11.1954  -14.9912 C   0  0  0  0  0  0  0  0  0  0  0  0
   27.1552  -10.1718  -15.2986 C   0  0  0  0  0  0  0  0  0  0  0  0
   23.3993   -8.3543  -17.5081 C   0  0  0  0  0  0  0  0  0  0  0  0
   23.5012   -7.1011  -17.3992 O   0  0  0  0  0  0  0  0  0  0  0  0
   22.1445   -8.8899  -17.9084 N   0  0  0  0  0  0  0  0  0  0  0  0
   20.9870   -8.1345  -18.2790 C   0  0  1  0  0  0  0  0  0  0  0  0
   20.1277   -8.7081  -19.3395 C   0  0  0  0  0  0  0  0  0  0  0  0
   19.0295   -7.8659  -19.7470 C   0  0  0  0  0  0  0  0  0  0  0  0
   18.8947   -6.5187  -19.7329 C   0  0  0  0  0  0  0  0  0  0  0  0
   17.6578   -6.1518  -20.2034 N   0  0  0  0  0  0  0  0  0  0  0  0
   17.0437   -7.3115  -20.5034 C   0  0  0  0  0  0  0  0  0  0  0  0
   17.8505   -8.3509  -20.2364 N   0  0  0  0  0  0  0  0  0  0  0  0
   20.1744   -7.7753  -17.0531 C   0  0  0  0  0  0  0  0  0  0  0  0
   20.2149   -8.5833  -16.1017 O   0  0  0  0  0  0  0  0  0  0  0  0
   17.3682   -2.3156  -15.8474 N   0  0  0  0  0  0  0  0  0  0  0  0
   16.9138   -3.0934  -14.7505 C   0  0  0  0  0  0  0  0  0  0  0  0
   16.1121   -2.6743  -13.8783 O   0  0  0  0  0  0  0  0  0  0  0  0
   17.4173   -4.4824  -14.6301 C   0  0  0  0  0  0  0  0  0  0  0  0
   18.3649   -4.8041  -15.7825 C   0  0  0  0  0  0  0  0  0  0  0  0
   18.5394   -6.3215  -15.8132 C   0  0  2  0  0  0  0  0  0  0  0  0
   19.4005   -6.5974  -16.9542 N   0  0  0  0  0  0  0  0  0  0  0  0
   17.2094   -6.9423  -15.9447 C   0  0  0  0  0  0  0  0  0  0  0  0
   16.5641   -7.4916  -14.8715 O   0  0  0  0  0  0  0  0  0  0  0  0
   16.6792   -6.9540  -17.0786 O   0  0  0  0  0  0  0  0  0  0  0  0
  2  1  1  6
  2  3  1  0
  3  4  1  0
  4  9  1  0
  4  5  2  0
  5  6  1  0
  6  7  2  0
  8  7  1  0
  9  8  2  0
 10  2  1  0
 10 11  2  0
 12 10  1  0
 13 12  1  0
 13 14  1  6
 15 14  1  0
 15 16  2  0
 17 16  1  0
 18 17  1  0
 19 18  2  0
 19 15  1  0
 20 13  1  0
 21 20  2  0
 23 22  1  0
 23 25  1  0
 24 23  2  0
 26 25  1  0
 27 26  1  6
 27 28  1  0
 28 20  1  0
 29 27  1  0
 29 30  1  0
 31 29  2  0
M  END
$$$$
