FHQ.pdb
     RDKit          3D

 31 32  0  0  1  0  0  0  0  0999 V2000
   27.0487  -20.5700  -15.0735 N   0  0  0  0  0  0  0  0  0  0  0  0
   25.9278  -19.6610  -15.0698 C   0  0  1  0  0  0  0  0  0  0  0  0
   25.5794  -19.1777  -16.4748 C   0  0  0  0  0  0  0  0  0  0  0  0
   26.6230  -18.2652  -17.0017 C   0  0  0  0  0  0  0  0  0  0  0  0
   27.4720  -18.7112  -17.9995 C   0  0  0  0  0  0  0  0  0  0  0  0
   28.4741  -17.8836  -18.5187 C   0  0  0  0  0  0  0  0  0  0  0  0
   28.6348  -16.5974  -18.0409 C   0  0  0  0  0  0  0  0  0  0  0  0
   27.7926  -16.1502  -17.0488 C   0  0  0  0  0  0  0  0  0  0  0  0
   26.8038  -16.9762  -16.5416 C   0  0  0  0  0  0  0  0  0  0  0  0
   24.7666  -20.3468  -14.4510 C   0  0  0  0  0  0  0  0  0  0  0  0
   24.6685  -21.6049  -14.4708 O   0  0  0  0  0  0  0  0  0  0  0  0
   23.7313  -19.6061  -13.8177 N   0  0  0  0  0  0  0  0  0  0  0  0
   22.5276  -20.1470  -13.2642 C   0  0  1  0  0  0  0  0  0  0  0  0
   21.6589  -19.2113  -12.5147 C   0  0  0  0  0  0  0  0  0  0  0  0
   20.4344  -19.7912  -12.0187 C   0  0  0  0  0  0  0  0  0  0  0  0
   19.9798  -21.0660  -12.0571 C   0  0  0  0  0  0  0  0  0  0  0  0
   18.7414  -21.1553  -11.4705 N   0  0  0  0  0  0  0  0  0  0  0  0
   18.4547  -19.9010  -11.0747 C   0  0  0  0  0  0  0  0  0  0  0  0
   19.4581  -19.0684  -11.3949 N   0  0  0  0  0  0  0  0  0  0  0  0
   21.7431  -20.8883  -14.3259 C   0  0  0  0  0  0  0  0  0  0  0  0
   21.5289  -20.2730  -15.3914 O   0  0  0  0  0  0  0  0  0  0  0  0
   22.1698  -26.5122  -15.7395 N   0  0  0  0  0  0  0  0  0  0  0  0
   20.9811  -26.2942  -16.4839 C   0  0  0  0  0  0  0  0  0  0  0  0
   20.6247  -27.0024  -17.4590 O   0  0  0  0  0  0  0  0  0  0  0  0
   20.1109  -25.1628  -16.0843 C   0  0  0  0  0  0  0  0  0  0  0  0
   20.7378  -24.3968  -14.9226 C   0  0  0  0  0  0  0  0  0  0  0  0
   20.5243  -22.9089  -15.1953 C   0  0  2  0  0  0  0  0  0  0  0  0
   21.2637  -22.2065  -14.1563 N   0  0  0  0  0  0  0  0  0  0  0  0
   19.0785  -22.6281  -15.1494 C   0  0  0  0  0  0  0  0  0  0  0  0
   18.5087  -21.9655  -14.0975 O   0  0  0  0  0  0  0  0  0  0  0  0
   18.3766  -23.0169  -16.1102 O   0  0  0  0  0  0  0  0  0  0  0  0
  2  1  1  6
  2  3  1  0
  3  4  1  0
  4  9  1  0
  4  5  2  0
  5  6  1  0
  6  7  2  0
  8  7  1  0
  9  8  2  0
 10  2  1  0
 10 11  2  0
 12 10  1  0
 13 12  1  0
 13 14  1  6
 15 14  1  0
 15 16  2  0
 17 16  1  0
 18 17  1  0
 19 18  2  0
 19 15  1  0
 20 13  1  0
 21 20  2  0
 23 22  1  0
 23 25  1  0
 24 23  2  0
 26 25  1  0
 27 26  1  1
 27 28  1  0
 28 20  1  0
 29 27  1  0
 29 30  1  0
 31 29  2  0
M  END
$$$$
