FHQ.pdb
     RDKit          3D

 31 32  0  0  1  0  0  0  0  0999 V2000
   22.9956   -5.2419  -18.3759 N   0  0  0  0  0  0  0  0  0  0  0  0
   23.7698   -6.4557  -18.2753 C   0  0  1  0  0  0  0  0  0  0  0  0
   24.4035   -6.6165  -16.8963 C   0  0  0  0  0  0  0  0  0  0  0  0
   25.4121   -5.5593  -16.6434 C   0  0  0  0  0  0  0  0  0  0  0  0
   26.6639   -5.6642  -17.2241 C   0  0  0  0  0  0  0  0  0  0  0  0
   27.6459   -4.6914  -17.0049 C   0  0  0  0  0  0  0  0  0  0  0  0
   27.3812   -3.6011  -16.1990 C   0  0  0  0  0  0  0  0  0  0  0  0
   26.1377   -3.4931  -15.6197 C   0  0  0  0  0  0  0  0  0  0  0  0
   25.1724   -4.4604  -15.8427 C   0  0  0  0  0  0  0  0  0  0  0  0
   22.8843   -7.6064  -18.5802 C   0  0  0  0  0  0  0  0  0  0  0  0
   21.6576   -7.5788  -18.2848 O   0  0  0  0  0  0  0  0  0  0  0  0
   23.3925   -8.7732  -19.2143 N   0  0  0  0  0  0  0  0  0  0  0  0
   22.6378   -9.9387  -19.5609 C   0  0  1  0  0  0  0  0  0  0  0  0
   23.2809  -10.8986  -20.4866 C   0  0  0  0  0  0  0  0  0  0  0  0
   22.4366  -11.9914  -20.9043 C   0  0  0  0  0  0  0  0  0  0  0  0
   21.1674  -12.3115  -20.5582 C   0  0  0  0  0  0  0  0  0  0  0  0
   20.7670  -13.4592  -21.1973 N   0  0  0  0  0  0  0  0  0  0  0  0
   21.8265  -13.8289  -21.9407 C   0  0  0  0  0  0  0  0  0  0  0  0
   22.8379  -12.9610  -21.7782 N   0  0  0  0  0  0  0  0  0  0  0  0
   22.1370  -10.6354  -18.3136 C   0  0  0  0  0  0  0  0  0  0  0  0
   22.5877  -10.2210  -17.2251 O   0  0  0  0  0  0  0  0  0  0  0  0
   17.2486  -10.8381  -16.0206 N   0  0  0  0  0  0  0  0  0  0  0  0
   17.9600  -11.3911  -14.9239 C   0  0  0  0  0  0  0  0  0  0  0  0
   17.4320  -11.6837  -13.8217 O   0  0  0  0  0  0  0  0  0  0  0  0
   19.4120  -11.6367  -15.0926 C   0  0  0  0  0  0  0  0  0  0  0  0
   19.8815  -11.1247  -16.4516 C   0  0  0  0  0  0  0  0  0  0  0  0
   20.6351  -12.2680  -17.1289 C   0  0  2  0  0  0  0  0  0  0  0  0
   21.2088  -11.7003  -18.3406 N   0  0  0  0  0  0  0  0  0  0  0  0
   19.6808  -13.3551  -17.4100 C   0  0  0  0  0  0  0  0  0  0  0  0
   18.7161  -13.2330  -18.3714 O   0  0  0  0  0  0  0  0  0  0  0  0
   19.7773  -14.4063  -16.7371 O   0  0  0  0  0  0  0  0  0  0  0  0
  2  1  1  1
  2  3  1  0
  3  4  1  0
  4  9  1  0
  4  5  2  0
  5  6  1  0
  6  7  2  0
  8  7  1  0
  9  8  2  0
 10  2  1  0
 10 11  2  0
 12 10  1  0
 13 12  1  0
 13 14  1  1
 15 14  1  0
 15 16  2  0
 17 16  1  0
 18 17  1  0
 19 18  2  0
 19 15  1  0
 20 13  1  0
 21 20  2  0
 23 22  1  0
 23 25  1  0
 24 23  2  0
 26 25  1  0
 27 26  1  6
 27 28  1  0
 28 20  1  0
 29 27  1  0
 29 30  1  0
 31 29  2  0
M  END
$$$$
