FHQ.pdb
     RDKit          3D

 31 32  0  0  1  0  0  0  0  0999 V2000
   24.0133  -10.4433  -17.9309 N   0  0  0  0  0  0  0  0  0  0  0  0
   23.6437   -9.9865  -16.6128 C   0  0  1  0  0  0  0  0  0  0  0  0
   24.6166   -8.9398  -16.0771 C   0  0  0  0  0  0  0  0  0  0  0  0
   26.0107   -9.4451  -16.0952 C   0  0  0  0  0  0  0  0  0  0  0  0
   26.3643  -10.4880  -15.2570 C   0  0  0  0  0  0  0  0  0  0  0  0
   27.6709  -10.9890  -15.2388 C   0  0  0  0  0  0  0  0  0  0  0  0
   28.6381  -10.4475  -16.0634 C   0  0  0  0  0  0  0  0  0  0  0  0
   28.2904   -9.4104  -16.8983 C   0  0  0  0  0  0  0  0  0  0  0  0
   26.9950   -8.9216  -16.9094 C   0  0  0  0  0  0  0  0  0  0  0  0
   22.2669   -9.4368  -16.6732 C   0  0  0  0  0  0  0  0  0  0  0  0
   21.8423   -8.8599  -17.7123 O   0  0  0  0  0  0  0  0  0  0  0  0
   21.3863   -9.5445  -15.5621 N   0  0  0  0  0  0  0  0  0  0  0  0
   20.0276   -9.0972  -15.5190 C   0  0  1  0  0  0  0  0  0  0  0  0
   19.1016   -9.8601  -14.6515 C   0  0  0  0  0  0  0  0  0  0  0  0
   18.8201  -11.2014  -15.1024 C   0  0  0  0  0  0  0  0  0  0  0  0
   18.7948  -11.7289  -16.3491 C   0  0  0  0  0  0  0  0  0  0  0  0
   18.4586  -13.0596  -16.3040 N   0  0  0  0  0  0  0  0  0  0  0  0
   18.2796  -13.3273  -14.9970 C   0  0  0  0  0  0  0  0  0  0  0  0
   18.4918  -12.2250  -14.2603 N   0  0  0  0  0  0  0  0  0  0  0  0
   19.9674   -7.6160  -15.2120 C   0  0  0  0  0  0  0  0  0  0  0  0
   21.0267   -7.0856  -14.8167 O   0  0  0  0  0  0  0  0  0  0  0  0
   21.0190   -4.0394  -18.6924 N   0  0  0  0  0  0  0  0  0  0  0  0
   20.5635   -3.0449  -17.7879 C   0  0  0  0  0  0  0  0  0  0  0  0
   20.7374   -1.8117  -17.9560 O   0  0  0  0  0  0  0  0  0  0  0  0
   19.8400   -3.4915  -16.5737 C   0  0  0  0  0  0  0  0  0  0  0  0
   19.7488   -5.0147  -16.5416 C   0  0  0  0  0  0  0  0  0  0  0  0
   18.8166   -5.3870  -15.3899 C   0  0  2  0  0  0  0  0  0  0  0  0
   18.7938   -6.8422  -15.3543 N   0  0  0  0  0  0  0  0  0  0  0  0
   17.4888   -4.8065  -15.6570 C   0  0  0  0  0  0  0  0  0  0  0  0
   17.0605   -3.6723  -15.0245 O   0  0  0  0  0  0  0  0  0  0  0  0
   16.7538   -5.3860  -16.4883 O   0  0  0  0  0  0  0  0  0  0  0  0
  2  1  1  6
  2  3  1  0
  3  4  1  0
  4  9  1  0
  4  5  2  0
  5  6  1  0
  6  7  2  0
  8  7  1  0
  9  8  2  0
 10  2  1  0
 10 11  2  0
 12 10  1  0
 13 12  1  0
 13 14  1  1
 15 14  1  0
 15 16  2  0
 17 16  1  0
 18 17  1  0
 19 18  2  0
 19 15  1  0
 20 13  1  0
 21 20  2  0
 23 22  1  0
 23 25  1  0
 24 23  2  0
 26 25  1  0
 27 26  1  6
 27 28  1  0
 28 20  1  0
 29 27  1  0
 29 30  1  0
 31 29  2  0
M  END
$$$$
