FHQ.pdb
     RDKit          3D

 31 32  0  0  1  0  0  0  0  0999 V2000
   25.8361  -11.2426  -18.4615 N   0  0  0  0  0  0  0  0  0  0  0  0
   25.2171  -11.0627  -17.1703 C   0  0  1  0  0  0  0  0  0  0  0  0
   26.1826  -10.4619  -16.1525 C   0  0  0  0  0  0  0  0  0  0  0  0
   27.2792  -11.4072  -15.8314 C   0  0  0  0  0  0  0  0  0  0  0  0
   28.5345  -11.1989  -16.3756 C   0  0  0  0  0  0  0  0  0  0  0  0
   29.5940  -12.0715  -16.1029 C   0  0  0  0  0  0  0  0  0  0  0  0
   29.4044  -13.1644  -15.2794 C   0  0  0  0  0  0  0  0  0  0  0  0
   28.1578  -13.3750  -14.7363 C   0  0  0  0  0  0  0  0  0  0  0  0
   27.1156  -12.5060  -15.0116 C   0  0  0  0  0  0  0  0  0  0  0  0
   24.0258  -10.1938  -17.3356 C   0  0  0  0  0  0  0  0  0  0  0  0
   24.0311   -9.2318  -18.1524 O   0  0  0  0  0  0  0  0  0  0  0  0
   22.8438  -10.4204  -16.5784 N   0  0  0  0  0  0  0  0  0  0  0  0
   21.6238   -9.6797  -16.6814 C   0  0  1  0  0  0  0  0  0  0  0  0
   20.3720  -10.4115  -16.3822 C   0  0  0  0  0  0  0  0  0  0  0  0
   19.1720   -9.6155  -16.4721 C   0  0  0  0  0  0  0  0  0  0  0  0
   18.3337   -9.1664  -15.5084 C   0  0  0  0  0  0  0  0  0  0  0  0
   17.3000   -8.4515  -16.0619 N   0  0  0  0  0  0  0  0  0  0  0  0
   17.5316   -8.4783  -17.3876 C   0  0  0  0  0  0  0  0  0  0  0  0
   18.6500   -9.1720  -17.6534 N   0  0  0  0  0  0  0  0  0  0  0  0
   21.7125   -8.3991  -15.8788 C   0  0  0  0  0  0  0  0  0  0  0  0
   22.2170   -8.4894  -14.7399 O   0  0  0  0  0  0  0  0  0  0  0  0
   22.5716   -2.6383  -17.7292 N   0  0  0  0  0  0  0  0  0  0  0  0
   22.3172   -2.4243  -16.3493 C   0  0  0  0  0  0  0  0  0  0  0  0
   22.4760   -1.3205  -15.7701 O   0  0  0  0  0  0  0  0  0  0  0  0
   21.8358   -3.5739  -15.5469 C   0  0  0  0  0  0  0  0  0  0  0  0
   21.6871   -4.8105  -16.4291 C   0  0  0  0  0  0  0  0  0  0  0  0
   21.2306   -5.9560  -15.5274 C   0  0  2  0  0  0  0  0  0  0  0  0
   21.2599   -7.1502  -16.3598 N   0  0  0  0  0  0  0  0  0  0  0  0
   19.8791   -5.6475  -15.0278 C   0  0  0  0  0  0  0  0  0  0  0  0
   19.6760   -5.1320  -13.7776 O   0  0  0  0  0  0  0  0  0  0  0  0
   18.9095   -5.8726  -15.7870 O   0  0  0  0  0  0  0  0  0  0  0  0
  2  1  1  6
  2  3  1  0
  3  4  1  0
  4  9  1  0
  4  5  2  0
  5  6  1  0
  6  7  2  0
  8  7  1  0
  9  8  2  0
 10  2  1  0
 10 11  2  0
 12 10  1  0
 13 12  1  0
 13 14  1  1
 15 14  1  0
 15 16  2  0
 17 16  1  0
 18 17  1  0
 19 18  2  0
 19 15  1  0
 20 13  1  0
 21 20  2  0
 23 22  1  0
 23 25  1  0
 24 23  2  0
 26 25  1  0
 27 26  1  6
 27 28  1  0
 28 20  1  0
 29 27  1  0
 29 30  1  0
 31 29  2  0
M  END
$$$$
