FHQ.pdb
     RDKit          3D

 31 32  0  0  1  0  0  0  0  0999 V2000
   28.5826  -21.2044   -9.2654 N   0  0  0  0  0  0  0  0  0  0  0  0
   27.2093  -20.8590   -8.9869 C   0  0  1  0  0  0  0  0  0  0  0  0
   27.1004  -19.6421   -8.0724 C   0  0  0  0  0  0  0  0  0  0  0  0
   27.8276  -19.8619   -6.7988 C   0  0  0  0  0  0  0  0  0  0  0  0
   28.4802  -21.0644   -6.5901 C   0  0  0  0  0  0  0  0  0  0  0  0
   29.1718  -21.3139   -5.3993 C   0  0  0  0  0  0  0  0  0  0  0  0
   29.2158  -20.3572   -4.4037 C   0  0  0  0  0  0  0  0  0  0  0  0
   28.5682  -19.1602   -4.6073 C   0  0  0  0  0  0  0  0  0  0  0  0
   27.8867  -18.9224   -5.7890 C   0  0  0  0  0  0  0  0  0  0  0  0
   26.5159  -20.6081  -10.2743 C   0  0  0  0  0  0  0  0  0  0  0  0
   26.9145  -19.7067  -11.0625 O   0  0  0  0  0  0  0  0  0  0  0  0
   25.3823  -21.3765  -10.6571 N   0  0  0  0  0  0  0  0  0  0  0  0
   24.6738  -21.2708  -11.8959 C   0  0  1  0  0  0  0  0  0  0  0  0
   24.8113  -22.4019  -12.8413 C   0  0  0  0  0  0  0  0  0  0  0  0
   25.8945  -22.2704  -13.7852 C   0  0  0  0  0  0  0  0  0  0  0  0
   26.7654  -21.2557  -13.9972 C   0  0  0  0  0  0  0  0  0  0  0  0
   27.6266  -21.5640  -15.0215 N   0  0  0  0  0  0  0  0  0  0  0  0
   27.2560  -22.7928  -15.4272 C   0  0  0  0  0  0  0  0  0  0  0  0
   26.2185  -23.2333  -14.6977 N   0  0  0  0  0  0  0  0  0  0  0  0
   23.2172  -20.9422  -11.6462 C   0  0  0  0  0  0  0  0  0  0  0  0
   22.7022  -21.4372  -10.6218 O   0  0  0  0  0  0  0  0  0  0  0  0
   19.9918  -16.1119  -13.5349 N   0  0  0  0  0  0  0  0  0  0  0  0
   18.9153  -16.9509  -13.1451 C   0  0  0  0  0  0  0  0  0  0  0  0
   17.7454  -16.5406  -12.9399 O   0  0  0  0  0  0  0  0  0  0  0  0
   19.1916  -18.3967  -12.9707 C   0  0  0  0  0  0  0  0  0  0  0  0
   20.6784  -18.6796  -13.1684 C   0  0  0  0  0  0  0  0  0  0  0  0
   21.0314  -19.8761  -12.2867 C   0  0  2  0  0  0  0  0  0  0  0  0
   22.4498  -20.1224  -12.5037 N   0  0  0  0  0  0  0  0  0  0  0  0
   20.1907  -21.0175  -12.6892 C   0  0  0  0  0  0  0  0  0  0  0  0
   19.0659  -21.3620  -11.9919 O   0  0  0  0  0  0  0  0  0  0  0  0
   20.5374  -21.6717  -13.6986 O   0  0  0  0  0  0  0  0  0  0  0  0
  2  1  1  6
  2  3  1  0
  3  4  1  0
  4  9  1  0
  4  5  2  0
  5  6  1  0
  6  7  2  0
  8  7  1  0
  9  8  2  0
 10  2  1  0
 10 11  2  0
 12 10  1  0
 13 12  1  0
 13 14  1  1
 15 14  1  0
 15 16  2  0
 17 16  1  0
 18 17  1  0
 19 18  2  0
 19 15  1  0
 20 13  1  0
 21 20  2  0
 23 22  1  0
 23 25  1  0
 24 23  2  0
 26 25  1  0
 27 26  1  6
 27 28  1  0
 28 20  1  0
 29 27  1  0
 29 30  1  0
 31 29  2  0
M  END
$$$$
