FHQ.pdb
     RDKit          3D

 31 32  0  0  1  0  0  0  0  0999 V2000
   24.8288  -20.3535   -7.5198 N   0  0  0  0  0  0  0  0  0  0  0  0
   26.0533  -20.1642   -8.2597 C   0  0  1  0  0  0  0  0  0  0  0  0
   27.2123  -20.9542   -7.6580 C   0  0  0  0  0  0  0  0  0  0  0  0
   27.7412  -20.2882   -6.4432 C   0  0  0  0  0  0  0  0  0  0  0  0
   27.9344  -18.9178   -6.4514 C   0  0  0  0  0  0  0  0  0  0  0  0
   28.4380  -18.2525   -5.3278 C   0  0  0  0  0  0  0  0  0  0  0  0
   28.7535  -18.9570   -4.1821 C   0  0  0  0  0  0  0  0  0  0  0  0
   28.5627  -20.3197   -4.1700 C   0  0  0  0  0  0  0  0  0  0  0  0
   28.0637  -20.9692   -5.2863 C   0  0  0  0  0  0  0  0  0  0  0  0
   25.8208  -20.5696   -9.6679 C   0  0  0  0  0  0  0  0  0  0  0  0
   24.7156  -21.0605  -10.0290 O   0  0  0  0  0  0  0  0  0  0  0  0
   26.8366  -20.4164  -10.6510 N   0  0  0  0  0  0  0  0  0  0  0  0
   26.6813  -19.7971  -11.9316 C   0  0  1  0  0  0  0  0  0  0  0  0
   27.9197  -19.3628  -12.6170 C   0  0  0  0  0  0  0  0  0  0  0  0
   27.7131  -18.7627  -13.9127 C   0  0  0  0  0  0  0  0  0  0  0  0
   27.4409  -17.4833  -14.2623 C   0  0  0  0  0  0  0  0  0  0  0  0
   27.3071  -17.3726  -15.6245 N   0  0  0  0  0  0  0  0  0  0  0  0
   27.5045  -18.6186  -16.0940 C   0  0  0  0  0  0  0  0  0  0  0  0
   27.7493  -19.4666  -15.0823 N   0  0  0  0  0  0  0  0  0  0  0  0
   25.8304  -20.6612  -12.8379 C   0  0  0  0  0  0  0  0  0  0  0  0
   25.9329  -21.8966  -12.6866 O   0  0  0  0  0  0  0  0  0  0  0  0
   20.6928  -22.7821  -13.6086 N   0  0  0  0  0  0  0  0  0  0  0  0
   20.6724  -21.3814  -13.3802 C   0  0  0  0  0  0  0  0  0  0  0  0
   19.6260  -20.7230  -13.1546 O   0  0  0  0  0  0  0  0  0  0  0  0
   21.9643  -20.6554  -13.4103 C   0  0  0  0  0  0  0  0  0  0  0  0
   23.1159  -21.6324  -13.6315 C   0  0  0  0  0  0  0  0  0  0  0  0
   24.0813  -20.9765  -14.6172 C   0  0  2  0  0  0  0  0  0  0  0  0
   24.9550  -20.1337  -13.8135 N   0  0  0  0  0  0  0  0  0  0  0  0
   23.2963  -20.2056  -15.5975 C   0  0  0  0  0  0  0  0  0  0  0  0
   22.7742  -20.7897  -16.7182 O   0  0  0  0  0  0  0  0  0  0  0  0
   23.1179  -18.9867  -15.3749 O   0  0  0  0  0  0  0  0  0  0  0  0
  2  1  1  1
  2  3  1  0
  3  4  1  0
  4  9  1  0
  4  5  2  0
  5  6  1  0
  6  7  2  0
  8  7  1  0
  9  8  2  0
 10  2  1  0
 10 11  2  0
 12 10  1  0
 13 12  1  0
 13 14  1  6
 15 14  1  0
 15 16  2  0
 17 16  1  0
 18 17  1  0
 19 18  2  0
 19 15  1  0
 20 13  1  0
 21 20  2  0
 23 22  1  0
 23 25  1  0
 24 23  2  0
 26 25  1  0
 27 26  1  1
 27 28  1  0
 28 20  1  0
 29 27  1  0
 29 30  1  0
 31 29  2  0
M  END
$$$$
