FHQ.pdb
     RDKit          3D

 31 32  0  0  1  0  0  0  0  0999 V2000
   13.8973   -9.6119   -9.8448 N   0  0  0  0  0  0  0  0  0  0  0  0
   14.5416   -8.3287   -9.9894 C   0  0  1  0  0  0  0  0  0  0  0  0
   15.1810   -7.8602   -8.6852 C   0  0  0  0  0  0  0  0  0  0  0  0
   14.1779   -7.2317   -7.7920 C   0  0  0  0  0  0  0  0  0  0  0  0
   13.3612   -8.0372   -7.0176 C   0  0  0  0  0  0  0  0  0  0  0  0
   12.3974   -7.4836   -6.1672 C   0  0  0  0  0  0  0  0  0  0  0  0
   12.2430   -6.1132   -6.0849 C   0  0  0  0  0  0  0  0  0  0  0  0
   13.0531   -5.3089   -6.8533 C   0  0  0  0  0  0  0  0  0  0  0  0
   14.0041   -5.8658   -7.6916 C   0  0  0  0  0  0  0  0  0  0  0  0
   15.5606   -8.4311  -11.0629 C   0  0  0  0  0  0  0  0  0  0  0  0
   16.3622   -9.4048  -11.1076 O   0  0  0  0  0  0  0  0  0  0  0  0
   15.6630   -7.4350  -12.0724 N   0  0  0  0  0  0  0  0  0  0  0  0
   16.5004   -7.4947  -13.2313 C   0  0  1  0  0  0  0  0  0  0  0  0
   15.8223   -7.4549  -14.5468 C   0  0  0  0  0  0  0  0  0  0  0  0
   16.7007   -7.5970  -15.6825 C   0  0  0  0  0  0  0  0  0  0  0  0
   17.0254   -8.6854  -16.4195 C   0  0  0  0  0  0  0  0  0  0  0  0
   17.9221   -8.3520  -17.4047 N   0  0  0  0  0  0  0  0  0  0  0  0
   18.1344   -7.0321  -17.2471 C   0  0  0  0  0  0  0  0  0  0  0  0
   17.4107   -6.5612  -16.2189 N   0  0  0  0  0  0  0  0  0  0  0  0
   17.5934   -6.4504  -13.1490 C   0  0  0  0  0  0  0  0  0  0  0  0
   17.3282   -5.4164  -12.5009 O   0  0  0  0  0  0  0  0  0  0  0  0
   23.3622   -6.8656  -15.6697 N   0  0  0  0  0  0  0  0  0  0  0  0
   23.3956   -5.5616  -15.1101 C   0  0  0  0  0  0  0  0  0  0  0  0
   24.4043   -4.8127  -15.1372 O   0  0  0  0  0  0  0  0  0  0  0  0
   22.1652   -5.0566  -14.4556 C   0  0  0  0  0  0  0  0  0  0  0  0
   21.0790   -6.1288  -14.4705 C   0  0  0  0  0  0  0  0  0  0  0  0
   19.8610   -5.5474  -13.7547 C   0  0  2  0  0  0  0  0  0  0  0  0
   18.8586   -6.6032  -13.7591 N   0  0  0  0  0  0  0  0  0  0  0  0
   19.4201   -4.3453  -14.4840 C   0  0  0  0  0  0  0  0  0  0  0  0
   19.6089   -3.0889  -13.9781 O   0  0  0  0  0  0  0  0  0  0  0  0
   18.8610   -4.5061  -15.5924 O   0  0  0  0  0  0  0  0  0  0  0  0
  2  1  1  1
  2  3  1  0
  3  4  1  0
  4  9  1  0
  4  5  2  0
  5  6  1  0
  6  7  2  0
  8  7  1  0
  9  8  2  0
 10  2  1  0
 10 11  2  0
 12 10  1  0
 13 12  1  0
 13 14  1  6
 15 14  1  0
 15 16  2  0
 17 16  1  0
 18 17  1  0
 19 18  2  0
 19 15  1  0
 20 13  1  0
 21 20  2  0
 23 22  1  0
 23 25  1  0
 24 23  2  0
 26 25  1  0
 27 26  1  6
 27 28  1  0
 28 20  1  0
 29 27  1  0
 29 30  1  0
 31 29  2  0
M  END
$$$$
