FHQ.pdb
     RDKit          3D

 31 32  0  0  1  0  0  0  0  0999 V2000
   28.6671  -20.7038   -8.9500 N   0  0  0  0  0  0  0  0  0  0  0  0
   27.2299  -20.7003   -8.8198 C   0  0  1  0  0  0  0  0  0  0  0  0
   26.7376  -19.5452   -7.9522 C   0  0  0  0  0  0  0  0  0  0  0  0
   27.3451  -19.5937   -6.6003 C   0  0  0  0  0  0  0  0  0  0  0  0
   27.0867  -20.6779   -5.7799 C   0  0  0  0  0  0  0  0  0  0  0  0
   27.6350  -20.7583   -4.4948 C   0  0  0  0  0  0  0  0  0  0  0  0
   28.4500  -19.7495   -4.0189 C   0  0  0  0  0  0  0  0  0  0  0  0
   28.7094  -18.6698   -4.8316 C   0  0  0  0  0  0  0  0  0  0  0  0
   28.1625  -18.5992   -6.1017 C   0  0  0  0  0  0  0  0  0  0  0  0
   26.6338  -20.6249  -10.1764 C   0  0  0  0  0  0  0  0  0  0  0  0
   26.8376  -19.6269  -10.9215 O   0  0  0  0  0  0  0  0  0  0  0  0
   25.8160  -21.6754  -10.6760 N   0  0  0  0  0  0  0  0  0  0  0  0
   25.1496  -21.6930  -11.9422 C   0  0  1  0  0  0  0  0  0  0  0  0
   25.1156  -22.9876  -12.6599 C   0  0  0  0  0  0  0  0  0  0  0  0
   24.5567  -22.9259  -13.9886 C   0  0  0  0  0  0  0  0  0  0  0  0
   24.8503  -22.1193  -15.0357 C   0  0  0  0  0  0  0  0  0  0  0  0
   24.0448  -22.4089  -16.1096 N   0  0  0  0  0  0  0  0  0  0  0  0
   23.2532  -23.4125  -15.6876 C   0  0  0  0  0  0  0  0  0  0  0  0
   23.5450  -23.7365  -14.4178 N   0  0  0  0  0  0  0  0  0  0  0  0
   23.7616  -21.1012  -11.8183 C   0  0  0  0  0  0  0  0  0  0  0  0
   23.1570  -21.3187  -10.7474 O   0  0  0  0  0  0  0  0  0  0  0  0
   21.1291  -16.9962  -15.7972 N   0  0  0  0  0  0  0  0  0  0  0  0
   20.2166  -16.9662  -14.7105 C   0  0  0  0  0  0  0  0  0  0  0  0
   19.1783  -16.2588  -14.6862 O   0  0  0  0  0  0  0  0  0  0  0  0
   20.5093  -17.8219  -13.5360 C   0  0  0  0  0  0  0  0  0  0  0  0
   21.7769  -18.6371  -13.7772 C   0  0  0  0  0  0  0  0  0  0  0  0
   21.8718  -19.6672  -12.6532 C   0  0  2  0  0  0  0  0  0  0  0  0
   23.1509  -20.3376  -12.8382 N   0  0  0  0  0  0  0  0  0  0  0  0
   20.7280  -20.5893  -12.7664 C   0  0  0  0  0  0  0  0  0  0  0  0
   20.6941  -21.5791  -13.7094 O   0  0  0  0  0  0  0  0  0  0  0  0
   19.7761  -20.4410  -11.9671 O   0  0  0  0  0  0  0  0  0  0  0  0
  2  1  1  6
  2  3  1  0
  3  4  1  0
  4  9  1  0
  4  5  2  0
  5  6  1  0
  6  7  2  0
  8  7  1  0
  9  8  2  0
 10  2  1  0
 10 11  2  0
 12 10  1  0
 13 12  1  0
 13 14  1  1
 15 14  1  0
 15 16  2  0
 17 16  1  0
 18 17  1  0
 19 18  2  0
 19 15  1  0
 20 13  1  0
 21 20  2  0
 23 22  1  0
 23 25  1  0
 24 23  2  0
 26 25  1  0
 27 26  1  6
 27 28  1  0
 28 20  1  0
 29 27  1  0
 29 30  1  0
 31 29  2  0
M  END
$$$$
