WIS.pdb
     RDKit          3D

 29 30  0  0  1  0  0  0  0  0999 V2000
   26.9754  -18.4199   -8.7947 N   0  0  0  0  0  0  0  0  0  0  0  0
   26.8875  -19.8524   -8.9866 C   0  0  1  0  0  0  0  0  0  0  0  0
   26.3099  -20.4694   -7.7153 C   0  0  0  0  0  0  0  0  0  0  0  0
   26.9304  -19.9061   -6.4974 C   0  0  0  0  0  0  0  0  0  0  0  0
   26.4122  -18.9753   -5.6360 C   0  0  0  0  0  0  0  0  0  0  0  0
   27.3268  -18.7648   -4.6722 N   0  0  0  0  0  0  0  0  0  0  0  0
   28.4220  -19.5420   -4.8977 C   0  0  0  0  0  0  0  0  0  0  0  0
   29.6125  -19.6836   -4.1997 C   0  0  0  0  0  0  0  0  0  0  0  0
   30.5798  -20.5640   -4.6582 C   0  0  0  0  0  0  0  0  0  0  0  0
   30.3126  -21.2757   -5.8112 C   0  0  0  0  0  0  0  0  0  0  0  0
   29.1484  -21.1523   -6.5142 C   0  0  0  0  0  0  0  0  0  0  0  0
   28.1806  -20.2567   -6.0357 C   0  0  0  0  0  0  0  0  0  0  0  0
   25.9667  -20.1185  -10.1074 C   0  0  0  0  0  0  0  0  0  0  0  0
   24.9555  -19.3847  -10.2492 O   0  0  0  0  0  0  0  0  0  0  0  0
   27.8891  -19.2344  -13.7730 C   0  0  0  0  0  0  0  0  0  0  0  0
   28.2162  -20.6218  -13.1710 C   0  0  0  0  0  0  0  0  0  0  0  0
   26.9796  -21.4603  -13.3095 C   0  0  2  0  0  0  0  0  0  0  0  0
   26.6435  -21.4914  -14.7871 C   0  0  0  0  0  0  0  0  0  0  0  0
   25.8048  -21.0254  -12.4730 C   0  0  2  0  0  0  0  0  0  0  0  0
   26.1620  -21.1686  -11.0442 N   0  0  0  0  0  0  0  0  0  0  0  0
   24.5458  -21.7389  -12.7484 C   0  0  0  0  0  0  0  0  0  0  0  0
   24.5340  -23.0128  -12.9349 O   0  0  0  0  0  0  0  0  0  0  0  0
   21.0563  -19.8325  -13.5425 O   0  0  0  0  0  0  0  0  0  0  0  0
   20.8051  -21.0838  -12.9718 C   0  0  0  0  0  0  0  0  0  0  0  0
   22.0604  -21.9109  -13.1479 C   0  0  2  0  0  0  0  0  0  0  0  0
   23.2551  -21.1574  -12.8341 N   0  0  0  0  0  0  0  0  0  0  0  0
   22.1551  -22.4719  -14.4889 C   0  0  0  0  0  0  0  0  0  0  0  0
   22.8815  -21.9625  -15.3852 O   0  0  0  0  0  0  0  0  0  0  0  0
   21.4368  -23.6033  -14.8263 O   0  0  0  0  0  0  0  0  0  0  0  0
  2  1  1  1
  2 13  1  0
  3  2  1  0
  4  3  1  0
  4 12  1  0
  5  6  1  0
  5  4  2  0
  6  7  1  0
  7  8  1  0
  7 12  2  0
  8  9  2  0
  9 10  1  0
 11 10  2  0
 12 11  1  0
 13 14  2  0
 16 15  1  0
 17 16  1  0
 17 19  1  0
 17 18  1  6
 19 21  1  0
 19 20  1  1
 20 13  1  0
 21 22  2  0
 23 24  1  0
 25 24  1  6
 25 27  1  0
 26 21  1  0
 26 25  1  0
 27 28  2  0
 27 29  1  0
M  END
$$$$
