WIS.pdb
     RDKit          3D

 29 30  0  0  1  0  0  0  0  0999 V2000
   20.7477  -12.5333  -17.5415 N   0  0  0  0  0  0  0  0  0  0  0  0
   19.6561  -11.6892  -17.1028 C   0  0  1  0  0  0  0  0  0  0  0  0
   19.3765  -11.9962  -15.6337 C   0  0  0  0  0  0  0  0  0  0  0  0
   18.7976  -13.3444  -15.4522 C   0  0  0  0  0  0  0  0  0  0  0  0
   19.4344  -14.4946  -15.0671 C   0  0  0  0  0  0  0  0  0  0  0  0
   18.5134  -15.4747  -15.0374 N   0  0  0  0  0  0  0  0  0  0  0  0
   17.2977  -14.9764  -15.3957 C   0  0  0  0  0  0  0  0  0  0  0  0
   16.0531  -15.5775  -15.5157 C   0  0  0  0  0  0  0  0  0  0  0  0
   14.9580  -14.8229  -15.9060 C   0  0  0  0  0  0  0  0  0  0  0  0
   15.1559  -13.4805  -16.1636 C   0  0  0  0  0  0  0  0  0  0  0  0
   16.3714  -12.8681  -16.0521 C   0  0  0  0  0  0  0  0  0  0  0  0
   17.4687  -13.6471  -15.6559 C   0  0  0  0  0  0  0  0  0  0  0  0
   20.0760  -10.2807  -17.2246 C   0  0  0  0  0  0  0  0  0  0  0  0
   21.2729   -9.9812  -16.9822 O   0  0  0  0  0  0  0  0  0  0  0  0
   17.9002   -7.7458  -20.9915 C   0  0  0  0  0  0  0  0  0  0  0  0
   19.2304   -7.6892  -20.2030 C   0  0  0  0  0  0  0  0  0  0  0  0
   18.9052   -7.1639  -18.8356 C   0  0  2  0  0  0  0  0  0  0  0  0
   19.1541   -5.6695  -18.8777 C   0  0  0  0  0  0  0  0  0  0  0  0
   19.6361   -7.8255  -17.6967 C   0  0  2  0  0  0  0  0  0  0  0  0
   19.1933   -9.2343  -17.6044 N   0  0  0  0  0  0  0  0  0  0  0  0
   19.4806   -7.1650  -16.3892 C   0  0  0  0  0  0  0  0  0  0  0  0
   18.3474   -7.1657  -15.7779 O   0  0  0  0  0  0  0  0  0  0  0  0
   22.4664   -5.0380  -14.2932 O   0  0  0  0  0  0  0  0  0  0  0  0
   21.5585   -5.8088  -13.5610 C   0  0  0  0  0  0  0  0  0  0  0  0
   20.2823   -5.8790  -14.3718 C   0  0  2  0  0  0  0  0  0  0  0  0
   20.4955   -6.4862  -15.6678 N   0  0  0  0  0  0  0  0  0  0  0  0
   19.6651   -4.5683  -14.5238 C   0  0  0  0  0  0  0  0  0  0  0  0
   19.6664   -3.9432  -15.6191 O   0  0  0  0  0  0  0  0  0  0  0  0
   19.0462   -3.9576  -13.4496 O   0  0  0  0  0  0  0  0  0  0  0  0
  2  1  1  1
  2 13  1  0
  3  2  1  0
  4  3  1  0
  4 12  1  0
  5  6  1  0
  5  4  2  0
  6  7  1  0
  7  8  1  0
  7 12  2  0
  8  9  2  0
  9 10  1  0
 11 10  2  0
 12 11  1  0
 13 14  2  0
 16 15  1  0
 17 16  1  0
 17 19  1  0
 17 18  1  6
 19 21  1  0
 19 20  1  1
 20 13  1  0
 21 22  2  0
 23 24  1  0
 25 24  1  6
 25 27  1  0
 26 21  1  0
 26 25  1  0
 27 28  2  0
 27 29  1  0
M  END
$$$$
