WIS.pdb
     RDKit          3D

 29 30  0  0  1  0  0  0  0  0999 V2000
   26.8163  -19.4237  -16.9164 N   0  0  0  0  0  0  0  0  0  0  0  0
   26.3194  -18.8813  -15.6692 C   0  0  1  0  0  0  0  0  0  0  0  0
   25.1340  -17.9720  -15.9831 C   0  0  0  0  0  0  0  0  0  0  0  0
   25.5406  -16.7859  -16.7663 C   0  0  0  0  0  0  0  0  0  0  0  0
   25.2397  -16.4874  -18.0691 C   0  0  0  0  0  0  0  0  0  0  0  0
   25.8221  -15.3096  -18.3577 N   0  0  0  0  0  0  0  0  0  0  0  0
   26.4911  -14.8459  -17.2659 C   0  0  0  0  0  0  0  0  0  0  0  0
   27.2375  -13.6945  -17.0614 C   0  0  0  0  0  0  0  0  0  0  0  0
   27.8227  -13.4627  -15.8266 C   0  0  0  0  0  0  0  0  0  0  0  0
   27.6345  -14.4047  -14.8344 C   0  0  0  0  0  0  0  0  0  0  0  0
   26.9042  -15.5447  -15.0132 C   0  0  0  0  0  0  0  0  0  0  0  0
   26.3191  -15.7630  -16.2693 C   0  0  0  0  0  0  0  0  0  0  0  0
   25.8542  -19.9981  -14.8259 C   0  0  0  0  0  0  0  0  0  0  0  0
   25.3492  -21.0075  -15.3801 O   0  0  0  0  0  0  0  0  0  0  0  0
   27.8329  -21.3061   -9.7702 C   0  0  0  0  0  0  0  0  0  0  0  0
   27.3267  -21.4222  -11.2277 C   0  0  0  0  0  0  0  0  0  0  0  0
   25.8766  -21.0368  -11.2183 C   0  0  2  0  0  0  0  0  0  0  0  0
   25.1778  -22.0113  -10.2914 C   0  0  0  0  0  0  0  0  0  0  0  0
   25.2148  -20.9707  -12.5698 C   0  0  2  0  0  0  0  0  0  0  0  0
   25.9465  -19.9953  -13.4082 N   0  0  0  0  0  0  0  0  0  0  0  0
   23.7810  -20.6340  -12.5456 C   0  0  0  0  0  0  0  0  0  0  0  0
   23.3767  -19.4908  -12.1128 O   0  0  0  0  0  0  0  0  0  0  0  0
   20.8861  -22.9398  -14.3222 O   0  0  0  0  0  0  0  0  0  0  0  0
   20.6339  -21.5657  -14.2695 C   0  0  0  0  0  0  0  0  0  0  0  0
   21.3392  -21.0328  -13.0409 C   0  0  2  0  0  0  0  0  0  0  0  0
   22.7174  -21.4684  -12.9747 N   0  0  0  0  0  0  0  0  0  0  0  0
   20.6371  -21.3912  -11.8159 C   0  0  0  0  0  0  0  0  0  0  0  0
   21.1596  -22.1133  -10.9237 O   0  0  0  0  0  0  0  0  0  0  0  0
   19.3503  -20.9408  -11.5897 O   0  0  0  0  0  0  0  0  0  0  0  0
  2  1  1  6
  2 13  1  0
  3  2  1  0
  4  3  1  0
  4 12  1  0
  5  6  1  0
  5  4  2  0
  6  7  1  0
  7  8  1  0
  7 12  2  0
  8  9  2  0
  9 10  1  0
 11 10  2  0
 12 11  1  0
 13 14  2  0
 16 15  1  0
 17 16  1  0
 17 19  1  0
 17 18  1  1
 19 21  1  0
 19 20  1  6
 20 13  1  0
 21 22  2  0
 23 24  1  0
 25 24  1  6
 25 27  1  0
 26 21  1  0
 26 25  1  0
 27 28  2  0
 27 29  1  0
M  END
$$$$
