WIS.pdb
     RDKit          3D

 29 30  0  0  1  0  0  0  0  0999 V2000
   26.9510  -20.6390  -12.1573 N   0  0  0  0  0  0  0  0  0  0  0  0
   26.0092  -20.0246  -11.2452 C   0  0  1  0  0  0  0  0  0  0  0  0
   24.5974  -20.3467  -11.7287 C   0  0  0  0  0  0  0  0  0  0  0  0
   24.2792  -19.6606  -12.9989 C   0  0  0  0  0  0  0  0  0  0  0  0
   25.1378  -19.0223  -13.8547 C   0  0  0  0  0  0  0  0  0  0  0  0
   24.4066  -18.5466  -14.8789 N   0  0  0  0  0  0  0  0  0  0  0  0
   23.0954  -18.8670  -14.6975 C   0  0  0  0  0  0  0  0  0  0  0  0
   21.9678  -18.6072  -15.4628 C   0  0  0  0  0  0  0  0  0  0  0  0
   20.7278  -19.0578  -15.0381 C   0  0  0  0  0  0  0  0  0  0  0  0
   20.6663  -19.7589  -13.8497 C   0  0  0  0  0  0  0  0  0  0  0  0
   21.7627  -20.0259  -13.0806 C   0  0  0  0  0  0  0  0  0  0  0  0
   23.0096  -19.5623  -13.5258 C   0  0  0  0  0  0  0  0  0  0  0  0
   26.2016  -20.6140   -9.9071 C   0  0  0  0  0  0  0  0  0  0  0  0
   26.4236  -21.8481   -9.8139 O   0  0  0  0  0  0  0  0  0  0  0  0
   28.8066  -17.9542   -5.9590 C   0  0  0  0  0  0  0  0  0  0  0  0
   28.3807  -19.1360   -6.8625 C   0  0  0  0  0  0  0  0  0  0  0  0
   26.9875  -19.5165   -6.4556 C   0  0  2  0  0  0  0  0  0  0  0  0
   27.0820  -20.0461   -5.0386 C   0  0  0  0  0  0  0  0  0  0  0  0
   26.2856  -20.4830   -7.3732 C   0  0  2  0  0  0  0  0  0  0  0  0
   26.1492  -19.8561   -8.7066 N   0  0  0  0  0  0  0  0  0  0  0  0
   24.9696  -20.9468   -6.9009 C   0  0  0  0  0  0  0  0  0  0  0  0
   23.9303  -20.1922   -6.9914 O   0  0  0  0  0  0  0  0  0  0  0  0
   24.3359  -24.5958   -5.1289 O   0  0  0  0  0  0  0  0  0  0  0  0
   23.2320  -24.1323   -5.8507 C   0  0  0  0  0  0  0  0  0  0  0  0
   23.3556  -22.6258   -5.9302 C   0  0  2  0  0  0  0  0  0  0  0  0
   24.6846  -22.2106   -6.3239 N   0  0  0  0  0  0  0  0  0  0  0  0
   22.9766  -21.9850   -4.6782 C   0  0  0  0  0  0  0  0  0  0  0  0
   23.8017  -21.3492   -3.9672 O   0  0  0  0  0  0  0  0  0  0  0  0
   21.6740  -22.0557   -4.2224 O   0  0  0  0  0  0  0  0  0  0  0  0
  2  1  1  6
  2 13  1  0
  3  2  1  0
  4  3  1  0
  4 12  1  0
  5  6  1  0
  5  4  2  0
  6  7  1  0
  7  8  1  0
  7 12  2  0
  8  9  2  0
  9 10  1  0
 11 10  2  0
 12 11  1  0
 13 14  2  0
 16 15  1  0
 17 16  1  0
 17 19  1  0
 17 18  1  1
 19 21  1  0
 19 20  1  6
 20 13  1  0
 21 22  2  0
 23 24  1  0
 25 24  1  1
 25 27  1  0
 26 21  1  0
 26 25  1  0
 27 28  2  0
 27 29  1  0
M  END
$$$$
