WIS.pdb
     RDKit          3D

 29 30  0  0  1  0  0  0  0  0999 V2000
   28.5944  -20.8015  -14.9652 N   0  0  0  0  0  0  0  0  0  0  0  0
   27.4204  -20.0612  -14.5527 C   0  0  1  0  0  0  0  0  0  0  0  0
   26.5090  -19.8971  -15.7665 C   0  0  0  0  0  0  0  0  0  0  0  0
   27.0317  -18.8927  -16.7170 C   0  0  0  0  0  0  0  0  0  0  0  0
   28.1590  -18.9662  -17.4920 C   0  0  0  0  0  0  0  0  0  0  0  0
   28.2376  -17.8243  -18.1987 N   0  0  0  0  0  0  0  0  0  0  0  0
   27.1829  -17.0189  -17.8929 C   0  0  0  0  0  0  0  0  0  0  0  0
   26.8214  -15.7593  -18.3482 C   0  0  0  0  0  0  0  0  0  0  0  0
   25.6735  -15.1537  -17.8616 C   0  0  0  0  0  0  0  0  0  0  0  0
   24.9250  -15.8424  -16.9274 C   0  0  0  0  0  0  0  0  0  0  0  0
   25.2617  -17.0825  -16.4651 C   0  0  0  0  0  0  0  0  0  0  0  0
   26.4266  -17.6803  -16.9685 C   0  0  0  0  0  0  0  0  0  0  0  0
   26.7103  -20.8454  -13.5252 C   0  0  0  0  0  0  0  0  0  0  0  0
   26.5926  -22.0872  -13.6833 O   0  0  0  0  0  0  0  0  0  0  0  0
   26.8395  -19.7418   -8.1796 C   0  0  0  0  0  0  0  0  0  0  0  0
   26.8499  -20.5232   -9.5150 C   0  0  0  0  0  0  0  0  0  0  0  0
   25.4462  -20.5012  -10.0446 C   0  0  2  0  0  0  0  0  0  0  0  0
   24.5947  -21.2509   -9.0396 C   0  0  0  0  0  0  0  0  0  0  0  0
   25.2723  -21.0365  -11.4418 C   0  0  2  0  0  0  0  0  0  0  0  0
   26.1467  -20.2684  -12.3556 N   0  0  0  0  0  0  0  0  0  0  0  0
   23.8881  -21.0249  -11.9457 C   0  0  0  0  0  0  0  0  0  0  0  0
   23.2325  -19.9221  -12.0543 O   0  0  0  0  0  0  0  0  0  0  0  0
   22.3879  -23.7850  -14.3068 O   0  0  0  0  0  0  0  0  0  0  0  0
   21.3279  -23.3579  -13.5015 C   0  0  0  0  0  0  0  0  0  0  0  0
   21.7713  -22.0768  -12.8284 C   0  0  2  0  0  0  0  0  0  0  0  0
   23.1380  -22.1551  -12.3597 N   0  0  0  0  0  0  0  0  0  0  0  0
   20.8833  -21.7045  -11.7354 C   0  0  0  0  0  0  0  0  0  0  0  0
   21.2712  -21.6537  -10.5364 O   0  0  0  0  0  0  0  0  0  0  0  0
   19.5613  -21.3886  -11.9846 O   0  0  0  0  0  0  0  0  0  0  0  0
  2  1  1  6
  2 13  1  0
  3  2  1  0
  4  3  1  0
  4 12  1  0
  5  6  1  0
  5  4  2  0
  6  7  1  0
  7  8  1  0
  7 12  2  0
  8  9  2  0
  9 10  1  0
 11 10  2  0
 12 11  1  0
 13 14  2  0
 16 15  1  0
 17 16  1  0
 17 19  1  0
 17 18  1  1
 19 21  1  0
 19 20  1  6
 20 13  1  0
 21 22  2  0
 23 24  1  0
 25 24  1  1
 25 27  1  0
 26 21  1  0
 26 25  1  0
 27 28  2  0
 27 29  1  0
M  END
$$$$
