WIS.pdb
     RDKit          3D

 29 30  0  0  1  0  0  0  0  0999 V2000
   28.0003  -20.4885  -17.3112 N   0  0  0  0  0  0  0  0  0  0  0  0
   27.1573  -19.6386  -16.4967 C   0  0  1  0  0  0  0  0  0  0  0  0
   25.9747  -19.1830  -17.3479 C   0  0  0  0  0  0  0  0  0  0  0  0
   26.3956  -18.2757  -18.4366 C   0  0  0  0  0  0  0  0  0  0  0  0
   26.0776  -18.3451  -19.7673 C   0  0  0  0  0  0  0  0  0  0  0  0
   26.6834  -17.3125  -20.3810 N   0  0  0  0  0  0  0  0  0  0  0  0
   27.3841  -16.5814  -19.4704 C   0  0  0  0  0  0  0  0  0  0  0  0
   28.1624  -15.4409  -19.6052 C   0  0  0  0  0  0  0  0  0  0  0  0
   28.7764  -14.8900  -18.4914 C   0  0  0  0  0  0  0  0  0  0  0  0
   28.5839  -15.5109  -17.2729 C   0  0  0  0  0  0  0  0  0  0  0  0
   27.8224  -16.6337  -17.1169 C   0  0  0  0  0  0  0  0  0  0  0  0
   27.2084  -17.1777  -18.2549 C   0  0  0  0  0  0  0  0  0  0  0  0
   26.6507  -20.4322  -15.3615 C   0  0  0  0  0  0  0  0  0  0  0  0
   26.5457  -21.6784  -15.4913 O   0  0  0  0  0  0  0  0  0  0  0  0
   28.1899  -21.6186  -11.8045 C   0  0  0  0  0  0  0  0  0  0  0  0
   27.7184  -20.1617  -11.5821 C   0  0  0  0  0  0  0  0  0  0  0  0
   26.2235  -20.1622  -11.7113 C   0  0  2  0  0  0  0  0  0  0  0  0
   25.6897  -20.9571  -10.5365 C   0  0  0  0  0  0  0  0  0  0  0  0
   25.6869  -20.6678  -13.0248 C   0  0  2  0  0  0  0  0  0  0  0  0
   26.2714  -19.8596  -14.1179 N   0  0  0  0  0  0  0  0  0  0  0  0
   24.2181  -20.6739  -13.1368 C   0  0  0  0  0  0  0  0  0  0  0  0
   23.5367  -19.5949  -12.9660 O   0  0  0  0  0  0  0  0  0  0  0  0
   21.9666  -24.0747  -13.4778 O   0  0  0  0  0  0  0  0  0  0  0  0
   21.3816  -22.9931  -14.1430 C   0  0  0  0  0  0  0  0  0  0  0  0
   21.9637  -21.7337  -13.5379 C   0  0  2  0  0  0  0  0  0  0  0  0
   23.4056  -21.7973  -13.4354 N   0  0  0  0  0  0  0  0  0  0  0  0
   21.3778  -21.4375  -12.2375 C   0  0  0  0  0  0  0  0  0  0  0  0
   22.0594  -21.4218  -11.1766 O   0  0  0  0  0  0  0  0  0  0  0  0
   20.0290  -21.1584  -12.1251 O   0  0  0  0  0  0  0  0  0  0  0  0
  2  1  1  6
  2 13  1  0
  3  2  1  0
  4  3  1  0
  4 12  1  0
  5  6  1  0
  5  4  2  0
  6  7  1  0
  7  8  1  0
  7 12  2  0
  8  9  2  0
  9 10  1  0
 11 10  2  0
 12 11  1  0
 13 14  2  0
 16 15  1  0
 17 16  1  0
 17 19  1  0
 17 18  1  1
 19 21  1  0
 19 20  1  6
 20 13  1  0
 21 22  2  0
 23 24  1  0
 25 24  1  1
 25 27  1  0
 26 21  1  0
 26 25  1  0
 27 28  2  0
 27 29  1  0
M  END
$$$$
