WIS.pdb
     RDKit          3D

 29 30  0  0  1  0  0  0  0  0999 V2000
   28.1747  -18.9702  -12.4683 N   0  0  0  0  0  0  0  0  0  0  0  0
   27.9531  -20.3403  -12.8811 C   0  0  1  0  0  0  0  0  0  0  0  0
   27.2568  -21.0759  -11.7388 C   0  0  0  0  0  0  0  0  0  0  0  0
   28.0891  -21.1123  -10.5175 C   0  0  0  0  0  0  0  0  0  0  0  0
   27.8020  -20.5961   -9.2814 C   0  0  0  0  0  0  0  0  0  0  0  0
   28.8483  -20.8644   -8.4795 N   0  0  0  0  0  0  0  0  0  0  0  0
   29.8017  -21.5427   -9.1764 C   0  0  0  0  0  0  0  0  0  0  0  0
   31.0427  -22.0363   -8.8013 C   0  0  0  0  0  0  0  0  0  0  0  0
   31.8283  -22.7029   -9.7284 C   0  0  0  0  0  0  0  0  0  0  0  0
   31.3333  -22.8500  -11.0093 C   0  0  0  0  0  0  0  0  0  0  0  0
   30.1152  -22.3725  -11.4006 C   0  0  0  0  0  0  0  0  0  0  0  0
   29.3336  -21.7004  -10.4492 C   0  0  0  0  0  0  0  0  0  0  0  0
   27.0644  -20.3362  -14.0581 C   0  0  0  0  0  0  0  0  0  0  0  0
   26.4895  -19.2655  -14.3805 O   0  0  0  0  0  0  0  0  0  0  0  0
   28.8762  -23.1149  -17.3479 C   0  0  0  0  0  0  0  0  0  0  0  0
   27.8679  -21.9907  -17.6848 C   0  0  0  0  0  0  0  0  0  0  0  0
   26.5508  -22.3927  -17.0889 C   0  0  2  0  0  0  0  0  0  0  0  0
   25.6029  -22.6168  -18.2502 C   0  0  0  0  0  0  0  0  0  0  0  0
   25.9813  -21.4382  -16.0723 C   0  0  2  0  0  0  0  0  0  0  0  0
   26.8206  -21.4871  -14.8546 N   0  0  0  0  0  0  0  0  0  0  0  0
   24.5709  -21.6737  -15.7182 C   0  0  0  0  0  0  0  0  0  0  0  0
   24.2279  -22.6906  -15.0068 O   0  0  0  0  0  0  0  0  0  0  0  0
   21.6168  -18.8367  -15.8593 O   0  0  0  0  0  0  0  0  0  0  0  0
   21.4938  -19.9127  -14.9752 C   0  0  0  0  0  0  0  0  0  0  0  0
   22.1109  -21.1165  -15.6542 C   0  0  2  0  0  0  0  0  0  0  0  0
   23.4684  -20.8602  -16.0843 N   0  0  0  0  0  0  0  0  0  0  0  0
   21.3043  -21.5773  -16.7763 C   0  0  0  0  0  0  0  0  0  0  0  0
   21.6655  -21.4272  -17.9753 O   0  0  0  0  0  0  0  0  0  0  0  0
   20.0938  -22.2065  -16.5560 O   0  0  0  0  0  0  0  0  0  0  0  0
  2  1  1  1
  2 13  1  0
  3  2  1  0
  4  3  1  0
  4 12  1  0
  5  6  1  0
  5  4  2  0
  6  7  1  0
  7  8  1  0
  7 12  2  0
  8  9  2  0
  9 10  1  0
 11 10  2  0
 12 11  1  0
 13 14  2  0
 16 15  1  0
 17 16  1  0
 17 19  1  0
 17 18  1  6
 19 21  1  0
 19 20  1  1
 20 13  1  0
 21 22  2  0
 23 24  1  0
 25 24  1  6
 25 27  1  0
 26 21  1  0
 26 25  1  0
 27 28  2  0
 27 29  1  0
M  END
$$$$
