WIS.pdb
     RDKit          3D

 29 30  0  0  1  0  0  0  0  0999 V2000
   27.3088  -35.4987   -9.5416 N   0  0  0  0  0  0  0  0  0  0  0  0
   27.4214  -34.4394   -8.5609 C   0  0  1  0  0  0  0  0  0  0  0  0
   26.0140  -34.0508   -8.1147 C   0  0  0  0  0  0  0  0  0  0  0  0
   25.3306  -33.2066   -9.1176 C   0  0  0  0  0  0  0  0  0  0  0  0
   24.9341  -33.5486  -10.3836 C   0  0  0  0  0  0  0  0  0  0  0  0
   24.3550  -32.4648  -10.9312 N   0  0  0  0  0  0  0  0  0  0  0  0
   24.3719  -31.4336  -10.0418 C   0  0  0  0  0  0  0  0  0  0  0  0
   23.9044  -30.1305  -10.1309 C   0  0  0  0  0  0  0  0  0  0  0  0
   24.0526  -29.2700   -9.0545 C   0  0  0  0  0  0  0  0  0  0  0  0
   24.6704  -29.7551   -7.9186 C   0  0  0  0  0  0  0  0  0  0  0  0
   25.1381  -31.0334   -7.8087 C   0  0  0  0  0  0  0  0  0  0  0  0
   24.9796  -31.8905   -8.9078 C   0  0  0  0  0  0  0  0  0  0  0  0
   28.1654  -34.9564   -7.3973 C   0  0  0  0  0  0  0  0  0  0  0  0
   28.1055  -36.1848   -7.1358 O   0  0  0  0  0  0  0  0  0  0  0  0
   33.1623  -33.1290   -6.5137 C   0  0  0  0  0  0  0  0  0  0  0  0
   31.9071  -34.0083   -6.7273 C   0  0  0  0  0  0  0  0  0  0  0  0
   31.1120  -33.9503   -5.4562 C   0  0  2  0  0  0  0  0  0  0  0  0
   32.0281  -34.4395   -4.3523 C   0  0  0  0  0  0  0  0  0  0  0  0
   29.8038  -34.6967   -5.4756 C   0  0  2  0  0  0  0  0  0  0  0  0
   28.9534  -34.1341   -6.5479 N   0  0  0  0  0  0  0  0  0  0  0  0
   29.0671  -34.6960   -4.1999 C   0  0  0  0  0  0  0  0  0  0  0  0
   28.6842  -33.5929   -3.6574 O   0  0  0  0  0  0  0  0  0  0  0  0
   28.3611  -38.0497   -1.8893 O   0  0  0  0  0  0  0  0  0  0  0  0
   27.3276  -37.1090   -1.8528 C   0  0  0  0  0  0  0  0  0  0  0  0
   27.9334  -35.7710   -2.2187 C   0  0  2  0  0  0  0  0  0  0  0  0
   28.6971  -35.8387   -3.4458 N   0  0  0  0  0  0  0  0  0  0  0  0
   28.7553  -35.2365   -1.1414 C   0  0  0  0  0  0  0  0  0  0  0  0
   30.0152  -35.2220   -1.1956 O   0  0  0  0  0  0  0  0  0  0  0  0
   28.1668  -34.7178   -0.0037 O   0  0  0  0  0  0  0  0  0  0  0  0
  2  1  1  6
  2 13  1  0
  3  2  1  0
  4  3  1  0
  4 12  1  0
  5  6  1  0
  5  4  2  0
  6  7  1  0
  7  8  1  0
  7 12  2  0
  8  9  2  0
  9 10  1  0
 11 10  2  0
 12 11  1  0
 13 14  2  0
 16 15  1  0
 17 16  1  0
 17 19  1  0
 17 18  1  1
 19 21  1  0
 19 20  1  6
 20 13  1  0
 21 22  2  0
 23 24  1  0
 25 24  1  1
 25 27  1  0
 26 21  1  0
 26 25  1  0
 27 28  2  0
 27 29  1  0
M  END
$$$$
