WIS.pdb
     RDKit          3D

 29 30  0  0  1  0  0  0  0  0999 V2000
   26.9078  -20.4409  -11.5651 N   0  0  0  0  0  0  0  0  0  0  0  0
   26.0452  -20.1666  -10.4349 C   0  0  1  0  0  0  0  0  0  0  0  0
   24.7416  -20.9364  -10.6319 C   0  0  0  0  0  0  0  0  0  0  0  0
   23.9003  -20.3356  -11.6887 C   0  0  0  0  0  0  0  0  0  0  0  0
   24.1486  -20.2714  -13.0345 C   0  0  0  0  0  0  0  0  0  0  0  0
   23.1098  -19.6361  -13.6062 N   0  0  0  0  0  0  0  0  0  0  0  0
   22.1993  -19.2911  -12.6541 C   0  0  0  0  0  0  0  0  0  0  0  0
   20.9813  -18.6322  -12.7378 C   0  0  0  0  0  0  0  0  0  0  0  0
   20.2395  -18.4061  -11.5890 C   0  0  0  0  0  0  0  0  0  0  0  0
   20.7537  -18.8544  -10.3882 C   0  0  0  0  0  0  0  0  0  0  0  0
   21.9498  -19.5048  -10.2822 C   0  0  0  0  0  0  0  0  0  0  0  0
   22.6871  -19.7251  -11.4551 C   0  0  0  0  0  0  0  0  0  0  0  0
   26.7079  -20.6552   -9.2114 C   0  0  0  0  0  0  0  0  0  0  0  0
   27.2819  -21.7735   -9.2375 O   0  0  0  0  0  0  0  0  0  0  0  0
   29.4795  -17.5381   -5.8187 C   0  0  0  0  0  0  0  0  0  0  0  0
   29.1083  -18.7970   -6.6382 C   0  0  0  0  0  0  0  0  0  0  0  0
   27.9420  -19.4397   -5.9468 C   0  0  2  0  0  0  0  0  0  0  0  0
   28.4594  -19.9560   -4.6191 C   0  0  0  0  0  0  0  0  0  0  0  0
   27.2343  -20.5128   -6.7320 C   0  0  2  0  0  0  0  0  0  0  0  0
   26.7330  -19.9239   -7.9935 N   0  0  0  0  0  0  0  0  0  0  0  0
   26.1325  -21.1822   -6.0193 C   0  0  0  0  0  0  0  0  0  0  0  0
   25.0399  -20.5557   -5.7520 O   0  0  0  0  0  0  0  0  0  0  0  0
   26.3258  -24.9335   -4.2392 O   0  0  0  0  0  0  0  0  0  0  0  0
   25.1090  -24.6494   -4.8664 C   0  0  0  0  0  0  0  0  0  0  0  0
   24.9816  -23.1423   -4.9240 C   0  0  2  0  0  0  0  0  0  0  0  0
   26.1231  -22.5254   -5.5643 N   0  0  0  0  0  0  0  0  0  0  0  0
   24.7716  -22.5663   -3.6026 C   0  0  0  0  0  0  0  0  0  0  0  0
   25.5963  -21.7734   -3.0718 O   0  0  0  0  0  0  0  0  0  0  0  0
   23.6383  -22.8775   -2.8758 O   0  0  0  0  0  0  0  0  0  0  0  0
  2  1  1  6
  2 13  1  0
  3  2  1  0
  4  3  1  0
  4 12  1  0
  5  6  1  0
  5  4  2  0
  6  7  1  0
  7  8  1  0
  7 12  2  0
  8  9  2  0
  9 10  1  0
 11 10  2  0
 12 11  1  0
 13 14  2  0
 16 15  1  0
 17 16  1  0
 17 19  1  0
 17 18  1  1
 19 21  1  0
 19 20  1  6
 20 13  1  0
 21 22  2  0
 23 24  1  0
 25 24  1  1
 25 27  1  0
 26 21  1  0
 26 25  1  0
 27 28  2  0
 27 29  1  0
M  END
$$$$
