WIS.pdb
     RDKit          3D

 29 30  0  0  1  0  0  0  0  0999 V2000
   27.2254  -22.4054  -10.7316 N   0  0  0  0  0  0  0  0  0  0  0  0
   26.4314  -21.3123  -10.2107 C   0  0  1  0  0  0  0  0  0  0  0  0
   27.3048  -20.0604  -10.1806 C   0  0  0  0  0  0  0  0  0  0  0  0
   28.4372  -20.2002   -9.2406 C   0  0  0  0  0  0  0  0  0  0  0  0
   29.7112  -20.6278   -9.5073 C   0  0  0  0  0  0  0  0  0  0  0  0
   30.3983  -20.5933   -8.3512 N   0  0  0  0  0  0  0  0  0  0  0  0
   29.5906  -20.1519   -7.3475 C   0  0  0  0  0  0  0  0  0  0  0  0
   29.8271  -19.9451   -5.9962 C   0  0  0  0  0  0  0  0  0  0  0  0
   28.8071  -19.4796   -5.1813 C   0  0  0  0  0  0  0  0  0  0  0  0
   27.5766  -19.2370   -5.7595 C   0  0  0  0  0  0  0  0  0  0  0  0
   27.3213  -19.4334   -7.0866 C   0  0  0  0  0  0  0  0  0  0  0  0
   28.3652  -19.9049   -7.8965 C   0  0  0  0  0  0  0  0  0  0  0  0
   25.2972  -21.0812  -11.1245 C   0  0  0  0  0  0  0  0  0  0  0  0
   25.4370  -21.3490  -12.3450 O   0  0  0  0  0  0  0  0  0  0  0  0
   19.3330  -21.4731   -9.9067 C   0  0  0  0  0  0  0  0  0  0  0  0
   20.3145  -21.2301  -11.0779 C   0  0  0  0  0  0  0  0  0  0  0  0
   21.6611  -20.9656  -10.4712 C   0  0  2  0  0  0  0  0  0  0  0  0
   21.5034  -19.7440   -9.5881 C   0  0  0  0  0  0  0  0  0  0  0  0
   22.7943  -20.8103  -11.4514 C   0  0  2  0  0  0  0  0  0  0  0  0
   24.0436  -20.5676  -10.6965 N   0  0  0  0  0  0  0  0  0  0  0  0
   22.6052  -19.7535  -12.4600 C   0  0  0  0  0  0  0  0  0  0  0  0
   22.7577  -18.5120  -12.1544 O   0  0  0  0  0  0  0  0  0  0  0  0
   24.0892  -19.1568  -15.8706 O   0  0  0  0  0  0  0  0  0  0  0  0
   22.7089  -19.1288  -16.0912 C   0  0  0  0  0  0  0  0  0  0  0  0
   22.0521  -18.8606  -14.7542 C   0  0  2  0  0  0  0  0  0  0  0  0
   22.2573  -19.9473  -13.8211 N   0  0  0  0  0  0  0  0  0  0  0  0
   20.6300  -18.5793  -14.8967 C   0  0  0  0  0  0  0  0  0  0  0  0
   19.7394  -19.3667  -14.4755 O   0  0  0  0  0  0  0  0  0  0  0  0
   20.2049  -17.4164  -15.5105 O   0  0  0  0  0  0  0  0  0  0  0  0
  2  1  1  6
  2 13  1  0
  3  2  1  0
  4  3  1  0
  4 12  1  0
  5  6  1  0
  5  4  2  0
  6  7  1  0
  7  8  1  0
  7 12  2  0
  8  9  2  0
  9 10  1  0
 11 10  2  0
 12 11  1  0
 13 14  2  0
 16 15  1  0
 17 16  1  0
 17 19  1  0
 17 18  1  6
 19 21  1  0
 19 20  1  1
 20 13  1  0
 21 22  2  0
 23 24  1  0
 25 24  1  6
 25 27  1  0
 26 21  1  0
 26 25  1  0
 27 28  2  0
 27 29  1  0
M  END
$$$$
