WIS.pdb
     RDKit          3D

 29 30  0  0  1  0  0  0  0  0999 V2000
   28.2466  -19.9623  -15.9954 N   0  0  0  0  0  0  0  0  0  0  0  0
   27.2819  -19.2277  -15.2040 C   0  0  1  0  0  0  0  0  0  0  0  0
   26.3704  -18.4581  -16.1567 C   0  0  0  0  0  0  0  0  0  0  0  0
   27.0671  -17.3149  -16.7838 C   0  0  0  0  0  0  0  0  0  0  0  0
   27.5004  -17.1938  -18.0779 C   0  0  0  0  0  0  0  0  0  0  0  0
   28.0783  -15.9849  -18.1980 N   0  0  0  0  0  0  0  0  0  0  0  0
   28.0246  -15.3274  -17.0066 C   0  0  0  0  0  0  0  0  0  0  0  0
   28.4757  -14.0725  -16.6242 C   0  0  0  0  0  0  0  0  0  0  0  0
   28.2876  -13.6401  -15.3209 C   0  0  0  0  0  0  0  0  0  0  0  0
   27.6477  -14.4923  -14.4424 C   0  0  0  0  0  0  0  0  0  0  0  0
   27.1957  -15.7313  -14.7968 C   0  0  0  0  0  0  0  0  0  0  0  0
   27.3945  -16.1525  -16.1199 C   0  0  0  0  0  0  0  0  0  0  0  0
   26.4692  -20.1940  -14.4420 C   0  0  0  0  0  0  0  0  0  0  0  0
   26.3040  -21.3496  -14.9093 O   0  0  0  0  0  0  0  0  0  0  0  0
   26.6818  -20.7575   -9.0239 C   0  0  0  0  0  0  0  0  0  0  0  0
   26.6222  -21.0690  -10.5383 C   0  0  0  0  0  0  0  0  0  0  0  0
   25.2396  -20.7161  -11.0025 C   0  0  2  0  0  0  0  0  0  0  0  0
   24.2824  -21.5631  -10.1880 C   0  0  0  0  0  0  0  0  0  0  0  0
   24.9974  -20.8566  -12.4825 C   0  0  2  0  0  0  0  0  0  0  0  0
   25.8570  -19.8871  -13.1972 N   0  0  0  0  0  0  0  0  0  0  0  0
   23.5957  -20.6882  -12.9032 C   0  0  0  0  0  0  0  0  0  0  0  0
   23.0051  -19.5491  -12.7972 O   0  0  0  0  0  0  0  0  0  0  0  0
   21.1889  -23.7914  -14.0870 O   0  0  0  0  0  0  0  0  0  0  0  0
   20.8266  -22.5785  -14.6804 C   0  0  0  0  0  0  0  0  0  0  0  0
   21.3724  -21.4745  -13.8005 C   0  0  2  0  0  0  0  0  0  0  0  0
   22.7600  -21.6932  -13.4536 N   0  0  0  0  0  0  0  0  0  0  0  0
   20.5728  -21.2974  -12.5959 C   0  0  0  0  0  0  0  0  0  0  0  0
   19.4005  -20.8331  -12.6247 O   0  0  0  0  0  0  0  0  0  0  0  0
   21.0853  -21.6404  -11.3592 O   0  0  0  0  0  0  0  0  0  0  0  0
  2  1  1  6
  2 13  1  0
  3  2  1  0
  4  3  1  0
  4 12  1  0
  5  6  1  0
  5  4  2  0
  6  7  1  0
  7  8  1  0
  7 12  2  0
  8  9  2  0
  9 10  1  0
 11 10  2  0
 12 11  1  0
 13 14  2  0
 16 15  1  0
 17 16  1  0
 17 19  1  0
 17 18  1  1
 19 21  1  0
 19 20  1  6
 20 13  1  0
 21 22  2  0
 23 24  1  0
 25 24  1  1
 25 27  1  0
 26 21  1  0
 26 25  1  0
 27 28  2  0
 27 29  1  0
M  END
$$$$
