WIS.pdb
     RDKit          3D

 29 30  0  0  1  0  0  0  0  0999 V2000
   20.2222  -23.4807  -14.7247 N   0  0  0  0  0  0  0  0  0  0  0  0
   19.0982  -23.1628  -13.8692 C   0  0  1  0  0  0  0  0  0  0  0  0
   17.8892  -23.9585  -14.3546 C   0  0  0  0  0  0  0  0  0  0  0  0
   17.1487  -23.2443  -15.4162 C   0  0  0  0  0  0  0  0  0  0  0  0
   17.4711  -23.1291  -16.7428 C   0  0  0  0  0  0  0  0  0  0  0  0
   16.5108  -22.3911  -17.3284 N   0  0  0  0  0  0  0  0  0  0  0  0
   15.5781  -22.0303  -16.4040 C   0  0  0  0  0  0  0  0  0  0  0  0
   14.4154  -21.2809  -16.5104 C   0  0  0  0  0  0  0  0  0  0  0  0
   13.6322  -21.0608  -15.3883 C   0  0  0  0  0  0  0  0  0  0  0  0
   14.0500  -21.6066  -14.1904 C   0  0  0  0  0  0  0  0  0  0  0  0
   15.1903  -22.3471  -14.0625 C   0  0  0  0  0  0  0  0  0  0  0  0
   15.9707  -22.5599  -15.2085 C   0  0  0  0  0  0  0  0  0  0  0  0
   19.4245  -23.5819  -12.4933 C   0  0  0  0  0  0  0  0  0  0  0  0
   20.1869  -24.5673  -12.3239 O   0  0  0  0  0  0  0  0  0  0  0  0
   21.2615  -19.9534   -9.3235 C   0  0  0  0  0  0  0  0  0  0  0  0
   21.0070  -21.2880  -10.0641 C   0  0  0  0  0  0  0  0  0  0  0  0
   19.9051  -21.9923   -9.3283 C   0  0  2  0  0  0  0  0  0  0  0  0
   20.4163  -22.2425   -7.9236 C   0  0  0  0  0  0  0  0  0  0  0  0
   19.3961  -23.2533   -9.9762 C   0  0  2  0  0  0  0  0  0  0  0  0
   18.9193  -22.9267  -11.3384 N   0  0  0  0  0  0  0  0  0  0  0  0
   18.3370  -23.9537   -9.2294 C   0  0  0  0  0  0  0  0  0  0  0  0
   17.1343  -23.4953   -9.1996 O   0  0  0  0  0  0  0  0  0  0  0  0
   19.0088  -27.2599   -6.8828 O   0  0  0  0  0  0  0  0  0  0  0  0
   17.7062  -27.2047   -7.3876 C   0  0  0  0  0  0  0  0  0  0  0  0
   17.4209  -25.7558   -7.7196 C   0  0  2  0  0  0  0  0  0  0  0  0
   18.4869  -25.1563   -8.4928 N   0  0  0  0  0  0  0  0  0  0  0  0
   17.1606  -24.9675   -6.5227 C   0  0  0  0  0  0  0  0  0  0  0  0
   17.9941  -24.1400   -6.0635 O   0  0  0  0  0  0  0  0  0  0  0  0
   15.9669  -25.1055   -5.8400 O   0  0  0  0  0  0  0  0  0  0  0  0
  2  1  1  6
  2 13  1  0
  3  2  1  0
  4  3  1  0
  4 12  1  0
  5  6  1  0
  5  4  2  0
  6  7  1  0
  7  8  1  0
  7 12  2  0
  8  9  2  0
  9 10  1  0
 11 10  2  0
 12 11  1  0
 13 14  2  0
 16 15  1  0
 17 16  1  0
 17 19  1  0
 17 18  1  1
 19 21  1  0
 19 20  1  6
 20 13  1  0
 21 22  2  0
 23 24  1  0
 25 24  1  1
 25 27  1  0
 26 21  1  0
 26 25  1  0
 27 28  2  0
 27 29  1  0
M  END
$$$$
