AWA.pdb
     RDKit          3D

 25 26  0  0  1  0  0  0  0  0999 V2000
   27.8211  -19.2532  -14.6828 C   0  0  0  0  0  0  0  0  0  0  0  0
   28.5315  -20.1630  -13.6856 C   0  0  2  0  0  0  0  0  0  0  0  0
   29.3193  -21.1620  -14.4243 N   0  0  0  0  0  0  0  0  0  0  0  0
   27.5224  -20.8339  -12.8495 C   0  0  0  0  0  0  0  0  0  0  0  0
   27.0405  -21.9310  -13.2234 O   0  0  0  0  0  0  0  0  0  0  0  0
   27.1002  -20.2504  -11.6360 N   0  0  0  0  0  0  0  0  0  0  0  0
   26.0673  -20.8378  -10.8143 C   0  0  1  0  0  0  0  0  0  0  0  0
   26.2391  -20.2150   -9.4379 C   0  0  0  0  0  0  0  0  0  0  0  0
   27.4305  -20.6936   -8.7332 C   0  0  0  0  0  0  0  0  0  0  0  0
   28.3858  -21.5591   -9.2161 C   0  0  0  0  0  0  0  0  0  0  0  0
   29.3363  -21.7575   -8.2576 N   0  0  0  0  0  0  0  0  0  0  0  0
   29.0151  -21.0333   -7.1545 C   0  0  0  0  0  0  0  0  0  0  0  0
   29.6307  -20.8847   -5.9296 C   0  0  0  0  0  0  0  0  0  0  0  0
   29.0876  -20.0688   -4.9494 C   0  0  0  0  0  0  0  0  0  0  0  0
   27.9102  -19.4111   -5.2429 C   0  0  0  0  0  0  0  0  0  0  0  0
   27.2952  -19.5604   -6.4686 C   0  0  0  0  0  0  0  0  0  0  0  0
   27.8251  -20.3697   -7.4532 C   0  0  0  0  0  0  0  0  0  0  0  0
   24.7609  -20.5373  -11.4030 C   0  0  0  0  0  0  0  0  0  0  0  0
   24.4736  -19.3404  -11.6397 O   0  0  0  0  0  0  0  0  0  0  0  0
   22.1213  -22.3874  -13.1601 C   0  0  0  0  0  0  0  0  0  0  0  0
   22.5802  -21.1648  -12.3621 C   0  0  2  0  0  0  0  0  0  0  0  0
   23.8095  -21.5326  -11.7180 N   0  0  0  0  0  0  0  0  0  0  0  0
   21.5485  -20.8279  -11.3366 C   0  0  0  0  0  0  0  0  0  0  0  0
   20.3523  -20.2216  -11.6899 O   0  0  0  0  0  0  0  0  0  0  0  0
   21.7098  -21.0749  -10.1078 O   0  0  0  0  0  0  0  0  0  0  0  0
  2  1  1  6
  2  4  1  0
  3  2  1  0
  4  5  2  0
  6  4  1  0
  7  6  1  0
  7 18  1  0
  7  8  1  1
  9  8  1  0
  9 17  1  0
 10 11  1  0
 10  9  2  0
 11 12  1  0
 12 17  2  0
 12 13  1  0
 13 14  2  0
 14 15  1  0
 16 15  2  0
 17 16  1  0
 18 22  1  0
 19 18  2  0
 21 20  1  1
 21 23  1  0
 22 21  1  0
 23 25  2  0
 23 24  1  0
M  END
$$$$
