AWA.pdb
     RDKit          3D

 25 26  0  0  1  0  0  0  0  0999 V2000
   28.4054  -20.6059  -16.8967 C   0  0  0  0  0  0  0  0  0  0  0  0
   28.7911  -21.7262  -15.9361 C   0  0  2  0  0  0  0  0  0  0  0  0
   28.8286  -22.9987  -16.6733 N   0  0  0  0  0  0  0  0  0  0  0  0
   27.7898  -21.7965  -14.8590 C   0  0  0  0  0  0  0  0  0  0  0  0
   26.6924  -22.3674  -15.0718 O   0  0  0  0  0  0  0  0  0  0  0  0
   28.0608  -21.2285  -13.5959 N   0  0  0  0  0  0  0  0  0  0  0  0
   27.1606  -21.3716  -12.4751 C   0  0  1  0  0  0  0  0  0  0  0  0
   27.9404  -20.8877  -11.2627 C   0  0  0  0  0  0  0  0  0  0  0  0
   27.1039  -20.7054  -10.0744 C   0  0  0  0  0  0  0  0  0  0  0  0
   25.7305  -20.7714  -10.0111 C   0  0  0  0  0  0  0  0  0  0  0  0
   25.3298  -20.5466   -8.7264 N   0  0  0  0  0  0  0  0  0  0  0  0
   26.4230  -20.3346   -7.9490 C   0  0  0  0  0  0  0  0  0  0  0  0
   26.5682  -20.0663   -6.6042 C   0  0  0  0  0  0  0  0  0  0  0  0
   27.8219  -19.8856   -6.0413 C   0  0  0  0  0  0  0  0  0  0  0  0
   28.9184  -19.9838   -6.8738 C   0  0  0  0  0  0  0  0  0  0  0  0
   28.7720  -20.2522   -8.2189 C   0  0  0  0  0  0  0  0  0  0  0  0
   27.5297  -20.4342   -8.7922 C   0  0  0  0  0  0  0  0  0  0  0  0
   25.9603  -20.5704  -12.7220 C   0  0  0  0  0  0  0  0  0  0  0  0
   26.0907  -19.3348  -12.8880 O   0  0  0  0  0  0  0  0  0  0  0  0
   23.1619  -20.6125  -14.5574 C   0  0  0  0  0  0  0  0  0  0  0  0
   23.5446  -20.2853  -13.1121 C   0  0  2  0  0  0  0  0  0  0  0  0
   24.6624  -21.1241  -12.7832 N   0  0  0  0  0  0  0  0  0  0  0  0
   22.3931  -20.5953  -12.2135 C   0  0  0  0  0  0  0  0  0  0  0  0
   22.2944  -21.8165  -11.5636 O   0  0  0  0  0  0  0  0  0  0  0  0
   21.4594  -19.7706  -12.0008 O   0  0  0  0  0  0  0  0  0  0  0  0
  2  1  1  6
  2  4  1  0
  3  2  1  0
  4  5  2  0
  6  4  1  0
  7  6  1  0
  7 18  1  0
  7  8  1  1
  9  8  1  0
  9 17  1  0
 10 11  1  0
 10  9  2  0
 11 12  1  0
 12 17  2  0
 12 13  1  0
 13 14  2  0
 14 15  1  0
 16 15  2  0
 17 16  1  0
 18 22  1  0
 19 18  2  0
 21 20  1  6
 21 23  1  0
 22 21  1  0
 23 25  2  0
 23 24  1  0
M  END
$$$$
