AWA.pdb
     RDKit          3D

 25 26  0  0  1  0  0  0  0  0999 V2000
   28.0016  -21.6444  -17.7373 C   0  0  0  0  0  0  0  0  0  0  0  0
   28.7727  -22.2173  -16.5525 C   0  0  2  0  0  0  0  0  0  0  0  0
   29.2794  -23.5514  -16.9097 N   0  0  0  0  0  0  0  0  0  0  0  0
   27.8668  -22.3145  -15.3961 C   0  0  0  0  0  0  0  0  0  0  0  0
   27.1018  -23.3042  -15.2919 O   0  0  0  0  0  0  0  0  0  0  0  0
   27.8584  -21.3046  -14.4105 N   0  0  0  0  0  0  0  0  0  0  0  0
   27.0485  -21.3957  -13.2176 C   0  0  1  0  0  0  0  0  0  0  0  0
   27.6760  -20.4296  -12.2252 C   0  0  0  0  0  0  0  0  0  0  0  0
   26.9285  -20.3262  -10.9699 C   0  0  0  0  0  0  0  0  0  0  0  0
   25.5785  -20.0986  -10.8270 C   0  0  0  0  0  0  0  0  0  0  0  0
   25.2667  -20.0719   -9.4990 N   0  0  0  0  0  0  0  0  0  0  0  0
   26.3948  -20.2790   -8.7719 C   0  0  0  0  0  0  0  0  0  0  0  0
   26.6253  -20.3446   -7.4139 C   0  0  0  0  0  0  0  0  0  0  0  0
   27.8980  -20.5710   -6.9136 C   0  0  0  0  0  0  0  0  0  0  0  0
   28.9251  -20.7283   -7.8221 C   0  0  0  0  0  0  0  0  0  0  0  0
   28.6935  -20.6625   -9.1803 C   0  0  0  0  0  0  0  0  0  0  0  0
   27.4313  -20.4376   -9.6917 C   0  0  0  0  0  0  0  0  0  0  0  0
   25.6686  -21.0361  -13.5493 C   0  0  0  0  0  0  0  0  0  0  0  0
   25.4602  -19.9523  -14.1435 O   0  0  0  0  0  0  0  0  0  0  0  0
   22.5294  -22.7798  -14.0541 C   0  0  0  0  0  0  0  0  0  0  0  0
   23.2493  -21.4815  -13.6820 C   0  0  2  0  0  0  0  0  0  0  0  0
   24.5611  -21.8535  -13.2325 N   0  0  0  0  0  0  0  0  0  0  0  0
   22.5061  -20.8027  -12.5790 C   0  0  0  0  0  0  0  0  0  0  0  0
   21.4746  -19.9146  -12.8448 O   0  0  0  0  0  0  0  0  0  0  0  0
   22.7753  -20.9999  -11.3601 O   0  0  0  0  0  0  0  0  0  0  0  0
  2  1  1  6
  2  4  1  0
  3  2  1  0
  4  5  2  0
  6  4  1  0
  7  6  1  0
  7 18  1  0
  7  8  1  1
  9  8  1  0
  9 17  1  0
 10 11  1  0
 10  9  2  0
 11 12  1  0
 12 17  2  0
 12 13  1  0
 13 14  2  0
 14 15  1  0
 16 15  2  0
 17 16  1  0
 18 22  1  0
 19 18  2  0
 21 20  1  1
 21 23  1  0
 22 21  1  0
 23 25  2  0
 23 24  1  0
M  END
$$$$
