AWA.pdb
     RDKit          3D

 25 26  0  0  1  0  0  0  0  0999 V2000
   27.3114  -20.4312  -16.0137 C   0  0  0  0  0  0  0  0  0  0  0  0
   28.0734  -21.0013  -14.8217 C   0  0  2  0  0  0  0  0  0  0  0  0
   28.8764  -22.1495  -15.2702 N   0  0  0  0  0  0  0  0  0  0  0  0
   27.1059  -21.4311  -13.7987 C   0  0  0  0  0  0  0  0  0  0  0  0
   26.5438  -22.5479  -13.9101 O   0  0  0  0  0  0  0  0  0  0  0  0
   26.8126  -20.5959  -12.6996 N   0  0  0  0  0  0  0  0  0  0  0  0
   25.8267  -20.9471  -11.7036 C   0  0  1  0  0  0  0  0  0  0  0  0
   26.1739  -20.1176  -10.4775 C   0  0  0  0  0  0  0  0  0  0  0  0
   27.3563  -20.6080   -9.7656 C   0  0  0  0  0  0  0  0  0  0  0  0
   28.3535  -21.4103  -10.2720 C   0  0  0  0  0  0  0  0  0  0  0  0
   29.2780  -21.6455   -9.2966 N   0  0  0  0  0  0  0  0  0  0  0  0
   28.8985  -21.0076   -8.1593 C   0  0  0  0  0  0  0  0  0  0  0  0
   29.4689  -20.9246   -6.9066 C   0  0  0  0  0  0  0  0  0  0  0  0
   28.8688  -20.1933   -5.8935 C   0  0  0  0  0  0  0  0  0  0  0  0
   27.6815  -19.5519   -6.1829 C   0  0  0  0  0  0  0  0  0  0  0  0
   27.1117  -19.6356   -7.4363 C   0  0  0  0  0  0  0  0  0  0  0  0
   27.6986  -20.3603   -8.4540 C   0  0  0  0  0  0  0  0  0  0  0  0
   24.4929  -20.6413  -12.2241 C   0  0  0  0  0  0  0  0  0  0  0  0
   24.2435  -19.4635  -12.5729 O   0  0  0  0  0  0  0  0  0  0  0  0
   21.7786  -22.4078  -13.8196 C   0  0  0  0  0  0  0  0  0  0  0  0
   22.2089  -21.2441  -12.9237 C   0  0  2  0  0  0  0  0  0  0  0  0
   23.4742  -21.6112  -12.3530 N   0  0  0  0  0  0  0  0  0  0  0  0
   21.1980  -21.0532  -11.8415 C   0  0  0  0  0  0  0  0  0  0  0  0
   21.5088  -21.3017  -10.5129 O   0  0  0  0  0  0  0  0  0  0  0  0
   20.0204  -20.6598  -12.0771 O   0  0  0  0  0  0  0  0  0  0  0  0
  2  1  1  6
  2  4  1  0
  3  2  1  0
  4  5  2  0
  6  4  1  0
  7  6  1  0
  7 18  1  0
  7  8  1  1
  9  8  1  0
  9 17  1  0
 10 11  1  0
 10  9  2  0
 11 12  1  0
 12 17  2  0
 12 13  1  0
 13 14  2  0
 14 15  1  0
 16 15  2  0
 17 16  1  0
 18 22  1  0
 19 18  2  0
 21 20  1  6
 21 23  1  0
 22 21  1  0
 23 25  2  0
 23 24  1  0
M  END
$$$$
