AWA.pdb
     RDKit          3D

 25 26  0  0  1  0  0  0  0  0999 V2000
   27.4086  -23.6789  -16.8755 C   0  0  0  0  0  0  0  0  0  0  0  0
   27.6090  -22.3927  -16.0804 C   0  0  2  0  0  0  0  0  0  0  0  0
   29.0146  -22.3055  -15.6551 N   0  0  0  0  0  0  0  0  0  0  0  0
   26.7260  -22.4178  -14.9025 C   0  0  0  0  0  0  0  0  0  0  0  0
   26.1825  -23.4964  -14.5606 O   0  0  0  0  0  0  0  0  0  0  0  0
   26.4928  -21.2398  -14.1614 N   0  0  0  0  0  0  0  0  0  0  0  0
   25.6975  -21.2303  -12.9553 C   0  0  1  0  0  0  0  0  0  0  0  0
   26.3190  -20.1644  -12.0667 C   0  0  0  0  0  0  0  0  0  0  0  0
   27.4202  -20.6700  -11.2441 C   0  0  0  0  0  0  0  0  0  0  0  0
   28.6089  -21.2026  -11.6893 C   0  0  0  0  0  0  0  0  0  0  0  0
   29.3716  -21.5566  -10.6148 N   0  0  0  0  0  0  0  0  0  0  0  0
   28.6974  -21.2625   -9.4732 C   0  0  0  0  0  0  0  0  0  0  0  0
   29.0153  -21.4190   -8.1405 C   0  0  0  0  0  0  0  0  0  0  0  0
   28.1339  -21.0310   -7.1437 C   0  0  0  0  0  0  0  0  0  0  0  0
   26.9281  -20.4830   -7.5320 C   0  0  0  0  0  0  0  0  0  0  0  0
   26.6111  -20.3269   -8.8654 C   0  0  0  0  0  0  0  0  0  0  0  0
   27.4794  -20.7090   -9.8679 C   0  0  0  0  0  0  0  0  0  0  0  0
   24.3081  -20.9260  -13.3025 C   0  0  0  0  0  0  0  0  0  0  0  0
   24.0753  -19.9105  -13.9996 O   0  0  0  0  0  0  0  0  0  0  0  0
   21.0792  -22.6776  -13.3113 C   0  0  0  0  0  0  0  0  0  0  0  0
   21.8862  -21.3773  -13.3010 C   0  0  2  0  0  0  0  0  0  0  0  0
   23.2176  -21.7234  -12.8902 N   0  0  0  0  0  0  0  0  0  0  0  0
   21.2810  -20.4275  -12.3205 C   0  0  0  0  0  0  0  0  0  0  0  0
   20.1107  -19.7419  -12.6094 O   0  0  0  0  0  0  0  0  0  0  0  0
   21.7979  -20.2018  -11.1896 O   0  0  0  0  0  0  0  0  0  0  0  0
  2  1  1  1
  2  4  1  0
  3  2  1  0
  4  5  2  0
  6  4  1  0
  7  6  1  0
  7 18  1  0
  7  8  1  1
  9  8  1  0
  9 17  1  0
 10 11  1  0
 10  9  2  0
 11 12  1  0
 12 17  2  0
 12 13  1  0
 13 14  2  0
 14 15  1  0
 16 15  2  0
 17 16  1  0
 18 22  1  0
 19 18  2  0
 21 20  1  1
 21 23  1  0
 22 21  1  0
 23 25  2  0
 23 24  1  0
M  END
$$$$
