AWA.pdb
     RDKit          3D

 25 26  0  0  1  0  0  0  0  0999 V2000
   28.6528  -18.6854  -13.6621 C   0  0  0  0  0  0  0  0  0  0  0  0
   28.9714  -20.1127  -13.2285 C   0  0  2  0  0  0  0  0  0  0  0  0
   29.4667  -20.8678  -14.3898 N   0  0  0  0  0  0  0  0  0  0  0  0
   27.7447  -20.7374  -12.7063 C   0  0  0  0  0  0  0  0  0  0  0  0
   26.9330  -21.2668  -13.5042 O   0  0  0  0  0  0  0  0  0  0  0  0
   27.4827  -20.7435  -11.3197 N   0  0  0  0  0  0  0  0  0  0  0  0
   26.3784  -21.4767  -10.7452 C   0  0  1  0  0  0  0  0  0  0  0  0
   26.8137  -21.8253   -9.3306 C   0  0  0  0  0  0  0  0  0  0  0  0
   27.0027  -20.6486   -8.4791 C   0  0  0  0  0  0  0  0  0  0  0  0
   26.6230  -19.3554   -8.7585 C   0  0  0  0  0  0  0  0  0  0  0  0
   26.9740  -18.5499   -7.7147 N   0  0  0  0  0  0  0  0  0  0  0  0
   27.5780  -19.2994   -6.7567 C   0  0  0  0  0  0  0  0  0  0  0  0
   28.1119  -18.9790   -5.5263 C   0  0  0  0  0  0  0  0  0  0  0  0
   28.6855  -19.9495   -4.7198 C   0  0  0  0  0  0  0  0  0  0  0  0
   28.7033  -21.2464   -5.1917 C   0  0  0  0  0  0  0  0  0  0  0  0
   28.1691  -21.5659   -6.4226 C   0  0  0  0  0  0  0  0  0  0  0  0
   27.5950  -20.6094   -7.2355 C   0  0  0  0  0  0  0  0  0  0  0  0
   25.1821  -20.6330  -10.7683 C   0  0  0  0  0  0  0  0  0  0  0  0
   25.3082  -19.4109  -10.5195 O   0  0  0  0  0  0  0  0  0  0  0  0
   22.5728  -20.1078  -12.7538 C   0  0  0  0  0  0  0  0  0  0  0  0
   22.8011  -20.2167  -11.2444 C   0  0  2  0  0  0  0  0  0  0  0  0
   23.8926  -21.1307  -11.0590 N   0  0  0  0  0  0  0  0  0  0  0  0
   21.5691  -20.7560  -10.5957 C   0  0  0  0  0  0  0  0  0  0  0  0
   20.4090  -20.0007  -10.5119 O   0  0  0  0  0  0  0  0  0  0  0  0
   21.5200  -21.9153  -10.0950 O   0  0  0  0  0  0  0  0  0  0  0  0
  2  1  1  6
  2  4  1  0
  3  2  1  0
  4  5  2  0
  6  4  1  0
  7  6  1  0
  7 18  1  0
  7  8  1  1
  9  8  1  0
  9 17  1  0
 10 11  1  0
 10  9  2  0
 11 12  1  0
 12 17  2  0
 12 13  1  0
 13 14  2  0
 14 15  1  0
 16 15  2  0
 17 16  1  0
 18 22  1  0
 19 18  2  0
 21 20  1  6
 21 23  1  0
 22 21  1  0
 23 25  2  0
 23 24  1  0
M  END
$$$$
