AWA.pdb
     RDKit          3D

 25 26  0  0  1  0  0  0  0  0999 V2000
   26.9139  -18.9906  -14.9259 C   0  0  0  0  0  0  0  0  0  0  0  0
   27.8888  -19.9184  -14.2080 C   0  0  2  0  0  0  0  0  0  0  0  0
   28.3308  -20.9655  -15.1420 N   0  0  0  0  0  0  0  0  0  0  0  0
   27.2061  -20.5269  -13.0542 C   0  0  0  0  0  0  0  0  0  0  0  0
   26.5628  -21.5936  -13.2089 O   0  0  0  0  0  0  0  0  0  0  0  0
   27.2748  -19.9179  -11.7831 N   0  0  0  0  0  0  0  0  0  0  0  0
   26.6169  -20.4740  -10.6232 C   0  0  1  0  0  0  0  0  0  0  0  0
   27.2693  -19.8029   -9.4248 C   0  0  0  0  0  0  0  0  0  0  0  0
   26.7411  -20.2735   -8.1423 C   0  0  0  0  0  0  0  0  0  0  0  0
   25.6403  -21.0760   -7.9450 C   0  0  0  0  0  0  0  0  0  0  0  0
   25.4764  -21.2909   -6.6077 N   0  0  0  0  0  0  0  0  0  0  0  0
   26.4554  -20.6397   -5.9282 C   0  0  0  0  0  0  0  0  0  0  0  0
   26.7392  -20.5336   -4.5829 C   0  0  0  0  0  0  0  0  0  0  0  0
   27.8207  -19.7910   -4.1355 C   0  0  0  0  0  0  0  0  0  0  0  0
   28.6025  -19.1624   -5.0834 C   0  0  0  0  0  0  0  0  0  0  0  0
   28.3178  -19.2691   -6.4288 C   0  0  0  0  0  0  0  0  0  0  0  0
   27.2441  -20.0051   -6.8878 C   0  0  0  0  0  0  0  0  0  0  0  0
   25.1827  -20.1924  -10.7075 C   0  0  0  0  0  0  0  0  0  0  0  0
   24.8136  -18.9992  -10.8143 O   0  0  0  0  0  0  0  0  0  0  0  0
   22.4344  -22.0084  -12.0573 C   0  0  0  0  0  0  0  0  0  0  0  0
   22.8540  -20.8998  -11.0892 C   0  0  2  0  0  0  0  0  0  0  0  0
   24.1952  -21.2017  -10.6755 N   0  0  0  0  0  0  0  0  0  0  0  0
   21.9425  -20.9050   -9.9065 C   0  0  0  0  0  0  0  0  0  0  0  0
   20.6046  -20.5601  -10.0261 O   0  0  0  0  0  0  0  0  0  0  0  0
   22.3382  -21.2204   -8.7485 O   0  0  0  0  0  0  0  0  0  0  0  0
  2  1  1  6
  2  4  1  0
  3  2  1  0
  4  5  2  0
  6  4  1  0
  7  6  1  0
  7 18  1  0
  7  8  1  1
  9  8  1  0
  9 17  1  0
 10 11  1  0
 10  9  2  0
 11 12  1  0
 12 17  2  0
 12 13  1  0
 13 14  2  0
 14 15  1  0
 16 15  2  0
 17 16  1  0
 18 22  1  0
 19 18  2  0
 21 20  1  6
 21 23  1  0
 22 21  1  0
 23 25  2  0
 23 24  1  0
M  END
$$$$
