AWA.pdb
     RDKit          3D

 25 26  0  0  1  0  0  0  0  0999 V2000
   21.2635  -20.7801  -10.2394 C   0  0  0  0  0  0  0  0  0  0  0  0
   21.8065  -19.4669  -10.7937 C   0  0  2  0  0  0  0  0  0  0  0  0
   20.9443  -19.0194  -11.8985 N   0  0  0  0  0  0  0  0  0  0  0  0
   23.1783  -19.6861  -11.2812 C   0  0  0  0  0  0  0  0  0  0  0  0
   23.3734  -19.8985  -12.5029 O   0  0  0  0  0  0  0  0  0  0  0  0
   24.2668  -19.6564  -10.3837 N   0  0  0  0  0  0  0  0  0  0  0  0
   25.6336  -19.8244  -10.8208 C   0  0  1  0  0  0  0  0  0  0  0  0
   26.4894  -19.2060   -9.7266 C   0  0  0  0  0  0  0  0  0  0  0  0
   26.3799  -19.9056   -8.4445 C   0  0  0  0  0  0  0  0  0  0  0  0
   25.4986  -20.9132   -8.1242 C   0  0  0  0  0  0  0  0  0  0  0  0
   25.7126  -21.3024   -6.8341 N   0  0  0  0  0  0  0  0  0  0  0  0
   26.7221  -20.5626   -6.3068 C   0  0  0  0  0  0  0  0  0  0  0  0
   27.3176  -20.5570   -5.0631 C   0  0  0  0  0  0  0  0  0  0  0  0
   28.3526  -19.6833   -4.7686 C   0  0  0  0  0  0  0  0  0  0  0  0
   28.7653  -18.8201   -5.7634 C   0  0  0  0  0  0  0  0  0  0  0  0
   28.1689  -18.8265   -7.0072 C   0  0  0  0  0  0  0  0  0  0  0  0
   27.1375  -19.6911   -7.3136 C   0  0  0  0  0  0  0  0  0  0  0  0
   25.9048  -21.2518  -11.0009 C   0  0  0  0  0  0  0  0  0  0  0  0
   25.1954  -22.0776  -10.3794 O   0  0  0  0  0  0  0  0  0  0  0  0
   25.1005  -22.9322  -12.7961 C   0  0  0  0  0  0  0  0  0  0  0  0
   26.5996  -22.6458  -12.9096 C   0  0  2  0  0  0  0  0  0  0  0  0
   26.9272  -21.7425  -11.8428 N   0  0  0  0  0  0  0  0  0  0  0  0
   26.8816  -22.0021  -14.2271 C   0  0  0  0  0  0  0  0  0  0  0  0
   27.8444  -22.5104  -15.0862 O   0  0  0  0  0  0  0  0  0  0  0  0
   26.2649  -20.9726  -14.6231 O   0  0  0  0  0  0  0  0  0  0  0  0
  2  1  1  6
  2  4  1  0
  3  2  1  0
  4  5  2  0
  6  4  1  0
  7  6  1  0
  7 18  1  0
  7  8  1  1
  9  8  1  0
  9 17  1  0
 10 11  1  0
 10  9  2  0
 11 12  1  0
 12 17  2  0
 12 13  1  0
 13 14  2  0
 14 15  1  0
 16 15  2  0
 17 16  1  0
 18 22  1  0
 19 18  2  0
 21 20  1  6
 21 23  1  0
 22 21  1  0
 23 25  2  0
 23 24  1  0
M  END
$$$$
