AWA.pdb
     RDKit          3D

 25 26  0  0  1  0  0  0  0  0999 V2000
   27.1214  -18.2229  -15.1139 C   0  0  0  0  0  0  0  0  0  0  0  0
   27.8547  -18.6465  -13.8452 C   0  0  2  0  0  0  0  0  0  0  0  0
   29.3010  -18.6734  -14.1132 N   0  0  0  0  0  0  0  0  0  0  0  0
   27.3896  -19.9865  -13.4506 C   0  0  0  0  0  0  0  0  0  0  0  0
   27.9839  -21.0011  -13.8900 O   0  0  0  0  0  0  0  0  0  0  0  0
   26.2855  -20.1310  -12.5838 N   0  0  0  0  0  0  0  0  0  0  0  0
   25.8459  -21.4196  -12.1005 C   0  0  1  0  0  0  0  0  0  0  0  0
   25.2514  -21.1573  -10.7259 C   0  0  0  0  0  0  0  0  0  0  0  0
   26.2397  -20.6945   -9.7491 C   0  0  0  0  0  0  0  0  0  0  0  0
   26.0414  -19.7771   -8.7422 C   0  0  0  0  0  0  0  0  0  0  0  0
   27.2045  -19.6158   -8.0475 N   0  0  0  0  0  0  0  0  0  0  0  0
   28.1605  -20.4156   -8.5867 C   0  0  0  0  0  0  0  0  0  0  0  0
   29.4850  -20.6255   -8.2657 C   0  0  0  0  0  0  0  0  0  0  0  0
   30.2649  -21.5146   -8.9886 C   0  0  0  0  0  0  0  0  0  0  0  0
   29.6691  -22.1814  -10.0400 C   0  0  0  0  0  0  0  0  0  0  0  0
   28.3441  -21.9707  -10.3603 C   0  0  0  0  0  0  0  0  0  0  0  0
   27.5564  -21.0883   -9.6488 C   0  0  0  0  0  0  0  0  0  0  0  0
   24.8642  -21.9706  -13.0366 C   0  0  0  0  0  0  0  0  0  0  0  0
   24.0736  -21.1819  -13.6059 O   0  0  0  0  0  0  0  0  0  0  0  0
   24.1802  -25.2504  -14.6337 C   0  0  0  0  0  0  0  0  0  0  0  0
   23.8050  -23.8065  -14.2922 C   0  0  2  0  0  0  0  0  0  0  0  0
   24.7668  -23.3489  -13.3295 N   0  0  0  0  0  0  0  0  0  0  0  0
   22.4357  -23.7789  -13.6973 C   0  0  0  0  0  0  0  0  0  0  0  0
   22.2295  -23.3949  -12.3808 O   0  0  0  0  0  0  0  0  0  0  0  0
   21.4055  -24.1004  -14.3549 O   0  0  0  0  0  0  0  0  0  0  0  0
  2  1  1  6
  2  4  1  0
  3  2  1  0
  4  5  2  0
  6  4  1  0
  7  6  1  0
  7 18  1  0
  7  8  1  1
  9  8  1  0
  9 17  1  0
 10 11  1  0
 10  9  2  0
 11 12  1  0
 12 17  2  0
 12 13  1  0
 13 14  2  0
 14 15  1  0
 16 15  2  0
 17 16  1  0
 18 22  1  0
 19 18  2  0
 21 20  1  1
 21 23  1  0
 22 21  1  0
 23 25  2  0
 23 24  1  0
M  END
$$$$
