AWA.pdb
     RDKit          3D

 25 26  0  0  1  0  0  0  0  0999 V2000
   27.0004  -20.9608  -17.1787 C   0  0  0  0  0  0  0  0  0  0  0  0
   27.8362  -21.3408  -15.9606 C   0  0  2  0  0  0  0  0  0  0  0  0
   28.6354  -22.5339  -16.2803 N   0  0  0  0  0  0  0  0  0  0  0  0
   26.9335  -21.6255  -14.8330 C   0  0  0  0  0  0  0  0  0  0  0  0
   26.4514  -22.7771  -14.7029 O   0  0  0  0  0  0  0  0  0  0  0  0
   26.6129  -20.6131  -13.9036 N   0  0  0  0  0  0  0  0  0  0  0  0
   25.8675  -20.8811  -12.6954 C   0  0  1  0  0  0  0  0  0  0  0  0
   26.3786  -19.8798  -11.6716 C   0  0  0  0  0  0  0  0  0  0  0  0
   27.4518  -20.4131  -10.8296 C   0  0  0  0  0  0  0  0  0  0  0  0
   28.5562  -21.1213  -11.2461 C   0  0  0  0  0  0  0  0  0  0  0  0
   29.3199  -21.4393  -10.1613 N   0  0  0  0  0  0  0  0  0  0  0  0
   28.7297  -20.9484   -9.0410 C   0  0  0  0  0  0  0  0  0  0  0  0
   29.0839  -20.9931   -7.7091 C   0  0  0  0  0  0  0  0  0  0  0  0
   28.2919  -20.4019   -6.7372 C   0  0  0  0  0  0  0  0  0  0  0  0
   27.1376  -19.7675   -7.1498 C   0  0  0  0  0  0  0  0  0  0  0  0
   26.7842  -19.7233   -8.4824 C   0  0  0  0  0  0  0  0  0  0  0  0
   27.5636  -20.3079   -9.4601 C   0  0  0  0  0  0  0  0  0  0  0  0
   24.4388  -20.7176  -12.9701 C   0  0  0  0  0  0  0  0  0  0  0  0
   24.0384  -19.6161  -13.4147 O   0  0  0  0  0  0  0  0  0  0  0  0
   21.4989  -22.8979  -13.3593 C   0  0  0  0  0  0  0  0  0  0  0  0
   22.1133  -21.5206  -13.0990 C   0  0  2  0  0  0  0  0  0  0  0  0
   23.4904  -21.7427  -12.7590 N   0  0  0  0  0  0  0  0  0  0  0  0
   21.4047  -20.8710  -11.9564 C   0  0  0  0  0  0  0  0  0  0  0  0
   21.9872  -20.7879  -10.7005 O   0  0  0  0  0  0  0  0  0  0  0  0
   20.2508  -20.3690  -12.0730 O   0  0  0  0  0  0  0  0  0  0  0  0
  2  1  1  6
  2  4  1  0
  3  2  1  0
  4  5  2  0
  6  4  1  0
  7  6  1  0
  7 18  1  0
  7  8  1  1
  9  8  1  0
  9 17  1  0
 10 11  1  0
 10  9  2  0
 11 12  1  0
 12 17  2  0
 12 13  1  0
 13 14  2  0
 14 15  1  0
 16 15  2  0
 17 16  1  0
 18 22  1  0
 19 18  2  0
 21 20  1  1
 21 23  1  0
 22 21  1  0
 23 25  2  0
 23 24  1  0
M  END
$$$$
