EFM.pdb
     RDKit          3D

 29 29  0  0  1  0  0  0  0  0999 V2000
   11.4172  -19.8530   20.0508 N   0  0  0  0  0  0  0  0  0  0  0  0
   12.2813  -18.6896   20.0236 C   0  0  1  0  0  0  0  0  0  0  0  0
   12.5924  -18.2293   18.6404 C   0  0  0  0  0  0  0  0  0  0  0  0
   13.7419  -18.8995   17.9717 C   0  0  0  0  0  0  0  0  0  0  0  0
   14.3341  -18.1151   16.8648 C   0  0  0  0  0  0  0  0  0  0  0  0
   15.1552  -17.1785   17.0635 O   0  0  0  0  0  0  0  0  0  0  0  0
   11.6171  -17.5251   20.7154 C   0  0  0  0  0  0  0  0  0  0  0  0
   12.2436  -16.4343   20.6318 O   0  0  0  0  0  0  0  0  0  0  0  0
   14.0251  -18.3589   15.5307 O   0  0  0  0  0  0  0  0  0  0  0  0
   10.3861  -17.6601   21.4013 N   0  0  0  0  0  0  0  0  0  0  0  0
    9.8297  -16.5210   22.0843 C   0  0  1  0  0  0  0  0  0  0  0  0
    8.4083  -16.2713   21.7085 C   0  0  0  0  0  0  0  0  0  0  0  0
    7.9259  -14.8963   21.9316 C   0  0  0  0  0  0  0  0  0  0  0  0
    7.3303  -14.5198   23.1411 C   0  0  0  0  0  0  0  0  0  0  0  0
    6.8664  -13.2363   23.3484 C   0  0  0  0  0  0  0  0  0  0  0  0
    6.9767  -12.2710   22.3559 C   0  0  0  0  0  0  0  0  0  0  0  0
    7.5589  -12.6206   21.1596 C   0  0  0  0  0  0  0  0  0  0  0  0
    8.0165  -13.9103   20.9726 C   0  0  0  0  0  0  0  0  0  0  0  0
   10.0911  -16.5398   23.5487 C   0  0  0  0  0  0  0  0  0  0  0  0
   10.3551  -17.6360   24.1052 O   0  0  0  0  0  0  0  0  0  0  0  0
    7.4415  -12.1986   27.7515 C   0  0  0  0  0  0  0  0  0  0  0  0
    8.9737  -12.6421   28.5930 S   0  0  0  0  0  0  0  0  0  0  0  0
    9.6594  -14.1515   27.8917 C   0  0  0  0  0  0  0  0  0  0  0  0
    9.6147  -14.2193   26.4161 C   0  0  0  0  0  0  0  0  0  0  0  0
   10.2684  -15.3922   25.8043 C   0  0  2  0  0  0  0  0  0  0  0  0
   10.0527  -15.3755   24.3436 N   0  0  0  0  0  0  0  0  0  0  0  0
    9.9281  -16.6690   26.3790 C   0  0  0  0  0  0  0  0  0  0  0  0
    8.8143  -17.3598   25.8790 O   0  0  0  0  0  0  0  0  0  0  0  0
   10.5406  -17.2305   27.2964 O   0  0  0  0  0  0  0  0  0  0  0  0
  2  1  1  6
  2  3  1  0
  3  4  1  0
  5  4  1  0
  6  5  2  0
  7  2  1  0
  7  8  2  0
  9  5  1  0
 10  7  1  0
 11 10  1  0
 11 12  1  1
 12 13  1  0
 13 14  2  0
 13 18  1  0
 14 15  1  0
 15 16  2  0
 17 16  1  0
 18 17  2  0
 19 11  1  0
 20 19  2  0
 22 21  1  0
 22 23  1  0
 24 23  1  0
 25 24  1  1
 25 26  1  0
 26 19  1  0
 27 28  1  0
 27 25  1  0
 29 27  2  0
M  END
$$$$
