EFM.pdb
     RDKit          3D

 29 29  0  0  1  0  0  0  0  0999 V2000
    9.1994  -18.7180   19.3550 N   0  0  0  0  0  0  0  0  0  0  0  0
   10.4481  -18.2224   19.8988 C   0  0  1  0  0  0  0  0  0  0  0  0
   11.2820  -17.5139   18.8864 C   0  0  0  0  0  0  0  0  0  0  0  0
   11.8953  -18.3679   17.8319 C   0  0  0  0  0  0  0  0  0  0  0  0
   12.8506  -17.6506   16.9577 C   0  0  0  0  0  0  0  0  0  0  0  0
   14.0888  -17.8903   16.9691 O   0  0  0  0  0  0  0  0  0  0  0  0
   10.1832  -17.2245   20.9988 C   0  0  0  0  0  0  0  0  0  0  0  0
   11.1680  -16.4974   21.3002 O   0  0  0  0  0  0  0  0  0  0  0  0
   12.4463  -16.6640   16.0642 O   0  0  0  0  0  0  0  0  0  0  0  0
    8.9224  -17.1227   21.6345 N   0  0  0  0  0  0  0  0  0  0  0  0
    8.7482  -16.1817   22.7105 C   0  0  1  0  0  0  0  0  0  0  0  0
    7.3750  -15.6007   22.7409 C   0  0  0  0  0  0  0  0  0  0  0  0
    7.1447  -14.5719   23.7712 C   0  0  0  0  0  0  0  0  0  0  0  0
    6.4498  -14.8640   24.9506 C   0  0  0  0  0  0  0  0  0  0  0  0
    6.2218  -13.8995   25.9116 C   0  0  0  0  0  0  0  0  0  0  0  0
    6.6782  -12.5994   25.7371 C   0  0  0  0  0  0  0  0  0  0  0  0
    7.3634  -12.2916   24.5847 C   0  0  0  0  0  0  0  0  0  0  0  0
    7.5808  -13.2713   23.6357 C   0  0  0  0  0  0  0  0  0  0  0  0
    9.2321  -16.7013   24.0177 C   0  0  0  0  0  0  0  0  0  0  0  0
    9.1768  -17.9379   24.2386 O   0  0  0  0  0  0  0  0  0  0  0  0
    9.4337  -13.1758   29.3496 C   0  0  0  0  0  0  0  0  0  0  0  0
   10.4427  -14.5355   29.9702 S   0  0  0  0  0  0  0  0  0  0  0  0
   10.7478  -15.7362   28.6643 C   0  0  0  0  0  0  0  0  0  0  0  0
   10.1715  -15.3766   27.3518 C   0  0  0  0  0  0  0  0  0  0  0  0
   10.3335  -16.3780   26.2802 C   0  0  2  0  0  0  0  0  0  0  0  0
    9.7501  -15.8619   25.0257 N   0  0  0  0  0  0  0  0  0  0  0  0
    9.8562  -17.7031   26.5846 C   0  0  0  0  0  0  0  0  0  0  0  0
   10.7591  -18.6445   27.1007 O   0  0  0  0  0  0  0  0  0  0  0  0
    8.6946  -18.1017   26.4306 O   0  0  0  0  0  0  0  0  0  0  0  0
  2  1  1  6
  2  3  1  0
  3  4  1  0
  5  4  1  0
  6  5  2  0
  7  2  1  0
  7  8  2  0
  9  5  1  0
 10  7  1  0
 11 10  1  0
 11 12  1  1
 12 13  1  0
 13 14  2  0
 13 18  1  0
 14 15  1  0
 15 16  2  0
 17 16  1  0
 18 17  2  0
 19 11  1  0
 20 19  2  0
 22 21  1  0
 22 23  1  0
 24 23  1  0
 25 24  1  1
 25 26  1  0
 26 19  1  0
 27 28  1  0
 27 25  1  0
 29 27  2  0
M  END
$$$$
