EFM.pdb
     RDKit          3D

 29 29  0  0  1  0  0  0  0  0999 V2000
   11.5467  -16.7662   18.8796 N   0  0  0  0  0  0  0  0  0  0  0  0
   10.5109  -17.3839   19.6836 C   0  0  1  0  0  0  0  0  0  0  0  0
   10.8821  -18.7457   20.1627 C   0  0  0  0  0  0  0  0  0  0  0  0
   12.2304  -18.8758   20.7814 C   0  0  0  0  0  0  0  0  0  0  0  0
   12.6148  -20.2698   21.0977 C   0  0  0  0  0  0  0  0  0  0  0  0
   13.2882  -20.9822   20.3039 O   0  0  0  0  0  0  0  0  0  0  0  0
   10.2438  -16.5611   20.9195 C   0  0  0  0  0  0  0  0  0  0  0  0
   11.2406  -15.9235   21.3547 O   0  0  0  0  0  0  0  0  0  0  0  0
   12.2595  -20.8877   22.2922 O   0  0  0  0  0  0  0  0  0  0  0  0
    8.9687  -16.5169   21.5329 N   0  0  0  0  0  0  0  0  0  0  0  0
    8.7463  -15.6177   22.6354 C   0  0  1  0  0  0  0  0  0  0  0  0
    7.3459  -15.1066   22.6786 C   0  0  0  0  0  0  0  0  0  0  0  0
    7.0741  -14.0892   23.7100 C   0  0  0  0  0  0  0  0  0  0  0  0
    6.3486  -14.3989   24.8664 C   0  0  0  0  0  0  0  0  0  0  0  0
    6.0819  -13.4452   25.8281 C   0  0  0  0  0  0  0  0  0  0  0  0
    6.5282  -12.1386   25.6774 C   0  0  0  0  0  0  0  0  0  0  0  0
    7.2429  -11.8134   24.5480 C   0  0  0  0  0  0  0  0  0  0  0  0
    7.4990  -12.7827   23.5978 C   0  0  0  0  0  0  0  0  0  0  0  0
    9.2534  -16.1509   23.9283 C   0  0  0  0  0  0  0  0  0  0  0  0
    9.2786  -17.3955   24.1048 O   0  0  0  0  0  0  0  0  0  0  0  0
   11.7660  -13.6900   30.8368 C   0  0  0  0  0  0  0  0  0  0  0  0
   10.2319  -13.9392   29.9219 S   0  0  0  0  0  0  0  0  0  0  0  0
   10.4487  -15.2150   28.6707 C   0  0  0  0  0  0  0  0  0  0  0  0
   10.0075  -14.8273   27.3146 C   0  0  0  0  0  0  0  0  0  0  0  0
   10.2082  -15.8373   26.2578 C   0  0  2  0  0  0  0  0  0  0  0  0
    9.7065  -15.3158   24.9706 N   0  0  0  0  0  0  0  0  0  0  0  0
    9.6873  -17.1507   26.5404 C   0  0  0  0  0  0  0  0  0  0  0  0
    8.3775  -17.4581   26.1431 O   0  0  0  0  0  0  0  0  0  0  0  0
   10.3010  -18.0589   27.1154 O   0  0  0  0  0  0  0  0  0  0  0  0
  2  1  1  1
  2  3  1  0
  3  4  1  0
  5  4  1  0
  6  5  2  0
  7  2  1  0
  7  8  2  0
  9  5  1  0
 10  7  1  0
 11 10  1  0
 11 12  1  1
 12 13  1  0
 13 14  2  0
 13 18  1  0
 14 15  1  0
 15 16  2  0
 17 16  1  0
 18 17  2  0
 19 11  1  0
 20 19  2  0
 22 21  1  0
 22 23  1  0
 24 23  1  0
 25 24  1  1
 25 26  1  0
 26 19  1  0
 27 28  1  0
 27 25  1  0
 29 27  2  0
M  END
$$$$
