EFM.pdb
     RDKit          3D

 29 29  0  0  1  0  0  0  0  0999 V2000
    9.5029  -18.6086   20.3209 N   0  0  0  0  0  0  0  0  0  0  0  0
   10.6411  -17.7174   20.4255 C   0  0  1  0  0  0  0  0  0  0  0  0
   10.9885  -17.0647   19.1312 C   0  0  0  0  0  0  0  0  0  0  0  0
   11.3740  -17.9791   18.0209 C   0  0  0  0  0  0  0  0  0  0  0  0
   10.2386  -18.7292   17.4382 C   0  0  0  0  0  0  0  0  0  0  0  0
    9.2162  -18.1550   16.9734 O   0  0  0  0  0  0  0  0  0  0  0  0
   10.3463  -16.5997   21.3949 C   0  0  0  0  0  0  0  0  0  0  0  0
   11.2719  -15.7532   21.5217 O   0  0  0  0  0  0  0  0  0  0  0  0
   10.2233  -20.1181   17.3637 O   0  0  0  0  0  0  0  0  0  0  0  0
    9.1217  -16.5192   22.1005 N   0  0  0  0  0  0  0  0  0  0  0  0
    8.9171  -15.4471   23.0399 C   0  0  1  0  0  0  0  0  0  0  0  0
    7.4733  -15.2162   23.3334 C   0  0  0  0  0  0  0  0  0  0  0  0
    7.1866  -14.1326   24.2907 C   0  0  0  0  0  0  0  0  0  0  0  0
    6.5264  -14.3831   25.4993 C   0  0  0  0  0  0  0  0  0  0  0  0
    6.2456  -13.3684   26.3921 C   0  0  0  0  0  0  0  0  0  0  0  0
    6.6118  -12.0571   26.1170 C   0  0  0  0  0  0  0  0  0  0  0  0
    7.2616  -11.7896   24.9345 C   0  0  0  0  0  0  0  0  0  0  0  0
    7.5331  -12.8194   24.0549 C   0  0  0  0  0  0  0  0  0  0  0  0
    9.7858  -15.5579   24.2424 C   0  0  0  0  0  0  0  0  0  0  0  0
   10.2573  -14.5089   24.7506 O   0  0  0  0  0  0  0  0  0  0  0  0
   11.0444  -13.8672   29.5513 C   0  0  0  0  0  0  0  0  0  0  0  0
    9.4268  -14.4959   29.0608 S   0  0  0  0  0  0  0  0  0  0  0  0
    9.6109  -15.8967   27.9454 C   0  0  0  0  0  0  0  0  0  0  0  0
   10.6755  -15.7400   26.9324 C   0  0  0  0  0  0  0  0  0  0  0  0
   10.9185  -16.9096   26.0662 C   0  0  2  0  0  0  0  0  0  0  0  0
   10.1068  -16.7954   24.8380 N   0  0  0  0  0  0  0  0  0  0  0  0
   10.7584  -18.1969   26.6934 C   0  0  0  0  0  0  0  0  0  0  0  0
    9.8093  -19.0890   26.1725 O   0  0  0  0  0  0  0  0  0  0  0  0
   11.3951  -18.6028   27.6741 O   0  0  0  0  0  0  0  0  0  0  0  0
  2  1  1  6
  2  3  1  0
  3  4  1  0
  5  4  1  0
  6  5  2  0
  7  2  1  0
  7  8  2  0
  9  5  1  0
 10  7  1  0
 11 10  1  0
 11 12  1  1
 12 13  1  0
 13 14  2  0
 13 18  1  0
 14 15  1  0
 15 16  2  0
 17 16  1  0
 18 17  2  0
 19 11  1  0
 20 19  2  0
 22 21  1  0
 22 23  1  0
 24 23  1  0
 25 24  1  1
 25 26  1  0
 26 19  1  0
 27 28  1  0
 27 25  1  0
 29 27  2  0
M  END
$$$$
