EFM.pdb
     RDKit          3D

 29 29  0  0  1  0  0  0  0  0999 V2000
   10.6360  -17.1850   19.3475 N   0  0  0  0  0  0  0  0  0  0  0  0
    9.3308  -17.2329   19.9758 C   0  0  1  0  0  0  0  0  0  0  0  0
    8.9597  -18.5997   20.4406 C   0  0  0  0  0  0  0  0  0  0  0  0
    9.9679  -19.6685   20.1983 C   0  0  0  0  0  0  0  0  0  0  0  0
   10.3268  -20.4420   21.4083 C   0  0  0  0  0  0  0  0  0  0  0  0
    9.8614  -20.1686   22.5483 O   0  0  0  0  0  0  0  0  0  0  0  0
    9.3035  -16.3503   21.1991 C   0  0  0  0  0  0  0  0  0  0  0  0
   10.4301  -15.9159   21.5617 O   0  0  0  0  0  0  0  0  0  0  0  0
   11.2014  -21.5229   21.3691 O   0  0  0  0  0  0  0  0  0  0  0  0
    8.0999  -16.0417   21.8774 N   0  0  0  0  0  0  0  0  0  0  0  0
    8.1208  -15.0835   22.9520 C   0  0  1  0  0  0  0  0  0  0  0  0
    6.8905  -14.2413   22.9868 C   0  0  0  0  0  0  0  0  0  0  0  0
    6.8574  -13.2107   24.0402 C   0  0  0  0  0  0  0  0  0  0  0  0
    6.1549  -13.4109   25.2343 C   0  0  0  0  0  0  0  0  0  0  0  0
    6.1119  -12.4427   26.2173 C   0  0  0  0  0  0  0  0  0  0  0  0
    6.7691  -11.2304   26.0512 C   0  0  0  0  0  0  0  0  0  0  0  0
    7.4652  -11.0137   24.8847 C   0  0  0  0  0  0  0  0  0  0  0  0
    7.4956  -11.9955   23.9137 C   0  0  0  0  0  0  0  0  0  0  0  0
    8.4976  -15.6872   24.2584 C   0  0  0  0  0  0  0  0  0  0  0  0
    7.6647  -15.6679   25.2000 O   0  0  0  0  0  0  0  0  0  0  0  0
   11.1362  -14.2161   30.6570 C   0  0  0  0  0  0  0  0  0  0  0  0
   10.1367  -15.2036   29.5264 S   0  0  0  0  0  0  0  0  0  0  0  0
   10.9730  -15.3807   27.9423 C   0  0  0  0  0  0  0  0  0  0  0  0
   10.0836  -15.7227   26.8126 C   0  0  0  0  0  0  0  0  0  0  0  0
   10.7190  -15.7646   25.4815 C   0  0  2  0  0  0  0  0  0  0  0  0
    9.7564  -16.2805   24.4876 N   0  0  0  0  0  0  0  0  0  0  0  0
   11.9805  -16.4575   25.4117 C   0  0  0  0  0  0  0  0  0  0  0  0
   12.1208  -17.5155   24.5013 O   0  0  0  0  0  0  0  0  0  0  0  0
   12.9796  -16.2021   26.0961 O   0  0  0  0  0  0  0  0  0  0  0  0
  2  1  1  1
  2  3  1  0
  3  4  1  0
  5  4  1  0
  6  5  2  0
  7  2  1  0
  7  8  2  0
  9  5  1  0
 10  7  1  0
 11 10  1  0
 11 12  1  1
 12 13  1  0
 13 14  2  0
 13 18  1  0
 14 15  1  0
 15 16  2  0
 17 16  1  0
 18 17  2  0
 19 11  1  0
 20 19  2  0
 22 21  1  0
 22 23  1  0
 24 23  1  0
 25 24  1  1
 25 26  1  0
 26 19  1  0
 27 28  1  0
 27 25  1  0
 29 27  2  0
M  END
$$$$
