EFM.pdb
     RDKit          3D

 29 29  0  0  1  0  0  0  0  0999 V2000
   10.0089  -18.4923   19.1889 N   0  0  0  0  0  0  0  0  0  0  0  0
   11.1475  -17.8030   19.7625 C   0  0  1  0  0  0  0  0  0  0  0  0
   11.8927  -16.9829   18.7655 C   0  0  0  0  0  0  0  0  0  0  0  0
   12.2587  -17.6707   17.4964 C   0  0  0  0  0  0  0  0  0  0  0  0
   13.7068  -17.6383   17.1910 C   0  0  0  0  0  0  0  0  0  0  0  0
   14.4660  -18.6217   17.4087 O   0  0  0  0  0  0  0  0  0  0  0  0
   10.6960  -16.8482   20.8398 C   0  0  0  0  0  0  0  0  0  0  0  0
   11.6079  -16.1182   21.3140 O   0  0  0  0  0  0  0  0  0  0  0  0
   14.3275  -16.5207   16.6427 O   0  0  0  0  0  0  0  0  0  0  0  0
    9.3503  -16.7868   21.2749 N   0  0  0  0  0  0  0  0  0  0  0  0
    9.0199  -16.0082   22.4403 C   0  0  1  0  0  0  0  0  0  0  0  0
    7.6009  -15.5494   22.4339 C   0  0  0  0  0  0  0  0  0  0  0  0
    7.2074  -14.6905   23.5654 C   0  0  0  0  0  0  0  0  0  0  0  0
    6.5034  -15.2045   24.6607 C   0  0  0  0  0  0  0  0  0  0  0  0
    6.1228  -14.4000   25.7159 C   0  0  0  0  0  0  0  0  0  0  0  0
    6.4286  -13.0452   25.7242 C   0  0  0  0  0  0  0  0  0  0  0  0
    7.1199  -12.5202   24.6571 C   0  0  0  0  0  0  0  0  0  0  0  0
    7.4914  -13.3424   23.6113 C   0  0  0  0  0  0  0  0  0  0  0  0
    9.4599  -16.6494   23.7084 C   0  0  0  0  0  0  0  0  0  0  0  0
   10.2195  -17.6498   23.6523 O   0  0  0  0  0  0  0  0  0  0  0  0
   10.2018  -12.4440   28.4628 C   0  0  0  0  0  0  0  0  0  0  0  0
   10.3530  -13.9460   29.4495 S   0  0  0  0  0  0  0  0  0  0  0  0
   10.4856  -15.3877   28.3799 C   0  0  0  0  0  0  0  0  0  0  0  0
    9.7634  -15.2691   27.0960 C   0  0  0  0  0  0  0  0  0  0  0  0
    9.8228  -16.4485   26.2113 C   0  0  2  0  0  0  0  0  0  0  0  0
    9.0573  -16.1826   24.9769 N   0  0  0  0  0  0  0  0  0  0  0  0
    9.4453  -17.7021   26.8133 C   0  0  0  0  0  0  0  0  0  0  0  0
   10.3827  -18.3801   27.6066 O   0  0  0  0  0  0  0  0  0  0  0  0
    8.3435  -18.2533   26.6948 O   0  0  0  0  0  0  0  0  0  0  0  0
  2  1  1  6
  2  3  1  0
  3  4  1  0
  5  4  1  0
  6  5  2  0
  7  2  1  0
  7  8  2  0
  9  5  1  0
 10  7  1  0
 11 10  1  0
 11 12  1  1
 12 13  1  0
 13 14  2  0
 13 18  1  0
 14 15  1  0
 15 16  2  0
 17 16  1  0
 18 17  2  0
 19 11  1  0
 20 19  2  0
 22 21  1  0
 22 23  1  0
 24 23  1  0
 25 24  1  1
 25 26  1  0
 26 19  1  0
 27 28  1  0
 27 25  1  0
 29 27  2  0
M  END
$$$$
