EFM.pdb
     RDKit          3D

 29 29  0  0  1  0  0  0  0  0999 V2000
   10.0512  -17.0831   18.5456 N   0  0  0  0  0  0  0  0  0  0  0  0
   10.4888  -17.7481   19.7568 C   0  0  1  0  0  0  0  0  0  0  0  0
   11.9493  -18.0464   19.7604 C   0  0  0  0  0  0  0  0  0  0  0  0
   12.3674  -19.2738   19.0283 C   0  0  0  0  0  0  0  0  0  0  0  0
   13.2848  -19.0151   17.8957 C   0  0  0  0  0  0  0  0  0  0  0  0
   13.6651  -17.8532   17.5854 O   0  0  0  0  0  0  0  0  0  0  0  0
   10.2349  -16.8722   20.9585 C   0  0  0  0  0  0  0  0  0  0  0  0
   11.2034  -16.1358   21.2889 O   0  0  0  0  0  0  0  0  0  0  0  0
   13.7895  -20.0366   17.0978 O   0  0  0  0  0  0  0  0  0  0  0  0
    9.0008  -16.8855   21.6520 N   0  0  0  0  0  0  0  0  0  0  0  0
    8.8159  -16.0111   22.7811 C   0  0  1  0  0  0  0  0  0  0  0  0
    7.4109  -15.5253   22.8997 C   0  0  0  0  0  0  0  0  0  0  0  0
    7.1609  -14.5700   23.9941 C   0  0  0  0  0  0  0  0  0  0  0  0
    6.4898  -14.9564   25.1602 C   0  0  0  0  0  0  0  0  0  0  0  0
    6.2433  -14.0609   26.1814 C   0  0  0  0  0  0  0  0  0  0  0  0
    6.6564  -12.7385   26.0833 C   0  0  0  0  0  0  0  0  0  0  0  0
    7.3176  -12.3383   24.9454 C   0  0  0  0  0  0  0  0  0  0  0  0
    7.5542  -13.2502   23.9352 C   0  0  0  0  0  0  0  0  0  0  0  0
    9.3920  -16.5595   24.0382 C   0  0  0  0  0  0  0  0  0  0  0  0
    9.2600  -17.7856   24.2833 O   0  0  0  0  0  0  0  0  0  0  0  0
   11.0596  -13.9160   30.4745 C   0  0  0  0  0  0  0  0  0  0  0  0
   10.3594  -13.1947   28.9772 S   0  0  0  0  0  0  0  0  0  0  0  0
    9.8568  -14.4906   27.8334 C   0  0  0  0  0  0  0  0  0  0  0  0
   10.9732  -15.1594   27.1332 C   0  0  0  0  0  0  0  0  0  0  0  0
   10.6010  -16.2824   26.2513 C   0  0  2  0  0  0  0  0  0  0  0  0
   10.0808  -15.7585   24.9725 N   0  0  0  0  0  0  0  0  0  0  0  0
    9.7147  -17.2623   26.8261 C   0  0  0  0  0  0  0  0  0  0  0  0
   10.2677  -18.3538   27.5121 O   0  0  0  0  0  0  0  0  0  0  0  0
    8.4785  -17.2330   26.7717 O   0  0  0  0  0  0  0  0  0  0  0  0
  2  1  1  6
  2  3  1  0
  3  4  1  0
  5  4  1  0
  6  5  2  0
  7  2  1  0
  7  8  2  0
  9  5  1  0
 10  7  1  0
 11 10  1  0
 11 12  1  1
 12 13  1  0
 13 14  2  0
 13 18  1  0
 14 15  1  0
 15 16  2  0
 17 16  1  0
 18 17  2  0
 19 11  1  0
 20 19  2  0
 22 21  1  0
 22 23  1  0
 24 23  1  0
 25 24  1  1
 25 26  1  0
 26 19  1  0
 27 28  1  0
 27 25  1  0
 29 27  2  0
M  END
$$$$
