EFM.pdb
     RDKit          3D

 29 29  0  0  1  0  0  0  0  0999 V2000
    9.0491  -19.0015   20.9807 N   0  0  0  0  0  0  0  0  0  0  0  0
   10.2013  -18.1250   20.9121 C   0  0  1  0  0  0  0  0  0  0  0  0
   10.5529  -17.7359   19.5168 C   0  0  0  0  0  0  0  0  0  0  0  0
    9.6866  -18.2977   18.4438 C   0  0  0  0  0  0  0  0  0  0  0  0
   10.0428  -17.8396   17.0820 C   0  0  0  0  0  0  0  0  0  0  0  0
   10.7960  -18.5052   16.3200 O   0  0  0  0  0  0  0  0  0  0  0  0
    9.9281  -16.8387   21.6517 C   0  0  0  0  0  0  0  0  0  0  0  0
   10.8503  -15.9822   21.5791 O   0  0  0  0  0  0  0  0  0  0  0  0
    9.5701  -16.6440   16.5510 O   0  0  0  0  0  0  0  0  0  0  0  0
    8.7258  -16.6231   22.3673 N   0  0  0  0  0  0  0  0  0  0  0  0
    8.5708  -15.4185   23.1407 C   0  0  1  0  0  0  0  0  0  0  0  0
    7.1459  -14.9920   23.2494 C   0  0  0  0  0  0  0  0  0  0  0  0
    6.8887  -13.8692   24.1691 C   0  0  0  0  0  0  0  0  0  0  0  0
    6.2850  -14.0713   25.4158 C   0  0  0  0  0  0  0  0  0  0  0  0
    6.0317  -13.0202   26.2739 C   0  0  0  0  0  0  0  0  0  0  0  0
    6.3702  -11.7192   25.9247 C   0  0  0  0  0  0  0  0  0  0  0  0
    6.9643  -11.4989   24.7037 C   0  0  0  0  0  0  0  0  0  0  0  0
    7.2091  -12.5647   23.8599 C   0  0  0  0  0  0  0  0  0  0  0  0
    9.3067  -15.4617   24.4328 C   0  0  0  0  0  0  0  0  0  0  0  0
    9.1758  -14.5062   25.2395 O   0  0  0  0  0  0  0  0  0  0  0  0
   10.6112  -13.6207   30.0104 C   0  0  0  0  0  0  0  0  0  0  0  0
   10.2920  -15.3862   29.8277 S   0  0  0  0  0  0  0  0  0  0  0  0
   11.1644  -16.0355   28.3933 C   0  0  0  0  0  0  0  0  0  0  0  0
   10.3705  -16.0528   27.1470 C   0  0  0  0  0  0  0  0  0  0  0  0
   11.0919  -16.4680   25.9285 C   0  0  2  0  0  0  0  0  0  0  0  0
   10.1512  -16.5326   24.7921 N   0  0  0  0  0  0  0  0  0  0  0  0
   11.8727  -17.6735   26.0437 C   0  0  0  0  0  0  0  0  0  0  0  0
   12.9345  -17.7059   26.9599 O   0  0  0  0  0  0  0  0  0  0  0  0
   11.6919  -18.7118   25.3946 O   0  0  0  0  0  0  0  0  0  0  0  0
  2  1  1  6
  2  3  1  0
  3  4  1  0
  5  4  1  0
  6  5  2  0
  7  2  1  0
  7  8  2  0
  9  5  1  0
 10  7  1  0
 11 10  1  0
 11 12  1  1
 12 13  1  0
 13 14  2  0
 13 18  1  0
 14 15  1  0
 15 16  2  0
 17 16  1  0
 18 17  2  0
 19 11  1  0
 20 19  2  0
 22 21  1  0
 22 23  1  0
 24 23  1  0
 25 24  1  1
 25 26  1  0
 26 19  1  0
 27 28  1  0
 27 25  1  0
 29 27  2  0
M  END
$$$$
