EFM.pdb
     RDKit          3D

 29 29  0  0  1  0  0  0  0  0999 V2000
   10.1336  -16.8325   18.5488 N   0  0  0  0  0  0  0  0  0  0  0  0
    9.7041  -17.5726   19.7187 C   0  0  1  0  0  0  0  0  0  0  0  0
   10.6109  -18.7074   20.0533 C   0  0  0  0  0  0  0  0  0  0  0  0
   10.7699  -19.7490   19.0010 C   0  0  0  0  0  0  0  0  0  0  0  0
   11.7279  -19.3836   17.9333 C   0  0  0  0  0  0  0  0  0  0  0  0
   11.3618  -19.1363   16.7519 O   0  0  0  0  0  0  0  0  0  0  0  0
    9.6873  -16.6754   20.9314 C   0  0  0  0  0  0  0  0  0  0  0  0
   10.7746  -16.0811   21.1633 O   0  0  0  0  0  0  0  0  0  0  0  0
   13.0967  -19.2879   18.1616 O   0  0  0  0  0  0  0  0  0  0  0  0
    8.5337  -16.5216   21.7375 N   0  0  0  0  0  0  0  0  0  0  0  0
    8.5603  -15.5940   22.8386 C   0  0  1  0  0  0  0  0  0  0  0  0
    7.2617  -14.8821   23.0136 C   0  0  0  0  0  0  0  0  0  0  0  0
    7.1516  -14.0540   24.2281 C   0  0  0  0  0  0  0  0  0  0  0  0
    6.4723  -14.5113   25.3634 C   0  0  0  0  0  0  0  0  0  0  0  0
    6.3570  -13.7332   26.4977 C   0  0  0  0  0  0  0  0  0  0  0  0
    6.9152  -12.4624   26.5486 C   0  0  0  0  0  0  0  0  0  0  0  0
    7.5869  -11.9940   25.4434 C   0  0  0  0  0  0  0  0  0  0  0  0
    7.6909  -12.7887   24.3184 C   0  0  0  0  0  0  0  0  0  0  0  0
    9.1152  -16.1897   24.0837 C   0  0  0  0  0  0  0  0  0  0  0  0
    8.4501  -17.0713   24.6848 O   0  0  0  0  0  0  0  0  0  0  0  0
   11.1900  -13.2794   30.4480 C   0  0  0  0  0  0  0  0  0  0  0  0
    9.8719  -13.9618   29.4237 S   0  0  0  0  0  0  0  0  0  0  0  0
   10.5168  -15.2583   28.3543 C   0  0  0  0  0  0  0  0  0  0  0  0
   10.2512  -15.0563   26.9146 C   0  0  0  0  0  0  0  0  0  0  0  0
   10.7626  -16.1049   26.0112 C   0  0  2  0  0  0  0  0  0  0  0  0
   10.3601  -15.8040   24.6227 N   0  0  0  0  0  0  0  0  0  0  0  0
   10.4386  -17.4600   26.3785 C   0  0  0  0  0  0  0  0  0  0  0  0
    9.2639  -18.0351   25.8714 O   0  0  0  0  0  0  0  0  0  0  0  0
   11.1154  -18.1855   27.1185 O   0  0  0  0  0  0  0  0  0  0  0  0
  2  1  1  6
  2  3  1  0
  3  4  1  0
  5  4  1  0
  6  5  2  0
  7  2  1  0
  7  8  2  0
  9  5  1  0
 10  7  1  0
 11 10  1  0
 11 12  1  1
 12 13  1  0
 13 14  2  0
 13 18  1  0
 14 15  1  0
 15 16  2  0
 17 16  1  0
 18 17  2  0
 19 11  1  0
 20 19  2  0
 22 21  1  0
 22 23  1  0
 24 23  1  0
 25 24  1  1
 25 26  1  0
 26 19  1  0
 27 28  1  0
 27 25  1  0
 29 27  2  0
M  END
$$$$
