EFM.pdb
     RDKit          3D

 29 29  0  0  1  0  0  0  0  0999 V2000
    8.9839  -18.9128   20.1755 N   0  0  0  0  0  0  0  0  0  0  0  0
   10.1883  -18.1114   20.2637 C   0  0  1  0  0  0  0  0  0  0  0  0
   10.5490  -17.4609   18.9719 C   0  0  0  0  0  0  0  0  0  0  0  0
   10.3329  -18.2781   17.7460 C   0  0  0  0  0  0  0  0  0  0  0  0
   11.5801  -18.6304   17.0307 C   0  0  0  0  0  0  0  0  0  0  0  0
   12.0015  -17.9711   16.0414 O   0  0  0  0  0  0  0  0  0  0  0  0
   10.0046  -16.9942   21.2608 C   0  0  0  0  0  0  0  0  0  0  0  0
   11.0080  -16.2446   21.4043 O   0  0  0  0  0  0  0  0  0  0  0  0
   12.3716  -19.7122   17.4021 O   0  0  0  0  0  0  0  0  0  0  0  0
    8.7946  -16.8128   21.9729 N   0  0  0  0  0  0  0  0  0  0  0  0
    8.7090  -15.7742   22.9666 C   0  0  1  0  0  0  0  0  0  0  0  0
    7.3104  -15.5456   23.4311 C   0  0  0  0  0  0  0  0  0  0  0  0
    7.1374  -14.4561   24.4088 C   0  0  0  0  0  0  0  0  0  0  0  0
    6.3854  -14.6362   25.5756 C   0  0  0  0  0  0  0  0  0  0  0  0
    6.2113  -13.6141   26.4870 C   0  0  0  0  0  0  0  0  0  0  0  0
    6.7810  -12.3655   26.2732 C   0  0  0  0  0  0  0  0  0  0  0  0
    7.5238  -12.1678   25.1325 C   0  0  0  0  0  0  0  0  0  0  0  0
    7.6857  -13.2037   24.2333 C   0  0  0  0  0  0  0  0  0  0  0  0
    9.7078  -15.9336   24.0576 C   0  0  0  0  0  0  0  0  0  0  0  0
   10.4975  -14.9863   24.3021 O   0  0  0  0  0  0  0  0  0  0  0  0
   11.1568  -12.4585   28.8435 C   0  0  0  0  0  0  0  0  0  0  0  0
   10.1580  -13.9545   28.7140 S   0  0  0  0  0  0  0  0  0  0  0  0
   10.8216  -15.0428   27.4430 C   0  0  0  0  0  0  0  0  0  0  0  0
    9.9163  -16.1386   27.0381 C   0  0  0  0  0  0  0  0  0  0  0  0
   10.4954  -17.1540   26.1376 C   0  0  2  0  0  0  0  0  0  0  0  0
    9.8089  -17.1086   24.8310 N   0  0  0  0  0  0  0  0  0  0  0  0
   10.5551  -18.4947   26.6623 C   0  0  0  0  0  0  0  0  0  0  0  0
   11.4994  -18.7897   27.6568 O   0  0  0  0  0  0  0  0  0  0  0  0
    9.8335  -19.4369   26.3107 O   0  0  0  0  0  0  0  0  0  0  0  0
  2  1  1  6
  2  3  1  0
  3  4  1  0
  5  4  1  0
  6  5  2  0
  7  2  1  0
  7  8  2  0
  9  5  1  0
 10  7  1  0
 11 10  1  0
 11 12  1  1
 12 13  1  0
 13 14  2  0
 13 18  1  0
 14 15  1  0
 15 16  2  0
 17 16  1  0
 18 17  2  0
 19 11  1  0
 20 19  2  0
 22 21  1  0
 22 23  1  0
 24 23  1  0
 25 24  1  1
 25 26  1  0
 26 19  1  0
 27 28  1  0
 27 25  1  0
 29 27  2  0
M  END
$$$$
