EFM.pdb
     RDKit          3D

 29 29  0  0  1  0  0  0  0  0999 V2000
    9.2212  -19.6181   21.4533 N   0  0  0  0  0  0  0  0  0  0  0  0
   10.2422  -18.6996   20.9899 C   0  0  1  0  0  0  0  0  0  0  0  0
   10.2040  -18.4844   19.5154 C   0  0  0  0  0  0  0  0  0  0  0  0
   11.3086  -17.6640   18.9459 C   0  0  0  0  0  0  0  0  0  0  0  0
   11.2216  -17.4729   17.4806 C   0  0  0  0  0  0  0  0  0  0  0  0
   11.0097  -18.4288   16.6854 O   0  0  0  0  0  0  0  0  0  0  0  0
   10.0522  -17.3415   21.6187 C   0  0  0  0  0  0  0  0  0  0  0  0
   11.0075  -16.5386   21.4395 O   0  0  0  0  0  0  0  0  0  0  0  0
   11.3674  -16.2257   16.8822 O   0  0  0  0  0  0  0  0  0  0  0  0
    8.8870  -17.0074   22.3500 N   0  0  0  0  0  0  0  0  0  0  0  0
    8.8053  -15.7257   23.0012 C   0  0  1  0  0  0  0  0  0  0  0  0
    7.4030  -15.2290   23.1049 C   0  0  0  0  0  0  0  0  0  0  0  0
    7.1921  -14.1193   24.0519 C   0  0  0  0  0  0  0  0  0  0  0  0
    6.4820  -14.3030   25.2441 C   0  0  0  0  0  0  0  0  0  0  0  0
    6.2722  -13.2627   26.1269 C   0  0  0  0  0  0  0  0  0  0  0  0
    6.7627  -11.9914   25.8579 C   0  0  0  0  0  0  0  0  0  0  0  0
    7.4633  -11.7896   24.6914 C   0  0  0  0  0  0  0  0  0  0  0  0
    7.6620  -12.8441   23.8216 C   0  0  0  0  0  0  0  0  0  0  0  0
    9.5793  -15.6713   24.2705 C   0  0  0  0  0  0  0  0  0  0  0  0
    9.7598  -14.5575   24.8253 O   0  0  0  0  0  0  0  0  0  0  0  0
    9.0667  -13.5292   29.1169 C   0  0  0  0  0  0  0  0  0  0  0  0
    9.3266  -15.2086   29.7206 S   0  0  0  0  0  0  0  0  0  0  0  0
   10.3743  -16.1286   28.5820 C   0  0  0  0  0  0  0  0  0  0  0  0
    9.8685  -16.1904   27.1948 C   0  0  0  0  0  0  0  0  0  0  0  0
   10.7783  -16.7955   26.2031 C   0  0  2  0  0  0  0  0  0  0  0  0
   10.1242  -16.8208   24.8794 N   0  0  0  0  0  0  0  0  0  0  0  0
   11.3200  -18.0836   26.5549 C   0  0  0  0  0  0  0  0  0  0  0  0
   12.1608  -18.1804   27.6736 O   0  0  0  0  0  0  0  0  0  0  0  0
   11.1090  -19.1419   25.9487 O   0  0  0  0  0  0  0  0  0  0  0  0
  2  1  1  1
  2  3  1  0
  3  4  1  0
  5  4  1  0
  6  5  2  0
  7  2  1  0
  7  8  2  0
  9  5  1  0
 10  7  1  0
 11 10  1  0
 11 12  1  1
 12 13  1  0
 13 14  2  0
 13 18  1  0
 14 15  1  0
 15 16  2  0
 17 16  1  0
 18 17  2  0
 19 11  1  0
 20 19  2  0
 22 21  1  0
 22 23  1  0
 24 23  1  0
 25 24  1  1
 25 26  1  0
 26 19  1  0
 27 28  1  0
 27 25  1  0
 29 27  2  0
M  END
$$$$
