EFM.pdb
     RDKit          3D

 29 29  0  0  1  0  0  0  0  0999 V2000
    8.6053  -19.5467   19.8290 N   0  0  0  0  0  0  0  0  0  0  0  0
    9.7751  -18.6910   19.8454 C   0  0  1  0  0  0  0  0  0  0  0  0
   10.0235  -18.0216   18.5369 C   0  0  0  0  0  0  0  0  0  0  0  0
   11.2751  -17.2205   18.4400 C   0  0  0  0  0  0  0  0  0  0  0  0
   11.4963  -16.6095   17.1099 C   0  0  0  0  0  0  0  0  0  0  0  0
   11.9066  -17.2748   16.1200 O   0  0  0  0  0  0  0  0  0  0  0  0
    9.6037  -17.5858   20.8579 C   0  0  0  0  0  0  0  0  0  0  0  0
   10.6409  -16.9025   21.0739 O   0  0  0  0  0  0  0  0  0  0  0  0
   11.2658  -15.2602   16.8625 O   0  0  0  0  0  0  0  0  0  0  0  0
    8.3691  -17.3452   21.5074 N   0  0  0  0  0  0  0  0  0  0  0  0
    8.3220  -16.4298   22.6179 C   0  0  1  0  0  0  0  0  0  0  0  0
    6.9913  -15.7706   22.7553 C   0  0  0  0  0  0  0  0  0  0  0  0
    6.8599  -14.8385   23.8897 C   0  0  0  0  0  0  0  0  0  0  0  0
    7.2175  -13.4904   23.7709 C   0  0  0  0  0  0  0  0  0  0  0  0
    7.1072  -12.6180   24.8350 C   0  0  0  0  0  0  0  0  0  0  0  0
    6.6345  -13.0537   26.0662 C   0  0  0  0  0  0  0  0  0  0  0  0
    6.2777  -14.3750   26.2040 C   0  0  0  0  0  0  0  0  0  0  0  0
    6.3958  -15.2314   25.1267 C   0  0  0  0  0  0  0  0  0  0  0  0
    8.8571  -17.0176   23.8754 C   0  0  0  0  0  0  0  0  0  0  0  0
    8.4734  -18.1636   24.2223 O   0  0  0  0  0  0  0  0  0  0  0  0
   10.9895  -12.6494   28.7844 C   0  0  0  0  0  0  0  0  0  0  0  0
   11.1858  -13.5467   27.2325 S   0  0  0  0  0  0  0  0  0  0  0  0
   11.3096  -15.3155   27.5427 C   0  0  0  0  0  0  0  0  0  0  0  0
   11.5413  -16.1365   26.3360 C   0  0  0  0  0  0  0  0  0  0  0  0
   10.4016  -16.9594   25.8872 C   0  0  2  0  0  0  0  0  0  0  0  0
    9.7786  -16.3399   24.7003 N   0  0  0  0  0  0  0  0  0  0  0  0
    9.4245  -17.2789   26.8968 C   0  0  0  0  0  0  0  0  0  0  0  0
    9.7040  -18.3108   27.8051 O   0  0  0  0  0  0  0  0  0  0  0  0
    8.3325  -16.7152   27.0442 O   0  0  0  0  0  0  0  0  0  0  0  0
  2  1  1  6
  2  3  1  0
  3  4  1  0
  5  4  1  0
  6  5  2  0
  7  2  1  0
  7  8  2  0
  9  5  1  0
 10  7  1  0
 11 10  1  0
 11 12  1  1
 12 13  1  0
 13 14  2  0
 13 18  1  0
 14 15  1  0
 15 16  2  0
 17 16  1  0
 18 17  2  0
 19 11  1  0
 20 19  2  0
 22 21  1  0
 22 23  1  0
 24 23  1  0
 25 24  1  1
 25 26  1  0
 26 19  1  0
 27 28  1  0
 27 25  1  0
 29 27  2  0
M  END
$$$$
