EFM.pdb
     RDKit          3D

 29 29  0  0  1  0  0  0  0  0999 V2000
    9.4835  -18.7092   19.5465 N   0  0  0  0  0  0  0  0  0  0  0  0
   10.6064  -18.5571   20.4501 C   0  0  1  0  0  0  0  0  0  0  0  0
   11.8585  -18.1417   19.7560 C   0  0  0  0  0  0  0  0  0  0  0  0
   11.6864  -17.5240   18.4120 C   0  0  0  0  0  0  0  0  0  0  0  0
   12.9568  -17.1179   17.7698 C   0  0  0  0  0  0  0  0  0  0  0  0
   13.6412  -17.9089   17.0649 O   0  0  0  0  0  0  0  0  0  0  0  0
   10.3170  -17.4864   21.4728 C   0  0  0  0  0  0  0  0  0  0  0  0
   11.3390  -16.9730   22.0031 O   0  0  0  0  0  0  0  0  0  0  0  0
   13.4810  -15.8361   17.9005 O   0  0  0  0  0  0  0  0  0  0  0  0
    8.9961  -17.0977   21.8018 N   0  0  0  0  0  0  0  0  0  0  0  0
    8.7810  -16.1742   22.8855 C   0  0  1  0  0  0  0  0  0  0  0  0
    7.5062  -15.4141   22.7402 C   0  0  0  0  0  0  0  0  0  0  0  0
    7.2089  -14.4618   23.8254 C   0  0  0  0  0  0  0  0  0  0  0  0
    6.5359  -14.8645   24.9849 C   0  0  0  0  0  0  0  0  0  0  0  0
    6.2451  -13.9723   25.9973 C   0  0  0  0  0  0  0  0  0  0  0  0
    6.6139  -12.6370   25.8965 C   0  0  0  0  0  0  0  0  0  0  0  0
    7.2761  -12.2208   24.7650 C   0  0  0  0  0  0  0  0  0  0  0  0
    7.5574  -13.1296   23.7636 C   0  0  0  0  0  0  0  0  0  0  0  0
    8.9865  -16.7932   24.2226 C   0  0  0  0  0  0  0  0  0  0  0  0
    8.9071  -18.0431   24.3327 O   0  0  0  0  0  0  0  0  0  0  0  0
   10.3778  -13.0603   29.4141 C   0  0  0  0  0  0  0  0  0  0  0  0
   11.3635  -14.5089   29.8410 S   0  0  0  0  0  0  0  0  0  0  0  0
   10.9824  -15.8749   28.7324 C   0  0  0  0  0  0  0  0  0  0  0  0
   10.3670  -15.4728   27.4504 C   0  0  0  0  0  0  0  0  0  0  0  0
   10.0111  -16.5724   26.5329 C   0  0  2  0  0  0  0  0  0  0  0  0
    9.2652  -16.0339   25.3779 N   0  0  0  0  0  0  0  0  0  0  0  0
    9.3304  -17.6920   27.1324 C   0  0  0  0  0  0  0  0  0  0  0  0
    7.9330  -17.7653   27.0329 O   0  0  0  0  0  0  0  0  0  0  0  0
    9.8745  -18.6209   27.7431 O   0  0  0  0  0  0  0  0  0  0  0  0
  2  1  1  6
  2  3  1  0
  3  4  1  0
  5  4  1  0
  6  5  2  0
  7  2  1  0
  7  8  2  0
  9  5  1  0
 10  7  1  0
 11 10  1  0
 11 12  1  1
 12 13  1  0
 13 14  2  0
 13 18  1  0
 14 15  1  0
 15 16  2  0
 17 16  1  0
 18 17  2  0
 19 11  1  0
 20 19  2  0
 22 21  1  0
 22 23  1  0
 24 23  1  0
 25 24  1  1
 25 26  1  0
 26 19  1  0
 27 28  1  0
 27 25  1  0
 29 27  2  0
M  END
$$$$
