GSE.pdb
     RDKit          3D

 20 19  0  0  1  0  0  0  0  0999 V2000
   21.4342  -14.7930  -17.4776 N   0  0  0  0  0  0  0  0  0  0  0  0
   21.9930  -13.7184  -18.2536 C   0  0  0  0  0  0  0  0  0  0  0  0
   22.7517  -12.7918  -17.3763 C   0  0  0  0  0  0  0  0  0  0  0  0
   23.3468  -13.2714  -16.3653 O   0  0  0  0  0  0  0  0  0  0  0  0
   26.1873  -10.2516  -16.6741 O   0  0  0  0  0  0  0  0  0  0  0  0
   25.2241  -10.9513  -17.3633 C   0  0  0  0  0  0  0  0  0  0  0  0
   23.8134  -10.5780  -16.8919 C   0  0  2  0  0  0  0  0  0  0  0  0
   22.8536  -11.3923  -17.5994 N   0  0  0  0  0  0  0  0  0  0  0  0
   23.6037   -9.1389  -17.0833 C   0  0  0  0  0  0  0  0  0  0  0  0
   23.4794   -8.7454  -18.2883 O   0  0  0  0  0  0  0  0  0  0  0  0
   23.5299   -8.1773  -16.0698 N   0  0  0  0  0  0  0  0  0  0  0  0
   23.2032   -6.7754  -16.3730 C   0  0  1  0  0  0  0  0  0  0  0  0
   22.7111   -6.1720  -15.1032 C   0  0  0  0  0  0  0  0  0  0  0  0
   22.2554   -4.7584  -15.1813 C   0  0  0  0  0  0  0  0  0  0  0  0
   21.8678   -4.1343  -13.9114 C   0  0  0  0  0  0  0  0  0  0  0  0
   22.2934   -4.6056  -12.8425 O   0  0  0  0  0  0  0  0  0  0  0  0
   24.4063   -6.1292  -16.9162 C   0  0  0  0  0  0  0  0  0  0  0  0
   24.3834   -5.0733  -17.8183 O   0  0  0  0  0  0  0  0  0  0  0  0
   21.0442   -3.0420  -13.8914 O   0  0  0  0  0  0  0  0  0  0  0  0
   25.5569   -6.5173  -16.5765 O   0  0  0  0  0  0  0  0  0  0  0  0
  2  1  1  0
  3  2  1  0
  4  3  2  0
  6  5  1  0
  7  6  1  6
  7  8  1  0
  8  3  1  0
  9 11  1  0
  9  7  1  0
 10  9  2  0
 12 17  1  0
 12 11  1  0
 13 14  1  0
 12 13  1  1
 14 15  1  0
 15 16  2  0
 17 18  1  0
 19 15  1  0
 20 17  2  0
M  END
$$$$
