GSE.pdb
     RDKit          3D

 20 19  0  0  1  0  0  0  0  0999 V2000
   18.2280  -11.3036  -18.1633 N   0  0  0  0  0  0  0  0  0  0  0  0
   19.6074  -10.8960  -18.1700 C   0  0  0  0  0  0  0  0  0  0  0  0
   19.9678  -10.2815  -16.8676 C   0  0  0  0  0  0  0  0  0  0  0  0
   19.0556   -9.7099  -16.1985 O   0  0  0  0  0  0  0  0  0  0  0  0
   23.9451  -10.0203  -15.5355 O   0  0  0  0  0  0  0  0  0  0  0  0
   22.9494  -10.0241  -14.5862 C   0  0  0  0  0  0  0  0  0  0  0  0
   21.6247   -9.5066  -15.1597 C   0  0  2  0  0  0  0  0  0  0  0  0
   21.2788  -10.2933  -16.3199 N   0  0  0  0  0  0  0  0  0  0  0  0
   21.7487   -8.0738  -15.4484 C   0  0  0  0  0  0  0  0  0  0  0  0
   22.1368   -7.7697  -16.6228 O   0  0  0  0  0  0  0  0  0  0  0  0
   21.4806   -7.0296  -14.5567 N   0  0  0  0  0  0  0  0  0  0  0  0
   21.6752   -5.6252  -14.9485 C   0  0  1  0  0  0  0  0  0  0  0  0
   20.3460   -5.1229  -15.3950 C   0  0  0  0  0  0  0  0  0  0  0  0
   20.2762   -3.6820  -15.7569 C   0  0  0  0  0  0  0  0  0  0  0  0
   18.9590   -3.1826  -16.1667 C   0  0  0  0  0  0  0  0  0  0  0  0
   17.9991   -3.9701  -16.2328 O   0  0  0  0  0  0  0  0  0  0  0  0
   22.2342   -4.8996  -13.7990 C   0  0  0  0  0  0  0  0  0  0  0  0
   22.8126   -3.6394  -13.8799 O   0  0  0  0  0  0  0  0  0  0  0  0
   18.7767   -1.8627  -16.4768 O   0  0  0  0  0  0  0  0  0  0  0  0
   22.2142   -5.4056  -12.6443 O   0  0  0  0  0  0  0  0  0  0  0  0
  2  1  1  0
  3  2  1  0
  4  3  2  0
  6  5  1  0
  7  6  1  6
  7  8  1  0
  8  3  1  0
  9 11  1  0
  9  7  1  0
 10  9  2  0
 12 17  1  0
 12 11  1  0
 13 14  1  0
 12 13  1  1
 14 15  1  0
 15 16  2  0
 17 18  1  0
 19 15  1  0
 20 17  2  0
M  END
$$$$
