GSE.pdb
     RDKit          3D

 20 19  0  0  1  0  0  0  0  0999 V2000
   17.8130  -12.1217  -17.0151 N   0  0  0  0  0  0  0  0  0  0  0  0
   18.1662  -10.7751  -17.3769 C   0  0  0  0  0  0  0  0  0  0  0  0
   19.0274  -10.1708  -16.3296 C   0  0  0  0  0  0  0  0  0  0  0  0
   18.4684   -9.5840  -15.3550 O   0  0  0  0  0  0  0  0  0  0  0  0
   23.4269   -9.6466  -14.3297 O   0  0  0  0  0  0  0  0  0  0  0  0
   22.6269  -10.2175  -15.2923 C   0  0  0  0  0  0  0  0  0  0  0  0
   21.2397   -9.5647  -15.3293 C   0  0  2  0  0  0  0  0  0  0  0  0
   20.4475  -10.2084  -16.3504 N   0  0  0  0  0  0  0  0  0  0  0  0
   21.3894   -8.1205  -15.5380 C   0  0  0  0  0  0  0  0  0  0  0  0
   21.6602   -7.7505  -16.7262 O   0  0  0  0  0  0  0  0  0  0  0  0
   21.2617   -7.1309  -14.5573 N   0  0  0  0  0  0  0  0  0  0  0  0
   21.5022   -5.7138  -14.8700 C   0  0  1  0  0  0  0  0  0  0  0  0
   20.1869   -5.1399  -15.2689 C   0  0  0  0  0  0  0  0  0  0  0  0
   20.1415   -3.6641  -15.4480 C   0  0  0  0  0  0  0  0  0  0  0  0
   18.8258   -3.0912  -15.7526 C   0  0  0  0  0  0  0  0  0  0  0  0
   18.4701   -2.0409  -15.1900 O   0  0  0  0  0  0  0  0  0  0  0  0
   22.1000   -5.0764  -13.6882 C   0  0  0  0  0  0  0  0  0  0  0  0
   22.1722   -5.6714  -12.4352 O   0  0  0  0  0  0  0  0  0  0  0  0
   17.9879   -3.6996  -16.6467 O   0  0  0  0  0  0  0  0  0  0  0  0
   22.5927   -3.9181  -13.7592 O   0  0  0  0  0  0  0  0  0  0  0  0
  2  1  1  0
  3  2  1  0
  4  3  2  0
  6  5  1  0
  7  6  1  6
  7  8  1  0
  8  3  1  0
  9 11  1  0
  9  7  1  0
 10  9  2  0
 12 17  1  0
 12 11  1  0
 13 14  1  0
 12 13  1  1
 14 15  1  0
 15 16  2  0
 17 18  1  0
 19 15  1  0
 20 17  2  0
M  END
$$$$
