GSE.pdb
     RDKit          3D

 20 19  0  0  1  0  0  0  0  0999 V2000
   12.3439  -10.0568   -9.4582 N   0  0  0  0  0  0  0  0  0  0  0  0
   13.5052   -9.6784   -8.6986 C   0  0  0  0  0  0  0  0  0  0  0  0
   14.2292   -8.5767   -9.3813 C   0  0  0  0  0  0  0  0  0  0  0  0
   13.8920   -8.2779  -10.5660 O   0  0  0  0  0  0  0  0  0  0  0  0
   15.2289   -5.0711   -7.9935 O   0  0  0  0  0  0  0  0  0  0  0  0
   16.3477   -5.6713   -8.5231 C   0  0  0  0  0  0  0  0  0  0  0  0
   15.9742   -6.7873   -9.5063 C   0  0  2  0  0  0  0  0  0  0  0  0
   15.2829   -7.8313   -8.7873 N   0  0  0  0  0  0  0  0  0  0  0  0
   17.1850   -7.2582  -10.1873 C   0  0  0  0  0  0  0  0  0  0  0  0
   18.0828   -7.7720   -9.4442 O   0  0  0  0  0  0  0  0  0  0  0  0
   17.4328   -7.1917  -11.5626 N   0  0  0  0  0  0  0  0  0  0  0  0
   18.7252   -7.6133  -12.1245 C   0  0  1  0  0  0  0  0  0  0  0  0
   18.4469   -8.7993  -12.9814 C   0  0  0  0  0  0  0  0  0  0  0  0
   19.5888   -9.3112  -13.7854 C   0  0  0  0  0  0  0  0  0  0  0  0
   19.2930  -10.4300  -14.6870 C   0  0  0  0  0  0  0  0  0  0  0  0
   19.6854  -10.3864  -15.8661 O   0  0  0  0  0  0  0  0  0  0  0  0
   19.3060   -6.4741  -12.8491 C   0  0  0  0  0  0  0  0  0  0  0  0
   20.6688   -6.2857  -13.0405 O   0  0  0  0  0  0  0  0  0  0  0  0
   18.5910  -11.5179  -14.2451 O   0  0  0  0  0  0  0  0  0  0  0  0
   18.5678   -5.5824  -13.3486 O   0  0  0  0  0  0  0  0  0  0  0  0
  2  1  1  0
  3  2  1  0
  4  3  2  0
  6  5  1  0
  7  6  1  1
  7  8  1  0
  8  3  1  0
  9 11  1  0
  9  7  1  0
 10  9  2  0
 12 17  1  0
 12 11  1  0
 13 14  1  0
 12 13  1  6
 14 15  1  0
 15 16  2  0
 17 18  1  0
 19 15  1  0
 20 17  2  0
M  END
$$$$
