GSE.pdb
     RDKit          3D

 20 19  0  0  1  0  0  0  0  0999 V2000
   19.8077  -12.5051  -17.6460 N   0  0  0  0  0  0  0  0  0  0  0  0
   19.9255  -11.1166  -18.0026 C   0  0  0  0  0  0  0  0  0  0  0  0
   20.6305  -10.3691  -16.9310 C   0  0  0  0  0  0  0  0  0  0  0  0
   19.9448   -9.8950  -15.9763 O   0  0  0  0  0  0  0  0  0  0  0  0
   24.4652  -10.6736  -15.0984 O   0  0  0  0  0  0  0  0  0  0  0  0
   24.1629   -9.5930  -15.8941 C   0  0  0  0  0  0  0  0  0  0  0  0
   22.6556   -9.3112  -15.9100 C   0  0  2  0  0  0  0  0  0  0  0  0
   22.0341  -10.1498  -16.9077 N   0  0  0  0  0  0  0  0  0  0  0  0
   22.4328   -7.8794  -16.1376 C   0  0  0  0  0  0  0  0  0  0  0  0
   22.5977   -7.4688  -17.3320 O   0  0  0  0  0  0  0  0  0  0  0  0
   22.0602   -6.9415  -15.1686 N   0  0  0  0  0  0  0  0  0  0  0  0
   21.7759   -5.5445  -15.5310 C   0  0  1  0  0  0  0  0  0  0  0  0
   20.3028   -5.3660  -15.4026 C   0  0  0  0  0  0  0  0  0  0  0  0
   19.7899   -3.9828  -15.5922 C   0  0  0  0  0  0  0  0  0  0  0  0
   18.5213   -3.8588  -16.3184 C   0  0  0  0  0  0  0  0  0  0  0  0
   17.4938   -4.3785  -15.8491 O   0  0  0  0  0  0  0  0  0  0  0  0
   22.5641   -4.6707  -14.6504 C   0  0  0  0  0  0  0  0  0  0  0  0
   22.7737   -3.3172  -14.8811 O   0  0  0  0  0  0  0  0  0  0  0  0
   18.4575   -3.1795  -17.5042 O   0  0  0  0  0  0  0  0  0  0  0  0
   23.1063   -5.1254  -13.6069 O   0  0  0  0  0  0  0  0  0  0  0  0
  2  1  1  0
  3  2  1  0
  4  3  2  0
  6  5  1  0
  7  6  1  6
  7  8  1  0
  8  3  1  0
  9 11  1  0
  9  7  1  0
 10  9  2  0
 12 17  1  0
 12 11  1  0
 13 14  1  0
 12 13  1  1
 14 15  1  0
 15 16  2  0
 17 18  1  0
 19 15  1  0
 20 17  2  0
M  END
$$$$
