GSE.pdb
     RDKit          3D

 20 19  0  0  1  0  0  0  0  0999 V2000
   30.3763  -31.0042  -17.6809 N   0  0  0  0  0  0  0  0  0  0  0  0
   29.3790  -31.2310  -16.6695 C   0  0  0  0  0  0  0  0  0  0  0  0
   28.0228  -31.2177  -17.2732 C   0  0  0  0  0  0  0  0  0  0  0  0
   27.9140  -30.9323  -18.5033 O   0  0  0  0  0  0  0  0  0  0  0  0
   24.9972  -33.4739  -15.8938 O   0  0  0  0  0  0  0  0  0  0  0  0
   24.9949  -32.9618  -17.1706 C   0  0  0  0  0  0  0  0  0  0  0  0
   25.5407  -31.5290  -17.2020 C   0  0  2  0  0  0  0  0  0  0  0  0
   26.8313  -31.5065  -16.5550 N   0  0  0  0  0  0  0  0  0  0  0  0
   24.5663  -30.6257  -16.5805 C   0  0  0  0  0  0  0  0  0  0  0  0
   24.7703  -30.3363  -15.3571 O   0  0  0  0  0  0  0  0  0  0  0  0
   23.4494  -30.0640  -17.2086 N   0  0  0  0  0  0  0  0  0  0  0  0
   22.5649  -29.1297  -16.4956 C   0  0  1  0  0  0  0  0  0  0  0  0
   22.0161  -28.2005  -17.5221 C   0  0  0  0  0  0  0  0  0  0  0  0
   21.0580  -27.1733  -17.0330 C   0  0  0  0  0  0  0  0  0  0  0  0
   20.5305  -26.2497  -18.0434 C   0  0  0  0  0  0  0  0  0  0  0  0
   21.3144  -25.6891  -18.8291 O   0  0  0  0  0  0  0  0  0  0  0  0
   21.5416  -29.9129  -15.7887 C   0  0  0  0  0  0  0  0  0  0  0  0
   21.1101  -31.1713  -16.1881 O   0  0  0  0  0  0  0  0  0  0  0  0
   19.1884  -25.9990  -18.1293 O   0  0  0  0  0  0  0  0  0  0  0  0
   20.9876  -29.4627  -14.7494 O   0  0  0  0  0  0  0  0  0  0  0  0
  2  1  1  0
  3  2  1  0
  4  3  2  0
  6  5  1  0
  7  6  1  1
  7  8  1  0
  8  3  1  0
  9 11  1  0
  9  7  1  0
 10  9  2  0
 12 17  1  0
 12 11  1  0
 13 14  1  0
 12 13  1  6
 14 15  1  0
 15 16  2  0
 17 18  1  0
 19 15  1  0
 20 17  2  0
M  END
$$$$
