GSE.pdb
     RDKit          3D

 20 19  0  0  1  0  0  0  0  0999 V2000
   21.1548  -13.4495  -17.6258 N   0  0  0  0  0  0  0  0  0  0  0  0
   20.6856  -12.9515  -16.3605 C   0  0  0  0  0  0  0  0  0  0  0  0
   20.2390  -11.5423  -16.4967 C   0  0  0  0  0  0  0  0  0  0  0  0
   19.2188  -11.3001  -17.2087 O   0  0  0  0  0  0  0  0  0  0  0  0
   18.4081   -7.9986  -14.7984 O   0  0  0  0  0  0  0  0  0  0  0  0
   18.9950   -9.2316  -14.9655 C   0  0  0  0  0  0  0  0  0  0  0  0
   20.2716   -9.1362  -15.8097 C   0  0  2  0  0  0  0  0  0  0  0  0
   20.8868  -10.4408  -15.8756 N   0  0  0  0  0  0  0  0  0  0  0  0
   21.1522   -8.1095  -15.2421 C   0  0  0  0  0  0  0  0  0  0  0  0
   21.7650   -8.4257  -14.1712 O   0  0  0  0  0  0  0  0  0  0  0  0
   21.3721   -6.8325  -15.7695 N   0  0  0  0  0  0  0  0  0  0  0  0
   22.3821   -5.9334  -15.1904 C   0  0  1  0  0  0  0  0  0  0  0  0
   22.8248   -5.0311  -16.2898 C   0  0  0  0  0  0  0  0  0  0  0  0
   23.8461   -4.0111  -15.9311 C   0  0  0  0  0  0  0  0  0  0  0  0
   24.2923   -3.1343  -17.0194 C   0  0  0  0  0  0  0  0  0  0  0  0
   23.9198   -3.3646  -18.1831 O   0  0  0  0  0  0  0  0  0  0  0  0
   21.7756   -5.2337  -14.0490 C   0  0  0  0  0  0  0  0  0  0  0  0
   22.4937   -4.7388  -12.9679 O   0  0  0  0  0  0  0  0  0  0  0  0
   25.1127   -2.0688  -16.7676 O   0  0  0  0  0  0  0  0  0  0  0  0
   20.5304   -5.0433  -13.9960 O   0  0  0  0  0  0  0  0  0  0  0  0
  2  1  1  0
  3  2  1  0
  4  3  2  0
  6  5  1  0
  7  6  1  1
  7  8  1  0
  8  3  1  0
  9 11  1  0
  9  7  1  0
 10  9  2  0
 12 17  1  0
 12 11  1  0
 13 14  1  0
 12 13  1  6
 14 15  1  0
 15 16  2  0
 17 18  1  0
 19 15  1  0
 20 17  2  0
M  END
$$$$
