GSE.pdb
     RDKit          3D

 20 19  0  0  1  0  0  0  0  0999 V2000
   13.2789  -13.4124  -14.1565 N   0  0  0  0  0  0  0  0  0  0  0  0
   13.5746  -12.3828  -15.1163 C   0  0  0  0  0  0  0  0  0  0  0  0
   14.9126  -11.7985  -14.8473 C   0  0  0  0  0  0  0  0  0  0  0  0
   15.0467  -11.0386  -13.8418 O   0  0  0  0  0  0  0  0  0  0  0  0
   19.6703  -11.6158  -15.8779 O   0  0  0  0  0  0  0  0  0  0  0  0
   18.4245  -12.1210  -16.1701 C   0  0  0  0  0  0  0  0  0  0  0  0
   17.3270  -11.4043  -15.3742 C   0  0  2  0  0  0  0  0  0  0  0  0
   16.0597  -12.0386  -15.6505 N   0  0  0  0  0  0  0  0  0  0  0  0
   17.3431   -9.9755  -15.7054 C   0  0  0  0  0  0  0  0  0  0  0  0
   16.7931   -9.6486  -16.8067 O   0  0  0  0  0  0  0  0  0  0  0  0
   17.9027   -8.9575  -14.9257 N   0  0  0  0  0  0  0  0  0  0  0  0
   17.8019   -7.5466  -15.3296 C   0  0  1  0  0  0  0  0  0  0  0  0
   17.0969   -6.8399  -14.2240 C   0  0  0  0  0  0  0  0  0  0  0  0
   17.0591   -5.3557  -14.3122 C   0  0  0  0  0  0  0  0  0  0  0  0
   15.7839   -4.7667  -14.7355 C   0  0  0  0  0  0  0  0  0  0  0  0
   14.8095   -5.5078  -14.9535 O   0  0  0  0  0  0  0  0  0  0  0  0
   19.1580   -7.0448  -15.5924 C   0  0  0  0  0  0  0  0  0  0  0  0
   19.4346   -5.8817  -16.2996 O   0  0  0  0  0  0  0  0  0  0  0  0
   15.6562   -3.4137  -14.8931 O   0  0  0  0  0  0  0  0  0  0  0  0
   20.1701   -7.6691  -15.1733 O   0  0  0  0  0  0  0  0  0  0  0  0
  2  1  1  0
  3  2  1  0
  4  3  2  0
  6  5  1  0
  7  6  1  6
  7  8  1  0
  8  3  1  0
  9 11  1  0
  9  7  1  0
 10  9  2  0
 12 17  1  0
 12 11  1  0
 13 14  1  0
 12 13  1  1
 14 15  1  0
 15 16  2  0
 17 18  1  0
 19 15  1  0
 20 17  2  0
M  END
$$$$
