GSE.pdb
     RDKit          3D

 20 19  0  0  1  0  0  0  0  0999 V2000
   18.5848  -12.7512  -16.4778 N   0  0  0  0  0  0  0  0  0  0  0  0
   18.1897  -12.0510  -15.2851 C   0  0  0  0  0  0  0  0  0  0  0  0
   18.3376  -10.5863  -15.4764 C   0  0  0  0  0  0  0  0  0  0  0  0
   19.0707  -10.1739  -16.4245 O   0  0  0  0  0  0  0  0  0  0  0  0
   15.5592   -7.9582  -14.1994 O   0  0  0  0  0  0  0  0  0  0  0  0
   16.8241   -7.4346  -14.0632 C   0  0  0  0  0  0  0  0  0  0  0  0
   17.8428   -8.1975  -14.9186 C   0  0  2  0  0  0  0  0  0  0  0  0
   17.7056   -9.6111  -14.6589 N   0  0  0  0  0  0  0  0  0  0  0  0
   19.1891   -7.6861  -14.6397 C   0  0  0  0  0  0  0  0  0  0  0  0
   19.7782   -8.1815  -13.6249 O   0  0  0  0  0  0  0  0  0  0  0  0
   19.8698   -6.7156  -15.3827 N   0  0  0  0  0  0  0  0  0  0  0  0
   21.2577   -6.3474  -15.0635 C   0  0  1  0  0  0  0  0  0  0  0  0
   21.9082   -5.9913  -16.3553 C   0  0  0  0  0  0  0  0  0  0  0  0
   23.3112   -5.5048  -16.2718 C   0  0  0  0  0  0  0  0  0  0  0  0
   23.9590   -5.1812  -17.5477 C   0  0  0  0  0  0  0  0  0  0  0  0
   23.3629   -5.4147  -18.6136 O   0  0  0  0  0  0  0  0  0  0  0  0
   21.2300   -5.2513  -14.0848 C   0  0  0  0  0  0  0  0  0  0  0  0
   22.2329   -5.0129  -13.1538 O   0  0  0  0  0  0  0  0  0  0  0  0
   25.2096   -4.6273  -17.5767 O   0  0  0  0  0  0  0  0  0  0  0  0
   20.2596   -4.4474  -14.0429 O   0  0  0  0  0  0  0  0  0  0  0  0
  2  1  1  0
  3  2  1  0
  4  3  2  0
  6  5  1  0
  7  6  1  1
  7  8  1  0
  8  3  1  0
  9 11  1  0
  9  7  1  0
 10  9  2  0
 12 17  1  0
 12 11  1  0
 13 14  1  0
 12 13  1  6
 14 15  1  0
 15 16  2  0
 17 18  1  0
 19 15  1  0
 20 17  2  0
M  END
$$$$
