GSE.pdb
     RDKit          3D

 20 19  0  0  1  0  0  0  0  0999 V2000
   18.8245  -12.7649  -16.9748 N   0  0  0  0  0  0  0  0  0  0  0  0
   19.5969  -11.6188  -17.3732 C   0  0  0  0  0  0  0  0  0  0  0  0
   20.2324  -10.9903  -16.1879 C   0  0  0  0  0  0  0  0  0  0  0  0
   19.5164  -10.7736  -15.1648 O   0  0  0  0  0  0  0  0  0  0  0  0
   24.3321   -9.9234  -15.9879 O   0  0  0  0  0  0  0  0  0  0  0  0
   23.6041  -10.1554  -14.8439 C   0  0  0  0  0  0  0  0  0  0  0  0
   22.1220   -9.8154  -15.0427 C   0  0  2  0  0  0  0  0  0  0  0  0
   21.6010  -10.6135  -16.1273 N   0  0  0  0  0  0  0  0  0  0  0  0
   21.9819   -8.3726  -15.2671 C   0  0  0  0  0  0  0  0  0  0  0  0
   21.9912   -7.9903  -16.4820 O   0  0  0  0  0  0  0  0  0  0  0  0
   21.8411   -7.3965  -14.2748 N   0  0  0  0  0  0  0  0  0  0  0  0
   21.6876   -5.9752  -14.6214 C   0  0  1  0  0  0  0  0  0  0  0  0
   20.2420   -5.7646  -14.9118 C   0  0  0  0  0  0  0  0  0  0  0  0
   19.8183   -4.3592  -15.1514 C   0  0  0  0  0  0  0  0  0  0  0  0
   18.3919   -4.1532  -15.4260 C   0  0  0  0  0  0  0  0  0  0  0  0
   17.8987   -3.0205  -15.2854 O   0  0  0  0  0  0  0  0  0  0  0  0
   22.1969   -5.1706  -13.5019 C   0  0  0  0  0  0  0  0  0  0  0  0
   22.5040   -3.8188  -13.5906 O   0  0  0  0  0  0  0  0  0  0  0  0
   17.6007   -5.1922  -15.8335 O   0  0  0  0  0  0  0  0  0  0  0  0
   22.3858   -5.6884  -12.3679 O   0  0  0  0  0  0  0  0  0  0  0  0
  2  1  1  0
  3  2  1  0
  4  3  2  0
  6  5  1  0
  7  6  1  6
  7  8  1  0
  8  3  1  0
  9 11  1  0
  9  7  1  0
 10  9  2  0
 12 17  1  0
 12 11  1  0
 13 14  1  0
 12 13  1  1
 14 15  1  0
 15 16  2  0
 17 18  1  0
 19 15  1  0
 20 17  2  0
M  END
$$$$
