GSE.pdb
     RDKit          3D

 20 19  0  0  1  0  0  0  0  0999 V2000
   24.3072  -20.4433   -8.4091 N   0  0  0  0  0  0  0  0  0  0  0  0
   25.1670  -21.2325   -9.2499 C   0  0  0  0  0  0  0  0  0  0  0  0
   25.1753  -20.6883  -10.6310 C   0  0  0  0  0  0  0  0  0  0  0  0
   24.4234  -19.7025  -10.8944 O   0  0  0  0  0  0  0  0  0  0  0  0
   27.1055  -20.6952  -15.1098 O   0  0  0  0  0  0  0  0  0  0  0  0
   27.0991  -21.2016  -13.8307 C   0  0  0  0  0  0  0  0  0  0  0  0
   25.9044  -20.6772  -13.0250 C   0  0  2  0  0  0  0  0  0  0  0  0
   25.9775  -21.2058  -11.6834 N   0  0  0  0  0  0  0  0  0  0  0  0
   24.6606  -21.0290  -13.7183 C   0  0  0  0  0  0  0  0  0  0  0  0
   24.2748  -22.2371  -13.6002 O   0  0  0  0  0  0  0  0  0  0  0  0
   23.8746  -20.1630  -14.4863 N   0  0  0  0  0  0  0  0  0  0  0  0
   22.5861  -20.5991  -15.0461 C   0  0  1  0  0  0  0  0  0  0  0  0
   21.6892  -19.4103  -15.0183 C   0  0  0  0  0  0  0  0  0  0  0  0
   20.3100  -19.6160  -15.5359 C   0  0  0  0  0  0  0  0  0  0  0  0
   19.4696  -18.4170  -15.6272 C   0  0  0  0  0  0  0  0  0  0  0  0
   18.3902  -18.4712  -16.2421 O   0  0  0  0  0  0  0  0  0  0  0  0
   22.8272  -21.1359  -16.3929 C   0  0  0  0  0  0  0  0  0  0  0  0
   23.9057  -20.7790  -17.1921 O   0  0  0  0  0  0  0  0  0  0  0  0
   19.8606  -17.2425  -15.0448 O   0  0  0  0  0  0  0  0  0  0  0  0
   22.0378  -21.9757  -16.9041 O   0  0  0  0  0  0  0  0  0  0  0  0
  2  1  1  0
  3  2  1  0
  4  3  2  0
  6  5  1  0
  7  6  1  6
  7  8  1  0
  8  3  1  0
  9 11  1  0
  9  7  1  0
 10  9  2  0
 12 17  1  0
 12 11  1  0
 13 14  1  0
 12 13  1  6
 14 15  1  0
 15 16  2  0
 17 18  1  0
 19 15  1  0
 20 17  2  0
M  END
$$$$
