GSE.pdb
     RDKit          3D

 20 19  0  0  1  0  0  0  0  0999 V2000
   19.4493  -12.4577  -18.8569 N   0  0  0  0  0  0  0  0  0  0  0  0
   19.9068  -11.1160  -19.1007 C   0  0  0  0  0  0  0  0  0  0  0  0
   20.1912  -10.4288  -17.8158 C   0  0  0  0  0  0  0  0  0  0  0  0
   19.2163  -10.1364  -17.0606 O   0  0  0  0  0  0  0  0  0  0  0  0
   23.3064   -9.2692  -14.3211 O   0  0  0  0  0  0  0  0  0  0  0  0
   22.9861   -9.9542  -15.4703 C   0  0  0  0  0  0  0  0  0  0  0  0
   21.7160   -9.3945  -16.1223 C   0  0  2  0  0  0  0  0  0  0  0  0
   21.4954  -10.0757  -17.3761 N   0  0  0  0  0  0  0  0  0  0  0  0
   21.8471   -7.9409  -16.2690 C   0  0  0  0  0  0  0  0  0  0  0  0
   22.5929   -7.5380  -17.2196 O   0  0  0  0  0  0  0  0  0  0  0  0
   21.2315   -6.9751  -15.4656 N   0  0  0  0  0  0  0  0  0  0  0  0
   21.5400   -5.5454  -15.6225 C   0  0  1  0  0  0  0  0  0  0  0  0
   20.2565   -4.8711  -15.9641 C   0  0  0  0  0  0  0  0  0  0  0  0
   20.2885   -3.3849  -16.0141 C   0  0  0  0  0  0  0  0  0  0  0  0
   19.0037   -2.7197  -16.2569 C   0  0  0  0  0  0  0  0  0  0  0  0
   18.9346   -1.4798  -16.1939 O   0  0  0  0  0  0  0  0  0  0  0  0
   22.1543   -5.0672  -14.3758 C   0  0  0  0  0  0  0  0  0  0  0  0
   22.9765   -3.9510  -14.2909 O   0  0  0  0  0  0  0  0  0  0  0  0
   17.8833   -3.4479  -16.5505 O   0  0  0  0  0  0  0  0  0  0  0  0
   21.9565   -5.6697  -13.2861 O   0  0  0  0  0  0  0  0  0  0  0  0
  2  1  1  0
  3  2  1  0
  4  3  2  0
  6  5  1  0
  7  6  1  6
  7  8  1  0
  8  3  1  0
  9 11  1  0
  9  7  1  0
 10  9  2  0
 12 17  1  0
 12 11  1  0
 13 14  1  0
 12 13  1  1
 14 15  1  0
 15 16  2  0
 17 18  1  0
 19 15  1  0
 20 17  2  0
M  END
$$$$
