CDD.pdb
     RDKit          3D

 23 22  0  0  1  0  0  0  0  0999 V2000
    5.2630  -13.7921   26.1105 N   0  0  0  0  0  0  0  0  0  0  0  0
    6.5561  -13.4360   25.5846 C   0  0  1  0  0  0  0  0  0  0  0  0
    7.3417  -12.6440   26.5962 C   0  0  0  0  0  0  0  0  0  0  0  0
    6.5303  -11.0138   26.7374 S   0  0  0  0  0  0  0  0  0  0  0  0
    7.2836  -14.5765   25.0202 C   0  0  0  0  0  0  0  0  0  0  0  0
    7.1166  -15.7215   25.5090 O   0  0  0  0  0  0  0  0  0  0  0  0
    8.1809  -14.4415   23.9305 N   0  0  0  0  0  0  0  0  0  0  0  0
    8.8659  -15.5843   23.4010 C   0  0  1  0  0  0  0  0  0  0  0  0
    9.4246  -15.3113   22.0082 C   0  0  0  0  0  0  0  0  0  0  0  0
   10.0633  -16.5126   21.4360 C   0  0  0  0  0  0  0  0  0  0  0  0
    9.5076  -17.6222   21.5679 O   0  0  0  0  0  0  0  0  0  0  0  0
    9.9411  -16.0749   24.3099 C   0  0  0  0  0  0  0  0  0  0  0  0
   10.7832  -15.2831   24.7713 O   0  0  0  0  0  0  0  0  0  0  0  0
   11.2569  -16.4055   20.7656 O   0  0  0  0  0  0  0  0  0  0  0  0
   10.0242  -17.4438   24.6634 N   0  0  0  0  0  0  0  0  0  0  0  0
   11.0409  -18.0002   25.5049 C   0  0  1  0  0  0  0  0  0  0  0  0
   10.4780  -19.1783   26.2550 C   0  0  0  0  0  0  0  0  0  0  0  0
   10.2336  -18.9279   27.6834 C   0  0  0  0  0  0  0  0  0  0  0  0
   10.6634  -17.8334   28.1722 O   0  0  0  0  0  0  0  0  0  0  0  0
   12.1762  -18.4317   24.6437 C   0  0  0  0  0  0  0  0  0  0  0  0
   13.3815  -18.7805   25.2334 O   0  0  0  0  0  0  0  0  0  0  0  0
    9.5731  -19.7831   28.5510 O   0  0  0  0  0  0  0  0  0  0  0  0
   12.0955  -18.4965   23.3919 O   0  0  0  0  0  0  0  0  0  0  0  0
  2  1  1  1
  2  3  1  0
  3  4  1  0
  5  2  1  0
  6  5  2  0
  7  5  1  0
  8  7  1  0
  8 12  1  0
  8  9  1  6
 10 14  1  0
 10  9  1  0
 11 10  2  0
 12 15  1  0
 13 12  2  0
 15 16  1  0
 16 17  1  6
 16 20  1  0
 18 22  1  0
 18 17  1  0
 19 18  2  0
 20 21  1  0
 23 20  2  0
M  END
$$$$
