CDD.pdb
     RDKit          3D

 23 22  0  0  1  0  0  0  0  0999 V2000
    6.9854  -15.3452   18.9077 N   0  0  0  0  0  0  0  0  0  0  0  0
    8.3786  -15.0081   18.7636 C   0  0  1  0  0  0  0  0  0  0  0  0
    8.6464  -13.6210   19.2853 C   0  0  0  0  0  0  0  0  0  0  0  0
    7.6760  -12.4702   18.2510 S   0  0  0  0  0  0  0  0  0  0  0  0
    9.2791  -16.0338   19.2980 C   0  0  0  0  0  0  0  0  0  0  0  0
    8.9878  -16.6152   20.3728 O   0  0  0  0  0  0  0  0  0  0  0  0
   10.4822  -16.4036   18.6451 N   0  0  0  0  0  0  0  0  0  0  0  0
   11.3203  -17.4342   19.1846 C   0  0  1  0  0  0  0  0  0  0  0  0
   12.0195  -18.2260   18.0842 C   0  0  0  0  0  0  0  0  0  0  0  0
   11.1035  -19.1920   17.4468 C   0  0  0  0  0  0  0  0  0  0  0  0
   10.2102  -19.7311   18.1315 O   0  0  0  0  0  0  0  0  0  0  0  0
   12.3143  -16.9058   20.1622 C   0  0  0  0  0  0  0  0  0  0  0  0
   13.1732  -16.0808   19.8007 O   0  0  0  0  0  0  0  0  0  0  0  0
   11.2365  -19.4911   16.1132 O   0  0  0  0  0  0  0  0  0  0  0  0
   12.3001  -17.3303   21.5133 N   0  0  0  0  0  0  0  0  0  0  0  0
   13.2706  -16.9416   22.4921 C   0  0  1  0  0  0  0  0  0  0  0  0
   12.8018  -17.3704   23.8572 C   0  0  0  0  0  0  0  0  0  0  0  0
   13.2658  -16.5104   24.9563 C   0  0  0  0  0  0  0  0  0  0  0  0
   14.1929  -15.6758   24.7009 O   0  0  0  0  0  0  0  0  0  0  0  0
   14.5620  -17.6035   22.1587 C   0  0  0  0  0  0  0  0  0  0  0  0
   15.7220  -16.8457   22.1149 O   0  0  0  0  0  0  0  0  0  0  0  0
   12.7809  -16.5279   26.2543 O   0  0  0  0  0  0  0  0  0  0  0  0
   14.6542  -18.8316   21.9118 O   0  0  0  0  0  0  0  0  0  0  0  0
  2  1  1  1
  2  3  1  0
  3  4  1  0
  5  2  1  0
  6  5  2  0
  7  5  1  0
  8  7  1  0
  8 12  1  0
  8  9  1  6
 10 14  1  0
 10  9  1  0
 11 10  2  0
 12 15  1  0
 13 12  2  0
 15 16  1  0
 16 17  1  1
 16 20  1  0
 18 22  1  0
 18 17  1  0
 19 18  2  0
 20 21  1  0
 23 20  2  0
M  END
$$$$
