CDD.pdb
     RDKit          3D

 23 22  0  0  1  0  0  0  0  0999 V2000
    8.3594  -14.5213   17.8414 N   0  0  0  0  0  0  0  0  0  0  0  0
    8.6004  -13.6344   18.9508 C   0  0  1  0  0  0  0  0  0  0  0  0
    7.3371  -12.9118   19.3378 C   0  0  0  0  0  0  0  0  0  0  0  0
    6.3424  -12.7337   17.8164 S   0  0  0  0  0  0  0  0  0  0  0  0
    9.2862  -14.2847   20.0712 C   0  0  0  0  0  0  0  0  0  0  0  0
    9.5137  -13.6333   21.1209 O   0  0  0  0  0  0  0  0  0  0  0  0
    9.7102  -15.6368   20.0210 N   0  0  0  0  0  0  0  0  0  0  0  0
   10.3908  -16.2319   21.1338 C   0  0  1  0  0  0  0  0  0  0  0  0
    9.7826  -17.5786   21.5120 C   0  0  0  0  0  0  0  0  0  0  0  0
   10.4951  -18.1946   22.6483 C   0  0  0  0  0  0  0  0  0  0  0  0
   10.5355  -17.5951   23.7422 O   0  0  0  0  0  0  0  0  0  0  0  0
   11.8569  -16.3668   20.8982 C   0  0  0  0  0  0  0  0  0  0  0  0
   12.2794  -17.0230   19.9289 O   0  0  0  0  0  0  0  0  0  0  0  0
   11.1057  -19.4154   22.4989 O   0  0  0  0  0  0  0  0  0  0  0  0
   12.7913  -15.7541   21.7685 N   0  0  0  0  0  0  0  0  0  0  0  0
   14.2078  -15.7485   21.5576 C   0  0  1  0  0  0  0  0  0  0  0  0
   14.6125  -14.4443   20.9231 C   0  0  0  0  0  0  0  0  0  0  0  0
   15.5214  -14.5839   19.7754 C   0  0  0  0  0  0  0  0  0  0  0  0
   15.8163  -15.7634   19.3967 O   0  0  0  0  0  0  0  0  0  0  0  0
   14.8778  -15.9097   22.8775 C   0  0  0  0  0  0  0  0  0  0  0  0
   16.2425  -16.1495   22.9215 O   0  0  0  0  0  0  0  0  0  0  0  0
   16.0899  -13.5389   19.0646 O   0  0  0  0  0  0  0  0  0  0  0  0
   14.2595  -15.8381   23.9685 O   0  0  0  0  0  0  0  0  0  0  0  0
  2  1  1  6
  2  3  1  0
  3  4  1  0
  5  2  1  0
  6  5  2  0
  7  5  1  0
  8  7  1  0
  8 12  1  0
  8  9  1  6
 10 14  1  0
 10  9  1  0
 11 10  2  0
 12 15  1  0
 13 12  2  0
 15 16  1  0
 16 17  1  1
 16 20  1  0
 18 22  1  0
 18 17  1  0
 19 18  2  0
 20 21  1  0
 23 20  2  0
M  END
$$$$
