CDD.pdb
     RDKit          3D

 23 22  0  0  1  0  0  0  0  0999 V2000
    6.5138  -14.0363   20.0513 N   0  0  0  0  0  0  0  0  0  0  0  0
    7.8723  -14.5123   19.9943 C   0  0  1  0  0  0  0  0  0  0  0  0
    8.8301  -13.4417   20.4464 C   0  0  0  0  0  0  0  0  0  0  0  0
    8.6759  -12.0597   19.2623 S   0  0  0  0  0  0  0  0  0  0  0  0
    8.0597  -15.8045   20.6605 C   0  0  0  0  0  0  0  0  0  0  0  0
    7.3666  -16.0881   21.6690 O   0  0  0  0  0  0  0  0  0  0  0  0
    9.0031  -16.7621   20.2095 N   0  0  0  0  0  0  0  0  0  0  0  0
    9.2059  -17.9849   20.9302 C   0  0  1  0  0  0  0  0  0  0  0  0
    9.4999  -19.1505   19.9914 C   0  0  0  0  0  0  0  0  0  0  0  0
    8.3503  -19.4412   19.1125 C   0  0  0  0  0  0  0  0  0  0  0  0
    7.2456  -19.7189   19.6224 O   0  0  0  0  0  0  0  0  0  0  0  0
   10.2714  -17.8649   21.9662 C   0  0  0  0  0  0  0  0  0  0  0  0
   11.4463  -17.6244   21.6336 O   0  0  0  0  0  0  0  0  0  0  0  0
    8.4995  -19.4048   17.7480 O   0  0  0  0  0  0  0  0  0  0  0  0
    9.9683  -18.0216   23.3408 N   0  0  0  0  0  0  0  0  0  0  0  0
   10.9412  -17.9860   24.3913 C   0  0  1  0  0  0  0  0  0  0  0  0
   10.3423  -17.3232   25.6034 C   0  0  0  0  0  0  0  0  0  0  0  0
   10.4481  -15.8563   25.6075 C   0  0  0  0  0  0  0  0  0  0  0  0
   11.0825  -15.3080   24.6492 O   0  0  0  0  0  0  0  0  0  0  0  0
   11.3357  -19.3857   24.7108 C   0  0  0  0  0  0  0  0  0  0  0  0
   12.3851  -19.6119   25.5881 O   0  0  0  0  0  0  0  0  0  0  0  0
    9.9156  -15.0116   26.5685 O   0  0  0  0  0  0  0  0  0  0  0  0
   10.7571  -20.3859   24.2184 O   0  0  0  0  0  0  0  0  0  0  0  0
  2  1  1  1
  2  3  1  0
  3  4  1  0
  5  2  1  0
  6  5  2  0
  7  5  1  0
  8  7  1  0
  8 12  1  0
  8  9  1  6
 10 14  1  0
 10  9  1  0
 11 10  2  0
 12 15  1  0
 13 12  2  0
 15 16  1  0
 16 17  1  1
 16 20  1  0
 18 22  1  0
 18 17  1  0
 19 18  2  0
 20 21  1  0
 23 20  2  0
M  END
$$$$
