CDD.pdb
     RDKit          3D

 23 22  0  0  1  0  0  0  0  0999 V2000
    8.5622  -14.9325   17.4835 N   0  0  0  0  0  0  0  0  0  0  0  0
    9.4339  -14.1853   18.3537 C   0  0  1  0  0  0  0  0  0  0  0  0
    8.6660  -13.6250   19.5217 C   0  0  0  0  0  0  0  0  0  0  0  0
    7.4389  -12.4582   18.8373 S   0  0  0  0  0  0  0  0  0  0  0  0
   10.6440  -14.9220   18.7298 C   0  0  0  0  0  0  0  0  0  0  0  0
   10.6083  -16.1754   18.8050 O   0  0  0  0  0  0  0  0  0  0  0  0
   11.8711  -14.2719   19.0165 N   0  0  0  0  0  0  0  0  0  0  0  0
   13.0115  -15.0222   19.4547 C   0  0  1  0  0  0  0  0  0  0  0  0
   14.3173  -14.3014   19.1352 C   0  0  0  0  0  0  0  0  0  0  0  0
   14.8355  -14.6831   17.8070 C   0  0  0  0  0  0  0  0  0  0  0  0
   14.6834  -13.9040   16.8441 O   0  0  0  0  0  0  0  0  0  0  0  0
   12.9439  -15.3661   20.9039 C   0  0  0  0  0  0  0  0  0  0  0  0
   12.6966  -14.4851   21.7475 O   0  0  0  0  0  0  0  0  0  0  0  0
   15.4785  -15.8845   17.6374 O   0  0  0  0  0  0  0  0  0  0  0  0
   13.1589  -16.6945   21.3455 N   0  0  0  0  0  0  0  0  0  0  0  0
   13.0642  -17.1168   22.7107 C   0  0  1  0  0  0  0  0  0  0  0  0
   12.6170  -18.5539   22.7584 C   0  0  0  0  0  0  0  0  0  0  0  0
   12.6135  -19.1441   24.1054 C   0  0  0  0  0  0  0  0  0  0  0  0
   12.2791  -18.3928   25.0777 O   0  0  0  0  0  0  0  0  0  0  0  0
   14.4064  -16.9732   23.3388 C   0  0  0  0  0  0  0  0  0  0  0  0
   15.4780  -16.5579   22.5635 O   0  0  0  0  0  0  0  0  0  0  0  0
   12.9445  -20.4541   24.4131 O   0  0  0  0  0  0  0  0  0  0  0  0
   14.6194  -17.2130   24.5533 O   0  0  0  0  0  0  0  0  0  0  0  0
  2  1  1  1
  2  3  1  0
  3  4  1  0
  5  2  1  0
  6  5  2  0
  7  5  1  0
  8  7  1  0
  8 12  1  0
  8  9  1  1
 10 14  1  0
 10  9  1  0
 11 10  2  0
 12 15  1  0
 13 12  2  0
 15 16  1  0
 16 17  1  6
 16 20  1  0
 18 22  1  0
 18 17  1  0
 19 18  2  0
 20 21  1  0
 23 20  2  0
M  END
$$$$
