CDD.pdb
     RDKit          3D

 23 22  0  0  1  0  0  0  0  0999 V2000
    6.0432  -14.1655   26.9242 N   0  0  0  0  0  0  0  0  0  0  0  0
    7.0971  -13.7220   26.0478 C   0  0  1  0  0  0  0  0  0  0  0  0
    8.2983  -13.2808   26.8418 C   0  0  0  0  0  0  0  0  0  0  0  0
    7.7909  -11.8073   27.7940 S   0  0  0  0  0  0  0  0  0  0  0  0
    7.4024  -14.6800   24.9812 C   0  0  0  0  0  0  0  0  0  0  0  0
    7.0470  -15.8785   25.1043 O   0  0  0  0  0  0  0  0  0  0  0  0
    8.0915  -14.3072   23.7994 N   0  0  0  0  0  0  0  0  0  0  0  0
    8.3321  -15.2649   22.7599 C   0  0  1  0  0  0  0  0  0  0  0  0
    8.4470  -14.5970   21.3935 C   0  0  0  0  0  0  0  0  0  0  0  0
    8.6617  -15.5892   20.3221 C   0  0  0  0  0  0  0  0  0  0  0  0
    9.8264  -15.9169   20.0165 O   0  0  0  0  0  0  0  0  0  0  0  0
    9.5291  -16.1112   23.0318 C   0  0  0  0  0  0  0  0  0  0  0  0
    9.7614  -17.1137   22.3318 O   0  0  0  0  0  0  0  0  0  0  0  0
    7.5874  -16.1438   19.6711 O   0  0  0  0  0  0  0  0  0  0  0  0
   10.4194  -15.7922   24.0860 N   0  0  0  0  0  0  0  0  0  0  0  0
   11.4652  -16.6544   24.5486 C   0  0  1  0  0  0  0  0  0  0  0  0
   12.7791  -15.9216   24.4883 C   0  0  0  0  0  0  0  0  0  0  0  0
   13.4205  -15.9331   23.1649 C   0  0  0  0  0  0  0  0  0  0  0  0
   14.5066  -15.2823   23.0302 O   0  0  0  0  0  0  0  0  0  0  0  0
   11.1591  -17.0501   25.9509 C   0  0  0  0  0  0  0  0  0  0  0  0
   11.9583  -17.9917   26.5806 O   0  0  0  0  0  0  0  0  0  0  0  0
   12.9444  -16.5933   22.0433 O   0  0  0  0  0  0  0  0  0  0  0  0
   10.1994  -16.5666   26.6011 O   0  0  0  0  0  0  0  0  0  0  0  0
  2  1  1  1
  2  3  1  0
  3  4  1  0
  5  2  1  0
  6  5  2  0
  7  5  1  0
  8  7  1  0
  8 12  1  0
  8  9  1  6
 10 14  1  0
 10  9  1  0
 11 10  2  0
 12 15  1  0
 13 12  2  0
 15 16  1  0
 16 17  1  1
 16 20  1  0
 18 22  1  0
 18 17  1  0
 19 18  2  0
 20 21  1  0
 23 20  2  0
M  END
$$$$
