CDD.pdb
     RDKit          3D

 23 22  0  0  1  0  0  0  0  0999 V2000
    9.5343  -16.6307   21.1510 N   0  0  0  0  0  0  0  0  0  0  0  0
    9.3438  -18.0551   21.2527 C   0  0  1  0  0  0  0  0  0  0  0  0
    8.0470  -18.4654   20.6063 C   0  0  0  0  0  0  0  0  0  0  0  0
    8.1764  -18.0292   18.8375 S   0  0  0  0  0  0  0  0  0  0  0  0
   10.5071  -18.8264   20.8051 C   0  0  0  0  0  0  0  0  0  0  0  0
   10.5107  -20.0756   20.9374 O   0  0  0  0  0  0  0  0  0  0  0  0
   11.6452  -18.2149   20.2207 N   0  0  0  0  0  0  0  0  0  0  0  0
   12.7014  -19.0119   19.6686 C   0  0  1  0  0  0  0  0  0  0  0  0
   12.8978  -18.7356   18.1814 C   0  0  0  0  0  0  0  0  0  0  0  0
   13.8323  -19.7007   17.5702 C   0  0  0  0  0  0  0  0  0  0  0  0
   14.1354  -20.7379   18.1946 O   0  0  0  0  0  0  0  0  0  0  0  0
   13.9860  -18.8446   20.4067 C   0  0  0  0  0  0  0  0  0  0  0  0
   14.9821  -19.5223   20.0950 O   0  0  0  0  0  0  0  0  0  0  0  0
   14.3602  -19.4558   16.3264 O   0  0  0  0  0  0  0  0  0  0  0  0
   14.0962  -17.9165   21.4708 N   0  0  0  0  0  0  0  0  0  0  0  0
   15.2524  -17.7775   22.3045 C   0  0  1  0  0  0  0  0  0  0  0  0
   15.7587  -16.3618   22.2232 C   0  0  0  0  0  0  0  0  0  0  0  0
   17.1062  -16.1662   22.7790 C   0  0  0  0  0  0  0  0  0  0  0  0
   17.9974  -17.0255   22.4812 O   0  0  0  0  0  0  0  0  0  0  0  0
   14.8625  -18.1063   23.7033 C   0  0  0  0  0  0  0  0  0  0  0  0
   15.8197  -18.5985   24.5772 O   0  0  0  0  0  0  0  0  0  0  0  0
   17.4950  -15.1229   23.6042 O   0  0  0  0  0  0  0  0  0  0  0  0
   13.6932  -17.9579   24.1374 O   0  0  0  0  0  0  0  0  0  0  0  0
  2  1  1  6
  2  3  1  0
  3  4  1  0
  5  2  1  0
  6  5  2  0
  7  5  1  0
  8  7  1  0
  8 12  1  0
  8  9  1  6
 10 14  1  0
 10  9  1  0
 11 10  2  0
 12 15  1  0
 13 12  2  0
 15 16  1  0
 16 17  1  1
 16 20  1  0
 18 22  1  0
 18 17  1  0
 19 18  2  0
 20 21  1  0
 23 20  2  0
M  END
$$$$
