CDD.pdb
     RDKit          3D

 23 22  0  0  1  0  0  0  0  0999 V2000
    8.1512  -14.2902   16.4204 N   0  0  0  0  0  0  0  0  0  0  0  0
    9.1361  -15.2230   16.9053 C   0  0  1  0  0  0  0  0  0  0  0  0
   10.0094  -15.7077   15.7782 C   0  0  0  0  0  0  0  0  0  0  0  0
    9.0788  -17.0208   14.9149 S   0  0  0  0  0  0  0  0  0  0  0  0
    9.8782  -14.7266   18.0678 C   0  0  0  0  0  0  0  0  0  0  0  0
   10.3505  -13.5628   18.0508 O   0  0  0  0  0  0  0  0  0  0  0  0
   10.0892  -15.5146   19.2277 N   0  0  0  0  0  0  0  0  0  0  0  0
   10.8530  -15.0053   20.3290 C   0  0  1  0  0  0  0  0  0  0  0  0
   10.1194  -15.1841   21.6543 C   0  0  0  0  0  0  0  0  0  0  0  0
    9.9672  -16.6107   22.0008 C   0  0  0  0  0  0  0  0  0  0  0  0
    9.2794  -17.3485   21.2659 O   0  0  0  0  0  0  0  0  0  0  0  0
   12.2170  -15.6031   20.4004 C   0  0  0  0  0  0  0  0  0  0  0  0
   12.3631  -16.8388   20.3754 O   0  0  0  0  0  0  0  0  0  0  0  0
   10.5785  -17.1168   23.1214 O   0  0  0  0  0  0  0  0  0  0  0  0
   13.3658  -14.7806   20.4976 N   0  0  0  0  0  0  0  0  0  0  0  0
   14.7079  -15.2742   20.5765 C   0  0  1  0  0  0  0  0  0  0  0  0
   15.6398  -14.2935   19.9155 C   0  0  0  0  0  0  0  0  0  0  0  0
   15.4544  -14.1650   18.4622 C   0  0  0  0  0  0  0  0  0  0  0  0
   15.3894  -15.2375   17.7788 O   0  0  0  0  0  0  0  0  0  0  0  0
   15.0633  -15.4352   22.0134 C   0  0  0  0  0  0  0  0  0  0  0  0
   14.1379  -15.0860   22.9850 O   0  0  0  0  0  0  0  0  0  0  0  0
   15.3439  -12.9723   17.7652 O   0  0  0  0  0  0  0  0  0  0  0  0
   16.1751  -15.8778   22.3948 O   0  0  0  0  0  0  0  0  0  0  0  0
  2  1  1  6
  2  3  1  0
  3  4  1  0
  5  2  1  0
  6  5  2  0
  7  5  1  0
  8  7  1  0
  8 12  1  0
  8  9  1  1
 10 14  1  0
 10  9  1  0
 11 10  2  0
 12 15  1  0
 13 12  2  0
 15 16  1  0
 16 17  1  1
 16 20  1  0
 18 22  1  0
 18 17  1  0
 19 18  2  0
 20 21  1  0
 23 20  2  0
M  END
$$$$
