CDD.pdb
     RDKit          3D

 23 22  0  0  1  0  0  0  0  0999 V2000
    7.0134  -15.3244   18.9293 N   0  0  0  0  0  0  0  0  0  0  0  0
    8.3278  -14.7892   19.1773 C   0  0  1  0  0  0  0  0  0  0  0  0
    8.2512  -13.5935   20.0897 C   0  0  0  0  0  0  0  0  0  0  0  0
    7.3979  -12.2728   19.1605 S   0  0  0  0  0  0  0  0  0  0  0  0
    9.2945  -15.8060   19.6015 C   0  0  0  0  0  0  0  0  0  0  0  0
    8.8998  -16.7996   20.2610 O   0  0  0  0  0  0  0  0  0  0  0  0
   10.6761  -15.7155   19.2954 N   0  0  0  0  0  0  0  0  0  0  0  0
   11.5971  -16.7062   19.7706 C   0  0  1  0  0  0  0  0  0  0  0  0
   12.7052  -16.9775   18.7582 C   0  0  0  0  0  0  0  0  0  0  0  0
   13.5727  -18.0908   19.1903 C   0  0  0  0  0  0  0  0  0  0  0  0
   14.8111  -17.9763   19.0877 O   0  0  0  0  0  0  0  0  0  0  0  0
   12.1756  -16.3548   21.0991 C   0  0  0  0  0  0  0  0  0  0  0  0
   12.7135  -15.2467   21.2764 O   0  0  0  0  0  0  0  0  0  0  0  0
   13.0180  -19.2390   19.6998 O   0  0  0  0  0  0  0  0  0  0  0  0
   12.1243  -17.2705   22.1783 N   0  0  0  0  0  0  0  0  0  0  0  0
   12.5351  -16.9657   23.5161 C   0  0  1  0  0  0  0  0  0  0  0  0
   12.0278  -18.0331   24.4491 C   0  0  0  0  0  0  0  0  0  0  0  0
   11.5427  -17.5283   25.7424 C   0  0  0  0  0  0  0  0  0  0  0  0
   11.6977  -16.2883   25.9872 O   0  0  0  0  0  0  0  0  0  0  0  0
   14.0229  -16.9167   23.5487 C   0  0  0  0  0  0  0  0  0  0  0  0
   14.7483  -18.0077   23.0954 O   0  0  0  0  0  0  0  0  0  0  0  0
   10.9282  -18.2873   26.7257 O   0  0  0  0  0  0  0  0  0  0  0  0
   14.6626  -15.9222   23.9723 O   0  0  0  0  0  0  0  0  0  0  0  0
  2  1  1  1
  2  3  1  0
  3  4  1  0
  5  2  1  0
  6  5  2  0
  7  5  1  0
  8  7  1  0
  8 12  1  0
  8  9  1  6
 10 14  1  0
 10  9  1  0
 11 10  2  0
 12 15  1  0
 13 12  2  0
 15 16  1  0
 16 17  1  1
 16 20  1  0
 18 22  1  0
 18 17  1  0
 19 18  2  0
 20 21  1  0
 23 20  2  0
M  END
$$$$
