CDD.pdb
     RDKit          3D

 23 22  0  0  1  0  0  0  0  0999 V2000
    5.5837  -14.0917   25.8180 N   0  0  0  0  0  0  0  0  0  0  0  0
    6.8068  -13.6312   25.2118 C   0  0  1  0  0  0  0  0  0  0  0  0
    7.5435  -12.7026   26.1407 C   0  0  0  0  0  0  0  0  0  0  0  0
    6.4176  -11.3098   26.4989 S   0  0  0  0  0  0  0  0  0  0  0  0
    7.6297  -14.7187   24.6744 C   0  0  0  0  0  0  0  0  0  0  0  0
    7.4113  -15.9003   25.0404 O   0  0  0  0  0  0  0  0  0  0  0  0
    8.6769  -14.4914   23.7458 N   0  0  0  0  0  0  0  0  0  0  0  0
    9.3270  -15.5901   23.0931 C   0  0  1  0  0  0  0  0  0  0  0  0
    9.8652  -15.1928   21.7222 C   0  0  0  0  0  0  0  0  0  0  0  0
   10.5247  -16.3290   21.0495 C   0  0  0  0  0  0  0  0  0  0  0  0
    9.9614  -17.4425   21.0361 O   0  0  0  0  0  0  0  0  0  0  0  0
   10.4082  -16.1885   23.9271 C   0  0  0  0  0  0  0  0  0  0  0  0
   11.0923  -17.1304   23.4869 O   0  0  0  0  0  0  0  0  0  0  0  0
   11.7459  -16.1577   20.4454 O   0  0  0  0  0  0  0  0  0  0  0  0
   10.6756  -15.6994   25.2291 N   0  0  0  0  0  0  0  0  0  0  0  0
   11.6600  -16.2496   26.1120 C   0  0  1  0  0  0  0  0  0  0  0  0
   11.0085  -16.6162   27.4190 C   0  0  0  0  0  0  0  0  0  0  0  0
   10.5806  -15.4649   28.2279 C   0  0  0  0  0  0  0  0  0  0  0  0
   10.8349  -14.3010   27.7782 O   0  0  0  0  0  0  0  0  0  0  0  0
   12.2415  -17.4596   25.4682 C   0  0  0  0  0  0  0  0  0  0  0  0
   11.4259  -18.5512   25.2129 O   0  0  0  0  0  0  0  0  0  0  0  0
    9.9212  -15.5343   29.4448 O   0  0  0  0  0  0  0  0  0  0  0  0
   13.4511  -17.5420   25.1401 O   0  0  0  0  0  0  0  0  0  0  0  0
  2  1  1  1
  2  3  1  0
  3  4  1  0
  5  2  1  0
  6  5  2  0
  7  5  1  0
  8  7  1  0
  8 12  1  0
  8  9  1  6
 10 14  1  0
 10  9  1  0
 11 10  2  0
 12 15  1  0
 13 12  2  0
 15 16  1  0
 16 17  1  1
 16 20  1  0
 18 22  1  0
 18 17  1  0
 19 18  2  0
 20 21  1  0
 23 20  2  0
M  END
$$$$
