CDD.pdb
     RDKit          3D

 23 22  0  0  1  0  0  0  0  0999 V2000
    6.3691  -13.8746   20.2143 N   0  0  0  0  0  0  0  0  0  0  0  0
    7.7234  -14.2006   19.8469 C   0  0  1  0  0  0  0  0  0  0  0  0
    8.3419  -13.0824   19.0501 C   0  0  0  0  0  0  0  0  0  0  0  0
   10.0037  -13.6480   18.5462 S   0  0  0  0  0  0  0  0  0  0  0  0
    8.5368  -14.6500   20.9806 C   0  0  0  0  0  0  0  0  0  0  0  0
    8.6568  -13.9106   21.9889 O   0  0  0  0  0  0  0  0  0  0  0  0
    9.2037  -15.9013   20.9885 N   0  0  0  0  0  0  0  0  0  0  0  0
   10.1412  -16.2239   22.0242 C   0  0  1  0  0  0  0  0  0  0  0  0
    9.7380  -17.4885   22.7757 C   0  0  0  0  0  0  0  0  0  0  0  0
    8.3743  -17.3777   23.3294 C   0  0  0  0  0  0  0  0  0  0  0  0
    8.0620  -16.3645   23.9877 O   0  0  0  0  0  0  0  0  0  0  0  0
   11.5367  -16.3411   21.5123 C   0  0  0  0  0  0  0  0  0  0  0  0
   11.7908  -17.0832   20.5461 O   0  0  0  0  0  0  0  0  0  0  0  0
    7.4615  -18.3818   23.1193 O   0  0  0  0  0  0  0  0  0  0  0  0
   12.5936  -15.6144   22.1128 N   0  0  0  0  0  0  0  0  0  0  0  0
   13.9746  -15.7597   21.7624 C   0  0  1  0  0  0  0  0  0  0  0  0
   14.7804  -14.6945   22.4575 C   0  0  0  0  0  0  0  0  0  0  0  0
   16.1427  -14.5231   21.9306 C   0  0  0  0  0  0  0  0  0  0  0  0
   16.4477  -15.1546   20.8677 O   0  0  0  0  0  0  0  0  0  0  0  0
   14.4265  -17.1115   22.1928 C   0  0  0  0  0  0  0  0  0  0  0  0
   13.8765  -17.6809   23.3309 O   0  0  0  0  0  0  0  0  0  0  0  0
   17.1312  -13.7305   22.4920 O   0  0  0  0  0  0  0  0  0  0  0  0
   15.2934  -17.7711   21.5674 O   0  0  0  0  0  0  0  0  0  0  0  0
  2  1  1  1
  2  3  1  0
  3  4  1  0
  5  2  1  0
  6  5  2  0
  7  5  1  0
  8  7  1  0
  8 12  1  0
  8  9  1  6
 10 14  1  0
 10  9  1  0
 11 10  2  0
 12 15  1  0
 13 12  2  0
 15 16  1  0
 16 17  1  1
 16 20  1  0
 18 22  1  0
 18 17  1  0
 19 18  2  0
 20 21  1  0
 23 20  2  0
M  END
$$$$
