CDD.pdb
     RDKit          3D

 23 22  0  0  1  0  0  0  0  0999 V2000
    6.4952  -13.9239   20.0127 N   0  0  0  0  0  0  0  0  0  0  0  0
    7.8308  -14.3454   19.6752 C   0  0  1  0  0  0  0  0  0  0  0  0
    8.6786  -13.1633   19.2857 C   0  0  0  0  0  0  0  0  0  0  0  0
    7.9959  -12.5155   17.7204 S   0  0  0  0  0  0  0  0  0  0  0  0
    8.4377  -15.2093   20.6920 C   0  0  0  0  0  0  0  0  0  0  0  0
    8.1844  -15.0100   21.9060 O   0  0  0  0  0  0  0  0  0  0  0  0
    9.3111  -16.2759   20.3598 N   0  0  0  0  0  0  0  0  0  0  0  0
    9.8258  -17.1441   21.3781 C   0  0  1  0  0  0  0  0  0  0  0  0
    9.4572  -18.6008   21.1161 C   0  0  0  0  0  0  0  0  0  0  0  0
    9.7457  -19.4514   22.2873 C   0  0  0  0  0  0  0  0  0  0  0  0
   10.5749  -19.0635   23.1354 O   0  0  0  0  0  0  0  0  0  0  0  0
   11.2989  -17.0004   21.5573 C   0  0  0  0  0  0  0  0  0  0  0  0
   12.0287  -16.7492   20.5810 O   0  0  0  0  0  0  0  0  0  0  0  0
    9.1053  -20.6567   22.4382 O   0  0  0  0  0  0  0  0  0  0  0  0
   11.8924  -17.1464   22.8349 N   0  0  0  0  0  0  0  0  0  0  0  0
   13.3001  -17.0647   23.0854 C   0  0  1  0  0  0  0  0  0  0  0  0
   13.8099  -15.7216   22.6346 C   0  0  0  0  0  0  0  0  0  0  0  0
   15.1480  -15.7535   22.0253 C   0  0  0  0  0  0  0  0  0  0  0  0
   15.3830  -16.6628   21.1654 O   0  0  0  0  0  0  0  0  0  0  0  0
   13.5259  -17.2381   24.5469 C   0  0  0  0  0  0  0  0  0  0  0  0
   14.7821  -17.6098   25.0005 O   0  0  0  0  0  0  0  0  0  0  0  0
   16.1835  -14.8763   22.3059 O   0  0  0  0  0  0  0  0  0  0  0  0
   12.6223  -17.0618   25.4014 O   0  0  0  0  0  0  0  0  0  0  0  0
  2  1  1  1
  2  3  1  0
  3  4  1  0
  5  2  1  0
  6  5  2  0
  7  5  1  0
  8  7  1  0
  8 12  1  0
  8  9  1  6
 10 14  1  0
 10  9  1  0
 11 10  2  0
 12 15  1  0
 13 12  2  0
 15 16  1  0
 16 17  1  1
 16 20  1  0
 18 22  1  0
 18 17  1  0
 19 18  2  0
 20 21  1  0
 23 20  2  0
M  END
$$$$
