CDD.pdb
     RDKit          3D

 23 22  0  0  1  0  0  0  0  0999 V2000
    6.4756  -15.3276   19.6229 N   0  0  0  0  0  0  0  0  0  0  0  0
    7.4663  -14.9301   20.5904 C   0  0  1  0  0  0  0  0  0  0  0  0
    6.8129  -14.3002   21.7921 C   0  0  0  0  0  0  0  0  0  0  0  0
    8.1549  -13.8309   22.9387 S   0  0  0  0  0  0  0  0  0  0  0  0
    8.4166  -15.9978   20.9154 C   0  0  0  0  0  0  0  0  0  0  0  0
    7.9884  -17.1465   21.1892 O   0  0  0  0  0  0  0  0  0  0  0  0
    9.8187  -15.7872   20.9346 N   0  0  0  0  0  0  0  0  0  0  0  0
   10.7148  -16.8577   21.2610 C   0  0  1  0  0  0  0  0  0  0  0  0
   11.9101  -16.9008   20.3144 C   0  0  0  0  0  0  0  0  0  0  0  0
   12.7627  -18.0777   20.5721 C   0  0  0  0  0  0  0  0  0  0  0  0
   12.2293  -19.1656   20.8711 O   0  0  0  0  0  0  0  0  0  0  0  0
   11.1714  -16.8053   22.6793 C   0  0  0  0  0  0  0  0  0  0  0  0
   11.7909  -15.8127   23.1033 O   0  0  0  0  0  0  0  0  0  0  0  0
   14.1289  -17.9720   20.4821 O   0  0  0  0  0  0  0  0  0  0  0  0
   10.9102  -17.8783   23.5661 N   0  0  0  0  0  0  0  0  0  0  0  0
   11.3217  -17.9108   24.9375 C   0  0  1  0  0  0  0  0  0  0  0  0
   10.2254  -18.5171   25.7730 C   0  0  0  0  0  0  0  0  0  0  0  0
   10.2380  -18.1028   27.1840 C   0  0  0  0  0  0  0  0  0  0  0  0
   11.2126  -17.3849   27.5793 O   0  0  0  0  0  0  0  0  0  0  0  0
   12.5592  -18.7330   25.0351 C   0  0  0  0  0  0  0  0  0  0  0  0
   13.0931  -19.2954   23.8859 O   0  0  0  0  0  0  0  0  0  0  0  0
    9.2771  -18.4268   28.1286 O   0  0  0  0  0  0  0  0  0  0  0  0
   13.1519  -18.9455   26.1219 O   0  0  0  0  0  0  0  0  0  0  0  0
  2  1  1  6
  2  3  1  0
  3  4  1  0
  5  2  1  0
  6  5  2  0
  7  5  1  0
  8  7  1  0
  8 12  1  0
  8  9  1  6
 10 14  1  0
 10  9  1  0
 11 10  2  0
 12 15  1  0
 13 12  2  0
 15 16  1  0
 16 17  1  1
 16 20  1  0
 18 22  1  0
 18 17  1  0
 19 18  2  0
 20 21  1  0
 23 20  2  0
M  END
$$$$
