CDD.pdb
     RDKit          3D

 23 22  0  0  1  0  0  0  0  0999 V2000
    7.9426  -14.5253   18.0494 N   0  0  0  0  0  0  0  0  0  0  0  0
    9.1232  -13.7231   18.2442 C   0  0  1  0  0  0  0  0  0  0  0  0
    8.9121  -12.7275   19.3542 C   0  0  0  0  0  0  0  0  0  0  0  0
    7.1820  -12.1558   19.2301 S   0  0  0  0  0  0  0  0  0  0  0  0
   10.3466  -14.5195   18.3779 C   0  0  0  0  0  0  0  0  0  0  0  0
   10.2898  -15.7682   18.2541 O   0  0  0  0  0  0  0  0  0  0  0  0
   11.6096  -13.9330   18.6449 N   0  0  0  0  0  0  0  0  0  0  0  0
   12.7867  -14.7453   18.7460 C   0  0  1  0  0  0  0  0  0  0  0  0
   13.7609  -14.4707   17.6049 C   0  0  0  0  0  0  0  0  0  0  0  0
   13.4380  -15.2767   16.4114 C   0  0  0  0  0  0  0  0  0  0  0  0
   12.9424  -14.7176   15.4117 O   0  0  0  0  0  0  0  0  0  0  0  0
   13.4683  -14.5981   20.0638 C   0  0  0  0  0  0  0  0  0  0  0  0
   13.9360  -13.4977   20.4093 O   0  0  0  0  0  0  0  0  0  0  0  0
   13.6824  -16.6279   16.4054 O   0  0  0  0  0  0  0  0  0  0  0  0
   13.5960  -15.7016   20.9423 N   0  0  0  0  0  0  0  0  0  0  0  0
   14.2510  -15.6490   22.2148 C   0  0  1  0  0  0  0  0  0  0  0  0
   13.7649  -16.7864   23.0735 C   0  0  0  0  0  0  0  0  0  0  0  0
   14.3930  -16.8559   24.4014 C   0  0  0  0  0  0  0  0  0  0  0  0
   13.6946  -17.3179   25.3607 O   0  0  0  0  0  0  0  0  0  0  0  0
   15.7185  -15.7628   21.9905 C   0  0  0  0  0  0  0  0  0  0  0  0
   16.1838  -16.4064   20.8541 O   0  0  0  0  0  0  0  0  0  0  0  0
   15.6862  -16.4602   24.7041 O   0  0  0  0  0  0  0  0  0  0  0  0
   16.5680  -15.2982   22.7906 O   0  0  0  0  0  0  0  0  0  0  0  0
  2  1  1  1
  2  3  1  0
  3  4  1  0
  5  2  1  0
  6  5  2  0
  7  5  1  0
  8  7  1  0
  8 12  1  0
  8  9  1  6
 10 14  1  0
 10  9  1  0
 11 10  2  0
 12 15  1  0
 13 12  2  0
 15 16  1  0
 16 17  1  1
 16 20  1  0
 18 22  1  0
 18 17  1  0
 19 18  2  0
 20 21  1  0
 23 20  2  0
M  END
$$$$
