CDD.pdb
     RDKit          3D

 23 22  0  0  1  0  0  0  0  0999 V2000
    7.4341  -13.7738   18.2952 N   0  0  0  0  0  0  0  0  0  0  0  0
    8.6721  -13.1815   18.7333 C   0  0  1  0  0  0  0  0  0  0  0  0
    8.4622  -12.3803   19.9911 C   0  0  0  0  0  0  0  0  0  0  0  0
    7.9978  -13.5648   21.3014 S   0  0  0  0  0  0  0  0  0  0  0  0
    9.7758  -14.1428   18.8120 C   0  0  0  0  0  0  0  0  0  0  0  0
    9.5304  -15.3737   18.7622 O   0  0  0  0  0  0  0  0  0  0  0  0
   11.1283  -13.7378   18.9440 N   0  0  0  0  0  0  0  0  0  0  0  0
   12.1799  -14.7100   19.0111 C   0  0  1  0  0  0  0  0  0  0  0  0
   13.2340  -14.4756   17.9339 C   0  0  0  0  0  0  0  0  0  0  0  0
   14.3338  -15.4552   18.0302 C   0  0  0  0  0  0  0  0  0  0  0  0
   14.0660  -16.6573   18.2322 O   0  0  0  0  0  0  0  0  0  0  0  0
   12.8132  -14.7711   20.3595 C   0  0  0  0  0  0  0  0  0  0  0  0
   13.4805  -13.8102   20.7839 O   0  0  0  0  0  0  0  0  0  0  0  0
   15.6371  -15.0435   17.8979 O   0  0  0  0  0  0  0  0  0  0  0  0
   12.6683  -15.9177   21.1782 N   0  0  0  0  0  0  0  0  0  0  0  0
   13.1705  -16.0237   22.5153 C   0  0  1  0  0  0  0  0  0  0  0  0
   12.2620  -16.9149   23.3201 C   0  0  0  0  0  0  0  0  0  0  0  0
   12.5989  -16.9931   24.7495 C   0  0  0  0  0  0  0  0  0  0  0  0
   13.6557  -16.3995   25.1397 O   0  0  0  0  0  0  0  0  0  0  0  0
   14.5408  -16.6030   22.4556 C   0  0  0  0  0  0  0  0  0  0  0  0
   15.5563  -16.0228   23.2000 O   0  0  0  0  0  0  0  0  0  0  0  0
   11.8639  -17.6604   25.7164 O   0  0  0  0  0  0  0  0  0  0  0  0
   14.8267  -17.6053   21.7546 O   0  0  0  0  0  0  0  0  0  0  0  0
  2  1  1  1
  2  3  1  0
  3  4  1  0
  5  2  1  0
  6  5  2  0
  7  5  1  0
  8  7  1  0
  8 12  1  0
  8  9  1  6
 10 14  1  0
 10  9  1  0
 11 10  2  0
 12 15  1  0
 13 12  2  0
 15 16  1  0
 16 17  1  1
 16 20  1  0
 18 22  1  0
 18 17  1  0
 19 18  2  0
 20 21  1  0
 23 20  2  0
M  END
$$$$
