RRT.pdb
     RDKit          3D

 30 29  0  0  1  0  0  0  0  0999 V2000
   26.2442  -17.9531  -20.1399 N   0  0  0  0  0  0  0  0  0  0  0  0
   26.5819  -19.0064  -21.0444 C   0  0  0  0  0  0  0  0  0  0  0  0
   27.3878  -18.8079  -22.0264 N   0  0  0  0  0  0  0  0  0  0  0  0
   26.0388  -20.3037  -20.8864 N   0  0  0  0  0  0  0  0  0  0  0  0
   25.1539  -20.5817  -19.8005 C   0  0  0  0  0  0  0  0  0  0  0  0
   25.6880  -21.5222  -18.7864 C   0  0  0  0  0  0  0  0  0  0  0  0
   26.2142  -20.7679  -17.5983 C   0  0  0  0  0  0  0  0  0  0  0  0
   26.7736  -21.6717  -16.5615 C   0  0  2  0  0  0  0  0  0  0  0  0
   26.9903  -22.9792  -17.1262 N   0  0  0  0  0  0  0  0  0  0  0  0
   25.8725  -21.8129  -15.3812 C   0  0  0  0  0  0  0  0  0  0  0  0
   24.9696  -22.6790  -15.4442 O   0  0  0  0  0  0  0  0  0  0  0  0
   27.5904  -19.5694  -22.6917 N   0  0  0  0  0  0  0  0  0  0  0  0
   24.0825  -21.1466   -7.4212 C   0  0  0  0  0  0  0  0  0  0  0  0
   25.4600  -20.8499   -7.6141 N   0  0  0  0  0  0  0  0  0  0  0  0
   26.3311  -21.2357   -6.7508 N   0  0  0  0  0  0  0  0  0  0  0  0
   25.9383  -20.1339   -8.7384 C   0  0  0  0  0  0  0  0  0  0  0  0
   25.0004  -19.5063   -9.6265 C   0  0  0  0  0  0  0  0  0  0  0  0
   24.5540  -20.3725  -10.7427 C   0  0  0  0  0  0  0  0  0  0  0  0
   25.4290  -20.3837  -11.9425 C   0  0  2  0  0  0  0  0  0  0  0  0
   24.9963  -21.1271  -13.1412 N   0  0  0  0  0  0  0  0  0  0  0  0
   25.9896  -21.0341  -14.2255 C   0  0  0  0  0  0  0  0  0  0  0  0
   23.6458  -20.8648  -13.6615 O   0  0  0  0  0  0  0  0  0  0  0  0
   23.3511  -19.7001  -14.1081 C   0  0  0  0  0  0  0  0  0  0  0  0
   27.3171  -20.9302   -6.8754 C   0  0  2  0  0  0  0  0  0  0  0  0
   21.5031  -22.4593  -16.3646 O   0  0  0  0  0  0  0  0  0  0  0  0
   20.7241  -22.4982  -15.0676 C   0  0  1  0  0  0  0  0  0  0  0  0
   20.8329  -23.7505  -14.4616 N   0  0  0  0  0  0  0  0  0  0  0  0
   21.2328  -21.4165  -14.1142 C   0  0  0  0  0  0  0  0  0  0  0  0
   22.5888  -21.8085  -13.7266 O   0  0  0  0  0  0  0  0  0  0  0  0
   20.3270  -21.2341  -12.9781 O   0  0  0  0  0  0  0  0  0  0  0  0
  2  3  2  0
  2  1  1  0
  4  2  1  0
  5  4  1  0
  6  5  1  0
  7  6  1  0
  8  7  1  0
  8  9  1  6
 10  8  1  0
 11 10  2  0
 13 12  1  0
 14 13  2  0
 15 13  1  0
 16 15  1  0
 17 16  1  0
 17 18  1  0
 19 18  1  1
 19 21  1  0
 19 20  1  0
 20 10  1  0
 21 22  2  0
 24 23  1  1
 24 26  1  0
 25 24  1  0
 26 28  1  0
 26 27  1  6
 27 21  1  0
 28 29  2  0
 28 30  1  0
M  END
$$$$
