RRT.pdb
     RDKit          3D

 30 29  0  0  1  0  0  0  0  0999 V2000
   29.9764  -17.9626  -19.6425 N   0  0  0  0  0  0  0  0  0  0  0  0
   28.8776  -17.5724  -18.8167 C   0  0  0  0  0  0  0  0  0  0  0  0
   28.3849  -16.3865  -18.8808 N   0  0  0  0  0  0  0  0  0  0  0  0
   28.2962  -18.4816  -17.9012 N   0  0  0  0  0  0  0  0  0  0  0  0
   28.8597  -19.7824  -17.7289 C   0  0  0  0  0  0  0  0  0  0  0  0
   28.3205  -20.8209  -18.6392 C   0  0  0  0  0  0  0  0  0  0  0  0
   27.2061  -21.5756  -17.9712 C   0  0  0  0  0  0  0  0  0  0  0  0
   27.6642  -22.2951  -16.7558 C   0  0  2  0  0  0  0  0  0  0  0  0
   27.8847  -23.6835  -17.0706 N   0  0  0  0  0  0  0  0  0  0  0  0
   26.6769  -22.2172  -15.6404 C   0  0  0  0  0  0  0  0  0  0  0  0
   25.9046  -23.1909  -15.4834 O   0  0  0  0  0  0  0  0  0  0  0  0
   27.6234  -16.1073  -18.2437 N   0  0  0  0  0  0  0  0  0  0  0  0
   25.6987  -20.6153   -8.0821 C   0  0  0  0  0  0  0  0  0  0  0  0
   24.3226  -20.8545   -8.3503 N   0  0  0  0  0  0  0  0  0  0  0  0
   23.4297  -20.5301   -7.4841 N   0  0  0  0  0  0  0  0  0  0  0  0
   23.8694  -21.4457   -9.5548 C   0  0  0  0  0  0  0  0  0  0  0  0
   24.8027  -21.6797  -10.6208 C   0  0  0  0  0  0  0  0  0  0  0  0
   25.3621  -20.4431  -11.2151 C   0  0  0  0  0  0  0  0  0  0  0  0
   26.2192  -20.6316  -12.4132 C   0  0  1  0  0  0  0  0  0  0  0  0
   25.6079  -21.1154  -13.6658 N   0  0  0  0  0  0  0  0  0  0  0  0
   26.5773  -21.1228  -14.7754 C   0  0  0  0  0  0  0  0  0  0  0  0
   24.3437  -20.4988  -14.0958 O   0  0  0  0  0  0  0  0  0  0  0  0
   24.3096  -19.2496  -14.3807 C   0  0  0  0  0  0  0  0  0  0  0  0
   22.4327  -20.7214   -7.7090 C   0  0  2  0  0  0  0  0  0  0  0  0
   22.1790  -20.9795  -16.9789 O   0  0  0  0  0  0  0  0  0  0  0  0
   21.2685  -21.1460  -15.7814 C   0  0  2  0  0  0  0  0  0  0  0  0
   21.0607  -22.4970  -15.5009 N   0  0  0  0  0  0  0  0  0  0  0  0
   21.8710  -20.4510  -14.5601 C   0  0  0  0  0  0  0  0  0  0  0  0
   23.1033  -21.1722  -14.2374 O   0  0  0  0  0  0  0  0  0  0  0  0
   20.9167  -20.3937  -13.4507 O   0  0  0  0  0  0  0  0  0  0  0  0
  2  3  2  0
  2  1  1  0
  4  2  1  0
  5  4  1  0
  6  5  1  0
  7  6  1  0
  8  7  1  0
  8  9  1  6
 10  8  1  0
 11 10  2  0
 13 12  1  0
 14 13  2  0
 15 13  1  0
 16 15  1  0
 17 16  1  0
 17 18  1  0
 19 18  1  1
 19 21  1  0
 19 20  1  0
 20 10  1  0
 21 22  2  0
 24 23  1  1
 24 26  1  0
 25 24  1  0
 26 28  1  0
 26 27  1  6
 27 21  1  0
 28 29  2  0
 28 30  1  0
M  END
$$$$
