RRT.pdb
     RDKit          3D

 30 29  0  0  1  0  0  0  0  0999 V2000
   27.3402  -15.3569  -20.2959 N   0  0  0  0  0  0  0  0  0  0  0  0
   25.9919  -15.8041  -20.4501 C   0  0  0  0  0  0  0  0  0  0  0  0
   25.6337  -16.4992  -21.4707 N   0  0  0  0  0  0  0  0  0  0  0  0
   25.0074  -15.4953  -19.4815 N   0  0  0  0  0  0  0  0  0  0  0  0
   24.8072  -16.3608  -18.3633 C   0  0  0  0  0  0  0  0  0  0  0  0
   23.8919  -17.5001  -18.6129 C   0  0  0  0  0  0  0  0  0  0  0  0
   23.6624  -18.2748  -17.3462 C   0  0  0  0  0  0  0  0  0  0  0  0
   24.8912  -18.9649  -16.8790 C   0  0  2  0  0  0  0  0  0  0  0  0
   25.4247  -19.7754  -17.9438 N   0  0  0  0  0  0  0  0  0  0  0  0
   24.6390  -19.8438  -15.7005 C   0  0  0  0  0  0  0  0  0  0  0  0
   24.0299  -20.9198  -15.9021 O   0  0  0  0  0  0  0  0  0  0  0  0
   24.6504  -16.7908  -21.5788 N   0  0  0  0  0  0  0  0  0  0  0  0
   28.7110  -21.9595   -8.6059 C   0  0  0  0  0  0  0  0  0  0  0  0
   28.6524  -21.2799   -9.8539 N   0  0  0  0  0  0  0  0  0  0  0  0
   29.5656  -21.4727  -10.7380 N   0  0  0  0  0  0  0  0  0  0  0  0
   27.6121  -20.3781  -10.1859 C   0  0  0  0  0  0  0  0  0  0  0  0
   26.2737  -20.6507   -9.7427 C   0  0  0  0  0  0  0  0  0  0  0  0
   25.3132  -20.9012  -10.8427 C   0  0  0  0  0  0  0  0  0  0  0  0
   25.5729  -20.1678  -12.1077 C   0  0  1  0  0  0  0  0  0  0  0  0
   24.6692  -20.3721  -13.2559 N   0  0  0  0  0  0  0  0  0  0  0  0
   25.0467  -19.5253  -14.4011 C   0  0  0  0  0  0  0  0  0  0  0  0
   23.2210  -20.2877  -13.0134 O   0  0  0  0  0  0  0  0  0  0  0  0
   22.6868  -19.1555  -12.7385 C   0  0  0  0  0  0  0  0  0  0  0  0
   29.5164  -20.9302  -11.6236 C   0  0  2  0  0  0  0  0  0  0  0  0
   20.2644  -21.9428  -15.1478 O   0  0  0  0  0  0  0  0  0  0  0  0
   20.1717  -22.2654  -13.6720 C   0  0  1  0  0  0  0  0  0  0  0  0
   20.7405  -23.5103  -13.4001 N   0  0  0  0  0  0  0  0  0  0  0  0
   20.8756  -21.1847  -12.8507 C   0  0  0  0  0  0  0  0  0  0  0  0
   22.3121  -21.3760  -13.0568 O   0  0  0  0  0  0  0  0  0  0  0  0
   20.4728  -21.2333  -11.4435 O   0  0  0  0  0  0  0  0  0  0  0  0
  2  3  2  0
  2  1  1  0
  4  2  1  0
  5  4  1  0
  6  5  1  0
  7  6  1  0
  8  7  1  0
  8  9  1  6
 10  8  1  0
 11 10  2  0
 13 12  1  0
 14 13  2  0
 15 13  1  0
 16 15  1  0
 17 16  1  0
 17 18  1  0
 19 18  1  6
 19 21  1  0
 19 20  1  0
 20 10  1  0
 21 22  2  0
 24 23  1  6
 24 26  1  0
 25 24  1  0
 26 28  1  0
 26 27  1  6
 27 21  1  0
 28 29  2  0
 28 30  1  0
M  END
$$$$
