RRT.pdb
     RDKit          3D

 30 29  0  0  1  0  0  0  0  0999 V2000
   29.7786  -17.9869  -18.7501 N   0  0  0  0  0  0  0  0  0  0  0  0
   29.5463  -16.5776  -18.7078 C   0  0  0  0  0  0  0  0  0  0  0  0
   30.3069  -15.7582  -19.3428 N   0  0  0  0  0  0  0  0  0  0  0  0
   28.4691  -16.0395  -17.9642 N   0  0  0  0  0  0  0  0  0  0  0  0
   27.6401  -16.8990  -17.1810 C   0  0  0  0  0  0  0  0  0  0  0  0
   26.9525  -17.9676  -17.9449 C   0  0  0  0  0  0  0  0  0  0  0  0
   26.0180  -18.7322  -17.0508 C   0  0  0  0  0  0  0  0  0  0  0  0
   26.7273  -19.7508  -16.2360 C   0  0  2  0  0  0  0  0  0  0  0  0
   27.2738  -20.7656  -17.1001 N   0  0  0  0  0  0  0  0  0  0  0  0
   25.8319  -20.4115  -15.2427 C   0  0  0  0  0  0  0  0  0  0  0  0
   25.0240  -21.2671  -15.6725 O   0  0  0  0  0  0  0  0  0  0  0  0
   30.1520  -14.7416  -19.2642 N   0  0  0  0  0  0  0  0  0  0  0  0
   22.1815  -19.9151   -8.9754 C   0  0  0  0  0  0  0  0  0  0  0  0
   22.6497  -20.9138   -8.0774 N   0  0  0  0  0  0  0  0  0  0  0  0
   21.8469  -21.4428   -7.2239 N   0  0  0  0  0  0  0  0  0  0  0  0
   23.9899  -21.3715   -8.0736 C   0  0  0  0  0  0  0  0  0  0  0  0
   24.8976  -20.9054   -9.0840 C   0  0  0  0  0  0  0  0  0  0  0  0
   24.3939  -21.0662  -10.4681 C   0  0  0  0  0  0  0  0  0  0  0  0
   25.2899  -20.5714  -11.5441 C   0  0  1  0  0  0  0  0  0  0  0  0
   24.8797  -20.7321  -12.9522 N   0  0  0  0  0  0  0  0  0  0  0  0
   25.8544  -20.1233  -13.8744 C   0  0  0  0  0  0  0  0  0  0  0  0
   23.5120  -20.3343  -13.3186 O   0  0  0  0  0  0  0  0  0  0  0  0
   23.2156  -19.0912  -13.4166 C   0  0  0  0  0  0  0  0  0  0  0  0
   22.2291  -22.1416   -6.5556 C   0  0  1  0  0  0  0  0  0  0  0  0
   19.1107  -21.3371  -15.3094 O   0  0  0  0  0  0  0  0  0  0  0  0
   20.5370  -21.7094  -14.9667 C   0  0  2  0  0  0  0  0  0  0  0  0
   21.3369  -21.7123  -16.1102 N   0  0  0  0  0  0  0  0  0  0  0  0
   21.1058  -20.7294  -13.9402 C   0  0  0  0  0  0  0  0  0  0  0  0
   22.4391  -21.2217  -13.5901 O   0  0  0  0  0  0  0  0  0  0  0  0
   20.2135  -20.5814  -12.7885 O   0  0  0  0  0  0  0  0  0  0  0  0
  2  3  2  0
  2  1  1  0
  4  2  1  0
  5  4  1  0
  6  5  1  0
  7  6  1  0
  8  7  1  0
  8  9  1  6
 10  8  1  0
 11 10  2  0
 13 12  1  0
 14 13  2  0
 15 13  1  0
 16 15  1  0
 17 16  1  0
 17 18  1  0
 19 18  1  6
 19 21  1  0
 19 20  1  0
 20 10  1  0
 21 22  2  0
 24 23  1  6
 24 26  1  0
 25 24  1  0
 26 28  1  0
 26 27  1  6
 27 21  1  0
 28 29  2  0
 28 30  1  0
M  END
$$$$
