RRT.pdb
     RDKit          3D

 30 29  0  0  1  0  0  0  0  0999 V2000
   27.9200  -23.6430  -16.8645 N   0  0  0  0  0  0  0  0  0  0  0  0
   26.7977  -23.4397  -17.7252 C   0  0  0  0  0  0  0  0  0  0  0  0
   26.7111  -24.0397  -18.8591 N   0  0  0  0  0  0  0  0  0  0  0  0
   25.7444  -22.5702  -17.3549 N   0  0  0  0  0  0  0  0  0  0  0  0
   25.7274  -21.9797  -16.0546 C   0  0  0  0  0  0  0  0  0  0  0  0
   24.3871  -21.8934  -15.4267 C   0  0  0  0  0  0  0  0  0  0  0  0
   23.4418  -21.1322  -16.3125 C   0  0  0  0  0  0  0  0  0  0  0  0
   23.1190  -19.7893  -15.7674 C   0  0  2  0  0  0  0  0  0  0  0  0
   24.0709  -19.4420  -14.7433 N   0  0  0  0  0  0  0  0  0  0  0  0
   21.7504  -19.7269  -15.1775 C   0  0  0  0  0  0  0  0  0  0  0  0
   21.6571  -19.7663  -13.9289 O   0  0  0  0  0  0  0  0  0  0  0  0
   25.9003  -23.8703  -19.4736 N   0  0  0  0  0  0  0  0  0  0  0  0
   17.4171  -14.6874  -16.2544 C   0  0  0  0  0  0  0  0  0  0  0  0
   16.5849  -15.5933  -16.9682 N   0  0  0  0  0  0  0  0  0  0  0  0
   16.4564  -15.4851  -18.2428 N   0  0  0  0  0  0  0  0  0  0  0  0
   15.8712  -16.6390  -16.3336 C   0  0  0  0  0  0  0  0  0  0  0  0
   16.5242  -17.4304  -15.3288 C   0  0  0  0  0  0  0  0  0  0  0  0
   16.8539  -18.8073  -15.7654 C   0  0  0  0  0  0  0  0  0  0  0  0
   18.2428  -19.0181  -16.2470 C   0  0  2  0  0  0  0  0  0  0  0  0
   19.2608  -19.5249  -15.3070 N   0  0  0  0  0  0  0  0  0  0  0  0
   20.5852  -19.6271  -15.9445 C   0  0  0  0  0  0  0  0  0  0  0  0
   18.9556  -20.7561  -14.5626 O   0  0  0  0  0  0  0  0  0  0  0  0
   19.3278  -21.8905  -15.0290 C   0  0  0  0  0  0  0  0  0  0  0  0
   15.8628  -16.1798  -18.7389 C   0  0  1  0  0  0  0  0  0  0  0  0
   16.2349  -21.0312  -11.2983 O   0  0  0  0  0  0  0  0  0  0  0  0
   17.5679  -21.7441  -11.2241 C   0  0  1  0  0  0  0  0  0  0  0  0
   17.4668  -22.9054  -10.4570 N   0  0  0  0  0  0  0  0  0  0  0  0
   18.0579  -22.0938  -12.6295 C   0  0  0  0  0  0  0  0  0  0  0  0
   18.2642  -20.8228  -13.3258 O   0  0  0  0  0  0  0  0  0  0  0  0
   17.1267  -22.9936  -13.3136 O   0  0  0  0  0  0  0  0  0  0  0  0
  2  3  2  0
  2  1  1  0
  4  2  1  0
  5  4  1  0
  6  5  1  0
  7  6  1  0
  8  7  1  0
  8  9  1  1
 10  8  1  0
 11 10  2  0
 13 12  1  0
 14 13  2  0
 15 13  1  0
 16 15  1  0
 17 16  1  0
 17 18  1  0
 19 18  1  1
 19 21  1  0
 19 20  1  0
 20 10  1  0
 21 22  2  0
 24 23  1  6
 24 26  1  0
 25 24  1  0
 26 28  1  0
 26 27  1  1
 27 21  1  0
 28 29  2  0
 28 30  1  0
M  END
$$$$
