RRT.pdb
     RDKit          3D

 30 29  0  0  1  0  0  0  0  0999 V2000
   25.2639  -27.3713  -15.9987 N   0  0  0  0  0  0  0  0  0  0  0  0
   26.2228  -26.3123  -15.9706 C   0  0  0  0  0  0  0  0  0  0  0  0
   27.4746  -26.5426  -16.1529 N   0  0  0  0  0  0  0  0  0  0  0  0
   25.8230  -24.9743  -15.7412 N   0  0  0  0  0  0  0  0  0  0  0  0
   24.4674  -24.6807  -15.4011 C   0  0  0  0  0  0  0  0  0  0  0  0
   23.9251  -25.4664  -14.2668 C   0  0  0  0  0  0  0  0  0  0  0  0
   22.5081  -25.8805  -14.5465 C   0  0  0  0  0  0  0  0  0  0  0  0
   21.5977  -24.7151  -14.6790 C   0  0  2  0  0  0  0  0  0  0  0  0
   22.2954  -23.5119  -14.3036 N   0  0  0  0  0  0  0  0  0  0  0  0
   20.3824  -24.8402  -13.8233 C   0  0  0  0  0  0  0  0  0  0  0  0
   19.5777  -25.7614  -14.0939 O   0  0  0  0  0  0  0  0  0  0  0  0
   28.1360  -25.7577  -16.2524 N   0  0  0  0  0  0  0  0  0  0  0  0
   16.0544  -25.3156   -7.2913 C   0  0  0  0  0  0  0  0  0  0  0  0
   17.4002  -25.7331   -7.0982 N   0  0  0  0  0  0  0  0  0  0  0  0
   17.6521  -26.8661   -6.5452 N   0  0  0  0  0  0  0  0  0  0  0  0
   18.5095  -24.9472   -7.4950 C   0  0  0  0  0  0  0  0  0  0  0  0
   18.2852  -23.7030   -8.1759 C   0  0  0  0  0  0  0  0  0  0  0  0
   17.9467  -23.8528   -9.6105 C   0  0  0  0  0  0  0  0  0  0  0  0
   19.0966  -24.0501  -10.5293 C   0  0  1  0  0  0  0  0  0  0  0  0
   18.8533  -24.1110  -11.9832 N   0  0  0  0  0  0  0  0  0  0  0  0
   20.1062  -23.9885  -12.7489 C   0  0  0  0  0  0  0  0  0  0  0  0
   17.8225  -23.2246  -12.5446 O   0  0  0  0  0  0  0  0  0  0  0  0
   18.0609  -21.9716  -12.6708 C   0  0  0  0  0  0  0  0  0  0  0  0
   18.6457  -27.1551   -6.4445 C   0  0  1  0  0  0  0  0  0  0  0  0
   13.4443  -22.5755  -14.8229 O   0  0  0  0  0  0  0  0  0  0  0  0
   14.4482  -23.4907  -14.1556 C   0  0  2  0  0  0  0  0  0  0  0  0
   14.9841  -24.3930  -15.0753 N   0  0  0  0  0  0  0  0  0  0  0  0
   15.5715  -22.6690  -13.5225 C   0  0  0  0  0  0  0  0  0  0  0  0
   16.5358  -23.6294  -12.9836 O   0  0  0  0  0  0  0  0  0  0  0  0
   15.0531  -21.7333  -12.5223 O   0  0  0  0  0  0  0  0  0  0  0  0
  2  3  2  0
  2  1  1  0
  4  2  1  0
  5  4  1  0
  6  5  1  0
  7  6  1  0
  8  7  1  0
  8  9  1  1
 10  8  1  0
 11 10  2  0
 13 12  1  0
 14 13  2  0
 15 13  1  0
 16 15  1  0
 17 16  1  0
 17 18  1  0
 19 18  1  1
 19 21  1  0
 19 20  1  0
 20 10  1  0
 21 22  2  0
 24 23  1  6
 24 26  1  0
 25 24  1  0
 26 28  1  0
 26 27  1  6
 27 21  1  0
 28 29  2  0
 28 30  1  0
M  END
$$$$
