RRT.pdb
     RDKit          3D

 30 29  0  0  1  0  0  0  0  0999 V2000
   20.3001  -13.7060  -17.9027 N   0  0  0  0  0  0  0  0  0  0  0  0
   20.9113  -14.6367  -18.7982 C   0  0  0  0  0  0  0  0  0  0  0  0
   20.7050  -14.5745  -20.0658 N   0  0  0  0  0  0  0  0  0  0  0  0
   21.7649  -15.6574  -18.3163 N   0  0  0  0  0  0  0  0  0  0  0  0
   21.8872  -15.8843  -16.9117 C   0  0  0  0  0  0  0  0  0  0  0  0
   20.9600  -16.9021  -16.3617 C   0  0  0  0  0  0  0  0  0  0  0  0
   21.7207  -17.9358  -15.5804 C   0  0  0  0  0  0  0  0  0  0  0  0
   22.5301  -18.8196  -16.4570 C   0  0  2  0  0  0  0  0  0  0  0  0
   21.6651  -19.7507  -17.1353 N   0  0  0  0  0  0  0  0  0  0  0  0
   23.5523  -19.5958  -15.6970 C   0  0  0  0  0  0  0  0  0  0  0  0
   23.1476  -20.5493  -14.9926 O   0  0  0  0  0  0  0  0  0  0  0  0
   21.0824  -15.3053  -20.6880 N   0  0  0  0  0  0  0  0  0  0  0  0
   29.9435  -24.3327  -16.3181 C   0  0  0  0  0  0  0  0  0  0  0  0
   29.3762  -23.3039  -17.1197 N   0  0  0  0  0  0  0  0  0  0  0  0
   29.2817  -23.4550  -18.3929 N   0  0  0  0  0  0  0  0  0  0  0  0
   28.8943  -22.0883  -16.5760 C   0  0  0  0  0  0  0  0  0  0  0  0
   28.8516  -21.9208  -15.1504 C   0  0  0  0  0  0  0  0  0  0  0  0
   28.3737  -20.5881  -14.7136 C   0  0  0  0  0  0  0  0  0  0  0  0
   27.2416  -20.0206  -15.4893 C   0  0  1  0  0  0  0  0  0  0  0  0
   25.8811  -20.0762  -14.9213 N   0  0  0  0  0  0  0  0  0  0  0  0
   24.9210  -19.3110  -15.7360 C   0  0  0  0  0  0  0  0  0  0  0  0
   25.7179  -19.7483  -13.4968 O   0  0  0  0  0  0  0  0  0  0  0  0
   25.9324  -18.5518  -13.0906 C   0  0  0  0  0  0  0  0  0  0  0  0
   28.8632  -22.6838  -18.9509 C   0  0  2  0  0  0  0  0  0  0  0  0
   22.9034  -20.1710  -10.9484 O   0  0  0  0  0  0  0  0  0  0  0  0
   24.1335  -20.8705  -10.4114 C   0  0  1  0  0  0  0  0  0  0  0  0
   24.0642  -22.2444  -10.6457 N   0  0  0  0  0  0  0  0  0  0  0  0
   25.3925  -20.2976  -11.0628 C   0  0  0  0  0  0  0  0  0  0  0  0
   25.3275  -20.6574  -12.4802 O   0  0  0  0  0  0  0  0  0  0  0  0
   26.6056  -20.7703  -10.3921 O   0  0  0  0  0  0  0  0  0  0  0  0
  2  3  2  0
  2  1  1  0
  4  2  1  0
  5  4  1  0
  6  5  1  0
  7  6  1  0
  8  7  1  0
  8  9  1  1
 10  8  1  0
 11 10  2  0
 13 12  1  0
 14 13  2  0
 15 13  1  0
 16 15  1  0
 17 16  1  0
 17 18  1  0
 19 18  1  6
 19 21  1  0
 19 20  1  0
 20 10  1  0
 21 22  2  0
 24 23  1  6
 24 26  1  0
 25 24  1  0
 26 28  1  0
 26 27  1  6
 27 21  1  0
 28 29  2  0
 28 30  1  0
M  END
$$$$
