RRT.pdb
     RDKit          3D

 30 29  0  0  1  0  0  0  0  0999 V2000
   20.5730  -24.0483  -15.2702 N   0  0  0  0  0  0  0  0  0  0  0  0
   20.0125  -24.5079  -16.5016 C   0  0  0  0  0  0  0  0  0  0  0  0
   18.7494  -24.4285  -16.7288 N   0  0  0  0  0  0  0  0  0  0  0  0
   20.8324  -25.0654  -17.5114 N   0  0  0  0  0  0  0  0  0  0  0  0
   22.1731  -25.4547  -17.2109 C   0  0  0  0  0  0  0  0  0  0  0  0
   23.2200  -24.5616  -17.7628 C   0  0  0  0  0  0  0  0  0  0  0  0
   24.4465  -25.3518  -18.1218 C   0  0  0  0  0  0  0  0  0  0  0  0
   25.1432  -25.8837  -16.9234 C   0  0  2  0  0  0  0  0  0  0  0  0
   25.6237  -24.7897  -16.1186 N   0  0  0  0  0  0  0  0  0  0  0  0
   26.3033  -26.7524  -17.2764 C   0  0  0  0  0  0  0  0  0  0  0  0
   26.0743  -27.7653  -17.9772 O   0  0  0  0  0  0  0  0  0  0  0  0
   18.3626  -24.7634  -17.6242 N   0  0  0  0  0  0  0  0  0  0  0  0
   34.0881  -26.8925  -19.2655 C   0  0  0  0  0  0  0  0  0  0  0  0
   33.8060  -28.2837  -19.1774 N   0  0  0  0  0  0  0  0  0  0  0  0
   34.7673  -29.1365  -19.1371 N   0  0  0  0  0  0  0  0  0  0  0  0
   32.4863  -28.7952  -19.1283 C   0  0  0  0  0  0  0  0  0  0  0  0
   31.3896  -27.8972  -18.8979 C   0  0  0  0  0  0  0  0  0  0  0  0
   31.2649  -27.4454  -17.4924 C   0  0  0  0  0  0  0  0  0  0  0  0
   30.0272  -26.6942  -17.1619 C   0  0  1  0  0  0  0  0  0  0  0  0
   28.7242  -27.3806  -17.2499 N   0  0  0  0  0  0  0  0  0  0  0  0
   27.6145  -26.4900  -16.8669 C   0  0  0  0  0  0  0  0  0  0  0  0
   28.5878  -28.6834  -16.5811 O   0  0  0  0  0  0  0  0  0  0  0  0
   28.6808  -28.7564  -15.3049 C   0  0  0  0  0  0  0  0  0  0  0  0
   34.5277  -30.1470  -19.0871 C   0  0  2  0  0  0  0  0  0  0  0  0
   25.9044  -31.0860  -16.0323 O   0  0  0  0  0  0  0  0  0  0  0  0
   26.9990  -31.8452  -16.7509 C   0  0  2  0  0  0  0  0  0  0  0  0
   26.7514  -31.8910  -18.1234 N   0  0  0  0  0  0  0  0  0  0  0  0
   28.3546  -31.1873  -16.4917 C   0  0  0  0  0  0  0  0  0  0  0  0
   28.3506  -29.9228  -17.2291 O   0  0  0  0  0  0  0  0  0  0  0  0
   29.4601  -32.0760  -16.8561 O   0  0  0  0  0  0  0  0  0  0  0  0
  2  3  2  0
  2  1  1  0
  4  2  1  0
  5  4  1  0
  6  5  1  0
  7  6  1  0
  8  7  1  0
  8  9  1  1
 10  8  1  0
 11 10  2  0
 13 12  1  0
 14 13  2  0
 15 13  1  0
 16 15  1  0
 17 16  1  0
 17 18  1  0
 19 18  1  6
 19 21  1  0
 19 20  1  0
 20 10  1  0
 21 22  2  0
 24 23  1  6
 24 26  1  0
 25 24  1  0
 26 28  1  0
 26 27  1  6
 27 21  1  0
 28 29  2  0
 28 30  1  0
M  END
$$$$
