RRT.pdb
     RDKit          3D

 30 29  0  0  1  0  0  0  0  0999 V2000
   28.0255  -26.4320  -16.2135 N   0  0  0  0  0  0  0  0  0  0  0  0
   26.8720  -26.2059  -17.0259 C   0  0  0  0  0  0  0  0  0  0  0  0
   25.8071  -26.9117  -16.8812 N   0  0  0  0  0  0  0  0  0  0  0  0
   26.8662  -25.1953  -18.0166 N   0  0  0  0  0  0  0  0  0  0  0  0
   27.7805  -24.1017  -17.9287 C   0  0  0  0  0  0  0  0  0  0  0  0
   28.4674  -23.9670  -16.6218 C   0  0  0  0  0  0  0  0  0  0  0  0
   28.8932  -22.5436  -16.3981 C   0  0  0  0  0  0  0  0  0  0  0  0
   27.9712  -21.5735  -17.0411 C   0  0  2  0  0  0  0  0  0  0  0  0
   28.7158  -20.7101  -17.9217 N   0  0  0  0  0  0  0  0  0  0  0  0
   27.2527  -20.7243  -16.0472 C   0  0  0  0  0  0  0  0  0  0  0  0
   27.8603  -19.7276  -15.5925 O   0  0  0  0  0  0  0  0  0  0  0  0
   24.9821  -26.7309  -17.4731 N   0  0  0  0  0  0  0  0  0  0  0  0
   24.0211  -16.6566  -19.3894 C   0  0  0  0  0  0  0  0  0  0  0  0
   23.0985  -17.6826  -19.0447 N   0  0  0  0  0  0  0  0  0  0  0  0
   22.4283  -18.2838  -19.9624 N   0  0  0  0  0  0  0  0  0  0  0  0
   22.8728  -18.0910  -17.7075 C   0  0  0  0  0  0  0  0  0  0  0  0
   23.5236  -17.3902  -16.6363 C   0  0  0  0  0  0  0  0  0  0  0  0
   24.6415  -18.1395  -16.0165 C   0  0  0  0  0  0  0  0  0  0  0  0
   24.2537  -19.2925  -15.1648 C   0  0  2  0  0  0  0  0  0  0  0  0
   25.3088  -20.1446  -14.5840 N   0  0  0  0  0  0  0  0  0  0  0  0
   25.9512  -20.9871  -15.6081 C   0  0  0  0  0  0  0  0  0  0  0  0
   24.9680  -20.9491  -13.4007 O   0  0  0  0  0  0  0  0  0  0  0  0
   24.1669  -21.9429  -13.5162 C   0  0  0  0  0  0  0  0  0  0  0  0
   21.7408  -19.0091  -19.6754 C   0  0  2  0  0  0  0  0  0  0  0  0
   26.0183  -19.5609   -9.6019 O   0  0  0  0  0  0  0  0  0  0  0  0
   25.6970  -21.0351   -9.7201 C   0  0  1  0  0  0  0  0  0  0  0  0
   25.0944  -21.5062   -8.5529 N   0  0  0  0  0  0  0  0  0  0  0  0
   24.7734  -21.2795  -10.9138 C   0  0  0  0  0  0  0  0  0  0  0  0
   25.4571  -20.7327  -12.0869 O   0  0  0  0  0  0  0  0  0  0  0  0
   23.4442  -20.7074  -10.6892 O   0  0  0  0  0  0  0  0  0  0  0  0
  2  3  2  0
  2  1  1  0
  4  2  1  0
  5  4  1  0
  6  5  1  0
  7  6  1  0
  8  7  1  0
  8  9  1  6
 10  8  1  0
 11 10  2  0
 13 12  1  0
 14 13  2  0
 15 13  1  0
 16 15  1  0
 17 16  1  0
 17 18  1  0
 19 18  1  6
 19 21  1  0
 19 20  1  0
 20 10  1  0
 21 22  2  0
 24 23  1  1
 24 26  1  0
 25 24  1  0
 26 28  1  0
 26 27  1  6
 27 21  1  0
 28 29  2  0
 28 30  1  0
M  END
$$$$
