RRT.pdb
     RDKit          3D

 30 29  0  0  1  0  0  0  0  0999 V2000
   25.0527  -16.6422  -20.0545 N   0  0  0  0  0  0  0  0  0  0  0  0
   25.5071  -16.5620  -18.7021 C   0  0  0  0  0  0  0  0  0  0  0  0
   25.5698  -15.4348  -18.0866 N   0  0  0  0  0  0  0  0  0  0  0  0
   25.9025  -17.7235  -17.9970 N   0  0  0  0  0  0  0  0  0  0  0  0
   25.7894  -19.0074  -18.6121 C   0  0  0  0  0  0  0  0  0  0  0  0
   26.1921  -20.1473  -17.7539 C   0  0  0  0  0  0  0  0  0  0  0  0
   27.6614  -20.0786  -17.4473 C   0  0  0  0  0  0  0  0  0  0  0  0
   28.1285  -21.2528  -16.6678 C   0  0  2  0  0  0  0  0  0  0  0  0
   27.9456  -22.4521  -17.4447 N   0  0  0  0  0  0  0  0  0  0  0  0
   27.3941  -21.4110  -15.3791 C   0  0  0  0  0  0  0  0  0  0  0  0
   26.3842  -22.1523  -15.3770 O   0  0  0  0  0  0  0  0  0  0  0  0
   25.8720  -15.3994  -17.1012 N   0  0  0  0  0  0  0  0  0  0  0  0
   30.4837  -22.3977   -7.7915 C   0  0  0  0  0  0  0  0  0  0  0  0
   31.3129  -22.5312   -8.9393 N   0  0  0  0  0  0  0  0  0  0  0  0
   32.3091  -23.3437   -8.9256 N   0  0  0  0  0  0  0  0  0  0  0  0
   31.0936  -21.7983  -10.1311 C   0  0  0  0  0  0  0  0  0  0  0  0
   29.8680  -21.0681  -10.2949 C   0  0  0  0  0  0  0  0  0  0  0  0
   29.0546  -21.5067  -11.4530 C   0  0  0  0  0  0  0  0  0  0  0  0
   27.8607  -20.6771  -11.7563 C   0  0  2  0  0  0  0  0  0  0  0  0
   27.0387  -21.0042  -12.9370 N   0  0  0  0  0  0  0  0  0  0  0  0
   27.7773  -20.7789  -14.1919 C   0  0  0  0  0  0  0  0  0  0  0  0
   25.6942  -20.4142  -13.0224 O   0  0  0  0  0  0  0  0  0  0  0  0
   25.5632  -19.1576  -13.2382 C   0  0  0  0  0  0  0  0  0  0  0  0
   32.9318  -23.3740   -9.7577 C   0  0  2  0  0  0  0  0  0  0  0  0
   22.7948  -21.0528  -15.2373 O   0  0  0  0  0  0  0  0  0  0  0  0
   22.2651  -21.1708  -13.8244 C   0  0  1  0  0  0  0  0  0  0  0  0
   22.1596  -22.5095  -13.4449 N   0  0  0  0  0  0  0  0  0  0  0  0
   23.1835  -20.4288  -12.8531 C   0  0  0  0  0  0  0  0  0  0  0  0
   24.4722  -21.1221  -12.8880 O   0  0  0  0  0  0  0  0  0  0  0  0
   22.5957  -20.3492  -11.5141 O   0  0  0  0  0  0  0  0  0  0  0  0
  2  3  2  0
  2  1  1  0
  4  2  1  0
  5  4  1  0
  6  5  1  0
  7  6  1  0
  8  7  1  0
  8  9  1  6
 10  8  1  0
 11 10  2  0
 13 12  1  0
 14 13  2  0
 15 13  1  0
 16 15  1  0
 17 16  1  0
 17 18  1  0
 19 18  1  1
 19 21  1  0
 19 20  1  0
 20 10  1  0
 21 22  2  0
 24 23  1  6
 24 26  1  0
 25 24  1  0
 26 28  1  0
 26 27  1  6
 27 21  1  0
 28 29  2  0
 28 30  1  0
M  END
$$$$
