RRT.pdb
     RDKit          3D

 30 29  0  0  1  0  0  0  0  0999 V2000
   29.6093  -19.1657  -17.7712 N   0  0  0  0  0  0  0  0  0  0  0  0
   28.5946  -18.1713  -17.6191 C   0  0  0  0  0  0  0  0  0  0  0  0
   28.4543  -17.2263  -18.4796 N   0  0  0  0  0  0  0  0  0  0  0  0
   27.7105  -18.1964  -16.5143 N   0  0  0  0  0  0  0  0  0  0  0  0
   27.8356  -19.2145  -15.5206 C   0  0  0  0  0  0  0  0  0  0  0  0
   27.3342  -20.5487  -15.9287 C   0  0  0  0  0  0  0  0  0  0  0  0
   25.8441  -20.6249  -15.7513 C   0  0  0  0  0  0  0  0  0  0  0  0
   25.4627  -21.2988  -14.4844 C   0  0  2  0  0  0  0  0  0  0  0  0
   25.9197  -22.6648  -14.5072 N   0  0  0  0  0  0  0  0  0  0  0  0
   23.9879  -21.3003  -14.2604 C   0  0  0  0  0  0  0  0  0  0  0  0
   23.2773  -21.9052  -15.0961 O   0  0  0  0  0  0  0  0  0  0  0  0
   27.7248  -16.5095  -18.3467 N   0  0  0  0  0  0  0  0  0  0  0  0
   21.0664  -23.2063   -7.5092 C   0  0  0  0  0  0  0  0  0  0  0  0
   20.1897  -22.3555   -8.2375 N   0  0  0  0  0  0  0  0  0  0  0  0
   18.9190  -22.5455   -8.1915 N   0  0  0  0  0  0  0  0  0  0  0  0
   20.6534  -21.2786   -9.0316 C   0  0  0  0  0  0  0  0  0  0  0  0
   19.7205  -20.5461   -9.8413 C   0  0  0  0  0  0  0  0  0  0  0  0
   20.0505  -20.5398  -11.2857 C   0  0  0  0  0  0  0  0  0  0  0  0
   21.4967  -20.5934  -11.6191 C   0  0  1  0  0  0  0  0  0  0  0  0
   21.9066  -20.6501  -13.0352 N   0  0  0  0  0  0  0  0  0  0  0  0
   23.3733  -20.6670  -13.1755 C   0  0  0  0  0  0  0  0  0  0  0  0
   21.3160  -19.6713  -13.9607 O   0  0  0  0  0  0  0  0  0  0  0  0
   21.5689  -18.4235  -13.8137 C   0  0  0  0  0  0  0  0  0  0  0  0
   18.3119  -21.9680   -8.8070 C   0  0  2  0  0  0  0  0  0  0  0  0
   21.4845  -19.4017  -17.7448 O   0  0  0  0  0  0  0  0  0  0  0  0
   20.0270  -19.4028  -17.3372 C   0  0  1  0  0  0  0  0  0  0  0  0
   19.4756  -20.6775  -17.4720 N   0  0  0  0  0  0  0  0  0  0  0  0
   19.8834  -18.9275  -15.8911 C   0  0  0  0  0  0  0  0  0  0  0  0
   20.4599  -19.9774  -15.0496 O   0  0  0  0  0  0  0  0  0  0  0  0
   18.4905  -18.6131  -15.5659 O   0  0  0  0  0  0  0  0  0  0  0  0
  2  3  2  0
  2  1  1  0
  4  2  1  0
  5  4  1  0
  6  5  1  0
  7  6  1  0
  8  7  1  0
  8  9  1  6
 10  8  1  0
 11 10  2  0
 13 12  1  0
 14 13  2  0
 15 13  1  0
 16 15  1  0
 17 16  1  0
 17 18  1  0
 19 18  1  1
 19 21  1  0
 19 20  1  0
 20 10  1  0
 21 22  2  0
 24 23  1  6
 24 26  1  0
 25 24  1  0
 26 28  1  0
 26 27  1  1
 27 21  1  0
 28 29  2  0
 28 30  1  0
M  END
$$$$
