RRT.pdb
     RDKit          3D

 30 29  0  0  1  0  0  0  0  0999 V2000
   30.4553  -22.3747   -8.5909 N   0  0  0  0  0  0  0  0  0  0  0  0
   31.2386  -21.9303   -9.7003 C   0  0  0  0  0  0  0  0  0  0  0  0
   32.4765  -22.2584   -9.8152 N   0  0  0  0  0  0  0  0  0  0  0  0
   30.6742  -21.1140  -10.7092 N   0  0  0  0  0  0  0  0  0  0  0  0
   29.3655  -21.3940  -11.2075 C   0  0  0  0  0  0  0  0  0  0  0  0
   28.9189  -20.5148  -12.3146 C   0  0  0  0  0  0  0  0  0  0  0  0
   27.6612  -21.0530  -12.9361 C   0  0  0  0  0  0  0  0  0  0  0  0
   26.4502  -20.6925  -12.1564 C   0  0  2  0  0  0  0  0  0  0  0  0
   26.4080  -21.4684  -10.9433 N   0  0  0  0  0  0  0  0  0  0  0  0
   25.1894  -20.9373  -12.9150 C   0  0  0  0  0  0  0  0  0  0  0  0
   24.6259  -22.0449  -12.7570 O   0  0  0  0  0  0  0  0  0  0  0  0
   33.0440  -21.8749  -10.5862 N   0  0  0  0  0  0  0  0  0  0  0  0
   18.6504  -19.6070  -14.5117 C   0  0  0  0  0  0  0  0  0  0  0  0
   18.4199  -18.5374  -15.4204 N   0  0  0  0  0  0  0  0  0  0  0  0
   17.3388  -17.8459  -15.3435 N   0  0  0  0  0  0  0  0  0  0  0  0
   19.3438  -18.1812  -16.4329 C   0  0  0  0  0  0  0  0  0  0  0  0
   20.7276  -18.0015  -16.0940 C   0  0  0  0  0  0  0  0  0  0  0  0
   21.4397  -19.2616  -15.7774 C   0  0  0  0  0  0  0  0  0  0  0  0
   22.6583  -19.1231  -14.9400 C   0  0  1  0  0  0  0  0  0  0  0  0
   23.4260  -20.3311  -14.5821 N   0  0  0  0  0  0  0  0  0  0  0  0
   24.6171  -19.9995  -13.7805 C   0  0  0  0  0  0  0  0  0  0  0  0
   23.7805  -21.2645  -15.6621 O   0  0  0  0  0  0  0  0  0  0  0  0
   24.6571  -20.9257  -16.5337 C   0  0  0  0  0  0  0  0  0  0  0  0
   17.2460  -17.0073  -15.9511 C   0  0  2  0  0  0  0  0  0  0  0  0
   25.3562  -24.5832  -15.7872 O   0  0  0  0  0  0  0  0  0  0  0  0
   24.0256  -24.7278  -16.4940 C   0  0  1  0  0  0  0  0  0  0  0  0
   23.0627  -25.2576  -15.6341 N   0  0  0  0  0  0  0  0  0  0  0  0
   23.5581  -23.3708  -17.0207 C   0  0  0  0  0  0  0  0  0  0  0  0
   23.2317  -22.5594  -15.8469 O   0  0  0  0  0  0  0  0  0  0  0  0
   22.4456  -23.5155  -17.9621 O   0  0  0  0  0  0  0  0  0  0  0  0
  2  3  2  0
  2  1  1  0
  4  2  1  0
  5  4  1  0
  6  5  1  0
  7  6  1  0
  8  7  1  0
  8  9  1  1
 10  8  1  0
 11 10  2  0
 13 12  1  0
 14 13  2  0
 15 13  1  0
 16 15  1  0
 17 16  1  0
 17 18  1  0
 19 18  1  1
 19 21  1  0
 19 20  1  0
 20 10  1  0
 21 22  2  0
 24 23  1  1
 24 26  1  0
 25 24  1  0
 26 28  1  0
 26 27  1  1
 27 21  1  0
 28 29  2  0
 28 30  1  0
M  END
$$$$
