RRT.pdb
     RDKit          3D

 30 29  0  0  1  0  0  0  0  0999 V2000
   23.3058  -10.6532    8.3705 N   0  0  0  0  0  0  0  0  0  0  0  0
   22.4614   -9.7366    7.6716 C   0  0  0  0  0  0  0  0  0  0  0  0
   22.7743   -8.4944    7.5615 N   0  0  0  0  0  0  0  0  0  0  0  0
   21.2522  -10.1693    7.0771 N   0  0  0  0  0  0  0  0  0  0  0  0
   20.7870  -11.5026    7.2900 C   0  0  0  0  0  0  0  0  0  0  0  0
   19.4840  -11.8167    6.6562 C   0  0  0  0  0  0  0  0  0  0  0  0
   19.0945  -13.2404    6.9373 C   0  0  0  0  0  0  0  0  0  0  0  0
   17.8228  -13.6174    6.2701 C   0  0  2  0  0  0  0  0  0  0  0  0
   16.7175  -12.9874    6.9458 N   0  0  0  0  0  0  0  0  0  0  0  0
   17.5943  -15.0915    6.2687 C   0  0  0  0  0  0  0  0  0  0  0  0
   17.2766  -15.6278    7.3553 O   0  0  0  0  0  0  0  0  0  0  0  0
   22.1546   -7.8479    7.0501 N   0  0  0  0  0  0  0  0  0  0  0  0
   14.1784  -20.9474    0.6906 C   0  0  0  0  0  0  0  0  0  0  0  0
   14.9200  -21.7616    1.5905 N   0  0  0  0  0  0  0  0  0  0  0  0
   14.8754  -23.0425    1.4892 N   0  0  0  0  0  0  0  0  0  0  0  0
   15.7295  -21.2229    2.6200 C   0  0  0  0  0  0  0  0  0  0  0  0
   15.9524  -19.8053    2.6736 C   0  0  0  0  0  0  0  0  0  0  0  0
   16.6531  -19.3505    3.8973 C   0  0  0  0  0  0  0  0  0  0  0  0
   16.8507  -17.8840    4.0223 C   0  0  1  0  0  0  0  0  0  0  0  0
   17.5641  -17.3522    5.1992 N   0  0  0  0  0  0  0  0  0  0  0  0
   17.7164  -15.8885    5.1260 C   0  0  0  0  0  0  0  0  0  0  0  0
   18.8410  -17.9809    5.5701 O   0  0  0  0  0  0  0  0  0  0  0  0
   19.8457  -17.8958    4.7787 C   0  0  0  0  0  0  0  0  0  0  0  0
   15.4383  -23.6092    2.1549 C   0  0  2  0  0  0  0  0  0  0  0  0
   21.4727  -17.5789    8.1322 O   0  0  0  0  0  0  0  0  0  0  0  0
   20.9241  -18.9812    8.2852 C   0  0  2  0  0  0  0  0  0  0  0  0
   19.9536  -19.0271    9.2868 N   0  0  0  0  0  0  0  0  0  0  0  0
   20.3254  -19.4606    6.9626 C   0  0  0  0  0  0  0  0  0  0  0  0
   19.0894  -18.7013    6.7665 O   0  0  0  0  0  0  0  0  0  0  0  0
   20.1300  -20.9120    6.9574 O   0  0  0  0  0  0  0  0  0  0  0  0
  2  3  2  0
  2  1  1  0
  4  2  1  0
  5  4  1  0
  6  5  1  0
  7  6  1  0
  8  7  1  0
  8  9  1  1
 10  8  1  0
 11 10  2  0
 13 12  1  0
 14 13  2  0
 15 13  1  0
 16 15  1  0
 17 16  1  0
 17 18  1  0
 19 18  1  1
 19 21  1  0
 19 20  1  0
 20 10  1  0
 21 22  2  0
 24 23  1  1
 24 26  1  0
 25 24  1  0
 26 28  1  0
 26 27  1  1
 27 21  1  0
 28 29  2  0
 28 30  1  0
M  END
$$$$
