RRT.pdb
     RDKit          3D

 30 29  0  0  1  0  0  0  0  0999 V2000
   17.3455  -25.2644   -8.6750 N   0  0  0  0  0  0  0  0  0  0  0  0
   17.0300  -23.8786   -8.5286 C   0  0  0  0  0  0  0  0  0  0  0  0
   16.0902  -23.4892   -7.7421 N   0  0  0  0  0  0  0  0  0  0  0  0
   17.7442  -22.8897   -9.2460 N   0  0  0  0  0  0  0  0  0  0  0  0
   18.7771  -23.2713  -10.1555 C   0  0  0  0  0  0  0  0  0  0  0  0
   20.1557  -23.1248   -9.6300 C   0  0  0  0  0  0  0  0  0  0  0  0
   20.6784  -21.7439   -9.9085 C   0  0  0  0  0  0  0  0  0  0  0  0
   22.0973  -21.5871   -9.5001 C   0  0  2  0  0  0  0  0  0  0  0  0
   22.1644  -20.8720   -8.2514 N   0  0  0  0  0  0  0  0  0  0  0  0
   22.9032  -20.8436  -10.5114 C   0  0  0  0  0  0  0  0  0  0  0  0
   23.0524  -19.6117  -10.3390 O   0  0  0  0  0  0  0  0  0  0  0  0
   15.8662  -22.4859   -7.6605 N   0  0  0  0  0  0  0  0  0  0  0  0
   28.0563  -22.4252  -17.0925 C   0  0  0  0  0  0  0  0  0  0  0  0
   28.2329  -21.0375  -16.8359 N   0  0  0  0  0  0  0  0  0  0  0  0
   28.7177  -20.2689  -17.7453 N   0  0  0  0  0  0  0  0  0  0  0  0
   27.8921  -20.4389  -15.5985 C   0  0  0  0  0  0  0  0  0  0  0  0
   26.8914  -21.0511  -14.7703 C   0  0  0  0  0  0  0  0  0  0  0  0
   26.6199  -20.3190  -13.5111 C   0  0  0  0  0  0  0  0  0  0  0  0
   25.6958  -20.9880  -12.5603 C   0  0  1  0  0  0  0  0  0  0  0  0
   24.2574  -20.6631  -12.6065 N   0  0  0  0  0  0  0  0  0  0  0  0
   23.4911  -21.4513  -11.6254 C   0  0  0  0  0  0  0  0  0  0  0  0
   23.5893  -20.6890  -13.9166 O   0  0  0  0  0  0  0  0  0  0  0  0
   23.2292  -21.8090  -14.4252 C   0  0  0  0  0  0  0  0  0  0  0  0
   28.8834  -19.2700  -17.5092 C   0  0  1  0  0  0  0  0  0  0  0  0
   21.4927  -18.1531  -17.6540 O   0  0  0  0  0  0  0  0  0  0  0  0
   21.9465  -18.2497  -16.2134 C   0  0  2  0  0  0  0  0  0  0  0  0
   20.9023  -17.9353  -15.3427 N   0  0  0  0  0  0  0  0  0  0  0  0
   22.4615  -19.6582  -15.9160 C   0  0  0  0  0  0  0  0  0  0  0  0
   23.2854  -19.5535  -14.7106 O   0  0  0  0  0  0  0  0  0  0  0  0
   23.1717  -20.2232  -17.0654 O   0  0  0  0  0  0  0  0  0  0  0  0
  2  3  2  0
  2  1  1  0
  4  2  1  0
  5  4  1  0
  6  5  1  0
  7  6  1  0
  8  7  1  0
  8  9  1  1
 10  8  1  0
 11 10  2  0
 13 12  1  0
 14 13  2  0
 15 13  1  0
 16 15  1  0
 17 16  1  0
 17 18  1  0
 19 18  1  1
 19 21  1  0
 19 20  1  0
 20 10  1  0
 21 22  2  0
 24 23  1  6
 24 26  1  0
 25 24  1  0
 26 28  1  0
 26 27  1  1
 27 21  1  0
 28 29  2  0
 28 30  1  0
M  END
$$$$
