ANF.pdb
     RDKit          3D

 25 25  0  0  1  0  0  0  0  0999 V2000
    7.4752  -12.5783   18.9549 C   0  0  0  0  0  0  0  0  0  0  0  0
    8.3600  -13.7568   19.3114 C   0  0  2  0  0  0  0  0  0  0  0  0
    8.2118  -14.7459   18.2639 N   0  0  0  0  0  0  0  0  0  0  0  0
    8.0290  -14.3132   20.6438 C   0  0  0  0  0  0  0  0  0  0  0  0
    8.0347  -13.6482   21.6955 O   0  0  0  0  0  0  0  0  0  0  0  0
    4.3965  -17.2878   20.9632 N   0  0  0  0  0  0  0  0  0  0  0  0
    5.7382  -17.6507   20.6393 C   0  0  0  0  0  0  0  0  0  0  0  0
    5.9673  -17.9182   19.4392 O   0  0  0  0  0  0  0  0  0  0  0  0
    6.8290  -17.7234   21.6155 C   0  0  0  0  0  0  0  0  0  0  0  0
    7.2786  -16.3222   21.9661 C   0  0  2  0  0  0  0  0  0  0  0  0
    7.6855  -15.6778   20.7376 N   0  0  0  0  0  0  0  0  0  0  0  0
    8.3249  -16.3361   22.9895 C   0  0  0  0  0  0  0  0  0  0  0  0
    9.5286  -16.4062   22.5938 O   0  0  0  0  0  0  0  0  0  0  0  0
    8.1210  -16.2787   24.3830 N   0  0  0  0  0  0  0  0  0  0  0  0
    9.1857  -15.9701   25.3538 C   0  0  1  0  0  0  0  0  0  0  0  0
    9.5264  -14.5223   25.3368 C   0  0  0  0  0  0  0  0  0  0  0  0
    8.4209  -13.7408   25.9211 C   0  0  0  0  0  0  0  0  0  0  0  0
    7.3546  -13.3170   25.1161 C   0  0  0  0  0  0  0  0  0  0  0  0
    6.2909  -12.6113   25.5956 C   0  0  0  0  0  0  0  0  0  0  0  0
    6.2291  -12.2811   26.9365 C   0  0  0  0  0  0  0  0  0  0  0  0
    7.2461  -12.6748   27.7529 C   0  0  0  0  0  0  0  0  0  0  0  0
    8.3226  -13.3929   27.2484 C   0  0  0  0  0  0  0  0  0  0  0  0
    8.7289  -16.4468   26.6617 C   0  0  0  0  0  0  0  0  0  0  0  0
    7.4738  -16.9822   26.8399 O   0  0  0  0  0  0  0  0  0  0  0  0
    9.4865  -16.3710   27.6551 O   0  0  0  0  0  0  0  0  0  0  0  0
  2  1  1  6
  2  3  1  0
  4  2  1  0
  4  5  2  0
  7  9  1  0
  7  6  1  0
  8  7  2  0
 10  9  1  6
 10 11  1  0
 11  4  1  0
 12 10  1  0
 13 12  2  0
 14 12  1  0
 15 14  1  0
 15 16  1  1
 16 17  1  0
 17 22  2  0
 18 17  1  0
 18 19  2  0
 19 20  1  0
 20 21  2  0
 22 21  1  0
 23 24  1  0
 23 15  1  0
 25 23  2  0
M  END
$$$$
