ANF.pdb
     RDKit          3D

 25 25  0  0  1  0  0  0  0  0999 V2000
    6.9402  -12.7610   19.5203 C   0  0  0  0  0  0  0  0  0  0  0  0
    8.2568  -13.2879   20.0567 C   0  0  2  0  0  0  0  0  0  0  0  0
    8.9356  -13.9567   18.9660 N   0  0  0  0  0  0  0  0  0  0  0  0
    8.0604  -14.1882   21.2166 C   0  0  0  0  0  0  0  0  0  0  0  0
    7.3509  -13.9097   22.2001 O   0  0  0  0  0  0  0  0  0  0  0  0
    8.9962  -18.1185   19.1344 N   0  0  0  0  0  0  0  0  0  0  0  0
    8.3793  -18.1224   20.4214 C   0  0  0  0  0  0  0  0  0  0  0  0
    7.1771  -18.4653   20.4605 O   0  0  0  0  0  0  0  0  0  0  0  0
    9.0654  -17.7549   21.6633 C   0  0  0  0  0  0  0  0  0  0  0  0
    8.4719  -16.4711   22.1998 C   0  0  2  0  0  0  0  0  0  0  0  0
    8.7123  -15.4387   21.2167 N   0  0  0  0  0  0  0  0  0  0  0  0
    9.0042  -16.1479   23.5244 C   0  0  0  0  0  0  0  0  0  0  0  0
   10.1789  -15.6714   23.5818 O   0  0  0  0  0  0  0  0  0  0  0  0
    8.3310  -16.3169   24.7511 N   0  0  0  0  0  0  0  0  0  0  0  0
    8.9382  -16.0338   26.0636 C   0  0  1  0  0  0  0  0  0  0  0  0
    7.9238  -15.5320   27.0289 C   0  0  0  0  0  0  0  0  0  0  0  0
    7.4990  -14.1725   26.6476 C   0  0  0  0  0  0  0  0  0  0  0  0
    8.3401  -13.0774   26.8888 C   0  0  0  0  0  0  0  0  0  0  0  0
    8.0194  -11.7983   26.5418 C   0  0  0  0  0  0  0  0  0  0  0  0
    6.8137  -11.5331   25.9198 C   0  0  0  0  0  0  0  0  0  0  0  0
    5.9678  -12.5705   25.6674 C   0  0  0  0  0  0  0  0  0  0  0  0
    6.3095  -13.8676   26.0275 C   0  0  0  0  0  0  0  0  0  0  0  0
    9.6061  -17.2610   26.5042 C   0  0  0  0  0  0  0  0  0  0  0  0
   10.5168  -17.2601   27.5358 O   0  0  0  0  0  0  0  0  0  0  0  0
    9.3554  -18.3483   25.9372 O   0  0  0  0  0  0  0  0  0  0  0  0
  2  1  1  6
  2  3  1  0
  4  2  1  0
  4  5  2  0
  7  9  1  0
  7  6  1  0
  8  7  2  0
 10  9  1  6
 10 11  1  0
 11  4  1  0
 12 10  1  0
 13 12  2  0
 14 12  1  0
 15 14  1  0
 15 16  1  1
 16 17  1  0
 17 22  2  0
 18 17  1  0
 18 19  2  0
 19 20  1  0
 20 21  2  0
 22 21  1  0
 23 24  1  0
 23 15  1  0
 25 23  2  0
M  END
$$$$
