ANF.pdb
     RDKit          3D

 25 25  0  0  1  0  0  0  0  0999 V2000
    6.8875  -13.3254   19.2439 C   0  0  0  0  0  0  0  0  0  0  0  0
    8.2024  -13.4546   19.9875 C   0  0  2  0  0  0  0  0  0  0  0  0
    9.2233  -13.7830   19.0141 N   0  0  0  0  0  0  0  0  0  0  0  0
    8.1289  -14.4643   21.0690 C   0  0  0  0  0  0  0  0  0  0  0  0
    7.1778  -14.5615   21.8654 O   0  0  0  0  0  0  0  0  0  0  0  0
    8.9864  -19.0495   20.1197 N   0  0  0  0  0  0  0  0  0  0  0  0
    9.9143  -17.9892   20.3472 C   0  0  0  0  0  0  0  0  0  0  0  0
   10.4565  -17.4979   19.3328 O   0  0  0  0  0  0  0  0  0  0  0  0
   10.2533  -17.4633   21.6726 C   0  0  0  0  0  0  0  0  0  0  0  0
    9.1736  -16.5024   22.1189 C   0  0  2  0  0  0  0  0  0  0  0  0
    9.1956  -15.3753   21.2138 N   0  0  0  0  0  0  0  0  0  0  0  0
    9.3408  -16.1240   23.5229 C   0  0  0  0  0  0  0  0  0  0  0  0
   10.3976  -15.4956   23.8369 O   0  0  0  0  0  0  0  0  0  0  0  0
    8.4330  -16.3934   24.5669 N   0  0  0  0  0  0  0  0  0  0  0  0
    8.6776  -16.0387   25.9760 C   0  0  1  0  0  0  0  0  0  0  0  0
    7.4152  -15.6504   26.6602 C   0  0  0  0  0  0  0  0  0  0  0  0
    7.1794  -14.2045   26.4934 C   0  0  0  0  0  0  0  0  0  0  0  0
    8.2110  -13.2886   26.7417 C   0  0  0  0  0  0  0  0  0  0  0  0
    8.0679  -11.9415   26.5858 C   0  0  0  0  0  0  0  0  0  0  0  0
    6.8595  -11.4198   26.1632 C   0  0  0  0  0  0  0  0  0  0  0  0
    5.8313  -12.2769   25.9110 C   0  0  0  0  0  0  0  0  0  0  0  0
    5.9936  -13.6465   26.0750 C   0  0  0  0  0  0  0  0  0  0  0  0
    9.3510  -17.1814   26.5983 C   0  0  0  0  0  0  0  0  0  0  0  0
    9.3953  -18.4152   25.9907 O   0  0  0  0  0  0  0  0  0  0  0  0
    9.9045  -17.0505   27.7132 O   0  0  0  0  0  0  0  0  0  0  0  0
  2  1  1  6
  2  3  1  0
  4  2  1  0
  4  5  2  0
  7  9  1  0
  7  6  1  0
  8  7  2  0
 10  9  1  6
 10 11  1  0
 11  4  1  0
 12 10  1  0
 13 12  2  0
 14 12  1  0
 15 14  1  0
 15 16  1  1
 16 17  1  0
 17 22  2  0
 18 17  1  0
 18 19  2  0
 19 20  1  0
 20 21  2  0
 22 21  1  0
 23 24  1  0
 23 15  1  0
 25 23  2  0
M  END
$$$$
