ANF.pdb
     RDKit          3D

 25 25  0  0  1  0  0  0  0  0999 V2000
    6.4731  -18.6726   18.9757 C   0  0  0  0  0  0  0  0  0  0  0  0
    6.6283  -18.3419   20.4473 C   0  0  2  0  0  0  0  0  0  0  0  0
    5.3821  -17.7561   20.8962 N   0  0  0  0  0  0  0  0  0  0  0  0
    7.7789  -17.4420   20.6931 C   0  0  0  0  0  0  0  0  0  0  0  0
    8.9674  -17.7740   20.5330 O   0  0  0  0  0  0  0  0  0  0  0  0
    8.8857  -14.7646   18.7370 N   0  0  0  0  0  0  0  0  0  0  0  0
    8.2396  -13.7622   19.5210 C   0  0  0  0  0  0  0  0  0  0  0  0
    7.7696  -12.7856   18.8968 O   0  0  0  0  0  0  0  0  0  0  0  0
    8.1038  -13.8193   20.9793 C   0  0  0  0  0  0  0  0  0  0  0  0
    8.5594  -15.1759   21.4698 C   0  0  2  0  0  0  0  0  0  0  0  0
    7.5237  -16.1275   21.1357 N   0  0  0  0  0  0  0  0  0  0  0  0
    8.8847  -15.1476   22.8966 C   0  0  0  0  0  0  0  0  0  0  0  0
    9.8491  -14.4079   23.2615 O   0  0  0  0  0  0  0  0  0  0  0  0
    8.2238  -15.8692   23.9110 N   0  0  0  0  0  0  0  0  0  0  0  0
    8.6235  -15.8401   25.3290 C   0  0  1  0  0  0  0  0  0  0  0  0
    7.4554  -15.5790   26.2122 C   0  0  0  0  0  0  0  0  0  0  0  0
    7.2708  -14.1260   26.3819 C   0  0  0  0  0  0  0  0  0  0  0  0
    6.0233  -13.5394   26.1282 C   0  0  0  0  0  0  0  0  0  0  0  0
    5.7779  -12.2074   26.2863 C   0  0  0  0  0  0  0  0  0  0  0  0
    6.7865  -11.3657   26.7169 C   0  0  0  0  0  0  0  0  0  0  0  0
    8.0141  -11.8970   26.9745 C   0  0  0  0  0  0  0  0  0  0  0  0
    8.2474  -13.2560   26.8081 C   0  0  0  0  0  0  0  0  0  0  0  0
    9.2981  -17.1092   25.6136 C   0  0  0  0  0  0  0  0  0  0  0  0
   10.0715  -17.2823   26.7385 O   0  0  0  0  0  0  0  0  0  0  0  0
    9.1805  -18.0718   24.8224 O   0  0  0  0  0  0  0  0  0  0  0  0
  2  1  1  6
  2  3  1  0
  4  2  1  0
  4  5  2  0
  7  9  1  0
  7  6  1  0
  8  7  2  0
 10  9  1  1
 10 11  1  0
 11  4  1  0
 12 10  1  0
 13 12  2  0
 14 12  1  0
 15 14  1  0
 15 16  1  1
 16 17  1  0
 17 22  2  0
 18 17  1  0
 18 19  2  0
 19 20  1  0
 20 21  2  0
 22 21  1  0
 23 24  1  0
 23 15  1  0
 25 23  2  0
M  END
$$$$
