ANF.pdb
     RDKit          3D

 25 25  0  0  1  0  0  0  0  0999 V2000
    8.2691  -12.1088   20.2038 C   0  0  0  0  0  0  0  0  0  0  0  0
    8.1935  -13.5006   19.6072 C   0  0  2  0  0  0  0  0  0  0  0  0
    7.1254  -13.4982   18.6290 N   0  0  0  0  0  0  0  0  0  0  0  0
    7.9858  -14.5365   20.6455 C   0  0  0  0  0  0  0  0  0  0  0  0
    6.8798  -14.8034   21.1493 O   0  0  0  0  0  0  0  0  0  0  0  0
   10.0368  -18.0541   19.0917 N   0  0  0  0  0  0  0  0  0  0  0  0
    9.4367  -18.1016   20.3858 C   0  0  0  0  0  0  0  0  0  0  0  0
    8.3782  -18.7605   20.4837 O   0  0  0  0  0  0  0  0  0  0  0  0
    9.9839  -17.4353   21.5710 C   0  0  0  0  0  0  0  0  0  0  0  0
    9.0169  -16.3683   22.0343 C   0  0  2  0  0  0  0  0  0  0  0  0
    9.1020  -15.2703   21.0977 N   0  0  0  0  0  0  0  0  0  0  0  0
    9.2792  -15.9730   23.4190 C   0  0  0  0  0  0  0  0  0  0  0  0
   10.3246  -15.2896   23.6436 O   0  0  0  0  0  0  0  0  0  0  0  0
    8.4751  -16.2817   24.5347 N   0  0  0  0  0  0  0  0  0  0  0  0
    8.8298  -15.9308   25.9212 C   0  0  1  0  0  0  0  0  0  0  0  0
    7.6202  -15.5866   26.7155 C   0  0  0  0  0  0  0  0  0  0  0  0
    7.2554  -14.1764   26.4868 C   0  0  0  0  0  0  0  0  0  0  0  0
    6.0133  -13.8518   25.9242 C   0  0  0  0  0  0  0  0  0  0  0  0
    5.6038  -12.5695   25.7065 C   0  0  0  0  0  0  0  0  0  0  0  0
    6.4293  -11.5139   26.0460 C   0  0  0  0  0  0  0  0  0  0  0  0
    7.6453  -11.7872   26.5957 C   0  0  0  0  0  0  0  0  0  0  0  0
    8.0473  -13.0992   26.8106 C   0  0  0  0  0  0  0  0  0  0  0  0
    9.5882  -17.0572   26.4712 C   0  0  0  0  0  0  0  0  0  0  0  0
   10.3771  -16.9220   27.5905 O   0  0  0  0  0  0  0  0  0  0  0  0
    9.5303  -18.1794   25.9201 O   0  0  0  0  0  0  0  0  0  0  0  0
  2  1  1  1
  2  3  1  0
  4  2  1  0
  4  5  2  0
  7  9  1  0
  7  6  1  0
  8  7  2  0
 10  9  1  6
 10 11  1  0
 11  4  1  0
 12 10  1  0
 13 12  2  0
 14 12  1  0
 15 14  1  0
 15 16  1  1
 16 17  1  0
 17 22  2  0
 18 17  1  0
 18 19  2  0
 19 20  1  0
 20 21  2  0
 22 21  1  0
 23 24  1  0
 23 15  1  0
 25 23  2  0
M  END
$$$$
