ANF.pdb
     RDKit          3D

 25 25  0  0  1  0  0  0  0  0999 V2000
    7.9796  -18.4564   18.4359 C   0  0  0  0  0  0  0  0  0  0  0  0
    8.0843  -18.3073   19.9411 C   0  0  2  0  0  0  0  0  0  0  0  0
    6.7378  -18.3138   20.4746 N   0  0  0  0  0  0  0  0  0  0  0  0
    8.8219  -17.0814   20.3250 C   0  0  0  0  0  0  0  0  0  0  0  0
   10.0226  -16.8828   20.0655 O   0  0  0  0  0  0  0  0  0  0  0  0
    8.2424  -12.4105   18.8864 N   0  0  0  0  0  0  0  0  0  0  0  0
    7.7960  -13.5752   19.5801 C   0  0  0  0  0  0  0  0  0  0  0  0
    7.3901  -14.5226   18.8716 O   0  0  0  0  0  0  0  0  0  0  0  0
    7.7899  -13.7114   21.0394 C   0  0  0  0  0  0  0  0  0  0  0  0
    8.7333  -14.8240   21.4403 C   0  0  2  0  0  0  0  0  0  0  0  0
    8.1315  -16.0719   21.0273 N   0  0  0  0  0  0  0  0  0  0  0  0
    9.0440  -14.7732   22.8697 C   0  0  0  0  0  0  0  0  0  0  0  0
    9.6790  -13.7599   23.2941 O   0  0  0  0  0  0  0  0  0  0  0  0
    8.7023  -15.7502   23.8265 N   0  0  0  0  0  0  0  0  0  0  0  0
    9.1825  -15.7345   25.2195 C   0  0  1  0  0  0  0  0  0  0  0  0
    8.0493  -15.6390   26.1784 C   0  0  0  0  0  0  0  0  0  0  0  0
    7.6119  -14.2360   26.2987 C   0  0  0  0  0  0  0  0  0  0  0  0
    8.5048  -13.2555   26.7527 C   0  0  0  0  0  0  0  0  0  0  0  0
    8.1731  -11.9378   26.8663 C   0  0  0  0  0  0  0  0  0  0  0  0
    6.9023  -11.5137   26.5251 C   0  0  0  0  0  0  0  0  0  0  0  0
    6.0045  -12.4360   26.0792 C   0  0  0  0  0  0  0  0  0  0  0  0
    6.3585  -13.7745   25.9695 C   0  0  0  0  0  0  0  0  0  0  0  0
   10.0055  -16.9321   25.4061 C   0  0  0  0  0  0  0  0  0  0  0  0
   10.7001  -17.1595   26.5720 O   0  0  0  0  0  0  0  0  0  0  0  0
   10.0923  -17.7808   24.4904 O   0  0  0  0  0  0  0  0  0  0  0  0
  2  1  1  6
  2  3  1  0
  4  2  1  0
  4  5  2  0
  7  9  1  0
  7  6  1  0
  8  7  2  0
 10  9  1  1
 10 11  1  0
 11  4  1  0
 12 10  1  0
 13 12  2  0
 14 12  1  0
 15 14  1  0
 15 16  1  1
 16 17  1  0
 17 22  2  0
 18 17  1  0
 18 19  2  0
 19 20  1  0
 20 21  2  0
 22 21  1  0
 23 24  1  0
 23 15  1  0
 25 23  2  0
M  END
$$$$
