ANF.pdb
     RDKit          3D

 25 25  0  0  1  0  0  0  0  0999 V2000
    9.6079  -22.3752   19.2052 C   0  0  0  0  0  0  0  0  0  0  0  0
    9.6058  -21.2871   20.2610 C   0  0  2  0  0  0  0  0  0  0  0  0
    8.2279  -20.9031   20.4886 N   0  0  0  0  0  0  0  0  0  0  0  0
   10.4406  -20.1297   19.8636 C   0  0  0  0  0  0  0  0  0  0  0  0
   11.6688  -20.1913   19.6740 O   0  0  0  0  0  0  0  0  0  0  0  0
    7.6347  -18.1236   18.4544 N   0  0  0  0  0  0  0  0  0  0  0  0
    8.5055  -17.0287   18.1717 C   0  0  0  0  0  0  0  0  0  0  0  0
    7.9630  -15.9120   18.0199 O   0  0  0  0  0  0  0  0  0  0  0  0
    9.9617  -17.1453   18.0537 C   0  0  0  0  0  0  0  0  0  0  0  0
   10.5277  -17.6631   19.3575 C   0  0  2  0  0  0  0  0  0  0  0  0
    9.8160  -18.8777   19.6866 N   0  0  0  0  0  0  0  0  0  0  0  0
   10.4629  -16.6479   20.4099 C   0  0  0  0  0  0  0  0  0  0  0  0
   11.0878  -15.5612   20.2128 O   0  0  0  0  0  0  0  0  0  0  0  0
    9.7672  -16.7636   21.6302 N   0  0  0  0  0  0  0  0  0  0  0  0
    9.8989  -15.8047   22.7414 C   0  0  1  0  0  0  0  0  0  0  0  0
    8.5724  -15.2723   23.1529 C   0  0  0  0  0  0  0  0  0  0  0  0
    7.9305  -14.5915   22.0133 C   0  0  0  0  0  0  0  0  0  0  0  0
    6.7841  -15.1380   21.4202 C   0  0  0  0  0  0  0  0  0  0  0  0
    6.1286  -14.5498   20.3793 C   0  0  0  0  0  0  0  0  0  0  0  0
    6.5902  -13.3550   19.8591 C   0  0  0  0  0  0  0  0  0  0  0  0
    7.7020  -12.7908   20.4079 C   0  0  0  0  0  0  0  0  0  0  0  0
    8.3581  -13.4032   21.4678 C   0  0  0  0  0  0  0  0  0  0  0  0
   10.6130  -16.4906   23.8212 C   0  0  0  0  0  0  0  0  0  0  0  0
   11.0934  -15.8119   24.9177 O   0  0  0  0  0  0  0  0  0  0  0  0
   10.8020  -17.7264   23.7606 O   0  0  0  0  0  0  0  0  0  0  0  0
  2  1  1  6
  2  3  1  0
  4  2  1  0
  4  5  2  0
  7  9  1  0
  7  6  1  0
  8  7  2  0
 10  9  1  6
 10 11  1  0
 11  4  1  0
 12 10  1  0
 13 12  2  0
 14 12  1  0
 15 14  1  0
 15 16  1  1
 16 17  1  0
 17 22  2  0
 18 17  1  0
 18 19  2  0
 19 20  1  0
 20 21  2  0
 22 21  1  0
 23 24  1  0
 23 15  1  0
 25 23  2  0
M  END
$$$$
