ANF.pdb
     RDKit          3D

 25 25  0  0  1  0  0  0  0  0999 V2000
    5.4994  -16.8042   21.8481 C   0  0  0  0  0  0  0  0  0  0  0  0
    6.6491  -17.0201   20.8835 C   0  0  2  0  0  0  0  0  0  0  0  0
    6.2885  -18.1216   20.0149 N   0  0  0  0  0  0  0  0  0  0  0  0
    7.9249  -17.2736   21.5922 C   0  0  0  0  0  0  0  0  0  0  0  0
    8.1920  -18.3351   22.1841 O   0  0  0  0  0  0  0  0  0  0  0  0
   12.6007  -17.1472   20.5989 N   0  0  0  0  0  0  0  0  0  0  0  0
   11.6403  -16.0918   20.5718 C   0  0  0  0  0  0  0  0  0  0  0  0
   11.2283  -15.7441   19.4431 O   0  0  0  0  0  0  0  0  0  0  0  0
   11.1282  -15.4149   21.7666 C   0  0  0  0  0  0  0  0  0  0  0  0
   10.0888  -16.2915   22.4294 C   0  0  2  0  0  0  0  0  0  0  0  0
    8.9029  -16.2576   21.6032 N   0  0  0  0  0  0  0  0  0  0  0  0
    9.8454  -15.8805   23.8130 C   0  0  0  0  0  0  0  0  0  0  0  0
   10.0083  -14.6541   24.0955 O   0  0  0  0  0  0  0  0  0  0  0  0
    9.4443  -16.7235   24.8689 N   0  0  0  0  0  0  0  0  0  0  0  0
    9.2269  -16.2583   26.2501 C   0  0  1  0  0  0  0  0  0  0  0  0
    7.7957  -15.9308   26.4887 C   0  0  0  0  0  0  0  0  0  0  0  0
    7.5971  -14.4715   26.4163 C   0  0  0  0  0  0  0  0  0  0  0  0
    6.3811  -13.9474   25.9568 C   0  0  0  0  0  0  0  0  0  0  0  0
    6.1230  -12.6104   25.8855 C   0  0  0  0  0  0  0  0  0  0  0  0
    7.0857  -11.6993   26.2782 C   0  0  0  0  0  0  0  0  0  0  0  0
    8.2816  -12.1684   26.7313 C   0  0  0  0  0  0  0  0  0  0  0  0
    8.5286  -13.5336   26.7973 C   0  0  0  0  0  0  0  0  0  0  0  0
    9.7441  -17.2988   27.1426 C   0  0  0  0  0  0  0  0  0  0  0  0
   10.0891  -17.0286   28.4470 O   0  0  0  0  0  0  0  0  0  0  0  0
    9.8844  -18.4698   26.7237 O   0  0  0  0  0  0  0  0  0  0  0  0
  2  1  1  1
  2  3  1  0
  4  2  1  0
  4  5  2  0
  7  9  1  0
  7  6  1  0
  8  7  2  0
 10  9  1  6
 10 11  1  0
 11  4  1  0
 12 10  1  0
 13 12  2  0
 14 12  1  0
 15 14  1  0
 15 16  1  1
 16 17  1  0
 17 22  2  0
 18 17  1  0
 18 19  2  0
 19 20  1  0
 20 21  2  0
 22 21  1  0
 23 24  1  0
 23 15  1  0
 25 23  2  0
M  END
$$$$
