ANF.pdb
     RDKit          3D

 25 25  0  0  1  0  0  0  0  0999 V2000
    8.4083  -12.0435   19.6712 C   0  0  0  0  0  0  0  0  0  0  0  0
    8.4347  -13.4371   19.0745 C   0  0  2  0  0  0  0  0  0  0  0  0
    7.8075  -13.3653   17.7710 N   0  0  0  0  0  0  0  0  0  0  0  0
    7.7675  -14.4267   19.9519 C   0  0  0  0  0  0  0  0  0  0  0  0
    6.7623  -15.0818   19.6219 O   0  0  0  0  0  0  0  0  0  0  0  0
    9.2530  -19.3109   22.0479 N   0  0  0  0  0  0  0  0  0  0  0  0
    8.2911  -18.2668   21.9009 C   0  0  0  0  0  0  0  0  0  0  0  0
    7.1782  -18.4565   22.4393 O   0  0  0  0  0  0  0  0  0  0  0  0
    8.5362  -17.0195   21.1713 C   0  0  0  0  0  0  0  0  0  0  0  0
    8.0652  -15.8511   22.0087 C   0  0  2  0  0  0  0  0  0  0  0  0
    8.2947  -14.6477   21.2411 N   0  0  0  0  0  0  0  0  0  0  0  0
    8.7142  -15.8367   23.3205 C   0  0  0  0  0  0  0  0  0  0  0  0
    9.9813  -15.7726   23.3449 O   0  0  0  0  0  0  0  0  0  0  0  0
    8.0607  -15.8876   24.5683 N   0  0  0  0  0  0  0  0  0  0  0  0
    8.7500  -15.7248   25.8604 C   0  0  1  0  0  0  0  0  0  0  0  0
    7.8128  -15.2534   26.9148 C   0  0  0  0  0  0  0  0  0  0  0  0
    7.2966  -13.9172   26.5651 C   0  0  0  0  0  0  0  0  0  0  0  0
    8.0846  -12.7783   26.7807 C   0  0  0  0  0  0  0  0  0  0  0  0
    7.6783  -11.5168   26.4601 C   0  0  0  0  0  0  0  0  0  0  0  0
    6.4339  -11.3154   25.8925 C   0  0  0  0  0  0  0  0  0  0  0  0
    5.6373  -12.3970   25.6664 C   0  0  0  0  0  0  0  0  0  0  0  0
    6.0663  -13.6754   25.9992 C   0  0  0  0  0  0  0  0  0  0  0  0
    9.3855  -17.0068   26.1752 C   0  0  0  0  0  0  0  0  0  0  0  0
   10.4303  -17.0982   27.0661 O   0  0  0  0  0  0  0  0  0  0  0  0
    8.9816  -18.0570   25.6270 O   0  0  0  0  0  0  0  0  0  0  0  0
  2  1  1  1
  2  3  1  0
  4  2  1  0
  4  5  2  0
  7  9  1  0
  7  6  1  0
  8  7  2  0
 10  9  1  6
 10 11  1  0
 11  4  1  0
 12 10  1  0
 13 12  2  0
 14 12  1  0
 15 14  1  0
 15 16  1  1
 16 17  1  0
 17 22  2  0
 18 17  1  0
 18 19  2  0
 19 20  1  0
 20 21  2  0
 22 21  1  0
 23 24  1  0
 23 15  1  0
 25 23  2  0
M  END
$$$$
