ANF.pdb
     RDKit          3D

 25 25  0  0  1  0  0  0  0  0999 V2000
    7.7337  -12.9340   18.7052 C   0  0  0  0  0  0  0  0  0  0  0  0
    8.5621  -14.1057   19.1948 C   0  0  2  0  0  0  0  0  0  0  0  0
    8.3514  -15.2036   18.2739 N   0  0  0  0  0  0  0  0  0  0  0  0
    8.2196  -14.4816   20.5861 C   0  0  0  0  0  0  0  0  0  0  0  0
    8.3069  -13.7077   21.5566 O   0  0  0  0  0  0  0  0  0  0  0  0
    5.1419  -18.2501   23.7917 N   0  0  0  0  0  0  0  0  0  0  0  0
    6.4731  -18.2224   23.2779 C   0  0  0  0  0  0  0  0  0  0  0  0
    7.3634  -18.7001   24.0150 O   0  0  0  0  0  0  0  0  0  0  0  0
    6.8375  -17.6774   21.9670 C   0  0  0  0  0  0  0  0  0  0  0  0
    7.3534  -16.2659   22.1397 C   0  0  2  0  0  0  0  0  0  0  0  0
    7.7664  -15.7933   20.8374 N   0  0  0  0  0  0  0  0  0  0  0  0
    8.4157  -16.2035   23.1447 C   0  0  0  0  0  0  0  0  0  0  0  0
    9.5783  -16.5676   22.7895 O   0  0  0  0  0  0  0  0  0  0  0  0
    8.2689  -15.7744   24.4792 N   0  0  0  0  0  0  0  0  0  0  0  0
    9.4020  -15.5159   25.3851 C   0  0  1  0  0  0  0  0  0  0  0  0
    9.5848  -14.0578   25.6158 C   0  0  0  0  0  0  0  0  0  0  0  0
    8.3574  -13.4852   26.1987 C   0  0  0  0  0  0  0  0  0  0  0  0
    7.2937  -13.1050   25.3689 C   0  0  0  0  0  0  0  0  0  0  0  0
    6.1232  -12.5905   25.8428 C   0  0  0  0  0  0  0  0  0  0  0  0
    5.9434  -12.4226   27.2032 C   0  0  0  0  0  0  0  0  0  0  0  0
    6.9538  -12.7803   28.0439 C   0  0  0  0  0  0  0  0  0  0  0  0
    8.1399  -13.3027   27.5447 C   0  0  0  0  0  0  0  0  0  0  0  0
    9.1544  -16.2746   26.6137 C   0  0  0  0  0  0  0  0  0  0  0  0
   10.0714  -16.3126   27.6391 O   0  0  0  0  0  0  0  0  0  0  0  0
    8.0865  -16.9128   26.7508 O   0  0  0  0  0  0  0  0  0  0  0  0
  2  1  1  6
  2  3  1  0
  4  2  1  0
  4  5  2  0
  7  9  1  0
  7  6  1  0
  8  7  2  0
 10  9  1  6
 10 11  1  0
 11  4  1  0
 12 10  1  0
 13 12  2  0
 14 12  1  0
 15 14  1  0
 15 16  1  1
 16 17  1  0
 17 22  2  0
 18 17  1  0
 18 19  2  0
 19 20  1  0
 20 21  2  0
 22 21  1  0
 23 24  1  0
 23 15  1  0
 25 23  2  0
M  END
$$$$
