ANF.pdb
     RDKit          3D

 25 25  0  0  1  0  0  0  0  0999 V2000
    6.8650  -18.0020   18.3648 C   0  0  0  0  0  0  0  0  0  0  0  0
    8.0133  -18.0473   19.3538 C   0  0  2  0  0  0  0  0  0  0  0  0
    8.4157  -19.4318   19.4915 N   0  0  0  0  0  0  0  0  0  0  0  0
    7.6435  -17.4500   20.6580 C   0  0  0  0  0  0  0  0  0  0  0  0
    7.2817  -16.2684   20.8034 O   0  0  0  0  0  0  0  0  0  0  0  0
    5.3078  -20.7510   22.7476 N   0  0  0  0  0  0  0  0  0  0  0  0
    5.5322  -19.4462   23.2807 C   0  0  0  0  0  0  0  0  0  0  0  0
    4.5733  -18.6460   23.2135 O   0  0  0  0  0  0  0  0  0  0  0  0
    6.7944  -19.0107   23.8851 C   0  0  0  0  0  0  0  0  0  0  0  0
    7.3204  -17.8097   23.1306 C   0  0  2  0  0  0  0  0  0  0  0  0
    7.7014  -18.2603   21.8108 N   0  0  0  0  0  0  0  0  0  0  0  0
    8.4087  -17.1551   23.8582 C   0  0  0  0  0  0  0  0  0  0  0  0
    9.5383  -17.7331   23.8642 O   0  0  0  0  0  0  0  0  0  0  0  0
    8.3204  -15.9347   24.5578 N   0  0  0  0  0  0  0  0  0  0  0  0
    9.4723  -15.2701   25.1925 C   0  0  1  0  0  0  0  0  0  0  0  0
    9.3760  -13.7910   25.0679 C   0  0  0  0  0  0  0  0  0  0  0  0
    8.1529  -13.3106   25.7368 C   0  0  0  0  0  0  0  0  0  0  0  0
    8.2306  -12.7070   26.9994 C   0  0  0  0  0  0  0  0  0  0  0  0
    7.1432  -12.2212   27.6635 C   0  0  0  0  0  0  0  0  0  0  0  0
    5.8877  -12.3118   27.0921 C   0  0  0  0  0  0  0  0  0  0  0  0
    5.7696  -12.8917   25.8652 C   0  0  0  0  0  0  0  0  0  0  0  0
    6.8874  -13.3818   25.2022 C   0  0  0  0  0  0  0  0  0  0  0  0
    9.5291  -15.7364   26.5802 C   0  0  0  0  0  0  0  0  0  0  0  0
   10.6432  -15.5432   27.3645 O   0  0  0  0  0  0  0  0  0  0  0  0
    8.5480  -16.3300   27.0818 O   0  0  0  0  0  0  0  0  0  0  0  0
  2  1  1  6
  2  3  1  0
  4  2  1  0
  4  5  2  0
  7  9  1  0
  7  6  1  0
  8  7  2  0
 10  9  1  1
 10 11  1  0
 11  4  1  0
 12 10  1  0
 13 12  2  0
 14 12  1  0
 15 14  1  0
 15 16  1  1
 16 17  1  0
 17 22  2  0
 18 17  1  0
 18 19  2  0
 19 20  1  0
 20 21  2  0
 22 21  1  0
 23 24  1  0
 23 15  1  0
 25 23  2  0
M  END
$$$$
