ANF.pdb
     RDKit          3D

 25 25  0  0  1  0  0  0  0  0999 V2000
    7.2854  -12.7635   19.1226 C   0  0  0  0  0  0  0  0  0  0  0  0
    8.3797  -13.6029   19.7524 C   0  0  2  0  0  0  0  0  0  0  0  0
    8.7655  -14.6115   18.7871 N   0  0  0  0  0  0  0  0  0  0  0  0
    7.9453  -14.2059   21.0338 C   0  0  0  0  0  0  0  0  0  0  0  0
    7.5615  -13.5470   22.0171 O   0  0  0  0  0  0  0  0  0  0  0  0
    5.5129  -18.1126   23.8921 N   0  0  0  0  0  0  0  0  0  0  0  0
    6.6848  -18.4314   23.1424 C   0  0  0  0  0  0  0  0  0  0  0  0
    7.3581  -19.4034   23.5501 O   0  0  0  0  0  0  0  0  0  0  0  0
    7.1252  -17.6970   21.9529 C   0  0  0  0  0  0  0  0  0  0  0  0
    7.5891  -16.3167   22.3625 C   0  0  2  0  0  0  0  0  0  0  0  0
    7.9642  -15.6106   21.1580 N   0  0  0  0  0  0  0  0  0  0  0  0
    8.6633  -16.3855   23.3545 C   0  0  0  0  0  0  0  0  0  0  0  0
    9.3484  -17.4526   23.4009 O   0  0  0  0  0  0  0  0  0  0  0  0
    9.0114  -15.3716   24.2697 N   0  0  0  0  0  0  0  0  0  0  0  0
    9.0390  -15.5622   25.7306 C   0  0  1  0  0  0  0  0  0  0  0  0
    7.7042  -15.3009   26.3327 C   0  0  0  0  0  0  0  0  0  0  0  0
    7.4241  -13.8533   26.3208 C   0  0  0  0  0  0  0  0  0  0  0  0
    6.1013  -13.3914   26.2805 C   0  0  0  0  0  0  0  0  0  0  0  0
    5.7712  -12.0684   26.2898 C   0  0  0  0  0  0  0  0  0  0  0  0
    6.7652  -11.1090   26.3414 C   0  0  0  0  0  0  0  0  0  0  0  0
    8.0642  -11.5169   26.3818 C   0  0  0  0  0  0  0  0  0  0  0  0
    8.3834  -12.8686   26.3714 C   0  0  0  0  0  0  0  0  0  0  0  0
    9.5365  -16.9175   25.9799 C   0  0  0  0  0  0  0  0  0  0  0  0
    8.7338  -18.0242   25.8235 O   0  0  0  0  0  0  0  0  0  0  0  0
   10.7201  -17.0921   26.3476 O   0  0  0  0  0  0  0  0  0  0  0  0
  2  1  1  6
  2  3  1  0
  4  2  1  0
  4  5  2  0
  7  9  1  0
  7  6  1  0
  8  7  2  0
 10  9  1  6
 10 11  1  0
 11  4  1  0
 12 10  1  0
 13 12  2  0
 14 12  1  0
 15 14  1  0
 15 16  1  6
 16 17  1  0
 17 22  2  0
 18 17  1  0
 18 19  2  0
 19 20  1  0
 20 21  2  0
 22 21  1  0
 23 24  1  0
 23 15  1  0
 25 23  2  0
M  END
$$$$
