VLP.pdb
     RDKit          3D

 23 23  0  0  1  0  0  0  0  0999 V2000
    7.9792  -20.1379   23.4200 C   0  0  0  0  0  0  0  0  0  0  0  0
    7.4107  -19.9835   24.7856 C   0  0  2  0  0  0  0  0  0  0  0  0
    7.2761  -21.3756   25.3922 C   0  0  0  0  0  0  0  0  0  0  0  0
    6.0653  -19.3292   24.8283 C   0  0  2  0  0  0  0  0  0  0  0  0
    5.0516  -20.0668   24.1248 N   0  0  0  0  0  0  0  0  0  0  0  0
    6.0530  -17.9362   24.3829 C   0  0  0  0  0  0  0  0  0  0  0  0
    5.6180  -17.5200   23.2793 O   0  0  0  0  0  0  0  0  0  0  0  0
    8.2120  -12.7386   27.0436 C   0  0  0  0  0  0  0  0  0  0  0  0
    7.3885  -13.4014   25.9714 C   0  0  2  0  0  0  0  0  0  0  0  0
    5.9912  -12.8223   26.0611 C   0  0  0  0  0  0  0  0  0  0  0  0
    7.2728  -14.8795   26.1234 C   0  0  0  0  0  0  0  0  0  0  0  0
    6.8389  -15.5704   24.8263 C   0  0  2  0  0  0  0  0  0  0  0  0
    6.5739  -16.9430   25.2576 N   0  0  0  0  0  0  0  0  0  0  0  0
    7.9729  -15.5056   23.8932 C   0  0  0  0  0  0  0  0  0  0  0  0
    9.0137  -16.1268   24.2149 O   0  0  0  0  0  0  0  0  0  0  0  0
    7.9448  -14.7917   22.6746 N   0  0  0  0  0  0  0  0  0  0  0  0
    7.0235  -13.7918   22.1807 C   0  0  0  0  0  0  0  0  0  0  0  0
    7.9635  -12.8859   21.4074 C   0  0  0  0  0  0  0  0  0  0  0  0
    8.7181  -13.9412   20.5936 C   0  0  0  0  0  0  0  0  0  0  0  0
    8.9654  -14.9869   21.6281 C   0  0  1  0  0  0  0  0  0  0  0  0
   10.2764  -14.6870   22.2543 C   0  0  0  0  0  0  0  0  0  0  0  0
   11.4691  -14.8925   21.5972 O   0  0  0  0  0  0  0  0  0  0  0  0
   10.2951  -14.2311   23.4221 O   0  0  0  0  0  0  0  0  0  0  0  0
  2  1  1  6
  2  3  1  0
  4  2  1  0
  4  6  1  0
  4  5  1  6
  6  7  2  0
  9 11  1  0
  9  8  1  1
 10  9  1  0
 12 11  1  1
 12 14  1  0
 13  6  1  0
 13 12  1  0
 14 15  2  0
 16 17  1  0
 16 14  1  0
 18 17  1  0
 19 20  1  0
 19 18  1  0
 20 16  1  0
 21 22  1  0
 20 21  1  1
 23 21  2  0
M  END
$$$$
