VLP.pdb
     RDKit          3D

 23 23  0  0  1  0  0  0  0  0999 V2000
    9.7780  -18.3290   20.2152 C   0  0  0  0  0  0  0  0  0  0  0  0
   10.0432  -17.4372   21.3753 C   0  0  2  0  0  0  0  0  0  0  0  0
    9.9766  -18.2876   22.6389 C   0  0  0  0  0  0  0  0  0  0  0  0
    9.0719  -16.3087   21.5266 C   0  0  2  0  0  0  0  0  0  0  0  0
    8.9561  -15.4959   20.3465 N   0  0  0  0  0  0  0  0  0  0  0  0
    9.3119  -15.4522   22.6875 C   0  0  0  0  0  0  0  0  0  0  0  0
   10.2758  -14.6578   22.8296 O   0  0  0  0  0  0  0  0  0  0  0  0
    7.5618  -12.1066   25.2548 C   0  0  0  0  0  0  0  0  0  0  0  0
    6.5801  -13.2442   25.1580 C   0  0  2  0  0  0  0  0  0  0  0  0
    5.4550  -12.9454   26.1277 C   0  0  0  0  0  0  0  0  0  0  0  0
    7.1515  -14.5703   25.5274 C   0  0  0  0  0  0  0  0  0  0  0  0
    8.5818  -14.7573   25.0103 C   0  0  2  0  0  0  0  0  0  0  0  0
    8.3871  -15.5031   23.7668 N   0  0  0  0  0  0  0  0  0  0  0  0
    9.3101  -15.5520   26.0098 C   0  0  0  0  0  0  0  0  0  0  0  0
    9.2156  -16.7996   25.9268 O   0  0  0  0  0  0  0  0  0  0  0  0
   10.0970  -14.9868   27.0378 N   0  0  0  0  0  0  0  0  0  0  0  0
   10.2870  -13.6105   27.4408 C   0  0  0  0  0  0  0  0  0  0  0  0
   10.4171  -13.7624   28.9449 C   0  0  0  0  0  0  0  0  0  0  0  0
   11.4425  -14.8988   28.9959 C   0  0  0  0  0  0  0  0  0  0  0  0
   10.9176  -15.8142   27.9416 C   0  0  1  0  0  0  0  0  0  0  0  0
    9.9906  -16.7645   28.6037 C   0  0  0  0  0  0  0  0  0  0  0  0
   10.4363  -17.7655   29.4380 O   0  0  0  0  0  0  0  0  0  0  0  0
    8.7599  -16.6495   28.3940 O   0  0  0  0  0  0  0  0  0  0  0  0
  2  1  1  6
  2  3  1  0
  4  2  1  0
  4  6  1  0
  4  5  1  6
  6  7  2  0
  9 11  1  0
  9  8  1  1
 10  9  1  0
 12 11  1  1
 12 14  1  0
 13  6  1  0
 13 12  1  0
 14 15  2  0
 16 17  1  0
 16 14  1  0
 18 17  1  0
 19 20  1  0
 19 18  1  0
 20 16  1  0
 21 22  1  0
 20 21  1  1
 23 21  2  0
M  END
$$$$
