VLP.pdb
     RDKit          3D

 23 23  0  0  1  0  0  0  0  0999 V2000
    9.1488  -18.5473   22.7332 C   0  0  0  0  0  0  0  0  0  0  0  0
    9.7965  -17.8665   21.5806 C   0  0  2  0  0  0  0  0  0  0  0  0
   11.3058  -17.9816   21.7623 C   0  0  0  0  0  0  0  0  0  0  0  0
    9.4571  -16.4152   21.4452 C   0  0  2  0  0  0  0  0  0  0  0  0
   10.1267  -15.7747   20.3459 N   0  0  0  0  0  0  0  0  0  0  0  0
    9.6552  -15.6290   22.6623 C   0  0  0  0  0  0  0  0  0  0  0  0
   10.7377  -15.1100   23.0355 O   0  0  0  0  0  0  0  0  0  0  0  0
    5.5671  -13.0092   26.5088 C   0  0  0  0  0  0  0  0  0  0  0  0
    6.9957  -13.2510   26.0992 C   0  0  2  0  0  0  0  0  0  0  0  0
    7.5493  -11.9275   25.6118 C   0  0  0  0  0  0  0  0  0  0  0  0
    7.1498  -14.2374   24.9926 C   0  0  0  0  0  0  0  0  0  0  0  0
    8.6155  -14.5977   24.7279 C   0  0  2  0  0  0  0  0  0  0  0  0
    8.5394  -15.4173   23.5184 N   0  0  0  0  0  0  0  0  0  0  0  0
    9.0917  -15.3762   25.8802 C   0  0  0  0  0  0  0  0  0  0  0  0
    8.6986  -16.5637   25.9693 O   0  0  0  0  0  0  0  0  0  0  0  0
    9.9557  -14.8598   26.8714 N   0  0  0  0  0  0  0  0  0  0  0  0
   10.3165  -13.4982   27.2010 C   0  0  0  0  0  0  0  0  0  0  0  0
   10.4485  -13.5887   28.7098 C   0  0  0  0  0  0  0  0  0  0  0  0
   11.3295  -14.8373   28.8115 C   0  0  0  0  0  0  0  0  0  0  0  0
   10.6828  -15.7341   27.8103 C   0  0  1  0  0  0  0  0  0  0  0  0
    9.6572  -16.5301   28.5281 C   0  0  0  0  0  0  0  0  0  0  0  0
    9.9902  -17.5403   29.4028 O   0  0  0  0  0  0  0  0  0  0  0  0
    8.4467  -16.2714   28.3288 O   0  0  0  0  0  0  0  0  0  0  0  0
  2  1  1  1
  2  3  1  0
  4  2  1  0
  4  6  1  0
  4  5  1  6
  6  7  2  0
  9 11  1  0
  9  8  1  6
 10  9  1  0
 12 11  1  1
 12 14  1  0
 13  6  1  0
 13 12  1  0
 14 15  2  0
 16 17  1  0
 16 14  1  0
 18 17  1  0
 19 20  1  0
 19 18  1  0
 20 16  1  0
 21 22  1  0
 20 21  1  1
 23 21  2  0
M  END
$$$$
