VLP.pdb
     RDKit          3D

 23 23  0  0  1  0  0  0  0  0999 V2000
   10.8680  -17.8240   21.5333 C   0  0  0  0  0  0  0  0  0  0  0  0
    9.3864  -17.7333   21.6249 C   0  0  2  0  0  0  0  0  0  0  0  0
    8.8006  -18.5170   20.4557 C   0  0  0  0  0  0  0  0  0  0  0  0
    8.8441  -16.3398   21.5646 C   0  0  2  0  0  0  0  0  0  0  0  0
    9.1808  -15.6505   20.3488 N   0  0  0  0  0  0  0  0  0  0  0  0
    9.1914  -15.5027   22.7125 C   0  0  0  0  0  0  0  0  0  0  0  0
   10.1787  -14.7280   22.7867 O   0  0  0  0  0  0  0  0  0  0  0  0
    7.5182  -12.0801   25.3272 C   0  0  0  0  0  0  0  0  0  0  0  0
    6.5983  -13.2672   25.2190 C   0  0  2  0  0  0  0  0  0  0  0  0
    5.4164  -12.9992   26.1284 C   0  0  0  0  0  0  0  0  0  0  0  0
    7.2155  -14.5530   25.6515 C   0  0  0  0  0  0  0  0  0  0  0  0
    8.6154  -14.7588   25.0632 C   0  0  2  0  0  0  0  0  0  0  0  0
    8.3538  -15.5502   23.8609 N   0  0  0  0  0  0  0  0  0  0  0  0
    9.3996  -15.5158   26.0495 C   0  0  0  0  0  0  0  0  0  0  0  0
    9.4610  -16.7591   25.8979 O   0  0  0  0  0  0  0  0  0  0  0  0
   10.0752  -14.9196   27.1374 N   0  0  0  0  0  0  0  0  0  0  0  0
   10.0885  -13.5538   27.6138 C   0  0  0  0  0  0  0  0  0  0  0  0
   10.1768  -13.7688   29.1132 C   0  0  0  0  0  0  0  0  0  0  0  0
   11.3244  -14.7821   29.1555 C   0  0  0  0  0  0  0  0  0  0  0  0
   10.9505  -15.6946   28.0364 C   0  0  1  0  0  0  0  0  0  0  0  0
   10.1151  -16.7778   28.6103 C   0  0  0  0  0  0  0  0  0  0  0  0
   10.6387  -17.7561   29.4260 O   0  0  0  0  0  0  0  0  0  0  0  0
    8.8908  -16.8002   28.3410 O   0  0  0  0  0  0  0  0  0  0  0  0
  2  1  1  6
  2  3  1  0
  4  2  1  0
  4  6  1  0
  4  5  1  6
  6  7  2  0
  9 11  1  0
  9  8  1  1
 10  9  1  0
 12 11  1  1
 12 14  1  0
 13  6  1  0
 13 12  1  0
 14 15  2  0
 16 17  1  0
 16 14  1  0
 18 17  1  0
 19 20  1  0
 19 18  1  0
 20 16  1  0
 21 22  1  0
 20 21  1  1
 23 21  2  0
M  END
$$$$
