VLP.pdb
     RDKit          3D

 23 23  0  0  1  0  0  0  0  0999 V2000
    9.5171  -17.9509   19.9542 C   0  0  0  0  0  0  0  0  0  0  0  0
    9.8375  -17.1691   21.1780 C   0  0  2  0  0  0  0  0  0  0  0  0
    9.7933  -18.1256   22.3643 C   0  0  0  0  0  0  0  0  0  0  0  0
    8.8952  -16.0409   21.4592 C   0  0  2  0  0  0  0  0  0  0  0  0
    8.7564  -15.1278   20.3575 N   0  0  0  0  0  0  0  0  0  0  0  0
    9.1918  -15.2916   22.6797 C   0  0  0  0  0  0  0  0  0  0  0  0
   10.1409  -14.4819   22.8341 O   0  0  0  0  0  0  0  0  0  0  0  0
    7.4363  -12.1151   25.3418 C   0  0  0  0  0  0  0  0  0  0  0  0
    6.4905  -13.2800   25.2173 C   0  0  2  0  0  0  0  0  0  0  0  0
    5.3416  -13.0249   26.1717 C   0  0  0  0  0  0  0  0  0  0  0  0
    7.0949  -14.5925   25.5825 C   0  0  0  0  0  0  0  0  0  0  0  0
    8.5279  -14.7437   25.0609 C   0  0  2  0  0  0  0  0  0  0  0  0
    8.3462  -15.4771   23.8082 N   0  0  0  0  0  0  0  0  0  0  0  0
    9.2738  -15.5364   26.0489 C   0  0  0  0  0  0  0  0  0  0  0  0
    9.2011  -16.7846   25.9524 O   0  0  0  0  0  0  0  0  0  0  0  0
   10.0543  -14.9688   27.0805 N   0  0  0  0  0  0  0  0  0  0  0  0
   10.2045  -13.5964   27.5123 C   0  0  0  0  0  0  0  0  0  0  0  0
   10.3575  -13.7773   29.0110 C   0  0  0  0  0  0  0  0  0  0  0  0
   11.4197  -14.8804   29.0247 C   0  0  0  0  0  0  0  0  0  0  0  0
   10.9120  -15.7889   27.9561 C   0  0  1  0  0  0  0  0  0  0  0  0
   10.0244  -16.7834   28.6070 C   0  0  0  0  0  0  0  0  0  0  0  0
   10.5104  -17.7753   29.4296 O   0  0  0  0  0  0  0  0  0  0  0  0
    8.7899  -16.7155   28.3986 O   0  0  0  0  0  0  0  0  0  0  0  0
  2  1  1  6
  2  3  1  0
  4  2  1  0
  4  6  1  0
  4  5  1  6
  6  7  2  0
  9 11  1  0
  9  8  1  1
 10  9  1  0
 12 11  1  1
 12 14  1  0
 13  6  1  0
 13 12  1  0
 14 15  2  0
 16 17  1  0
 16 14  1  0
 18 17  1  0
 19 20  1  0
 19 18  1  0
 20 16  1  0
 21 22  1  0
 20 21  1  1
 23 21  2  0
M  END
$$$$
