VLP.pdb
     RDKit          3D

 23 23  0  0  1  0  0  0  0  0999 V2000
    4.2533  -20.1457   25.3629 C   0  0  0  0  0  0  0  0  0  0  0  0
    5.2100  -20.4392   24.2628 C   0  0  2  0  0  0  0  0  0  0  0  0
    5.5331  -21.9282   24.3139 C   0  0  0  0  0  0  0  0  0  0  0  0
    6.4996  -19.6839   24.3426 C   0  0  2  0  0  0  0  0  0  0  0  0
    7.2245  -19.9234   25.5608 N   0  0  0  0  0  0  0  0  0  0  0  0
    6.3742  -18.2432   24.1244 C   0  0  0  0  0  0  0  0  0  0  0  0
    5.7552  -17.6930   23.1786 O   0  0  0  0  0  0  0  0  0  0  0  0
    5.9984  -13.6288   25.5474 C   0  0  0  0  0  0  0  0  0  0  0  0
    6.9408  -14.1873   26.5804 C   0  0  2  0  0  0  0  0  0  0  0  0
    7.9625  -13.1093   26.8803 C   0  0  0  0  0  0  0  0  0  0  0  0
    7.6841  -15.3982   26.1304 C   0  0  0  0  0  0  0  0  0  0  0  0
    7.1742  -15.9345   24.7886 C   0  0  2  0  0  0  0  0  0  0  0  0
    6.9992  -17.3631   25.0505 N   0  0  0  0  0  0  0  0  0  0  0  0
    8.2255  -15.6920   23.7902 C   0  0  0  0  0  0  0  0  0  0  0  0
    9.3564  -16.1821   24.0209 O   0  0  0  0  0  0  0  0  0  0  0  0
    8.0246  -14.9487   22.6058 N   0  0  0  0  0  0  0  0  0  0  0  0
    6.9240  -14.1086   22.1869 C   0  0  0  0  0  0  0  0  0  0  0  0
    7.6598  -13.0230   21.4240 C   0  0  0  0  0  0  0  0  0  0  0  0
    8.5538  -13.8976   20.5402 C   0  0  0  0  0  0  0  0  0  0  0  0
    9.0209  -14.9217   21.5189 C   0  0  1  0  0  0  0  0  0  0  0  0
   10.2834  -14.4196   22.1145 C   0  0  0  0  0  0  0  0  0  0  0  0
   11.4713  -14.4081   21.4177 O   0  0  0  0  0  0  0  0  0  0  0  0
   10.2645  -13.9922   23.2929 O   0  0  0  0  0  0  0  0  0  0  0  0
  2  1  1  1
  2  3  1  0
  4  2  1  0
  4  6  1  0
  4  5  1  1
  6  7  2  0
  9 11  1  0
  9  8  1  6
 10  9  1  0
 12 11  1  1
 12 14  1  0
 13  6  1  0
 13 12  1  0
 14 15  2  0
 16 17  1  0
 16 14  1  0
 18 17  1  0
 19 20  1  0
 19 18  1  0
 20 16  1  0
 21 22  1  0
 20 21  1  1
 23 21  2  0
M  END
$$$$
