VLP.pdb
     RDKit          3D

 23 23  0  0  1  0  0  0  0  0999 V2000
    7.9220  -20.2791   23.2296 C   0  0  0  0  0  0  0  0  0  0  0  0
    7.4850  -20.2194   24.6499 C   0  0  2  0  0  0  0  0  0  0  0  0
    7.4358  -21.6478   25.1805 C   0  0  0  0  0  0  0  0  0  0  0  0
    6.1379  -19.6021   24.8603 C   0  0  2  0  0  0  0  0  0  0  0  0
    5.0734  -20.3295   24.2241 N   0  0  0  0  0  0  0  0  0  0  0  0
    6.0527  -18.1896   24.4909 C   0  0  0  0  0  0  0  0  0  0  0  0
    5.5055  -17.7310   23.4562 O   0  0  0  0  0  0  0  0  0  0  0  0
    8.2991  -13.0803   27.2080 C   0  0  0  0  0  0  0  0  0  0  0  0
    7.4070  -13.6879   26.1583 C   0  0  2  0  0  0  0  0  0  0  0  0
    6.0443  -13.0416   26.3034 C   0  0  0  0  0  0  0  0  0  0  0  0
    7.2231  -15.1603   26.2982 C   0  0  0  0  0  0  0  0  0  0  0  0
    6.8372  -15.8315   24.9758 C   0  0  2  0  0  0  0  0  0  0  0  0
    6.6328  -17.2275   25.3630 N   0  0  0  0  0  0  0  0  0  0  0  0
    7.9774  -15.6853   24.0596 C   0  0  0  0  0  0  0  0  0  0  0  0
    9.0453  -16.2591   24.3803 O   0  0  0  0  0  0  0  0  0  0  0  0
    7.9266  -14.9446   22.8579 N   0  0  0  0  0  0  0  0  0  0  0  0
    6.9543  -13.9906   22.3706 C   0  0  0  0  0  0  0  0  0  0  0  0
    7.8502  -13.0104   21.6365 C   0  0  0  0  0  0  0  0  0  0  0  0
    8.6819  -13.9975   20.8123 C   0  0  0  0  0  0  0  0  0  0  0  0
    8.9750  -15.0514   21.8263 C   0  0  1  0  0  0  0  0  0  0  0  0
   10.2542  -14.6878   22.4838 C   0  0  0  0  0  0  0  0  0  0  0  0
   11.4663  -14.7839   21.8371 O   0  0  0  0  0  0  0  0  0  0  0  0
   10.2268  -14.2797   23.6689 O   0  0  0  0  0  0  0  0  0  0  0  0
  2  1  1  6
  2  3  1  0
  4  2  1  0
  4  6  1  0
  4  5  1  6
  6  7  2  0
  9 11  1  0
  9  8  1  1
 10  9  1  0
 12 11  1  1
 12 14  1  0
 13  6  1  0
 13 12  1  0
 14 15  2  0
 16 17  1  0
 16 14  1  0
 18 17  1  0
 19 20  1  0
 19 18  1  0
 20 16  1  0
 21 22  1  0
 20 21  1  1
 23 21  2  0
M  END
$$$$
