VLP.pdb
     RDKit          3D

 23 23  0  0  1  0  0  0  0  0999 V2000
    7.8132  -20.5406   24.3015 C   0  0  0  0  0  0  0  0  0  0  0  0
    6.6730  -20.1161   25.1567 C   0  0  2  0  0  0  0  0  0  0  0  0
    5.9318  -21.3728   25.5989 C   0  0  0  0  0  0  0  0  0  0  0  0
    5.6895  -19.2145   24.4787 C   0  0  2  0  0  0  0  0  0  0  0  0
    5.0334  -19.8296   23.3571 N   0  0  0  0  0  0  0  0  0  0  0  0
    6.2321  -17.9175   24.0757 C   0  0  0  0  0  0  0  0  0  0  0  0
    6.5694  -17.5909   22.9096 O   0  0  0  0  0  0  0  0  0  0  0  0
    7.4680  -12.7722   27.3628 C   0  0  0  0  0  0  0  0  0  0  0  0
    7.5203  -13.5208   26.0574 C   0  0  2  0  0  0  0  0  0  0  0  0
    6.7387  -12.7074   25.0459 C   0  0  0  0  0  0  0  0  0  0  0  0
    6.9071  -14.8781   26.1128 C   0  0  0  0  0  0  0  0  0  0  0  0
    7.1628  -15.6897   24.8384 C   0  0  2  0  0  0  0  0  0  0  0  0
    6.4036  -16.9181   25.0730 N   0  0  0  0  0  0  0  0  0  0  0  0
    8.6075  -15.9516   24.7666 C   0  0  0  0  0  0  0  0  0  0  0  0
    9.1653  -16.3673   25.8100 O   0  0  0  0  0  0  0  0  0  0  0  0
    9.3809  -15.7621   23.5998 N   0  0  0  0  0  0  0  0  0  0  0  0
    9.0662  -15.1106   22.3472 C   0  0  0  0  0  0  0  0  0  0  0  0
   10.4057  -14.4902   21.9965 C   0  0  0  0  0  0  0  0  0  0  0  0
   11.3112  -15.7062   22.2132 C   0  0  0  0  0  0  0  0  0  0  0  0
   10.7675  -16.2521   23.4904 C   0  0  1  0  0  0  0  0  0  0  0  0
   11.5274  -15.6230   24.5983 C   0  0  0  0  0  0  0  0  0  0  0  0
   12.8324  -15.9614   24.8797 O   0  0  0  0  0  0  0  0  0  0  0  0
   10.9586  -14.7541   25.3007 O   0  0  0  0  0  0  0  0  0  0  0  0
  2  1  1  6
  2  3  1  0
  4  2  1  0
  4  6  1  0
  4  5  1  6
  6  7  2  0
  9 11  1  0
  9  8  1  1
 10  9  1  0
 12 11  1  1
 12 14  1  0
 13  6  1  0
 13 12  1  0
 14 15  2  0
 16 17  1  0
 16 14  1  0
 18 17  1  0
 19 20  1  0
 19 18  1  0
 20 16  1  0
 21 22  1  0
 20 21  1  1
 23 21  2  0
M  END
$$$$
