VLP.pdb
     RDKit          3D

 23 23  0  0  1  0  0  0  0  0999 V2000
    7.2125  -21.6479   24.8470 C   0  0  0  0  0  0  0  0  0  0  0  0
    7.0856  -20.2956   24.2413 C   0  0  2  0  0  0  0  0  0  0  0  0
    8.3804  -19.5400   24.5182 C   0  0  0  0  0  0  0  0  0  0  0  0
    5.9511  -19.4791   24.7761 C   0  0  2  0  0  0  0  0  0  0  0  0
    4.6598  -20.0406   24.4859 N   0  0  0  0  0  0  0  0  0  0  0  0
    5.9730  -18.0728   24.3753 C   0  0  0  0  0  0  0  0  0  0  0  0
    5.4950  -17.6029   23.3117 O   0  0  0  0  0  0  0  0  0  0  0  0
    8.2823  -13.0117   27.0757 C   0  0  0  0  0  0  0  0  0  0  0  0
    7.3195  -13.5898   26.0728 C   0  0  2  0  0  0  0  0  0  0  0  0
    5.9817  -12.9155   26.2996 C   0  0  0  0  0  0  0  0  0  0  0  0
    7.1112  -15.0591   26.2104 C   0  0  0  0  0  0  0  0  0  0  0  0
    6.8227  -15.7390   24.8678 C   0  0  2  0  0  0  0  0  0  0  0  0
    6.5837  -17.1311   25.2488 N   0  0  0  0  0  0  0  0  0  0  0  0
    8.0290  -15.6041   24.0387 C   0  0  0  0  0  0  0  0  0  0  0  0
    9.0914  -16.0922   24.4921 O   0  0  0  0  0  0  0  0  0  0  0  0
    8.0465  -14.9644   22.7794 N   0  0  0  0  0  0  0  0  0  0  0  0
    7.0975  -14.0678   22.1563 C   0  0  0  0  0  0  0  0  0  0  0  0
    8.0280  -13.1373   21.4010 C   0  0  0  0  0  0  0  0  0  0  0  0
    8.9194  -14.1756   20.7135 C   0  0  0  0  0  0  0  0  0  0  0  0
    9.1586  -15.1391   21.8267 C   0  0  1  0  0  0  0  0  0  0  0  0
   10.3904  -14.7044   22.5298 C   0  0  0  0  0  0  0  0  0  0  0  0
   11.6456  -14.8828   21.9920 O   0  0  0  0  0  0  0  0  0  0  0  0
   10.2810  -14.1563   23.6521 O   0  0  0  0  0  0  0  0  0  0  0  0
  2  1  1  1
  2  3  1  0
  4  2  1  0
  4  6  1  0
  4  5  1  6
  6  7  2  0
  9 11  1  0
  9  8  1  1
 10  9  1  0
 12 11  1  1
 12 14  1  0
 13  6  1  0
 13 12  1  0
 14 15  2  0
 16 17  1  0
 16 14  1  0
 18 17  1  0
 19 20  1  0
 19 18  1  0
 20 16  1  0
 21 22  1  0
 20 21  1  1
 23 21  2  0
M  END
$$$$
