VLP.pdb
     RDKit          3D

 23 23  0  0  1  0  0  0  0  0999 V2000
    4.5441  -20.1379   24.7236 C   0  0  0  0  0  0  0  0  0  0  0  0
    5.6466  -20.3362   23.7455 C   0  0  2  0  0  0  0  0  0  0  0  0
    6.1467  -21.7687   23.8943 C   0  0  0  0  0  0  0  0  0  0  0  0
    6.8140  -19.4181   23.9303 C   0  0  2  0  0  0  0  0  0  0  0  0
    7.4642  -19.5740   25.2030 N   0  0  0  0  0  0  0  0  0  0  0  0
    6.5165  -18.0041   23.7042 C   0  0  0  0  0  0  0  0  0  0  0  0
    5.7868  -17.5424   22.7906 O   0  0  0  0  0  0  0  0  0  0  0  0
    8.2277  -12.7872   26.6211 C   0  0  0  0  0  0  0  0  0  0  0  0
    7.3661  -13.5118   25.6212 C   0  0  2  0  0  0  0  0  0  0  0  0
    5.9239  -13.2668   26.0158 C   0  0  0  0  0  0  0  0  0  0  0  0
    7.5801  -14.9865   25.5935 C   0  0  0  0  0  0  0  0  0  0  0  0
    7.1474  -15.6171   24.2656 C   0  0  2  0  0  0  0  0  0  0  0  0
    7.0914  -17.0444   24.5822 N   0  0  0  0  0  0  0  0  0  0  0  0
    8.1949  -15.3226   23.2773 C   0  0  0  0  0  0  0  0  0  0  0  0
    9.3059  -15.8814   23.4385 O   0  0  0  0  0  0  0  0  0  0  0  0
    8.0114  -14.4579   22.1754 N   0  0  0  0  0  0  0  0  0  0  0  0
    6.9316  -13.5526   21.8481 C   0  0  0  0  0  0  0  0  0  0  0  0
    7.6934  -12.4134   21.1970 C   0  0  0  0  0  0  0  0  0  0  0  0
    8.5645  -13.2152   20.2256 C   0  0  0  0  0  0  0  0  0  0  0  0
    9.0070  -14.3448   21.0934 C   0  0  1  0  0  0  0  0  0  0  0  0
   10.2822  -13.9373   21.7325 C   0  0  0  0  0  0  0  0  0  0  0  0
   11.4706  -13.8913   21.0381 O   0  0  0  0  0  0  0  0  0  0  0  0
   10.2738  -13.6249   22.9467 O   0  0  0  0  0  0  0  0  0  0  0  0
  2  1  1  1
  2  3  1  0
  4  2  1  0
  4  6  1  0
  4  5  1  1
  6  7  2  0
  9 11  1  0
  9  8  1  1
 10  9  1  0
 12 11  1  1
 12 14  1  0
 13  6  1  0
 13 12  1  0
 14 15  2  0
 16 17  1  0
 16 14  1  0
 18 17  1  0
 19 20  1  0
 19 18  1  0
 20 16  1  0
 21 22  1  0
 20 21  1  1
 23 21  2  0
M  END
$$$$
