PAK.pdb
     RDKit          3D

 22 22  0  0  1  0  0  0  0  0999 V2000
   26.1865  -19.8156  -16.0604 N   0  0  0  0  0  0  0  0  0  0  0  0
   26.7741  -18.5811  -16.5411 C   0  0  0  0  0  0  0  0  0  0  0  0
   27.8324  -18.3288  -15.4666 C   0  0  0  0  0  0  0  0  0  0  0  0
   26.9952  -18.5603  -14.2108 C   0  0  0  0  0  0  0  0  0  0  0  0
   26.1772  -19.7779  -14.6350 C   0  0  1  0  0  0  0  0  0  0  0  0
   24.7875  -19.6322  -14.1517 C   0  0  0  0  0  0  0  0  0  0  0  0
   24.5691  -19.4867  -12.9424 O   0  0  0  0  0  0  0  0  0  0  0  0
   21.4569  -18.7245  -15.5909 C   0  0  0  0  0  0  0  0  0  0  0  0
   22.3186  -19.4420  -14.5848 C   0  0  2  0  0  0  0  0  0  0  0  0
   23.6590  -19.6513  -15.0292 N   0  0  0  0  0  0  0  0  0  0  0  0
   21.6278  -20.7249  -14.2406 C   0  0  0  0  0  0  0  0  0  0  0  0
   21.7837  -21.7659  -14.9317 O   0  0  0  0  0  0  0  0  0  0  0  0
   20.7697  -20.8116  -13.1180 N   0  0  0  0  0  0  0  0  0  0  0  0
   20.2083  -22.0534  -12.6237 C   0  0  1  0  0  0  0  0  0  0  0  0
   20.0090  -21.9859  -11.1152 C   0  0  0  0  0  0  0  0  0  0  0  0
   19.5667  -23.3212  -10.5695 C   0  0  0  0  0  0  0  0  0  0  0  0
   19.5114  -23.3776   -9.0893 C   0  0  0  0  0  0  0  0  0  0  0  0
   19.1513  -24.7240   -8.5277 C   0  0  0  0  0  0  0  0  0  0  0  0
   19.1107  -24.7090   -7.0902 N   0  0  0  0  0  0  0  0  0  0  0  0
   18.9281  -22.2786  -13.3304 C   0  0  0  0  0  0  0  0  0  0  0  0
   18.1003  -21.3728  -13.6050 O   0  0  0  0  0  0  0  0  0  0  0  0
   18.6069  -23.5708  -13.7222 O   0  0  0  0  0  0  0  0  0  0  0  0
  1  5  1  0
  1  2  1  0
  2  3  1  0
  3  4  1  0
  5  4  1  0
  6 10  1  0
  5  6  1  6
  7  6  2  0
  9 11  1  0
  9  8  1  6
  9 10  1  0
 11 13  1  0
 12 11  2  0
 13 14  1  0
 14 15  1  1
 15 16  1  0
 16 17  1  0
 18 17  1  0
 19 18  1  0
 20 14  1  0
 21 20  2  0
 22 20  1  0
M  END
$$$$
