PAK.pdb
     RDKit          3D

 22 22  0  0  1  0  0  0  0  0999 V2000
   24.7686  -15.0288  -18.5837 N   0  0  0  0  0  0  0  0  0  0  0  0
   23.6742  -15.5999  -19.3429 C   0  0  0  0  0  0  0  0  0  0  0  0
   23.8258  -14.8560  -20.6702 C   0  0  0  0  0  0  0  0  0  0  0  0
   23.9858  -13.4271  -20.1562 C   0  0  0  0  0  0  0  0  0  0  0  0
   24.8989  -13.6580  -18.9542 C   0  0  1  0  0  0  0  0  0  0  0  0
   24.4658  -12.7977  -17.8324 C   0  0  0  0  0  0  0  0  0  0  0  0
   23.2714  -12.7611  -17.5110 O   0  0  0  0  0  0  0  0  0  0  0  0
   26.1055  -10.4297  -15.3341 C   0  0  0  0  0  0  0  0  0  0  0  0
   24.9597  -11.0794  -16.0653 C   0  0  2  0  0  0  0  0  0  0  0  0
   25.3764  -11.9885  -17.0839 N   0  0  0  0  0  0  0  0  0  0  0  0
   24.0944   -9.9822  -16.6029 C   0  0  0  0  0  0  0  0  0  0  0  0
   24.2908   -9.4835  -17.7424 O   0  0  0  0  0  0  0  0  0  0  0  0
   23.0184   -9.4645  -15.8427 N   0  0  0  0  0  0  0  0  0  0  0  0
   22.1589   -8.3855  -16.2887 C   0  0  1  0  0  0  0  0  0  0  0  0
   20.8276   -8.9340  -16.7850 C   0  0  0  0  0  0  0  0  0  0  0  0
   19.9440   -7.8232  -17.2968 C   0  0  0  0  0  0  0  0  0  0  0  0
   18.5824   -8.2661  -17.6806 C   0  0  0  0  0  0  0  0  0  0  0  0
   17.7008   -7.1778  -18.2247 C   0  0  0  0  0  0  0  0  0  0  0  0
   16.3516   -7.6339  -18.4243 N   0  0  0  0  0  0  0  0  0  0  0  0
   21.9736   -7.4605  -15.1489 C   0  0  0  0  0  0  0  0  0  0  0  0
   21.5143   -6.2942  -15.2491 O   0  0  0  0  0  0  0  0  0  0  0  0
   22.3260   -7.8960  -13.8791 O   0  0  0  0  0  0  0  0  0  0  0  0
  1  5  1  0
  1  2  1  0
  2  3  1  0
  3  4  1  0
  5  4  1  0
  6 10  1  0
  5  6  1  1
  7  6  2  0
  9 11  1  0
  9  8  1  6
  9 10  1  0
 11 13  1  0
 12 11  2  0
 13 14  1  0
 14 15  1  1
 15 16  1  0
 16 17  1  0
 18 17  1  0
 19 18  1  0
 20 14  1  0
 21 20  2  0
 22 20  1  0
M  END
$$$$
