PAK.pdb
     RDKit          3D

 22 22  0  0  1  0  0  0  0  0999 V2000
   25.2234  -19.5247  -15.7154 N   0  0  0  0  0  0  0  0  0  0  0  0
   25.8694  -18.2702  -15.3849 C   0  0  0  0  0  0  0  0  0  0  0  0
   26.3049  -17.7967  -16.7721 C   0  0  0  0  0  0  0  0  0  0  0  0
   26.9346  -19.0817  -17.3049 C   0  0  0  0  0  0  0  0  0  0  0  0
   25.9350  -20.1192  -16.7988 C   0  0  1  0  0  0  0  0  0  0  0  0
   26.6628  -21.3132  -16.3184 C   0  0  0  0  0  0  0  0  0  0  0  0
   27.1637  -21.3141  -15.1868 O   0  0  0  0  0  0  0  0  0  0  0  0
   26.6169  -24.9281  -16.8936 C   0  0  0  0  0  0  0  0  0  0  0  0
   27.4286  -23.6879  -16.6237 C   0  0  2  0  0  0  0  0  0  0  0  0
   26.8208  -22.4921  -17.1117 N   0  0  0  0  0  0  0  0  0  0  0  0
   28.7901  -23.9109  -17.2053 C   0  0  0  0  0  0  0  0  0  0  0  0
   29.0934  -23.4983  -18.3557 O   0  0  0  0  0  0  0  0  0  0  0  0
   29.7900  -24.5983  -16.4760 N   0  0  0  0  0  0  0  0  0  0  0  0
   31.1282  -24.8463  -16.9753 C   0  0  1  0  0  0  0  0  0  0  0  0
   31.9901  -25.4882  -15.8960 C   0  0  0  0  0  0  0  0  0  0  0  0
   33.3521  -25.8476  -16.4367 C   0  0  0  0  0  0  0  0  0  0  0  0
   34.2142  -26.5643  -15.4669 C   0  0  0  0  0  0  0  0  0  0  0  0
   35.6033  -26.8551  -15.9607 C   0  0  0  0  0  0  0  0  0  0  0  0
   36.4626  -27.3079  -14.9002 N   0  0  0  0  0  0  0  0  0  0  0  0
   31.0079  -25.7192  -18.1639 C   0  0  0  0  0  0  0  0  0  0  0  0
   30.1987  -26.6766  -18.2621 O   0  0  0  0  0  0  0  0  0  0  0  0
   31.8372  -25.4762  -19.2500 O   0  0  0  0  0  0  0  0  0  0  0  0
  1  5  1  0
  1  2  1  0
  2  3  1  0
  3  4  1  0
  5  4  1  0
  6 10  1  0
  5  6  1  1
  7  6  2  0
  9 11  1  0
  9  8  1  6
  9 10  1  0
 11 13  1  0
 12 11  2  0
 13 14  1  0
 14 15  1  1
 15 16  1  0
 16 17  1  0
 18 17  1  0
 19 18  1  0
 20 14  1  0
 21 20  2  0
 22 20  1  0
M  END
$$$$
