PAK.pdb
     RDKit          3D

 22 22  0  0  1  0  0  0  0  0999 V2000
   22.8928  -18.5498  -18.0974 N   0  0  0  0  0  0  0  0  0  0  0  0
   23.6719  -17.3765  -18.4392 C   0  0  0  0  0  0  0  0  0  0  0  0
   25.0877  -17.9534  -18.4123 C   0  0  0  0  0  0  0  0  0  0  0  0
   25.0391  -18.7128  -17.0884 C   0  0  0  0  0  0  0  0  0  0  0  0
   23.6413  -19.3233  -17.1620 C   0  0  1  0  0  0  0  0  0  0  0  0
   22.9996  -19.2503  -15.8320 C   0  0  0  0  0  0  0  0  0  0  0  0
   23.5382  -19.7928  -14.8589 O   0  0  0  0  0  0  0  0  0  0  0  0
   20.3835  -17.1921  -14.1171 C   0  0  0  0  0  0  0  0  0  0  0  0
   21.1412  -18.4774  -14.3261 C   0  0  2  0  0  0  0  0  0  0  0  0
   21.7621  -18.5704  -15.6081 N   0  0  0  0  0  0  0  0  0  0  0  0
   20.1872  -19.6034  -14.0743 C   0  0  0  0  0  0  0  0  0  0  0  0
   19.5152  -20.1213  -15.0049 O   0  0  0  0  0  0  0  0  0  0  0  0
   20.0069  -20.1278  -12.7718 N   0  0  0  0  0  0  0  0  0  0  0  0
   19.1041  -21.2175  -12.4568 C   0  0  1  0  0  0  0  0  0  0  0  0
   19.4544  -21.8273  -11.1059 C   0  0  0  0  0  0  0  0  0  0  0  0
   18.4983  -22.9396  -10.7522 C   0  0  0  0  0  0  0  0  0  0  0  0
   18.8655  -23.6799   -9.5216 C   0  0  0  0  0  0  0  0  0  0  0  0
   17.8686  -24.7209   -9.0969 C   0  0  0  0  0  0  0  0  0  0  0  0
   18.2322  -25.3286   -7.8453 N   0  0  0  0  0  0  0  0  0  0  0  0
   17.7275  -20.6754  -12.4667 C   0  0  0  0  0  0  0  0  0  0  0  0
   17.4077  -19.5429  -12.0237 O   0  0  0  0  0  0  0  0  0  0  0  0
   16.7117  -21.4584  -12.9973 O   0  0  0  0  0  0  0  0  0  0  0  0
  1  5  1  0
  1  2  1  0
  2  3  1  0
  3  4  1  0
  5  4  1  0
  6 10  1  0
  5  6  1  1
  7  6  2  0
  9 11  1  0
  9  8  1  6
  9 10  1  0
 11 13  1  0
 12 11  2  0
 13 14  1  0
 14 15  1  1
 15 16  1  0
 16 17  1  0
 18 17  1  0
 19 18  1  0
 20 14  1  0
 21 20  2  0
 22 20  1  0
M  END
$$$$
