PAK.pdb
     RDKit          3D

 22 22  0  0  1  0  0  0  0  0999 V2000
   17.9623  -15.8937    2.5908 N   0  0  0  0  0  0  0  0  0  0  0  0
   17.1908  -14.9428    1.8157 C   0  0  0  0  0  0  0  0  0  0  0  0
   17.8132  -13.6241    2.2760 C   0  0  0  0  0  0  0  0  0  0  0  0
   17.8136  -13.8447    3.7869 C   0  0  0  0  0  0  0  0  0  0  0  0
   18.2431  -15.3082    3.8604 C   0  0  1  0  0  0  0  0  0  0  0  0
   17.4633  -16.0000    4.9090 C   0  0  0  0  0  0  0  0  0  0  0  0
   17.4548  -15.5546    6.0636 O   0  0  0  0  0  0  0  0  0  0  0  0
   14.9757  -18.8633    5.1179 C   0  0  0  0  0  0  0  0  0  0  0  0
   15.9848  -17.8873    5.6646 C   0  0  2  0  0  0  0  0  0  0  0  0
   16.7023  -17.1825    4.6515 N   0  0  0  0  0  0  0  0  0  0  0  0
   16.8937  -18.6503    6.5775 C   0  0  0  0  0  0  0  0  0  0  0  0
   17.8977  -19.2731    6.1417 O   0  0  0  0  0  0  0  0  0  0  0  0
   16.6533  -18.6976    7.9717 N   0  0  0  0  0  0  0  0  0  0  0  0
   17.5338  -19.3481    8.9222 C   0  0  1  0  0  0  0  0  0  0  0  0
   18.4222  -18.3230    9.6148 C   0  0  0  0  0  0  0  0  0  0  0  0
   17.5974  -17.3577   10.4299 C   0  0  0  0  0  0  0  0  0  0  0  0
   18.3984  -16.3306   11.1375 C   0  0  0  0  0  0  0  0  0  0  0  0
   17.5890  -15.3376   11.9227 C   0  0  0  0  0  0  0  0  0  0  0  0
   18.4221  -14.3485   12.5517 N   0  0  0  0  0  0  0  0  0  0  0  0
   16.6861  -20.0751    9.8927 C   0  0  0  0  0  0  0  0  0  0  0  0
   15.4640  -19.8454   10.0791 O   0  0  0  0  0  0  0  0  0  0  0  0
   17.2655  -21.0801   10.6548 O   0  0  0  0  0  0  0  0  0  0  0  0
  1  5  1  0
  1  2  1  0
  2  3  1  0
  3  4  1  0
  5  4  1  0
  6 10  1  0
  5  6  1  1
  7  6  2  0
  9 11  1  0
  9  8  1  6
  9 10  1  0
 11 13  1  0
 12 11  2  0
 13 14  1  0
 14 15  1  1
 15 16  1  0
 16 17  1  0
 18 17  1  0
 19 18  1  0
 20 14  1  0
 21 20  2  0
 22 20  1  0
M  END
$$$$
