PAK.pdb
     RDKit          3D

 22 22  0  0  1  0  0  0  0  0999 V2000
   16.8617  -25.4954   -4.0339 N   0  0  0  0  0  0  0  0  0  0  0  0
   17.6949  -26.5668   -3.5257 C   0  0  0  0  0  0  0  0  0  0  0  0
   16.6357  -27.6098   -3.1674 C   0  0  0  0  0  0  0  0  0  0  0  0
   15.6448  -26.7308   -2.4078 C   0  0  0  0  0  0  0  0  0  0  0  0
   15.6526  -25.4761   -3.2781 C   0  0  1  0  0  0  0  0  0  0  0  0
   15.6264  -24.2759   -2.4150 C   0  0  0  0  0  0  0  0  0  0  0  0
   16.6638  -23.8972   -1.8567 O   0  0  0  0  0  0  0  0  0  0  0  0
   13.2542  -21.4125   -1.7350 C   0  0  0  0  0  0  0  0  0  0  0  0
   14.4119  -22.3192   -1.4074 C   0  0  2  0  0  0  0  0  0  0  0  0
   14.4380  -23.5142   -2.1878 N   0  0  0  0  0  0  0  0  0  0  0  0
   14.3549  -22.6018    0.0618 C   0  0  0  0  0  0  0  0  0  0  0  0
   13.9789  -23.7184    0.5062 O   0  0  0  0  0  0  0  0  0  0  0  0
   14.7245  -21.6159    1.0080 N   0  0  0  0  0  0  0  0  0  0  0  0
   14.7132  -21.8273    2.4422 C   0  0  1  0  0  0  0  0  0  0  0  0
   16.0855  -22.2772    2.9261 C   0  0  0  0  0  0  0  0  0  0  0  0
   16.0803  -22.5158    4.4159 C   0  0  0  0  0  0  0  0  0  0  0  0
   17.3935  -22.9323    4.9630 C   0  0  0  0  0  0  0  0  0  0  0  0
   17.4189  -23.1207    6.4535 C   0  0  0  0  0  0  0  0  0  0  0  0
   18.7470  -23.3905    6.9346 N   0  0  0  0  0  0  0  0  0  0  0  0
   14.3032  -20.5563    3.0790 C   0  0  0  0  0  0  0  0  0  0  0  0
   13.9073  -20.4538    4.2680 O   0  0  0  0  0  0  0  0  0  0  0  0
   14.3541  -19.3919    2.3252 O   0  0  0  0  0  0  0  0  0  0  0  0
  1  5  1  0
  1  2  1  0
  2  3  1  0
  3  4  1  0
  5  4  1  0
  6 10  1  0
  5  6  1  1
  7  6  2  0
  9 11  1  0
  9  8  1  6
  9 10  1  0
 11 13  1  0
 12 11  2  0
 13 14  1  0
 14 15  1  1
 15 16  1  0
 16 17  1  0
 18 17  1  0
 19 18  1  0
 20 14  1  0
 21 20  2  0
 22 20  1  0
M  END
$$$$
