PAK.pdb
     RDKit          3D

 22 22  0  0  1  0  0  0  0  0999 V2000
   30.3342  -23.5121  -18.2286 N   0  0  0  0  0  0  0  0  0  0  0  0
   31.6002  -24.0747  -17.8030 C   0  0  0  0  0  0  0  0  0  0  0  0
   31.1467  -25.4354  -17.2730 C   0  0  0  0  0  0  0  0  0  0  0  0
   29.9594  -25.0034  -16.4156 C   0  0  0  0  0  0  0  0  0  0  0  0
   29.3262  -23.9470  -17.3184 C   0  0  1  0  0  0  0  0  0  0  0  0
   28.8720  -22.8039  -16.4980 C   0  0  0  0  0  0  0  0  0  0  0  0
   29.5976  -22.3683  -15.5951 O   0  0  0  0  0  0  0  0  0  0  0  0
   26.8892  -19.8171  -16.7540 C   0  0  0  0  0  0  0  0  0  0  0  0
   27.1688  -21.0453  -15.9277 C   0  0  2  0  0  0  0  0  0  0  0  0
   27.6103  -22.1624  -16.6991 N   0  0  0  0  0  0  0  0  0  0  0  0
   25.9278  -21.3495  -15.1471 C   0  0  0  0  0  0  0  0  0  0  0  0
   24.9550  -21.9601  -15.6634 O   0  0  0  0  0  0  0  0  0  0  0  0
   25.8054  -20.9579  -13.7923 N   0  0  0  0  0  0  0  0  0  0  0  0
   24.6636  -21.2781  -12.9583 C   0  0  1  0  0  0  0  0  0  0  0  0
   24.9323  -20.8847  -11.5116 C   0  0  0  0  0  0  0  0  0  0  0  0
   23.7256  -21.1536  -10.6468 C   0  0  0  0  0  0  0  0  0  0  0  0
   23.8592  -20.6569   -9.2565 C   0  0  0  0  0  0  0  0  0  0  0  0
   22.6586  -20.9015   -8.3868 C   0  0  0  0  0  0  0  0  0  0  0  0
   22.7924  -20.2686   -7.1024 N   0  0  0  0  0  0  0  0  0  0  0  0
   23.4926  -20.5596  -13.5074 C   0  0  0  0  0  0  0  0  0  0  0  0
   23.5313  -19.3931  -13.9753 O   0  0  0  0  0  0  0  0  0  0  0  0
   22.2634  -21.2040  -13.5124 O   0  0  0  0  0  0  0  0  0  0  0  0
  1  5  1  0
  1  2  1  0
  2  3  1  0
  3  4  1  0
  5  4  1  0
  6 10  1  0
  5  6  1  1
  7  6  2  0
  9 11  1  0
  9  8  1  6
  9 10  1  0
 11 13  1  0
 12 11  2  0
 13 14  1  0
 14 15  1  1
 15 16  1  0
 16 17  1  0
 18 17  1  0
 19 18  1  0
 20 14  1  0
 21 20  2  0
 22 20  1  0
M  END
$$$$
