PAK.pdb
     RDKit          3D

 22 22  0  0  1  0  0  0  0  0999 V2000
   17.3654  -13.5741  -17.6108 N   0  0  0  0  0  0  0  0  0  0  0  0
   18.5141  -14.2161  -18.2178 C   0  0  0  0  0  0  0  0  0  0  0  0
   18.4244  -15.6114  -17.5986 C   0  0  0  0  0  0  0  0  0  0  0  0
   18.2045  -15.2377  -16.1345 C   0  0  0  0  0  0  0  0  0  0  0  0
   17.2280  -14.0730  -16.2820 C   0  0  1  0  0  0  0  0  0  0  0  0
   17.5765  -13.0105  -15.3147 C   0  0  0  0  0  0  0  0  0  0  0  0
   17.5623  -13.2546  -14.1016 O   0  0  0  0  0  0  0  0  0  0  0  0
   19.1597   -9.5895  -15.3602 C   0  0  0  0  0  0  0  0  0  0  0  0
   18.2449  -10.6439  -14.7937 C   0  0  2  0  0  0  0  0  0  0  0  0
   17.9369  -11.6872  -15.7181 N   0  0  0  0  0  0  0  0  0  0  0  0
   17.0173   -9.9474  -14.2940 C   0  0  0  0  0  0  0  0  0  0  0  0
   16.0335   -9.7204  -15.0465 O   0  0  0  0  0  0  0  0  0  0  0  0
   16.9206   -9.5174  -12.9488 N   0  0  0  0  0  0  0  0  0  0  0  0
   15.7738   -8.8171  -12.4045 C   0  0  1  0  0  0  0  0  0  0  0  0
   15.0445   -9.6923  -11.3936 C   0  0  0  0  0  0  0  0  0  0  0  0
   13.7919   -9.0134  -10.8972 C   0  0  0  0  0  0  0  0  0  0  0  0
   13.0375   -9.8018   -9.8940 C   0  0  0  0  0  0  0  0  0  0  0  0
   11.8335   -9.1044   -9.3268 C   0  0  0  0  0  0  0  0  0  0  0  0
   11.0624   -9.9744   -8.4804 N   0  0  0  0  0  0  0  0  0  0  0  0
   16.2655   -7.5668  -11.7847 C   0  0  0  0  0  0  0  0  0  0  0  0
   17.4091   -7.4266  -11.2810 O   0  0  0  0  0  0  0  0  0  0  0  0
   15.4187   -6.4677  -11.7502 O   0  0  0  0  0  0  0  0  0  0  0  0
  1  5  1  0
  1  2  1  0
  2  3  1  0
  3  4  1  0
  5  4  1  0
  6 10  1  0
  5  6  1  1
  7  6  2  0
  9 11  1  0
  9  8  1  6
  9 10  1  0
 11 13  1  0
 12 11  2  0
 13 14  1  0
 14 15  1  1
 15 16  1  0
 16 17  1  0
 18 17  1  0
 19 18  1  0
 20 14  1  0
 21 20  2  0
 22 20  1  0
M  END
$$$$
