PAK.pdb
     RDKit          3D

 22 22  0  0  1  0  0  0  0  0999 V2000
   28.6509  -20.1949  -15.0820 N   0  0  0  0  0  0  0  0  0  0  0  0
   28.2091  -19.5910  -16.3231 C   0  0  0  0  0  0  0  0  0  0  0  0
   28.1345  -18.1189  -15.9162 C   0  0  0  0  0  0  0  0  0  0  0  0
   27.3776  -18.2471  -14.5963 C   0  0  0  0  0  0  0  0  0  0  0  0
   28.0488  -19.4836  -14.0027 C   0  0  1  0  0  0  0  0  0  0  0  0
   27.0293  -20.3359  -13.3543 C   0  0  0  0  0  0  0  0  0  0  0  0
   26.5229  -21.2745  -13.9822 O   0  0  0  0  0  0  0  0  0  0  0  0
   25.3587  -20.6038   -9.9411 C   0  0  0  0  0  0  0  0  0  0  0  0
   25.5052  -20.8444  -11.4211 C   0  0  2  0  0  0  0  0  0  0  0  0
   26.5892  -20.1265  -12.0103 N   0  0  0  0  0  0  0  0  0  0  0  0
   24.1917  -20.5131  -12.0587 C   0  0  0  0  0  0  0  0  0  0  0  0
   23.8760  -19.3283  -12.3453 O   0  0  0  0  0  0  0  0  0  0  0  0
   23.2533  -21.5284  -12.3633 N   0  0  0  0  0  0  0  0  0  0  0  0
   21.9977  -21.2898  -13.0474 C   0  0  1  0  0  0  0  0  0  0  0  0
   21.5935  -22.5112  -13.8626 C   0  0  0  0  0  0  0  0  0  0  0  0
   20.2654  -22.2897  -14.5433 C   0  0  0  0  0  0  0  0  0  0  0  0
   19.7127  -23.5021  -15.1928 C   0  0  0  0  0  0  0  0  0  0  0  0
   18.3771  -23.3049  -15.8522 C   0  0  0  0  0  0  0  0  0  0  0  0
   17.8658  -24.5324  -16.3997 N   0  0  0  0  0  0  0  0  0  0  0  0
   20.9836  -20.9629  -12.0208 C   0  0  0  0  0  0  0  0  0  0  0  0
   21.0078  -21.3899  -10.8384 O   0  0  0  0  0  0  0  0  0  0  0  0
   19.9301  -20.1307  -12.3727 O   0  0  0  0  0  0  0  0  0  0  0  0
  1  5  1  0
  1  2  1  0
  2  3  1  0
  3  4  1  0
  5  4  1  0
  6 10  1  0
  5  6  1  6
  7  6  2  0
  9 11  1  0
  9  8  1  1
  9 10  1  0
 11 13  1  0
 12 11  2  0
 13 14  1  0
 14 15  1  1
 15 16  1  0
 16 17  1  0
 18 17  1  0
 19 18  1  0
 20 14  1  0
 21 20  2  0
 22 20  1  0
M  END
$$$$
