PAK.pdb
     RDKit          3D

 22 22  0  0  1  0  0  0  0  0999 V2000
   16.9403  -20.0832    3.7397 N   0  0  0  0  0  0  0  0  0  0  0  0
   15.7993  -20.4343    2.9180 C   0  0  0  0  0  0  0  0  0  0  0  0
   16.2210  -19.8431    1.5724 C   0  0  0  0  0  0  0  0  0  0  0  0
   16.6806  -18.4587    2.0238 C   0  0  0  0  0  0  0  0  0  0  0  0
   17.4216  -18.8110    3.3116 C   0  0  1  0  0  0  0  0  0  0  0  0
   17.1266  -17.7956    4.3450 C   0  0  0  0  0  0  0  0  0  0  0  0
   17.3359  -16.5990    4.1088 O   0  0  0  0  0  0  0  0  0  0  0  0
   15.6187  -17.7169    7.8414 C   0  0  0  0  0  0  0  0  0  0  0  0
   16.3878  -17.1730    6.6657 C   0  0  2  0  0  0  0  0  0  0  0  0
   16.6006  -18.1330    5.6309 N   0  0  0  0  0  0  0  0  0  0  0  0
   17.6722  -16.6132    7.1936 C   0  0  0  0  0  0  0  0  0  0  0  0
   18.7322  -17.2927    7.2103 O   0  0  0  0  0  0  0  0  0  0  0  0
   17.7387  -15.2913    7.6956 N   0  0  0  0  0  0  0  0  0  0  0  0
   18.9459  -14.6870    8.2241 C   0  0  1  0  0  0  0  0  0  0  0  0
   19.2267  -13.3605    7.5303 C   0  0  0  0  0  0  0  0  0  0  0  0
   20.4654  -12.7090    8.0937 C   0  0  0  0  0  0  0  0  0  0  0  0
   20.8065  -11.4143    7.4575 C   0  0  0  0  0  0  0  0  0  0  0  0
   22.0559  -10.7679    7.9854 C   0  0  0  0  0  0  0  0  0  0  0  0
   22.2501   -9.4535    7.4351 N   0  0  0  0  0  0  0  0  0  0  0  0
   18.7564  -14.5081    9.6805 C   0  0  0  0  0  0  0  0  0  0  0  0
   17.6363  -14.4684   10.2506 O   0  0  0  0  0  0  0  0  0  0  0  0
   19.8810  -14.3737   10.4826 O   0  0  0  0  0  0  0  0  0  0  0  0
  1  5  1  0
  1  2  1  0
  2  3  1  0
  3  4  1  0
  5  4  1  0
  6 10  1  0
  5  6  1  1
  7  6  2  0
  9 11  1  0
  9  8  1  1
  9 10  1  0
 11 13  1  0
 12 11  2  0
 13 14  1  0
 14 15  1  6
 15 16  1  0
 16 17  1  0
 18 17  1  0
 19 18  1  0
 20 14  1  0
 21 20  2  0
 22 20  1  0
M  END
$$$$
