PAK.pdb
     RDKit          3D

 22 22  0  0  1  0  0  0  0  0999 V2000
   26.8030  -20.0452  -15.8537 N   0  0  0  0  0  0  0  0  0  0  0  0
   27.7367  -18.9389  -15.7860 C   0  0  0  0  0  0  0  0  0  0  0  0
   28.5549  -19.3279  -14.5542 C   0  0  0  0  0  0  0  0  0  0  0  0
   27.4268  -19.6835  -13.5885 C   0  0  0  0  0  0  0  0  0  0  0  0
   26.4815  -20.4376  -14.5210 C   0  0  1  0  0  0  0  0  0  0  0  0
   25.0841  -20.0623  -14.2169 C   0  0  0  0  0  0  0  0  0  0  0  0
   24.6403  -20.2194  -13.0724 O   0  0  0  0  0  0  0  0  0  0  0  0
   22.3483  -18.0074  -15.7635 C   0  0  0  0  0  0  0  0  0  0  0  0
   22.8494  -19.1495  -14.9183 C   0  0  2  0  0  0  0  0  0  0  0  0
   24.2004  -19.5155  -15.1988 N   0  0  0  0  0  0  0  0  0  0  0  0
   21.9009  -20.2926  -15.1060 C   0  0  0  0  0  0  0  0  0  0  0  0
   22.0667  -21.1467  -16.0164 O   0  0  0  0  0  0  0  0  0  0  0  0
   20.7773  -20.4531  -14.2599 N   0  0  0  0  0  0  0  0  0  0  0  0
   19.9023  -21.6086  -14.2886 C   0  0  1  0  0  0  0  0  0  0  0  0
   18.9583  -21.5929  -13.0935 C   0  0  0  0  0  0  0  0  0  0  0  0
   18.0556  -22.8018  -13.1035 C   0  0  0  0  0  0  0  0  0  0  0  0
   18.3766  -23.8010  -12.0567 C   0  0  0  0  0  0  0  0  0  0  0  0
   17.4597  -24.9909  -12.0255 C   0  0  0  0  0  0  0  0  0  0  0  0
   17.6797  -25.8036  -10.8597 N   0  0  0  0  0  0  0  0  0  0  0  0
   19.1591  -21.5758  -15.5675 C   0  0  0  0  0  0  0  0  0  0  0  0
   18.7670  -20.5237  -16.1335 O   0  0  0  0  0  0  0  0  0  0  0  0
   18.8687  -22.7792  -16.1951 O   0  0  0  0  0  0  0  0  0  0  0  0
  1  5  1  0
  1  2  1  0
  2  3  1  0
  3  4  1  0
  5  4  1  0
  6 10  1  0
  5  6  1  1
  7  6  2  0
  9 11  1  0
  9  8  1  6
  9 10  1  0
 11 13  1  0
 12 11  2  0
 13 14  1  0
 14 15  1  1
 15 16  1  0
 16 17  1  0
 18 17  1  0
 19 18  1  0
 20 14  1  0
 21 20  2  0
 22 20  1  0
M  END
$$$$
