PAK.pdb
     RDKit          3D

 22 22  0  0  1  0  0  0  0  0999 V2000
   24.8009  -11.6782  -16.6418 N   0  0  0  0  0  0  0  0  0  0  0  0
   25.0866  -12.8772  -15.8795 C   0  0  0  0  0  0  0  0  0  0  0  0
   24.5591  -13.9540  -16.8284 C   0  0  0  0  0  0  0  0  0  0  0  0
   23.2019  -13.3515  -17.1843 C   0  0  0  0  0  0  0  0  0  0  0  0
   23.5775  -11.8803  -17.3461 C   0  0  1  0  0  0  0  0  0  0  0  0
   22.5196  -11.0325  -16.7562 C   0  0  0  0  0  0  0  0  0  0  0  0
   21.3951  -11.0044  -17.2720 O   0  0  0  0  0  0  0  0  0  0  0  0
   21.3302   -9.7208  -13.6468 C   0  0  0  0  0  0  0  0  0  0  0  0
   21.7402   -9.3586  -15.0505 C   0  0  2  0  0  0  0  0  0  0  0  0
   22.7343  -10.2261  -15.5953 N   0  0  0  0  0  0  0  0  0  0  0  0
   22.1839   -7.9287  -15.0304 C   0  0  0  0  0  0  0  0  0  0  0  0
   23.3963   -7.6144  -14.9002 O   0  0  0  0  0  0  0  0  0  0  0  0
   21.2483   -6.8740  -15.1580 N   0  0  0  0  0  0  0  0  0  0  0  0
   21.6100   -5.4702  -15.1754 C   0  0  1  0  0  0  0  0  0  0  0  0
   20.4697   -4.6322  -15.7384 C   0  0  0  0  0  0  0  0  0  0  0  0
   20.8468   -3.1721  -15.7873 C   0  0  0  0  0  0  0  0  0  0  0  0
   19.7574   -2.2850  -16.2601 C   0  0  0  0  0  0  0  0  0  0  0  0
   20.1400   -0.8374  -16.3868 C   0  0  0  0  0  0  0  0  0  0  0  0
   19.0280   -0.0261  -16.8030 N   0  0  0  0  0  0  0  0  0  0  0  0
   21.9398   -5.0756  -13.7881 C   0  0  0  0  0  0  0  0  0  0  0  0
   21.3903   -5.5561  -12.7642 O   0  0  0  0  0  0  0  0  0  0  0  0
   22.9188   -4.1122  -13.5891 O   0  0  0  0  0  0  0  0  0  0  0  0
  1  5  1  0
  1  2  1  0
  2  3  1  0
  3  4  1  0
  5  4  1  0
  6 10  1  0
  5  6  1  1
  7  6  2  0
  9 11  1  0
  9  8  1  1
  9 10  1  0
 11 13  1  0
 12 11  2  0
 13 14  1  0
 14 15  1  1
 15 16  1  0
 16 17  1  0
 18 17  1  0
 19 18  1  0
 20 14  1  0
 21 20  2  0
 22 20  1  0
M  END
$$$$
