PAK.pdb
     RDKit          3D

 22 22  0  0  1  0  0  0  0  0999 V2000
   28.2977  -21.6594  -13.3847 N   0  0  0  0  0  0  0  0  0  0  0  0
   29.5068  -20.9085  -13.6575 C   0  0  0  0  0  0  0  0  0  0  0  0
   30.0237  -20.6700  -12.2383 C   0  0  0  0  0  0  0  0  0  0  0  0
   28.7383  -20.1950  -11.5647 C   0  0  0  0  0  0  0  0  0  0  0  0
   27.7229  -21.1544  -12.1813 C   0  0  1  0  0  0  0  0  0  0  0  0
   26.4781  -20.4213  -12.4958 C   0  0  0  0  0  0  0  0  0  0  0  0
   25.8925  -19.7933  -11.6046 O   0  0  0  0  0  0  0  0  0  0  0  0
   24.6709  -19.0935  -15.4767 C   0  0  0  0  0  0  0  0  0  0  0  0
   24.6806  -19.7323  -14.1124 C   0  0  2  0  0  0  0  0  0  0  0  0
   25.9040  -20.4005  -13.8050 N   0  0  0  0  0  0  0  0  0  0  0  0
   23.4994  -20.6497  -14.0413 C   0  0  0  0  0  0  0  0  0  0  0  0
   23.5331  -21.8100  -14.5294 O   0  0  0  0  0  0  0  0  0  0  0  0
   22.2959  -20.2404  -13.4183 N   0  0  0  0  0  0  0  0  0  0  0  0
   21.1906  -21.1332  -13.1304 C   0  0  1  0  0  0  0  0  0  0  0  0
   21.0823  -21.3823  -11.6317 C   0  0  0  0  0  0  0  0  0  0  0  0
   19.9997  -22.3889  -11.3293 C   0  0  0  0  0  0  0  0  0  0  0  0
   19.7973  -22.6382   -9.8822 C   0  0  0  0  0  0  0  0  0  0  0  0
   18.7819  -23.6997   -9.5664 C   0  0  0  0  0  0  0  0  0  0  0  0
   18.6214  -23.8796   -8.1486 N   0  0  0  0  0  0  0  0  0  0  0  0
   19.9605  -20.5103  -13.6670 C   0  0  0  0  0  0  0  0  0  0  0  0
   19.7815  -19.2703  -13.7737 O   0  0  0  0  0  0  0  0  0  0  0  0
   18.9274  -21.3380  -14.0843 O   0  0  0  0  0  0  0  0  0  0  0  0
  1  5  1  0
  1  2  1  0
  2  3  1  0
  3  4  1  0
  5  4  1  0
  6 10  1  0
  5  6  1  6
  7  6  2  0
  9 11  1  0
  9  8  1  6
  9 10  1  0
 11 13  1  0
 12 11  2  0
 13 14  1  0
 14 15  1  1
 15 16  1  0
 16 17  1  0
 18 17  1  0
 19 18  1  0
 20 14  1  0
 21 20  2  0
 22 20  1  0
M  END
$$$$
