MEE.pdb
     RDKit          3D

 27 26  0  0  1  0  0  0  0  0999 V2000
    5.9970  -11.5050   25.9274 C   0  0  0  0  0  0  0  0  0  0  0  0
    7.3324  -12.4326   26.7271 S   0  0  0  0  0  0  0  0  0  0  0  0
    7.1502  -14.2162   26.3436 C   0  0  0  0  0  0  0  0  0  0  0  0
    6.4795  -14.3357   24.9948 C   0  0  0  0  0  0  0  0  0  0  0  0
    6.2972  -15.7274   24.5194 C   0  0  2  0  0  0  0  0  0  0  0  0
    5.6809  -16.5212   25.5947 N   0  0  0  0  0  0  0  0  0  0  0  0
    7.4949  -16.4350   24.0684 C   0  0  0  0  0  0  0  0  0  0  0  0
    7.9615  -17.4159   24.7566 O   0  0  0  0  0  0  0  0  0  0  0  0
    8.2525  -16.1596   22.8960 N   0  0  0  0  0  0  0  0  0  0  0  0
    9.3843  -17.0161   22.5108 C   0  0  1  0  0  0  0  0  0  0  0  0
    9.7115  -16.6198   21.1075 C   0  0  0  0  0  0  0  0  0  0  0  0
   10.8211  -17.3440   20.4438 C   0  0  0  0  0  0  0  0  0  0  0  0
   11.0779  -16.9605   19.0440 C   0  0  0  0  0  0  0  0  0  0  0  0
   11.2378  -15.7754   18.6705 O   0  0  0  0  0  0  0  0  0  0  0  0
   10.5507  -16.7803   23.4053 C   0  0  0  0  0  0  0  0  0  0  0  0
   10.8622  -15.6045   23.7026 O   0  0  0  0  0  0  0  0  0  0  0  0
   11.1566  -17.9521   18.0435 O   0  0  0  0  0  0  0  0  0  0  0  0
   11.3481  -17.8117   23.9581 N   0  0  0  0  0  0  0  0  0  0  0  0
   12.4807  -17.5668   24.8528 C   0  0  1  0  0  0  0  0  0  0  0  0
   12.5182  -18.5019   25.9953 C   0  0  0  0  0  0  0  0  0  0  0  0
   11.3614  -18.3360   26.9391 C   0  0  0  0  0  0  0  0  0  0  0  0
   11.3973  -19.3520   28.0346 C   0  0  0  0  0  0  0  0  0  0  0  0
   12.2605  -20.2489   27.9976 O   0  0  0  0  0  0  0  0  0  0  0  0
   13.7180  -17.6199   24.0658 C   0  0  0  0  0  0  0  0  0  0  0  0
   14.9607  -17.2339   24.5908 O   0  0  0  0  0  0  0  0  0  0  0  0
   10.4915  -19.2889   29.0615 O   0  0  0  0  0  0  0  0  0  0  0  0
   13.7636  -18.0104   22.8743 O   0  0  0  0  0  0  0  0  0  0  0  0
  2  1  1  0
  3  2  1  0
  4  3  1  0
  4  5  1  0
  5  7  1  0
  5  6  1  1
  7  8  2  0
  9 10  1  0
  9  7  1  0
 10 11  1  6
 11 12  1  0
 13 14  2  0
 13 12  1  0
 15 16  2  0
 15 10  1  0
 17 13  1  0
 18 15  1  0
 19 18  1  0
 19 24  1  0
 19 20  1  1
 21 22  1  0
 21 20  1  0
 22 26  1  0
 23 22  2  0
 24 25  1  0
 27 24  2  0
M  END
$$$$
