MEE.pdb
     RDKit          3D

 27 26  0  0  1  0  0  0  0  0999 V2000
    7.7325  -11.9848   27.6394 C   0  0  0  0  0  0  0  0  0  0  0  0
    6.9678  -11.9129   25.9982 S   0  0  0  0  0  0  0  0  0  0  0  0
    5.7404  -13.2654   25.8379 C   0  0  0  0  0  0  0  0  0  0  0  0
    6.4683  -14.4995   25.3577 C   0  0  0  0  0  0  0  0  0  0  0  0
    7.5936  -14.2290   24.4323 C   0  0  2  0  0  0  0  0  0  0  0  0
    7.0649  -13.6036   23.2093 N   0  0  0  0  0  0  0  0  0  0  0  0
    8.4128  -15.3730   24.0339 C   0  0  0  0  0  0  0  0  0  0  0  0
    8.7187  -16.2777   24.8951 O   0  0  0  0  0  0  0  0  0  0  0  0
    8.9444  -15.6264   22.7387 N   0  0  0  0  0  0  0  0  0  0  0  0
    9.7506  -16.8280   22.4760 C   0  0  1  0  0  0  0  0  0  0  0  0
   10.0865  -16.7603   21.0214 C   0  0  0  0  0  0  0  0  0  0  0  0
   10.9162  -17.8572   20.4694 C   0  0  0  0  0  0  0  0  0  0  0  0
   10.3020  -18.6213   19.3688 C   0  0  0  0  0  0  0  0  0  0  0  0
   10.1477  -19.8642   19.3925 O   0  0  0  0  0  0  0  0  0  0  0  0
   10.9910  -16.8194   23.2992 C   0  0  0  0  0  0  0  0  0  0  0  0
   11.7861  -15.8581   23.1923 O   0  0  0  0  0  0  0  0  0  0  0  0
    9.8500  -17.9526   18.2115 O   0  0  0  0  0  0  0  0  0  0  0  0
   11.3422  -17.8402   24.2157 N   0  0  0  0  0  0  0  0  0  0  0  0
   12.5573  -17.8112   25.0318 C   0  0  1  0  0  0  0  0  0  0  0  0
   12.4610  -18.6695   26.2297 C   0  0  0  0  0  0  0  0  0  0  0  0
   11.2881  -18.3376   27.1078 C   0  0  0  0  0  0  0  0  0  0  0  0
   11.1526  -19.3115   28.2333 C   0  0  0  0  0  0  0  0  0  0  0  0
   11.8827  -20.3202   28.2495 O   0  0  0  0  0  0  0  0  0  0  0  0
   13.6972  -18.1835   24.1863 C   0  0  0  0  0  0  0  0  0  0  0  0
   13.5377  -18.8182   22.9450 O   0  0  0  0  0  0  0  0  0  0  0  0
   10.2376  -19.0889   29.2294 O   0  0  0  0  0  0  0  0  0  0  0  0
   14.8922  -17.9665   24.5015 O   0  0  0  0  0  0  0  0  0  0  0  0
  2  1  1  0
  3  2  1  0
  4  3  1  0
  4  5  1  0
  5  7  1  0
  5  6  1  6
  7  8  2  0
  9 10  1  0
  9  7  1  0
 10 11  1  6
 11 12  1  0
 13 14  2  0
 13 12  1  0
 15 16  2  0
 15 10  1  0
 17 13  1  0
 18 15  1  0
 19 18  1  0
 19 24  1  0
 19 20  1  1
 21 22  1  0
 21 20  1  0
 22 26  1  0
 23 22  2  0
 24 25  1  0
 27 24  2  0
M  END
$$$$
