MEE.pdb
     RDKit          3D

 27 26  0  0  1  0  0  0  0  0999 V2000
    7.2727  -11.1256   27.1317 C   0  0  0  0  0  0  0  0  0  0  0  0
    6.2309  -12.5507   26.7227 S   0  0  0  0  0  0  0  0  0  0  0  0
    6.3936  -12.9322   24.9368 C   0  0  0  0  0  0  0  0  0  0  0  0
    7.5717  -13.8628   24.7656 C   0  0  0  0  0  0  0  0  0  0  0  0
    7.2247  -15.2045   24.2407 C   0  0  2  0  0  0  0  0  0  0  0  0
    6.2497  -15.8329   25.1467 N   0  0  0  0  0  0  0  0  0  0  0  0
    8.3277  -16.1446   24.0456 C   0  0  0  0  0  0  0  0  0  0  0  0
    8.5123  -17.1041   24.8816 O   0  0  0  0  0  0  0  0  0  0  0  0
    9.2770  -16.1313   22.9859 N   0  0  0  0  0  0  0  0  0  0  0  0
   10.2723  -17.2056   22.8511 C   0  0  1  0  0  0  0  0  0  0  0  0
   10.8903  -16.9964   21.5066 C   0  0  0  0  0  0  0  0  0  0  0  0
   10.9209  -15.6087   20.9873 C   0  0  0  0  0  0  0  0  0  0  0  0
   11.5898  -15.4361   19.6853 C   0  0  0  0  0  0  0  0  0  0  0  0
   10.9774  -15.4026   18.5930 O   0  0  0  0  0  0  0  0  0  0  0  0
   11.3027  -17.1051   23.9207 C   0  0  0  0  0  0  0  0  0  0  0  0
   11.5451  -15.9870   24.4297 O   0  0  0  0  0  0  0  0  0  0  0  0
   12.9924  -15.2961   19.6255 O   0  0  0  0  0  0  0  0  0  0  0  0
   12.0420  -18.2065   24.4164 N   0  0  0  0  0  0  0  0  0  0  0  0
   12.9116  -18.1335   25.5920 C   0  0  1  0  0  0  0  0  0  0  0  0
   12.5088  -19.0718   26.6590 C   0  0  0  0  0  0  0  0  0  0  0  0
   11.8424  -18.3980   27.8246 C   0  0  0  0  0  0  0  0  0  0  0  0
   11.4761  -19.3804   28.8897 C   0  0  0  0  0  0  0  0  0  0  0  0
   10.3404  -19.8910   28.8748 O   0  0  0  0  0  0  0  0  0  0  0  0
   14.2966  -18.3592   25.1636 C   0  0  0  0  0  0  0  0  0  0  0  0
   15.3475  -17.5066   25.5349 O   0  0  0  0  0  0  0  0  0  0  0  0
   12.3833  -19.7102   29.8630 O   0  0  0  0  0  0  0  0  0  0  0  0
   14.6486  -19.3217   24.4396 O   0  0  0  0  0  0  0  0  0  0  0  0
  2  1  1  0
  3  2  1  0
  4  3  1  0
  4  5  1  0
  5  7  1  0
  5  6  1  1
  7  8  2  0
  9 10  1  0
  9  7  1  0
 10 11  1  6
 11 12  1  0
 13 14  2  0
 13 12  1  0
 15 16  2  0
 15 10  1  0
 17 13  1  0
 18 15  1  0
 19 18  1  0
 19 24  1  0
 19 20  1  1
 21 22  1  0
 21 20  1  0
 22 26  1  0
 23 22  2  0
 24 25  1  0
 27 24  2  0
M  END
$$$$
