MEE.pdb
     RDKit          3D

 27 26  0  0  1  0  0  0  0  0999 V2000
    8.0005  -11.5283   26.8211 C   0  0  0  0  0  0  0  0  0  0  0  0
    6.3451  -12.0748   26.3270 S   0  0  0  0  0  0  0  0  0  0  0  0
    6.1379  -13.8475   26.7466 C   0  0  0  0  0  0  0  0  0  0  0  0
    7.2065  -14.6265   26.0153 C   0  0  0  0  0  0  0  0  0  0  0  0
    6.6887  -15.6173   25.0426 C   0  0  2  0  0  0  0  0  0  0  0  0
    5.9401  -16.6540   25.7714 N   0  0  0  0  0  0  0  0  0  0  0  0
    7.6723  -16.2870   24.1926 C   0  0  0  0  0  0  0  0  0  0  0  0
    8.4437  -17.1891   24.6873 O   0  0  0  0  0  0  0  0  0  0  0  0
    7.8960  -16.0532   22.8071 N   0  0  0  0  0  0  0  0  0  0  0  0
    8.9997  -16.7187   22.0985 C   0  0  1  0  0  0  0  0  0  0  0  0
    8.7848  -16.3968   20.6550 C   0  0  0  0  0  0  0  0  0  0  0  0
    9.8230  -16.8526   19.7009 C   0  0  0  0  0  0  0  0  0  0  0  0
    9.5523  -16.5549   18.2829 C   0  0  0  0  0  0  0  0  0  0  0  0
    8.9162  -17.3230   17.5248 O   0  0  0  0  0  0  0  0  0  0  0  0
   10.3138  -16.1935   22.5605 C   0  0  0  0  0  0  0  0  0  0  0  0
   10.5827  -14.9836   22.3825 O   0  0  0  0  0  0  0  0  0  0  0  0
   10.0165  -15.3503   17.7136 O   0  0  0  0  0  0  0  0  0  0  0  0
   11.3011  -16.9796   23.2027 N   0  0  0  0  0  0  0  0  0  0  0  0
   12.5089  -16.4209   23.8130 C   0  0  1  0  0  0  0  0  0  0  0  0
   12.5941  -16.6924   25.2622 C   0  0  0  0  0  0  0  0  0  0  0  0
   12.3810  -18.1380   25.6110 C   0  0  0  0  0  0  0  0  0  0  0  0
   12.5686  -18.3827   27.0734 C   0  0  0  0  0  0  0  0  0  0  0  0
   12.9366  -17.4410   27.8004 O   0  0  0  0  0  0  0  0  0  0  0  0
   13.6783  -16.9379   23.0932 C   0  0  0  0  0  0  0  0  0  0  0  0
   13.5697  -17.8831   22.0618 O   0  0  0  0  0  0  0  0  0  0  0  0
   12.3348  -19.6272   27.5983 O   0  0  0  0  0  0  0  0  0  0  0  0
   14.8556  -16.5801   23.3391 O   0  0  0  0  0  0  0  0  0  0  0  0
  2  1  1  0
  3  2  1  0
  4  3  1  0
  4  5  1  0
  5  7  1  0
  5  6  1  1
  7  8  2  0
  9 10  1  0
  9  7  1  0
 10 11  1  6
 11 12  1  0
 13 14  2  0
 13 12  1  0
 15 16  2  0
 15 10  1  0
 17 13  1  0
 18 15  1  0
 19 18  1  0
 19 24  1  0
 19 20  1  1
 21 22  1  0
 21 20  1  0
 22 26  1  0
 23 22  2  0
 24 25  1  0
 27 24  2  0
M  END
$$$$
