MEE.pdb
     RDKit          3D

 27 26  0  0  1  0  0  0  0  0999 V2000
    5.3634  -11.6476   27.0643 C   0  0  0  0  0  0  0  0  0  0  0  0
    6.2020  -11.6241   25.4582 S   0  0  0  0  0  0  0  0  0  0  0  0
    7.6004  -12.8096   25.4833 C   0  0  0  0  0  0  0  0  0  0  0  0
    7.0255  -14.2070   25.4789 C   0  0  0  0  0  0  0  0  0  0  0  0
    8.0353  -15.2880   25.5670 C   0  0  2  0  0  0  0  0  0  0  0  0
    9.2706  -14.7396   26.1499 N   0  0  0  0  0  0  0  0  0  0  0  0
    8.3891  -15.9665   24.3209 C   0  0  0  0  0  0  0  0  0  0  0  0
    7.5072  -16.6585   23.6908 O   0  0  0  0  0  0  0  0  0  0  0  0
    9.6594  -15.9567   23.6801 N   0  0  0  0  0  0  0  0  0  0  0  0
   10.2530  -17.1988   23.1627 C   0  0  1  0  0  0  0  0  0  0  0  0
   10.7567  -16.8504   21.7995 C   0  0  0  0  0  0  0  0  0  0  0  0
   11.4356  -17.9244   21.0368 C   0  0  0  0  0  0  0  0  0  0  0  0
   11.8815  -17.5522   19.6822 C   0  0  0  0  0  0  0  0  0  0  0  0
   12.8692  -16.8150   19.4580 O   0  0  0  0  0  0  0  0  0  0  0  0
   11.3730  -17.6492   24.0338 C   0  0  0  0  0  0  0  0  0  0  0  0
   12.3008  -16.8499   24.2947 O   0  0  0  0  0  0  0  0  0  0  0  0
   11.1857  -18.0333   18.5530 O   0  0  0  0  0  0  0  0  0  0  0  0
   11.4651  -18.9427   24.6026 N   0  0  0  0  0  0  0  0  0  0  0  0
   12.4988  -19.3318   25.5636 C   0  0  1  0  0  0  0  0  0  0  0  0
   11.9685  -20.1512   26.6719 C   0  0  0  0  0  0  0  0  0  0  0  0
   11.1326  -19.3687   27.6444 C   0  0  0  0  0  0  0  0  0  0  0  0
   10.5915  -20.2425   28.7295 C   0  0  0  0  0  0  0  0  0  0  0  0
   11.3878  -20.8114   29.4995 O   0  0  0  0  0  0  0  0  0  0  0  0
   13.5721  -20.0237   24.8410 C   0  0  0  0  0  0  0  0  0  0  0  0
   14.9233  -19.6736   24.9849 O   0  0  0  0  0  0  0  0  0  0  0  0
    9.2379  -20.4077   28.8691 O   0  0  0  0  0  0  0  0  0  0  0  0
   13.3703  -20.9731   24.0459 O   0  0  0  0  0  0  0  0  0  0  0  0
  2  1  1  0
  3  2  1  0
  4  3  1  0
  4  5  1  0
  5  7  1  0
  5  6  1  6
  7  8  2  0
  9 10  1  0
  9  7  1  0
 10 11  1  6
 11 12  1  0
 13 14  2  0
 13 12  1  0
 15 16  2  0
 15 10  1  0
 17 13  1  0
 18 15  1  0
 19 18  1  0
 19 24  1  0
 19 20  1  1
 21 22  1  0
 21 20  1  0
 22 26  1  0
 23 22  2  0
 24 25  1  0
 27 24  2  0
M  END
$$$$
