MEE.pdb
     RDKit          3D

 27 26  0  0  1  0  0  0  0  0999 V2000
    7.2598  -11.1263   20.6974 C   0  0  0  0  0  0  0  0  0  0  0  0
    8.3339  -12.4780   20.1475 S   0  0  0  0  0  0  0  0  0  0  0  0
    7.3028  -13.8870   19.5882 C   0  0  0  0  0  0  0  0  0  0  0  0
    8.2242  -15.0451   19.2825 C   0  0  0  0  0  0  0  0  0  0  0  0
    9.2240  -14.7728   18.2232 C   0  0  2  0  0  0  0  0  0  0  0  0
    8.7241  -15.3093   16.9470 N   0  0  0  0  0  0  0  0  0  0  0  0
   10.5721  -15.2986   18.4344 C   0  0  0  0  0  0  0  0  0  0  0  0
   10.7502  -16.5577   18.6256 O   0  0  0  0  0  0  0  0  0  0  0  0
   11.7817  -14.5497   18.4558 N   0  0  0  0  0  0  0  0  0  0  0  0
   13.0594  -15.1901   18.8025 C   0  0  1  0  0  0  0  0  0  0  0  0
   14.0806  -14.5047   17.9536 C   0  0  0  0  0  0  0  0  0  0  0  0
   15.4987  -14.8738   18.1748 C   0  0  0  0  0  0  0  0  0  0  0  0
   16.4684  -14.2236   17.2752 C   0  0  0  0  0  0  0  0  0  0  0  0
   17.0459  -13.1452   17.5451 O   0  0  0  0  0  0  0  0  0  0  0  0
   13.3681  -15.0001   20.2464 C   0  0  0  0  0  0  0  0  0  0  0  0
   13.3117  -13.8485   20.7347 O   0  0  0  0  0  0  0  0  0  0  0  0
   16.7905  -14.8175   16.0366 O   0  0  0  0  0  0  0  0  0  0  0  0
   13.7256  -16.0503   21.1263 N   0  0  0  0  0  0  0  0  0  0  0  0
   13.9616  -15.8603   22.5587 C   0  0  1  0  0  0  0  0  0  0  0  0
   13.4431  -16.9761   23.3756 C   0  0  0  0  0  0  0  0  0  0  0  0
   13.7046  -16.8100   24.8455 C   0  0  0  0  0  0  0  0  0  0  0  0
   13.1678  -17.9622   25.6316 C   0  0  0  0  0  0  0  0  0  0  0  0
   13.9532  -18.8495   26.0145 O   0  0  0  0  0  0  0  0  0  0  0  0
   15.3982  -15.6520   22.7721 C   0  0  0  0  0  0  0  0  0  0  0  0
   16.3723  -16.2019   21.9249 O   0  0  0  0  0  0  0  0  0  0  0  0
   11.8304  -18.0321   25.9240 O   0  0  0  0  0  0  0  0  0  0  0  0
   15.8656  -14.9730   23.7182 O   0  0  0  0  0  0  0  0  0  0  0  0
  2  1  1  0
  3  2  1  0
  4  3  1  0
  4  5  1  0
  5  7  1  0
  5  6  1  6
  7  8  2  0
  9 10  1  0
  9  7  1  0
 10 11  1  6
 11 12  1  0
 13 14  2  0
 13 12  1  0
 15 16  2  0
 15 10  1  0
 17 13  1  0
 18 15  1  0
 19 18  1  0
 19 24  1  0
 19 20  1  1
 21 22  1  0
 21 20  1  0
 22 26  1  0
 23 22  2  0
 24 25  1  0
 27 24  2  0
M  END
$$$$
