MEE.pdb
     RDKit          3D

 27 26  0  0  1  0  0  0  0  0999 V2000
    6.9415  -11.3328   25.7838 C   0  0  0  0  0  0  0  0  0  0  0  0
    7.0930  -12.8889   26.6997 S   0  0  0  0  0  0  0  0  0  0  0  0
    5.9976  -14.1501   25.9441 C   0  0  0  0  0  0  0  0  0  0  0  0
    6.8615  -15.3022   25.4861 C   0  0  0  0  0  0  0  0  0  0  0  0
    7.8392  -14.9553   24.4279 C   0  0  2  0  0  0  0  0  0  0  0  0
    7.1104  -14.4517   23.2525 N   0  0  0  0  0  0  0  0  0  0  0  0
    8.7345  -16.0208   23.9789 C   0  0  0  0  0  0  0  0  0  0  0  0
    8.9860  -17.0189   24.7497 O   0  0  0  0  0  0  0  0  0  0  0  0
    9.4008  -16.0971   22.7241 N   0  0  0  0  0  0  0  0  0  0  0  0
   10.4164  -17.1302   22.4708 C   0  0  1  0  0  0  0  0  0  0  0  0
   10.8675  -16.8955   21.0656 C   0  0  0  0  0  0  0  0  0  0  0  0
   11.9603  -17.7569   20.5556 C   0  0  0  0  0  0  0  0  0  0  0  0
   12.3420  -17.5276   19.1506 C   0  0  0  0  0  0  0  0  0  0  0  0
   12.7866  -18.4265   18.3998 O   0  0  0  0  0  0  0  0  0  0  0  0
   11.5577  -16.9886   23.4161 C   0  0  0  0  0  0  0  0  0  0  0  0
   11.7765  -15.8745   23.9440 O   0  0  0  0  0  0  0  0  0  0  0  0
   12.2125  -16.2416   18.5848 O   0  0  0  0  0  0  0  0  0  0  0  0
   12.4302  -18.0461   23.7707 N   0  0  0  0  0  0  0  0  0  0  0  0
   12.9812  -18.2233   25.1155 C   0  0  1  0  0  0  0  0  0  0  0  0
   11.9343  -18.3375   26.1509 C   0  0  0  0  0  0  0  0  0  0  0  0
   12.4732  -18.6997   27.5056 C   0  0  0  0  0  0  0  0  0  0  0  0
   11.3915  -18.7272   28.5365 C   0  0  0  0  0  0  0  0  0  0  0  0
   10.6045  -19.6919   28.5598 O   0  0  0  0  0  0  0  0  0  0  0  0
   13.8675  -19.3927   25.1071 C   0  0  0  0  0  0  0  0  0  0  0  0
   13.5403  -20.5799   24.4344 O   0  0  0  0  0  0  0  0  0  0  0  0
   11.2762  -17.7029   29.4403 O   0  0  0  0  0  0  0  0  0  0  0  0
   14.9763  -19.4244   25.6935 O   0  0  0  0  0  0  0  0  0  0  0  0
  2  1  1  0
  3  2  1  0
  4  3  1  0
  4  5  1  0
  5  7  1  0
  5  6  1  6
  7  8  2  0
  9 10  1  0
  9  7  1  0
 10 11  1  6
 11 12  1  0
 13 14  2  0
 13 12  1  0
 15 16  2  0
 15 10  1  0
 17 13  1  0
 18 15  1  0
 19 18  1  0
 19 24  1  0
 19 20  1  1
 21 22  1  0
 21 20  1  0
 22 26  1  0
 23 22  2  0
 24 25  1  0
 27 24  2  0
M  END
$$$$
