MEE.pdb
     RDKit          3D

 27 26  0  0  1  0  0  0  0  0999 V2000
    7.6603  -12.4364   21.1782 C   0  0  0  0  0  0  0  0  0  0  0  0
    7.1852  -12.1596   19.4517 S   0  0  0  0  0  0  0  0  0  0  0  0
    7.2282  -13.7525   18.5448 C   0  0  0  0  0  0  0  0  0  0  0  0
    8.4512  -14.5141   19.0004 C   0  0  0  0  0  0  0  0  0  0  0  0
    8.6140  -15.8476   18.3748 C   0  0  2  0  0  0  0  0  0  0  0  0
    7.4168  -16.6558   18.6575 N   0  0  0  0  0  0  0  0  0  0  0  0
    9.7861  -16.6266   18.7722 C   0  0  0  0  0  0  0  0  0  0  0  0
    9.6593  -17.6094   19.5916 O   0  0  0  0  0  0  0  0  0  0  0  0
   11.1267  -16.4227   18.3412 N   0  0  0  0  0  0  0  0  0  0  0  0
   12.2247  -17.2396   18.8798 C   0  0  1  0  0  0  0  0  0  0  0  0
   13.3234  -17.1261   17.8732 C   0  0  0  0  0  0  0  0  0  0  0  0
   13.1304  -17.8285   16.5826 C   0  0  0  0  0  0  0  0  0  0  0  0
   14.2609  -17.7415   15.6409 C   0  0  0  0  0  0  0  0  0  0  0  0
   14.1406  -17.3752   14.4490 O   0  0  0  0  0  0  0  0  0  0  0  0
   12.6704  -16.7166   20.2004 C   0  0  0  0  0  0  0  0  0  0  0  0
   12.8286  -15.4829   20.3449 O   0  0  0  0  0  0  0  0  0  0  0  0
   15.5627  -18.0787   16.0677 O   0  0  0  0  0  0  0  0  0  0  0  0
   12.9310  -17.5307   21.3294 N   0  0  0  0  0  0  0  0  0  0  0  0
   13.2513  -16.9971   22.6545 C   0  0  1  0  0  0  0  0  0  0  0  0
   12.8285  -17.8944   23.7486 C   0  0  0  0  0  0  0  0  0  0  0  0
   13.2660  -17.4250   25.1069 C   0  0  0  0  0  0  0  0  0  0  0  0
   12.9206  -18.4189   26.1682 C   0  0  0  0  0  0  0  0  0  0  0  0
   12.1371  -19.3471   25.8937 O   0  0  0  0  0  0  0  0  0  0  0  0
   14.6899  -16.7135   22.7090 C   0  0  0  0  0  0  0  0  0  0  0  0
   15.2476  -15.8300   23.6457 O   0  0  0  0  0  0  0  0  0  0  0  0
   13.4642  -18.3042   27.4214 O   0  0  0  0  0  0  0  0  0  0  0  0
   15.5271  -17.2325   21.9317 O   0  0  0  0  0  0  0  0  0  0  0  0
  2  1  1  0
  3  2  1  0
  4  3  1  0
  4  5  1  0
  5  7  1  0
  5  6  1  1
  7  8  2  0
  9 10  1  0
  9  7  1  0
 10 11  1  6
 11 12  1  0
 13 14  2  0
 13 12  1  0
 15 16  2  0
 15 10  1  0
 17 13  1  0
 18 15  1  0
 19 18  1  0
 19 24  1  0
 19 20  1  1
 21 22  1  0
 21 20  1  0
 22 26  1  0
 23 22  2  0
 24 25  1  0
 27 24  2  0
M  END
$$$$
