MEE.pdb
     RDKit          3D

 27 26  0  0  1  0  0  0  0  0999 V2000
    8.1950  -11.6477   26.3189 C   0  0  0  0  0  0  0  0  0  0  0  0
    6.4134  -11.8473   26.5827 S   0  0  0  0  0  0  0  0  0  0  0  0
    5.8500  -13.4012   25.7893 C   0  0  0  0  0  0  0  0  0  0  0  0
    7.0688  -14.2505   25.5126 C   0  0  0  0  0  0  0  0  0  0  0  0
    6.7951  -15.4874   24.7437 C   0  0  2  0  0  0  0  0  0  0  0  0
    5.8483  -16.3204   25.5027 N   0  0  0  0  0  0  0  0  0  0  0  0
    7.9466  -16.3191   24.3960 C   0  0  0  0  0  0  0  0  0  0  0  0
    8.3475  -17.2353   25.2044 O   0  0  0  0  0  0  0  0  0  0  0  0
    8.7240  -16.2382   23.2071 N   0  0  0  0  0  0  0  0  0  0  0  0
    9.8226  -17.1838   22.9584 C   0  0  1  0  0  0  0  0  0  0  0  0
    9.8847  -17.3252   21.4719 C   0  0  0  0  0  0  0  0  0  0  0  0
   10.8261  -16.4378   20.7491 C   0  0  0  0  0  0  0  0  0  0  0  0
   10.8419  -16.5934   19.2836 C   0  0  0  0  0  0  0  0  0  0  0  0
   10.0940  -15.9494   18.5122 O   0  0  0  0  0  0  0  0  0  0  0  0
   11.1074  -16.6478   23.4860 C   0  0  0  0  0  0  0  0  0  0  0  0
   11.3903  -15.4436   23.2919 O   0  0  0  0  0  0  0  0  0  0  0  0
   11.7340  -17.5050   18.6802 O   0  0  0  0  0  0  0  0  0  0  0  0
   12.0510  -17.4172   24.2090 N   0  0  0  0  0  0  0  0  0  0  0  0
   13.2640  -16.8562   24.8068 C   0  0  1  0  0  0  0  0  0  0  0  0
   13.6953  -17.5871   26.0155 C   0  0  0  0  0  0  0  0  0  0  0  0
   12.6156  -17.7132   27.0524 C   0  0  0  0  0  0  0  0  0  0  0  0
   13.0688  -18.5294   28.2195 C   0  0  0  0  0  0  0  0  0  0  0  0
   14.2025  -19.0438   28.1922 O   0  0  0  0  0  0  0  0  0  0  0  0
   14.3170  -16.8251   23.7855 C   0  0  0  0  0  0  0  0  0  0  0  0
   15.5490  -16.1865   23.9943 O   0  0  0  0  0  0  0  0  0  0  0  0
   12.2434  -18.7021   29.3003 O   0  0  0  0  0  0  0  0  0  0  0  0
   14.2019  -17.3610   22.6568 O   0  0  0  0  0  0  0  0  0  0  0  0
  2  1  1  0
  3  2  1  0
  4  3  1  0
  4  5  1  0
  5  7  1  0
  5  6  1  1
  7  8  2  0
  9 10  1  0
  9  7  1  0
 10 11  1  6
 11 12  1  0
 13 14  2  0
 13 12  1  0
 15 16  2  0
 15 10  1  0
 17 13  1  0
 18 15  1  0
 19 18  1  0
 19 24  1  0
 19 20  1  1
 21 22  1  0
 21 20  1  0
 22 26  1  0
 23 22  2  0
 24 25  1  0
 27 24  2  0
M  END
$$$$
