MEE.pdb
     RDKit          3D

 27 26  0  0  1  0  0  0  0  0999 V2000
    5.5667  -10.9456   26.7351 C   0  0  0  0  0  0  0  0  0  0  0  0
    6.9454  -12.0938   26.4823 S   0  0  0  0  0  0  0  0  0  0  0  0
    6.3788  -13.5132   25.4695 C   0  0  0  0  0  0  0  0  0  0  0  0
    7.5427  -14.4633   25.3081 C   0  0  0  0  0  0  0  0  0  0  0  0
    7.2567  -15.6493   24.4669 C   0  0  2  0  0  0  0  0  0  0  0  0
    6.1967  -16.4439   25.1083 N   0  0  0  0  0  0  0  0  0  0  0  0
    8.3777  -16.5437   24.1805 C   0  0  0  0  0  0  0  0  0  0  0  0
    8.6607  -17.5020   24.9898 O   0  0  0  0  0  0  0  0  0  0  0  0
    9.2446  -16.4841   23.0539 N   0  0  0  0  0  0  0  0  0  0  0  0
   10.3489  -17.4433   22.9003 C   0  0  1  0  0  0  0  0  0  0  0  0
   10.9939  -17.0884   21.5997 C   0  0  0  0  0  0  0  0  0  0  0  0
   12.2392  -17.8096   21.2459 C   0  0  0  0  0  0  0  0  0  0  0  0
   12.8559  -17.4152   19.9667 C   0  0  0  0  0  0  0  0  0  0  0  0
   12.3066  -17.5843   18.8535 O   0  0  0  0  0  0  0  0  0  0  0  0
   11.3216  -17.3089   24.0192 C   0  0  0  0  0  0  0  0  0  0  0  0
   11.8060  -16.1825   24.2731 O   0  0  0  0  0  0  0  0  0  0  0  0
   14.1306  -16.8106   19.9544 O   0  0  0  0  0  0  0  0  0  0  0  0
   11.7451  -18.3853   24.8361 N   0  0  0  0  0  0  0  0  0  0  0  0
   12.7600  -18.2553   25.8832 C   0  0  1  0  0  0  0  0  0  0  0  0
   12.1912  -18.3430   27.2433 C   0  0  0  0  0  0  0  0  0  0  0  0
   11.1141  -19.3821   27.3728 C   0  0  0  0  0  0  0  0  0  0  0  0
   10.6386  -19.5062   28.7842 C   0  0  0  0  0  0  0  0  0  0  0  0
    9.6463  -20.2185   29.0262 O   0  0  0  0  0  0  0  0  0  0  0  0
   13.7948  -19.2713   25.6600 C   0  0  0  0  0  0  0  0  0  0  0  0
   13.6986  -20.2322   24.6420 O   0  0  0  0  0  0  0  0  0  0  0  0
   11.2922  -18.8443   29.7911 O   0  0  0  0  0  0  0  0  0  0  0  0
   14.8368  -19.3611   26.3533 O   0  0  0  0  0  0  0  0  0  0  0  0
  2  1  1  0
  3  2  1  0
  4  3  1  0
  4  5  1  0
  5  7  1  0
  5  6  1  1
  7  8  2  0
  9 10  1  0
  9  7  1  0
 10 11  1  6
 11 12  1  0
 13 14  2  0
 13 12  1  0
 15 16  2  0
 15 10  1  0
 17 13  1  0
 18 15  1  0
 19 18  1  0
 19 24  1  0
 19 20  1  1
 21 22  1  0
 21 20  1  0
 22 26  1  0
 23 22  2  0
 24 25  1  0
 27 24  2  0
M  END
$$$$
