MEE.pdb
     RDKit          3D

 27 26  0  0  1  0  0  0  0  0999 V2000
    8.6790  -11.1714   19.1425 C   0  0  0  0  0  0  0  0  0  0  0  0
    7.4408  -12.4516   19.4760 S   0  0  0  0  0  0  0  0  0  0  0  0
    7.4110  -13.6475   18.0865 C   0  0  0  0  0  0  0  0  0  0  0  0
    8.8401  -14.0037   17.7488 C   0  0  0  0  0  0  0  0  0  0  0  0
    9.3960  -15.1296   18.5359 C   0  0  2  0  0  0  0  0  0  0  0  0
    9.1759  -14.8648   19.9669 N   0  0  0  0  0  0  0  0  0  0  0  0
   10.8142  -15.4321   18.3478 C   0  0  0  0  0  0  0  0  0  0  0  0
   11.1688  -16.5169   17.7553 O   0  0  0  0  0  0  0  0  0  0  0  0
   11.9151  -14.6311   18.7611 N   0  0  0  0  0  0  0  0  0  0  0  0
   13.2368  -15.2305   18.9993 C   0  0  1  0  0  0  0  0  0  0  0  0
   14.1748  -14.4636   18.1245 C   0  0  0  0  0  0  0  0  0  0  0  0
   15.6187  -14.7720   18.2508 C   0  0  0  0  0  0  0  0  0  0  0  0
   16.5078  -14.0119   17.3540 C   0  0  0  0  0  0  0  0  0  0  0  0
   17.0643  -14.5098   16.3482 O   0  0  0  0  0  0  0  0  0  0  0  0
   13.6265  -15.0932   20.4295 C   0  0  0  0  0  0  0  0  0  0  0  0
   13.3966  -14.0145   21.0224 O   0  0  0  0  0  0  0  0  0  0  0  0
   16.7688  -12.6488   17.6079 O   0  0  0  0  0  0  0  0  0  0  0  0
   14.2490  -16.1169   21.1842 N   0  0  0  0  0  0  0  0  0  0  0  0
   14.4218  -16.0596   22.6369 C   0  0  1  0  0  0  0  0  0  0  0  0
   13.7152  -17.1497   23.3393 C   0  0  0  0  0  0  0  0  0  0  0  0
   14.0109  -17.2001   24.8113 C   0  0  0  0  0  0  0  0  0  0  0  0
   13.2869  -18.3248   25.4779 C   0  0  0  0  0  0  0  0  0  0  0  0
   12.8976  -19.2853   24.7874 O   0  0  0  0  0  0  0  0  0  0  0  0
   15.8580  -16.0604   22.9371 C   0  0  0  0  0  0  0  0  0  0  0  0
   16.3627  -15.7188   24.2011 O   0  0  0  0  0  0  0  0  0  0  0  0
   13.0610  -18.2925   26.8295 O   0  0  0  0  0  0  0  0  0  0  0  0
   16.7400  -16.3635   22.0976 O   0  0  0  0  0  0  0  0  0  0  0  0
  2  1  1  0
  3  2  1  0
  4  3  1  0
  4  5  1  0
  5  7  1  0
  5  6  1  1
  7  8  2  0
  9 10  1  0
  9  7  1  0
 10 11  1  6
 11 12  1  0
 13 14  2  0
 13 12  1  0
 15 16  2  0
 15 10  1  0
 17 13  1  0
 18 15  1  0
 19 18  1  0
 19 24  1  0
 19 20  1  1
 21 22  1  0
 21 20  1  0
 22 26  1  0
 23 22  2  0
 24 25  1  0
 27 24  2  0
M  END
$$$$
