MEE.pdb
     RDKit          3D

 27 26  0  0  1  0  0  0  0  0999 V2000
    8.1665  -11.9492   19.7868 C   0  0  0  0  0  0  0  0  0  0  0  0
    6.9339  -12.8407   20.7713 S   0  0  0  0  0  0  0  0  0  0  0  0
    7.2280  -14.6447   20.6279 C   0  0  0  0  0  0  0  0  0  0  0  0
    8.6224  -14.9304   21.1351 C   0  0  0  0  0  0  0  0  0  0  0  0
    9.0365  -16.3494   21.0305 C   0  0  2  0  0  0  0  0  0  0  0  0
    7.9263  -17.2041   21.4812 N   0  0  0  0  0  0  0  0  0  0  0  0
   10.2360  -16.7450   21.7676 C   0  0  0  0  0  0  0  0  0  0  0  0
   11.3701  -16.2062   21.4898 O   0  0  0  0  0  0  0  0  0  0  0  0
   10.3108  -17.7059   22.8141 N   0  0  0  0  0  0  0  0  0  0  0  0
   11.5894  -17.9988   23.4793 C   0  0  1  0  0  0  0  0  0  0  0  0
   11.2168  -18.6967   24.7472 C   0  0  0  0  0  0  0  0  0  0  0  0
   12.3265  -19.1969   25.5925 C   0  0  0  0  0  0  0  0  0  0  0  0
   11.9171  -19.9009   26.8209 C   0  0  0  0  0  0  0  0  0  0  0  0
   12.7096  -20.5496   27.5424 O   0  0  0  0  0  0  0  0  0  0  0  0
   12.4356  -18.8793   22.6279 C   0  0  0  0  0  0  0  0  0  0  0  0
   12.3707  -20.1203   22.7821 O   0  0  0  0  0  0  0  0  0  0  0  0
   10.5704  -19.8640   27.2401 O   0  0  0  0  0  0  0  0  0  0  0  0
   13.3251  -18.4047   21.6336 N   0  0  0  0  0  0  0  0  0  0  0  0
   14.1247  -19.2832   20.7779 C   0  0  1  0  0  0  0  0  0  0  0  0
   14.5340  -18.6332   19.5165 C   0  0  0  0  0  0  0  0  0  0  0  0
   15.3623  -19.5200   18.6308 C   0  0  0  0  0  0  0  0  0  0  0  0
   15.7925  -18.8074   17.3896 C   0  0  0  0  0  0  0  0  0  0  0  0
   15.1407  -18.9736   16.3417 O   0  0  0  0  0  0  0  0  0  0  0  0
   15.2818  -19.7569   21.5459 C   0  0  0  0  0  0  0  0  0  0  0  0
   15.9434  -18.9502   22.4842 O   0  0  0  0  0  0  0  0  0  0  0  0
   16.8879  -17.9835   17.4139 O   0  0  0  0  0  0  0  0  0  0  0  0
   15.7665  -20.9081   21.4269 O   0  0  0  0  0  0  0  0  0  0  0  0
  2  1  1  0
  3  2  1  0
  4  3  1  0
  4  5  1  0
  5  7  1  0
  5  6  1  1
  7  8  2  0
  9 10  1  0
  9  7  1  0
 10 11  1  1
 11 12  1  0
 13 14  2  0
 13 12  1  0
 15 16  2  0
 15 10  1  0
 17 13  1  0
 18 15  1  0
 19 18  1  0
 19 24  1  0
 19 20  1  6
 21 22  1  0
 21 20  1  0
 22 26  1  0
 23 22  2  0
 24 25  1  0
 27 24  2  0
M  END
$$$$
