MEE.pdb
     RDKit          3D

 27 26  0  0  1  0  0  0  0  0999 V2000
    8.0593  -12.4774   21.5463 C   0  0  0  0  0  0  0  0  0  0  0  0
    7.3956  -13.2135   20.0293 S   0  0  0  0  0  0  0  0  0  0  0  0
    6.7237  -14.8780   20.4029 C   0  0  0  0  0  0  0  0  0  0  0  0
    7.8858  -15.7847   20.7355 C   0  0  0  0  0  0  0  0  0  0  0  0
    8.6352  -16.2817   19.5576 C   0  0  2  0  0  0  0  0  0  0  0  0
    7.7487  -17.1420   18.7573 N   0  0  0  0  0  0  0  0  0  0  0  0
    9.8656  -17.0264   19.8218 C   0  0  0  0  0  0  0  0  0  0  0  0
   10.0639  -17.5545   20.9773 O   0  0  0  0  0  0  0  0  0  0  0  0
   10.9327  -17.2541   18.9085 N   0  0  0  0  0  0  0  0  0  0  0  0
   12.1597  -17.9416   19.3384 C   0  0  1  0  0  0  0  0  0  0  0  0
   12.9824  -18.0797   18.0985 C   0  0  0  0  0  0  0  0  0  0  0  0
   14.2705  -18.8022   18.2212 C   0  0  0  0  0  0  0  0  0  0  0  0
   15.0685  -18.8852   16.9848 C   0  0  0  0  0  0  0  0  0  0  0  0
   16.0294  -18.1229   16.7301 O   0  0  0  0  0  0  0  0  0  0  0  0
   12.8844  -17.1354   20.3587 C   0  0  0  0  0  0  0  0  0  0  0  0
   12.6698  -15.9037   20.4264 O   0  0  0  0  0  0  0  0  0  0  0  0
   14.7658  -19.8629   16.0136 O   0  0  0  0  0  0  0  0  0  0  0  0
   13.8163  -17.6731   21.2794 N   0  0  0  0  0  0  0  0  0  0  0  0
   13.9623  -17.1942   22.6552 C   0  0  1  0  0  0  0  0  0  0  0  0
   12.8477  -17.6157   23.5276 C   0  0  0  0  0  0  0  0  0  0  0  0
   13.0366  -17.2254   24.9659 C   0  0  0  0  0  0  0  0  0  0  0  0
   11.9172  -17.7247   25.8211 C   0  0  0  0  0  0  0  0  0  0  0  0
   10.9805  -18.3468   25.2863 O   0  0  0  0  0  0  0  0  0  0  0  0
   15.2587  -17.6464   23.1724 C   0  0  0  0  0  0  0  0  0  0  0  0
   16.0516  -16.8516   24.0142 O   0  0  0  0  0  0  0  0  0  0  0  0
   11.9307  -17.4986   27.1731 O   0  0  0  0  0  0  0  0  0  0  0  0
   15.7565  -18.7672   22.9069 O   0  0  0  0  0  0  0  0  0  0  0  0
  2  1  1  0
  3  2  1  0
  4  3  1  0
  4  5  1  0
  5  7  1  0
  5  6  1  1
  7  8  2  0
  9 10  1  0
  9  7  1  0
 10 11  1  6
 11 12  1  0
 13 14  2  0
 13 12  1  0
 15 16  2  0
 15 10  1  0
 17 13  1  0
 18 15  1  0
 19 18  1  0
 19 24  1  0
 19 20  1  1
 21 22  1  0
 21 20  1  0
 22 26  1  0
 23 22  2  0
 24 25  1  0
 27 24  2  0
M  END
$$$$
