YVI.pdb
     RDKit          3D

 28 28  0  0  1  0  0  0  0  0999 V2000
   28.3734  -12.8911  -17.1916 O   0  0  0  0  0  0  0  0  0  0  0  0
   27.7349  -14.0690  -16.7902 C   0  0  0  0  0  0  0  0  0  0  0  0
   27.2029  -14.9547  -17.6998 C   0  0  0  0  0  0  0  0  0  0  0  0
   26.5779  -16.1098  -17.2815 C   0  0  0  0  0  0  0  0  0  0  0  0
   26.4533  -16.4363  -15.9435 C   0  0  0  0  0  0  0  0  0  0  0  0
   25.7809  -17.6801  -15.4881 C   0  0  0  0  0  0  0  0  0  0  0  0
   26.8521  -18.6380  -15.0197 C   0  0  2  0  0  0  0  0  0  0  0  0
   27.5157  -19.1466  -16.2054 N   0  0  0  0  0  0  0  0  0  0  0  0
   26.1818  -19.7950  -14.3272 C   0  0  0  0  0  0  0  0  0  0  0  0
   25.7268  -20.7518  -15.0235 O   0  0  0  0  0  0  0  0  0  0  0  0
   26.9895  -15.5433  -15.0290 C   0  0  0  0  0  0  0  0  0  0  0  0
   27.6144  -14.3879  -15.4551 C   0  0  0  0  0  0  0  0  0  0  0  0
   24.9536  -22.0133  -10.0426 C   0  0  0  0  0  0  0  0  0  0  0  0
   25.6698  -20.9795  -10.8238 C   0  0  2  0  0  0  0  0  0  0  0  0
   25.6335  -19.6071  -10.1887 C   0  0  0  0  0  0  0  0  0  0  0  0
   25.2801  -20.9078  -12.2983 C   0  0  2  0  0  0  0  0  0  0  0  0
   26.0604  -19.8156  -12.9158 N   0  0  0  0  0  0  0  0  0  0  0  0
   23.8621  -20.5842  -12.5182 C   0  0  0  0  0  0  0  0  0  0  0  0
   23.4438  -19.3996  -12.3463 O   0  0  0  0  0  0  0  0  0  0  0  0
   21.3444  -20.6964  -16.9663 C   0  0  0  0  0  0  0  0  0  0  0  0
   21.7533  -20.5032  -15.5538 C   0  0  0  0  0  0  0  0  0  0  0  0
   20.9797  -21.2739  -14.5173 C   0  0  2  0  0  0  0  0  0  0  0  0
   19.5265  -20.9617  -14.7280 C   0  0  0  0  0  0  0  0  0  0  0  0
   21.4585  -21.1350  -13.1257 C   0  0  2  0  0  0  0  0  0  0  0  0
   22.8500  -21.4725  -12.9208 N   0  0  0  0  0  0  0  0  0  0  0  0
   20.6766  -21.8121  -12.0921 C   0  0  0  0  0  0  0  0  0  0  0  0
   19.6598  -21.2443  -11.3484 O   0  0  0  0  0  0  0  0  0  0  0  0
   20.9196  -23.0197  -11.8253 O   0  0  0  0  0  0  0  0  0  0  0  0
  2  1  1  0
  3  2  2  0
  4  3  1  0
  5  4  2  0
  5 11  1  0
  6  5  1  0
  7  6  1  0
  7  9  1  0
  7  8  1  6
  9 10  2  0
 11 12  2  0
 12  2  1  0
 14 13  1  1
 14 15  1  0
 14 16  1  0
 16 17  1  6
 17  9  1  0
 18 16  1  0
 18 19  2  0
 20 21  1  0
 21 22  1  0
 22 23  1  1
 22 24  1  0
 24 25  1  6
 24 26  1  0
 25 18  1  0
 26 28  2  0
 26 27  1  0
M  END
$$$$
