YVI.pdb
     RDKit          3D

 28 28  0  0  1  0  0  0  0  0999 V2000
   35.7834  -32.0280  -23.8613 O   0  0  0  0  0  0  0  0  0  0  0  0
   34.8241  -31.7210  -22.8907 C   0  0  0  0  0  0  0  0  0  0  0  0
   34.2154  -30.4877  -22.8338 C   0  0  0  0  0  0  0  0  0  0  0  0
   33.2725  -30.2070  -21.8685 C   0  0  0  0  0  0  0  0  0  0  0  0
   32.8926  -31.1371  -20.9181 C   0  0  0  0  0  0  0  0  0  0  0  0
   31.8767  -30.8392  -19.8761 C   0  0  0  0  0  0  0  0  0  0  0  0
   32.4726  -29.8233  -18.9287 C   0  0  2  0  0  0  0  0  0  0  0  0
   33.4226  -30.5298  -18.0903 N   0  0  0  0  0  0  0  0  0  0  0  0
   31.3717  -29.2973  -18.0462 C   0  0  0  0  0  0  0  0  0  0  0  0
   31.1970  -29.8149  -16.9020 O   0  0  0  0  0  0  0  0  0  0  0  0
   33.5065  -32.3783  -20.9769 C   0  0  0  0  0  0  0  0  0  0  0  0
   34.4504  -32.6527  -21.9469 C   0  0  0  0  0  0  0  0  0  0  0  0
   29.5537  -25.5203  -18.8832 C   0  0  0  0  0  0  0  0  0  0  0  0
   29.7506  -26.1426  -17.5544 C   0  0  2  0  0  0  0  0  0  0  0  0
   31.0408  -25.7335  -16.8791 C   0  0  0  0  0  0  0  0  0  0  0  0
   29.5785  -27.6594  -17.5267 C   0  0  2  0  0  0  0  0  0  0  0  0
   30.5411  -28.2376  -18.4871 N   0  0  0  0  0  0  0  0  0  0  0  0
   28.2438  -28.1092  -17.9511 C   0  0  0  0  0  0  0  0  0  0  0  0
   27.9788  -28.2472  -19.1834 O   0  0  0  0  0  0  0  0  0  0  0  0
   23.7610  -32.0973  -16.8851 C   0  0  0  0  0  0  0  0  0  0  0  0
   24.1226  -30.7363  -17.3506 C   0  0  0  0  0  0  0  0  0  0  0  0
   25.5241  -30.2733  -17.0535 C   0  0  2  0  0  0  0  0  0  0  0  0
   25.7618  -30.4963  -15.5881 C   0  0  0  0  0  0  0  0  0  0  0  0
   25.8726  -28.9254  -17.5502 C   0  0  2  0  0  0  0  0  0  0  0  0
   27.1590  -28.4269  -17.1157 N   0  0  0  0  0  0  0  0  0  0  0  0
   24.8854  -27.8694  -17.3299 C   0  0  0  0  0  0  0  0  0  0  0  0
   23.6411  -27.7915  -17.9255 O   0  0  0  0  0  0  0  0  0  0  0  0
   25.1537  -26.9290  -16.5346 O   0  0  0  0  0  0  0  0  0  0  0  0
  2  1  1  0
  3  2  2  0
  4  3  1  0
  5  4  2  0
  5 11  1  0
  6  5  1  0
  7  6  1  0
  7  9  1  0
  7  8  1  1
  9 10  2  0
 11 12  2  0
 12  2  1  0
 14 13  1  6
 14 15  1  0
 14 16  1  0
 16 17  1  6
 17  9  1  0
 18 16  1  0
 18 19  2  0
 20 21  1  0
 21 22  1  0
 22 23  1  1
 22 24  1  0
 24 25  1  1
 24 26  1  0
 25 18  1  0
 26 28  2  0
 26 27  1  0
M  END
$$$$
