YVI.pdb
     RDKit          3D

 28 28  0  0  1  0  0  0  0  0999 V2000
   13.9600  -14.9064  -15.8413 O   0  0  0  0  0  0  0  0  0  0  0  0
   15.1154  -14.1200  -15.8951 C   0  0  0  0  0  0  0  0  0  0  0  0
   15.1017  -12.8402  -16.4018 C   0  0  0  0  0  0  0  0  0  0  0  0
   16.2526  -12.0831  -16.4450 C   0  0  0  0  0  0  0  0  0  0  0  0
   17.4666  -12.5624  -15.9878 C   0  0  0  0  0  0  0  0  0  0  0  0
   18.7095  -11.7500  -16.0321 C   0  0  0  0  0  0  0  0  0  0  0  0
   19.1479  -11.6570  -17.4756 C   0  0  2  0  0  0  0  0  0  0  0  0
   19.7696  -12.9235  -17.8136 N   0  0  0  0  0  0  0  0  0  0  0  0
   20.1944  -10.5796  -17.5834 C   0  0  0  0  0  0  0  0  0  0  0  0
   21.3893  -10.8441  -17.2524 O   0  0  0  0  0  0  0  0  0  0  0  0
   17.4786  -13.8511  -15.4780 C   0  0  0  0  0  0  0  0  0  0  0  0
   16.3216  -14.6041  -15.4376 C   0  0  0  0  0  0  0  0  0  0  0  0
   21.6866   -6.3477  -19.5603 C   0  0  0  0  0  0  0  0  0  0  0  0
   20.7741   -7.5037  -19.4092 C   0  0  2  0  0  0  0  0  0  0  0  0
   19.3267   -7.1752  -19.7014 C   0  0  0  0  0  0  0  0  0  0  0  0
   20.9058   -8.2538  -18.0858 C   0  0  2  0  0  0  0  0  0  0  0  0
   19.8498   -9.2866  -18.0486 N   0  0  0  0  0  0  0  0  0  0  0  0
   20.7004   -7.4034  -16.9033 C   0  0  0  0  0  0  0  0  0  0  0  0
   19.5279   -7.0759  -16.5487 O   0  0  0  0  0  0  0  0  0  0  0  0
   22.0909   -9.1275  -12.4079 C   0  0  0  0  0  0  0  0  0  0  0  0
   21.4342   -8.3028  -13.4511 C   0  0  0  0  0  0  0  0  0  0  0  0
   21.9349   -6.8916  -13.6079 C   0  0  2  0  0  0  0  0  0  0  0  0
   21.6763   -6.1841  -12.3095 C   0  0  0  0  0  0  0  0  0  0  0  0
   21.4724   -6.1780  -14.8171 C   0  0  2  0  0  0  0  0  0  0  0  0
   21.6969   -6.8769  -16.0634 N   0  0  0  0  0  0  0  0  0  0  0  0
   21.9374   -4.8020  -14.9852 C   0  0  0  0  0  0  0  0  0  0  0  0
   23.1046   -4.4165  -15.6163 O   0  0  0  0  0  0  0  0  0  0  0  0
   21.2423   -3.8548  -14.5288 O   0  0  0  0  0  0  0  0  0  0  0  0
  2  1  1  0
  3  2  2  0
  4  3  1  0
  5  4  2  0
  5 11  1  0
  6  5  1  0
  7  6  1  0
  7  9  1  0
  7  8  1  1
  9 10  2  0
 11 12  2  0
 12  2  1  0
 14 13  1  1
 14 15  1  0
 14 16  1  0
 16 17  1  6
 17  9  1  0
 18 16  1  0
 18 19  2  0
 20 21  1  0
 21 22  1  0
 22 23  1  1
 22 24  1  0
 24 25  1  6
 24 26  1  0
 25 18  1  0
 26 28  2  0
 26 27  1  0
M  END
$$$$
