YVI.pdb
     RDKit          3D

 28 28  0  0  1  0  0  0  0  0999 V2000
   18.5891  -17.9787  -15.3077 O   0  0  0  0  0  0  0  0  0  0  0  0
   19.4979  -18.7390  -14.5646 C   0  0  0  0  0  0  0  0  0  0  0  0
   20.2660  -18.1838  -13.5662 C   0  0  0  0  0  0  0  0  0  0  0  0
   21.1554  -18.9523  -12.8465 C   0  0  0  0  0  0  0  0  0  0  0  0
   21.3217  -20.3042  -13.0857 C   0  0  0  0  0  0  0  0  0  0  0  0
   22.2788  -21.1364  -12.3124 C   0  0  0  0  0  0  0  0  0  0  0  0
   23.6705  -20.8216  -12.8110 C   0  0  2  0  0  0  0  0  0  0  0  0
   23.8317  -21.5042  -14.0810 N   0  0  0  0  0  0  0  0  0  0  0  0
   24.6635  -21.4023  -11.8393 C   0  0  0  0  0  0  0  0  0  0  0  0
   24.7201  -22.6603  -11.6921 O   0  0  0  0  0  0  0  0  0  0  0  0
   20.5476  -20.8615  -14.0913 C   0  0  0  0  0  0  0  0  0  0  0  0
   19.6584  -20.0856  -14.8084 C   0  0  0  0  0  0  0  0  0  0  0  0
   29.0614  -21.7517  -10.4984 C   0  0  0  0  0  0  0  0  0  0  0  0
   27.8895  -21.0924  -11.1180 C   0  0  2  0  0  0  0  0  0  0  0  0
   28.1564  -19.6693  -11.5557 C   0  0  0  0  0  0  0  0  0  0  0  0
   26.6016  -21.1789  -10.3025 C   0  0  2  0  0  0  0  0  0  0  0  0
   25.5241  -20.5553  -11.0983 N   0  0  0  0  0  0  0  0  0  0  0  0
   26.6595  -20.4441   -9.0295 C   0  0  0  0  0  0  0  0  0  0  0  0
   26.1149  -19.3038   -8.9256 O   0  0  0  0  0  0  0  0  0  0  0  0
   28.4071  -20.8097   -2.9657 C   0  0  0  0  0  0  0  0  0  0  0  0
   27.7826  -20.1238   -4.1229 C   0  0  0  0  0  0  0  0  0  0  0  0
   27.7396  -20.8912   -5.4175 C   0  0  2  0  0  0  0  0  0  0  0  0
   29.0282  -21.6543   -5.5219 C   0  0  0  0  0  0  0  0  0  0  0  0
   27.3733  -20.1069   -6.6157 C   0  0  2  0  0  0  0  0  0  0  0  0
   27.2764  -20.8701   -7.8406 N   0  0  0  0  0  0  0  0  0  0  0  0
   28.1768  -18.9169   -6.8919 C   0  0  0  0  0  0  0  0  0  0  0  0
   27.9399  -17.6502   -6.3933 O   0  0  0  0  0  0  0  0  0  0  0  0
   29.1822  -19.0116   -7.6462 O   0  0  0  0  0  0  0  0  0  0  0  0
  2  1  1  0
  3  2  2  0
  4  3  1  0
  5  4  2  0
  5 11  1  0
  6  5  1  0
  7  6  1  0
  7  9  1  0
  7  8  1  6
  9 10  2  0
 11 12  2  0
 12  2  1  0
 14 13  1  1
 14 15  1  0
 14 16  1  0
 16 17  1  6
 17  9  1  0
 18 16  1  0
 18 19  2  0
 20 21  1  0
 21 22  1  0
 22 23  1  6
 22 24  1  0
 24 25  1  6
 24 26  1  0
 25 18  1  0
 26 28  2  0
 26 27  1  0
M  END
$$$$
