YVI.pdb
     RDKit          3D

 28 28  0  0  1  0  0  0  0  0999 V2000
   18.8622  -17.7008  -15.1017 O   0  0  0  0  0  0  0  0  0  0  0  0
   19.6806  -18.4605  -14.2594 C   0  0  0  0  0  0  0  0  0  0  0  0
   19.5345  -19.8239  -14.1389 C   0  0  0  0  0  0  0  0  0  0  0  0
   20.3524  -20.5528  -13.3025 C   0  0  0  0  0  0  0  0  0  0  0  0
   21.3503  -19.9612  -12.5497 C   0  0  0  0  0  0  0  0  0  0  0  0
   22.2343  -20.7427  -11.6473 C   0  0  0  0  0  0  0  0  0  0  0  0
   23.6377  -20.6741  -12.2043 C   0  0  2  0  0  0  0  0  0  0  0  0
   23.6671  -21.5130  -13.3876 N   0  0  0  0  0  0  0  0  0  0  0  0
   24.5789  -21.2659  -11.1887 C   0  0  0  0  0  0  0  0  0  0  0  0
   24.4087  -22.4651  -10.8143 O   0  0  0  0  0  0  0  0  0  0  0  0
   21.4959  -18.5883  -12.6723 C   0  0  0  0  0  0  0  0  0  0  0  0
   20.6729  -17.8643  -13.5122 C   0  0  0  0  0  0  0  0  0  0  0  0
   28.6074  -20.1691  -10.9579 C   0  0  0  0  0  0  0  0  0  0  0  0
   27.8895  -21.3993  -10.5542 C   0  0  2  0  0  0  0  0  0  0  0  0
   27.6453  -22.3606  -11.6963 C   0  0  0  0  0  0  0  0  0  0  0  0
   26.6076  -21.1603   -9.7599 C   0  0  2  0  0  0  0  0  0  0  0  0
   25.6415  -20.4939  -10.6576 N   0  0  0  0  0  0  0  0  0  0  0  0
   26.7878  -20.2684   -8.6042 C   0  0  0  0  0  0  0  0  0  0  0  0
   26.2669  -19.1124   -8.6028 O   0  0  0  0  0  0  0  0  0  0  0  0
   28.2628  -20.0611   -2.5045 C   0  0  0  0  0  0  0  0  0  0  0  0
   27.8867  -19.4278   -3.7918 C   0  0  0  0  0  0  0  0  0  0  0  0
   27.7938  -20.3374   -4.9880 C   0  0  2  0  0  0  0  0  0  0  0  0
   28.9263  -21.3176   -4.8867 C   0  0  0  0  0  0  0  0  0  0  0  0
   27.6592  -19.6634   -6.2967 C   0  0  2  0  0  0  0  0  0  0  0  0
   27.5051  -20.5505   -7.4288 N   0  0  0  0  0  0  0  0  0  0  0  0
   28.6852  -18.6784   -6.6361 C   0  0  0  0  0  0  0  0  0  0  0  0
   28.7773  -17.3996   -6.1208 O   0  0  0  0  0  0  0  0  0  0  0  0
   29.5824  -18.9822   -7.4676 O   0  0  0  0  0  0  0  0  0  0  0  0
  2  1  1  0
  3  2  2  0
  4  3  1  0
  5  4  2  0
  5 11  1  0
  6  5  1  0
  7  6  1  0
  7  9  1  0
  7  8  1  6
  9 10  2  0
 11 12  2  0
 12  2  1  0
 14 13  1  6
 14 15  1  0
 14 16  1  0
 16 17  1  6
 17  9  1  0
 18 16  1  0
 18 19  2  0
 20 21  1  0
 21 22  1  0
 22 23  1  6
 22 24  1  0
 24 25  1  6
 24 26  1  0
 25 18  1  0
 26 28  2  0
 26 27  1  0
M  END
$$$$
