YVI.pdb
     RDKit          3D

 28 28  0  0  1  0  0  0  0  0999 V2000
   19.3477  -17.1101  -16.1163 O   0  0  0  0  0  0  0  0  0  0  0  0
   20.0641  -17.8752  -15.1902 C   0  0  0  0  0  0  0  0  0  0  0  0
   21.1564  -17.3721  -14.5204 C   0  0  0  0  0  0  0  0  0  0  0  0
   21.8476  -18.1442  -13.6118 C   0  0  0  0  0  0  0  0  0  0  0  0
   21.4857  -19.4486  -13.3283 C   0  0  0  0  0  0  0  0  0  0  0  0
   22.2275  -20.2844  -12.3497 C   0  0  0  0  0  0  0  0  0  0  0  0
   23.5459  -20.6709  -12.9798 C   0  0  2  0  0  0  0  0  0  0  0  0
   23.2690  -21.7343  -13.9269 N   0  0  0  0  0  0  0  0  0  0  0  0
   24.4400  -21.2259  -11.9026 C   0  0  0  0  0  0  0  0  0  0  0  0
   24.1944  -22.3756  -11.4279 O   0  0  0  0  0  0  0  0  0  0  0  0
   20.3857  -19.9535  -14.0036 C   0  0  0  0  0  0  0  0  0  0  0  0
   19.6978  -19.1742  -14.9127 C   0  0  0  0  0  0  0  0  0  0  0  0
   28.4577  -19.9863  -11.6378 C   0  0  0  0  0  0  0  0  0  0  0  0
   27.8269  -21.2719  -11.2622 C   0  0  2  0  0  0  0  0  0  0  0  0
   27.7058  -22.2462  -12.4130 C   0  0  0  0  0  0  0  0  0  0  0  0
   26.5001  -21.1401  -10.5183 C   0  0  2  0  0  0  0  0  0  0  0  0
   25.5418  -20.4744  -11.4248 N   0  0  0  0  0  0  0  0  0  0  0  0
   26.5820  -20.3045   -9.3105 C   0  0  0  0  0  0  0  0  0  0  0  0
   26.0754  -19.1421   -9.3031 O   0  0  0  0  0  0  0  0  0  0  0  0
   26.8366  -20.0360   -3.1308 C   0  0  0  0  0  0  0  0  0  0  0  0
   27.0643  -19.4295   -4.4650 C   0  0  0  0  0  0  0  0  0  0  0  0
   26.9462  -20.3486   -5.6516 C   0  0  2  0  0  0  0  0  0  0  0  0
   27.6205  -21.6376   -5.2809 C   0  0  0  0  0  0  0  0  0  0  0  0
   27.3560  -19.7742   -6.9505 C   0  0  2  0  0  0  0  0  0  0  0  0
   27.1842  -20.6504   -8.0885 N   0  0  0  0  0  0  0  0  0  0  0  0
   28.7016  -19.2064   -7.0216 C   0  0  0  0  0  0  0  0  0  0  0  0
   29.8128  -19.8296   -7.5566 O   0  0  0  0  0  0  0  0  0  0  0  0
   28.9089  -18.0495   -6.5661 O   0  0  0  0  0  0  0  0  0  0  0  0
  2  1  1  0
  3  2  2  0
  4  3  1  0
  5  4  2  0
  5 11  1  0
  6  5  1  0
  7  6  1  0
  7  9  1  0
  7  8  1  6
  9 10  2  0
 11 12  2  0
 12  2  1  0
 14 13  1  6
 14 15  1  0
 14 16  1  0
 16 17  1  6
 17  9  1  0
 18 16  1  0
 18 19  2  0
 20 21  1  0
 21 22  1  0
 22 23  1  1
 22 24  1  0
 24 25  1  6
 24 26  1  0
 25 18  1  0
 26 28  2  0
 26 27  1  0
M  END
$$$$
