YVI.pdb
     RDKit          3D

 28 28  0  0  1  0  0  0  0  0999 V2000
   18.2281  -13.2058  -17.2460 O   0  0  0  0  0  0  0  0  0  0  0  0
   18.9075  -14.3126  -16.7264 C   0  0  0  0  0  0  0  0  0  0  0  0
   18.2609  -15.4923  -16.4349 C   0  0  0  0  0  0  0  0  0  0  0  0
   18.9506  -16.5704  -15.9235 C   0  0  0  0  0  0  0  0  0  0  0  0
   20.3110  -16.5253  -15.6790 C   0  0  0  0  0  0  0  0  0  0  0  0
   21.0586  -17.6848  -15.1282 C   0  0  0  0  0  0  0  0  0  0  0  0
   21.9562  -18.2159  -16.2221 C   0  0  2  0  0  0  0  0  0  0  0  0
   21.0929  -18.7418  -17.2628 N   0  0  0  0  0  0  0  0  0  0  0  0
   22.7604  -19.3585  -15.6607 C   0  0  0  0  0  0  0  0  0  0  0  0
   22.1811  -20.4593  -15.4151 O   0  0  0  0  0  0  0  0  0  0  0  0
   20.9604  -15.3366  -15.9731 C   0  0  0  0  0  0  0  0  0  0  0  0
   20.2631  -14.2603  -16.4854 C   0  0  0  0  0  0  0  0  0  0  0  0
   25.3404  -21.0660  -17.3967 C   0  0  0  0  0  0  0  0  0  0  0  0
   25.9306  -20.7041  -16.0881 C   0  0  2  0  0  0  0  0  0  0  0  0
   26.9717  -21.6871  -15.6004 C   0  0  0  0  0  0  0  0  0  0  0  0
   24.9140  -20.3983  -14.9907 C   0  0  2  0  0  0  0  0  0  0  0  0
   24.1464  -19.2072  -15.4096 N   0  0  0  0  0  0  0  0  0  0  0  0
   25.5268  -20.0660  -13.6954 C   0  0  0  0  0  0  0  0  0  0  0  0
   26.1618  -18.9782  -13.5502 O   0  0  0  0  0  0  0  0  0  0  0  0
   25.3890  -19.3687   -7.7410 C   0  0  0  0  0  0  0  0  0  0  0  0
   26.1922  -19.7677   -8.9223 C   0  0  0  0  0  0  0  0  0  0  0  0
   25.4275  -20.0931  -10.1777 C   0  0  2  0  0  0  0  0  0  0  0  0
   24.2817  -20.9779   -9.7804 C   0  0  0  0  0  0  0  0  0  0  0  0
   26.2377  -20.5833  -11.3128 C   0  0  2  0  0  0  0  0  0  0  0  0
   25.4954  -20.8456  -12.5262 N   0  0  0  0  0  0  0  0  0  0  0  0
   27.0972  -21.7378  -11.0552 C   0  0  0  0  0  0  0  0  0  0  0  0
   28.2798  -21.7195  -10.3408 O   0  0  0  0  0  0  0  0  0  0  0  0
   26.7667  -22.8672  -11.5071 O   0  0  0  0  0  0  0  0  0  0  0  0
  2  1  1  0
  3  2  2  0
  4  3  1  0
  5  4  2  0
  5 11  1  0
  6  5  1  0
  7  6  1  0
  7  9  1  0
  7  8  1  6
  9 10  2  0
 11 12  2  0
 12  2  1  0
 14 13  1  6
 14 15  1  0
 14 16  1  0
 16 17  1  6
 17  9  1  0
 18 16  1  0
 18 19  2  0
 20 21  1  0
 21 22  1  0
 22 23  1  1
 22 24  1  0
 24 25  1  6
 24 26  1  0
 25 18  1  0
 26 28  2  0
 26 27  1  0
M  END
$$$$
