YVI.pdb
     RDKit          3D

 28 28  0  0  1  0  0  0  0  0999 V2000
   17.1905  -16.2595  -17.2866 O   0  0  0  0  0  0  0  0  0  0  0  0
   18.2787  -17.0113  -16.8315 C   0  0  0  0  0  0  0  0  0  0  0  0
   18.1801  -18.3633  -16.5926 C   0  0  0  0  0  0  0  0  0  0  0  0
   19.2657  -19.0845  -16.1443 C   0  0  0  0  0  0  0  0  0  0  0  0
   20.4958  -18.4961  -15.9134 C   0  0  0  0  0  0  0  0  0  0  0  0
   21.6686  -19.2694  -15.4306 C   0  0  0  0  0  0  0  0  0  0  0  0
   22.6928  -19.2949  -16.5419 C   0  0  2  0  0  0  0  0  0  0  0  0
   22.1855  -20.1872  -17.5672 N   0  0  0  0  0  0  0  0  0  0  0  0
   23.9665  -19.8854  -15.9974 C   0  0  0  0  0  0  0  0  0  0  0  0
   24.0473  -21.1409  -15.8402 O   0  0  0  0  0  0  0  0  0  0  0  0
   20.5933  -17.1347  -16.1545 C   0  0  0  0  0  0  0  0  0  0  0  0
   19.5014  -16.4184  -16.6037 C   0  0  0  0  0  0  0  0  0  0  0  0
   27.5651  -18.9795  -17.2402 C   0  0  0  0  0  0  0  0  0  0  0  0
   27.4824  -18.9320  -15.7628 C   0  0  2  0  0  0  0  0  0  0  0  0
   28.7717  -19.3161  -15.0713 C   0  0  0  0  0  0  0  0  0  0  0  0
   26.2976  -19.6864  -15.1640 C   0  0  2  0  0  0  0  0  0  0  0  0
   25.0615  -19.0503  -15.6647 N   0  0  0  0  0  0  0  0  0  0  0  0
   26.2369  -19.6189  -13.6959 C   0  0  0  0  0  0  0  0  0  0  0  0
   26.1297  -18.4983  -13.1124 O   0  0  0  0  0  0  0  0  0  0  0  0
   22.4925  -20.8343  -10.6069 C   0  0  0  0  0  0  0  0  0  0  0  0
   23.7706  -20.3671  -11.1967 C   0  0  0  0  0  0  0  0  0  0  0  0
   25.0243  -21.0422  -10.7078 C   0  0  2  0  0  0  0  0  0  0  0  0
   25.0179  -20.9543   -9.2092 C   0  0  0  0  0  0  0  0  0  0  0  0
   26.2797  -20.6115  -11.3586 C   0  0  2  0  0  0  0  0  0  0  0  0
   26.2832  -20.7028  -12.8021 N   0  0  0  0  0  0  0  0  0  0  0  0
   27.5155  -21.2203  -10.8684 C   0  0  0  0  0  0  0  0  0  0  0  0
   28.1568  -20.9037   -9.6862 O   0  0  0  0  0  0  0  0  0  0  0  0
   28.0771  -22.1164  -11.5542 O   0  0  0  0  0  0  0  0  0  0  0  0
  2  1  1  0
  3  2  2  0
  4  3  1  0
  5  4  2  0
  5 11  1  0
  6  5  1  0
  7  6  1  0
  7  9  1  0
  7  8  1  6
  9 10  2  0
 11 12  2  0
 12  2  1  0
 14 13  1  6
 14 15  1  0
 14 16  1  0
 16 17  1  6
 17  9  1  0
 18 16  1  0
 18 19  2  0
 20 21  1  0
 21 22  1  0
 22 23  1  1
 22 24  1  0
 24 25  1  6
 24 26  1  0
 25 18  1  0
 26 28  2  0
 26 27  1  0
M  END
$$$$
