YVI.pdb
     RDKit          3D

 28 28  0  0  1  0  0  0  0  0999 V2000
   29.0026  -29.3408  -17.7104 O   0  0  0  0  0  0  0  0  0  0  0  0
   29.0477  -27.9953  -17.3309 C   0  0  0  0  0  0  0  0  0  0  0  0
   30.0834  -27.1686  -17.7032 C   0  0  0  0  0  0  0  0  0  0  0  0
   30.1072  -25.8455  -17.3178 C   0  0  0  0  0  0  0  0  0  0  0  0
   29.1053  -25.2852  -16.5465 C   0  0  0  0  0  0  0  0  0  0  0  0
   29.1266  -23.8598  -16.1290 C   0  0  0  0  0  0  0  0  0  0  0  0
   28.1200  -23.1164  -16.9767 C   0  0  2  0  0  0  0  0  0  0  0  0
   28.7918  -22.7464  -18.2081 N   0  0  0  0  0  0  0  0  0  0  0  0
   27.7371  -21.8513  -16.2552 C   0  0  0  0  0  0  0  0  0  0  0  0
   28.2913  -20.7600  -16.5858 O   0  0  0  0  0  0  0  0  0  0  0  0
   28.0633  -26.1192  -16.1725 C   0  0  0  0  0  0  0  0  0  0  0  0
   28.0459  -27.4439  -16.5624 C   0  0  0  0  0  0  0  0  0  0  0  0
   25.0871  -18.4942  -15.3783 C   0  0  0  0  0  0  0  0  0  0  0  0
   25.6462  -19.8038  -15.7837 C   0  0  2  0  0  0  0  0  0  0  0  0
   24.6668  -20.6720  -16.5421 C   0  0  0  0  0  0  0  0  0  0  0  0
   26.3132  -20.5905  -14.6580 C   0  0  2  0  0  0  0  0  0  0  0  0
   26.7700  -21.8783  -15.2203 N   0  0  0  0  0  0  0  0  0  0  0  0
   25.4042  -20.9180  -13.5488 C   0  0  0  0  0  0  0  0  0  0  0  0
   24.5189  -21.8143  -13.6926 O   0  0  0  0  0  0  0  0  0  0  0  0
   26.9832  -20.3579   -8.2632 C   0  0  0  0  0  0  0  0  0  0  0  0
   26.3444  -20.8956   -9.4890 C   0  0  0  0  0  0  0  0  0  0  0  0
   24.9873  -20.3449   -9.8380 C   0  0  2  0  0  0  0  0  0  0  0  0
   24.0613  -20.7059   -8.7130 C   0  0  0  0  0  0  0  0  0  0  0  0
   24.4916  -20.6721  -11.1916 C   0  0  2  0  0  0  0  0  0  0  0  0
   25.3912  -20.3311  -12.2717 N   0  0  0  0  0  0  0  0  0  0  0  0
   23.1623  -20.1739  -11.5418 C   0  0  0  0  0  0  0  0  0  0  0  0
   21.9768  -20.8691  -11.3983 O   0  0  0  0  0  0  0  0  0  0  0  0
   23.0434  -19.0136  -12.0196 O   0  0  0  0  0  0  0  0  0  0  0  0
  2  1  1  0
  3  2  2  0
  4  3  1  0
  5  4  2  0
  5 11  1  0
  6  5  1  0
  7  6  1  0
  7  9  1  0
  7  8  1  6
  9 10  2  0
 11 12  2  0
 12  2  1  0
 14 13  1  1
 14 15  1  0
 14 16  1  0
 16 17  1  6
 17  9  1  0
 18 16  1  0
 18 19  2  0
 20 21  1  0
 21 22  1  0
 22 23  1  1
 22 24  1  0
 24 25  1  6
 24 26  1  0
 25 18  1  0
 26 28  2  0
 26 27  1  0
M  END
$$$$
