YVI.pdb
     RDKit          3D

 28 28  0  0  1  0  0  0  0  0999 V2000
   33.6151   -6.5260  -18.4972 O   0  0  0  0  0  0  0  0  0  0  0  0
   32.2624   -6.8808  -18.4706 C   0  0  0  0  0  0  0  0  0  0  0  0
   31.8114   -7.9776  -17.7718 C   0  0  0  0  0  0  0  0  0  0  0  0
   30.4735   -8.3086  -17.7594 C   0  0  0  0  0  0  0  0  0  0  0  0
   29.5252   -7.5664  -18.4395 C   0  0  0  0  0  0  0  0  0  0  0  0
   28.0823   -7.9191  -18.4289 C   0  0  0  0  0  0  0  0  0  0  0  0
   27.9724   -9.4015  -18.1547 C   0  0  2  0  0  0  0  0  0  0  0  0
   28.3223  -10.0883  -19.3838 N   0  0  0  0  0  0  0  0  0  0  0  0
   26.5352   -9.7179  -17.8357 C   0  0  0  0  0  0  0  0  0  0  0  0
   25.7201   -9.9134  -18.7870 O   0  0  0  0  0  0  0  0  0  0  0  0
   29.9812   -6.4624  -19.1427 C   0  0  0  0  0  0  0  0  0  0  0  0
   31.3231   -6.1366  -19.1506 C   0  0  0  0  0  0  0  0  0  0  0  0
   25.5886  -12.4792  -15.3963 C   0  0  0  0  0  0  0  0  0  0  0  0
   24.7713  -11.2801  -15.1034 C   0  0  2  0  0  0  0  0  0  0  0  0
   23.3821  -11.6023  -14.5990 C   0  0  0  0  0  0  0  0  0  0  0  0
   24.7163  -10.2524  -16.2313 C   0  0  2  0  0  0  0  0  0  0  0  0
   26.0978   -9.7967  -16.4905 N   0  0  0  0  0  0  0  0  0  0  0  0
   23.9361   -9.0511  -15.8968 C   0  0  0  0  0  0  0  0  0  0  0  0
   24.3752   -8.2220  -15.0439 O   0  0  0  0  0  0  0  0  0  0  0  0
   22.4232   -5.2384  -19.0730 C   0  0  0  0  0  0  0  0  0  0  0  0
   22.7391   -6.0743  -17.8893 C   0  0  0  0  0  0  0  0  0  0  0  0
   21.5674   -6.5857  -17.0941 C   0  0  2  0  0  0  0  0  0  0  0  0
   20.7714   -5.3890  -16.6606 C   0  0  0  0  0  0  0  0  0  0  0  0
   21.8926   -7.5484  -16.0205 C   0  0  2  0  0  0  0  0  0  0  0  0
   22.6918   -8.6804  -16.4351 N   0  0  0  0  0  0  0  0  0  0  0  0
   20.7703   -8.0569  -15.2331 C   0  0  0  0  0  0  0  0  0  0  0  0
   20.0309   -9.1884  -15.5200 O   0  0  0  0  0  0  0  0  0  0  0  0
   20.4139   -7.4384  -14.1943 O   0  0  0  0  0  0  0  0  0  0  0  0
  2  1  1  0
  3  2  2  0
  4  3  1  0
  5  4  2  0
  5 11  1  0
  6  5  1  0
  7  6  1  0
  7  9  1  0
  7  8  1  6
  9 10  2  0
 11 12  2  0
 12  2  1  0
 14 13  1  6
 14 15  1  0
 14 16  1  0
 16 17  1  1
 17  9  1  0
 18 16  1  0
 18 19  2  0
 20 21  1  0
 21 22  1  0
 22 23  1  1
 22 24  1  0
 24 25  1  6
 24 26  1  0
 25 18  1  0
 26 28  2  0
 26 27  1  0
M  END
$$$$
