IFP.pdb
     RDKit          3D

 27 28  0  0  1  0  0  0  0  0999 V2000
   12.8553  -19.7144   20.0721 C   0  0  0  0  0  0  0  0  0  0  0  0
   11.5703  -19.4552   20.7923 C   0  0  0  0  0  0  0  0  0  0  0  0
   11.6850  -18.3664   21.8378 C   0  0  2  0  0  0  0  0  0  0  0  0
   10.9642  -18.8906   23.0819 C   0  0  0  0  0  0  0  0  0  0  0  0
   10.9578  -17.1609   21.3134 C   0  0  2  0  0  0  0  0  0  0  0  0
   11.7137  -16.5774   20.2487 N   0  0  0  0  0  0  0  0  0  0  0  0
   10.6814  -16.1696   22.4087 C   0  0  0  0  0  0  0  0  0  0  0  0
   11.5866  -15.3981   22.7963 O   0  0  0  0  0  0  0  0  0  0  0  0
    9.4114  -16.0853   23.0189 N   0  0  0  0  0  0  0  0  0  0  0  0
    9.0074  -15.2678   24.1297 C   0  0  1  0  0  0  0  0  0  0  0  0
    7.6415  -14.6699   23.8986 C   0  0  0  0  0  0  0  0  0  0  0  0
    7.1838  -13.7368   24.9477 C   0  0  0  0  0  0  0  0  0  0  0  0
    7.5436  -12.4156   24.8561 C   0  0  0  0  0  0  0  0  0  0  0  0
    7.1565  -11.4788   25.8098 C   0  0  0  0  0  0  0  0  0  0  0  0
    6.3913  -11.8807   26.8778 C   0  0  0  0  0  0  0  0  0  0  0  0
    6.0224  -13.2191   26.9778 C   0  0  0  0  0  0  0  0  0  0  0  0
    6.4212  -14.1307   26.0149 C   0  0  0  0  0  0  0  0  0  0  0  0
    9.2393  -15.8601   25.4417 C   0  0  0  0  0  0  0  0  0  0  0  0
    8.7884  -16.9886   25.7162 O   0  0  0  0  0  0  0  0  0  0  0  0
    9.9972  -15.2009   26.4985 N   0  0  0  0  0  0  0  0  0  0  0  0
   10.3923  -13.8090   26.5157 C   0  0  0  0  0  0  0  0  0  0  0  0
   10.0930  -13.4597   27.9798 C   0  0  0  0  0  0  0  0  0  0  0  0
   10.6792  -14.6778   28.6888 C   0  0  0  0  0  0  0  0  0  0  0  0
   10.4700  -15.8155   27.6853 C   0  0  1  0  0  0  0  0  0  0  0  0
    9.5345  -16.8002   28.2677 C   0  0  0  0  0  0  0  0  0  0  0  0
    8.3865  -16.9123   27.7222 O   0  0  0  0  0  0  0  0  0  0  0  0
    9.8059  -17.5987   29.3396 O   0  0  0  0  0  0  0  0  0  0  0  0
  1  2  1  0
  3  2  1  0
  3  4  1  1
  5  3  1  0
  5  6  1  6
  7  8  2  0
  7  5  1  0
  9  7  1  0
 10  9  1  0
 11 12  1  0
 10 11  1  6
 12 13  2  0
 13 14  1  0
 15 14  2  0
 16 15  1  0
 17 12  1  0
 17 16  2  0
 18 10  1  0
 18 19  2  0
 20 18  1  0
 21 20  1  0
 22 21  1  0
 23 22  1  0
 23 24  1  0
 24 20  1  0
 25 27  1  0
 24 25  1  1
 26 25  2  0
M  END
$$$$
