IFP.pdb
     RDKit          3D

 27 28  0  0  1  0  0  0  0  0999 V2000
   13.1236  -19.9977   20.7195 C   0  0  0  0  0  0  0  0  0  0  0  0
   11.9394  -19.1135   20.4888 C   0  0  0  0  0  0  0  0  0  0  0  0
   11.7816  -18.0442   21.5488 C   0  0  2  0  0  0  0  0  0  0  0  0
   11.5945  -18.7825   22.8762 C   0  0  0  0  0  0  0  0  0  0  0  0
   10.5321  -17.2743   21.2283 C   0  0  2  0  0  0  0  0  0  0  0  0
   10.6479  -16.7055   19.9212 N   0  0  0  0  0  0  0  0  0  0  0  0
   10.2533  -16.2263   22.2690 C   0  0  0  0  0  0  0  0  0  0  0  0
   10.9587  -15.1946   22.3214 O   0  0  0  0  0  0  0  0  0  0  0  0
    9.2035  -16.3779   23.2002 N   0  0  0  0  0  0  0  0  0  0  0  0
    8.8326  -15.5020   24.2775 C   0  0  1  0  0  0  0  0  0  0  0  0
    7.4423  -14.9507   24.0783 C   0  0  0  0  0  0  0  0  0  0  0  0
    7.0550  -13.8811   25.0199 C   0  0  0  0  0  0  0  0  0  0  0  0
    6.2954  -14.2107   26.1144 C   0  0  0  0  0  0  0  0  0  0  0  0
    5.8861  -13.2568   27.0415 C   0  0  0  0  0  0  0  0  0  0  0  0
    6.2490  -11.9438   26.8628 C   0  0  0  0  0  0  0  0  0  0  0  0
    7.0192  -11.6014   25.7551 C   0  0  0  0  0  0  0  0  0  0  0  0
    7.4131  -12.5704   24.8478 C   0  0  0  0  0  0  0  0  0  0  0  0
    9.1424  -16.0058   25.6103 C   0  0  0  0  0  0  0  0  0  0  0  0
    8.7681  -17.1410   25.9614 O   0  0  0  0  0  0  0  0  0  0  0  0
    9.8950  -15.2465   26.6016 N   0  0  0  0  0  0  0  0  0  0  0  0
   10.1828  -13.8295   26.5438 C   0  0  0  0  0  0  0  0  0  0  0  0
    9.9246  -13.4400   28.0055 C   0  0  0  0  0  0  0  0  0  0  0  0
   10.6338  -14.5788   28.7335 C   0  0  0  0  0  0  0  0  0  0  0  0
   10.4669  -15.7717   27.7878 C   0  0  1  0  0  0  0  0  0  0  0  0
    9.6368  -16.7971   28.4539 C   0  0  0  0  0  0  0  0  0  0  0  0
    8.4582  -16.9821   28.0016 O   0  0  0  0  0  0  0  0  0  0  0  0
   10.0356  -17.5610   29.5112 O   0  0  0  0  0  0  0  0  0  0  0  0
  1  2  1  0
  3  2  1  0
  3  4  1  1
  5  3  1  0
  5  6  1  6
  7  8  2  0
  7  5  1  0
  9  7  1  0
 10  9  1  0
 11 12  1  0
 10 11  1  1
 12 13  2  0
 13 14  1  0
 15 14  2  0
 16 15  1  0
 17 12  1  0
 17 16  2  0
 18 10  1  0
 18 19  2  0
 20 18  1  0
 21 20  1  0
 22 21  1  0
 23 22  1  0
 23 24  1  0
 24 20  1  0
 25 27  1  0
 24 25  1  1
 26 25  2  0
M  END
$$$$
