IFP.pdb
     RDKit          3D

 27 28  0  0  1  0  0  0  0  0999 V2000
    6.6286  -22.6633   21.2666 C   0  0  0  0  0  0  0  0  0  0  0  0
    5.8920  -21.9794   22.3743 C   0  0  0  0  0  0  0  0  0  0  0  0
    6.0321  -20.4724   22.3384 C   0  0  2  0  0  0  0  0  0  0  0  0
    7.5277  -20.1787   22.4763 C   0  0  0  0  0  0  0  0  0  0  0  0
    5.3061  -19.9248   23.5342 C   0  0  2  0  0  0  0  0  0  0  0  0
    3.9245  -20.2860   23.4564 N   0  0  0  0  0  0  0  0  0  0  0  0
    5.4872  -18.4373   23.6500 C   0  0  0  0  0  0  0  0  0  0  0  0
    4.8496  -17.6696   22.8957 O   0  0  0  0  0  0  0  0  0  0  0  0
    6.3688  -17.8770   24.5993 N   0  0  0  0  0  0  0  0  0  0  0  0
    6.8256  -16.5181   24.7001 C   0  0  1  0  0  0  0  0  0  0  0  0
    6.7848  -16.0335   26.1284 C   0  0  0  0  0  0  0  0  0  0  0  0
    7.0584  -14.5932   26.3060 C   0  0  0  0  0  0  0  0  0  0  0  0
    6.0051  -13.7140   26.2726 C   0  0  0  0  0  0  0  0  0  0  0  0
    6.1852  -12.3424   26.4251 C   0  0  0  0  0  0  0  0  0  0  0  0
    7.4521  -11.8458   26.6152 C   0  0  0  0  0  0  0  0  0  0  0  0
    8.5256  -12.7311   26.6502 C   0  0  0  0  0  0  0  0  0  0  0  0
    8.3185  -14.0915   26.4956 C   0  0  0  0  0  0  0  0  0  0  0  0
    8.0432  -16.2248   23.9534 C   0  0  0  0  0  0  0  0  0  0  0  0
    9.1181  -16.7802   24.2506 O   0  0  0  0  0  0  0  0  0  0  0  0
    8.0943  -15.2927   22.8335 N   0  0  0  0  0  0  0  0  0  0  0  0
    6.9862  -14.5080   22.3331 C   0  0  0  0  0  0  0  0  0  0  0  0
    7.6888  -13.1638   22.0994 C   0  0  0  0  0  0  0  0  0  0  0  0
    8.9754  -13.6288   21.4223 C   0  0  0  0  0  0  0  0  0  0  0  0
    9.2399  -14.9998   22.0514 C   0  0  1  0  0  0  0  0  0  0  0  0
   10.4973  -14.9357   22.8254 C   0  0  0  0  0  0  0  0  0  0  0  0
   10.4031  -14.9277   24.0978 O   0  0  0  0  0  0  0  0  0  0  0  0
   11.7481  -14.8879   22.2836 O   0  0  0  0  0  0  0  0  0  0  0  0
  1  2  1  0
  3  2  1  0
  3  4  1  1
  5  3  1  0
  5  6  1  6
  7  8  2  0
  7  5  1  0
  9  7  1  0
 10  9  1  0
 11 12  1  0
 10 11  1  1
 12 13  2  0
 13 14  1  0
 15 14  2  0
 16 15  1  0
 17 12  1  0
 17 16  2  0
 18 10  1  0
 18 19  2  0
 20 18  1  0
 21 20  1  0
 22 21  1  0
 23 22  1  0
 23 24  1  0
 24 20  1  0
 25 27  1  0
 24 25  1  1
 26 25  2  0
M  END
$$$$
