IFP.pdb
     RDKit          3D

 27 28  0  0  1  0  0  0  0  0999 V2000
    7.1793  -20.6381   20.4592 C   0  0  0  0  0  0  0  0  0  0  0  0
    6.1282  -19.9038   21.2293 C   0  0  0  0  0  0  0  0  0  0  0  0
    6.0095  -20.3701   22.6647 C   0  0  2  0  0  0  0  0  0  0  0  0
    5.6046  -21.8447   22.6031 C   0  0  0  0  0  0  0  0  0  0  0  0
    4.9052  -19.5781   23.3050 C   0  0  2  0  0  0  0  0  0  0  0  0
    3.6926  -19.7785   22.5736 N   0  0  0  0  0  0  0  0  0  0  0  0
    5.2625  -18.1215   23.4026 C   0  0  0  0  0  0  0  0  0  0  0  0
    4.8827  -17.3242   22.5167 O   0  0  0  0  0  0  0  0  0  0  0  0
    6.0248  -17.6236   24.4812 N   0  0  0  0  0  0  0  0  0  0  0  0
    6.5964  -16.3147   24.6410 C   0  0  1  0  0  0  0  0  0  0  0  0
    6.5494  -15.8713   26.0825 C   0  0  0  0  0  0  0  0  0  0  0  0
    6.9597  -14.4724   26.3179 C   0  0  0  0  0  0  0  0  0  0  0  0
    6.0056  -13.4876   26.2589 C   0  0  0  0  0  0  0  0  0  0  0  0
    6.3173  -12.1466   26.4625 C   0  0  0  0  0  0  0  0  0  0  0  0
    7.6166  -11.7897   26.7312 C   0  0  0  0  0  0  0  0  0  0  0  0
    8.5901  -12.7827   26.7926 C   0  0  0  0  0  0  0  0  0  0  0  0
    8.2529  -14.1097   26.5859 C   0  0  0  0  0  0  0  0  0  0  0  0
    7.8601  -16.1094   23.9433 C   0  0  0  0  0  0  0  0  0  0  0  0
    8.8970  -16.6826   24.3285 O   0  0  0  0  0  0  0  0  0  0  0  0
    8.0025  -15.2491   22.7748 N   0  0  0  0  0  0  0  0  0  0  0  0
    6.9463  -14.4754   22.1586 C   0  0  0  0  0  0  0  0  0  0  0  0
    7.6931  -13.1620   21.8897 C   0  0  0  0  0  0  0  0  0  0  0  0
    9.0082  -13.6925   21.3250 C   0  0  0  0  0  0  0  0  0  0  0  0
    9.2011  -15.0270   22.0510 C   0  0  1  0  0  0  0  0  0  0  0  0
   10.4090  -14.9399   22.8981 C   0  0  0  0  0  0  0  0  0  0  0  0
   11.5384  -14.8946   22.3063 O   0  0  0  0  0  0  0  0  0  0  0  0
   10.4075  -14.9010   24.2615 O   0  0  0  0  0  0  0  0  0  0  0  0
  1  2  1  0
  3  2  1  0
  3  4  1  6
  5  3  1  0
  5  6  1  6
  7  8  2  0
  7  5  1  0
  9  7  1  0
 10  9  1  0
 11 12  1  0
 10 11  1  1
 12 13  2  0
 13 14  1  0
 15 14  2  0
 16 15  1  0
 17 12  1  0
 17 16  2  0
 18 10  1  0
 18 19  2  0
 20 18  1  0
 21 20  1  0
 22 21  1  0
 23 22  1  0
 23 24  1  0
 24 20  1  0
 25 27  1  0
 24 25  1  1
 26 25  2  0
M  END
$$$$
