IFP.pdb
     RDKit          3D

 27 28  0  0  1  0  0  0  0  0999 V2000
   14.0788  -18.4309   21.8972 C   0  0  0  0  0  0  0  0  0  0  0  0
   12.9137  -17.5950   21.4720 C   0  0  0  0  0  0  0  0  0  0  0  0
   11.5873  -18.3118   21.6095 C   0  0  2  0  0  0  0  0  0  0  0  0
   11.6499  -19.5122   20.6622 C   0  0  0  0  0  0  0  0  0  0  0  0
   10.5155  -17.3675   21.1444 C   0  0  2  0  0  0  0  0  0  0  0  0
   10.8695  -16.8433   19.8617 N   0  0  0  0  0  0  0  0  0  0  0  0
   10.2781  -16.2732   22.1470 C   0  0  0  0  0  0  0  0  0  0  0  0
   11.0004  -15.2519   22.1401 O   0  0  0  0  0  0  0  0  0  0  0  0
    9.2487  -16.3691   23.1079 N   0  0  0  0  0  0  0  0  0  0  0  0
    8.9291  -15.4528   24.1680 C   0  0  1  0  0  0  0  0  0  0  0  0
    7.5561  -14.8565   23.9782 C   0  0  0  0  0  0  0  0  0  0  0  0
    7.1526  -13.8800   25.0099 C   0  0  0  0  0  0  0  0  0  0  0  0
    6.3547  -14.3052   26.0425 C   0  0  0  0  0  0  0  0  0  0  0  0
    5.9281  -13.4420   27.0474 C   0  0  0  0  0  0  0  0  0  0  0  0
    6.3129  -12.1235   27.0120 C   0  0  0  0  0  0  0  0  0  0  0  0
    7.1220  -11.6846   25.9679 C   0  0  0  0  0  0  0  0  0  0  0  0
    7.5323  -12.5645   24.9805 C   0  0  0  0  0  0  0  0  0  0  0  0
    9.2447  -15.9332   25.5080 C   0  0  0  0  0  0  0  0  0  0  0  0
    8.8514  -17.0523   25.8889 O   0  0  0  0  0  0  0  0  0  0  0  0
   10.0246  -15.1678   26.4732 N   0  0  0  0  0  0  0  0  0  0  0  0
   10.3710  -13.7672   26.3624 C   0  0  0  0  0  0  0  0  0  0  0  0
   10.1242  -13.3112   27.8067 C   0  0  0  0  0  0  0  0  0  0  0  0
   10.7832  -14.4494   28.5815 C   0  0  0  0  0  0  0  0  0  0  0  0
   10.5703  -15.6700   27.6814 C   0  0  1  0  0  0  0  0  0  0  0  0
    9.6963  -16.6338   28.3824 C   0  0  0  0  0  0  0  0  0  0  0  0
   10.1869  -17.2465   29.3882 O   0  0  0  0  0  0  0  0  0  0  0  0
    8.4067  -16.9148   28.0380 O   0  0  0  0  0  0  0  0  0  0  0  0
  1  2  1  0
  3  2  1  0
  3  4  1  6
  5  3  1  0
  5  6  1  6
  7  8  2  0
  7  5  1  0
  9  7  1  0
 10  9  1  0
 11 12  1  0
 10 11  1  1
 12 13  2  0
 13 14  1  0
 15 14  2  0
 16 15  1  0
 17 12  1  0
 17 16  2  0
 18 10  1  0
 18 19  2  0
 20 18  1  0
 21 20  1  0
 22 21  1  0
 23 22  1  0
 23 24  1  0
 24 20  1  0
 25 27  1  0
 24 25  1  1
 26 25  2  0
M  END
$$$$
