IFP.pdb
     RDKit          3D

 27 28  0  0  1  0  0  0  0  0999 V2000
   13.1781  -20.0105   20.7248 C   0  0  0  0  0  0  0  0  0  0  0  0
   12.0534  -19.0592   20.4654 C   0  0  0  0  0  0  0  0  0  0  0  0
   11.8934  -18.0184   21.5531 C   0  0  2  0  0  0  0  0  0  0  0  0
   11.5702  -18.7873   22.8363 C   0  0  0  0  0  0  0  0  0  0  0  0
   10.7204  -17.1565   21.1818 C   0  0  2  0  0  0  0  0  0  0  0  0
   10.9648  -16.5448   19.9123 N   0  0  0  0  0  0  0  0  0  0  0  0
   10.4336  -16.1350   22.2463 C   0  0  0  0  0  0  0  0  0  0  0  0
   11.2138  -15.1718   22.4144 O   0  0  0  0  0  0  0  0  0  0  0  0
    9.2928  -16.2355   23.0714 N   0  0  0  0  0  0  0  0  0  0  0  0
    8.8967  -15.3786   24.1550 C   0  0  1  0  0  0  0  0  0  0  0  0
    7.5201  -14.8064   23.9228 C   0  0  0  0  0  0  0  0  0  0  0  0
    7.0505  -13.8700   24.9636 C   0  0  0  0  0  0  0  0  0  0  0  0
    7.3900  -12.5444   24.8582 C   0  0  0  0  0  0  0  0  0  0  0  0
    6.9907  -11.6042   25.8035 C   0  0  0  0  0  0  0  0  0  0  0  0
    6.2339  -12.0070   26.8771 C   0  0  0  0  0  0  0  0  0  0  0  0
    5.8856  -13.3498   26.9912 C   0  0  0  0  0  0  0  0  0  0  0  0
    6.2962  -14.2648   26.0364 C   0  0  0  0  0  0  0  0  0  0  0  0
    9.1570  -15.9148   25.4857 C   0  0  0  0  0  0  0  0  0  0  0  0
    8.6257  -16.9794   25.8549 O   0  0  0  0  0  0  0  0  0  0  0  0
   10.0353  -15.2698   26.4544 N   0  0  0  0  0  0  0  0  0  0  0  0
   10.5466  -13.9190   26.3666 C   0  0  0  0  0  0  0  0  0  0  0  0
   10.3742  -13.4680   27.8232 C   0  0  0  0  0  0  0  0  0  0  0  0
   10.9007  -14.6937   28.5652 C   0  0  0  0  0  0  0  0  0  0  0  0
   10.5312  -15.8600   27.6442 C   0  0  1  0  0  0  0  0  0  0  0  0
    9.5560  -16.7266   28.3385 C   0  0  0  0  0  0  0  0  0  0  0  0
    8.3564  -16.7253   27.9038 O   0  0  0  0  0  0  0  0  0  0  0  0
    9.8414  -17.5283   29.4044 O   0  0  0  0  0  0  0  0  0  0  0  0
  1  2  1  0
  3  2  1  0
  3  4  1  1
  5  3  1  0
  5  6  1  6
  7  8  2  0
  7  5  1  0
  9  7  1  0
 10  9  1  0
 11 12  1  0
 10 11  1  1
 12 13  2  0
 13 14  1  0
 15 14  2  0
 16 15  1  0
 17 12  1  0
 17 16  2  0
 18 10  1  0
 18 19  2  0
 20 18  1  0
 21 20  1  0
 22 21  1  0
 23 22  1  0
 23 24  1  0
 24 20  1  0
 25 27  1  0
 24 25  1  1
 26 25  2  0
M  END
$$$$
