IFP.pdb
     RDKit          3D

 27 28  0  0  1  0  0  0  0  0999 V2000
    8.4054  -21.0280   21.3986 C   0  0  0  0  0  0  0  0  0  0  0  0
    7.1555  -20.5228   22.0466 C   0  0  0  0  0  0  0  0  0  0  0  0
    7.0871  -20.8331   23.5267 C   0  0  2  0  0  0  0  0  0  0  0  0
    7.0129  -22.3575   23.6410 C   0  0  0  0  0  0  0  0  0  0  0  0
    5.8147  -20.2330   24.0537 C   0  0  2  0  0  0  0  0  0  0  0  0
    4.7062  -20.7398   23.3055 N   0  0  0  0  0  0  0  0  0  0  0  0
    5.8656  -18.7312   24.0255 C   0  0  0  0  0  0  0  0  0  0  0  0
    5.2201  -18.1002   23.1596 O   0  0  0  0  0  0  0  0  0  0  0  0
    6.6324  -18.0053   24.9623 N   0  0  0  0  0  0  0  0  0  0  0  0
    6.9460  -16.6028   24.9636 C   0  0  1  0  0  0  0  0  0  0  0  0
    6.8851  -16.0315   26.3588 C   0  0  0  0  0  0  0  0  0  0  0  0
    7.0162  -14.5627   26.4372 C   0  0  0  0  0  0  0  0  0  0  0  0
    8.2638  -14.0221   26.6239 C   0  0  0  0  0  0  0  0  0  0  0  0
    8.4652  -12.6481   26.7148 C   0  0  0  0  0  0  0  0  0  0  0  0
    7.3882  -11.8007   26.6158 C   0  0  0  0  0  0  0  0  0  0  0  0
    6.1196  -12.3413   26.4266 C   0  0  0  0  0  0  0  0  0  0  0  0
    5.9470  -13.7125   26.3396 C   0  0  0  0  0  0  0  0  0  0  0  0
    8.1097  -16.2352   24.1657 C   0  0  0  0  0  0  0  0  0  0  0  0
    9.2391  -16.6767   24.4514 O   0  0  0  0  0  0  0  0  0  0  0  0
    8.0431  -15.3548   23.0054 N   0  0  0  0  0  0  0  0  0  0  0  0
    6.8782  -14.6158   22.5685 C   0  0  0  0  0  0  0  0  0  0  0  0
    7.5266  -13.2704   22.2157 C   0  0  0  0  0  0  0  0  0  0  0  0
    8.7611  -13.7409   21.4511 C   0  0  0  0  0  0  0  0  0  0  0  0
    9.1104  -15.0759   22.1150 C   0  0  1  0  0  0  0  0  0  0  0  0
   10.4275  -14.9518   22.7738 C   0  0  0  0  0  0  0  0  0  0  0  0
   10.4456  -14.9302   24.0493 O   0  0  0  0  0  0  0  0  0  0  0  0
   11.6227  -14.8619   22.1227 O   0  0  0  0  0  0  0  0  0  0  0  0
  1  2  1  0
  3  2  1  0
  3  4  1  6
  5  3  1  0
  5  6  1  6
  7  8  2  0
  7  5  1  0
  9  7  1  0
 10  9  1  0
 11 12  1  0
 10 11  1  1
 12 13  2  0
 13 14  1  0
 15 14  2  0
 16 15  1  0
 17 12  1  0
 17 16  2  0
 18 10  1  0
 18 19  2  0
 20 18  1  0
 21 20  1  0
 22 21  1  0
 23 22  1  0
 23 24  1  0
 24 20  1  0
 25 27  1  0
 24 25  1  1
 26 25  2  0
M  END
$$$$
