IFP.pdb
     RDKit          3D

 27 28  0  0  1  0  0  0  0  0999 V2000
    7.2753  -22.4260   21.8796 C   0  0  0  0  0  0  0  0  0  0  0  0
    5.9144  -21.8806   21.5834 C   0  0  0  0  0  0  0  0  0  0  0  0
    5.8286  -20.3781   21.7472 C   0  0  2  0  0  0  0  0  0  0  0  0
    7.1945  -19.8244   21.3352 C   0  0  0  0  0  0  0  0  0  0  0  0
    5.5980  -20.0972   23.2049 C   0  0  2  0  0  0  0  0  0  0  0  0
    4.3751  -20.7127   23.6186 N   0  0  0  0  0  0  0  0  0  0  0  0
    5.6005  -18.6204   23.4843 C   0  0  0  0  0  0  0  0  0  0  0  0
    4.7915  -17.8712   22.8935 O   0  0  0  0  0  0  0  0  0  0  0  0
    6.5030  -18.0498   24.4074 N   0  0  0  0  0  0  0  0  0  0  0  0
    6.8608  -16.6671   24.5677 C   0  0  1  0  0  0  0  0  0  0  0  0
    6.8841  -16.2750   26.0245 C   0  0  0  0  0  0  0  0  0  0  0  0
    6.9674  -14.8226   26.2778 C   0  0  0  0  0  0  0  0  0  0  0  0
    8.1991  -14.2650   26.5136 C   0  0  0  0  0  0  0  0  0  0  0  0
    8.3561  -12.9056   26.7671 C   0  0  0  0  0  0  0  0  0  0  0  0
    7.2500  -12.0907   26.7835 C   0  0  0  0  0  0  0  0  0  0  0  0
    5.9973  -12.6487   26.5454 C   0  0  0  0  0  0  0  0  0  0  0  0
    5.8691  -14.0046   26.2958 C   0  0  0  0  0  0  0  0  0  0  0  0
    7.9967  -16.2318   23.7637 C   0  0  0  0  0  0  0  0  0  0  0  0
    9.1266  -16.7246   23.9440 O   0  0  0  0  0  0  0  0  0  0  0  0
    7.9000  -15.2222   22.7162 N   0  0  0  0  0  0  0  0  0  0  0  0
    6.7073  -14.4858   22.3569 C   0  0  0  0  0  0  0  0  0  0  0  0
    7.2993  -13.0817   22.1753 C   0  0  0  0  0  0  0  0  0  0  0  0
    8.5583  -13.4046   21.3748 C   0  0  0  0  0  0  0  0  0  0  0  0
    8.9604  -14.7938   21.8786 C   0  0  1  0  0  0  0  0  0  0  0  0
   10.2663  -14.6942   22.5632 C   0  0  0  0  0  0  0  0  0  0  0  0
   10.2584  -14.6536   23.8385 O   0  0  0  0  0  0  0  0  0  0  0  0
   11.4768  -14.6457   21.9365 O   0  0  0  0  0  0  0  0  0  0  0  0
  1  2  1  0
  3  2  1  0
  3  4  1  1
  5  3  1  0
  5  6  1  6
  7  8  2  0
  7  5  1  0
  9  7  1  0
 10  9  1  0
 11 12  1  0
 10 11  1  1
 12 13  2  0
 13 14  1  0
 15 14  2  0
 16 15  1  0
 17 12  1  0
 17 16  2  0
 18 10  1  0
 18 19  2  0
 20 18  1  0
 21 20  1  0
 22 21  1  0
 23 22  1  0
 23 24  1  0
 24 20  1  0
 25 27  1  0
 24 25  1  1
 26 25  2  0
M  END
$$$$
