IFP.pdb
     RDKit          3D

 27 28  0  0  1  0  0  0  0  0999 V2000
    8.4709  -21.1860   21.6726 C   0  0  0  0  0  0  0  0  0  0  0  0
    7.1959  -20.5170   22.0777 C   0  0  0  0  0  0  0  0  0  0  0  0
    6.8112  -20.7940   23.5155 C   0  0  2  0  0  0  0  0  0  0  0  0
    6.5791  -22.3036   23.6127 C   0  0  0  0  0  0  0  0  0  0  0  0
    5.5195  -20.0747   23.7820 C   0  0  2  0  0  0  0  0  0  0  0  0
    4.5400  -20.4898   22.8261 N   0  0  0  0  0  0  0  0  0  0  0  0
    5.7114  -18.5841   23.7714 C   0  0  0  0  0  0  0  0  0  0  0  0
    5.2955  -17.9073   22.8050 O   0  0  0  0  0  0  0  0  0  0  0  0
    6.3565  -17.9197   24.8366 N   0  0  0  0  0  0  0  0  0  0  0  0
    6.7791  -16.5479   24.9078 C   0  0  1  0  0  0  0  0  0  0  0  0
    6.7394  -16.0378   26.3272 C   0  0  0  0  0  0  0  0  0  0  0  0
    6.9125  -14.5783   26.4702 C   0  0  0  0  0  0  0  0  0  0  0  0
    8.1708  -14.0847   26.7079 C   0  0  0  0  0  0  0  0  0  0  0  0
    8.4111  -12.7225   26.8610 C   0  0  0  0  0  0  0  0  0  0  0  0
    7.3627  -11.8388   26.7729 C   0  0  0  0  0  0  0  0  0  0  0  0
    6.0834  -12.3317   26.5320 C   0  0  0  0  0  0  0  0  0  0  0  0
    5.8719  -13.6921   26.3837 C   0  0  0  0  0  0  0  0  0  0  0  0
    7.9814  -16.2375   24.1436 C   0  0  0  0  0  0  0  0  0  0  0  0
    9.0724  -16.7622   24.4379 O   0  0  0  0  0  0  0  0  0  0  0  0
    7.9985  -15.3224   23.0087 N   0  0  0  0  0  0  0  0  0  0  0  0
    6.8749  -14.5472   22.5285 C   0  0  0  0  0  0  0  0  0  0  0  0
    7.5678  -13.2056   22.2544 C   0  0  0  0  0  0  0  0  0  0  0  0
    8.8354  -13.6787   21.5477 C   0  0  0  0  0  0  0  0  0  0  0  0
    9.1206  -15.0395   22.1897 C   0  0  1  0  0  0  0  0  0  0  0  0
   10.3995  -14.9617   22.9262 C   0  0  0  0  0  0  0  0  0  0  0  0
   10.3402  -14.8916   24.1988 O   0  0  0  0  0  0  0  0  0  0  0  0
   11.6357  -14.9625   22.3499 O   0  0  0  0  0  0  0  0  0  0  0  0
  1  2  1  0
  3  2  1  0
  3  4  1  6
  5  3  1  0
  5  6  1  6
  7  8  2  0
  7  5  1  0
  9  7  1  0
 10  9  1  0
 11 12  1  0
 10 11  1  1
 12 13  2  0
 13 14  1  0
 15 14  2  0
 16 15  1  0
 17 12  1  0
 17 16  2  0
 18 10  1  0
 18 19  2  0
 20 18  1  0
 21 20  1  0
 22 21  1  0
 23 22  1  0
 23 24  1  0
 24 20  1  0
 25 27  1  0
 24 25  1  1
 26 25  2  0
M  END
$$$$
