IFP.pdb
     RDKit          3D

 27 28  0  0  1  0  0  0  0  0999 V2000
   11.9487  -20.8003   20.7453 C   0  0  0  0  0  0  0  0  0  0  0  0
   11.4122  -19.4364   20.4464 C   0  0  0  0  0  0  0  0  0  0  0  0
   11.3363  -18.5474   21.6694 C   0  0  2  0  0  0  0  0  0  0  0  0
   10.4103  -19.2590   22.6585 C   0  0  0  0  0  0  0  0  0  0  0  0
   10.7071  -17.2510   21.2446 C   0  0  2  0  0  0  0  0  0  0  0  0
   11.4881  -16.6651   20.1995 N   0  0  0  0  0  0  0  0  0  0  0  0
   10.5434  -16.3151   22.4092 C   0  0  0  0  0  0  0  0  0  0  0  0
   11.5453  -15.7544   22.9058 O   0  0  0  0  0  0  0  0  0  0  0  0
    9.2731  -16.0491   22.9639 N   0  0  0  0  0  0  0  0  0  0  0  0
    8.9469  -15.2160   24.0886 C   0  0  1  0  0  0  0  0  0  0  0  0
    7.6190  -14.5276   23.8907 C   0  0  0  0  0  0  0  0  0  0  0  0
    7.2459  -13.5750   24.9557 C   0  0  0  0  0  0  0  0  0  0  0  0
    7.6453  -12.2672   24.8388 C   0  0  0  0  0  0  0  0  0  0  0  0
    7.3379  -11.3139   25.8049 C   0  0  0  0  0  0  0  0  0  0  0  0
    6.6134  -11.6849   26.9118 C   0  0  0  0  0  0  0  0  0  0  0  0
    6.2047  -13.0095   27.0377 C   0  0  0  0  0  0  0  0  0  0  0  0
    6.5242  -13.9382   26.0616 C   0  0  0  0  0  0  0  0  0  0  0  0
    9.1664  -15.8333   25.3913 C   0  0  0  0  0  0  0  0  0  0  0  0
    8.6321  -16.9225   25.6745 O   0  0  0  0  0  0  0  0  0  0  0  0
   10.0056  -15.2449   26.4283 N   0  0  0  0  0  0  0  0  0  0  0  0
   10.5783  -13.9162   26.4021 C   0  0  0  0  0  0  0  0  0  0  0  0
   10.3297  -13.4846   27.8536 C   0  0  0  0  0  0  0  0  0  0  0  0
   10.7538  -14.7453   28.6025 C   0  0  0  0  0  0  0  0  0  0  0  0
   10.3966  -15.8776   27.6352 C   0  0  1  0  0  0  0  0  0  0  0  0
    9.3420  -16.7132   28.2464 C   0  0  0  0  0  0  0  0  0  0  0  0
    9.7130  -17.6246   29.0587 O   0  0  0  0  0  0  0  0  0  0  0  0
    8.0049  -16.5820   28.0109 O   0  0  0  0  0  0  0  0  0  0  0  0
  1  2  1  0
  3  2  1  0
  3  4  1  1
  5  3  1  0
  5  6  1  6
  7  8  2  0
  7  5  1  0
  9  7  1  0
 10  9  1  0
 11 12  1  0
 10 11  1  6
 12 13  2  0
 13 14  1  0
 15 14  2  0
 16 15  1  0
 17 12  1  0
 17 16  2  0
 18 10  1  0
 18 19  2  0
 20 18  1  0
 21 20  1  0
 22 21  1  0
 23 22  1  0
 23 24  1  0
 24 20  1  0
 25 27  1  0
 24 25  1  1
 26 25  2  0
M  END
$$$$
