IFP.pdb
     RDKit          3D

 27 28  0  0  1  0  0  0  0  0999 V2000
    6.7720  -22.5732   21.0667 C   0  0  0  0  0  0  0  0  0  0  0  0
    6.1475  -21.9733   22.2863 C   0  0  0  0  0  0  0  0  0  0  0  0
    6.0946  -20.4610   22.2432 C   0  0  2  0  0  0  0  0  0  0  0  0
    7.5481  -19.9831   22.2097 C   0  0  0  0  0  0  0  0  0  0  0  0
    5.4485  -19.9971   23.5176 C   0  0  2  0  0  0  0  0  0  0  0  0
    4.0955  -20.4591   23.5586 N   0  0  0  0  0  0  0  0  0  0  0  0
    5.5315  -18.5032   23.6606 C   0  0  0  0  0  0  0  0  0  0  0  0
    4.8131  -17.7665   22.9493 O   0  0  0  0  0  0  0  0  0  0  0  0
    6.4097  -17.9026   24.5881 N   0  0  0  0  0  0  0  0  0  0  0  0
    6.8248  -16.5287   24.6635 C   0  0  1  0  0  0  0  0  0  0  0  0
    6.8060  -16.0306   26.0877 C   0  0  0  0  0  0  0  0  0  0  0  0
    7.0698  -14.5864   26.2464 C   0  0  0  0  0  0  0  0  0  0  0  0
    6.0105  -13.7148   26.2013 C   0  0  0  0  0  0  0  0  0  0  0  0
    6.1813  -12.3402   26.3358 C   0  0  0  0  0  0  0  0  0  0  0  0
    7.4446  -11.8325   26.5195 C   0  0  0  0  0  0  0  0  0  0  0  0
    8.5241  -12.7099   26.5663 C   0  0  0  0  0  0  0  0  0  0  0  0
    8.3264  -14.0736   26.4296 C   0  0  0  0  0  0  0  0  0  0  0  0
    8.0122  -16.2044   23.8818 C   0  0  0  0  0  0  0  0  0  0  0  0
    9.1158  -16.7067   24.1677 O   0  0  0  0  0  0  0  0  0  0  0  0
    7.9991  -15.3002   22.7381 N   0  0  0  0  0  0  0  0  0  0  0  0
    6.8540  -14.5562   22.2593 C   0  0  0  0  0  0  0  0  0  0  0  0
    7.5131  -13.2015   21.9671 C   0  0  0  0  0  0  0  0  0  0  0  0
    8.7861  -13.6517   21.2551 C   0  0  0  0  0  0  0  0  0  0  0  0
    9.1080  -14.9991   21.9077 C   0  0  1  0  0  0  0  0  0  0  0  0
   10.3903  -14.8843   22.6334 C   0  0  0  0  0  0  0  0  0  0  0  0
   10.3435  -14.8706   23.9084 O   0  0  0  0  0  0  0  0  0  0  0  0
   11.6175  -14.7953   22.0446 O   0  0  0  0  0  0  0  0  0  0  0  0
  1  2  1  0
  3  2  1  0
  3  4  1  1
  5  3  1  0
  5  6  1  6
  7  8  2  0
  7  5  1  0
  9  7  1  0
 10  9  1  0
 11 12  1  0
 10 11  1  1
 12 13  2  0
 13 14  1  0
 15 14  2  0
 16 15  1  0
 17 12  1  0
 17 16  2  0
 18 10  1  0
 18 19  2  0
 20 18  1  0
 21 20  1  0
 22 21  1  0
 23 22  1  0
 23 24  1  0
 24 20  1  0
 25 27  1  0
 24 25  1  1
 26 25  2  0
M  END
$$$$
