IFP.pdb
     RDKit          3D

 27 28  0  0  1  0  0  0  0  0999 V2000
    7.2162  -22.6489   21.2716 C   0  0  0  0  0  0  0  0  0  0  0  0
    6.4442  -22.0760   22.4175 C   0  0  0  0  0  0  0  0  0  0  0  0
    6.3227  -20.5682   22.3565 C   0  0  2  0  0  0  0  0  0  0  0  0
    7.7525  -20.0229   22.3798 C   0  0  0  0  0  0  0  0  0  0  0  0
    5.6017  -20.1246   23.5976 C   0  0  2  0  0  0  0  0  0  0  0  0
    4.2618  -20.6242   23.5715 N   0  0  0  0  0  0  0  0  0  0  0  0
    5.6358  -18.6292   23.7449 C   0  0  0  0  0  0  0  0  0  0  0  0
    4.8541  -17.9175   23.0762 O   0  0  0  0  0  0  0  0  0  0  0  0
    6.5379  -17.9994   24.6290 N   0  0  0  0  0  0  0  0  0  0  0  0
    6.8582  -16.6021   24.7317 C   0  0  1  0  0  0  0  0  0  0  0  0
    6.8176  -16.1371   26.1665 C   0  0  0  0  0  0  0  0  0  0  0  0
    6.9528  -14.6785   26.3530 C   0  0  0  0  0  0  0  0  0  0  0  0
    5.8178  -13.9069   26.3538 C   0  0  0  0  0  0  0  0  0  0  0  0
    5.8661  -12.5256   26.5168 C   0  0  0  0  0  0  0  0  0  0  0  0
    7.0824  -11.9083   26.6824 C   0  0  0  0  0  0  0  0  0  0  0  0
    8.2381  -12.6840   26.6826 C   0  0  0  0  0  0  0  0  0  0  0  0
    8.1619  -14.0568   26.5183 C   0  0  0  0  0  0  0  0  0  0  0  0
    8.0136  -16.1801   23.9487 C   0  0  0  0  0  0  0  0  0  0  0  0
    9.1522  -16.6078   24.2182 O   0  0  0  0  0  0  0  0  0  0  0  0
    7.9278  -15.2584   22.8223 N   0  0  0  0  0  0  0  0  0  0  0  0
    6.7359  -14.5644   22.3843 C   0  0  0  0  0  0  0  0  0  0  0  0
    7.3198  -13.1737   22.1012 C   0  0  0  0  0  0  0  0  0  0  0  0
    8.5956  -13.5476   21.3513 C   0  0  0  0  0  0  0  0  0  0  0  0
    8.9998  -14.8882   21.9716 C   0  0  1  0  0  0  0  0  0  0  0  0
   10.2922  -14.7218   22.6687 C   0  0  0  0  0  0  0  0  0  0  0  0
   10.2631  -14.6106   23.9394 O   0  0  0  0  0  0  0  0  0  0  0  0
   11.5112  -14.6816   22.0581 O   0  0  0  0  0  0  0  0  0  0  0  0
  1  2  1  0
  3  2  1  0
  3  4  1  1
  5  3  1  0
  5  6  1  6
  7  8  2  0
  7  5  1  0
  9  7  1  0
 10  9  1  0
 11 12  1  0
 10 11  1  1
 12 13  2  0
 13 14  1  0
 15 14  2  0
 16 15  1  0
 17 12  1  0
 17 16  2  0
 18 10  1  0
 18 19  2  0
 20 18  1  0
 21 20  1  0
 22 21  1  0
 23 22  1  0
 23 24  1  0
 24 20  1  0
 25 27  1  0
 24 25  1  1
 26 25  2  0
M  END
$$$$
