PDN.pdb
     RDKit          3D

 24 24  0  0  1  0  0  0  0  0999 V2000
    8.2429  -14.7556   18.0344 N   0  0  0  0  0  0  0  0  0  0  0  0
    7.7134  -13.7092   17.1682 C   0  0  0  0  0  0  0  0  0  0  0  0
    7.1913  -12.6372   18.0897 C   0  0  0  0  0  0  0  0  0  0  0  0
    7.6722  -13.0565   19.4683 C   0  0  0  0  0  0  0  0  0  0  0  0
    8.8059  -13.9997   19.1337 C   0  0  1  0  0  0  0  0  0  0  0  0
    9.1394  -14.8688   20.2877 C   0  0  0  0  0  0  0  0  0  0  0  0
    9.5977  -14.3242   21.3188 O   0  0  0  0  0  0  0  0  0  0  0  0
    8.9574  -16.2566   20.2516 N   0  0  0  0  0  0  0  0  0  0  0  0
    9.1947  -17.1482   21.3518 C   0  0  1  0  0  0  0  0  0  0  0  0
    8.5929  -18.5091   21.1999 C   0  0  0  0  0  0  0  0  0  0  0  0
    8.8004  -19.3422   22.4075 C   0  0  0  0  0  0  0  0  0  0  0  0
    9.7022  -20.2149   22.4709 O   0  0  0  0  0  0  0  0  0  0  0  0
   10.6686  -17.2710   21.6074 C   0  0  0  0  0  0  0  0  0  0  0  0
   11.4770  -17.2966   20.6433 O   0  0  0  0  0  0  0  0  0  0  0  0
    7.9836  -19.1685   23.5127 O   0  0  0  0  0  0  0  0  0  0  0  0
   15.5730  -16.4607   22.3047 N   0  0  0  0  0  0  0  0  0  0  0  0
   14.6592  -15.9466   23.2480 C   0  0  0  0  0  0  0  0  0  0  0  0
   15.1166  -15.4672   24.3053 O   0  0  0  0  0  0  0  0  0  0  0  0
   13.2336  -15.9774   22.9901 C   0  0  0  0  0  0  0  0  0  0  0  0
   12.5959  -17.3347   23.1926 C   0  0  2  0  0  0  0  0  0  0  0  0
   11.1921  -17.3616   22.9219 N   0  0  0  0  0  0  0  0  0  0  0  0
   12.9329  -17.8999   24.5313 C   0  0  0  0  0  0  0  0  0  0  0  0
   14.0581  -18.3892   24.8113 O   0  0  0  0  0  0  0  0  0  0  0  0
   11.9863  -17.9046   25.5440 O   0  0  0  0  0  0  0  0  0  0  0  0
  1  5  1  0
  2  1  1  0
  2  3  1  0
  3  4  1  0
  5  4  1  0
  6  8  1  0
  5  6  1  1
  7  6  2  0
  9  8  1  0
  9 10  1  6
 11 10  1  0
 11 15  1  0
 12 11  2  0
 13 21  1  0
 13  9  1  0
 14 13  2  0
 17 16  1  0
 18 17  2  0
 19 17  1  0
 20 21  1  0
 20 19  1  1
 22 20  1  0
 23 22  2  0
 24 22  1  0
M  END
$$$$
