PDN.pdb
     RDKit          3D

 24 24  0  0  1  0  0  0  0  0999 V2000
    8.3271  -14.5954   17.8147 N   0  0  0  0  0  0  0  0  0  0  0  0
    7.7793  -13.4528   17.0935 C   0  0  0  0  0  0  0  0  0  0  0  0
    7.1894  -12.5474   18.1439 C   0  0  0  0  0  0  0  0  0  0  0  0
    7.6493  -13.1472   19.4617 C   0  0  0  0  0  0  0  0  0  0  0  0
    8.8289  -13.9895   19.0304 C   0  0  1  0  0  0  0  0  0  0  0  0
    9.1659  -15.0062   20.0556 C   0  0  0  0  0  0  0  0  0  0  0  0
    9.4682  -14.6040   21.2031 O   0  0  0  0  0  0  0  0  0  0  0  0
    9.1542  -16.3780   19.7757 N   0  0  0  0  0  0  0  0  0  0  0  0
    9.4790  -17.4140   20.7152 C   0  0  1  0  0  0  0  0  0  0  0  0
    9.3037  -18.8076   20.2008 C   0  0  0  0  0  0  0  0  0  0  0  0
    8.0250  -18.9694   19.4699 C   0  0  0  0  0  0  0  0  0  0  0  0
    6.9121  -18.9226   20.0512 O   0  0  0  0  0  0  0  0  0  0  0  0
   10.8810  -17.2321   21.2193 C   0  0  0  0  0  0  0  0  0  0  0  0
   11.8119  -16.9660   20.4154 O   0  0  0  0  0  0  0  0  0  0  0  0
    8.0361  -19.1801   18.1009 O   0  0  0  0  0  0  0  0  0  0  0  0
   15.4482  -16.0333   23.1725 N   0  0  0  0  0  0  0  0  0  0  0  0
   14.3693  -15.9806   24.0793 C   0  0  0  0  0  0  0  0  0  0  0  0
   14.6309  -15.9171   25.2977 O   0  0  0  0  0  0  0  0  0  0  0  0
   13.0008  -16.0000   23.6031 C   0  0  0  0  0  0  0  0  0  0  0  0
   12.5467  -17.3435   23.0752 C   0  0  2  0  0  0  0  0  0  0  0  0
   11.1997  -17.3525   22.5956 N   0  0  0  0  0  0  0  0  0  0  0  0
   12.8126  -18.4327   24.0591 C   0  0  0  0  0  0  0  0  0  0  0  0
   11.9080  -18.9913   24.7327 O   0  0  0  0  0  0  0  0  0  0  0  0
   14.1075  -18.8800   24.2703 O   0  0  0  0  0  0  0  0  0  0  0  0
  1  5  1  0
  2  1  1  0
  2  3  1  0
  3  4  1  0
  5  4  1  0
  6  8  1  0
  5  6  1  1
  7  6  2  0
  9  8  1  0
  9 10  1  6
 11 10  1  0
 11 15  1  0
 12 11  2  0
 13 21  1  0
 13  9  1  0
 14 13  2  0
 17 16  1  0
 18 17  2  0
 19 17  1  0
 20 21  1  0
 20 19  1  1
 22 20  1  0
 23 22  2  0
 24 22  1  0
M  END
$$$$
