PDN.pdb
     RDKit          3D

 24 24  0  0  1  0  0  0  0  0999 V2000
    9.2880  -14.4621   19.3281 N   0  0  0  0  0  0  0  0  0  0  0  0
    8.9301  -13.5102   18.2833 C   0  0  0  0  0  0  0  0  0  0  0  0
    7.5869  -12.9521   18.6776 C   0  0  0  0  0  0  0  0  0  0  0  0
    7.3575  -13.4772   20.0845 C   0  0  0  0  0  0  0  0  0  0  0  0
    8.7609  -13.8333   20.5212 C   0  0  1  0  0  0  0  0  0  0  0  0
    8.7440  -14.7647   21.6747 C   0  0  0  0  0  0  0  0  0  0  0  0
    8.1194  -14.4138   22.7026 O   0  0  0  0  0  0  0  0  0  0  0  0
    9.3974  -16.0026   21.6416 N   0  0  0  0  0  0  0  0  0  0  0  0
    9.3964  -16.9641   22.7078 C   0  0  1  0  0  0  0  0  0  0  0  0
    9.9469  -18.3068   22.3449 C   0  0  0  0  0  0  0  0  0  0  0  0
    9.8174  -19.2757   23.4583 C   0  0  0  0  0  0  0  0  0  0  0  0
    8.9516  -19.1469   24.3595 O   0  0  0  0  0  0  0  0  0  0  0  0
   10.1337  -16.4180   23.8957 C   0  0  0  0  0  0  0  0  0  0  0  0
   11.3028  -15.9715   23.7629 O   0  0  0  0  0  0  0  0  0  0  0  0
   10.6698  -20.3656   23.5254 O   0  0  0  0  0  0  0  0  0  0  0  0
   10.4419  -13.0406   28.2198 N   0  0  0  0  0  0  0  0  0  0  0  0
    9.8868  -14.3335   28.3167 C   0  0  0  0  0  0  0  0  0  0  0  0
    9.9621  -14.9224   29.4141 O   0  0  0  0  0  0  0  0  0  0  0  0
    9.2496  -14.9529   27.1720 C   0  0  0  0  0  0  0  0  0  0  0  0
   10.1869  -15.7643   26.3042 C   0  0  2  0  0  0  0  0  0  0  0  0
    9.5485  -16.3873   25.1867 N   0  0  0  0  0  0  0  0  0  0  0  0
   10.9859  -16.7261   27.1178 C   0  0  0  0  0  0  0  0  0  0  0  0
   10.7596  -17.9638   27.1436 O   0  0  0  0  0  0  0  0  0  0  0  0
   12.0385  -16.2726   27.8975 O   0  0  0  0  0  0  0  0  0  0  0  0
  1  5  1  0
  2  1  1  0
  2  3  1  0
  3  4  1  0
  5  4  1  0
  6  8  1  0
  5  6  1  1
  7  6  2  0
  9  8  1  0
  9 10  1  6
 11 10  1  0
 11 15  1  0
 12 11  2  0
 13 21  1  0
 13  9  1  0
 14 13  2  0
 17 16  1  0
 18 17  2  0
 19 17  1  0
 20 21  1  0
 20 19  1  1
 22 20  1  0
 23 22  2  0
 24 22  1  0
M  END
$$$$
