PDN.pdb
     RDKit          3D

 24 24  0  0  1  0  0  0  0  0999 V2000
    8.4608  -14.7441   19.2070 N   0  0  0  0  0  0  0  0  0  0  0  0
    8.6651  -13.8210   18.0970 C   0  0  0  0  0  0  0  0  0  0  0  0
    7.7694  -12.6409   18.3728 C   0  0  0  0  0  0  0  0  0  0  0  0
    7.2580  -12.8760   19.7839 C   0  0  0  0  0  0  0  0  0  0  0  0
    8.2777  -13.8496   20.3309 C   0  0  1  0  0  0  0  0  0  0  0  0
    7.7555  -14.5604   21.5227 C   0  0  0  0  0  0  0  0  0  0  0  0
    7.5013  -13.8824   22.5452 O   0  0  0  0  0  0  0  0  0  0  0  0
    7.5446  -15.9446   21.5310 N   0  0  0  0  0  0  0  0  0  0  0  0
    7.0018  -16.6894   22.6320 C   0  0  1  0  0  0  0  0  0  0  0  0
    6.7972  -18.1469   22.3657 C   0  0  0  0  0  0  0  0  0  0  0  0
    6.1533  -18.8321   23.5108 C   0  0  0  0  0  0  0  0  0  0  0  0
    5.3382  -18.2475   24.2675 O   0  0  0  0  0  0  0  0  0  0  0  0
    7.8624  -16.5121   23.8488 C   0  0  0  0  0  0  0  0  0  0  0  0
    9.1112  -16.6436   23.7641 O   0  0  0  0  0  0  0  0  0  0  0  0
    6.4468  -20.1604   23.7722 O   0  0  0  0  0  0  0  0  0  0  0  0
    5.8725  -13.1244   26.2808 N   0  0  0  0  0  0  0  0  0  0  0  0
    7.2094  -13.5506   26.4232 C   0  0  0  0  0  0  0  0  0  0  0  0
    8.1068  -12.8383   25.9291 O   0  0  0  0  0  0  0  0  0  0  0  0
    7.5237  -14.7797   27.1235 C   0  0  0  0  0  0  0  0  0  0  0  0
    8.1162  -15.8600   26.2450 C   0  0  2  0  0  0  0  0  0  0  0  0
    7.3075  -16.1961   25.1147 N   0  0  0  0  0  0  0  0  0  0  0  0
    8.5101  -17.0562   27.0446 C   0  0  0  0  0  0  0  0  0  0  0  0
    9.2346  -16.9926   28.0717 O   0  0  0  0  0  0  0  0  0  0  0  0
    8.0765  -18.3183   26.6697 O   0  0  0  0  0  0  0  0  0  0  0  0
  1  5  1  0
  2  1  1  0
  2  3  1  0
  3  4  1  0
  5  4  1  0
  6  8  1  0
  5  6  1  1
  7  6  2  0
  9  8  1  0
  9 10  1  6
 11 10  1  0
 11 15  1  0
 12 11  2  0
 13 21  1  0
 13  9  1  0
 14 13  2  0
 17 16  1  0
 18 17  2  0
 19 17  1  0
 20 21  1  0
 20 19  1  1
 22 20  1  0
 23 22  2  0
 24 22  1  0
M  END
$$$$
