PDN.pdb
     RDKit          3D

 24 24  0  0  1  0  0  0  0  0999 V2000
    9.1919  -14.4720   18.6088 N   0  0  0  0  0  0  0  0  0  0  0  0
    9.0352  -13.5308   17.5064 C   0  0  0  0  0  0  0  0  0  0  0  0
    7.7153  -12.8415   17.7382 C   0  0  0  0  0  0  0  0  0  0  0  0
    7.2915  -13.2927   19.1255 C   0  0  0  0  0  0  0  0  0  0  0  0
    8.6023  -13.7559   19.7207 C   0  0  1  0  0  0  0  0  0  0  0  0
    8.3783  -14.6396   20.8900 C   0  0  0  0  0  0  0  0  0  0  0  0
    7.7039  -14.1888   21.8449 O   0  0  0  0  0  0  0  0  0  0  0  0
    8.8932  -15.9402   20.9498 N   0  0  0  0  0  0  0  0  0  0  0  0
    8.7553  -16.8311   22.0673 C   0  0  1  0  0  0  0  0  0  0  0  0
    9.4384  -18.1521   21.9070 C   0  0  0  0  0  0  0  0  0  0  0  0
    9.2200  -19.0322   23.0788 C   0  0  0  0  0  0  0  0  0  0  0  0
    8.1509  -19.0142   23.7385 O   0  0  0  0  0  0  0  0  0  0  0  0
    9.2337  -16.1617   23.3226 C   0  0  0  0  0  0  0  0  0  0  0  0
   10.3695  -15.6207   23.3566 O   0  0  0  0  0  0  0  0  0  0  0  0
   10.2153  -19.9100   23.4757 O   0  0  0  0  0  0  0  0  0  0  0  0
    5.6995  -13.2909   26.2633 N   0  0  0  0  0  0  0  0  0  0  0  0
    6.5830  -14.3590   26.0028 C   0  0  0  0  0  0  0  0  0  0  0  0
    6.0982  -15.5012   25.8717 O   0  0  0  0  0  0  0  0  0  0  0  0
    8.0094  -14.1292   25.8920 C   0  0  0  0  0  0  0  0  0  0  0  0
    8.8234  -15.3834   25.6586 C   0  0  2  0  0  0  0  0  0  0  0  0
    8.4362  -16.1171   24.4940 N   0  0  0  0  0  0  0  0  0  0  0  0
    8.8738  -16.2348   26.8825 C   0  0  0  0  0  0  0  0  0  0  0  0
    9.2469  -15.8080   28.0062 O   0  0  0  0  0  0  0  0  0  0  0  0
    8.4990  -17.5679   26.8198 O   0  0  0  0  0  0  0  0  0  0  0  0
  1  5  1  0
  2  1  1  0
  2  3  1  0
  3  4  1  0
  5  4  1  0
  6  8  1  0
  5  6  1  1
  7  6  2  0
  9  8  1  0
  9 10  1  6
 11 10  1  0
 11 15  1  0
 12 11  2  0
 13 21  1  0
 13  9  1  0
 14 13  2  0
 17 16  1  0
 18 17  2  0
 19 17  1  0
 20 21  1  0
 20 19  1  1
 22 20  1  0
 23 22  2  0
 24 22  1  0
M  END
$$$$
