PDN.pdb
     RDKit          3D

 24 24  0  0  1  0  0  0  0  0999 V2000
    8.4615  -14.8940   18.4731 N   0  0  0  0  0  0  0  0  0  0  0  0
    7.9370  -14.0239   17.4274 C   0  0  0  0  0  0  0  0  0  0  0  0
    7.2739  -12.8749   18.1422 C   0  0  0  0  0  0  0  0  0  0  0  0
    7.6678  -13.0573   19.5980 C   0  0  0  0  0  0  0  0  0  0  0  0
    8.8835  -13.9498   19.4864 C   0  0  1  0  0  0  0  0  0  0  0  0
    9.1782  -14.6190   20.7762 C   0  0  0  0  0  0  0  0  0  0  0  0
    9.5026  -13.8997   21.7494 O   0  0  0  0  0  0  0  0  0  0  0  0
    9.1037  -16.0090   20.9278 N   0  0  0  0  0  0  0  0  0  0  0  0
    9.3643  -16.7205   22.1474 C   0  0  1  0  0  0  0  0  0  0  0  0
    8.5793  -17.9820   22.3199 C   0  0  0  0  0  0  0  0  0  0  0  0
    8.6136  -18.8244   21.1015 C   0  0  0  0  0  0  0  0  0  0  0  0
    9.0713  -18.4030   20.0099 O   0  0  0  0  0  0  0  0  0  0  0  0
   10.8310  -17.0151   22.2694 C   0  0  0  0  0  0  0  0  0  0  0  0
   11.3845  -17.8105   21.4665 O   0  0  0  0  0  0  0  0  0  0  0  0
    8.1295  -20.1215   21.1472 O   0  0  0  0  0  0  0  0  0  0  0  0
   16.0715  -15.7681   22.8251 N   0  0  0  0  0  0  0  0  0  0  0  0
   15.2612  -15.7477   23.9793 C   0  0  0  0  0  0  0  0  0  0  0  0
   15.8077  -15.9527   25.0821 O   0  0  0  0  0  0  0  0  0  0  0  0
   13.8377  -15.4955   23.8797 C   0  0  0  0  0  0  0  0  0  0  0  0
   13.0291  -16.6831   23.4048 C   0  0  2  0  0  0  0  0  0  0  0  0
   11.6299  -16.4178   23.2769 N   0  0  0  0  0  0  0  0  0  0  0  0
   13.3102  -17.8962   24.2263 C   0  0  0  0  0  0  0  0  0  0  0  0
   14.2618  -18.6853   23.9901 O   0  0  0  0  0  0  0  0  0  0  0  0
   12.5058  -18.2037   25.3125 O   0  0  0  0  0  0  0  0  0  0  0  0
  1  5  1  0
  2  1  1  0
  2  3  1  0
  3  4  1  0
  5  4  1  0
  6  8  1  0
  5  6  1  1
  7  6  2  0
  9  8  1  0
  9 10  1  6
 11 10  1  0
 11 15  1  0
 12 11  2  0
 13 21  1  0
 13  9  1  0
 14 13  2  0
 17 16  1  0
 18 17  2  0
 19 17  1  0
 20 21  1  0
 20 19  1  1
 22 20  1  0
 23 22  2  0
 24 22  1  0
M  END
$$$$
