PDN.pdb
     RDKit          3D

 24 24  0  0  1  0  0  0  0  0999 V2000
    8.4843  -14.8440   18.3280 N   0  0  0  0  0  0  0  0  0  0  0  0
    7.8112  -14.0159   17.3345 C   0  0  0  0  0  0  0  0  0  0  0  0
    7.2551  -12.8366   18.0902 C   0  0  0  0  0  0  0  0  0  0  0  0
    7.8564  -12.9603   19.4798 C   0  0  0  0  0  0  0  0  0  0  0  0
    9.0458  -13.8602   19.2299 C   0  0  1  0  0  0  0  0  0  0  0  0
    9.5263  -14.4768   20.4897 C   0  0  0  0  0  0  0  0  0  0  0  0
    9.9597  -13.7168   21.3866 O   0  0  0  0  0  0  0  0  0  0  0  0
    9.5071  -15.8617   20.6954 N   0  0  0  0  0  0  0  0  0  0  0  0
    9.9987  -16.5280   21.8684 C   0  0  1  0  0  0  0  0  0  0  0  0
    9.3205  -17.8224   22.1875 C   0  0  0  0  0  0  0  0  0  0  0  0
    9.8484  -18.4301   23.4314 C   0  0  0  0  0  0  0  0  0  0  0  0
   10.2266  -17.7346   24.4071 O   0  0  0  0  0  0  0  0  0  0  0  0
   11.4795  -16.7455   21.7557 C   0  0  0  0  0  0  0  0  0  0  0  0
   11.9256  -17.8253   21.2881 O   0  0  0  0  0  0  0  0  0  0  0  0
    9.9359  -19.8082   23.5414 O   0  0  0  0  0  0  0  0  0  0  0  0
   13.6753  -15.6620   19.4679 N   0  0  0  0  0  0  0  0  0  0  0  0
   14.5440  -14.8119   20.1833 C   0  0  0  0  0  0  0  0  0  0  0  0
   15.1978  -13.9665   19.5393 O   0  0  0  0  0  0  0  0  0  0  0  0
   14.6682  -14.9225   21.6228 C   0  0  0  0  0  0  0  0  0  0  0  0
   13.8166  -16.0123   22.2369 C   0  0  2  0  0  0  0  0  0  0  0  0
   12.4112  -15.7586   22.1659 N   0  0  0  0  0  0  0  0  0  0  0  0
   14.2705  -16.3439   23.6186 C   0  0  0  0  0  0  0  0  0  0  0  0
   15.4343  -16.7408   23.8869 O   0  0  0  0  0  0  0  0  0  0  0  0
   13.3962  -16.2216   24.6874 O   0  0  0  0  0  0  0  0  0  0  0  0
  1  5  1  0
  2  1  1  0
  2  3  1  0
  3  4  1  0
  5  4  1  0
  6  8  1  0
  5  6  1  1
  7  6  2  0
  9  8  1  0
  9 10  1  6
 11 10  1  0
 11 15  1  0
 12 11  2  0
 13 21  1  0
 13  9  1  0
 14 13  2  0
 17 16  1  0
 18 17  2  0
 19 17  1  0
 20 21  1  0
 20 19  1  1
 22 20  1  0
 23 22  2  0
 24 22  1  0
M  END
$$$$
