PDN.pdb
     RDKit          3D

 24 24  0  0  1  0  0  0  0  0999 V2000
    7.6745  -14.5039   19.0685 N   0  0  0  0  0  0  0  0  0  0  0  0
    7.0678  -13.3305   18.4515 C   0  0  0  0  0  0  0  0  0  0  0  0
    8.0597  -12.2106   18.6335 C   0  0  0  0  0  0  0  0  0  0  0  0
    9.3072  -12.8935   19.1675 C   0  0  0  0  0  0  0  0  0  0  0  0
    9.0787  -14.3318   18.7598 C   0  0  1  0  0  0  0  0  0  0  0  0
    9.9336  -15.2544   19.5446 C   0  0  0  0  0  0  0  0  0  0  0  0
   11.1725  -15.2016   19.3649 O   0  0  0  0  0  0  0  0  0  0  0  0
    9.3983  -16.1652   20.4635 N   0  0  0  0  0  0  0  0  0  0  0  0
   10.1569  -17.1397   21.1959 C   0  0  1  0  0  0  0  0  0  0  0  0
    9.7613  -18.5608   20.9485 C   0  0  0  0  0  0  0  0  0  0  0  0
    8.3182  -18.7838   21.1998 C   0  0  0  0  0  0  0  0  0  0  0  0
    7.6397  -19.5971   20.5239 O   0  0  0  0  0  0  0  0  0  0  0  0
   11.6221  -16.9659   20.9208 C   0  0  0  0  0  0  0  0  0  0  0  0
   12.2130  -17.7455   20.1291 O   0  0  0  0  0  0  0  0  0  0  0  0
    7.6782  -18.0819   22.2081 O   0  0  0  0  0  0  0  0  0  0  0  0
   13.7353  -15.3652   18.7013 N   0  0  0  0  0  0  0  0  0  0  0  0
   14.2377  -14.3452   19.5359 C   0  0  0  0  0  0  0  0  0  0  0  0
   14.5932  -13.2745   19.0030 O   0  0  0  0  0  0  0  0  0  0  0  0
   14.3351  -14.5420   20.9683 C   0  0  0  0  0  0  0  0  0  0  0  0
   13.8046  -15.8753   21.4486 C   0  0  2  0  0  0  0  0  0  0  0  0
   12.3785  -15.9350   21.5335 N   0  0  0  0  0  0  0  0  0  0  0  0
   14.4728  -16.3035   22.7117 C   0  0  0  0  0  0  0  0  0  0  0  0
   13.8472  -16.5456   23.7766 O   0  0  0  0  0  0  0  0  0  0  0  0
   15.8501  -16.4538   22.7550 O   0  0  0  0  0  0  0  0  0  0  0  0
  1  5  1  0
  2  1  1  0
  2  3  1  0
  3  4  1  0
  5  4  1  0
  6  8  1  0
  5  6  1  1
  7  6  2  0
  9  8  1  0
  9 10  1  6
 11 10  1  0
 11 15  1  0
 12 11  2  0
 13 21  1  0
 13  9  1  0
 14 13  2  0
 17 16  1  0
 18 17  2  0
 19 17  1  0
 20 21  1  0
 20 19  1  1
 22 20  1  0
 23 22  2  0
 24 22  1  0
M  END
$$$$
