PDN.pdb
     RDKit          3D

 24 24  0  0  1  0  0  0  0  0999 V2000
    8.4042  -14.7093   17.5147 N   0  0  0  0  0  0  0  0  0  0  0  0
    7.8303  -13.6478   16.6964 C   0  0  0  0  0  0  0  0  0  0  0  0
    7.3032  -12.6207   17.6651 C   0  0  0  0  0  0  0  0  0  0  0  0
    7.8247  -13.0741   19.0179 C   0  0  0  0  0  0  0  0  0  0  0  0
    8.9732  -13.9770   18.6269 C   0  0  1  0  0  0  0  0  0  0  0  0
    9.3532  -14.8759   19.7431 C   0  0  0  0  0  0  0  0  0  0  0  0
    9.7928  -14.3530   20.7934 O   0  0  0  0  0  0  0  0  0  0  0  0
    9.2345  -16.2680   19.6514 N   0  0  0  0  0  0  0  0  0  0  0  0
    9.6940  -17.2017   20.6406 C   0  0  1  0  0  0  0  0  0  0  0  0
    9.2993  -18.6234   20.3954 C   0  0  0  0  0  0  0  0  0  0  0  0
    7.8535  -18.7515   20.0977 C   0  0  0  0  0  0  0  0  0  0  0  0
    6.9908  -18.0209   20.6460 O   0  0  0  0  0  0  0  0  0  0  0  0
   11.1849  -17.1070   20.7860 C   0  0  0  0  0  0  0  0  0  0  0  0
   11.9377  -17.7355   19.9973 O   0  0  0  0  0  0  0  0  0  0  0  0
    7.4191  -19.7018   19.1883 O   0  0  0  0  0  0  0  0  0  0  0  0
   12.9978  -13.8891   19.6823 N   0  0  0  0  0  0  0  0  0  0  0  0
   13.8905  -14.8390   20.2207 C   0  0  0  0  0  0  0  0  0  0  0  0
   14.6455  -15.4451   19.4335 O   0  0  0  0  0  0  0  0  0  0  0  0
   13.9245  -15.0980   21.6460 C   0  0  0  0  0  0  0  0  0  0  0  0
   13.1910  -16.3532   22.0660 C   0  0  2  0  0  0  0  0  0  0  0  0
   11.7864  -16.3200   21.8004 N   0  0  0  0  0  0  0  0  0  0  0  0
   13.4990  -16.7160   23.4798 C   0  0  0  0  0  0  0  0  0  0  0  0
   12.6148  -16.8668   24.3627 O   0  0  0  0  0  0  0  0  0  0  0  0
   14.8125  -16.9051   23.8803 O   0  0  0  0  0  0  0  0  0  0  0  0
  1  5  1  0
  2  1  1  0
  2  3  1  0
  3  4  1  0
  5  4  1  0
  6  8  1  0
  5  6  1  1
  7  6  2  0
  9  8  1  0
  9 10  1  6
 11 10  1  0
 11 15  1  0
 12 11  2  0
 13 21  1  0
 13  9  1  0
 14 13  2  0
 17 16  1  0
 18 17  2  0
 19 17  1  0
 20 21  1  0
 20 19  1  1
 22 20  1  0
 23 22  2  0
 24 22  1  0
M  END
$$$$
