PDN.pdb
     RDKit          3D

 24 24  0  0  1  0  0  0  0  0999 V2000
    8.7305  -14.6403   18.3788 N   0  0  0  0  0  0  0  0  0  0  0  0
    8.0673  -13.9536   17.2768 C   0  0  0  0  0  0  0  0  0  0  0  0
    7.2049  -12.8935   17.9118 C   0  0  0  0  0  0  0  0  0  0  0  0
    7.6142  -12.8993   19.3748 C   0  0  0  0  0  0  0  0  0  0  0  0
    8.9702  -13.5666   19.3203 C   0  0  1  0  0  0  0  0  0  0  0  0
    9.3697  -14.0797   20.6528 C   0  0  0  0  0  0  0  0  0  0  0  0
    8.6854  -13.7338   21.6436 O   0  0  0  0  0  0  0  0  0  0  0  0
   10.4725  -14.9250   20.8250 N   0  0  0  0  0  0  0  0  0  0  0  0
   10.5419  -16.0088   21.7642 C   0  0  1  0  0  0  0  0  0  0  0  0
    9.4035  -16.9765   21.6936 C   0  0  0  0  0  0  0  0  0  0  0  0
    9.4714  -17.9882   22.7739 C   0  0  0  0  0  0  0  0  0  0  0  0
    9.6676  -19.2065   22.5377 O   0  0  0  0  0  0  0  0  0  0  0  0
   11.8419  -16.7429   21.6096 C   0  0  0  0  0  0  0  0  0  0  0  0
   12.0187  -17.5155   20.6320 O   0  0  0  0  0  0  0  0  0  0  0  0
    9.3154  -17.5978   24.0939 O   0  0  0  0  0  0  0  0  0  0  0  0
   16.0935  -14.1705   20.0485 N   0  0  0  0  0  0  0  0  0  0  0  0
   14.8160  -14.7558   20.1689 C   0  0  0  0  0  0  0  0  0  0  0  0
   14.3090  -15.2695   19.1511 O   0  0  0  0  0  0  0  0  0  0  0  0
   14.1193  -14.7569   21.4395 C   0  0  0  0  0  0  0  0  0  0  0  0
   14.1792  -16.0761   22.1785 C   0  0  2  0  0  0  0  0  0  0  0  0
   12.8977  -16.5942   22.5442 N   0  0  0  0  0  0  0  0  0  0  0  0
   15.1221  -16.0108   23.3326 C   0  0  0  0  0  0  0  0  0  0  0  0
   15.7125  -17.0191   23.8003 O   0  0  0  0  0  0  0  0  0  0  0  0
   15.3874  -14.7972   23.9477 O   0  0  0  0  0  0  0  0  0  0  0  0
  1  5  1  0
  2  1  1  0
  2  3  1  0
  3  4  1  0
  5  4  1  0
  6  8  1  0
  5  6  1  1
  7  6  2  0
  9  8  1  0
  9 10  1  6
 11 10  1  0
 11 15  1  0
 12 11  2  0
 13 21  1  0
 13  9  1  0
 14 13  2  0
 17 16  1  0
 18 17  2  0
 19 17  1  0
 20 21  1  0
 20 19  1  1
 22 20  1  0
 23 22  2  0
 24 22  1  0
M  END
$$$$
