PDN.pdb
     RDKit          3D

 24 24  0  0  1  0  0  0  0  0999 V2000
    8.6791  -14.8758   19.4208 N   0  0  0  0  0  0  0  0  0  0  0  0
    8.6581  -14.0165   18.2431 C   0  0  0  0  0  0  0  0  0  0  0  0
    7.6851  -12.9098   18.5584 C   0  0  0  0  0  0  0  0  0  0  0  0
    7.3677  -13.0939   20.0326 C   0  0  0  0  0  0  0  0  0  0  0  0
    8.5378  -13.9271   20.5055 C   0  0  1  0  0  0  0  0  0  0  0  0
    8.2328  -14.5998   21.7911 C   0  0  0  0  0  0  0  0  0  0  0  0
    8.0014  -13.8792   22.7896 O   0  0  0  0  0  0  0  0  0  0  0  0
    8.1985  -15.9944   21.9118 N   0  0  0  0  0  0  0  0  0  0  0  0
    7.7933  -16.7103   23.0885 C   0  0  1  0  0  0  0  0  0  0  0  0
    7.3691  -18.1247   22.8496 C   0  0  0  0  0  0  0  0  0  0  0  0
    6.8866  -18.7734   24.0913 C   0  0  0  0  0  0  0  0  0  0  0  0
    6.4894  -18.1098   25.0815 O   0  0  0  0  0  0  0  0  0  0  0  0
    8.8871  -16.6755   24.1157 C   0  0  0  0  0  0  0  0  0  0  0  0
   10.0913  -16.6192   23.7546 O   0  0  0  0  0  0  0  0  0  0  0  0
    6.8655  -20.1554   24.1828 O   0  0  0  0  0  0  0  0  0  0  0  0
   11.4519  -14.0788   27.7061 N   0  0  0  0  0  0  0  0  0  0  0  0
   10.0892  -14.3061   27.9897 C   0  0  0  0  0  0  0  0  0  0  0  0
    9.6832  -14.0645   29.1446 O   0  0  0  0  0  0  0  0  0  0  0  0
    9.1934  -14.8050   26.9657 C   0  0  0  0  0  0  0  0  0  0  0  0
    9.5192  -16.2020   26.4837 C   0  0  2  0  0  0  0  0  0  0  0  0
    8.6061  -16.7050   25.5051 N   0  0  0  0  0  0  0  0  0  0  0  0
    9.7098  -17.1413   27.6268 C   0  0  0  0  0  0  0  0  0  0  0  0
    8.8131  -17.9249   28.0340 O   0  0  0  0  0  0  0  0  0  0  0  0
   10.9209  -17.1829   28.2998 O   0  0  0  0  0  0  0  0  0  0  0  0
  1  5  1  0
  2  1  1  0
  2  3  1  0
  3  4  1  0
  5  4  1  0
  6  8  1  0
  5  6  1  1
  7  6  2  0
  9  8  1  0
  9 10  1  6
 11 10  1  0
 11 15  1  0
 12 11  2  0
 13 21  1  0
 13  9  1  0
 14 13  2  0
 17 16  1  0
 18 17  2  0
 19 17  1  0
 20 21  1  0
 20 19  1  1
 22 20  1  0
 23 22  2  0
 24 22  1  0
M  END
$$$$
