PDN.pdb
     RDKit          3D

 24 24  0  0  1  0  0  0  0  0999 V2000
    9.1164  -14.4846   19.2143 N   0  0  0  0  0  0  0  0  0  0  0  0
    8.5896  -13.5757   18.2033 C   0  0  0  0  0  0  0  0  0  0  0  0
    7.2982  -13.0393   18.7648 C   0  0  0  0  0  0  0  0  0  0  0  0
    7.2809  -13.5252   20.2041 C   0  0  0  0  0  0  0  0  0  0  0  0
    8.7411  -13.8317   20.4511 C   0  0  1  0  0  0  0  0  0  0  0  0
    8.9112  -14.7262   21.6212 C   0  0  0  0  0  0  0  0  0  0  0  0
    8.3500  -14.4021   22.6936 O   0  0  0  0  0  0  0  0  0  0  0  0
    9.6697  -15.9013   21.5561 N   0  0  0  0  0  0  0  0  0  0  0  0
    9.7383  -16.8967   22.5885 C   0  0  1  0  0  0  0  0  0  0  0  0
   10.4469  -18.1561   22.2022 C   0  0  0  0  0  0  0  0  0  0  0  0
    9.8928  -18.7422   20.9593 C   0  0  0  0  0  0  0  0  0  0  0  0
    8.6771  -19.0375   20.8434 O   0  0  0  0  0  0  0  0  0  0  0  0
   10.3684  -16.3181   23.8218 C   0  0  0  0  0  0  0  0  0  0  0  0
   11.4056  -15.6114   23.7291 O   0  0  0  0  0  0  0  0  0  0  0  0
   10.7264  -18.9802   19.8789 O   0  0  0  0  0  0  0  0  0  0  0  0
   10.3528  -13.0939   28.2710 N   0  0  0  0  0  0  0  0  0  0  0  0
    9.9524  -14.4456   28.2277 C   0  0  0  0  0  0  0  0  0  0  0  0
   10.0725  -15.1255   29.2670 O   0  0  0  0  0  0  0  0  0  0  0  0
    9.4185  -15.0205   27.0094 C   0  0  0  0  0  0  0  0  0  0  0  0
   10.3741  -15.9477   26.2904 C   0  0  2  0  0  0  0  0  0  0  0  0
    9.8263  -16.5445   25.1121 N   0  0  0  0  0  0  0  0  0  0  0  0
   10.9614  -16.9533   27.2227 C   0  0  0  0  0  0  0  0  0  0  0  0
   10.4560  -18.0885   27.4222 O   0  0  0  0  0  0  0  0  0  0  0  0
   12.1214  -16.6603   27.9227 O   0  0  0  0  0  0  0  0  0  0  0  0
  1  5  1  0
  2  1  1  0
  2  3  1  0
  3  4  1  0
  5  4  1  0
  6  8  1  0
  5  6  1  1
  7  6  2  0
  9  8  1  0
  9 10  1  6
 11 10  1  0
 11 15  1  0
 12 11  2  0
 13 21  1  0
 13  9  1  0
 14 13  2  0
 17 16  1  0
 18 17  2  0
 19 17  1  0
 20 21  1  0
 20 19  1  1
 22 20  1  0
 23 22  2  0
 24 22  1  0
M  END
$$$$
