DQH.pdb
     RDKit          3D

 28 28  0  0  1  0  0  0  0  0999 V2000
   18.8032  -29.5137   -2.0917 N   0  0  0  0  0  0  0  0  0  0  0  0
   20.2321  -29.4178   -2.0151 C   0  0  1  0  0  0  0  0  0  0  0  0
   20.6415  -28.1871   -1.1997 C   0  0  0  0  0  0  0  0  0  0  0  0
   20.2272  -26.9469   -1.9062 C   0  0  0  0  0  0  0  0  0  0  0  0
   19.7938  -26.9473   -3.0653 O   0  0  0  0  0  0  0  0  0  0  0  0
   20.8779  -30.6392   -1.4840 C   0  0  0  0  0  0  0  0  0  0  0  0
   20.4587  -31.1426   -0.4157 O   0  0  0  0  0  0  0  0  0  0  0  0
   20.3282  -25.7277   -1.2415 O   0  0  0  0  0  0  0  0  0  0  0  0
   24.6829  -34.0521   -4.9961 N   0  0  0  0  0  0  0  0  0  0  0  0
   25.3178  -32.9355   -4.3668 C   0  0  0  0  0  0  0  0  0  0  0  0
   26.4073  -32.5600   -4.8456 O   0  0  0  0  0  0  0  0  0  0  0  0
   24.6420  -32.3166   -3.2109 C   0  0  0  0  0  0  0  0  0  0  0  0
   23.3677  -33.0149   -2.8154 C   0  0  0  0  0  0  0  0  0  0  0  0
   22.7331  -32.3355   -1.6476 C   0  0  2  0  0  0  0  0  0  0  0  0
   21.9454  -31.2319   -2.1608 N   0  0  0  0  0  0  0  0  0  0  0  0
   23.7333  -31.8676   -0.6498 C   0  0  0  0  0  0  0  0  0  0  0  0
   23.9874  -30.6456   -0.5366 O   0  0  0  0  0  0  0  0  0  0  0  0
   24.3999  -32.7947    0.1730 N   0  0  0  0  0  0  0  0  0  0  0  0
   25.2243  -32.4383    1.2934 C   0  0  1  0  0  0  0  0  0  0  0  0
   24.4605  -31.6449    2.3325 C   0  0  0  0  0  0  0  0  0  0  0  0
   25.3120  -31.2670    3.4861 C   0  0  0  0  0  0  0  0  0  0  0  0
   26.6725  -31.5269    3.6354 C   0  0  0  0  0  0  0  0  0  0  0  0
   27.0700  -31.0311    4.8002 N   0  0  0  0  0  0  0  0  0  0  0  0
   26.0340  -30.4638    5.4109 C   0  0  0  0  0  0  0  0  0  0  0  0
   24.9642  -30.6131    4.5999 N   0  0  0  0  0  0  0  0  0  0  0  0
   25.8021  -33.6665    1.8770 C   0  0  0  0  0  0  0  0  0  0  0  0
   27.1658  -33.7385    2.0905 O   0  0  0  0  0  0  0  0  0  0  0  0
   25.1186  -34.6626    2.1949 O   0  0  0  0  0  0  0  0  0  0  0  0
  2  1  1  1
  3  2  1  0
  3  4  1  0
  4  5  2  0
  6  2  1  0
  6  7  2  0
  8  4  1  0
  9 10  1  0
 10 12  1  0
 11 10  2  0
 12 13  1  0
 14 13  1  6
 14 15  1  0
 15  6  1  0
 16 14  1  0
 17 16  2  0
 18 16  1  0
 19 18  1  0
 19 26  1  0
 19 20  1  1
 21 25  1  0
 21 20  1  0
 22 21  2  0
 23 22  1  0
 23 24  1  0
 24 25  2  0
 26 27  1  0
 28 26  2  0
M  END
$$$$
