DQH.pdb
     RDKit          3D

 28 28  0  0  1  0  0  0  0  0999 V2000
   27.2769  -22.4637  -15.7095 N   0  0  0  0  0  0  0  0  0  0  0  0
   26.4831  -21.4965  -16.4104 C   0  0  1  0  0  0  0  0  0  0  0  0
   26.8727  -21.4586  -17.8916 C   0  0  0  0  0  0  0  0  0  0  0  0
   28.3169  -21.1367  -18.0306 C   0  0  0  0  0  0  0  0  0  0  0  0
   28.7304  -20.1782  -18.6951 O   0  0  0  0  0  0  0  0  0  0  0  0
   25.0259  -21.7047  -16.2551 C   0  0  0  0  0  0  0  0  0  0  0  0
   24.2363  -21.1554  -17.0582 O   0  0  0  0  0  0  0  0  0  0  0  0
   29.2516  -21.9442  -17.3879 O   0  0  0  0  0  0  0  0  0  0  0  0
   22.6085  -26.2248  -12.6062 N   0  0  0  0  0  0  0  0  0  0  0  0
   21.4261  -25.5688  -13.0725 C   0  0  0  0  0  0  0  0  0  0  0  0
   20.3327  -26.0820  -12.7586 O   0  0  0  0  0  0  0  0  0  0  0  0
   21.5868  -24.3453  -13.8806 C   0  0  0  0  0  0  0  0  0  0  0  0
   23.0242  -23.9484  -14.0905 C   0  0  0  0  0  0  0  0  0  0  0  0
   23.1193  -22.7655  -14.9958 C   0  0  2  0  0  0  0  0  0  0  0  0
   24.5268  -22.5046  -15.2255 N   0  0  0  0  0  0  0  0  0  0  0  0
   22.4313  -21.5682  -14.4409 C   0  0  0  0  0  0  0  0  0  0  0  0
   22.8457  -21.0353  -13.3850 O   0  0  0  0  0  0  0  0  0  0  0  0
   21.3108  -21.0271  -15.0986 N   0  0  0  0  0  0  0  0  0  0  0  0
   20.5882  -19.8700  -14.6503 C   0  0  1  0  0  0  0  0  0  0  0  0
   20.3454  -18.8811  -15.7709 C   0  0  0  0  0  0  0  0  0  0  0  0
   21.5772  -18.1453  -16.1453 C   0  0  0  0  0  0  0  0  0  0  0  0
   22.8247  -18.2476  -15.5338 C   0  0  0  0  0  0  0  0  0  0  0  0
   23.6660  -17.4317  -16.1558 N   0  0  0  0  0  0  0  0  0  0  0  0
   23.0242  -16.8074  -17.1388 C   0  0  0  0  0  0  0  0  0  0  0  0
   21.7482  -17.2502  -17.1244 N   0  0  0  0  0  0  0  0  0  0  0  0
   19.3168  -20.3038  -14.0352 C   0  0  0  0  0  0  0  0  0  0  0  0
   18.6088  -19.4171  -13.2460 O   0  0  0  0  0  0  0  0  0  0  0  0
   18.8346  -21.4458  -14.1890 O   0  0  0  0  0  0  0  0  0  0  0  0
  2  1  1  1
  3  2  1  0
  3  4  1  0
  4  5  2  0
  6  2  1  0
  6  7  2  0
  8  4  1  0
  9 10  1  0
 10 12  1  0
 11 10  2  0
 12 13  1  0
 14 13  1  1
 14 15  1  0
 15  6  1  0
 16 14  1  0
 17 16  2  0
 18 16  1  0
 19 18  1  0
 19 26  1  0
 19 20  1  6
 21 25  1  0
 21 20  1  0
 22 21  2  0
 23 22  1  0
 23 24  1  0
 24 25  2  0
 26 27  1  0
 28 26  2  0
M  END
$$$$
