DQH.pdb
     RDKit          3D

 28 28  0  0  1  0  0  0  0  0999 V2000
   29.6577  -17.2897  -19.7396 N   0  0  0  0  0  0  0  0  0  0  0  0
   28.4476  -17.1754  -18.9785 C   0  0  1  0  0  0  0  0  0  0  0  0
   27.4848  -16.1917  -19.6511 C   0  0  0  0  0  0  0  0  0  0  0  0
   28.0710  -14.8260  -19.6534 C   0  0  0  0  0  0  0  0  0  0  0  0
   29.2228  -14.5889  -19.2680 O   0  0  0  0  0  0  0  0  0  0  0  0
   27.7829  -18.4740  -18.7284 C   0  0  0  0  0  0  0  0  0  0  0  0
   27.0337  -18.9616  -19.6067 O   0  0  0  0  0  0  0  0  0  0  0  0
   27.2966  -13.7617  -20.1075 O   0  0  0  0  0  0  0  0  0  0  0  0
   30.0560  -23.1912  -17.0515 N   0  0  0  0  0  0  0  0  0  0  0  0
   28.8548  -23.5866  -16.3833 C   0  0  0  0  0  0  0  0  0  0  0  0
   28.6801  -24.8100  -16.2094 O   0  0  0  0  0  0  0  0  0  0  0  0
   27.9223  -22.5280  -15.9524 C   0  0  0  0  0  0  0  0  0  0  0  0
   28.3947  -21.1381  -16.2881 C   0  0  0  0  0  0  0  0  0  0  0  0
   27.4477  -20.4706  -17.2292 C   0  0  2  0  0  0  0  0  0  0  0  0
   27.9831  -19.1567  -17.5272 N   0  0  0  0  0  0  0  0  0  0  0  0
   26.0682  -20.3799  -16.6782 C   0  0  0  0  0  0  0  0  0  0  0  0
   25.4066  -21.4215  -16.4593 O   0  0  0  0  0  0  0  0  0  0  0  0
   25.4982  -19.1236  -16.3996 N   0  0  0  0  0  0  0  0  0  0  0  0
   24.1721  -18.9315  -15.8832 C   0  0  1  0  0  0  0  0  0  0  0  0
   23.3474  -18.0132  -16.7601 C   0  0  0  0  0  0  0  0  0  0  0  0
   21.9820  -17.8018  -16.2217 C   0  0  0  0  0  0  0  0  0  0  0  0
   21.4724  -18.3055  -15.0270 C   0  0  0  0  0  0  0  0  0  0  0  0
   20.2169  -17.8957  -14.8994 N   0  0  0  0  0  0  0  0  0  0  0  0
   19.8900  -17.1521  -15.9521 C   0  0  0  0  0  0  0  0  0  0  0  0
   20.9753  -17.1006  -16.7546 N   0  0  0  0  0  0  0  0  0  0  0  0
   23.5204  -20.2481  -15.7259 C   0  0  0  0  0  0  0  0  0  0  0  0
   22.9286  -20.5713  -14.5194 O   0  0  0  0  0  0  0  0  0  0  0  0
   23.4716  -21.1027  -16.6358 O   0  0  0  0  0  0  0  0  0  0  0  0
  2  1  1  6
  3  2  1  0
  3  4  1  0
  4  5  2  0
  6  2  1  0
  6  7  2  0
  8  4  1  0
  9 10  1  0
 10 12  1  0
 11 10  2  0
 12 13  1  0
 14 13  1  1
 14 15  1  0
 15  6  1  0
 16 14  1  0
 17 16  2  0
 18 16  1  0
 19 18  1  0
 19 26  1  0
 19 20  1  6
 21 25  1  0
 21 20  1  0
 22 21  2  0
 23 22  1  0
 23 24  1  0
 24 25  2  0
 26 27  1  0
 28 26  2  0
M  END
$$$$
