DQH.pdb
     RDKit          3D

 28 28  0  0  1  0  0  0  0  0999 V2000
   39.6807   -9.2467  -11.4194 N   0  0  0  0  0  0  0  0  0  0  0  0
   40.1092   -7.9985  -10.8581 C   0  0  1  0  0  0  0  0  0  0  0  0
   39.2201   -6.8552  -11.3577 C   0  0  0  0  0  0  0  0  0  0  0  0
   39.2707   -6.7814  -12.8412 C   0  0  0  0  0  0  0  0  0  0  0  0
   40.3078   -6.9740  -13.4882 O   0  0  0  0  0  0  0  0  0  0  0  0
   40.1731   -8.0072   -9.3794 C   0  0  0  0  0  0  0  0  0  0  0  0
   39.1246   -8.1933   -8.7188 O   0  0  0  0  0  0  0  0  0  0  0  0
   38.1044   -6.4828  -13.5407 O   0  0  0  0  0  0  0  0  0  0  0  0
   43.9087  -11.6151   -5.9009 N   0  0  0  0  0  0  0  0  0  0  0  0
   43.8013  -10.9508   -7.1630 C   0  0  0  0  0  0  0  0  0  0  0  0
   44.7298  -11.1292   -7.9775 O   0  0  0  0  0  0  0  0  0  0  0  0
   42.6110  -10.1139   -7.4052 C   0  0  0  0  0  0  0  0  0  0  0  0
   42.8024   -8.6709   -7.0191 C   0  0  0  0  0  0  0  0  0  0  0  0
   41.5611   -7.8845   -7.2806 C   0  0  2  0  0  0  0  0  0  0  0  0
   41.3868   -7.8107   -8.7179 N   0  0  0  0  0  0  0  0  0  0  0  0
   41.6091   -6.5274   -6.6717 C   0  0  0  0  0  0  0  0  0  0  0  0
   41.7155   -6.3966   -5.4298 O   0  0  0  0  0  0  0  0  0  0  0  0
   41.5352   -5.3824   -7.4869 N   0  0  0  0  0  0  0  0  0  0  0  0
   41.5460   -4.0339   -6.9935 C   0  0  1  0  0  0  0  0  0  0  0  0
   42.7196   -3.2413   -7.5293 C   0  0  0  0  0  0  0  0  0  0  0  0
   44.0076   -3.6798   -6.9396 C   0  0  0  0  0  0  0  0  0  0  0  0
   44.1882   -4.3008   -5.7058 C   0  0  0  0  0  0  0  0  0  0  0  0
   45.4835   -4.5349   -5.5384 N   0  0  0  0  0  0  0  0  0  0  0  0
   46.1487   -4.0960   -6.6028 C   0  0  0  0  0  0  0  0  0  0  0  0
   45.2381   -3.5751   -7.4536 N   0  0  0  0  0  0  0  0  0  0  0  0
   40.2629   -3.3855   -7.3341 C   0  0  0  0  0  0  0  0  0  0  0  0
   39.2880   -4.1147   -7.9885 O   0  0  0  0  0  0  0  0  0  0  0  0
   40.0018   -2.1949   -7.0605 O   0  0  0  0  0  0  0  0  0  0  0  0
  2  1  1  1
  3  2  1  0
  3  4  1  0
  4  5  2  0
  6  2  1  0
  6  7  2  0
  8  4  1  0
  9 10  1  0
 10 12  1  0
 11 10  2  0
 12 13  1  0
 14 13  1  6
 14 15  1  0
 15  6  1  0
 16 14  1  0
 17 16  2  0
 18 16  1  0
 19 18  1  0
 19 26  1  0
 19 20  1  6
 21 25  1  0
 21 20  1  0
 22 21  2  0
 23 22  1  0
 23 24  1  0
 24 25  2  0
 26 27  1  0
 28 26  2  0
M  END
$$$$
