DQH.pdb
     RDKit          3D

 28 28  0  0  1  0  0  0  0  0999 V2000
   26.8923  -35.4920   -8.6226 N   0  0  0  0  0  0  0  0  0  0  0  0
   27.1681  -34.4803   -7.6442 C   0  0  1  0  0  0  0  0  0  0  0  0
   25.9689  -33.5380   -7.4980 C   0  0  0  0  0  0  0  0  0  0  0  0
   25.8241  -32.7044   -8.7198 C   0  0  0  0  0  0  0  0  0  0  0  0
   26.6192  -32.7565   -9.6665 O   0  0  0  0  0  0  0  0  0  0  0  0
   27.5717  -35.0258   -6.3288 C   0  0  0  0  0  0  0  0  0  0  0  0
   26.9385  -35.9916   -5.8421 O   0  0  0  0  0  0  0  0  0  0  0  0
   24.7493  -31.8239   -8.8105 O   0  0  0  0  0  0  0  0  0  0  0  0
   33.0014  -33.3540   -3.8005 N   0  0  0  0  0  0  0  0  0  0  0  0
   32.8532  -34.4651   -4.6889 C   0  0  0  0  0  0  0  0  0  0  0  0
   33.8786  -34.8550   -5.2838 O   0  0  0  0  0  0  0  0  0  0  0  0
   31.5119  -35.0620   -4.8323 C   0  0  0  0  0  0  0  0  0  0  0  0
   30.4394  -34.3168   -4.0823 C   0  0  0  0  0  0  0  0  0  0  0  0
   29.1002  -34.9280   -4.3287 C   0  0  2  0  0  0  0  0  0  0  0  0
   28.6472  -34.4754   -5.6294 N   0  0  0  0  0  0  0  0  0  0  0  0
   28.1160  -34.5881   -3.2653 C   0  0  0  0  0  0  0  0  0  0  0  0
   27.1407  -33.8443   -3.5229 O   0  0  0  0  0  0  0  0  0  0  0  0
   28.2745  -35.0999   -1.9639 N   0  0  0  0  0  0  0  0  0  0  0  0
   27.3140  -34.9422   -0.9081 C   0  0  1  0  0  0  0  0  0  0  0  0
   25.9803  -35.5703   -1.2536 C   0  0  0  0  0  0  0  0  0  0  0  0
   25.1125  -34.6513   -2.0289 C   0  0  0  0  0  0  0  0  0  0  0  0
   24.3664  -33.5887   -1.5240 C   0  0  0  0  0  0  0  0  0  0  0  0
   23.7245  -33.0098   -2.5306 N   0  0  0  0  0  0  0  0  0  0  0  0
   24.0188  -33.6454   -3.6608 C   0  0  0  0  0  0  0  0  0  0  0  0
   24.8677  -34.6471   -3.3439 N   0  0  0  0  0  0  0  0  0  0  0  0
   27.8676  -35.5136    0.3368 C   0  0  0  0  0  0  0  0  0  0  0  0
   27.3985  -35.0630    1.5563 O   0  0  0  0  0  0  0  0  0  0  0  0
   28.7512  -36.3965    0.3531 O   0  0  0  0  0  0  0  0  0  0  0  0
  2  1  1  6
  3  2  1  0
  3  4  1  0
  4  5  2  0
  6  2  1  0
  6  7  2  0
  8  4  1  0
  9 10  1  0
 10 12  1  0
 11 10  2  0
 12 13  1  0
 14 13  1  1
 14 15  1  0
 15  6  1  0
 16 14  1  0
 17 16  2  0
 18 16  1  0
 19 18  1  0
 19 26  1  0
 19 20  1  6
 21 25  1  0
 21 20  1  0
 22 21  2  0
 23 22  1  0
 23 24  1  0
 24 25  2  0
 26 27  1  0
 28 26  2  0
M  END
$$$$
