DQH.pdb
     RDKit          3D

 28 28  0  0  1  0  0  0  0  0999 V2000
   20.4049  -12.7957  -16.1040 N   0  0  0  0  0  0  0  0  0  0  0  0
   19.9513  -11.4378  -16.1874 C   0  0  1  0  0  0  0  0  0  0  0  0
   18.5061  -11.3263  -15.6913 C   0  0  0  0  0  0  0  0  0  0  0  0
   17.6126  -12.1652  -16.5321 C   0  0  0  0  0  0  0  0  0  0  0  0
   17.7834  -12.3181  -17.7481 O   0  0  0  0  0  0  0  0  0  0  0  0
   20.8266  -10.4785  -15.4771 C   0  0  0  0  0  0  0  0  0  0  0  0
   20.9088  -10.5285  -14.2277 O   0  0  0  0  0  0  0  0  0  0  0  0
   16.5343  -12.8105  -15.9324 O   0  0  0  0  0  0  0  0  0  0  0  0
   26.4419   -9.5153  -16.3452 N   0  0  0  0  0  0  0  0  0  0  0  0
   25.7204  -10.3502  -15.4351 C   0  0  0  0  0  0  0  0  0  0  0  0
   26.3437  -11.3041  -14.9264 O   0  0  0  0  0  0  0  0  0  0  0  0
   24.3072  -10.0225  -15.1678 C   0  0  0  0  0  0  0  0  0  0  0  0
   23.8122   -8.8258  -15.9363 C   0  0  0  0  0  0  0  0  0  0  0  0
   22.3986   -8.5124  -15.5738 C   0  0  2  0  0  0  0  0  0  0  0  0
   21.5578   -9.5229  -16.1850 N   0  0  0  0  0  0  0  0  0  0  0  0
   21.9933   -7.1442  -15.9964 C   0  0  0  0  0  0  0  0  0  0  0  0
   21.8751   -6.8689  -17.2134 O   0  0  0  0  0  0  0  0  0  0  0  0
   21.7403   -6.1510  -15.0319 N   0  0  0  0  0  0  0  0  0  0  0  0
   21.3048   -4.8170  -15.3368 C   0  0  1  0  0  0  0  0  0  0  0  0
   19.8857   -4.5620  -14.8746 C   0  0  0  0  0  0  0  0  0  0  0  0
   18.8940   -5.3408  -15.6549 C   0  0  0  0  0  0  0  0  0  0  0  0
   18.8721   -5.5103  -17.0375 C   0  0  0  0  0  0  0  0  0  0  0  0
   17.8314   -6.2711  -17.3514 N   0  0  0  0  0  0  0  0  0  0  0  0
   17.1799   -6.6017  -16.2405 C   0  0  0  0  0  0  0  0  0  0  0  0
   17.8369   -6.0284  -15.2089 N   0  0  0  0  0  0  0  0  0  0  0  0
   22.2458   -3.8523  -14.7313 C   0  0  0  0  0  0  0  0  0  0  0  0
   22.0380   -2.4980  -14.9130 O   0  0  0  0  0  0  0  0  0  0  0  0
   23.2368   -4.1943  -14.0520 O   0  0  0  0  0  0  0  0  0  0  0  0
  2  1  1  1
  3  2  1  0
  3  4  1  0
  4  5  2  0
  6  2  1  0
  6  7  2  0
  8  4  1  0
  9 10  1  0
 10 12  1  0
 11 10  2  0
 12 13  1  0
 14 13  1  6
 14 15  1  0
 15  6  1  0
 16 14  1  0
 17 16  2  0
 18 16  1  0
 19 18  1  0
 19 26  1  0
 19 20  1  1
 21 25  1  0
 21 20  1  0
 22 21  2  0
 23 22  1  0
 23 24  1  0
 24 25  2  0
 26 27  1  0
 28 26  2  0
M  END
$$$$
