DQH.pdb
     RDKit          3D

 28 28  0  0  1  0  0  0  0  0999 V2000
   17.2530  -12.3140  -16.5583 N   0  0  0  0  0  0  0  0  0  0  0  0
   17.9014  -11.4921  -15.5781 C   0  0  1  0  0  0  0  0  0  0  0  0
   18.9397  -10.5843  -16.2452 C   0  0  0  0  0  0  0  0  0  0  0  0
   19.9765  -11.4070  -16.9213 C   0  0  0  0  0  0  0  0  0  0  0  0
   20.6926  -12.2147  -16.3163 O   0  0  0  0  0  0  0  0  0  0  0  0
   16.9596  -10.6988  -14.7568 C   0  0  0  0  0  0  0  0  0  0  0  0
   15.7416  -10.6910  -15.0513 O   0  0  0  0  0  0  0  0  0  0  0  0
   20.1557  -11.2685  -18.2951 O   0  0  0  0  0  0  0  0  0  0  0  0
   12.4476   -9.9249  -10.2176 N   0  0  0  0  0  0  0  0  0  0  0  0
   13.7463  -10.4500  -10.5065 C   0  0  0  0  0  0  0  0  0  0  0  0
   13.9482  -11.6485  -10.2233 O   0  0  0  0  0  0  0  0  0  0  0  0
   14.7394   -9.5439  -11.1136 C   0  0  0  0  0  0  0  0  0  0  0  0
   15.5781  -10.1990  -12.1791 C   0  0  0  0  0  0  0  0  0  0  0  0
   16.5595   -9.2299  -12.7497 C   0  0  2  0  0  0  0  0  0  0  0  0
   17.4156   -9.9626  -13.6617 N   0  0  0  0  0  0  0  0  0  0  0  0
   17.3551   -8.5406  -11.6976 C   0  0  0  0  0  0  0  0  0  0  0  0
   18.0498   -9.2063  -10.8945 O   0  0  0  0  0  0  0  0  0  0  0  0
   17.3321   -7.1369  -11.5982 N   0  0  0  0  0  0  0  0  0  0  0  0
   18.0043   -6.3855  -10.5757 C   0  0  1  0  0  0  0  0  0  0  0  0
   18.7787   -5.2156  -11.1452 C   0  0  0  0  0  0  0  0  0  0  0  0
   19.9204   -5.6544  -11.9834 C   0  0  0  0  0  0  0  0  0  0  0  0
   20.2973   -6.9683  -12.2526 C   0  0  0  0  0  0  0  0  0  0  0  0
   21.3654   -6.9465  -13.0395 N   0  0  0  0  0  0  0  0  0  0  0  0
   21.6974   -5.6840  -13.2920 C   0  0  0  0  0  0  0  0  0  0  0  0
   20.8085   -4.9017  -12.6422 N   0  0  0  0  0  0  0  0  0  0  0  0
   17.0126   -5.9351   -9.5774 C   0  0  0  0  0  0  0  0  0  0  0  0
   17.4502   -5.3526   -8.4028 O   0  0  0  0  0  0  0  0  0  0  0  0
   15.7789   -6.0516   -9.7348 O   0  0  0  0  0  0  0  0  0  0  0  0
  2  1  1  6
  3  2  1  0
  3  4  1  0
  4  5  2  0
  6  2  1  0
  6  7  2  0
  8  4  1  0
  9 10  1  0
 10 12  1  0
 11 10  2  0
 12 13  1  0
 14 13  1  1
 14 15  1  0
 15  6  1  0
 16 14  1  0
 17 16  2  0
 18 16  1  0
 19 18  1  0
 19 26  1  0
 19 20  1  6
 21 25  1  0
 21 20  1  0
 22 21  2  0
 23 22  1  0
 23 24  1  0
 24 25  2  0
 26 27  1  0
 28 26  2  0
M  END
$$$$
