DQH.pdb
     RDKit          3D

 28 28  0  0  1  0  0  0  0  0999 V2000
   21.1864  -12.8015  -17.8086 N   0  0  0  0  0  0  0  0  0  0  0  0
   19.9242  -12.1778  -18.0818 C   0  0  1  0  0  0  0  0  0  0  0  0
   18.7726  -13.0960  -17.6599 C   0  0  0  0  0  0  0  0  0  0  0  0
   18.8885  -14.4079  -18.3485 C   0  0  0  0  0  0  0  0  0  0  0  0
   19.2843  -14.5211  -19.5155 O   0  0  0  0  0  0  0  0  0  0  0  0
   19.7820  -10.8392  -17.4664 C   0  0  0  0  0  0  0  0  0  0  0  0
   18.7432  -10.1711  -17.6786 O   0  0  0  0  0  0  0  0  0  0  0  0
   18.5382  -15.5645  -17.6570 O   0  0  0  0  0  0  0  0  0  0  0  0
   19.8501   -9.1199  -12.4882 N   0  0  0  0  0  0  0  0  0  0  0  0
   20.4999   -7.8817  -12.7890 C   0  0  0  0  0  0  0  0  0  0  0  0
   20.2464   -6.9136  -12.0435 O   0  0  0  0  0  0  0  0  0  0  0  0
   21.4136   -7.8433  -13.9463 C   0  0  0  0  0  0  0  0  0  0  0  0
   21.4702   -9.1398  -14.7104 C   0  0  0  0  0  0  0  0  0  0  0  0
   20.7370   -9.0228  -16.0052 C   0  0  2  0  0  0  0  0  0  0  0  0
   20.7914  -10.3175  -16.6552 N   0  0  0  0  0  0  0  0  0  0  0  0
   21.2944   -7.9553  -16.8796 C   0  0  0  0  0  0  0  0  0  0  0  0
   22.2594   -8.2025  -17.6401 O   0  0  0  0  0  0  0  0  0  0  0  0
   20.7410   -6.6614  -16.8579 N   0  0  0  0  0  0  0  0  0  0  0  0
   21.1219   -5.6016  -17.7488 C   0  0  1  0  0  0  0  0  0  0  0  0
   20.9747   -5.9994  -19.2023 C   0  0  0  0  0  0  0  0  0  0  0  0
   21.4195   -4.9268  -20.1245 C   0  0  0  0  0  0  0  0  0  0  0  0
   22.6393   -4.2546  -20.0908 C   0  0  0  0  0  0  0  0  0  0  0  0
   22.6586   -3.3687  -21.0784 N   0  0  0  0  0  0  0  0  0  0  0  0
   21.5121   -3.4352  -21.7486 C   0  0  0  0  0  0  0  0  0  0  0  0
   20.7614   -4.3903  -21.1580 N   0  0  0  0  0  0  0  0  0  0  0  0
   20.3201   -4.3999  -17.4396 C   0  0  0  0  0  0  0  0  0  0  0  0
   20.9147   -3.1538  -17.5030 O   0  0  0  0  0  0  0  0  0  0  0  0
   19.1137   -4.4439  -17.1180 O   0  0  0  0  0  0  0  0  0  0  0  0
  2  1  1  1
  3  2  1  0
  3  4  1  0
  4  5  2  0
  6  2  1  0
  6  7  2  0
  8  4  1  0
  9 10  1  0
 10 12  1  0
 11 10  2  0
 12 13  1  0
 14 13  1  1
 14 15  1  0
 15  6  1  0
 16 14  1  0
 17 16  2  0
 18 16  1  0
 19 18  1  0
 19 26  1  0
 19 20  1  6
 21 25  1  0
 21 20  1  0
 22 21  2  0
 23 22  1  0
 23 24  1  0
 24 25  2  0
 26 27  1  0
 28 26  2  0
M  END
$$$$
