DQH.pdb
     RDKit          3D

 28 28  0  0  1  0  0  0  0  0999 V2000
   15.7612  -12.3154  -14.9981 N   0  0  0  0  0  0  0  0  0  0  0  0
   15.4958  -10.9362  -15.2879 C   0  0  1  0  0  0  0  0  0  0  0  0
   14.0983  -10.5466  -14.7955 C   0  0  0  0  0  0  0  0  0  0  0  0
   13.0617  -11.2455  -15.5991 C   0  0  0  0  0  0  0  0  0  0  0  0
   13.3380  -12.0526  -16.4956 O   0  0  0  0  0  0  0  0  0  0  0  0
   16.5194  -10.0125  -14.7497 C   0  0  0  0  0  0  0  0  0  0  0  0
   16.6706   -9.9158  -13.5095 O   0  0  0  0  0  0  0  0  0  0  0  0
   11.7190  -10.9860  -15.3379 O   0  0  0  0  0  0  0  0  0  0  0  0
   22.2030   -9.8955  -15.8275 N   0  0  0  0  0  0  0  0  0  0  0  0
   22.1170   -8.5746  -15.2855 C   0  0  0  0  0  0  0  0  0  0  0  0
   23.1930   -7.9815  -15.0665 O   0  0  0  0  0  0  0  0  0  0  0  0
   20.7753   -8.0176  -15.0302 C   0  0  0  0  0  0  0  0  0  0  0  0
   19.6567   -8.9724  -15.3544 C   0  0  0  0  0  0  0  0  0  0  0  0
   18.3298   -8.3129  -15.1743 C   0  0  2  0  0  0  0  0  0  0  0  0
   17.3142   -9.2516  -15.6091 N   0  0  0  0  0  0  0  0  0  0  0  0
   18.2293   -7.0262  -15.9154 C   0  0  0  0  0  0  0  0  0  0  0  0
   18.1709   -7.0222  -17.1673 O   0  0  0  0  0  0  0  0  0  0  0  0
   18.1992   -5.8060  -15.2147 N   0  0  0  0  0  0  0  0  0  0  0  0
   18.2097   -4.5125  -15.8383 C   0  0  1  0  0  0  0  0  0  0  0  0
   17.2812   -3.5385  -15.1442 C   0  0  0  0  0  0  0  0  0  0  0  0
   15.8543   -3.8271  -15.4262 C   0  0  0  0  0  0  0  0  0  0  0  0
   15.2788   -4.0289  -16.6787 C   0  0  0  0  0  0  0  0  0  0  0  0
   13.9826   -4.2594  -16.5137 N   0  0  0  0  0  0  0  0  0  0  0  0
   13.6919   -4.2166  -15.2169 C   0  0  0  0  0  0  0  0  0  0  0  0
   14.8423   -3.9517  -14.5604 N   0  0  0  0  0  0  0  0  0  0  0  0
   19.5958   -4.0020  -15.8668 C   0  0  0  0  0  0  0  0  0  0  0  0
   19.8531   -2.7719  -16.4422 O   0  0  0  0  0  0  0  0  0  0  0  0
   20.5675   -4.6278  -15.3927 O   0  0  0  0  0  0  0  0  0  0  0  0
  2  1  1  1
  3  2  1  0
  3  4  1  0
  4  5  2  0
  6  2  1  0
  6  7  2  0
  8  4  1  0
  9 10  1  0
 10 12  1  0
 11 10  2  0
 12 13  1  0
 14 13  1  6
 14 15  1  0
 15  6  1  0
 16 14  1  0
 17 16  2  0
 18 16  1  0
 19 18  1  0
 19 26  1  0
 19 20  1  1
 21 25  1  0
 21 20  1  0
 22 21  2  0
 23 22  1  0
 23 24  1  0
 24 25  2  0
 26 27  1  0
 28 26  2  0
M  END
$$$$
