DQH.pdb
     RDKit          3D

 28 28  0  0  1  0  0  0  0  0999 V2000
   21.1495  -11.9822  -20.0736 N   0  0  0  0  0  0  0  0  0  0  0  0
   21.5304  -10.6715  -19.6336 C   0  0  1  0  0  0  0  0  0  0  0  0
   20.6128   -9.6126  -20.2535 C   0  0  0  0  0  0  0  0  0  0  0  0
   20.9181   -9.4574  -21.6996 C   0  0  0  0  0  0  0  0  0  0  0  0
   21.8075  -10.1006  -22.2711 O   0  0  0  0  0  0  0  0  0  0  0  0
   21.5736  -10.5327  -18.1607 C   0  0  0  0  0  0  0  0  0  0  0  0
   20.6110  -10.9488  -17.4745 O   0  0  0  0  0  0  0  0  0  0  0  0
   20.1751   -8.5507  -22.4510 O   0  0  0  0  0  0  0  0  0  0  0  0
   26.9742   -9.7085  -15.4796 N   0  0  0  0  0  0  0  0  0  0  0  0
   26.3596  -10.9675  -15.7677 C   0  0  0  0  0  0  0  0  0  0  0  0
   27.1156  -11.9541  -15.8796 O   0  0  0  0  0  0  0  0  0  0  0  0
   24.8917  -11.0048  -15.9077 C   0  0  0  0  0  0  0  0  0  0  0  0
   24.2411   -9.6531  -15.7758 C   0  0  0  0  0  0  0  0  0  0  0  0
   22.7869   -9.7320  -16.1033 C   0  0  2  0  0  0  0  0  0  0  0  0
   22.6731   -9.9447  -17.5328 N   0  0  0  0  0  0  0  0  0  0  0  0
   22.0414   -8.5167  -15.6766 C   0  0  0  0  0  0  0  0  0  0  0  0
   22.5644   -7.3834  -15.7906 O   0  0  0  0  0  0  0  0  0  0  0  0
   20.7444   -8.6326  -15.1426 N   0  0  0  0  0  0  0  0  0  0  0  0
   19.9317   -7.5199  -14.7382 C   0  0  1  0  0  0  0  0  0  0  0  0
   19.1184   -6.9619  -15.8870 C   0  0  0  0  0  0  0  0  0  0  0  0
   19.8948   -6.0022  -16.7086 C   0  0  0  0  0  0  0  0  0  0  0  0
   21.1911   -5.5555  -16.4621 C   0  0  0  0  0  0  0  0  0  0  0  0
   21.5328   -4.7058  -17.4222 N   0  0  0  0  0  0  0  0  0  0  0  0
   20.5218   -4.5813  -18.2768 C   0  0  0  0  0  0  0  0  0  0  0  0
   19.5253   -5.3774  -17.8322 N   0  0  0  0  0  0  0  0  0  0  0  0
   19.0609   -7.9397  -13.6209 C   0  0  0  0  0  0  0  0  0  0  0  0
   18.2214   -7.0133  -13.0313 O   0  0  0  0  0  0  0  0  0  0  0  0
   19.0377   -9.1040  -13.1689 O   0  0  0  0  0  0  0  0  0  0  0  0
  2  1  1  1
  3  2  1  0
  3  4  1  0
  4  5  2  0
  6  2  1  0
  6  7  2  0
  8  4  1  0
  9 10  1  0
 10 12  1  0
 11 10  2  0
 12 13  1  0
 14 13  1  6
 14 15  1  0
 15  6  1  0
 16 14  1  0
 17 16  2  0
 18 16  1  0
 19 18  1  0
 19 26  1  0
 19 20  1  6
 21 25  1  0
 21 20  1  0
 22 21  2  0
 23 22  1  0
 23 24  1  0
 24 25  2  0
 26 27  1  0
 28 26  2  0
M  END
$$$$
