DQH.pdb
     RDKit          3D

 28 28  0  0  1  0  0  0  0  0999 V2000
   16.2645  -14.9585  -14.7803 N   0  0  0  0  0  0  0  0  0  0  0  0
   17.6915  -14.8167  -14.7669 C   0  0  1  0  0  0  0  0  0  0  0  0
   18.3641  -16.1560  -15.0849 C   0  0  0  0  0  0  0  0  0  0  0  0
   18.0073  -17.1633  -14.0521 C   0  0  0  0  0  0  0  0  0  0  0  0
   17.3571  -16.8831  -13.0371 O   0  0  0  0  0  0  0  0  0  0  0  0
   18.1873  -13.7522  -15.6680 C   0  0  0  0  0  0  0  0  0  0  0  0
   19.4103  -13.6908  -15.9341 O   0  0  0  0  0  0  0  0  0  0  0  0
   18.4189  -18.4819  -14.2270 O   0  0  0  0  0  0  0  0  0  0  0  0
   16.2209  -11.8411  -20.5863 N   0  0  0  0  0  0  0  0  0  0  0  0
   16.7421  -10.5470  -20.2706 C   0  0  0  0  0  0  0  0  0  0  0  0
   16.9867   -9.7860  -21.2290 O   0  0  0  0  0  0  0  0  0  0  0  0
   16.9476  -10.2120  -18.8489 C   0  0  0  0  0  0  0  0  0  0  0  0
   16.5673  -11.3249  -17.9083 C   0  0  0  0  0  0  0  0  0  0  0  0
   17.7120  -11.6794  -17.0185 C   0  0  2  0  0  0  0  0  0  0  0  0
   17.3070  -12.8204  -16.2212 N   0  0  0  0  0  0  0  0  0  0  0  0
   18.1364  -10.5419  -16.1577 C   0  0  0  0  0  0  0  0  0  0  0  0
   17.5167  -10.2868  -15.0987 O   0  0  0  0  0  0  0  0  0  0  0  0
   19.2363   -9.7456  -16.5279 N   0  0  0  0  0  0  0  0  0  0  0  0
   19.7126   -8.6201  -15.7740 C   0  0  1  0  0  0  0  0  0  0  0  0
   20.9541   -8.0082  -16.3878 C   0  0  0  0  0  0  0  0  0  0  0  0
   21.4472   -6.8446  -15.6122 C   0  0  0  0  0  0  0  0  0  0  0  0
   21.1097   -6.5163  -14.3011 C   0  0  0  0  0  0  0  0  0  0  0  0
   21.7560   -5.4071  -13.9657 N   0  0  0  0  0  0  0  0  0  0  0  0
   22.4944   -5.0024  -14.9948 C   0  0  0  0  0  0  0  0  0  0  0  0
   22.2990   -5.8874  -15.9964 N   0  0  0  0  0  0  0  0  0  0  0  0
   18.6276   -7.6241  -15.6569 C   0  0  0  0  0  0  0  0  0  0  0  0
   18.3170   -7.1036  -14.4148 O   0  0  0  0  0  0  0  0  0  0  0  0
   17.9618   -7.2168  -16.6322 O   0  0  0  0  0  0  0  0  0  0  0  0
  2  1  1  6
  3  2  1  0
  3  4  1  0
  4  5  2  0
  6  2  1  0
  6  7  2  0
  8  4  1  0
  9 10  1  0
 10 12  1  0
 11 10  2  0
 12 13  1  0
 14 13  1  1
 14 15  1  0
 15  6  1  0
 16 14  1  0
 17 16  2  0
 18 16  1  0
 19 18  1  0
 19 26  1  0
 19 20  1  6
 21 25  1  0
 21 20  1  0
 22 21  2  0
 23 22  1  0
 23 24  1  0
 24 25  2  0
 26 27  1  0
 28 26  2  0
M  END
$$$$
