DQH.pdb
     RDKit          3D

 28 28  0  0  1  0  0  0  0  0999 V2000
   25.3898  -22.2976  -16.7736 N   0  0  0  0  0  0  0  0  0  0  0  0
   25.2679  -23.4162  -15.8845 C   0  0  1  0  0  0  0  0  0  0  0  0
   26.6444  -24.0273  -15.6035 C   0  0  0  0  0  0  0  0  0  0  0  0
   27.3545  -24.2928  -16.8817 C   0  0  0  0  0  0  0  0  0  0  0  0
   27.0015  -25.1740  -17.6756 O   0  0  0  0  0  0  0  0  0  0  0  0
   24.5685  -23.0922  -14.6209 C   0  0  0  0  0  0  0  0  0  0  0  0
   24.5845  -23.9184  -13.6788 O   0  0  0  0  0  0  0  0  0  0  0  0
   28.4665  -23.5206  -17.2072 O   0  0  0  0  0  0  0  0  0  0  0  0
   26.1013  -21.1890  -10.0946 N   0  0  0  0  0  0  0  0  0  0  0  0
   24.7245  -20.9934   -9.7598 C   0  0  0  0  0  0  0  0  0  0  0  0
   24.4552  -20.8118   -8.5549 O   0  0  0  0  0  0  0  0  0  0  0  0
   23.7360  -21.0193  -10.8543 C   0  0  0  0  0  0  0  0  0  0  0  0
   24.3232  -21.4091  -12.1851 C   0  0  0  0  0  0  0  0  0  0  0  0
   23.2692  -21.4320  -13.2418 C   0  0  2  0  0  0  0  0  0  0  0  0
   23.8942  -21.8789  -14.4711 N   0  0  0  0  0  0  0  0  0  0  0  0
   22.6133  -20.1079  -13.4192 C   0  0  0  0  0  0  0  0  0  0  0  0
   23.2348  -19.1636  -13.9602 O   0  0  0  0  0  0  0  0  0  0  0  0
   21.2910  -19.9082  -12.9806 N   0  0  0  0  0  0  0  0  0  0  0  0
   20.1656  -19.7277  -13.8540 C   0  0  1  0  0  0  0  0  0  0  0  0
   20.0165  -20.8722  -14.8341 C   0  0  0  0  0  0  0  0  0  0  0  0
   20.4162  -20.4877  -16.2093 C   0  0  0  0  0  0  0  0  0  0  0  0
   20.7875  -19.2167  -16.6422 C   0  0  0  0  0  0  0  0  0  0  0  0
   21.0729  -19.2800  -17.9364 N   0  0  0  0  0  0  0  0  0  0  0  0
   20.9046  -20.5286  -18.3613 C   0  0  0  0  0  0  0  0  0  0  0  0
   20.5031  -21.2592  -17.2985 N   0  0  0  0  0  0  0  0  0  0  0  0
   18.9448  -19.5592  -13.0391 C   0  0  0  0  0  0  0  0  0  0  0  0
   17.9603  -18.6879  -13.4658 O   0  0  0  0  0  0  0  0  0  0  0  0
   18.7456  -20.1690  -11.9672 O   0  0  0  0  0  0  0  0  0  0  0  0
  2  1  1  6
  3  2  1  0
  3  4  1  0
  4  5  2  0
  6  2  1  0
  6  7  2  0
  8  4  1  0
  9 10  1  0
 10 12  1  0
 11 10  2  0
 12 13  1  0
 14 13  1  1
 14 15  1  0
 15  6  1  0
 16 14  1  0
 17 16  2  0
 18 16  1  0
 19 18  1  0
 19 26  1  0
 19 20  1  6
 21 25  1  0
 21 20  1  0
 22 21  2  0
 23 22  1  0
 23 24  1  0
 24 25  2  0
 26 27  1  0
 28 26  2  0
M  END
$$$$
