DQH.pdb
     RDKit          3D

 28 28  0  0  1  0  0  0  0  0999 V2000
   19.4560  -12.7414  -16.4289 N   0  0  0  0  0  0  0  0  0  0  0  0
   19.3638  -11.3765  -16.8594 C   0  0  1  0  0  0  0  0  0  0  0  0
   17.9443  -10.8428  -16.6415 C   0  0  0  0  0  0  0  0  0  0  0  0
   16.9810  -11.5985  -17.4840 C   0  0  0  0  0  0  0  0  0  0  0  0
   17.0205  -11.5908  -18.7208 O   0  0  0  0  0  0  0  0  0  0  0  0
   20.3628  -10.4884  -16.2237 C   0  0  0  0  0  0  0  0  0  0  0  0
   20.5783  -10.5854  -14.9930 O   0  0  0  0  0  0  0  0  0  0  0  0
   15.9878  -12.3502  -16.8617 O   0  0  0  0  0  0  0  0  0  0  0  0
   24.7641   -7.4093  -19.4665 N   0  0  0  0  0  0  0  0  0  0  0  0
   24.8974   -6.8014  -18.1787 C   0  0  0  0  0  0  0  0  0  0  0  0
   25.8067   -5.9576  -18.0424 O   0  0  0  0  0  0  0  0  0  0  0  0
   23.9575   -7.2126  -17.1189 C   0  0  0  0  0  0  0  0  0  0  0  0
   22.9231   -8.2032  -17.5845 C   0  0  0  0  0  0  0  0  0  0  0  0
   22.0610   -8.6412  -16.4475 C   0  0  2  0  0  0  0  0  0  0  0  0
   21.0636   -9.5480  -16.9810 N   0  0  0  0  0  0  0  0  0  0  0  0
   21.4266   -7.4952  -15.7409 C   0  0  0  0  0  0  0  0  0  0  0  0
   20.5557   -6.8026  -16.3175 O   0  0  0  0  0  0  0  0  0  0  0  0
   21.8009   -7.1823  -14.4207 N   0  0  0  0  0  0  0  0  0  0  0  0
   21.1051   -6.2487  -13.5804 C   0  0  1  0  0  0  0  0  0  0  0  0
   20.8293   -6.8173  -12.2045 C   0  0  0  0  0  0  0  0  0  0  0  0
   20.1719   -5.8318  -11.3126 C   0  0  0  0  0  0  0  0  0  0  0  0
   19.8791   -4.5036  -11.6141 C   0  0  0  0  0  0  0  0  0  0  0  0
   19.2921   -3.9525  -10.5594 N   0  0  0  0  0  0  0  0  0  0  0  0
   19.1911   -4.8586   -9.5915 C   0  0  0  0  0  0  0  0  0  0  0  0
   19.7315   -6.0039  -10.0613 N   0  0  0  0  0  0  0  0  0  0  0  0
   21.8891   -4.9993  -13.4952 C   0  0  0  0  0  0  0  0  0  0  0  0
   23.1357   -4.9399  -14.0891 O   0  0  0  0  0  0  0  0  0  0  0  0
   21.4845   -3.9740  -12.9073 O   0  0  0  0  0  0  0  0  0  0  0  0
  2  1  1  1
  3  2  1  0
  3  4  1  0
  4  5  2  0
  6  2  1  0
  6  7  2  0
  8  4  1  0
  9 10  1  0
 10 12  1  0
 11 10  2  0
 12 13  1  0
 14 13  1  6
 14 15  1  0
 15  6  1  0
 16 14  1  0
 17 16  2  0
 18 16  1  0
 19 18  1  0
 19 26  1  0
 19 20  1  1
 21 25  1  0
 21 20  1  0
 22 21  2  0
 23 22  1  0
 23 24  1  0
 24 25  2  0
 26 27  1  0
 28 26  2  0
M  END
$$$$
