DQH.pdb
     RDKit          3D

 28 28  0  0  1  0  0  0  0  0999 V2000
   14.3496  -22.0046    4.4374 N   0  0  0  0  0  0  0  0  0  0  0  0
   15.5906  -21.4577    4.9039 C   0  0  1  0  0  0  0  0  0  0  0  0
   15.3327  -20.3162    5.8928 C   0  0  0  0  0  0  0  0  0  0  0  0
   14.6830  -19.1756    5.1961 C   0  0  0  0  0  0  0  0  0  0  0  0
   14.5340  -19.1354    3.9682 O   0  0  0  0  0  0  0  0  0  0  0  0
   16.4969  -22.4690    5.4928 C   0  0  0  0  0  0  0  0  0  0  0  0
   16.0114  -23.4840    6.0446 O   0  0  0  0  0  0  0  0  0  0  0  0
   14.2191  -18.1015    5.9510 O   0  0  0  0  0  0  0  0  0  0  0  0
   21.4576  -24.7967    3.0921 N   0  0  0  0  0  0  0  0  0  0  0  0
   20.2851  -25.5549    3.4022 C   0  0  0  0  0  0  0  0  0  0  0  0
   20.1383  -26.6404    2.8042 O   0  0  0  0  0  0  0  0  0  0  0  0
   19.3472  -25.0024    4.3977 C   0  0  0  0  0  0  0  0  0  0  0  0
   19.7623  -23.6571    4.9323 C   0  0  0  0  0  0  0  0  0  0  0  0
   18.8438  -23.2153    6.0228 C   0  0  2  0  0  0  0  0  0  0  0  0
   17.8818  -22.3015    5.4387 N   0  0  0  0  0  0  0  0  0  0  0  0
   19.5709  -22.5824    7.1567 C   0  0  0  0  0  0  0  0  0  0  0  0
   20.1108  -21.4606    7.0124 O   0  0  0  0  0  0  0  0  0  0  0  0
   19.6566  -23.2398    8.3982 N   0  0  0  0  0  0  0  0  0  0  0  0
   20.3520  -22.7227    9.5432 C   0  0  1  0  0  0  0  0  0  0  0  0
   19.4155  -22.4445   10.7000 C   0  0  0  0  0  0  0  0  0  0  0  0
   18.4543  -21.3578   10.3937 C   0  0  0  0  0  0  0  0  0  0  0  0
   17.1752  -21.5049    9.8619 C   0  0  0  0  0  0  0  0  0  0  0  0
   16.6316  -20.3012    9.7346 N   0  0  0  0  0  0  0  0  0  0  0  0
   17.4959  -19.3837   10.1578 C   0  0  0  0  0  0  0  0  0  0  0  0
   18.6069  -20.0392   10.5586 N   0  0  0  0  0  0  0  0  0  0  0  0
   21.4144  -23.6729    9.9319 C   0  0  0  0  0  0  0  0  0  0  0  0
   22.2238  -23.3790   11.0131 O   0  0  0  0  0  0  0  0  0  0  0  0
   21.6287  -24.7465    9.3302 O   0  0  0  0  0  0  0  0  0  0  0  0
  2  1  1  1
  3  2  1  0
  3  4  1  0
  4  5  2  0
  6  2  1  0
  6  7  2  0
  8  4  1  0
  9 10  1  0
 10 12  1  0
 11 10  2  0
 12 13  1  0
 14 13  1  6
 14 15  1  0
 15  6  1  0
 16 14  1  0
 17 16  2  0
 18 16  1  0
 19 18  1  0
 19 26  1  0
 19 20  1  1
 21 25  1  0
 21 20  1  0
 22 21  2  0
 23 22  1  0
 23 24  1  0
 24 25  2  0
 26 27  1  0
 28 26  2  0
M  END
$$$$
