DQH.pdb
     RDKit          3D

 28 28  0  0  1  0  0  0  0  0999 V2000
   30.8263   -8.5424  -22.2643 N   0  0  0  0  0  0  0  0  0  0  0  0
   30.3295   -7.7055  -21.2110 C   0  0  1  0  0  0  0  0  0  0  0  0
   30.1943   -6.2590  -21.6973 C   0  0  0  0  0  0  0  0  0  0  0  0
   31.5396   -5.6719  -21.9303 C   0  0  0  0  0  0  0  0  0  0  0  0
   31.7234   -4.6740  -22.6387 O   0  0  0  0  0  0  0  0  0  0  0  0
   29.0569   -8.1849  -20.6267 C   0  0  0  0  0  0  0  0  0  0  0  0
   28.1451   -8.5900  -21.3850 O   0  0  0  0  0  0  0  0  0  0  0  0
   32.6464   -6.2651  -21.3288 O   0  0  0  0  0  0  0  0  0  0  0  0
   28.5112  -11.9747  -16.2267 N   0  0  0  0  0  0  0  0  0  0  0  0
   27.1802  -11.4586  -16.1378 C   0  0  0  0  0  0  0  0  0  0  0  0
   26.3444  -12.1510  -15.5219 O   0  0  0  0  0  0  0  0  0  0  0  0
   26.8988  -10.1577  -16.7737 C   0  0  0  0  0  0  0  0  0  0  0  0
   28.0944   -9.5547  -17.4629 C   0  0  0  0  0  0  0  0  0  0  0  0
   27.6663   -8.6640  -18.5815 C   0  0  2  0  0  0  0  0  0  0  0  0
   28.8654   -8.1894  -19.2438 N   0  0  0  0  0  0  0  0  0  0  0  0
   26.8223   -7.5307  -18.1145 C   0  0  0  0  0  0  0  0  0  0  0  0
   27.3078   -6.6479  -17.3691 O   0  0  0  0  0  0  0  0  0  0  0  0
   25.4735   -7.4434  -18.5072 N   0  0  0  0  0  0  0  0  0  0  0  0
   24.5898   -6.3729  -18.1398 C   0  0  1  0  0  0  0  0  0  0  0  0
   23.2529   -6.4716  -18.8437 C   0  0  0  0  0  0  0  0  0  0  0  0
   22.3509   -5.3480  -18.4929 C   0  0  0  0  0  0  0  0  0  0  0  0
   22.7219   -4.0251  -18.2628 C   0  0  0  0  0  0  0  0  0  0  0  0
   21.6309   -3.3261  -17.9770 N   0  0  0  0  0  0  0  0  0  0  0  0
   20.5735   -4.1316  -18.0110 C   0  0  0  0  0  0  0  0  0  0  0  0
   21.0238   -5.3652  -18.3272 N   0  0  0  0  0  0  0  0  0  0  0  0
   24.4221   -6.3682  -16.6719 C   0  0  0  0  0  0  0  0  0  0  0  0
   24.3086   -7.5702  -15.9991 O   0  0  0  0  0  0  0  0  0  0  0  0
   24.3759   -5.3227  -15.9898 O   0  0  0  0  0  0  0  0  0  0  0  0
  2  1  1  6
  3  2  1  0
  3  4  1  0
  4  5  2  0
  6  2  1  0
  6  7  2  0
  8  4  1  0
  9 10  1  0
 10 12  1  0
 11 10  2  0
 12 13  1  0
 14 13  1  1
 14 15  1  0
 15  6  1  0
 16 14  1  0
 17 16  2  0
 18 16  1  0
 19 18  1  0
 19 26  1  0
 19 20  1  6
 21 25  1  0
 21 20  1  0
 22 21  2  0
 23 22  1  0
 23 24  1  0
 24 25  2  0
 26 27  1  0
 28 26  2  0
M  END
$$$$
