QDS.pdb
     RDKit          3D

 24 23  0  0  1  0  0  0  0  0999 V2000
    9.4548  -15.8708   14.6347 N   0  0  0  0  0  0  0  0  0  0  0  0
    8.7454  -14.6277   14.6058 C   0  0  0  0  0  0  0  0  0  0  0  0
    8.7092  -13.9947   13.5114 O   0  0  0  0  0  0  0  0  0  0  0  0
    8.1014  -14.1533   15.8325 C   0  0  0  0  0  0  0  0  0  0  0  0
    8.1950  -15.0503   17.0117 C   0  0  0  0  0  0  0  0  0  0  0  0
    8.5482  -14.3859   18.3117 C   0  0  2  0  0  0  0  0  0  0  0  0
    8.8247  -13.0037   18.0784 N   0  0  0  0  0  0  0  0  0  0  0  0
    9.7119  -15.1062   18.8982 C   0  0  0  0  0  0  0  0  0  0  0  0
    9.7161  -16.3371   19.1380 O   0  0  0  0  0  0  0  0  0  0  0  0
   10.8911  -14.3867   19.2137 N   0  0  0  0  0  0  0  0  0  0  0  0
   12.0373  -14.9448   19.8782 C   0  0  1  0  0  0  0  0  0  0  0  0
   13.2769  -14.3063   19.3882 C   0  0  0  0  0  0  0  0  0  0  0  0
   13.6485  -14.8164   18.0540 C   0  0  0  0  0  0  0  0  0  0  0  0
   13.3918  -15.9938   17.7486 O   0  0  0  0  0  0  0  0  0  0  0  0
   11.8785  -15.0330   21.3371 C   0  0  0  0  0  0  0  0  0  0  0  0
   12.9035  -14.7870   22.0484 O   0  0  0  0  0  0  0  0  0  0  0  0
   14.2774  -13.9971   17.1451 O   0  0  0  0  0  0  0  0  0  0  0  0
    8.6548  -14.0817   23.2633 O   0  0  0  0  0  0  0  0  0  0  0  0
    9.1326  -15.2810   23.8202 C   0  0  0  0  0  0  0  0  0  0  0  0
   10.5838  -15.5064   23.4518 C   0  0  2  0  0  0  0  0  0  0  0  0
   10.6755  -15.3694   22.0078 N   0  0  0  0  0  0  0  0  0  0  0  0
   11.1288  -16.7684   23.9547 C   0  0  0  0  0  0  0  0  0  0  0  0
   11.5435  -17.6786   23.1873 O   0  0  0  0  0  0  0  0  0  0  0  0
   11.2036  -16.9980   25.3164 O   0  0  0  0  0  0  0  0  0  0  0  0
  2  1  1  0
  2  3  2  0
  4  2  1  0
  5  6  1  0
  5  4  1  0
  6  7  1  6
  8 10  1  0
  8  6  1  0
  9  8  2  0
 11 10  1  0
 11 12  1  1
 12 13  1  0
 13 17  1  0
 14 13  2  0
 15 11  1  0
 16 15  2  0
 19 18  1  0
 20 21  1  0
 20 19  1  6
 21 15  1  0
 22 20  1  0
 23 22  2  0
 24 22  1  0
M  END
$$$$
