QDS.pdb
     RDKit          3D

 24 23  0  0  1  0  0  0  0  0999 V2000
    7.1088  -12.7934   16.4707 N   0  0  0  0  0  0  0  0  0  0  0  0
    7.4780  -13.8753   15.6091 C   0  0  0  0  0  0  0  0  0  0  0  0
    7.1274  -13.8090   14.3957 O   0  0  0  0  0  0  0  0  0  0  0  0
    8.2369  -14.9961   16.1682 C   0  0  0  0  0  0  0  0  0  0  0  0
    8.4888  -14.9532   17.6306 C   0  0  0  0  0  0  0  0  0  0  0  0
    9.9317  -14.9888   18.0463 C   0  0  2  0  0  0  0  0  0  0  0  0
   10.7306  -15.4364   16.9496 N   0  0  0  0  0  0  0  0  0  0  0  0
   10.0492  -15.8787   19.2342 C   0  0  0  0  0  0  0  0  0  0  0  0
    9.3472  -15.7540   20.2658 O   0  0  0  0  0  0  0  0  0  0  0  0
   10.9982  -16.9308   19.2270 N   0  0  0  0  0  0  0  0  0  0  0  0
   11.3438  -17.7293   20.3714 C   0  0  1  0  0  0  0  0  0  0  0  0
   12.5447  -18.5425   20.0871 C   0  0  0  0  0  0  0  0  0  0  0  0
   12.8438  -19.4609   21.2031 C   0  0  0  0  0  0  0  0  0  0  0  0
   11.9380  -20.1610   21.6876 O   0  0  0  0  0  0  0  0  0  0  0  0
   11.3498  -16.9701   21.6304 C   0  0  0  0  0  0  0  0  0  0  0  0
   12.1835  -16.0149   21.7281 O   0  0  0  0  0  0  0  0  0  0  0  0
   14.1194  -19.5477   21.7114 O   0  0  0  0  0  0  0  0  0  0  0  0
    9.0528  -14.8106   23.1071 O   0  0  0  0  0  0  0  0  0  0  0  0
    9.2382  -15.7573   24.1300 C   0  0  0  0  0  0  0  0  0  0  0  0
   10.5687  -16.4635   23.9767 C   0  0  2  0  0  0  0  0  0  0  0  0
   10.5009  -17.2206   22.7379 N   0  0  0  0  0  0  0  0  0  0  0  0
   10.9410  -17.2743   25.1372 C   0  0  0  0  0  0  0  0  0  0  0  0
   11.1157  -18.5205   25.0626 O   0  0  0  0  0  0  0  0  0  0  0  0
   11.1140  -16.6781   26.3730 O   0  0  0  0  0  0  0  0  0  0  0  0
  2  1  1  0
  2  3  2  0
  4  2  1  0
  5  6  1  0
  5  4  1  0
  6  7  1  6
  8 10  1  0
  8  6  1  0
  9  8  2  0
 11 10  1  0
 11 12  1  6
 12 13  1  0
 13 17  1  0
 14 13  2  0
 15 11  1  0
 16 15  2  0
 19 18  1  0
 20 21  1  0
 20 19  1  1
 21 15  1  0
 22 20  1  0
 23 22  2  0
 24 22  1  0
M  END
$$$$
