QDS.pdb
     RDKit          3D

 24 23  0  0  1  0  0  0  0  0999 V2000
    7.6744  -19.3970   11.5776 N   0  0  0  0  0  0  0  0  0  0  0  0
    8.6507  -18.5202   11.0054 C   0  0  0  0  0  0  0  0  0  0  0  0
    8.2411  -17.4477   10.4747 O   0  0  0  0  0  0  0  0  0  0  0  0
   10.0631  -18.9030   11.0616 C   0  0  0  0  0  0  0  0  0  0  0  0
   10.7660  -18.6313   12.3407 C   0  0  0  0  0  0  0  0  0  0  0  0
   12.2123  -19.0337   12.3896 C   0  0  2  0  0  0  0  0  0  0  0  0
   12.5210  -19.8344   11.2473 N   0  0  0  0  0  0  0  0  0  0  0  0
   12.4485  -19.7565   13.6697 C   0  0  0  0  0  0  0  0  0  0  0  0
   11.5453  -20.0007   14.5047 O   0  0  0  0  0  0  0  0  0  0  0  0
   13.7549  -20.2029   13.9884 N   0  0  0  0  0  0  0  0  0  0  0  0
   14.0927  -20.9867   15.1452 C   0  0  1  0  0  0  0  0  0  0  0  0
   15.1707  -21.9442   14.8205 C   0  0  0  0  0  0  0  0  0  0  0  0
   15.3966  -22.8901   15.9308 C   0  0  0  0  0  0  0  0  0  0  0  0
   14.5187  -23.0484   16.7966 O   0  0  0  0  0  0  0  0  0  0  0  0
   14.2768  -20.1806   16.3609 C   0  0  0  0  0  0  0  0  0  0  0  0
   14.8901  -19.0737   16.2359 O   0  0  0  0  0  0  0  0  0  0  0  0
   16.5731  -23.5986   16.0141 O   0  0  0  0  0  0  0  0  0  0  0  0
   11.5780  -19.2779   18.9334 O   0  0  0  0  0  0  0  0  0  0  0  0
   12.6764  -19.8289   19.6166 C   0  0  0  0  0  0  0  0  0  0  0  0
   13.9483  -19.6690   18.8108 C   0  0  2  0  0  0  0  0  0  0  0  0
   13.8246  -20.5416   17.6552 N   0  0  0  0  0  0  0  0  0  0  0  0
   15.1684  -19.8966   19.5869 C   0  0  0  0  0  0  0  0  0  0  0  0
   15.4541  -19.2187   20.6107 O   0  0  0  0  0  0  0  0  0  0  0  0
   16.0582  -20.8846   19.2065 O   0  0  0  0  0  0  0  0  0  0  0  0
  2  1  1  0
  2  3  2  0
  4  2  1  0
  5  6  1  0
  5  4  1  0
  6  7  1  6
  8 10  1  0
  8  6  1  0
  9  8  2  0
 11 10  1  0
 11 12  1  6
 12 13  1  0
 13 17  1  0
 14 13  2  0
 15 11  1  0
 16 15  2  0
 19 18  1  0
 20 21  1  0
 20 19  1  1
 21 15  1  0
 22 20  1  0
 23 22  2  0
 24 22  1  0
M  END
$$$$
