QDS.pdb
     RDKit          3D

 24 23  0  0  1  0  0  0  0  0999 V2000
    9.0208  -11.5404   18.8611 N   0  0  0  0  0  0  0  0  0  0  0  0
    8.4156  -12.5790   19.6385 C   0  0  0  0  0  0  0  0  0  0  0  0
    7.7212  -12.2382   20.6392 O   0  0  0  0  0  0  0  0  0  0  0  0
    8.6269  -13.9727   19.2416 C   0  0  0  0  0  0  0  0  0  0  0  0
    9.4922  -14.1931   18.0556 C   0  0  0  0  0  0  0  0  0  0  0  0
    9.6968  -15.6258   17.6533 C   0  0  2  0  0  0  0  0  0  0  0  0
    8.4591  -16.1704   17.1920 N   0  0  0  0  0  0  0  0  0  0  0  0
   10.2387  -16.3633   18.8277 C   0  0  0  0  0  0  0  0  0  0  0  0
    9.5361  -17.0770   19.5825 O   0  0  0  0  0  0  0  0  0  0  0  0
   11.6191  -16.2710   19.1336 N   0  0  0  0  0  0  0  0  0  0  0  0
   12.2809  -17.0221   20.1653 C   0  0  1  0  0  0  0  0  0  0  0  0
   13.7162  -17.1764   19.8486 C   0  0  0  0  0  0  0  0  0  0  0  0
   14.3713  -18.1124   20.7830 C   0  0  0  0  0  0  0  0  0  0  0  0
   13.9293  -19.2670   20.9130 O   0  0  0  0  0  0  0  0  0  0  0  0
   11.9557  -16.5587   21.5221 C   0  0  0  0  0  0  0  0  0  0  0  0
   12.4063  -15.4219   21.8707 O   0  0  0  0  0  0  0  0  0  0  0  0
   15.4689  -17.7157   21.5116 O   0  0  0  0  0  0  0  0  0  0  0  0
    8.7120  -16.1300   23.1122 O   0  0  0  0  0  0  0  0  0  0  0  0
    9.4238  -16.9189   24.0330 C   0  0  0  0  0  0  0  0  0  0  0  0
   10.9162  -16.7937   23.8104 C   0  0  2  0  0  0  0  0  0  0  0  0
   11.1815  -17.2791   22.4664 N   0  0  0  0  0  0  0  0  0  0  0  0
   11.7214  -17.4535   24.8395 C   0  0  0  0  0  0  0  0  0  0  0  0
   12.5427  -18.3710   24.5694 O   0  0  0  0  0  0  0  0  0  0  0  0
   11.5974  -17.0772   26.1644 O   0  0  0  0  0  0  0  0  0  0  0  0
  2  1  1  0
  2  3  2  0
  4  2  1  0
  5  6  1  0
  5  4  1  0
  6  7  1  1
  8 10  1  0
  8  6  1  0
  9  8  2  0
 11 10  1  0
 11 12  1  6
 12 13  1  0
 13 17  1  0
 14 13  2  0
 15 11  1  0
 16 15  2  0
 19 18  1  0
 20 21  1  0
 20 19  1  1
 21 15  1  0
 22 20  1  0
 23 22  2  0
 24 22  1  0
M  END
$$$$
