QDS.pdb
     RDKit          3D

 24 23  0  0  1  0  0  0  0  0999 V2000
    5.5280  -19.1174   17.3413 N   0  0  0  0  0  0  0  0  0  0  0  0
    6.5558  -18.8464   16.3824 C   0  0  0  0  0  0  0  0  0  0  0  0
    6.3111  -19.1007   15.1678 O   0  0  0  0  0  0  0  0  0  0  0  0
    7.8288  -18.2929   16.8489 C   0  0  0  0  0  0  0  0  0  0  0  0
    7.9833  -18.1511   18.3186 C   0  0  0  0  0  0  0  0  0  0  0  0
    8.7844  -16.9674   18.7801 C   0  0  2  0  0  0  0  0  0  0  0  0
    9.5542  -16.4606   17.6884 N   0  0  0  0  0  0  0  0  0  0  0  0
    9.6361  -17.4017   19.9216 C   0  0  0  0  0  0  0  0  0  0  0  0
    9.1831  -17.9453   20.9569 O   0  0  0  0  0  0  0  0  0  0  0  0
   11.0375  -17.2011   19.8627 N   0  0  0  0  0  0  0  0  0  0  0  0
   11.9665  -17.6109   20.8803 C   0  0  1  0  0  0  0  0  0  0  0  0
   13.3278  -17.7276   20.3168 C   0  0  0  0  0  0  0  0  0  0  0  0
   14.2636  -18.3103   21.2982 C   0  0  0  0  0  0  0  0  0  0  0  0
   13.8231  -18.9585   22.2632 O   0  0  0  0  0  0  0  0  0  0  0  0
   11.8378  -16.8447   22.1284 C   0  0  0  0  0  0  0  0  0  0  0  0
   12.4746  -15.7466   22.2037 O   0  0  0  0  0  0  0  0  0  0  0  0
   15.6211  -18.1411   21.1522 O   0  0  0  0  0  0  0  0  0  0  0  0
    8.6127  -16.2831   24.3996 O   0  0  0  0  0  0  0  0  0  0  0  0
    9.8119  -15.5496   24.3766 C   0  0  0  0  0  0  0  0  0  0  0  0
   11.0095  -16.4699   24.4833 C   0  0  2  0  0  0  0  0  0  0  0  0
   11.0613  -17.2348   23.2487 N   0  0  0  0  0  0  0  0  0  0  0  0
   11.0053  -17.3028   25.6870 C   0  0  0  0  0  0  0  0  0  0  0  0
   10.6993  -18.5255   25.6613 O   0  0  0  0  0  0  0  0  0  0  0  0
   11.3450  -16.7552   26.9106 O   0  0  0  0  0  0  0  0  0  0  0  0
  2  1  1  0
  2  3  2  0
  4  2  1  0
  5  6  1  0
  5  4  1  0
  6  7  1  6
  8 10  1  0
  8  6  1  0
  9  8  2  0
 11 10  1  0
 11 12  1  6
 12 13  1  0
 13 17  1  0
 14 13  2  0
 15 11  1  0
 16 15  2  0
 19 18  1  0
 20 21  1  0
 20 19  1  6
 21 15  1  0
 22 20  1  0
 23 22  2  0
 24 22  1  0
M  END
$$$$
