QDS.pdb
     RDKit          3D

 24 23  0  0  1  0  0  0  0  0999 V2000
    7.2301  -13.1141   15.7272 N   0  0  0  0  0  0  0  0  0  0  0  0
    7.5595  -14.3460   15.0768 C   0  0  0  0  0  0  0  0  0  0  0  0
    6.8333  -14.7145   14.1089 O   0  0  0  0  0  0  0  0  0  0  0  0
    8.7103  -15.1132   15.5581 C   0  0  0  0  0  0  0  0  0  0  0  0
    8.5994  -15.6717   16.9291 C   0  0  0  0  0  0  0  0  0  0  0  0
    9.3240  -14.9132   18.0042 C   0  0  2  0  0  0  0  0  0  0  0  0
   10.4741  -14.2775   17.4435 N   0  0  0  0  0  0  0  0  0  0  0  0
    9.6770  -15.8708   19.0883 C   0  0  0  0  0  0  0  0  0  0  0  0
    8.8435  -16.6223   19.6480 O   0  0  0  0  0  0  0  0  0  0  0  0
   11.0196  -15.9580   19.5327 N   0  0  0  0  0  0  0  0  0  0  0  0
   11.4595  -16.7312   20.6620 C   0  0  1  0  0  0  0  0  0  0  0  0
   12.8314  -17.2332   20.4383 C   0  0  0  0  0  0  0  0  0  0  0  0
   13.2958  -18.0443   21.5805 C   0  0  0  0  0  0  0  0  0  0  0  0
   14.2592  -17.6560   22.2635 O   0  0  0  0  0  0  0  0  0  0  0  0
   11.2049  -16.0737   21.9521 C   0  0  0  0  0  0  0  0  0  0  0  0
   12.0966  -15.2761   22.3830 O   0  0  0  0  0  0  0  0  0  0  0  0
   12.6692  -19.2281   21.8950 O   0  0  0  0  0  0  0  0  0  0  0  0
    7.4687  -15.6834   23.7377 O   0  0  0  0  0  0  0  0  0  0  0  0
    8.5642  -14.8252   23.9385 C   0  0  0  0  0  0  0  0  0  0  0  0
    9.8548  -15.6112   24.0343 C   0  0  2  0  0  0  0  0  0  0  0  0
   10.0465  -16.2601   22.7480 N   0  0  0  0  0  0  0  0  0  0  0  0
    9.8967  -16.5367   25.1676 C   0  0  0  0  0  0  0  0  0  0  0  0
    9.9692  -17.7862   25.0170 O   0  0  0  0  0  0  0  0  0  0  0  0
    9.8567  -16.0507   26.4617 O   0  0  0  0  0  0  0  0  0  0  0  0
  2  1  1  0
  2  3  2  0
  4  2  1  0
  5  6  1  0
  5  4  1  0
  6  7  1  6
  8 10  1  0
  8  6  1  0
  9  8  2  0
 11 10  1  0
 11 12  1  6
 12 13  1  0
 13 17  1  0
 14 13  2  0
 15 11  1  0
 16 15  2  0
 19 18  1  0
 20 21  1  0
 20 19  1  6
 21 15  1  0
 22 20  1  0
 23 22  2  0
 24 22  1  0
M  END
$$$$
