QDS.pdb
     RDKit          3D

 24 23  0  0  1  0  0  0  0  0999 V2000
    8.7262  -12.4446   17.3648 N   0  0  0  0  0  0  0  0  0  0  0  0
    7.4832  -12.7557   18.0031 C   0  0  0  0  0  0  0  0  0  0  0  0
    6.4446  -12.1618   17.5926 O   0  0  0  0  0  0  0  0  0  0  0  0
    7.4736  -13.7372   19.0899 C   0  0  0  0  0  0  0  0  0  0  0  0
    8.7939  -14.2839   19.4918 C   0  0  0  0  0  0  0  0  0  0  0  0
    9.5170  -15.0817   18.4445 C   0  0  2  0  0  0  0  0  0  0  0  0
    8.6914  -16.1685   18.0218 N   0  0  0  0  0  0  0  0  0  0  0  0
   10.8089  -15.5425   19.0238 C   0  0  0  0  0  0  0  0  0  0  0  0
   10.9273  -16.5828   19.7139 O   0  0  0  0  0  0  0  0  0  0  0  0
   11.9842  -14.7832   18.8004 N   0  0  0  0  0  0  0  0  0  0  0  0
   13.2764  -15.0949   19.3478 C   0  0  1  0  0  0  0  0  0  0  0  0
   14.3138  -14.2374   18.7372 C   0  0  0  0  0  0  0  0  0  0  0  0
   15.6681  -14.7365   19.0454 C   0  0  0  0  0  0  0  0  0  0  0  0
   15.8135  -15.6755   19.8470 O   0  0  0  0  0  0  0  0  0  0  0  0
   13.2807  -15.1839   20.8153 C   0  0  0  0  0  0  0  0  0  0  0  0
   13.4473  -14.1018   21.4619 O   0  0  0  0  0  0  0  0  0  0  0  0
   16.7718  -14.1693   18.4512 O   0  0  0  0  0  0  0  0  0  0  0  0
   11.3505  -16.6321   24.7338 O   0  0  0  0  0  0  0  0  0  0  0  0
   11.5468  -16.5858   23.3424 C   0  0  0  0  0  0  0  0  0  0  0  0
   13.0125  -16.4017   23.0101 C   0  0  2  0  0  0  0  0  0  0  0  0
   13.1137  -16.3785   21.5604 N   0  0  0  0  0  0  0  0  0  0  0  0
   13.8871  -17.3915   23.6410 C   0  0  0  0  0  0  0  0  0  0  0  0
   14.3875  -18.3560   23.0017 O   0  0  0  0  0  0  0  0  0  0  0  0
   14.1927  -17.2899   24.9860 O   0  0  0  0  0  0  0  0  0  0  0  0
  2  1  1  0
  2  3  2  0
  4  2  1  0
  5  6  1  0
  5  4  1  0
  6  7  1  1
  8 10  1  0
  8  6  1  0
  9  8  2  0
 11 10  1  0
 11 12  1  1
 12 13  1  0
 13 17  1  0
 14 13  2  0
 15 11  1  0
 16 15  2  0
 19 18  1  0
 20 21  1  0
 20 19  1  6
 21 15  1  0
 22 20  1  0
 23 22  2  0
 24 22  1  0
M  END
$$$$
