QDS.pdb
     RDKit          3D

 24 23  0  0  1  0  0  0  0  0999 V2000
   16.4438  -21.5251   12.9115 N   0  0  0  0  0  0  0  0  0  0  0  0
   15.0739  -21.2400   13.2137 C   0  0  0  0  0  0  0  0  0  0  0  0
   14.1856  -21.9148   12.6174 O   0  0  0  0  0  0  0  0  0  0  0  0
   14.7693  -20.1914   14.1895 C   0  0  0  0  0  0  0  0  0  0  0  0
   15.9276  -19.4207   14.7074 C   0  0  0  0  0  0  0  0  0  0  0  0
   15.6379  -18.5005   15.8586 C   0  0  2  0  0  0  0  0  0  0  0  0
   15.6517  -17.1475   15.3997 N   0  0  0  0  0  0  0  0  0  0  0  0
   16.6538  -18.7507   16.9180 C   0  0  0  0  0  0  0  0  0  0  0  0
   16.7774  -19.8465   17.5150 O   0  0  0  0  0  0  0  0  0  0  0  0
   17.5414  -17.7118   17.2931 N   0  0  0  0  0  0  0  0  0  0  0  0
   18.5742  -17.8360   18.2854 C   0  0  1  0  0  0  0  0  0  0  0  0
   19.7818  -17.0944   17.8660 C   0  0  0  0  0  0  0  0  0  0  0  0
   20.9029  -17.3303   18.7966 C   0  0  0  0  0  0  0  0  0  0  0  0
   20.8563  -18.2850   19.5914 O   0  0  0  0  0  0  0  0  0  0  0  0
   18.0979  -17.5917   19.6547 C   0  0  0  0  0  0  0  0  0  0  0  0
   17.5180  -16.4823   19.8781 O   0  0  0  0  0  0  0  0  0  0  0  0
   22.0001  -16.5003   18.7902 O   0  0  0  0  0  0  0  0  0  0  0  0
   16.6110  -20.3075   22.3516 O   0  0  0  0  0  0  0  0  0  0  0  0
   16.4218  -18.9202   22.2237 C   0  0  0  0  0  0  0  0  0  0  0  0
   17.7489  -18.2059   22.0781 C   0  0  2  0  0  0  0  0  0  0  0  0
   18.2352  -18.4944   20.7392 N   0  0  0  0  0  0  0  0  0  0  0  0
   18.7108  -18.5321   23.1320 C   0  0  0  0  0  0  0  0  0  0  0  0
   18.5099  -18.2439   24.3428 O   0  0  0  0  0  0  0  0  0  0  0  0
   19.8915  -19.1798   22.8173 O   0  0  0  0  0  0  0  0  0  0  0  0
  2  1  1  0
  2  3  2  0
  4  2  1  0
  5  6  1  0
  5  4  1  0
  6  7  1  6
  8 10  1  0
  8  6  1  0
  9  8  2  0
 11 10  1  0
 11 12  1  6
 12 13  1  0
 13 17  1  0
 14 13  2  0
 15 11  1  0
 16 15  2  0
 19 18  1  0
 20 21  1  0
 20 19  1  1
 21 15  1  0
 22 20  1  0
 23 22  2  0
 24 22  1  0
M  END
$$$$
