QDS.pdb
     RDKit          3D

 24 23  0  0  1  0  0  0  0  0999 V2000
    8.5696  -11.4564   19.4632 N   0  0  0  0  0  0  0  0  0  0  0  0
    8.3614  -12.7369   20.0683 C   0  0  0  0  0  0  0  0  0  0  0  0
    7.8839  -12.7654   21.2392 O   0  0  0  0  0  0  0  0  0  0  0  0
    8.7074  -13.9410   19.3100 C   0  0  0  0  0  0  0  0  0  0  0  0
    9.2540  -13.7235   17.9470 C   0  0  0  0  0  0  0  0  0  0  0  0
    9.7369  -14.9534   17.2327 C   0  0  2  0  0  0  0  0  0  0  0  0
    8.6227  -15.6316   16.6495 N   0  0  0  0  0  0  0  0  0  0  0  0
   10.4672  -15.8019   18.2143 C   0  0  0  0  0  0  0  0  0  0  0  0
    9.9679  -16.8126   18.7636 O   0  0  0  0  0  0  0  0  0  0  0  0
   11.7995  -15.4723   18.5665 N   0  0  0  0  0  0  0  0  0  0  0  0
   12.6088  -16.2155   19.4935 C   0  0  1  0  0  0  0  0  0  0  0  0
   14.0304  -16.1614   19.0930 C   0  0  0  0  0  0  0  0  0  0  0  0
   14.3135  -17.1121   18.0001 C   0  0  0  0  0  0  0  0  0  0  0  0
   13.9158  -18.2869   18.0840 O   0  0  0  0  0  0  0  0  0  0  0  0
   12.3126  -15.9088   20.9005 C   0  0  0  0  0  0  0  0  0  0  0  0
   12.7337  -14.7977   21.3534 O   0  0  0  0  0  0  0  0  0  0  0  0
   15.0150  -16.7066   16.8882 O   0  0  0  0  0  0  0  0  0  0  0  0
    9.0536  -16.0036   22.6036 O   0  0  0  0  0  0  0  0  0  0  0  0
    9.8983  -16.7359   23.4563 C   0  0  0  0  0  0  0  0  0  0  0  0
   11.3523  -16.4174   23.1789 C   0  0  2  0  0  0  0  0  0  0  0  0
   11.5964  -16.7531   21.7861 N   0  0  0  0  0  0  0  0  0  0  0  0
   12.2827  -17.0622   24.1070 C   0  0  0  0  0  0  0  0  0  0  0  0
   13.1964  -17.8385   23.7172 O   0  0  0  0  0  0  0  0  0  0  0  0
   12.1792  -16.8296   25.4663 O   0  0  0  0  0  0  0  0  0  0  0  0
  2  1  1  0
  2  3  2  0
  4  2  1  0
  5  6  1  0
  5  4  1  0
  6  7  1  1
  8 10  1  0
  8  6  1  0
  9  8  2  0
 11 10  1  0
 11 12  1  6
 12 13  1  0
 13 17  1  0
 14 13  2  0
 15 11  1  0
 16 15  2  0
 19 18  1  0
 20 21  1  0
 20 19  1  1
 21 15  1  0
 22 20  1  0
 23 22  2  0
 24 22  1  0
M  END
$$$$
