QDS.pdb
     RDKit          3D

 24 23  0  0  1  0  0  0  0  0999 V2000
    6.6421  -12.5322   18.2087 N   0  0  0  0  0  0  0  0  0  0  0  0
    7.5860  -13.4400   17.6306 C   0  0  0  0  0  0  0  0  0  0  0  0
    7.3386  -13.8914   16.4752 O   0  0  0  0  0  0  0  0  0  0  0  0
    8.7813  -13.7989   18.3967 C   0  0  0  0  0  0  0  0  0  0  0  0
    8.9466  -13.1243   19.7087 C   0  0  0  0  0  0  0  0  0  0  0  0
   10.1980  -13.4661   20.4660 C   0  0  2  0  0  0  0  0  0  0  0  0
   11.3095  -13.4707   19.5684 N   0  0  0  0  0  0  0  0  0  0  0  0
    9.9946  -14.7861   21.1241 C   0  0  0  0  0  0  0  0  0  0  0  0
    8.9962  -15.0617   21.8311 O   0  0  0  0  0  0  0  0  0  0  0  0
   10.9664  -15.8043   20.9611 N   0  0  0  0  0  0  0  0  0  0  0  0
   10.8152  -17.1603   21.4140 C   0  0  1  0  0  0  0  0  0  0  0  0
   11.7169  -18.0572   20.6613 C   0  0  0  0  0  0  0  0  0  0  0  0
   11.2431  -18.2513   19.2770 C   0  0  0  0  0  0  0  0  0  0  0  0
   10.0273  -18.3792   19.0519 O   0  0  0  0  0  0  0  0  0  0  0  0
   10.8345  -17.2903   22.8783 C   0  0  0  0  0  0  0  0  0  0  0  0
   11.6858  -16.5899   23.5120 O   0  0  0  0  0  0  0  0  0  0  0  0
   12.1385  -18.2917   18.2332 O   0  0  0  0  0  0  0  0  0  0  0  0
    7.9255  -19.3397   24.9759 O   0  0  0  0  0  0  0  0  0  0  0  0
    8.6649  -18.3258   25.6100 C   0  0  0  0  0  0  0  0  0  0  0  0
   10.0811  -18.2766   25.0764 C   0  0  2  0  0  0  0  0  0  0  0  0
    9.9803  -18.1328   23.6337 N   0  0  0  0  0  0  0  0  0  0  0  0
   10.9064  -19.4109   25.4943 C   0  0  0  0  0  0  0  0  0  0  0  0
   11.3211  -20.2805   24.6811 O   0  0  0  0  0  0  0  0  0  0  0  0
   11.2596  -19.5595   26.8231 O   0  0  0  0  0  0  0  0  0  0  0  0
  2  1  1  0
  2  3  2  0
  4  2  1  0
  5  6  1  0
  5  4  1  0
  6  7  1  6
  8 10  1  0
  8  6  1  0
  9  8  2  0
 11 10  1  0
 11 12  1  6
 12 13  1  0
 13 17  1  0
 14 13  2  0
 15 11  1  0
 16 15  2  0
 19 18  1  0
 20 21  1  0
 20 19  1  6
 21 15  1  0
 22 20  1  0
 23 22  2  0
 24 22  1  0
M  END
$$$$
