QDS.pdb
     RDKit          3D

 24 23  0  0  1  0  0  0  0  0999 V2000
    8.6412  -13.6769   15.9159 N   0  0  0  0  0  0  0  0  0  0  0  0
    7.6555  -14.6219   16.3454 C   0  0  0  0  0  0  0  0  0  0  0  0
    7.2441  -15.4696   15.5017 O   0  0  0  0  0  0  0  0  0  0  0  0
    7.1755  -14.5629   17.7277 C   0  0  0  0  0  0  0  0  0  0  0  0
    7.6856  -13.4384   18.5518 C   0  0  0  0  0  0  0  0  0  0  0  0
    9.1126  -13.5557   19.0058 C   0  0  2  0  0  0  0  0  0  0  0  0
    9.9640  -13.6848   17.8657 N   0  0  0  0  0  0  0  0  0  0  0  0
    9.2117  -14.7242   19.9232 C   0  0  0  0  0  0  0  0  0  0  0  0
    8.3008  -15.0621   20.7162 O   0  0  0  0  0  0  0  0  0  0  0  0
   10.3880  -15.5141   19.9227 N   0  0  0  0  0  0  0  0  0  0  0  0
   10.6241  -16.6313   20.7961 C   0  0  1  0  0  0  0  0  0  0  0  0
   11.7053  -17.4840   20.2593 C   0  0  0  0  0  0  0  0  0  0  0  0
   11.2782  -18.1744   19.0266 C   0  0  0  0  0  0  0  0  0  0  0  0
   10.0953  -18.5342   18.8976 O   0  0  0  0  0  0  0  0  0  0  0  0
   10.7322  -16.2504   22.2120 C   0  0  0  0  0  0  0  0  0  0  0  0
   11.7417  -15.5551   22.5505 O   0  0  0  0  0  0  0  0  0  0  0  0
   12.1810  -18.4226   18.0185 O   0  0  0  0  0  0  0  0  0  0  0  0
    8.1705  -14.6759   24.3284 O   0  0  0  0  0  0  0  0  0  0  0  0
    8.6338  -15.7443   25.1163 C   0  0  0  0  0  0  0  0  0  0  0  0
    9.9768  -16.2376   24.6205 C   0  0  2  0  0  0  0  0  0  0  0  0
    9.8012  -16.5973   23.2234 N   0  0  0  0  0  0  0  0  0  0  0  0
   10.5445  -17.3139   25.4340 C   0  0  0  0  0  0  0  0  0  0  0  0
   10.8109  -18.4509   24.9592 O   0  0  0  0  0  0  0  0  0  0  0  0
   10.8084  -17.1043   26.7753 O   0  0  0  0  0  0  0  0  0  0  0  0
  2  1  1  0
  2  3  2  0
  4  2  1  0
  5  6  1  0
  5  4  1  0
  6  7  1  6
  8 10  1  0
  8  6  1  0
  9  8  2  0
 11 10  1  0
 11 12  1  6
 12 13  1  0
 13 17  1  0
 14 13  2  0
 15 11  1  0
 16 15  2  0
 19 18  1  0
 20 21  1  0
 20 19  1  1
 21 15  1  0
 22 20  1  0
 23 22  2  0
 24 22  1  0
M  END
$$$$
