DRT.pdb
     RDKit          3D

 27 26  0  0  1  0  0  0  0  0999 V2000
   11.9785  -18.7874   21.1812 N   0  0  0  0  0  0  0  0  0  0  0  0
   12.9092  -17.7124   21.4515 C   0  0  1  0  0  0  0  0  0  0  0  0
   13.3835  -17.1253   20.1454 C   0  0  0  0  0  0  0  0  0  0  0  0
   14.8344  -17.3905   19.9683 C   0  0  0  0  0  0  0  0  0  0  0  0
   15.2367  -18.5921   19.8369 O   0  0  0  0  0  0  0  0  0  0  0  0
   12.3314  -16.6877   22.3527 C   0  0  0  0  0  0  0  0  0  0  0  0
   13.0563  -15.7742   22.8614 O   0  0  0  0  0  0  0  0  0  0  0  0
   15.7871  -16.4109   19.9361 O   0  0  0  0  0  0  0  0  0  0  0  0
    7.7158  -13.1228   18.4628 N   0  0  0  0  0  0  0  0  0  0  0  0
    7.5160  -13.2013   19.8571 C   0  0  0  0  0  0  0  0  0  0  0  0
    7.8811  -12.2593   20.6736 N   0  0  0  0  0  0  0  0  0  0  0  0
    6.8885  -14.3558   20.4103 N   0  0  0  0  0  0  0  0  0  0  0  0
    7.1518  -14.7758   21.7841 C   0  0  0  0  0  0  0  0  0  0  0  0
    8.6519  -14.9094   21.9432 C   0  0  0  0  0  0  0  0  0  0  0  0
    8.9175  -15.4232   23.3364 C   0  0  0  0  0  0  0  0  0  0  0  0
   10.3814  -15.6744   23.5923 C   0  0  2  0  0  0  0  0  0  0  0  0
   10.9567  -16.6493   22.7079 N   0  0  0  0  0  0  0  0  0  0  0  0
   10.5183  -16.1203   24.9955 C   0  0  0  0  0  0  0  0  0  0  0  0
   10.6216  -17.3640   25.2419 O   0  0  0  0  0  0  0  0  0  0  0  0
    7.7642  -12.3380   21.6910 C   0  0  0  0  0  0  0  0  0  0  0  0
    9.5859  -13.6876   28.3826 C   0  0  2  0  0  0  0  0  0  0  0  0
   10.8340  -14.5086   28.4038 O   0  0  0  0  0  0  0  0  0  0  0  0
   11.0746  -15.0136   29.6738 C   0  0  1  0  0  0  0  0  0  0  0  0
   10.7758  -15.6736   27.4388 N   0  0  0  0  0  0  0  0  0  0  0  0
   10.5410  -15.2278   26.0951 C   0  0  0  0  0  0  0  0  0  0  0  0
    9.7064  -16.5753   27.8887 O   0  0  0  0  0  0  0  0  0  0  0  0
    9.8934  -17.4158   28.9708 O   0  0  0  0  0  0  0  0  0  0  0  0
  2  1  1  6
  3  2  1  0
  3  4  1  0
  4  5  2  0
  4  8  1  0
  6  7  2  0
  6  2  1  0
  9 10  1  0
 10 12  1  0
 11 10  2  0
 12 13  1  0
 14 13  1  0
 15 14  1  0
 16 15  1  6
 16 17  1  0
 17  6  1  0
 18 16  1  0
 18 19  2  0
 21 20  1  1
 21 22  1  0
 21 23  1  0
 23 25  1  0
 23 24  1  6
 24 18  1  0
 25 26  1  0
 27 25  2  0
M  END
$$$$
