DRT.pdb
     RDKit          3D

 27 26  0  0  1  0  0  0  0  0999 V2000
    9.0027  -17.4831   20.2899 N   0  0  0  0  0  0  0  0  0  0  0  0
    8.2713  -16.2343   20.2982 C   0  0  1  0  0  0  0  0  0  0  0  0
    7.2748  -16.2341   19.1658 C   0  0  0  0  0  0  0  0  0  0  0  0
    7.9871  -16.3128   17.8645 C   0  0  0  0  0  0  0  0  0  0  0  0
    9.2530  -16.4556   17.8547 O   0  0  0  0  0  0  0  0  0  0  0  0
    7.6334  -15.9702   21.6096 C   0  0  0  0  0  0  0  0  0  0  0  0
    6.8861  -14.9557   21.7857 O   0  0  0  0  0  0  0  0  0  0  0  0
    7.3621  -16.2408   16.6511 O   0  0  0  0  0  0  0  0  0  0  0  0
    5.6953  -21.4578   23.1382 N   0  0  0  0  0  0  0  0  0  0  0  0
    6.9797  -21.6437   23.6915 C   0  0  0  0  0  0  0  0  0  0  0  0
    7.8622  -22.4397   23.1674 N   0  0  0  0  0  0  0  0  0  0  0  0
    7.3407  -20.9361   24.8754 N   0  0  0  0  0  0  0  0  0  0  0  0
    6.4257  -19.9817   25.4959 C   0  0  0  0  0  0  0  0  0  0  0  0
    6.2589  -18.8188   24.5404 C   0  0  0  0  0  0  0  0  0  0  0  0
    7.2453  -17.7519   24.9459 C   0  0  0  0  0  0  0  0  0  0  0  0
    7.2167  -16.5569   24.0278 C   0  0  2  0  0  0  0  0  0  0  0  0
    7.8046  -16.8104   22.7419 N   0  0  0  0  0  0  0  0  0  0  0  0
    7.9360  -15.4570   24.7057 C   0  0  0  0  0  0  0  0  0  0  0  0
    9.1926  -15.3462   24.5414 O   0  0  0  0  0  0  0  0  0  0  0  0
    8.8028  -22.5544   23.5636 C   0  0  0  0  0  0  0  0  0  0  0  0
    6.8579  -11.4599   25.3963 C   0  0  2  0  0  0  0  0  0  0  0  0
    7.1432  -12.3145   26.5880 O   0  0  0  0  0  0  0  0  0  0  0  0
    5.9678  -12.7978   27.1453 C   0  0  2  0  0  0  0  0  0  0  0  0
    8.0248  -13.4985   26.2523 N   0  0  0  0  0  0  0  0  0  0  0  0
    7.2953  -14.5075   25.5387 C   0  0  0  0  0  0  0  0  0  0  0  0
    8.5614  -14.0297   27.5129 O   0  0  0  0  0  0  0  0  0  0  0  0
    9.3357  -13.2411   28.3442 O   0  0  0  0  0  0  0  0  0  0  0  0
  2  1  1  1
  3  2  1  0
  3  4  1  0
  4  5  2  0
  4  8  1  0
  6  7  2  0
  6  2  1  0
  9 10  1  0
 10 12  1  0
 11 10  2  0
 12 13  1  0
 14 13  1  0
 15 14  1  0
 16 15  1  1
 16 17  1  0
 17  6  1  0
 18 16  1  0
 18 19  2  0
 21 20  1  1
 21 22  1  0
 21 23  1  0
 23 25  1  0
 23 24  1  1
 24 18  1  0
 25 26  1  0
 27 25  2  0
M  END
$$$$
