DRT.pdb
     RDKit          3D

 27 26  0  0  1  0  0  0  0  0999 V2000
   10.4465  -14.8396   16.3852 N   0  0  0  0  0  0  0  0  0  0  0  0
    9.2107  -14.9873   17.1239 C   0  0  1  0  0  0  0  0  0  0  0  0
    8.2079  -15.7258   16.2729 C   0  0  0  0  0  0  0  0  0  0  0  0
    8.4674  -15.4557   14.8353 C   0  0  0  0  0  0  0  0  0  0  0  0
    9.5835  -14.9492   14.4880 O   0  0  0  0  0  0  0  0  0  0  0  0
    9.4213  -15.6381   18.4386 C   0  0  0  0  0  0  0  0  0  0  0  0
    8.4375  -15.9685   19.1747 O   0  0  0  0  0  0  0  0  0  0  0  0
    7.5698  -15.7198   13.8389 O   0  0  0  0  0  0  0  0  0  0  0  0
   15.4668  -14.0973   20.9871 N   0  0  0  0  0  0  0  0  0  0  0  0
   15.9765  -14.4811   19.7289 C   0  0  0  0  0  0  0  0  0  0  0  0
   16.7329  -13.7067   19.0110 N   0  0  0  0  0  0  0  0  0  0  0  0
   15.6579  -15.7695   19.2083 N   0  0  0  0  0  0  0  0  0  0  0  0
   14.7241  -16.6554   19.8985 C   0  0  0  0  0  0  0  0  0  0  0  0
   13.3344  -16.0776   19.7303 C   0  0  0  0  0  0  0  0  0  0  0  0
   12.3698  -17.0013   20.4316 C   0  0  0  0  0  0  0  0  0  0  0  0
   10.9304  -16.6132   20.2099 C   0  0  2  0  0  0  0  0  0  0  0  0
   10.7073  -15.9350   18.9634 N   0  0  0  0  0  0  0  0  0  0  0  0
   10.5238  -15.7473   21.3375 C   0  0  0  0  0  0  0  0  0  0  0  0
   11.1729  -14.6761   21.5600 O   0  0  0  0  0  0  0  0  0  0  0  0
   17.0705  -13.9780   18.0797 C   0  0  0  0  0  0  0  0  0  0  0  0
    7.7441  -13.5273   21.9815 C   0  0  2  0  0  0  0  0  0  0  0  0
    7.7127  -14.5611   23.0596 O   0  0  0  0  0  0  0  0  0  0  0  0
    6.8100  -15.5697   22.7541 C   0  0  2  0  0  0  0  0  0  0  0  0
    9.0670  -15.1973   23.2897 N   0  0  0  0  0  0  0  0  0  0  0  0
    9.4374  -16.0481   22.1949 C   0  0  0  0  0  0  0  0  0  0  0  0
    8.9982  -15.9561   24.5461 O   0  0  0  0  0  0  0  0  0  0  0  0
    9.0789  -17.3367   24.5481 O   0  0  0  0  0  0  0  0  0  0  0  0
  2  1  1  6
  3  2  1  0
  3  4  1  0
  4  5  2  0
  4  8  1  0
  6  7  2  0
  6  2  1  0
  9 10  1  0
 10 12  1  0
 11 10  2  0
 12 13  1  0
 14 13  1  0
 15 14  1  0
 16 15  1  1
 16 17  1  0
 17  6  1  0
 18 16  1  0
 18 19  2  0
 21 20  1  1
 21 22  1  0
 21 23  1  0
 23 25  1  0
 23 24  1  1
 24 18  1  0
 25 26  1  0
 27 25  2  0
M  END
$$$$
