DRT.pdb
     RDKit          3D

 27 26  0  0  1  0  0  0  0  0999 V2000
   12.0448  -19.0219   17.2584 N   0  0  0  0  0  0  0  0  0  0  0  0
   13.0801  -18.1745   17.8104 C   0  0  1  0  0  0  0  0  0  0  0  0
   13.6707  -17.3295   16.7092 C   0  0  0  0  0  0  0  0  0  0  0  0
   14.9622  -17.9115   16.2617 C   0  0  0  0  0  0  0  0  0  0  0  0
   15.8313  -17.1553   15.7181 O   0  0  0  0  0  0  0  0  0  0  0  0
   12.5866  -17.3575   18.9440 C   0  0  0  0  0  0  0  0  0  0  0  0
   13.3884  -16.6913   19.6735 O   0  0  0  0  0  0  0  0  0  0  0  0
   15.2874  -19.2322   16.3969 O   0  0  0  0  0  0  0  0  0  0  0  0
    7.9998  -13.6178   18.3845 N   0  0  0  0  0  0  0  0  0  0  0  0
    7.8926  -12.7716   19.5082 C   0  0  0  0  0  0  0  0  0  0  0  0
    8.2239  -11.5161   19.4768 N   0  0  0  0  0  0  0  0  0  0  0  0
    7.4018  -13.3003   20.7380 N   0  0  0  0  0  0  0  0  0  0  0  0
    7.3663  -14.7397   20.9829 C   0  0  0  0  0  0  0  0  0  0  0  0
    8.7734  -15.1808   21.3278 C   0  0  0  0  0  0  0  0  0  0  0  0
    9.2955  -15.9863   20.1642 C   0  0  0  0  0  0  0  0  0  0  0  0
   10.7135  -16.4531   20.3721 C   0  0  2  0  0  0  0  0  0  0  0  0
   11.2134  -17.2592   19.2932 N   0  0  0  0  0  0  0  0  0  0  0  0
   10.7493  -17.2198   21.6359 C   0  0  0  0  0  0  0  0  0  0  0  0
    9.9819  -18.2254   21.7712 O   0  0  0  0  0  0  0  0  0  0  0  0
    8.1000  -10.8946   20.2850 C   0  0  0  0  0  0  0  0  0  0  0  0
   13.0940  -18.2466   25.8990 C   0  0  1  0  0  0  0  0  0  0  0  0
   12.9238  -17.3565   24.7112 O   0  0  0  0  0  0  0  0  0  0  0  0
   14.0354  -17.4163   23.8827 C   0  0  1  0  0  0  0  0  0  0  0  0
   11.7054  -17.7174   23.8885 N   0  0  0  0  0  0  0  0  0  0  0  0
   11.6018  -16.8927   22.7187 C   0  0  0  0  0  0  0  0  0  0  0  0
   10.5230  -17.5636   24.7472 O   0  0  0  0  0  0  0  0  0  0  0  0
   10.0752  -18.6088   25.5343 O   0  0  0  0  0  0  0  0  0  0  0  0
  2  1  1  6
  3  2  1  0
  3  4  1  0
  4  5  2  0
  4  8  1  0
  6  7  2  0
  6  2  1  0
  9 10  1  0
 10 12  1  0
 11 10  2  0
 12 13  1  0
 14 13  1  0
 15 14  1  0
 16 15  1  6
 16 17  1  0
 17  6  1  0
 18 16  1  0
 18 19  2  0
 21 20  1  1
 21 22  1  0
 21 23  1  0
 23 25  1  0
 23 24  1  1
 24 18  1  0
 25 26  1  0
 27 25  2  0
M  END
$$$$
