DRT.pdb
     RDKit          3D

 27 26  0  0  1  0  0  0  0  0999 V2000
   13.8541  -14.6645   19.3381 N   0  0  0  0  0  0  0  0  0  0  0  0
   13.2602  -15.7654   20.0663 C   0  0  1  0  0  0  0  0  0  0  0  0
   14.3471  -16.7140   20.5069 C   0  0  0  0  0  0  0  0  0  0  0  0
   14.8804  -17.4531   19.3338 C   0  0  0  0  0  0  0  0  0  0  0  0
   14.5228  -17.1037   18.1621 O   0  0  0  0  0  0  0  0  0  0  0  0
   12.4262  -15.2994   21.1991 C   0  0  0  0  0  0  0  0  0  0  0  0
   12.8709  -14.4549   22.0405 O   0  0  0  0  0  0  0  0  0  0  0  0
   15.7476  -18.5053   19.4293 O   0  0  0  0  0  0  0  0  0  0  0  0
    7.7162  -11.9811   18.8959 N   0  0  0  0  0  0  0  0  0  0  0  0
    7.6556  -13.2822   18.3540 C   0  0  0  0  0  0  0  0  0  0  0  0
    8.2123  -13.5998   17.2243 N   0  0  0  0  0  0  0  0  0  0  0  0
    6.9581  -14.3037   19.0631 N   0  0  0  0  0  0  0  0  0  0  0  0
    7.0594  -14.4217   20.5153 C   0  0  0  0  0  0  0  0  0  0  0  0
    8.5211  -14.2828   20.8858 C   0  0  0  0  0  0  0  0  0  0  0  0
    8.7833  -15.2003   22.0541 C   0  0  0  0  0  0  0  0  0  0  0  0
   10.2369  -15.2319   22.4516 C   0  0  2  0  0  0  0  0  0  0  0  0
   11.0984  -15.7502   21.4255 N   0  0  0  0  0  0  0  0  0  0  0  0
   10.3473  -16.0599   23.6717 C   0  0  0  0  0  0  0  0  0  0  0  0
   10.6272  -17.2956   23.5572 O   0  0  0  0  0  0  0  0  0  0  0  0
    8.1819  -14.5541   16.8456 C   0  0  0  0  0  0  0  0  0  0  0  0
    9.0763  -14.6904   27.5379 C   0  0  2  0  0  0  0  0  0  0  0  0
   10.3156  -15.5148   27.4084 O   0  0  0  0  0  0  0  0  0  0  0  0
   10.4628  -16.3641   28.4959 C   0  0  1  0  0  0  0  0  0  0  0  0
   10.3202  -16.3576   26.1508 N   0  0  0  0  0  0  0  0  0  0  0  0
   10.1562  -15.5470   24.9780 C   0  0  0  0  0  0  0  0  0  0  0  0
    9.2350  -17.3415   26.2666 O   0  0  0  0  0  0  0  0  0  0  0  0
    9.3453  -18.4247   27.1192 O   0  0  0  0  0  0  0  0  0  0  0  0
  2  1  1  1
  3  2  1  0
  3  4  1  0
  4  5  2  0
  4  8  1  0
  6  7  2  0
  6  2  1  0
  9 10  1  0
 10 12  1  0
 11 10  2  0
 12 13  1  0
 14 13  1  0
 15 14  1  0
 16 15  1  6
 16 17  1  0
 17  6  1  0
 18 16  1  0
 18 19  2  0
 21 20  1  1
 21 22  1  0
 21 23  1  0
 23 25  1  0
 23 24  1  1
 24 18  1  0
 25 26  1  0
 27 25  2  0
M  END
$$$$
