DRT.pdb
     RDKit          3D

 27 26  0  0  1  0  0  0  0  0999 V2000
   12.0148  -18.2256   20.9074 N   0  0  0  0  0  0  0  0  0  0  0  0
   12.9695  -17.3728   21.5828 C   0  0  1  0  0  0  0  0  0  0  0  0
   13.7795  -16.6221   20.5553 C   0  0  0  0  0  0  0  0  0  0  0  0
   14.6925  -17.5570   19.8487 C   0  0  0  0  0  0  0  0  0  0  0  0
   14.8207  -18.7485   20.2808 O   0  0  0  0  0  0  0  0  0  0  0  0
   12.3166  -16.4666   22.5568 C   0  0  0  0  0  0  0  0  0  0  0  0
   12.9450  -15.4845   23.0660 O   0  0  0  0  0  0  0  0  0  0  0  0
   15.4197  -17.2173   18.7423 O   0  0  0  0  0  0  0  0  0  0  0  0
    8.2740  -14.9977   19.2986 N   0  0  0  0  0  0  0  0  0  0  0  0
    7.7197  -13.7581   19.6812 C   0  0  0  0  0  0  0  0  0  0  0  0
    7.8694  -12.6749   18.9802 N   0  0  0  0  0  0  0  0  0  0  0  0
    6.9603  -13.6729   20.8849 N   0  0  0  0  0  0  0  0  0  0  0  0
    7.1675  -14.6174   21.9794 C   0  0  0  0  0  0  0  0  0  0  0  0
    8.6352  -14.5747   22.3502 C   0  0  0  0  0  0  0  0  0  0  0  0
    8.8381  -15.5148   23.5124 C   0  0  0  0  0  0  0  0  0  0  0  0
   10.2931  -15.7047   23.8571 C   0  0  2  0  0  0  0  0  0  0  0  0
   10.9714  -16.6229   22.9851 N   0  0  0  0  0  0  0  0  0  0  0  0
   10.3608  -16.1879   25.2530 C   0  0  0  0  0  0  0  0  0  0  0  0
   10.4376  -17.4388   25.4714 O   0  0  0  0  0  0  0  0  0  0  0  0
    7.5339  -11.7598   19.3043 C   0  0  0  0  0  0  0  0  0  0  0  0
   11.8500  -13.7781   28.3864 C   0  0  2  0  0  0  0  0  0  0  0  0
   10.6814  -14.6568   28.6936 O   0  0  0  0  0  0  0  0  0  0  0  0
    9.4976  -13.9329   28.6752 C   0  0  2  0  0  0  0  0  0  0  0  0
   10.5463  -15.8023   27.7132 N   0  0  0  0  0  0  0  0  0  0  0  0
   10.3447  -15.3240   26.3753 C   0  0  0  0  0  0  0  0  0  0  0  0
    9.4174  -16.6354   28.1499 O   0  0  0  0  0  0  0  0  0  0  0  0
    9.5049  -17.4087   29.2931 O   0  0  0  0  0  0  0  0  0  0  0  0
  2  1  1  6
  3  2  1  0
  3  4  1  0
  4  5  2  0
  4  8  1  0
  6  7  2  0
  6  2  1  0
  9 10  1  0
 10 12  1  0
 11 10  2  0
 12 13  1  0
 14 13  1  0
 15 14  1  0
 16 15  1  6
 16 17  1  0
 17  6  1  0
 18 16  1  0
 18 19  2  0
 21 20  1  1
 21 22  1  0
 21 23  1  0
 23 25  1  0
 23 24  1  1
 24 18  1  0
 25 26  1  0
 27 25  2  0
M  END
$$$$
