DRT.pdb
     RDKit          3D

 27 26  0  0  1  0  0  0  0  0999 V2000
   13.1177  -18.6704   17.6876 N   0  0  0  0  0  0  0  0  0  0  0  0
   14.0552  -18.1240   18.6452 C   0  0  1  0  0  0  0  0  0  0  0  0
   14.9876  -17.1708   17.9400 C   0  0  0  0  0  0  0  0  0  0  0  0
   15.6994  -17.8768   16.8437 C   0  0  0  0  0  0  0  0  0  0  0  0
   16.8847  -18.2999   17.0414 O   0  0  0  0  0  0  0  0  0  0  0  0
   13.3707  -17.4926   19.7980 C   0  0  0  0  0  0  0  0  0  0  0  0
   14.0308  -16.9179   20.7215 O   0  0  0  0  0  0  0  0  0  0  0  0
   15.1564  -18.1078   15.6109 O   0  0  0  0  0  0  0  0  0  0  0  0
    8.0124  -12.4193   21.0948 N   0  0  0  0  0  0  0  0  0  0  0  0
    8.0775  -13.2407   19.9497 C   0  0  0  0  0  0  0  0  0  0  0  0
    8.2076  -12.7633   18.7487 N   0  0  0  0  0  0  0  0  0  0  0  0
    7.9988  -14.6564   20.0986 N   0  0  0  0  0  0  0  0  0  0  0  0
    7.8375  -15.2717   21.4134 C   0  0  0  0  0  0  0  0  0  0  0  0
    9.2072  -15.7147   21.8834 C   0  0  0  0  0  0  0  0  0  0  0  0
    9.9087  -16.3475   20.7074 C   0  0  0  0  0  0  0  0  0  0  0  0
   11.2774  -16.8701   21.0616 C   0  0  2  0  0  0  0  0  0  0  0  0
   11.9591  -17.4819   19.9549 N   0  0  0  0  0  0  0  0  0  0  0  0
   11.1107  -17.8488   22.1574 C   0  0  0  0  0  0  0  0  0  0  0  0
   10.3865  -18.8766   21.9638 O   0  0  0  0  0  0  0  0  0  0  0  0
    8.2934  -13.3682   17.9231 C   0  0  0  0  0  0  0  0  0  0  0  0
   12.3639  -19.4381   26.7072 C   0  0  2  0  0  0  0  0  0  0  0  0
   12.5242  -18.4424   25.6050 O   0  0  0  0  0  0  0  0  0  0  0  0
   13.8031  -18.4966   25.0691 C   0  0  1  0  0  0  0  0  0  0  0  0
   11.5345  -18.6608   24.4805 N   0  0  0  0  0  0  0  0  0  0  0  0
   11.7206  -17.7037   23.4274 C   0  0  0  0  0  0  0  0  0  0  0  0
   10.1826  -18.5629   25.0478 O   0  0  0  0  0  0  0  0  0  0  0  0
    9.3898  -17.4553   24.8087 O   0  0  0  0  0  0  0  0  0  0  0  0
  2  1  1  6
  3  2  1  0
  3  4  1  0
  4  5  2  0
  4  8  1  0
  6  7  2  0
  6  2  1  0
  9 10  1  0
 10 12  1  0
 11 10  2  0
 12 13  1  0
 14 13  1  0
 15 14  1  0
 16 15  1  6
 16 17  1  0
 17  6  1  0
 18 16  1  0
 18 19  2  0
 21 20  1  1
 21 22  1  0
 21 23  1  0
 23 25  1  0
 23 24  1  1
 24 18  1  0
 25 26  1  0
 27 25  2  0
M  END
$$$$
