DRT.pdb
     RDKit          3D

 27 26  0  0  1  0  0  0  0  0999 V2000
   12.8993  -18.8587   19.3909 N   0  0  0  0  0  0  0  0  0  0  0  0
   13.6928  -18.1374   20.3630 C   0  0  1  0  0  0  0  0  0  0  0  0
   14.7433  -17.3275   19.6448 C   0  0  0  0  0  0  0  0  0  0  0  0
   15.5661  -18.2153   18.7835 C   0  0  0  0  0  0  0  0  0  0  0  0
   16.0417  -19.2913   19.2723 O   0  0  0  0  0  0  0  0  0  0  0  0
   12.8558  -17.3055   21.2594 C   0  0  0  0  0  0  0  0  0  0  0  0
   13.3823  -16.5039   22.0954 O   0  0  0  0  0  0  0  0  0  0  0  0
   15.8531  -17.9496   17.4739 O   0  0  0  0  0  0  0  0  0  0  0  0
    7.3681  -13.5963   18.2916 N   0  0  0  0  0  0  0  0  0  0  0  0
    7.6298  -13.3441   19.6547 C   0  0  0  0  0  0  0  0  0  0  0  0
    7.7732  -12.1449   20.1327 N   0  0  0  0  0  0  0  0  0  0  0  0
    7.7447  -14.4398   20.5596 N   0  0  0  0  0  0  0  0  0  0  0  0
    8.1889  -14.2413   21.9367 C   0  0  0  0  0  0  0  0  0  0  0  0
    8.3272  -15.6074   22.5753 C   0  0  0  0  0  0  0  0  0  0  0  0
    9.1762  -16.4537   21.6595 C   0  0  0  0  0  0  0  0  0  0  0  0
   10.6080  -16.5494   22.1206 C   0  0  2  0  0  0  0  0  0  0  0  0
   11.4358  -17.3399   21.2526 N   0  0  0  0  0  0  0  0  0  0  0  0
   10.6002  -17.1303   23.4804 C   0  0  0  0  0  0  0  0  0  0  0  0
   10.5441  -18.3943   23.6126 O   0  0  0  0  0  0  0  0  0  0  0  0
    7.9688  -11.9687   21.1255 C   0  0  0  0  0  0  0  0  0  0  0  0
   10.8454  -16.4605   28.4182 C   0  0  1  0  0  0  0  0  0  0  0  0
   10.7824  -15.8743   27.0454 O   0  0  0  0  0  0  0  0  0  0  0  0
   11.8711  -15.0471   26.8084 C   0  0  1  0  0  0  0  0  0  0  0  0
   10.7545  -16.9343   25.9651 N   0  0  0  0  0  0  0  0  0  0  0  0
   10.6525  -16.3473   24.6595 C   0  0  0  0  0  0  0  0  0  0  0  0
    9.6129  -17.8194   26.2348 O   0  0  0  0  0  0  0  0  0  0  0  0
    9.7340  -18.8926   27.0985 O   0  0  0  0  0  0  0  0  0  0  0  0
  2  1  1  6
  3  2  1  0
  3  4  1  0
  4  5  2  0
  4  8  1  0
  6  7  2  0
  6  2  1  0
  9 10  1  0
 10 12  1  0
 11 10  2  0
 12 13  1  0
 14 13  1  0
 15 14  1  0
 16 15  1  6
 16 17  1  0
 17  6  1  0
 18 16  1  0
 18 19  2  0
 21 20  1  1
 21 22  1  0
 21 23  1  0
 23 25  1  0
 23 24  1  1
 24 18  1  0
 25 26  1  0
 27 25  2  0
M  END
$$$$
