DRT.pdb
     RDKit          3D

 27 26  0  0  1  0  0  0  0  0999 V2000
   10.8118  -19.0504   22.0195 N   0  0  0  0  0  0  0  0  0  0  0  0
   11.6779  -17.9269   22.3065 C   0  0  1  0  0  0  0  0  0  0  0  0
   12.2309  -17.3824   21.0131 C   0  0  0  0  0  0  0  0  0  0  0  0
   13.2191  -18.3346   20.4442 C   0  0  0  0  0  0  0  0  0  0  0  0
   13.3925  -19.4637   21.0082 O   0  0  0  0  0  0  0  0  0  0  0  0
   10.9935  -16.8858   23.1089 C   0  0  0  0  0  0  0  0  0  0  0  0
   11.6524  -15.9765   23.7070 O   0  0  0  0  0  0  0  0  0  0  0  0
   13.9708  -18.0752   19.3325 O   0  0  0  0  0  0  0  0  0  0  0  0
    7.1876  -11.7752   19.5370 N   0  0  0  0  0  0  0  0  0  0  0  0
    7.9749  -12.8658   19.1115 C   0  0  0  0  0  0  0  0  0  0  0  0
    8.5220  -12.9208   17.9348 N   0  0  0  0  0  0  0  0  0  0  0  0
    8.1892  -13.9619   19.9976 N   0  0  0  0  0  0  0  0  0  0  0  0
    7.2876  -14.2176   21.1179 C   0  0  0  0  0  0  0  0  0  0  0  0
    7.7804  -15.4607   21.8285 C   0  0  0  0  0  0  0  0  0  0  0  0
    7.7569  -15.1770   23.3100 C   0  0  0  0  0  0  0  0  0  0  0  0
    8.9021  -15.8276   24.0429 C   0  0  2  0  0  0  0  0  0  0  0  0
    9.5831  -16.8263   23.2667 N   0  0  0  0  0  0  0  0  0  0  0  0
    8.3556  -16.4311   25.2773 C   0  0  0  0  0  0  0  0  0  0  0  0
    7.0941  -16.5118   25.4202 O   0  0  0  0  0  0  0  0  0  0  0  0
    9.0883  -13.7213   17.6289 C   0  0  0  0  0  0  0  0  0  0  0  0
    6.9103  -18.7628   25.9563 C   0  0  2  0  0  0  0  0  0  0  0  0
    8.0139  -18.9850   26.9386 O   0  0  0  0  0  0  0  0  0  0  0  0
    9.0213  -19.7631   26.3858 C   0  0  2  0  0  0  0  0  0  0  0  0
    8.6314  -17.6884   27.4171 N   0  0  0  0  0  0  0  0  0  0  0  0
    9.1693  -16.9309   26.3233 C   0  0  0  0  0  0  0  0  0  0  0  0
    9.6796  -18.0235   28.3908 O   0  0  0  0  0  0  0  0  0  0  0  0
   11.0086  -17.7453   28.1288 O   0  0  0  0  0  0  0  0  0  0  0  0
  2  1  1  6
  3  2  1  0
  3  4  1  0
  4  5  2  0
  4  8  1  0
  6  7  2  0
  6  2  1  0
  9 10  1  0
 10 12  1  0
 11 10  2  0
 12 13  1  0
 14 13  1  0
 15 14  1  0
 16 15  1  6
 16 17  1  0
 17  6  1  0
 18 16  1  0
 18 19  2  0
 21 20  1  1
 21 22  1  0
 21 23  1  0
 23 25  1  0
 23 24  1  1
 24 18  1  0
 25 26  1  0
 27 25  2  0
M  END
$$$$
