DRT.pdb
     RDKit          3D

 27 26  0  0  1  0  0  0  0  0999 V2000
    7.5122  -16.4288   18.7685 N   0  0  0  0  0  0  0  0  0  0  0  0
    7.9761  -15.3490   19.6132 C   0  0  1  0  0  0  0  0  0  0  0  0
    7.5139  -14.0336   19.0374 C   0  0  0  0  0  0  0  0  0  0  0  0
    8.0454  -13.8691   17.6600 C   0  0  0  0  0  0  0  0  0  0  0  0
    9.1562  -14.4114   17.3518 O   0  0  0  0  0  0  0  0  0  0  0  0
    7.5569  -15.5246   21.0237 C   0  0  0  0  0  0  0  0  0  0  0  0
    6.3272  -15.6074   21.3395 O   0  0  0  0  0  0  0  0  0  0  0  0
    7.4090  -13.1598   16.6801 O   0  0  0  0  0  0  0  0  0  0  0  0
   13.3632  -18.3099   22.1708 N   0  0  0  0  0  0  0  0  0  0  0  0
   12.6279  -19.2085   22.9722 C   0  0  0  0  0  0  0  0  0  0  0  0
   13.1848  -19.9754   23.8603 N   0  0  0  0  0  0  0  0  0  0  0  0
   11.2134  -19.2910   22.8137 N   0  0  0  0  0  0  0  0  0  0  0  0
   10.4258  -18.1245   22.4238 C   0  0  0  0  0  0  0  0  0  0  0  0
   10.2287  -17.2707   23.6589 C   0  0  0  0  0  0  0  0  0  0  0  0
    8.7486  -17.2209   23.9458 C   0  0  0  0  0  0  0  0  0  0  0  0
    8.1043  -15.9520   23.4493 C   0  0  2  0  0  0  0  0  0  0  0  0
    8.4751  -15.6118   22.1038 N   0  0  0  0  0  0  0  0  0  0  0  0
    8.4932  -14.8642   24.3723 C   0  0  0  0  0  0  0  0  0  0  0  0
    9.5752  -14.2299   24.1596 O   0  0  0  0  0  0  0  0  0  0  0  0
   12.7194  -20.8114   24.2339 C   0  0  0  0  0  0  0  0  0  0  0  0
    6.8107  -11.5228   25.4941 C   0  0  2  0  0  0  0  0  0  0  0  0
    7.0130  -12.4551   26.6438 O   0  0  0  0  0  0  0  0  0  0  0  0
    5.8552  -13.1717   26.9117 C   0  0  2  0  0  0  0  0  0  0  0  0
    8.1307  -13.4453   26.3950 N   0  0  0  0  0  0  0  0  0  0  0  0
    7.7178  -14.4840   25.4949 C   0  0  0  0  0  0  0  0  0  0  0  0
    8.5328  -14.0032   27.6935 O   0  0  0  0  0  0  0  0  0  0  0  0
    8.9906  -13.1832   28.7086 O   0  0  0  0  0  0  0  0  0  0  0  0
  2  1  1  6
  3  2  1  0
  3  4  1  0
  4  5  2  0
  4  8  1  0
  6  7  2  0
  6  2  1  0
  9 10  1  0
 10 12  1  0
 11 10  2  0
 12 13  1  0
 14 13  1  0
 15 14  1  0
 16 15  1  1
 16 17  1  0
 17  6  1  0
 18 16  1  0
 18 19  2  0
 21 20  1  1
 21 22  1  0
 21 23  1  0
 23 25  1  0
 23 24  1  1
 24 18  1  0
 25 26  1  0
 27 25  2  0
M  END
$$$$
