QDC.pdb
     RDKit          3D

 24 23  0  0  1  0  0  0  0  0999 V2000
   10.1052  -13.8001   17.1114 N   0  0  0  0  0  0  0  0  0  0  0  0
   10.0180  -13.1230   18.3489 C   0  0  0  0  0  0  0  0  0  0  0  0
   11.0585  -12.9109   18.9961 O   0  0  0  0  0  0  0  0  0  0  0  0
    8.7105  -12.6776   18.8602 C   0  0  0  0  0  0  0  0  0  0  0  0
    8.3613  -13.2774   20.1834 C   0  0  0  0  0  0  0  0  0  0  0  0
    8.2176  -14.7612   20.2115 C   0  0  2  0  0  0  0  0  0  0  0  0
    6.8685  -15.0271   19.6495 N   0  0  0  0  0  0  0  0  0  0  0  0
    8.1585  -15.2550   21.6164 C   0  0  0  0  0  0  0  0  0  0  0  0
    7.0469  -15.4377   22.2106 O   0  0  0  0  0  0  0  0  0  0  0  0
    9.3041  -15.5619   22.4028 N   0  0  0  0  0  0  0  0  0  0  0  0
    9.2272  -16.1623   23.6970 C   0  0  1  0  0  0  0  0  0  0  0  0
   10.0271  -17.4195   23.8312 C   0  0  0  0  0  0  0  0  0  0  0  0
   10.1353  -17.9552   25.1709 C   0  0  0  0  0  0  0  0  0  0  0  0
    9.1216  -18.0817   25.8835 O   0  0  0  0  0  0  0  0  0  0  0  0
    9.5150  -15.1874   24.7954 C   0  0  0  0  0  0  0  0  0  0  0  0
   10.6318  -14.6165   24.9064 O   0  0  0  0  0  0  0  0  0  0  0  0
   11.3443  -18.3388   25.6987 O   0  0  0  0  0  0  0  0  0  0  0  0
    8.5394  -14.8544   25.7734 N   0  0  0  0  0  0  0  0  0  0  0  0
    8.7591  -13.9269   26.8429 C   0  0  1  0  0  0  0  0  0  0  0  0
    7.7406  -12.8395   26.9236 C   0  0  0  0  0  0  0  0  0  0  0  0
    6.0968  -13.5885   26.9832 S   0  0  0  0  0  0  0  0  0  0  0  0
    8.8729  -14.5877   28.1637 C   0  0  0  0  0  0  0  0  0  0  0  0
    9.3029  -13.8649   29.2628 O   0  0  0  0  0  0  0  0  0  0  0  0
    8.5867  -15.7907   28.3050 O   0  0  0  0  0  0  0  0  0  0  0  0
  1  2  1  0
  2  4  1  0
  3  2  2  0
  4  5  1  0
  6  5  1  0
  6  7  1  6
  8  6  1  0
  8  9  2  0
 10  8  1  0
 11 10  1  0
 11 15  1  0
 11 12  1  6
 13 12  1  0
 13 17  1  0
 14 13  2  0
 15 16  2  0
 15 18  1  0
 18 19  1  0
 19 20  1  1
 21 20  1  0
 22 23  1  0
 22 19  1  0
 24 22  2  0
M  END
$$$$
