QDC.pdb
     RDKit          3D

 24 23  0  0  1  0  0  0  0  0999 V2000
    7.9252  -12.3345   19.7757 N   0  0  0  0  0  0  0  0  0  0  0  0
    7.3584  -13.0844   18.7203 C   0  0  0  0  0  0  0  0  0  0  0  0
    6.1356  -13.0016   18.5092 O   0  0  0  0  0  0  0  0  0  0  0  0
    8.2085  -13.9507   17.8858 C   0  0  0  0  0  0  0  0  0  0  0  0
    9.6526  -13.8993   18.2659 C   0  0  0  0  0  0  0  0  0  0  0  0
   10.5904  -14.6397   17.3740 C   0  0  2  0  0  0  0  0  0  0  0  0
    9.7730  -15.7246   16.7730 N   0  0  0  0  0  0  0  0  0  0  0  0
   11.6347  -15.3376   18.1762 C   0  0  0  0  0  0  0  0  0  0  0  0
   11.4564  -16.5199   18.6146 O   0  0  0  0  0  0  0  0  0  0  0  0
   12.8931  -14.7668   18.5164 N   0  0  0  0  0  0  0  0  0  0  0  0
   13.8287  -15.3995   19.3914 C   0  0  1  0  0  0  0  0  0  0  0  0
   15.2456  -14.9690   19.1784 C   0  0  0  0  0  0  0  0  0  0  0  0
   15.6928  -14.9378   17.8027 C   0  0  0  0  0  0  0  0  0  0  0  0
   15.7710  -15.9900   17.1409 O   0  0  0  0  0  0  0  0  0  0  0  0
   13.4181  -15.3074   20.8275 C   0  0  0  0  0  0  0  0  0  0  0  0
   13.8578  -14.4084   21.5918 O   0  0  0  0  0  0  0  0  0  0  0  0
   16.0426  -13.7619   17.1847 O   0  0  0  0  0  0  0  0  0  0  0  0
   12.5075  -16.2329   21.4051 N   0  0  0  0  0  0  0  0  0  0  0  0
   12.1508  -16.2485   22.7925 C   0  0  1  0  0  0  0  0  0  0  0  0
   10.6838  -16.3580   23.0419 C   0  0  0  0  0  0  0  0  0  0  0  0
    9.8238  -15.1900   21.9638 S   0  0  0  0  0  0  0  0  0  0  0  0
   12.8556  -17.3040   23.5563 C   0  0  0  0  0  0  0  0  0  0  0  0
   12.8129  -17.3006   24.9396 O   0  0  0  0  0  0  0  0  0  0  0  0
   13.4908  -18.2013   22.9727 O   0  0  0  0  0  0  0  0  0  0  0  0
  1  2  1  0
  2  4  1  0
  3  2  2  0
  4  5  1  0
  6  5  1  0
  6  7  1  1
  8  6  1  0
  8  9  2  0
 10  8  1  0
 11 10  1  0
 11 15  1  0
 11 12  1  1
 13 12  1  0
 13 17  1  0
 14 13  2  0
 15 16  2  0
 15 18  1  0
 18 19  1  0
 19 20  1  6
 21 20  1  0
 22 23  1  0
 22 19  1  0
 24 22  2  0
M  END
$$$$
