QDC.pdb
     RDKit          3D

 24 23  0  0  1  0  0  0  0  0999 V2000
   10.7931  -17.8399   10.7593 N   0  0  0  0  0  0  0  0  0  0  0  0
   11.1941  -18.1320   12.0826 C   0  0  0  0  0  0  0  0  0  0  0  0
   12.3383  -18.5762   12.2829 O   0  0  0  0  0  0  0  0  0  0  0  0
   10.2658  -17.9122   13.2048 C   0  0  0  0  0  0  0  0  0  0  0  0
    9.7066  -16.5271   13.2425 C   0  0  0  0  0  0  0  0  0  0  0  0
   10.1858  -15.6584   14.3555 C   0  0  2  0  0  0  0  0  0  0  0  0
   11.6550  -15.8715   14.4040 N   0  0  0  0  0  0  0  0  0  0  0  0
    9.6766  -16.1562   15.6647 C   0  0  0  0  0  0  0  0  0  0  0  0
    8.4290  -16.2150   15.9138 O   0  0  0  0  0  0  0  0  0  0  0  0
   10.5110  -16.6017   16.7279 N   0  0  0  0  0  0  0  0  0  0  0  0
   10.0082  -16.9898   18.0077 C   0  0  1  0  0  0  0  0  0  0  0  0
   10.6655  -18.2088   18.5737 C   0  0  0  0  0  0  0  0  0  0  0  0
   10.3672  -19.4537   17.8993 C   0  0  0  0  0  0  0  0  0  0  0  0
    9.3345  -19.5673   17.2123 O   0  0  0  0  0  0  0  0  0  0  0  0
    9.9885  -15.8530   18.9808 C   0  0  0  0  0  0  0  0  0  0  0  0
   11.0469  -15.3301   19.4189 O   0  0  0  0  0  0  0  0  0  0  0  0
   11.2014  -20.5413   17.9911 O   0  0  0  0  0  0  0  0  0  0  0  0
    8.7701  -15.3028   19.4624 N   0  0  0  0  0  0  0  0  0  0  0  0
    8.6891  -14.3139   20.4958 C   0  0  1  0  0  0  0  0  0  0  0  0
    7.5457  -13.3674   20.3433 C   0  0  0  0  0  0  0  0  0  0  0  0
    7.5617  -12.7052   18.6617 S   0  0  0  0  0  0  0  0  0  0  0  0
    8.6571  -14.9025   21.8547 C   0  0  0  0  0  0  0  0  0  0  0  0
    8.7979  -14.0870   22.9640 O   0  0  0  0  0  0  0  0  0  0  0  0
    8.5049  -16.1268   22.0192 O   0  0  0  0  0  0  0  0  0  0  0  0
  1  2  1  0
  2  4  1  0
  3  2  2  0
  4  5  1  0
  6  5  1  0
  6  7  1  1
  8  6  1  0
  8  9  2  0
 10  8  1  0
 11 10  1  0
 11 15  1  0
 11 12  1  1
 13 12  1  0
 13 17  1  0
 14 13  2  0
 15 16  2  0
 15 18  1  0
 18 19  1  0
 19 20  1  6
 21 20  1  0
 22 23  1  0
 22 19  1  0
 24 22  2  0
M  END
$$$$
