QDC.pdb
     RDKit          3D

 24 23  0  0  1  0  0  0  0  0999 V2000
    6.7073  -12.7494   18.0829 N   0  0  0  0  0  0  0  0  0  0  0  0
    7.5947  -13.6257   17.4180 C   0  0  0  0  0  0  0  0  0  0  0  0
    7.4259  -13.8518   16.2069 O   0  0  0  0  0  0  0  0  0  0  0  0
    8.7016  -14.2598   18.1543 C   0  0  0  0  0  0  0  0  0  0  0  0
    8.7079  -13.9241   19.6103 C   0  0  0  0  0  0  0  0  0  0  0  0
    9.9671  -14.2314   20.3470 C   0  0  2  0  0  0  0  0  0  0  0  0
   10.6785  -15.2197   19.4962 N   0  0  0  0  0  0  0  0  0  0  0  0
    9.6684  -14.9535   21.6160 C   0  0  0  0  0  0  0  0  0  0  0  0
    8.8378  -14.4917   22.4638 O   0  0  0  0  0  0  0  0  0  0  0  0
   10.2635  -16.1913   21.9885 N   0  0  0  0  0  0  0  0  0  0  0  0
    9.9929  -16.8483   23.2280 C   0  0  1  0  0  0  0  0  0  0  0  0
   10.5190  -18.2469   23.3010 C   0  0  0  0  0  0  0  0  0  0  0  0
    9.8398  -19.2177   22.4705 C   0  0  0  0  0  0  0  0  0  0  0  0
    9.0078  -18.8485   21.6203 O   0  0  0  0  0  0  0  0  0  0  0  0
   10.4022  -16.0264   24.4098 C   0  0  0  0  0  0  0  0  0  0  0  0
   11.5335  -15.4783   24.4828 O   0  0  0  0  0  0  0  0  0  0  0  0
   10.0847  -20.5644   22.5880 O   0  0  0  0  0  0  0  0  0  0  0  0
    9.5324  -15.8213   25.5146 N   0  0  0  0  0  0  0  0  0  0  0  0
    9.8773  -15.0580   26.6768 C   0  0  1  0  0  0  0  0  0  0  0  0
    8.8642  -14.0284   27.0507 C   0  0  0  0  0  0  0  0  0  0  0  0
    9.4864  -13.0898   28.4644 S   0  0  0  0  0  0  0  0  0  0  0  0
   10.1699  -15.9053   27.8561 C   0  0  0  0  0  0  0  0  0  0  0  0
   10.8676  -15.3785   28.9289 O   0  0  0  0  0  0  0  0  0  0  0  0
    9.7969  -17.0919   27.9007 O   0  0  0  0  0  0  0  0  0  0  0  0
  1  2  1  0
  2  4  1  0
  3  2  2  0
  4  5  1  0
  6  5  1  0
  6  7  1  6
  8  6  1  0
  8  9  2  0
 10  8  1  0
 11 10  1  0
 11 15  1  0
 11 12  1  6
 13 12  1  0
 13 17  1  0
 14 13  2  0
 15 16  2  0
 15 18  1  0
 18 19  1  0
 19 20  1  1
 21 20  1  0
 22 23  1  0
 22 19  1  0
 24 22  2  0
M  END
$$$$
