QDC.pdb
     RDKit          3D

 24 23  0  0  1  0  0  0  0  0999 V2000
    7.3228  -15.4896   17.6454 N   0  0  0  0  0  0  0  0  0  0  0  0
    7.5690  -14.1312   17.3426 C   0  0  0  0  0  0  0  0  0  0  0  0
    7.6382  -13.7808   16.1514 O   0  0  0  0  0  0  0  0  0  0  0  0
    7.7409  -13.1489   18.4266 C   0  0  0  0  0  0  0  0  0  0  0  0
    7.7403  -13.7679   19.7865 C   0  0  0  0  0  0  0  0  0  0  0  0
    8.9334  -13.4847   20.6346 C   0  0  2  0  0  0  0  0  0  0  0  0
   10.1005  -13.8343   19.7849 N   0  0  0  0  0  0  0  0  0  0  0  0
    8.9932  -14.4289   21.7862 C   0  0  0  0  0  0  0  0  0  0  0  0
    8.1387  -14.3819   22.7294 O   0  0  0  0  0  0  0  0  0  0  0  0
    9.9799  -15.4434   21.9354 N   0  0  0  0  0  0  0  0  0  0  0  0
    9.9647  -16.4003   22.9962 C   0  0  1  0  0  0  0  0  0  0  0  0
   10.5891  -17.7121   22.6392 C   0  0  0  0  0  0  0  0  0  0  0  0
   10.5851  -18.7145   23.6826 C   0  0  0  0  0  0  0  0  0  0  0  0
    9.5582  -18.9189   24.3571 O   0  0  0  0  0  0  0  0  0  0  0  0
   10.5085  -15.8429   24.2742 C   0  0  0  0  0  0  0  0  0  0  0  0
   11.6740  -15.3733   24.3558 O   0  0  0  0  0  0  0  0  0  0  0  0
   11.6994  -19.4673   23.9636 O   0  0  0  0  0  0  0  0  0  0  0  0
    9.7350  -15.8147   25.4659 N   0  0  0  0  0  0  0  0  0  0  0  0
   10.1608  -15.1934   26.6846 C   0  0  1  0  0  0  0  0  0  0  0  0
    9.1796  -14.2191   27.2454 C   0  0  0  0  0  0  0  0  0  0  0  0
   10.0242  -13.1792   28.4585 S   0  0  0  0  0  0  0  0  0  0  0  0
   10.5284  -16.1735   27.7326 C   0  0  0  0  0  0  0  0  0  0  0  0
   10.3538  -17.5272   27.5038 O   0  0  0  0  0  0  0  0  0  0  0  0
   10.9952  -15.7996   28.8241 O   0  0  0  0  0  0  0  0  0  0  0  0
  1  2  1  0
  2  4  1  0
  3  2  2  0
  4  5  1  0
  6  5  1  0
  6  7  1  6
  8  6  1  0
  8  9  2  0
 10  8  1  0
 11 10  1  0
 11 15  1  0
 11 12  1  6
 13 12  1  0
 13 17  1  0
 14 13  2  0
 15 16  2  0
 15 18  1  0
 18 19  1  0
 19 20  1  1
 21 20  1  0
 22 23  1  0
 22 19  1  0
 24 22  2  0
M  END
$$$$
