QDC.pdb
     RDKit          3D

 24 23  0  0  1  0  0  0  0  0999 V2000
    6.9018  -13.0771   18.1942 N   0  0  0  0  0  0  0  0  0  0  0  0
    7.9488  -13.9272   17.7717 C   0  0  0  0  0  0  0  0  0  0  0  0
    7.8014  -14.5976   16.7346 O   0  0  0  0  0  0  0  0  0  0  0  0
    9.1945  -14.0145   18.5528 C   0  0  0  0  0  0  0  0  0  0  0  0
    8.9597  -14.2456   20.0102 C   0  0  0  0  0  0  0  0  0  0  0  0
   10.1777  -14.3010   20.8682 C   0  0  2  0  0  0  0  0  0  0  0  0
   11.1067  -15.2168   20.1579 N   0  0  0  0  0  0  0  0  0  0  0  0
    9.8767  -14.9777   22.1615 C   0  0  0  0  0  0  0  0  0  0  0  0
    8.9730  -14.5411   22.9456 O   0  0  0  0  0  0  0  0  0  0  0  0
   10.5489  -16.1420   22.6279 N   0  0  0  0  0  0  0  0  0  0  0  0
   10.2730  -16.7525   23.8898 C   0  0  1  0  0  0  0  0  0  0  0  0
   10.6066  -18.2099   23.9447 C   0  0  0  0  0  0  0  0  0  0  0  0
   10.0826  -19.0155   22.8631 C   0  0  0  0  0  0  0  0  0  0  0  0
    8.8590  -19.2294   22.7714 O   0  0  0  0  0  0  0  0  0  0  0  0
   10.8675  -15.9916   25.0331 C   0  0  0  0  0  0  0  0  0  0  0  0
   12.0975  -15.7287   25.0931 O   0  0  0  0  0  0  0  0  0  0  0  0
   10.9049  -19.5665   21.9105 O   0  0  0  0  0  0  0  0  0  0  0  0
   10.0720  -15.5245   26.1139 N   0  0  0  0  0  0  0  0  0  0  0  0
   10.6000  -14.8800   27.2793 C   0  0  1  0  0  0  0  0  0  0  0  0
   10.0773  -13.5000   27.5003 C   0  0  0  0  0  0  0  0  0  0  0  0
    8.3085  -13.4839   27.1295 S   0  0  0  0  0  0  0  0  0  0  0  0
   10.4106  -15.6768   28.5136 C   0  0  0  0  0  0  0  0  0  0  0  0
   11.0357  -15.2918   29.6868 O   0  0  0  0  0  0  0  0  0  0  0  0
    9.6940  -16.6944   28.5156 O   0  0  0  0  0  0  0  0  0  0  0  0
  1  2  1  0
  2  4  1  0
  3  2  2  0
  4  5  1  0
  6  5  1  0
  6  7  1  6
  8  6  1  0
  8  9  2  0
 10  8  1  0
 11 10  1  0
 11 15  1  0
 11 12  1  6
 13 12  1  0
 13 17  1  0
 14 13  2  0
 15 16  2  0
 15 18  1  0
 18 19  1  0
 19 20  1  1
 21 20  1  0
 22 23  1  0
 22 19  1  0
 24 22  2  0
M  END
$$$$
