QDC.pdb
     RDKit          3D

 24 23  0  0  1  0  0  0  0  0999 V2000
    7.9753  -13.6482   17.0111 N   0  0  0  0  0  0  0  0  0  0  0  0
    8.3655  -13.2632   18.3138 C   0  0  0  0  0  0  0  0  0  0  0  0
    9.5721  -13.0816   18.5541 O   0  0  0  0  0  0  0  0  0  0  0  0
    7.3532  -13.0817   19.3682 C   0  0  0  0  0  0  0  0  0  0  0  0
    7.6434  -13.8701   20.6038 C   0  0  0  0  0  0  0  0  0  0  0  0
    8.0947  -15.2753   20.3922 C   0  0  2  0  0  0  0  0  0  0  0  0
    6.8844  -16.0021   19.9304 N   0  0  0  0  0  0  0  0  0  0  0  0
    8.4582  -15.9097   21.6909 C   0  0  0  0  0  0  0  0  0  0  0  0
    7.5823  -16.4743   22.4230 O   0  0  0  0  0  0  0  0  0  0  0  0
    9.7790  -15.9454   22.2192 N   0  0  0  0  0  0  0  0  0  0  0  0
   10.1216  -16.6305   23.4252 C   0  0  1  0  0  0  0  0  0  0  0  0
   11.3142  -17.5248   23.2974 C   0  0  0  0  0  0  0  0  0  0  0  0
   11.7026  -18.2297   24.4997 C   0  0  0  0  0  0  0  0  0  0  0  0
   10.8452  -18.5676   25.3377 O   0  0  0  0  0  0  0  0  0  0  0  0
   10.2307  -15.7042   24.5955 C   0  0  0  0  0  0  0  0  0  0  0  0
   11.1980  -14.9095   24.7307 O   0  0  0  0  0  0  0  0  0  0  0  0
   13.0139  -18.5478   24.7574 O   0  0  0  0  0  0  0  0  0  0  0  0
    9.2447  -15.6732   25.6183 N   0  0  0  0  0  0  0  0  0  0  0  0
    9.3156  -14.8326   26.7762 C   0  0  1  0  0  0  0  0  0  0  0  0
    8.0322  -14.1490   27.1107 C   0  0  0  0  0  0  0  0  0  0  0  0
    7.8975  -12.6484   26.1124 S   0  0  0  0  0  0  0  0  0  0  0  0
    9.8157  -15.5449   27.9749 C   0  0  0  0  0  0  0  0  0  0  0  0
   10.0281  -14.8497   29.1526 O   0  0  0  0  0  0  0  0  0  0  0  0
   10.0504  -16.7667   27.9427 O   0  0  0  0  0  0  0  0  0  0  0  0
  1  2  1  0
  2  4  1  0
  3  2  2  0
  4  5  1  0
  6  5  1  0
  6  7  1  1
  8  6  1  0
  8  9  2  0
 10  8  1  0
 11 10  1  0
 11 15  1  0
 11 12  1  6
 13 12  1  0
 13 17  1  0
 14 13  2  0
 15 16  2  0
 15 18  1  0
 18 19  1  0
 19 20  1  1
 21 20  1  0
 22 23  1  0
 22 19  1  0
 24 22  2  0
M  END
$$$$
