QDC.pdb
     RDKit          3D

 24 23  0  0  1  0  0  0  0  0999 V2000
    8.1919  -15.6479   18.1868 N   0  0  0  0  0  0  0  0  0  0  0  0
    8.0854  -14.3953   17.5410 C   0  0  0  0  0  0  0  0  0  0  0  0
    8.0908  -14.3541   16.2981 O   0  0  0  0  0  0  0  0  0  0  0  0
    7.9703  -13.1593   18.3338 C   0  0  0  0  0  0  0  0  0  0  0  0
    7.7837  -13.4129   19.7944 C   0  0  0  0  0  0  0  0  0  0  0  0
    8.9876  -13.2160   20.6516 C   0  0  2  0  0  0  0  0  0  0  0  0
   10.1441  -13.4468   19.7484 N   0  0  0  0  0  0  0  0  0  0  0  0
    9.0780  -14.2890   21.6820 C   0  0  0  0  0  0  0  0  0  0  0  0
    8.1672  -14.4477   22.5580 O   0  0  0  0  0  0  0  0  0  0  0  0
   10.1570  -15.2115   21.7805 N   0  0  0  0  0  0  0  0  0  0  0  0
   10.2427  -16.2100   22.7987 C   0  0  1  0  0  0  0  0  0  0  0  0
   11.0679  -17.3978   22.4160 C   0  0  0  0  0  0  0  0  0  0  0  0
   11.1655  -18.4424   23.4123 C   0  0  0  0  0  0  0  0  0  0  0  0
   10.1537  -18.8168   24.0349 O   0  0  0  0  0  0  0  0  0  0  0  0
   10.6481  -15.6410   24.1221 C   0  0  0  0  0  0  0  0  0  0  0  0
   11.2191  -14.5231   24.2221 O   0  0  0  0  0  0  0  0  0  0  0  0
   12.3619  -19.0514   23.7039 O   0  0  0  0  0  0  0  0  0  0  0  0
   10.4089  -16.3350   25.3388 N   0  0  0  0  0  0  0  0  0  0  0  0
   10.3510  -15.7052   26.6242 C   0  0  1  0  0  0  0  0  0  0  0  0
    9.3057  -14.6463   26.7358 C   0  0  0  0  0  0  0  0  0  0  0  0
    9.4650  -13.8421   28.3465 S   0  0  0  0  0  0  0  0  0  0  0  0
   10.1847  -16.6734   27.7328 C   0  0  0  0  0  0  0  0  0  0  0  0
   10.9511  -16.5496   28.8785 O   0  0  0  0  0  0  0  0  0  0  0  0
    9.3621  -17.6040   27.6527 O   0  0  0  0  0  0  0  0  0  0  0  0
  1  2  1  0
  2  4  1  0
  3  2  2  0
  4  5  1  0
  6  5  1  0
  6  7  1  6
  8  6  1  0
  8  9  2  0
 10  8  1  0
 11 10  1  0
 11 15  1  0
 11 12  1  6
 13 12  1  0
 13 17  1  0
 14 13  2  0
 15 16  2  0
 15 18  1  0
 18 19  1  0
 19 20  1  6
 21 20  1  0
 22 23  1  0
 22 19  1  0
 24 22  2  0
M  END
$$$$
