QDC.pdb
     RDKit          3D

 24 23  0  0  1  0  0  0  0  0999 V2000
    9.1988  -12.3959   18.7823 N   0  0  0  0  0  0  0  0  0  0  0  0
    8.0574  -12.9740   19.3825 C   0  0  0  0  0  0  0  0  0  0  0  0
    7.0535  -12.2664   19.5774 O   0  0  0  0  0  0  0  0  0  0  0  0
    8.0625  -14.3950   19.7703 C   0  0  0  0  0  0  0  0  0  0  0  0
    9.3626  -15.0761   19.4904 C   0  0  0  0  0  0  0  0  0  0  0  0
    9.4236  -16.5293   19.8182 C   0  0  2  0  0  0  0  0  0  0  0  0
    8.3391  -17.1501   19.0152 N   0  0  0  0  0  0  0  0  0  0  0  0
    9.0383  -16.7621   21.2390 C   0  0  0  0  0  0  0  0  0  0  0  0
    7.8581  -17.1194   21.5576 O   0  0  0  0  0  0  0  0  0  0  0  0
    9.9264  -16.6137   22.3408 N   0  0  0  0  0  0  0  0  0  0  0  0
    9.5432  -16.8633   23.6944 C   0  0  1  0  0  0  0  0  0  0  0  0
   10.4365  -17.8266   24.4103 C   0  0  0  0  0  0  0  0  0  0  0  0
   10.1380  -18.0389   25.8100 C   0  0  0  0  0  0  0  0  0  0  0  0
    8.9921  -18.3714   26.1673 O   0  0  0  0  0  0  0  0  0  0  0  0
    9.3345  -15.6004   24.4696 C   0  0  0  0  0  0  0  0  0  0  0  0
   10.2353  -14.7275   24.5799 O   0  0  0  0  0  0  0  0  0  0  0  0
   11.0952  -17.8834   26.7831 O   0  0  0  0  0  0  0  0  0  0  0  0
    8.1047  -15.3199   25.1239 N   0  0  0  0  0  0  0  0  0  0  0  0
    7.8589  -14.1409   25.8998 C   0  0  1  0  0  0  0  0  0  0  0  0
    6.4271  -13.7223   25.9329 C   0  0  0  0  0  0  0  0  0  0  0  0
    6.2879  -12.2103   26.9132 S   0  0  0  0  0  0  0  0  0  0  0  0
    8.3680  -14.2480   27.2867 C   0  0  0  0  0  0  0  0  0  0  0  0
    8.6062  -13.1021   28.0253 O   0  0  0  0  0  0  0  0  0  0  0  0
    8.5874  -15.3583   27.8047 O   0  0  0  0  0  0  0  0  0  0  0  0
  1  2  1  0
  2  4  1  0
  3  2  2  0
  4  5  1  0
  6  5  1  0
  6  7  1  6
  8  6  1  0
  8  9  2  0
 10  8  1  0
 11 10  1  0
 11 15  1  0
 11 12  1  1
 13 12  1  0
 13 17  1  0
 14 13  2  0
 15 16  2  0
 15 18  1  0
 18 19  1  0
 19 20  1  1
 21 20  1  0
 22 23  1  0
 22 19  1  0
 24 22  2  0
M  END
$$$$
