QDC.pdb
     RDKit          3D

 24 23  0  0  1  0  0  0  0  0999 V2000
    9.7227  -12.6015   19.1789 N   0  0  0  0  0  0  0  0  0  0  0  0
    8.6613  -13.0005   18.3354 C   0  0  0  0  0  0  0  0  0  0  0  0
    8.6888  -12.6760   17.1352 O   0  0  0  0  0  0  0  0  0  0  0  0
    7.5407  -13.7891   18.8757 C   0  0  0  0  0  0  0  0  0  0  0  0
    7.7312  -14.1783   20.3056 C   0  0  0  0  0  0  0  0  0  0  0  0
    9.0471  -14.7905   20.6472 C   0  0  2  0  0  0  0  0  0  0  0  0
    9.2465  -15.8612   19.6370 N   0  0  0  0  0  0  0  0  0  0  0  0
    8.9710  -15.4991   21.9560 C   0  0  0  0  0  0  0  0  0  0  0  0
    8.0647  -15.2259   22.8081 O   0  0  0  0  0  0  0  0  0  0  0  0
    9.8754  -16.5189   22.3647 N   0  0  0  0  0  0  0  0  0  0  0  0
    9.8589  -17.1035   23.6683 C   0  0  1  0  0  0  0  0  0  0  0  0
   10.5706  -18.4167   23.7535 C   0  0  0  0  0  0  0  0  0  0  0  0
   10.1276  -19.4329   22.8236 C   0  0  0  0  0  0  0  0  0  0  0  0
    8.9333  -19.7855   22.7964 O   0  0  0  0  0  0  0  0  0  0  0  0
   10.3069  -16.1462   24.7277 C   0  0  0  0  0  0  0  0  0  0  0  0
   11.4067  -15.5372   24.6561 O   0  0  0  0  0  0  0  0  0  0  0  0
   10.9968  -20.0377   21.9485 O   0  0  0  0  0  0  0  0  0  0  0  0
    9.5116  -15.8739   25.8734 N   0  0  0  0  0  0  0  0  0  0  0  0
    9.8733  -14.9405   26.8982 C   0  0  1  0  0  0  0  0  0  0  0  0
    8.7635  -14.0343   27.3146 C   0  0  0  0  0  0  0  0  0  0  0  0
    9.3894  -12.8870   28.5630 S   0  0  0  0  0  0  0  0  0  0  0  0
   10.4444  -15.5953   28.0979 C   0  0  0  0  0  0  0  0  0  0  0  0
   11.3475  -14.9122   28.8935 O   0  0  0  0  0  0  0  0  0  0  0  0
   10.1249  -16.7580   28.4065 O   0  0  0  0  0  0  0  0  0  0  0  0
  1  2  1  0
  2  4  1  0
  3  2  2  0
  4  5  1  0
  6  5  1  0
  6  7  1  6
  8  6  1  0
  8  9  2  0
 10  8  1  0
 11 10  1  0
 11 15  1  0
 11 12  1  6
 13 12  1  0
 13 17  1  0
 14 13  2  0
 15 16  2  0
 15 18  1  0
 18 19  1  0
 19 20  1  1
 21 20  1  0
 22 23  1  0
 22 19  1  0
 24 22  2  0
M  END
$$$$
