KYI.pdb
     RDKit          3D

 30 30  0  0  1  0  0  0  0  0999 V2000
   27.7346  -22.1814  -18.4188 N   0  0  0  0  0  0  0  0  0  0  0  0
   28.4203  -22.2683  -17.1289 C   0  0  1  0  0  0  0  0  0  0  0  0
   29.9078  -22.2583  -17.3200 C   0  0  0  0  0  0  0  0  0  0  0  0
   30.5338  -23.5833  -17.0573 C   0  0  0  0  0  0  0  0  0  0  0  0
   30.0701  -24.5963  -18.1116 C   0  0  0  0  0  0  0  0  0  0  0  0
   30.7025  -25.9417  -17.9330 C   0  0  0  0  0  0  0  0  0  0  0  0
   30.0670  -26.8685  -18.8642 N   0  0  0  0  0  0  0  0  0  0  0  0
   27.9236  -21.1994  -16.2191 C   0  0  0  0  0  0  0  0  0  0  0  0
   28.1290  -19.9748  -16.3957 O   0  0  0  0  0  0  0  0  0  0  0  0
   21.0137  -21.9167  -17.1513 O   0  0  0  0  0  0  0  0  0  0  0  0
   22.1780  -21.3347  -16.6401 C   0  0  0  0  0  0  0  0  0  0  0  0
   23.2796  -21.1050  -17.4284 C   0  0  0  0  0  0  0  0  0  0  0  0
   24.4518  -20.5247  -16.9356 C   0  0  0  0  0  0  0  0  0  0  0  0
   24.4892  -20.1747  -15.6059 C   0  0  0  0  0  0  0  0  0  0  0  0
   25.6866  -19.5640  -15.0358 C   0  0  0  0  0  0  0  0  0  0  0  0
   26.5445  -20.4766  -14.2141 C   0  0  2  0  0  0  0  0  0  0  0  0
   27.1552  -21.5220  -15.0485 N   0  0  0  0  0  0  0  0  0  0  0  0
   25.8870  -21.1194  -13.0829 C   0  0  0  0  0  0  0  0  0  0  0  0
   25.4209  -22.3038  -13.1137 O   0  0  0  0  0  0  0  0  0  0  0  0
   23.3847  -20.4023  -14.8042 C   0  0  0  0  0  0  0  0  0  0  0  0
   22.2260  -20.9818  -15.3148 C   0  0  0  0  0  0  0  0  0  0  0  0
   27.8278  -20.1078   -8.1745 C   0  0  0  0  0  0  0  0  0  0  0  0
   27.1416  -20.7338   -9.3372 C   0  0  0  0  0  0  0  0  0  0  0  0
   25.6866  -20.4431   -9.4876 C   0  0  2  0  0  0  0  0  0  0  0  0
   24.9970  -20.9675   -8.2268 C   0  0  0  0  0  0  0  0  0  0  0  0
   25.0408  -21.0043  -10.7278 C   0  0  2  0  0  0  0  0  0  0  0  0
   25.7396  -20.4187  -11.8552 N   0  0  0  0  0  0  0  0  0  0  0  0
   23.5966  -20.8136  -10.7521 C   0  0  0  0  0  0  0  0  0  0  0  0
   22.6351  -21.6906  -10.2890 O   0  0  0  0  0  0  0  0  0  0  0  0
   23.1335  -19.7289  -11.2481 O   0  0  0  0  0  0  0  0  0  0  0  0
  2  1  1  6
  3  4  1  0
  3  2  1  0
  5  6  1  0
  5  4  1  0
  6  7  1  0
  8  9  2  0
  8  2  1  0
 10 11  1  0
 11 12  2  0
 12 13  1  0
 14 13  2  0
 14 15  1  0
 16 15  1  6
 16 17  1  0
 17  8  1  0
 18 16  1  0
 18 19  2  0
 20 14  1  0
 21 11  1  0
 21 20  2  0
 23 22  1  0
 24 23  1  0
 24 26  1  0
 24 25  1  1
 26 27  1  6
 27 18  1  0
 28 29  1  0
 28 26  1  0
 30 28  2  0
M  END
$$$$
