KYI.pdb
     RDKit          3D

 30 30  0  0  1  0  0  0  0  0999 V2000
   29.0152  -20.7022  -18.4162 N   0  0  0  0  0  0  0  0  0  0  0  0
   28.4583  -21.4204  -17.2692 C   0  0  1  0  0  0  0  0  0  0  0  0
   29.4912  -21.5792  -16.1935 C   0  0  0  0  0  0  0  0  0  0  0  0
   29.7111  -23.0002  -15.8078 C   0  0  0  0  0  0  0  0  0  0  0  0
   30.1526  -23.8100  -17.0334 C   0  0  0  0  0  0  0  0  0  0  0  0
   30.3611  -25.2592  -16.7199 C   0  0  0  0  0  0  0  0  0  0  0  0
   30.7014  -25.9471  -17.9613 N   0  0  0  0  0  0  0  0  0  0  0  0
   27.2103  -20.7504  -16.8104 C   0  0  0  0  0  0  0  0  0  0  0  0
   27.1498  -19.5528  -16.4428 O   0  0  0  0  0  0  0  0  0  0  0  0
   18.6344  -19.3667  -14.8939 O   0  0  0  0  0  0  0  0  0  0  0  0
   19.8614  -19.7641  -15.4344 C   0  0  0  0  0  0  0  0  0  0  0  0
   20.7442  -18.8583  -15.9708 C   0  0  0  0  0  0  0  0  0  0  0  0
   21.9747  -19.2364  -16.5155 C   0  0  0  0  0  0  0  0  0  0  0  0
   22.3012  -20.5726  -16.5070 C   0  0  0  0  0  0  0  0  0  0  0  0
   23.5734  -21.0261  -17.0613 C   0  0  0  0  0  0  0  0  0  0  0  0
   24.7594  -20.8701  -16.1597 C   0  0  2  0  0  0  0  0  0  0  0  0
   25.9631  -21.4626  -16.7615 N   0  0  0  0  0  0  0  0  0  0  0  0
   24.6090  -21.4075  -14.8129 C   0  0  0  0  0  0  0  0  0  0  0  0
   24.7875  -22.6324  -14.5147 O   0  0  0  0  0  0  0  0  0  0  0  0
   21.4183  -21.4922  -15.9689 C   0  0  0  0  0  0  0  0  0  0  0  0
   20.1969  -21.0947  -15.4310 C   0  0  0  0  0  0  0  0  0  0  0  0
   27.5854  -21.1335  -11.0891 C   0  0  0  0  0  0  0  0  0  0  0  0
   26.3935  -21.4364  -11.9272 C   0  0  0  0  0  0  0  0  0  0  0  0
   25.1235  -20.7511  -11.5514 C   0  0  2  0  0  0  0  0  0  0  0  0
   24.8406  -21.1105  -10.0916 C   0  0  0  0  0  0  0  0  0  0  0  0
   23.9364  -21.0674  -12.4239 C   0  0  2  0  0  0  0  0  0  0  0  0
   24.2454  -20.5473  -13.7416 N   0  0  0  0  0  0  0  0  0  0  0  0
   22.6787  -20.5856  -11.8682 C   0  0  0  0  0  0  0  0  0  0  0  0
   21.7547  -21.3170  -11.1476 O   0  0  0  0  0  0  0  0  0  0  0  0
   22.3640  -19.3584  -12.0472 O   0  0  0  0  0  0  0  0  0  0  0  0
  2  1  1  6
  3  4  1  0
  3  2  1  0
  5  6  1  0
  5  4  1  0
  6  7  1  0
  8  9  2  0
  8  2  1  0
 10 11  1  0
 11 12  2  0
 12 13  1  0
 14 13  2  0
 14 15  1  0
 16 15  1  6
 16 17  1  0
 17  8  1  0
 18 16  1  0
 18 19  2  0
 20 14  1  0
 21 11  1  0
 21 20  2  0
 23 22  1  0
 24 23  1  0
 24 26  1  0
 24 25  1  1
 26 27  1  6
 27 18  1  0
 28 29  1  0
 28 26  1  0
 30 28  2  0
M  END
$$$$
