KYI.pdb
     RDKit          3D

 30 30  0  0  1  0  0  0  0  0999 V2000
   26.1146  -19.9575  -15.2108 N   0  0  0  0  0  0  0  0  0  0  0  0
   27.0181  -20.3334  -14.1226 C   0  0  1  0  0  0  0  0  0  0  0  0
   28.3820  -19.7500  -14.3434 C   0  0  0  0  0  0  0  0  0  0  0  0
   29.0659  -20.3142  -15.5394 C   0  0  0  0  0  0  0  0  0  0  0  0
   29.5599  -21.7342  -15.2351 C   0  0  0  0  0  0  0  0  0  0  0  0
   30.2106  -22.3819  -16.4178 C   0  0  0  0  0  0  0  0  0  0  0  0
   30.7772  -23.6547  -15.9829 N   0  0  0  0  0  0  0  0  0  0  0  0
   26.4121  -19.9670  -12.8129 C   0  0  0  0  0  0  0  0  0  0  0  0
   26.0089  -18.8154  -12.5226 O   0  0  0  0  0  0  0  0  0  0  0  0
   20.4616  -19.3810  -14.1306 O   0  0  0  0  0  0  0  0  0  0  0  0
   21.3985  -19.8259  -13.1925 C   0  0  0  0  0  0  0  0  0  0  0  0
   21.5957  -19.1734  -11.9997 C   0  0  0  0  0  0  0  0  0  0  0  0
   22.5270  -19.6029  -11.0501 C   0  0  0  0  0  0  0  0  0  0  0  0
   23.2687  -20.7257  -11.3353 C   0  0  0  0  0  0  0  0  0  0  0  0
   24.2559  -21.2215  -10.3806 C   0  0  0  0  0  0  0  0  0  0  0  0
   25.6186  -20.6088  -10.4885 C   0  0  2  0  0  0  0  0  0  0  0  0
   26.2498  -20.9455  -11.7731 N   0  0  0  0  0  0  0  0  0  0  0  0
   26.5514  -20.9415   -9.4188 C   0  0  0  0  0  0  0  0  0  0  0  0
   27.4051  -21.8834   -9.4904 O   0  0  0  0  0  0  0  0  0  0  0  0
   23.0771  -21.3895  -12.5341 C   0  0  0  0  0  0  0  0  0  0  0  0
   22.1437  -20.9451  -13.4671 C   0  0  0  0  0  0  0  0  0  0  0  0
   29.7045  -18.5182   -4.8706 C   0  0  0  0  0  0  0  0  0  0  0  0
   28.9571  -19.6920   -5.3979 C   0  0  0  0  0  0  0  0  0  0  0  0
   27.9883  -19.4247   -6.4997 C   0  0  2  0  0  0  0  0  0  0  0  0
   26.9909  -18.3916   -5.9724 C   0  0  0  0  0  0  0  0  0  0  0  0
   27.2739  -20.6366   -7.0395 C   0  0  2  0  0  0  0  0  0  0  0  0
   26.5419  -20.1937   -8.2102 N   0  0  0  0  0  0  0  0  0  0  0  0
   26.4552  -21.3064   -6.0377 C   0  0  0  0  0  0  0  0  0  0  0  0
   26.8977  -22.1140   -5.0082 O   0  0  0  0  0  0  0  0  0  0  0  0
   25.1860  -21.1522   -6.0857 O   0  0  0  0  0  0  0  0  0  0  0  0
  2  1  1  6
  3  4  1  0
  3  2  1  0
  5  6  1  0
  5  4  1  0
  6  7  1  0
  8  9  2  0
  8  2  1  0
 10 11  1  0
 11 12  2  0
 12 13  1  0
 14 13  2  0
 14 15  1  0
 16 15  1  1
 16 17  1  0
 17  8  1  0
 18 16  1  0
 18 19  2  0
 20 14  1  0
 21 11  1  0
 21 20  2  0
 23 22  1  0
 24 23  1  0
 24 26  1  0
 24 25  1  1
 26 27  1  6
 27 18  1  0
 28 29  1  0
 28 26  1  0
 30 28  2  0
M  END
$$$$
