KYI.pdb
     RDKit          3D

 30 30  0  0  1  0  0  0  0  0999 V2000
   27.1842  -19.8034  -16.2463 N   0  0  0  0  0  0  0  0  0  0  0  0
   27.9401  -19.0210  -15.2674 C   0  0  1  0  0  0  0  0  0  0  0  0
   28.3431  -17.6978  -15.8469 C   0  0  0  0  0  0  0  0  0  0  0  0
   28.8083  -17.8014  -17.2573 C   0  0  0  0  0  0  0  0  0  0  0  0
   29.7963  -18.9665  -17.3954 C   0  0  0  0  0  0  0  0  0  0  0  0
   30.3961  -19.0521  -18.7647 C   0  0  0  0  0  0  0  0  0  0  0  0
   31.3599  -20.1481  -18.7697 N   0  0  0  0  0  0  0  0  0  0  0  0
   27.1656  -18.9120  -14.0005 C   0  0  0  0  0  0  0  0  0  0  0  0
   26.5277  -17.8897  -13.6525 O   0  0  0  0  0  0  0  0  0  0  0  0
   19.7391  -20.4219  -10.5455 O   0  0  0  0  0  0  0  0  0  0  0  0
   21.0033  -20.5423  -11.1311 C   0  0  0  0  0  0  0  0  0  0  0  0
   21.4007  -19.7351  -12.1695 C   0  0  0  0  0  0  0  0  0  0  0  0
   22.6596  -19.8405  -12.7674 C   0  0  0  0  0  0  0  0  0  0  0  0
   23.5249  -20.7954  -12.2862 C   0  0  0  0  0  0  0  0  0  0  0  0
   24.8536  -20.9508  -12.8711 C   0  0  0  0  0  0  0  0  0  0  0  0
   25.9513  -20.2004  -12.1813 C   0  0  2  0  0  0  0  0  0  0  0  0
   27.1035  -20.0090  -13.0743 N   0  0  0  0  0  0  0  0  0  0  0  0
   26.4309  -20.7809  -10.9330 C   0  0  0  0  0  0  0  0  0  0  0  0
   27.1775  -21.8103  -10.8710 O   0  0  0  0  0  0  0  0  0  0  0  0
   23.1335  -21.6129  -11.2408 C   0  0  0  0  0  0  0  0  0  0  0  0
   21.8742  -21.4917  -10.6587 C   0  0  0  0  0  0  0  0  0  0  0  0
   29.0680  -18.6759   -7.0540 C   0  0  0  0  0  0  0  0  0  0  0  0
   28.3154  -19.5906   -7.9548 C   0  0  0  0  0  0  0  0  0  0  0  0
   26.9545  -19.9998   -7.5027 C   0  0  2  0  0  0  0  0  0  0  0  0
   27.1202  -20.6464   -6.1263 C   0  0  0  0  0  0  0  0  0  0  0  0
   26.2100  -20.9138   -8.4412 C   0  0  2  0  0  0  0  0  0  0  0  0
   26.0692  -20.1923   -9.6910 N   0  0  0  0  0  0  0  0  0  0  0  0
   24.9546  -21.3996   -7.8839 C   0  0  0  0  0  0  0  0  0  0  0  0
   24.7757  -22.5127   -7.0858 O   0  0  0  0  0  0  0  0  0  0  0  0
   23.8824  -20.7501   -8.1403 O   0  0  0  0  0  0  0  0  0  0  0  0
  2  1  1  6
  3  4  1  0
  3  2  1  0
  5  6  1  0
  5  4  1  0
  6  7  1  0
  8  9  2  0
  8  2  1  0
 10 11  1  0
 11 12  2  0
 12 13  1  0
 14 13  2  0
 14 15  1  0
 16 15  1  6
 16 17  1  0
 17  8  1  0
 18 16  1  0
 18 19  2  0
 20 14  1  0
 21 11  1  0
 21 20  2  0
 23 22  1  0
 24 23  1  0
 24 26  1  0
 24 25  1  1
 26 27  1  6
 27 18  1  0
 28 29  1  0
 28 26  1  0
 30 28  2  0
M  END
$$$$
