KYI.pdb
     RDKit          3D

 30 30  0  0  1  0  0  0  0  0999 V2000
   27.1622  -22.9516  -15.3944 N   0  0  0  0  0  0  0  0  0  0  0  0
   26.9873  -21.6206  -14.8115 C   0  0  1  0  0  0  0  0  0  0  0  0
   25.8368  -20.9082  -15.4579 C   0  0  0  0  0  0  0  0  0  0  0  0
   26.0812  -20.5981  -16.8934 C   0  0  0  0  0  0  0  0  0  0  0  0
   26.2959  -19.0897  -17.0710 C   0  0  0  0  0  0  0  0  0  0  0  0
   26.4127  -18.6915  -18.5097 C   0  0  0  0  0  0  0  0  0  0  0  0
   27.6098  -19.3208  -19.0584 N   0  0  0  0  0  0  0  0  0  0  0  0
   26.8728  -21.7281  -13.3309 C   0  0  0  0  0  0  0  0  0  0  0  0
   26.1246  -22.5439  -12.7412 O   0  0  0  0  0  0  0  0  0  0  0  0
   27.9265  -19.6501   -4.7190 O   0  0  0  0  0  0  0  0  0  0  0  0
   28.0879  -19.7901   -6.1010 C   0  0  0  0  0  0  0  0  0  0  0  0
   28.8087  -20.8255   -6.6451 C   0  0  0  0  0  0  0  0  0  0  0  0
   28.9810  -20.9820   -8.0233 C   0  0  0  0  0  0  0  0  0  0  0  0
   28.3995  -20.0543   -8.8560 C   0  0  0  0  0  0  0  0  0  0  0  0
   28.5448  -20.1673  -10.3043 C   0  0  0  0  0  0  0  0  0  0  0  0
   27.4116  -20.8437  -11.0132 C   0  0  2  0  0  0  0  0  0  0  0  0
   27.6391  -20.8742  -12.4655 N   0  0  0  0  0  0  0  0  0  0  0  0
   26.0866  -20.2872  -10.7688 C   0  0  0  0  0  0  0  0  0  0  0  0
   25.6037  -19.2989  -11.4101 O   0  0  0  0  0  0  0  0  0  0  0  0
   27.6716  -19.0081   -8.3172 C   0  0  0  0  0  0  0  0  0  0  0  0
   27.5119  -18.8701   -6.9407 C   0  0  0  0  0  0  0  0  0  0  0  0
   22.9816  -20.3251  -13.3365 C   0  0  0  0  0  0  0  0  0  0  0  0
   23.6311  -19.9682  -12.0460 C   0  0  0  0  0  0  0  0  0  0  0  0
   23.1443  -20.6877  -10.8339 C   0  0  2  0  0  0  0  0  0  0  0  0
   21.6593  -20.3518  -10.6852 C   0  0  0  0  0  0  0  0  0  0  0  0
   23.8940  -20.3895   -9.5613 C   0  0  2  0  0  0  0  0  0  0  0  0
   25.2523  -20.8533   -9.7670 N   0  0  0  0  0  0  0  0  0  0  0  0
   23.2452  -20.9384   -8.3779 C   0  0  0  0  0  0  0  0  0  0  0  0
   22.2812  -20.3269   -7.6002 O   0  0  0  0  0  0  0  0  0  0  0  0
   23.5792  -22.1105   -7.9884 O   0  0  0  0  0  0  0  0  0  0  0  0
  2  1  1  6
  3  4  1  0
  3  2  1  0
  5  6  1  0
  5  4  1  0
  6  7  1  0
  8  9  2  0
  8  2  1  0
 10 11  1  0
 11 12  2  0
 12 13  1  0
 14 13  2  0
 14 15  1  0
 16 15  1  1
 16 17  1  0
 17  8  1  0
 18 16  1  0
 18 19  2  0
 20 14  1  0
 21 11  1  0
 21 20  2  0
 23 22  1  0
 24 23  1  0
 24 26  1  0
 24 25  1  1
 26 27  1  6
 27 18  1  0
 28 29  1  0
 28 26  1  0
 30 28  2  0
M  END
$$$$
