KYI.pdb
     RDKit          3D

 30 30  0  0  1  0  0  0  0  0999 V2000
   27.0591  -19.0865  -16.6581 N   0  0  0  0  0  0  0  0  0  0  0  0
   27.4151  -19.9236  -15.5118 C   0  0  1  0  0  0  0  0  0  0  0  0
   28.8664  -19.7615  -15.1701 C   0  0  0  0  0  0  0  0  0  0  0  0
   29.7534  -20.6400  -15.9812 C   0  0  0  0  0  0  0  0  0  0  0  0
   29.3970  -22.1112  -15.7333 C   0  0  0  0  0  0  0  0  0  0  0  0
   30.3393  -23.0536  -16.4157 C   0  0  0  0  0  0  0  0  0  0  0  0
   30.1079  -22.9637  -17.8539 N   0  0  0  0  0  0  0  0  0  0  0  0
   26.4948  -19.6431  -14.3755 C   0  0  0  0  0  0  0  0  0  0  0  0
   26.2223  -18.4916  -13.9596 O   0  0  0  0  0  0  0  0  0  0  0  0
   19.4819  -19.6306   -9.2053 O   0  0  0  0  0  0  0  0  0  0  0  0
   20.4842  -19.9589  -10.1236 C   0  0  0  0  0  0  0  0  0  0  0  0
   21.1773  -21.1427  -10.0473 C   0  0  0  0  0  0  0  0  0  0  0  0
   22.1819  -21.4883  -10.9556 C   0  0  0  0  0  0  0  0  0  0  0  0
   22.4775  -20.5973  -11.9610 C   0  0  0  0  0  0  0  0  0  0  0  0
   23.5167  -20.9049  -12.9392 C   0  0  0  0  0  0  0  0  0  0  0  0
   24.8968  -20.4498  -12.5756 C   0  0  2  0  0  0  0  0  0  0  0  0
   25.8453  -20.7121  -13.6680 N   0  0  0  0  0  0  0  0  0  0  0  0
   25.4473  -21.0092  -11.3471 C   0  0  0  0  0  0  0  0  0  0  0  0
   25.9791  -22.1634  -11.2699 O   0  0  0  0  0  0  0  0  0  0  0  0
   21.7848  -19.4025  -12.0458 C   0  0  0  0  0  0  0  0  0  0  0  0
   20.7870  -19.0771  -11.1305 C   0  0  0  0  0  0  0  0  0  0  0  0
   28.2642  -19.3898   -6.2590 C   0  0  0  0  0  0  0  0  0  0  0  0
   27.2836  -20.3060   -6.9020 C   0  0  0  0  0  0  0  0  0  0  0  0
   26.7021  -19.8553   -8.1991 C   0  0  2  0  0  0  0  0  0  0  0  0
   25.9859  -18.5310   -7.9278 C   0  0  0  0  0  0  0  0  0  0  0  0
   25.7790  -20.8394   -8.8698 C   0  0  2  0  0  0  0  0  0  0  0  0
   25.4103  -20.2536  -10.1438 N   0  0  0  0  0  0  0  0  0  0  0  0
   24.6477  -21.2178   -8.0333 C   0  0  0  0  0  0  0  0  0  0  0  0
   24.6003  -22.2515   -7.1183 O   0  0  0  0  0  0  0  0  0  0  0  0
   23.5656  -20.5419   -8.1299 O   0  0  0  0  0  0  0  0  0  0  0  0
  2  1  1  6
  3  4  1  0
  3  2  1  0
  5  6  1  0
  5  4  1  0
  6  7  1  0
  8  9  2  0
  8  2  1  0
 10 11  1  0
 11 12  2  0
 12 13  1  0
 14 13  2  0
 14 15  1  0
 16 15  1  6
 16 17  1  0
 17  8  1  0
 18 16  1  0
 18 19  2  0
 20 14  1  0
 21 11  1  0
 21 20  2  0
 23 22  1  0
 24 23  1  0
 24 26  1  0
 24 25  1  1
 26 27  1  6
 27 18  1  0
 28 29  1  0
 28 26  1  0
 30 28  2  0
M  END
$$$$
