KYI.pdb
     RDKit          3D

 30 30  0  0  1  0  0  0  0  0999 V2000
   24.2179  -25.6502  -15.4856 N   0  0  0  0  0  0  0  0  0  0  0  0
   25.3871  -24.7712  -15.4411 C   0  0  1  0  0  0  0  0  0  0  0  0
   26.2958  -25.0420  -16.6031 C   0  0  0  0  0  0  0  0  0  0  0  0
   26.3158  -26.4768  -16.9998 C   0  0  0  0  0  0  0  0  0  0  0  0
   27.6199  -27.1301  -16.5248 C   0  0  0  0  0  0  0  0  0  0  0  0
   27.6739  -28.5946  -16.8319 C   0  0  0  0  0  0  0  0  0  0  0  0
   28.9753  -29.0993  -16.4058 N   0  0  0  0  0  0  0  0  0  0  0  0
   24.9491  -23.3519  -15.3381 C   0  0  0  0  0  0  0  0  0  0  0  0
   23.7619  -22.9711  -15.4749 O   0  0  0  0  0  0  0  0  0  0  0  0
   24.1948  -21.4135   -8.7211 O   0  0  0  0  0  0  0  0  0  0  0  0
   24.6980  -21.1166   -9.9916 C   0  0  0  0  0  0  0  0  0  0  0  0
   25.9754  -21.4595  -10.3634 C   0  0  0  0  0  0  0  0  0  0  0  0
   26.4958  -21.1714  -11.6282 C   0  0  0  0  0  0  0  0  0  0  0  0
   25.6845  -20.5177  -12.5264 C   0  0  0  0  0  0  0  0  0  0  0  0
   26.1737  -20.1914  -13.8627 C   0  0  0  0  0  0  0  0  0  0  0  0
   25.4817  -20.8944  -14.9900 C   0  0  2  0  0  0  0  0  0  0  0  0
   25.8939  -22.3037  -15.0671 N   0  0  0  0  0  0  0  0  0  0  0  0
   25.6470  -20.2961  -16.3090 C   0  0  0  0  0  0  0  0  0  0  0  0
   26.7386  -20.3151  -16.9641 O   0  0  0  0  0  0  0  0  0  0  0  0
   24.3965  -20.1683  -12.1610 C   0  0  0  0  0  0  0  0  0  0  0  0
   23.8970  -20.4647  -10.8953 C   0  0  0  0  0  0  0  0  0  0  0  0
   22.8956  -21.9670  -20.1202 C   0  0  0  0  0  0  0  0  0  0  0  0
   23.8888  -21.2341  -19.2891 C   0  0  0  0  0  0  0  0  0  0  0  0
   23.6740  -19.7665  -19.1339 C   0  0  2  0  0  0  0  0  0  0  0  0
   23.6622  -19.1686  -20.5420 C   0  0  0  0  0  0  0  0  0  0  0  0
   24.6720  -19.0571  -18.2558 C   0  0  2  0  0  0  0  0  0  0  0  0
   24.5498  -19.6464  -16.9367 N   0  0  0  0  0  0  0  0  0  0  0  0
   24.5225  -17.6081  -18.2820 C   0  0  0  0  0  0  0  0  0  0  0  0
   25.2518  -16.7114  -19.0384 O   0  0  0  0  0  0  0  0  0  0  0  0
   23.6294  -17.0742  -17.5375 O   0  0  0  0  0  0  0  0  0  0  0  0
  2  1  1  6
  3  4  1  0
  3  2  1  0
  5  6  1  0
  5  4  1  0
  6  7  1  0
  8  9  2  0
  8  2  1  0
 10 11  1  0
 11 12  2  0
 12 13  1  0
 14 13  2  0
 14 15  1  0
 16 15  1  1
 16 17  1  0
 17  8  1  0
 18 16  1  0
 18 19  2  0
 20 14  1  0
 21 11  1  0
 21 20  2  0
 23 22  1  0
 24 23  1  0
 24 26  1  0
 24 25  1  6
 26 27  1  1
 27 18  1  0
 28 29  1  0
 28 26  1  0
 30 28  2  0
M  END
$$$$
