KYI.pdb
     RDKit          3D

 30 30  0  0  1  0  0  0  0  0999 V2000
   26.7509  -22.8978  -15.1985 N   0  0  0  0  0  0  0  0  0  0  0  0
   26.7395  -21.5490  -14.6309 C   0  0  1  0  0  0  0  0  0  0  0  0
   25.7817  -20.6697  -15.3784 C   0  0  0  0  0  0  0  0  0  0  0  0
   26.0939  -20.5779  -16.8312 C   0  0  0  0  0  0  0  0  0  0  0  0
   27.4467  -19.8828  -17.0301 C   0  0  0  0  0  0  0  0  0  0  0  0
   27.7824  -19.6818  -18.4754 C   0  0  0  0  0  0  0  0  0  0  0  0
   29.0765  -19.0113  -18.5511 N   0  0  0  0  0  0  0  0  0  0  0  0
   26.4751  -21.6185  -13.1673 C   0  0  0  0  0  0  0  0  0  0  0  0
   25.6151  -22.3661  -12.6432 O   0  0  0  0  0  0  0  0  0  0  0  0
   27.1606  -19.9203   -4.4459 O   0  0  0  0  0  0  0  0  0  0  0  0
   27.3736  -19.9737   -5.8270 C   0  0  0  0  0  0  0  0  0  0  0  0
   27.3597  -18.8425   -6.6066 C   0  0  0  0  0  0  0  0  0  0  0  0
   27.5704  -18.8760   -7.9879 C   0  0  0  0  0  0  0  0  0  0  0  0
   27.7996  -20.0979   -8.5765 C   0  0  0  0  0  0  0  0  0  0  0  0
   28.0272  -20.1941  -10.0155 C   0  0  0  0  0  0  0  0  0  0  0  0
   26.9044  -20.7939  -10.8051 C   0  0  2  0  0  0  0  0  0  0  0  0
   27.2154  -20.8054  -12.2421 N   0  0  0  0  0  0  0  0  0  0  0  0
   25.5978  -20.1730  -10.6244 C   0  0  0  0  0  0  0  0  0  0  0  0
   25.2678  -19.0547  -11.1357 O   0  0  0  0  0  0  0  0  0  0  0  0
   27.8154  -21.2427   -7.7995 C   0  0  0  0  0  0  0  0  0  0  0  0
   27.6032  -21.1877   -6.4243 C   0  0  0  0  0  0  0  0  0  0  0  0
   22.7098  -20.1232  -13.6212 C   0  0  0  0  0  0  0  0  0  0  0  0
   23.2368  -19.8235  -12.2622 C   0  0  0  0  0  0  0  0  0  0  0  0
   22.6332  -20.5848  -11.1309 C   0  0  2  0  0  0  0  0  0  0  0  0
   21.1380  -20.2613  -11.1262 C   0  0  0  0  0  0  0  0  0  0  0  0
   23.2447  -20.3250   -9.7785 C   0  0  2  0  0  0  0  0  0  0  0  0
   24.6054  -20.8221   -9.8411 N   0  0  0  0  0  0  0  0  0  0  0  0
   22.4553  -20.8730   -8.6834 C   0  0  0  0  0  0  0  0  0  0  0  0
   21.3978  -20.2643   -8.0361 O   0  0  0  0  0  0  0  0  0  0  0  0
   22.7442  -22.0414   -8.2493 O   0  0  0  0  0  0  0  0  0  0  0  0
  2  1  1  6
  3  4  1  0
  3  2  1  0
  5  6  1  0
  5  4  1  0
  6  7  1  0
  8  9  2  0
  8  2  1  0
 10 11  1  0
 11 12  2  0
 12 13  1  0
 14 13  2  0
 14 15  1  0
 16 15  1  1
 16 17  1  0
 17  8  1  0
 18 16  1  0
 18 19  2  0
 20 14  1  0
 21 11  1  0
 21 20  2  0
 23 22  1  0
 24 23  1  0
 24 26  1  0
 24 25  1  1
 26 27  1  6
 27 18  1  0
 28 29  1  0
 28 26  1  0
 30 28  2  0
M  END
$$$$
