KYI.pdb
     RDKit          3D

 30 30  0  0  1  0  0  0  0  0999 V2000
   27.6347  -21.4252  -14.1093 N   0  0  0  0  0  0  0  0  0  0  0  0
   27.8756  -20.0392  -13.7060 C   0  0  1  0  0  0  0  0  0  0  0  0
   27.4901  -19.0948  -14.8054 C   0  0  0  0  0  0  0  0  0  0  0  0
   27.3762  -19.7647  -16.1301 C   0  0  0  0  0  0  0  0  0  0  0  0
   28.7704  -20.1510  -16.6397 C   0  0  0  0  0  0  0  0  0  0  0  0
   28.7436  -20.6831  -18.0390 C   0  0  0  0  0  0  0  0  0  0  0  0
   30.0967  -21.1026  -18.3904 N   0  0  0  0  0  0  0  0  0  0  0  0
   27.1953  -19.7640  -12.4106 C   0  0  0  0  0  0  0  0  0  0  0  0
   26.9050  -18.6152  -11.9993 O   0  0  0  0  0  0  0  0  0  0  0  0
   20.7469  -19.1239  -13.5773 O   0  0  0  0  0  0  0  0  0  0  0  0
   21.7394  -19.6597  -12.7506 C   0  0  0  0  0  0  0  0  0  0  0  0
   21.8988  -19.2482  -11.4495 C   0  0  0  0  0  0  0  0  0  0  0  0
   22.8847  -19.7718  -10.6084 C   0  0  0  0  0  0  0  0  0  0  0  0
   23.7217  -20.7372  -11.1177 C   0  0  0  0  0  0  0  0  0  0  0  0
   24.7694  -21.3211  -10.2853 C   0  0  0  0  0  0  0  0  0  0  0  0
   26.0751  -20.5870  -10.2864 C   0  0  2  0  0  0  0  0  0  0  0  0
   26.8206  -20.8353  -11.5292 N   0  0  0  0  0  0  0  0  0  0  0  0
   26.9590  -20.8607   -9.1599 C   0  0  0  0  0  0  0  0  0  0  0  0
   27.8287  -21.7905   -9.1510 O   0  0  0  0  0  0  0  0  0  0  0  0
   23.5688  -21.1580  -12.4270 C   0  0  0  0  0  0  0  0  0  0  0  0
   22.5799  -20.6234  -13.2488 C   0  0  0  0  0  0  0  0  0  0  0  0
   31.1892  -20.5479   -8.6215 C   0  0  0  0  0  0  0  0  0  0  0  0
   29.7828  -20.8552   -8.2442 C   0  0  0  0  0  0  0  0  0  0  0  0
   29.1346  -19.9249   -7.2756 C   0  0  2  0  0  0  0  0  0  0  0  0
   30.0697  -19.8181   -6.0695 C   0  0  0  0  0  0  0  0  0  0  0  0
   27.7422  -20.3077   -6.8454 C   0  0  2  0  0  0  0  0  0  0  0  0
   26.8793  -20.0648   -7.9850 N   0  0  0  0  0  0  0  0  0  0  0  0
   27.3220  -19.6391   -5.6211 C   0  0  0  0  0  0  0  0  0  0  0  0
   27.5183  -20.0775   -4.3260 O   0  0  0  0  0  0  0  0  0  0  0  0
   26.7023  -18.5239   -5.7178 O   0  0  0  0  0  0  0  0  0  0  0  0
  2  1  1  6
  3  4  1  0
  3  2  1  0
  5  6  1  0
  5  4  1  0
  6  7  1  0
  8  9  2  0
  8  2  1  0
 10 11  1  0
 11 12  2  0
 12 13  1  0
 14 13  2  0
 14 15  1  0
 16 15  1  1
 16 17  1  0
 17  8  1  0
 18 16  1  0
 18 19  2  0
 20 14  1  0
 21 11  1  0
 21 20  2  0
 23 22  1  0
 24 23  1  0
 24 26  1  0
 24 25  1  1
 26 27  1  6
 27 18  1  0
 28 29  1  0
 28 26  1  0
 30 28  2  0
M  END
$$$$
