KYI.pdb
     RDKit          3D

 30 30  0  0  1  0  0  0  0  0999 V2000
   18.5428  -20.2328  -15.3621 N   0  0  0  0  0  0  0  0  0  0  0  0
   19.7761  -20.1016  -16.1389 C   0  0  1  0  0  0  0  0  0  0  0  0
   19.6055  -19.0909  -17.2337 C   0  0  0  0  0  0  0  0  0  0  0  0
   18.9203  -19.6469  -18.4328 C   0  0  0  0  0  0  0  0  0  0  0  0
   19.9578  -20.0193  -19.4995 C   0  0  0  0  0  0  0  0  0  0  0  0
   19.7487  -19.2828  -20.7862 C   0  0  0  0  0  0  0  0  0  0  0  0
   18.8198  -20.0554  -21.6049 N   0  0  0  0  0  0  0  0  0  0  0  0
   20.9190  -19.8151  -15.2287 C   0  0  0  0  0  0  0  0  0  0  0  0
   21.2910  -18.6606  -14.9095 O   0  0  0  0  0  0  0  0  0  0  0  0
   27.1757  -20.7389   -9.0349 O   0  0  0  0  0  0  0  0  0  0  0  0
   26.1328  -20.9558   -9.9410 C   0  0  0  0  0  0  0  0  0  0  0  0
   26.2931  -21.7435  -11.0552 C   0  0  0  0  0  0  0  0  0  0  0  0
   25.2629  -21.9718  -11.9718 C   0  0  0  0  0  0  0  0  0  0  0  0
   24.0452  -21.3773  -11.7357 C   0  0  0  0  0  0  0  0  0  0  0  0
   22.9321  -21.5807  -12.6583 C   0  0  0  0  0  0  0  0  0  0  0  0
   22.8598  -20.6151  -13.8012 C   0  0  2  0  0  0  0  0  0  0  0  0
   21.6858  -20.8814  -14.6453 N   0  0  0  0  0  0  0  0  0  0  0  0
   24.0369  -20.5568  -14.6593 C   0  0  0  0  0  0  0  0  0  0  0  0
   24.2382  -21.3426  -15.6406 O   0  0  0  0  0  0  0  0  0  0  0  0
   23.8744  -20.5822  -10.6162 C   0  0  0  0  0  0  0  0  0  0  0  0
   24.9139  -20.3673   -9.7149 C   0  0  0  0  0  0  0  0  0  0  0  0
   27.7510  -16.3068  -16.8539 C   0  0  0  0  0  0  0  0  0  0  0  0
   27.5950  -17.7279  -16.4405 C   0  0  0  0  0  0  0  0  0  0  0  0
   26.4545  -18.0354  -15.5302 C   0  0  2  0  0  0  0  0  0  0  0  0
   26.6995  -17.2597  -14.2346 C   0  0  0  0  0  0  0  0  0  0  0  0
   26.2299  -19.4983  -15.2480 C   0  0  2  0  0  0  0  0  0  0  0  0
   25.0408  -19.5790  -14.4222 N   0  0  0  0  0  0  0  0  0  0  0  0
   27.4006  -20.1535  -14.6799 C   0  0  0  0  0  0  0  0  0  0  0  0
   28.3546  -20.8853  -15.3599 O   0  0  0  0  0  0  0  0  0  0  0  0
   27.5984  -20.0619  -13.4192 O   0  0  0  0  0  0  0  0  0  0  0  0
  2  1  1  1
  3  4  1  0
  3  2  1  0
  5  6  1  0
  5  4  1  0
  6  7  1  0
  8  9  2  0
  8  2  1  0
 10 11  1  0
 11 12  2  0
 12 13  1  0
 14 13  2  0
 14 15  1  0
 16 15  1  1
 16 17  1  0
 17  8  1  0
 18 16  1  0
 18 19  2  0
 20 14  1  0
 21 11  1  0
 21 20  2  0
 23 22  1  0
 24 23  1  0
 24 26  1  0
 24 25  1  1
 26 27  1  1
 27 18  1  0
 28 29  1  0
 28 26  1  0
 30 28  2  0
M  END
$$$$
