KYI.pdb
     RDKit          3D

 30 30  0  0  1  0  0  0  0  0999 V2000
   26.7552  -27.5206  -17.0146 N   0  0  0  0  0  0  0  0  0  0  0  0
   25.8919  -26.3532  -17.1980 C   0  0  1  0  0  0  0  0  0  0  0  0
   24.4470  -26.7511  -17.1428 C   0  0  0  0  0  0  0  0  0  0  0  0
   23.9124  -27.1740  -18.4664 C   0  0  0  0  0  0  0  0  0  0  0  0
   23.7250  -25.9474  -19.3682 C   0  0  0  0  0  0  0  0  0  0  0  0
   22.5771  -26.1019  -20.3171 C   0  0  0  0  0  0  0  0  0  0  0  0
   21.6739  -27.1121  -19.7751 N   0  0  0  0  0  0  0  0  0  0  0  0
   26.2614  -25.2925  -16.2206 C   0  0  0  0  0  0  0  0  0  0  0  0
   26.8333  -25.5134  -15.1264 O   0  0  0  0  0  0  0  0  0  0  0  0
   32.0834  -23.2644  -18.4481 O   0  0  0  0  0  0  0  0  0  0  0  0
   30.8452  -22.8875  -17.9187 C   0  0  0  0  0  0  0  0  0  0  0  0
   29.7895  -22.5353  -18.7244 C   0  0  0  0  0  0  0  0  0  0  0  0
   28.5449  -22.1559  -18.2139 C   0  0  0  0  0  0  0  0  0  0  0  0
   28.3855  -22.1393  -16.8477 C   0  0  0  0  0  0  0  0  0  0  0  0
   27.1074  -21.7524  -16.2575 C   0  0  0  0  0  0  0  0  0  0  0  0
   26.3689  -22.8466  -15.5494 C   0  0  2  0  0  0  0  0  0  0  0  0
   25.9737  -23.9097  -16.4852 N   0  0  0  0  0  0  0  0  0  0  0  0
   25.1886  -22.4348  -14.7995 C   0  0  0  0  0  0  0  0  0  0  0  0
   23.9943  -22.6181  -15.2008 O   0  0  0  0  0  0  0  0  0  0  0  0
   29.4429  -22.4925  -16.0282 C   0  0  0  0  0  0  0  0  0  0  0  0
   30.6753  -22.8675  -16.5571 C   0  0  0  0  0  0  0  0  0  0  0  0
   26.1872  -21.1420   -9.4879 C   0  0  0  0  0  0  0  0  0  0  0  0
   25.5070  -21.6955  -10.6901 C   0  0  0  0  0  0  0  0  0  0  0  0
   24.7212  -20.7320  -11.5136 C   0  0  2  0  0  0  0  0  0  0  0  0
   23.5820  -20.2198  -10.6304 C   0  0  0  0  0  0  0  0  0  0  0  0
   24.1910  -21.2768  -12.8146 C   0  0  2  0  0  0  0  0  0  0  0  0
   25.3358  -21.7901  -13.5414 N   0  0  0  0  0  0  0  0  0  0  0  0
   23.3961  -20.3060  -13.5550 C   0  0  0  0  0  0  0  0  0  0  0  0
   23.8523  -19.4040  -14.4964 O   0  0  0  0  0  0  0  0  0  0  0  0
   22.1366  -20.2555  -13.3355 O   0  0  0  0  0  0  0  0  0  0  0  0
  2  1  1  1
  3  4  1  0
  3  2  1  0
  5  6  1  0
  5  4  1  0
  6  7  1  0
  8  9  2  0
  8  2  1  0
 10 11  1  0
 11 12  2  0
 12 13  1  0
 14 13  2  0
 14 15  1  0
 16 15  1  6
 16 17  1  0
 17  8  1  0
 18 16  1  0
 18 19  2  0
 20 14  1  0
 21 11  1  0
 21 20  2  0
 23 22  1  0
 24 23  1  0
 24 26  1  0
 24 25  1  1
 26 27  1  6
 27 18  1  0
 28 29  1  0
 28 26  1  0
 30 28  2  0
M  END
$$$$
