KYI.pdb
     RDKit          3D

 30 30  0  0  1  0  0  0  0  0999 V2000
   21.8870  -21.1973  -12.8187 N   0  0  0  0  0  0  0  0  0  0  0  0
   22.5547  -21.0772  -14.1154 C   0  0  1  0  0  0  0  0  0  0  0  0
   21.5618  -20.7568  -15.1928 C   0  0  0  0  0  0  0  0  0  0  0  0
   21.2269  -21.9345  -16.0397 C   0  0  0  0  0  0  0  0  0  0  0  0
   20.3875  -22.9337  -15.2335 C   0  0  0  0  0  0  0  0  0  0  0  0
   19.9304  -24.0970  -16.0580 C   0  0  0  0  0  0  0  0  0  0  0  0
   19.1842  -25.0024  -15.1899 N   0  0  0  0  0  0  0  0  0  0  0  0
   23.6740  -20.1001  -14.0192 C   0  0  0  0  0  0  0  0  0  0  0  0
   23.5567  -18.9402  -13.5566 O   0  0  0  0  0  0  0  0  0  0  0  0
   25.3767  -20.6019   -8.0595 O   0  0  0  0  0  0  0  0  0  0  0  0
   25.8141  -20.4694   -9.3811 C   0  0  0  0  0  0  0  0  0  0  0  0
   25.8858  -21.5458  -10.2320 C   0  0  0  0  0  0  0  0  0  0  0  0
   26.3203  -21.4330  -11.5557 C   0  0  0  0  0  0  0  0  0  0  0  0
   26.6875  -20.1880  -12.0107 C   0  0  0  0  0  0  0  0  0  0  0  0
   27.1484  -20.0094  -13.3845 C   0  0  0  0  0  0  0  0  0  0  0  0
   26.1191  -19.5015  -14.3470 C   0  0  2  0  0  0  0  0  0  0  0  0
   24.9960  -20.4430  -14.4661 N   0  0  0  0  0  0  0  0  0  0  0  0
   26.6007  -19.1913  -15.6875 C   0  0  0  0  0  0  0  0  0  0  0  0
   26.8782  -20.0735  -16.5626 O   0  0  0  0  0  0  0  0  0  0  0  0
   26.6186  -19.0980  -11.1611 C   0  0  0  0  0  0  0  0  0  0  0  0
   26.1828  -19.2317   -9.8453 C   0  0  0  0  0  0  0  0  0  0  0  0
   23.8758  -16.4622  -18.8844 C   0  0  0  0  0  0  0  0  0  0  0  0
   24.9445  -17.2991  -18.2745 C   0  0  0  0  0  0  0  0  0  0  0  0
   26.2645  -16.6399  -18.0576 C   0  0  2  0  0  0  0  0  0  0  0  0
   26.7486  -16.1559  -19.4257 C   0  0  0  0  0  0  0  0  0  0  0  0
   27.3099  -17.4931  -17.3871 C   0  0  2  0  0  0  0  0  0  0  0  0
   26.7824  -17.8378  -16.0813 N   0  0  0  0  0  0  0  0  0  0  0  0
   28.6232  -16.8629  -17.3567 C   0  0  0  0  0  0  0  0  0  0  0  0
   29.2338  -16.2676  -16.2701 O   0  0  0  0  0  0  0  0  0  0  0  0
   29.3133  -16.8405  -18.4338 O   0  0  0  0  0  0  0  0  0  0  0  0
  2  1  1  1
  3  4  1  0
  3  2  1  0
  5  6  1  0
  5  4  1  0
  6  7  1  0
  8  9  2  0
  8  2  1  0
 10 11  1  0
 11 12  2  0
 12 13  1  0
 14 13  2  0
 14 15  1  0
 16 15  1  1
 16 17  1  0
 17  8  1  0
 18 16  1  0
 18 19  2  0
 20 14  1  0
 21 11  1  0
 21 20  2  0
 23 22  1  0
 24 23  1  0
 24 26  1  0
 24 25  1  6
 26 27  1  1
 27 18  1  0
 28 29  1  0
 28 26  1  0
 30 28  2  0
M  END
$$$$
