KYI.pdb
     RDKit          3D

 30 30  0  0  1  0  0  0  0  0999 V2000
   22.0908  -21.1179  -13.3295 N   0  0  0  0  0  0  0  0  0  0  0  0
   22.3784  -20.1689  -12.2532 C   0  0  1  0  0  0  0  0  0  0  0  0
   21.1089  -19.7147  -11.5966 C   0  0  0  0  0  0  0  0  0  0  0  0
   20.4644  -18.5769  -12.3083 C   0  0  0  0  0  0  0  0  0  0  0  0
   20.2168  -18.9531  -13.7745 C   0  0  0  0  0  0  0  0  0  0  0  0
   19.5691  -17.8479  -14.5498 C   0  0  0  0  0  0  0  0  0  0  0  0
   19.4387  -18.2832  -15.9368 N   0  0  0  0  0  0  0  0  0  0  0  0
   23.3661  -20.7598  -11.3086 C   0  0  0  0  0  0  0  0  0  0  0  0
   23.1623  -21.8002  -10.6385 O   0  0  0  0  0  0  0  0  0  0  0  0
   25.3082  -24.5280  -15.5147 O   0  0  0  0  0  0  0  0  0  0  0  0
   25.6881  -23.7111  -14.4452 C   0  0  0  0  0  0  0  0  0  0  0  0
   26.1864  -22.4458  -14.6411 C   0  0  0  0  0  0  0  0  0  0  0  0
   26.5713  -21.6150  -13.5852 C   0  0  0  0  0  0  0  0  0  0  0  0
   26.4403  -22.0972  -12.3036 C   0  0  0  0  0  0  0  0  0  0  0  0
   26.8254  -21.2738  -11.1611 C   0  0  0  0  0  0  0  0  0  0  0  0
   25.6950  -20.8013  -10.2992 C   0  0  2  0  0  0  0  0  0  0  0  0
   24.6515  -20.1504  -11.1051 N   0  0  0  0  0  0  0  0  0  0  0  0
   26.0587  -19.9036   -9.2097 C   0  0  0  0  0  0  0  0  0  0  0  0
   25.9105  -18.6398   -9.2533 O   0  0  0  0  0  0  0  0  0  0  0  0
   25.9395  -23.3703  -12.0964 C   0  0  0  0  0  0  0  0  0  0  0  0
   25.5615  -24.1825  -13.1626 C   0  0  0  0  0  0  0  0  0  0  0  0
   26.8500  -21.9741   -4.0197 C   0  0  0  0  0  0  0  0  0  0  0  0
   26.5116  -21.1124   -5.1848 C   0  0  0  0  0  0  0  0  0  0  0  0
   27.6551  -20.4595   -5.8848 C   0  0  2  0  0  0  0  0  0  0  0  0
   28.4308  -19.6715   -4.8276 C   0  0  0  0  0  0  0  0  0  0  0  0
   27.2817  -19.5773   -7.0478 C   0  0  2  0  0  0  0  0  0  0  0  0
   26.6118  -20.4296   -8.0108 N   0  0  0  0  0  0  0  0  0  0  0  0
   28.4155  -18.8381   -7.5870 C   0  0  0  0  0  0  0  0  0  0  0  0
   28.7737  -17.5367   -7.2938 O   0  0  0  0  0  0  0  0  0  0  0  0
   29.1835  -19.4262   -8.4245 O   0  0  0  0  0  0  0  0  0  0  0  0
  2  1  1  6
  3  4  1  0
  3  2  1  0
  5  6  1  0
  5  4  1  0
  6  7  1  0
  8  9  2  0
  8  2  1  0
 10 11  1  0
 11 12  2  0
 12 13  1  0
 14 13  2  0
 14 15  1  0
 16 15  1  6
 16 17  1  0
 17  8  1  0
 18 16  1  0
 18 19  2  0
 20 14  1  0
 21 11  1  0
 21 20  2  0
 23 22  1  0
 24 23  1  0
 24 26  1  0
 24 25  1  1
 26 27  1  6
 27 18  1  0
 28 29  1  0
 28 26  1  0
 30 28  2  0
M  END
$$$$
