KYI.pdb
     RDKit          3D

 30 30  0  0  1  0  0  0  0  0999 V2000
   24.9735  -14.2954  -17.7547 N   0  0  0  0  0  0  0  0  0  0  0  0
   23.5322  -14.1275  -17.5652 C   0  0  1  0  0  0  0  0  0  0  0  0
   22.9249  -15.3768  -16.9998 C   0  0  0  0  0  0  0  0  0  0  0  0
   23.5855  -16.6161  -17.4941 C   0  0  0  0  0  0  0  0  0  0  0  0
   22.9423  -17.8454  -16.8399 C   0  0  0  0  0  0  0  0  0  0  0  0
   23.4358  -19.1321  -17.4252 C   0  0  0  0  0  0  0  0  0  0  0  0
   22.8262  -20.2310  -16.6830 N   0  0  0  0  0  0  0  0  0  0  0  0
   23.2677  -12.9088  -16.7517 C   0  0  0  0  0  0  0  0  0  0  0  0
   23.6108  -12.7761  -15.5526 O   0  0  0  0  0  0  0  0  0  0  0  0
   23.1441   -4.7276  -13.9848 O   0  0  0  0  0  0  0  0  0  0  0  0
   23.2627   -6.0261  -14.4904 C   0  0  0  0  0  0  0  0  0  0  0  0
   24.0651   -6.3137  -15.5679 C   0  0  0  0  0  0  0  0  0  0  0  0
   24.1963   -7.6047  -16.0872 C   0  0  0  0  0  0  0  0  0  0  0  0
   23.4875   -8.6179  -15.4846 C   0  0  0  0  0  0  0  0  0  0  0  0
   23.5861   -9.9867  -15.9831 C   0  0  0  0  0  0  0  0  0  0  0  0
   22.3156  -10.5666  -16.5247 C   0  0  2  0  0  0  0  0  0  0  0  0
   22.5813  -11.7784  -17.3139 N   0  0  0  0  0  0  0  0  0  0  0  0
   21.4984   -9.6664  -17.3291 C   0  0  0  0  0  0  0  0  0  0  0  0
   21.8338   -9.2453  -18.4829 O   0  0  0  0  0  0  0  0  0  0  0  0
   22.6768   -8.3379  -14.3988 C   0  0  0  0  0  0  0  0  0  0  0  0
   22.5599   -7.0443  -13.8967 C   0  0  0  0  0  0  0  0  0  0  0  0
   16.4338  -10.6167  -17.9628 C   0  0  0  0  0  0  0  0  0  0  0  0
   17.7891  -10.0310  -18.1486 C   0  0  0  0  0  0  0  0  0  0  0  0
   18.0344   -8.7045  -17.5129 C   0  0  2  0  0  0  0  0  0  0  0  0
   17.1023   -7.7045  -18.1994 C   0  0  0  0  0  0  0  0  0  0  0  0
   19.4621   -8.2242  -17.5512 C   0  0  2  0  0  0  0  0  0  0  0  0
   20.2464   -9.2108  -16.8344 N   0  0  0  0  0  0  0  0  0  0  0  0
   19.6163   -6.8617  -17.0587 C   0  0  0  0  0  0  0  0  0  0  0  0
   19.8206   -5.7236  -17.8143 O   0  0  0  0  0  0  0  0  0  0  0  0
   19.5618   -6.6603  -15.7964 O   0  0  0  0  0  0  0  0  0  0  0  0
  2  1  1  1
  3  4  1  0
  3  2  1  0
  5  6  1  0
  5  4  1  0
  6  7  1  0
  8  9  2  0
  8  2  1  0
 10 11  1  0
 11 12  2  0
 12 13  1  0
 14 13  2  0
 14 15  1  0
 16 15  1  6
 16 17  1  0
 17  8  1  0
 18 16  1  0
 18 19  2  0
 20 14  1  0
 21 11  1  0
 21 20  2  0
 23 22  1  0
 24 23  1  0
 24 26  1  0
 24 25  1  6
 26 27  1  1
 27 18  1  0
 28 29  1  0
 28 26  1  0
 30 28  2  0
M  END
$$$$
