KYI.pdb
     RDKit          3D

 30 30  0  0  1  0  0  0  0  0999 V2000
   24.4648  -20.9568  -19.6374 N   0  0  0  0  0  0  0  0  0  0  0  0
   24.0320  -21.6621  -18.4303 C   0  0  1  0  0  0  0  0  0  0  0  0
   24.6862  -23.0088  -18.3425 C   0  0  0  0  0  0  0  0  0  0  0  0
   24.0765  -24.0092  -19.2611 C   0  0  0  0  0  0  0  0  0  0  0  0
   22.8960  -24.7010  -18.5678 C   0  0  0  0  0  0  0  0  0  0  0  0
   21.6752  -24.7587  -19.4329 C   0  0  0  0  0  0  0  0  0  0  0  0
   20.5898  -25.3371  -18.6471 N   0  0  0  0  0  0  0  0  0  0  0  0
   24.2586  -20.8042  -17.2347 C   0  0  0  0  0  0  0  0  0  0  0  0
   25.2886  -20.1124  -17.0511 O   0  0  0  0  0  0  0  0  0  0  0  0
   22.6210  -14.7635  -18.8963 O   0  0  0  0  0  0  0  0  0  0  0  0
   22.5682  -15.7560  -17.9126 C   0  0  0  0  0  0  0  0  0  0  0  0
   23.1827  -15.6013  -16.6935 C   0  0  0  0  0  0  0  0  0  0  0  0
   23.1410  -16.5817  -15.6982 C   0  0  0  0  0  0  0  0  0  0  0  0
   22.4533  -17.7429  -15.9643 C   0  0  0  0  0  0  0  0  0  0  0  0
   22.3750  -18.8017  -14.9621 C   0  0  0  0  0  0  0  0  0  0  0  0
   23.4601  -19.8322  -15.0297 C   0  0  2  0  0  0  0  0  0  0  0  0
   23.2768  -20.7181  -16.1889 N   0  0  0  0  0  0  0  0  0  0  0  0
   23.6245  -20.6609  -13.8417 C   0  0  0  0  0  0  0  0  0  0  0  0
   22.8735  -21.6489  -13.5574 O   0  0  0  0  0  0  0  0  0  0  0  0
   21.8313  -17.9077  -17.1892 C   0  0  0  0  0  0  0  0  0  0  0  0
   21.8848  -16.9183  -18.1677 C   0  0  0  0  0  0  0  0  0  0  0  0
   28.6244  -20.9207  -11.5026 C   0  0  0  0  0  0  0  0  0  0  0  0
   27.2479  -21.2515  -11.9611 C   0  0  0  0  0  0  0  0  0  0  0  0
   26.1270  -20.7830  -11.0962 C   0  0  2  0  0  0  0  0  0  0  0  0
   26.3163  -21.4426   -9.7290 C   0  0  0  0  0  0  0  0  0  0  0  0
   24.7438  -21.0443  -11.6336 C   0  0  2  0  0  0  0  0  0  0  0  0
   24.6732  -20.3850  -12.9230 N   0  0  0  0  0  0  0  0  0  0  0  0
   23.6909  -20.6582  -10.7036 C   0  0  0  0  0  0  0  0  0  0  0  0
   22.9790  -21.4912   -9.8626 O   0  0  0  0  0  0  0  0  0  0  0  0
   23.3646  -19.4232  -10.6313 O   0  0  0  0  0  0  0  0  0  0  0  0
  2  1  1  6
  3  4  1  0
  3  2  1  0
  5  6  1  0
  5  4  1  0
  6  7  1  0
  8  9  2  0
  8  2  1  0
 10 11  1  0
 11 12  2  0
 12 13  1  0
 14 13  2  0
 14 15  1  0
 16 15  1  1
 16 17  1  0
 17  8  1  0
 18 16  1  0
 18 19  2  0
 20 14  1  0
 21 11  1  0
 21 20  2  0
 23 22  1  0
 24 23  1  0
 24 26  1  0
 24 25  1  1
 26 27  1  6
 27 18  1  0
 28 29  1  0
 28 26  1  0
 30 28  2  0
M  END
$$$$
