CEV.pdb
     RDKit          3D

 23 22  0  0  1  0  0  0  0  0999 V2000
   25.4563  -22.2511  -10.5715 N   0  0  0  0  0  0  0  0  0  0  0  0
   25.3626  -20.8979  -11.0218 C   0  0  1  0  0  0  0  0  0  0  0  0
   26.5300  -20.1177  -10.4970 C   0  0  0  0  0  0  0  0  0  0  0  0
   26.1970  -19.7334   -8.7464 S   0  0  0  0  0  0  0  0  0  0  0  0
   25.2174  -20.7914  -12.4951 C   0  0  0  0  0  0  0  0  0  0  0  0
   26.0150  -21.4406  -13.2264 O   0  0  0  0  0  0  0  0  0  0  0  0
   24.2208  -19.9913  -13.1150 N   0  0  0  0  0  0  0  0  0  0  0  0
   23.9830  -19.9411  -14.5321 C   0  0  1  0  0  0  0  0  0  0  0  0
   22.5189  -20.2422  -14.8596 C   0  0  0  0  0  0  0  0  0  0  0  0
   22.1661  -21.6640  -14.4910 C   0  0  0  0  0  0  0  0  0  0  0  0
   20.7678  -21.9256  -14.8664 C   0  0  0  0  0  0  0  0  0  0  0  0
   19.9108  -22.2130  -14.0115 O   0  0  0  0  0  0  0  0  0  0  0  0
   24.2588  -18.5782  -15.0907 C   0  0  0  0  0  0  0  0  0  0  0  0
   23.7332  -17.5646  -14.5650 O   0  0  0  0  0  0  0  0  0  0  0  0
   20.3647  -21.8564  -16.2095 O   0  0  0  0  0  0  0  0  0  0  0  0
   27.6190  -17.7218  -17.4606 C   0  0  0  0  0  0  0  0  0  0  0  0
   26.7884  -16.6677  -16.7813 C   0  0  2  0  0  0  0  0  0  0  0  0
   27.2251  -16.6171  -15.3279 C   0  0  0  0  0  0  0  0  0  0  0  0
   25.3293  -17.0605  -16.7789 C   0  0  2  0  0  0  0  0  0  0  0  0
   25.1054  -18.3652  -16.2127 N   0  0  0  0  0  0  0  0  0  0  0  0
   24.8578  -17.0630  -18.1787 C   0  0  0  0  0  0  0  0  0  0  0  0
   24.4589  -18.1075  -18.7487 O   0  0  0  0  0  0  0  0  0  0  0  0
   24.8475  -15.8938  -18.8984 O   0  0  0  0  0  0  0  0  0  0  0  0
  2  3  1  0
  2  5  1  0
  2  1  1  6
  4  3  1  0
  5  6  2  0
  7  5  1  0
  7  8  1  0
  8 13  1  0
  9 10  1  0
  8  9  1  1
 10 11  1  0
 11 12  2  0
 13 20  1  0
 14 13  2  0
 15 11  1  0
 17 16  1  6
 17 18  1  0
 19 17  1  0
 19 20  1  6
 21 23  1  0
 21 19  1  0
 22 21  2  0
M  END
$$$$
