CEV.pdb
     RDKit          3D

 23 22  0  0  1  0  0  0  0  0999 V2000
   18.4007  -15.4950  -19.3741 N   0  0  0  0  0  0  0  0  0  0  0  0
   18.5038  -14.6659  -18.2146 C   0  0  1  0  0  0  0  0  0  0  0  0
   18.8935  -15.5061  -17.0360 C   0  0  0  0  0  0  0  0  0  0  0  0
   17.5566  -16.7118  -16.7494 S   0  0  0  0  0  0  0  0  0  0  0  0
   19.4080  -13.5062  -18.4161 C   0  0  0  0  0  0  0  0  0  0  0  0
   20.1270  -13.4773  -19.4526 O   0  0  0  0  0  0  0  0  0  0  0  0
   19.4976  -12.4301  -17.4934 N   0  0  0  0  0  0  0  0  0  0  0  0
   20.2464  -11.2238  -17.7205 C   0  0  1  0  0  0  0  0  0  0  0  0
   19.7028  -10.4524  -18.9251 C   0  0  0  0  0  0  0  0  0  0  0  0
   18.3457   -9.8633  -18.6194 C   0  0  0  0  0  0  0  0  0  0  0  0
   18.0529   -8.7992  -19.5923 C   0  0  0  0  0  0  0  0  0  0  0  0
   18.7996   -7.8118  -19.7162 O   0  0  0  0  0  0  0  0  0  0  0  0
   20.1525  -10.2874  -16.5544 C   0  0  0  0  0  0  0  0  0  0  0  0
   19.0529  -10.1194  -15.9692 O   0  0  0  0  0  0  0  0  0  0  0  0
   16.9143   -8.8739  -20.4104 O   0  0  0  0  0  0  0  0  0  0  0  0
   23.6724   -9.4371  -14.5365 C   0  0  0  0  0  0  0  0  0  0  0  0
   22.3336   -9.4257  -13.8510 C   0  0  2  0  0  0  0  0  0  0  0  0
   21.9717  -10.8683  -13.5450 C   0  0  0  0  0  0  0  0  0  0  0  0
   21.2645   -8.9018  -14.7815 C   0  0  2  0  0  0  0  0  0  0  0  0
   21.2704   -9.5599  -16.0621 N   0  0  0  0  0  0  0  0  0  0  0  0
   21.5092   -7.4598  -14.9875 C   0  0  0  0  0  0  0  0  0  0  0  0
   21.8478   -6.9908  -16.1013 O   0  0  0  0  0  0  0  0  0  0  0  0
   21.3670   -6.5857  -13.9382 O   0  0  0  0  0  0  0  0  0  0  0  0
  2  3  1  0
  2  5  1  0
  2  1  1  6
  4  3  1  0
  5  6  2  0
  7  5  1  0
  7  8  1  0
  8 13  1  0
  9 10  1  0
  8  9  1  6
 10 11  1  0
 11 12  2  0
 13 20  1  0
 14 13  2  0
 15 11  1  0
 17 16  1  6
 17 18  1  0
 19 17  1  0
 19 20  1  6
 21 23  1  0
 21 19  1  0
 22 21  2  0
M  END
$$$$
