CEV.pdb
     RDKit          3D

 23 22  0  0  1  0  0  0  0  0999 V2000
   16.7696  -12.0537  -14.2487 N   0  0  0  0  0  0  0  0  0  0  0  0
   15.8361  -10.9735  -14.1827 C   0  0  1  0  0  0  0  0  0  0  0  0
   14.4638  -11.5179  -13.9227 C   0  0  0  0  0  0  0  0  0  0  0  0
   13.9393  -12.4307  -15.4110 S   0  0  0  0  0  0  0  0  0  0  0  0
   16.2335   -9.9295  -13.2053 C   0  0  0  0  0  0  0  0  0  0  0  0
   16.5761  -10.2907  -12.0458 O   0  0  0  0  0  0  0  0  0  0  0  0
   16.2443   -8.5444  -13.5196 N   0  0  0  0  0  0  0  0  0  0  0  0
   16.7590   -7.5179  -12.6544 C   0  0  1  0  0  0  0  0  0  0  0  0
   17.3296   -6.3486  -13.4599 C   0  0  0  0  0  0  0  0  0  0  0  0
   18.5835   -6.7615  -14.1942 C   0  0  0  0  0  0  0  0  0  0  0  0
   19.0942   -5.6127  -14.9582 C   0  0  0  0  0  0  0  0  0  0  0  0
   19.1567   -4.4767  -14.4548 O   0  0  0  0  0  0  0  0  0  0  0  0
   15.6843   -6.9359  -11.7873 C   0  0  0  0  0  0  0  0  0  0  0  0
   14.5668   -6.6424  -12.2821 O   0  0  0  0  0  0  0  0  0  0  0  0
   19.5265   -5.7730  -16.2843 O   0  0  0  0  0  0  0  0  0  0  0  0
   15.6249   -7.4324   -7.6519 C   0  0  0  0  0  0  0  0  0  0  0  0
   14.4265   -6.9545   -8.4252 C   0  0  2  0  0  0  0  0  0  0  0  0
   13.7649   -8.1786   -9.0331 C   0  0  0  0  0  0  0  0  0  0  0  0
   14.8537   -6.0782   -9.5796 C   0  0  2  0  0  0  0  0  0  0  0  0
   15.8665   -6.6918  -10.3986 N   0  0  0  0  0  0  0  0  0  0  0  0
   15.3922   -4.8217   -9.0203 C   0  0  0  0  0  0  0  0  0  0  0  0
   14.6692   -3.9959   -8.4118 O   0  0  0  0  0  0  0  0  0  0  0  0
   16.7262   -4.5279   -9.1599 O   0  0  0  0  0  0  0  0  0  0  0  0
  2  3  1  0
  2  5  1  0
  2  1  1  1
  4  3  1  0
  5  6  2  0
  7  5  1  0
  7  8  1  0
  8 13  1  0
  9 10  1  0
  8  9  1  6
 10 11  1  0
 11 12  2  0
 13 20  1  0
 14 13  2  0
 15 11  1  0
 17 16  1  6
 17 18  1  0
 19 17  1  0
 19 20  1  1
 21 23  1  0
 21 19  1  0
 22 21  2  0
M  END
$$$$
