CEV.pdb
     RDKit          3D

 23 22  0  0  1  0  0  0  0  0999 V2000
   19.6217  -14.7919  -19.1634 N   0  0  0  0  0  0  0  0  0  0  0  0
   18.8466  -13.6759  -18.7201 C   0  0  1  0  0  0  0  0  0  0  0  0
   17.9538  -14.1063  -17.5956 C   0  0  0  0  0  0  0  0  0  0  0  0
   16.6483  -15.1661  -18.2998 S   0  0  0  0  0  0  0  0  0  0  0  0
   19.6811  -12.4990  -18.3714 C   0  0  0  0  0  0  0  0  0  0  0  0
   20.8264  -12.6982  -17.8804 O   0  0  0  0  0  0  0  0  0  0  0  0
   19.2458  -11.1612  -18.5667 N   0  0  0  0  0  0  0  0  0  0  0  0
   20.0432   -9.9974  -18.2893 C   0  0  1  0  0  0  0  0  0  0  0  0
   19.4895   -8.7627  -19.0037 C   0  0  0  0  0  0  0  0  0  0  0  0
   19.8317   -8.7928  -20.4747 C   0  0  0  0  0  0  0  0  0  0  0  0
   19.2542   -7.6076  -21.1276 C   0  0  0  0  0  0  0  0  0  0  0  0
   18.0896   -7.6126  -21.5652 O   0  0  0  0  0  0  0  0  0  0  0  0
   20.0437   -9.6632  -16.8285 C   0  0  0  0  0  0  0  0  0  0  0  0
   18.9826   -9.7567  -16.1614 O   0  0  0  0  0  0  0  0  0  0  0  0
   20.0103   -6.4336  -21.2731 O   0  0  0  0  0  0  0  0  0  0  0  0
   23.5557   -9.7860  -14.5873 C   0  0  0  0  0  0  0  0  0  0  0  0
   22.1861   -9.8466  -13.9685 C   0  0  2  0  0  0  0  0  0  0  0  0
   21.6833  -11.2708  -14.1255 C   0  0  0  0  0  0  0  0  0  0  0  0
   21.2213   -8.9637  -14.7254 C   0  0  2  0  0  0  0  0  0  0  0  0
   21.2111   -9.2350  -16.1393 N   0  0  0  0  0  0  0  0  0  0  0  0
   21.6296   -7.5600  -14.5141 C   0  0  0  0  0  0  0  0  0  0  0  0
   22.0842   -6.8483  -15.4424 O   0  0  0  0  0  0  0  0  0  0  0  0
   21.5161   -6.9954  -13.2677 O   0  0  0  0  0  0  0  0  0  0  0  0
  2  3  1  0
  2  5  1  0
  2  1  1  1
  4  3  1  0
  5  6  2  0
  7  5  1  0
  7  8  1  0
  8 13  1  0
  9 10  1  0
  8  9  1  6
 10 11  1  0
 11 12  2  0
 13 20  1  0
 14 13  2  0
 15 11  1  0
 17 16  1  6
 17 18  1  0
 19 17  1  0
 19 20  1  6
 21 23  1  0
 21 19  1  0
 22 21  2  0
M  END
$$$$
