CEV.pdb
     RDKit          3D

 23 22  0  0  1  0  0  0  0  0999 V2000
   25.5208  -20.6283   -9.3669 N   0  0  0  0  0  0  0  0  0  0  0  0
   24.5776  -20.7308  -10.4358 C   0  0  1  0  0  0  0  0  0  0  0  0
   23.3208  -20.0049  -10.0607 C   0  0  0  0  0  0  0  0  0  0  0  0
   22.3698  -21.0858   -8.9424 S   0  0  0  0  0  0  0  0  0  0  0  0
   25.1327  -20.2817  -11.7370 C   0  0  0  0  0  0  0  0  0  0  0  0
   25.7210  -19.1665  -11.7869 O   0  0  0  0  0  0  0  0  0  0  0  0
   25.0297  -21.0526  -12.9255 N   0  0  0  0  0  0  0  0  0  0  0  0
   25.5164  -20.6335  -14.2118 C   0  0  1  0  0  0  0  0  0  0  0  0
   26.4924  -21.6572  -14.7958 C   0  0  0  0  0  0  0  0  0  0  0  0
   26.9419  -21.2452  -16.1779 C   0  0  0  0  0  0  0  0  0  0  0  0
   27.9077  -22.2328  -16.6842 C   0  0  0  0  0  0  0  0  0  0  0  0
   28.1803  -23.2612  -16.0393 O   0  0  0  0  0  0  0  0  0  0  0  0
   24.4049  -20.5077  -15.2090 C   0  0  0  0  0  0  0  0  0  0  0  0
   23.5173  -21.3949  -15.2770 O   0  0  0  0  0  0  0  0  0  0  0  0
   28.5496  -22.0359  -17.9173 O   0  0  0  0  0  0  0  0  0  0  0  0
   23.3144  -16.8557  -16.7660 C   0  0  0  0  0  0  0  0  0  0  0  0
   22.4268  -18.0568  -16.9449 C   0  0  2  0  0  0  0  0  0  0  0  0
   21.6224  -18.2169  -15.6670 C   0  0  0  0  0  0  0  0  0  0  0  0
   23.2547  -19.3123  -17.0924 C   0  0  2  0  0  0  0  0  0  0  0  0
   24.2985  -19.4095  -16.1055 N   0  0  0  0  0  0  0  0  0  0  0  0
   23.8705  -19.2944  -18.4348 C   0  0  0  0  0  0  0  0  0  0  0  0
   25.1136  -19.2438  -18.6003 O   0  0  0  0  0  0  0  0  0  0  0  0
   23.0742  -19.3339  -19.5526 O   0  0  0  0  0  0  0  0  0  0  0  0
  2  3  1  0
  2  5  1  0
  2  1  1  1
  4  3  1  0
  5  6  2  0
  7  5  1  0
  7  8  1  0
  8 13  1  0
  9 10  1  0
  8  9  1  6
 10 11  1  0
 11 12  2  0
 13 20  1  0
 14 13  2  0
 15 11  1  0
 17 16  1  1
 17 18  1  0
 19 17  1  0
 19 20  1  1
 21 23  1  0
 21 19  1  0
 22 21  2  0
M  END
$$$$
