CEV.pdb
     RDKit          3D

 23 22  0  0  1  0  0  0  0  0999 V2000
   28.7972  -24.5914  -17.8785 N   0  0  0  0  0  0  0  0  0  0  0  0
   27.5558  -24.5039  -17.1755 C   0  0  1  0  0  0  0  0  0  0  0  0
   27.3707  -25.7340  -16.3392 C   0  0  0  0  0  0  0  0  0  0  0  0
   26.7413  -27.0540  -17.4276 S   0  0  0  0  0  0  0  0  0  0  0  0
   27.4277  -23.2514  -16.3895 C   0  0  0  0  0  0  0  0  0  0  0  0
   28.4806  -22.6812  -15.9911 O   0  0  0  0  0  0  0  0  0  0  0  0
   26.1728  -22.6691  -16.0676 N   0  0  0  0  0  0  0  0  0  0  0  0
   26.0091  -21.4388  -15.3416 C   0  0  1  0  0  0  0  0  0  0  0  0
   25.3661  -20.3603  -16.2162 C   0  0  0  0  0  0  0  0  0  0  0  0
   26.3790  -19.7599  -17.1625 C   0  0  0  0  0  0  0  0  0  0  0  0
   25.7463  -18.6637  -17.9125 C   0  0  0  0  0  0  0  0  0  0  0  0
   25.8201  -17.4848  -17.5215 O   0  0  0  0  0  0  0  0  0  0  0  0
   25.1000  -21.6099  -14.1626 C   0  0  0  0  0  0  0  0  0  0  0  0
   24.0659  -22.3171  -14.2629 O   0  0  0  0  0  0  0  0  0  0  0  0
   25.0386  -18.9245  -19.0966 O   0  0  0  0  0  0  0  0  0  0  0  0
   25.4868  -19.3518  -10.4227 C   0  0  0  0  0  0  0  0  0  0  0  0
   25.1556  -20.8186  -10.4614 C   0  0  2  0  0  0  0  0  0  0  0  0
   26.4697  -21.5784  -10.4252 C   0  0  0  0  0  0  0  0  0  0  0  0
   24.4863  -21.1781  -11.7675 C   0  0  2  0  0  0  0  0  0  0  0  0
   25.3519  -20.9986  -12.9040 N   0  0  0  0  0  0  0  0  0  0  0  0
   23.3054  -20.3055  -11.9275 C   0  0  0  0  0  0  0  0  0  0  0  0
   22.3010  -20.3949  -11.1803 O   0  0  0  0  0  0  0  0  0  0  0  0
   23.2853  -19.3579  -12.9209 O   0  0  0  0  0  0  0  0  0  0  0  0
  2  3  1  0
  2  5  1  0
  2  1  1  1
  4  3  1  0
  5  6  2  0
  7  5  1  0
  7  8  1  0
  8 13  1  0
  9 10  1  0
  8  9  1  6
 10 11  1  0
 11 12  2  0
 13 20  1  0
 14 13  2  0
 15 11  1  0
 17 16  1  6
 17 18  1  0
 19 17  1  0
 19 20  1  6
 21 23  1  0
 21 19  1  0
 22 21  2  0
M  END
$$$$
