CEV.pdb
     RDKit          3D

 23 22  0  0  1  0  0  0  0  0999 V2000
   24.8798  -34.3894  -10.4768 N   0  0  0  0  0  0  0  0  0  0  0  0
   24.4873  -33.3739   -9.5508 C   0  0  1  0  0  0  0  0  0  0  0  0
   25.5658  -32.3362   -9.4649 C   0  0  0  0  0  0  0  0  0  0  0  0
   26.9323  -33.0381   -8.4834 S   0  0  0  0  0  0  0  0  0  0  0  0
   23.1573  -32.7940   -9.8636 C   0  0  0  0  0  0  0  0  0  0  0  0
   22.7528  -32.8271  -11.0584 O   0  0  0  0  0  0  0  0  0  0  0  0
   22.3227  -32.2049   -8.8768 N   0  0  0  0  0  0  0  0  0  0  0  0
   20.9671  -31.7830   -9.1042 C   0  0  1  0  0  0  0  0  0  0  0  0
   20.0219  -32.3619   -8.0492 C   0  0  0  0  0  0  0  0  0  0  0  0
   18.5796  -32.1192   -8.4272 C   0  0  0  0  0  0  0  0  0  0  0  0
   17.7071  -32.8064   -7.4622 C   0  0  0  0  0  0  0  0  0  0  0  0
   18.1763  -33.4099   -6.4807 O   0  0  0  0  0  0  0  0  0  0  0  0
   20.8286  -30.2939   -9.0095 C   0  0  0  0  0  0  0  0  0  0  0  0
   21.3089  -29.6787   -8.0243 O   0  0  0  0  0  0  0  0  0  0  0  0
   16.3129  -32.7969   -7.6281 O   0  0  0  0  0  0  0  0  0  0  0  0
   18.7724  -27.9476  -12.0363 C   0  0  0  0  0  0  0  0  0  0  0  0
   19.9922  -27.4487  -11.3111 C   0  0  2  0  0  0  0  0  0  0  0  0
   21.2054  -27.9157  -12.0959 C   0  0  0  0  0  0  0  0  0  0  0  0
   20.0940  -28.0831   -9.9435 C   0  0  2  0  0  0  0  0  0  0  0  0
   20.1654  -29.5200  -10.0007 N   0  0  0  0  0  0  0  0  0  0  0  0
   18.8936  -27.6976   -9.1740 C   0  0  0  0  0  0  0  0  0  0  0  0
   18.0562  -28.5418   -8.7726 O   0  0  0  0  0  0  0  0  0  0  0  0
   18.6673  -26.3763   -8.8773 O   0  0  0  0  0  0  0  0  0  0  0  0
  2  3  1  0
  2  5  1  0
  2  1  1  6
  4  3  1  0
  5  6  2  0
  7  5  1  0
  7  8  1  0
  8 13  1  0
  9 10  1  0
  8  9  1  1
 10 11  1  0
 11 12  2  0
 13 20  1  0
 14 13  2  0
 15 11  1  0
 17 16  1  6
 17 18  1  0
 19 17  1  0
 19 20  1  6
 21 23  1  0
 21 19  1  0
 22 21  2  0
M  END
$$$$
