CEV.pdb
     RDKit          3D

 23 22  0  0  1  0  0  0  0  0999 V2000
   26.8441  -21.4009  -17.6099 N   0  0  0  0  0  0  0  0  0  0  0  0
   26.3417  -22.5807  -16.9787 C   0  0  1  0  0  0  0  0  0  0  0  0
   27.4887  -23.3882  -16.4501 C   0  0  0  0  0  0  0  0  0  0  0  0
   26.7959  -24.8530  -15.6147 S   0  0  0  0  0  0  0  0  0  0  0  0
   25.3210  -22.2873  -15.9418 C   0  0  0  0  0  0  0  0  0  0  0  0
   25.6446  -21.5481  -14.9716 O   0  0  0  0  0  0  0  0  0  0  0  0
   23.9984  -22.8024  -15.9957 N   0  0  0  0  0  0  0  0  0  0  0  0
   22.9598  -22.4772  -15.0561 C   0  0  1  0  0  0  0  0  0  0  0  0
   22.4486  -21.0503  -15.2665 C   0  0  0  0  0  0  0  0  0  0  0  0
   21.3063  -20.7434  -14.3270 C   0  0  0  0  0  0  0  0  0  0  0  0
   20.8418  -19.3683  -14.5672 C   0  0  0  0  0  0  0  0  0  0  0  0
   20.7395  -18.5478  -13.6375 O   0  0  0  0  0  0  0  0  0  0  0  0
   21.7677  -23.3705  -15.2190 C   0  0  0  0  0  0  0  0  0  0  0  0
   21.2044  -23.4701  -16.3382 O   0  0  0  0  0  0  0  0  0  0  0  0
   20.5002  -18.9464  -15.8620 O   0  0  0  0  0  0  0  0  0  0  0  0
   20.0084  -25.5010  -11.8815 C   0  0  0  0  0  0  0  0  0  0  0  0
   20.0251  -26.0859  -13.2672 C   0  0  2  0  0  0  0  0  0  0  0  0
   21.3120  -26.8799  -13.4057 C   0  0  0  0  0  0  0  0  0  0  0  0
   20.0816  -24.9900  -14.3060 C   0  0  2  0  0  0  0  0  0  0  0  0
   21.2262  -24.1313  -14.1470 N   0  0  0  0  0  0  0  0  0  0  0  0
   18.8557  -24.1767  -14.1745 C   0  0  0  0  0  0  0  0  0  0  0  0
   18.8749  -23.0050  -13.7252 O   0  0  0  0  0  0  0  0  0  0  0  0
   17.6439  -24.7011  -14.5509 O   0  0  0  0  0  0  0  0  0  0  0  0
  2  3  1  0
  2  5  1  0
  2  1  1  1
  4  3  1  0
  5  6  2  0
  7  5  1  0
  7  8  1  0
  8 13  1  0
  9 10  1  0
  8  9  1  6
 10 11  1  0
 11 12  2  0
 13 20  1  0
 14 13  2  0
 15 11  1  0
 17 16  1  1
 17 18  1  0
 19 17  1  0
 19 20  1  1
 21 23  1  0
 21 19  1  0
 22 21  2  0
M  END
$$$$
