CEV.pdb
     RDKit          3D

 23 22  0  0  1  0  0  0  0  0999 V2000
   16.1602  -10.9234  -17.0421 N   0  0  0  0  0  0  0  0  0  0  0  0
   17.0673  -10.5680  -15.9963 C   0  0  1  0  0  0  0  0  0  0  0  0
   18.1862  -11.5643  -15.9492 C   0  0  0  0  0  0  0  0  0  0  0  0
   17.5696  -13.0492  -15.0901 S   0  0  0  0  0  0  0  0  0  0  0  0
   17.5497   -9.1685  -16.1052 C   0  0  0  0  0  0  0  0  0  0  0  0
   17.8032   -8.7074  -17.2521 O   0  0  0  0  0  0  0  0  0  0  0  0
   17.7376   -8.3286  -14.9753 N   0  0  0  0  0  0  0  0  0  0  0  0
   18.0744   -6.9326  -15.0463 C   0  0  1  0  0  0  0  0  0  0  0  0
   16.8786   -6.0541  -14.6722 C   0  0  0  0  0  0  0  0  0  0  0  0
   15.9582   -5.8652  -15.8551 C   0  0  0  0  0  0  0  0  0  0  0  0
   14.8013   -5.0566  -15.4403 C   0  0  0  0  0  0  0  0  0  0  0  0
   14.8509   -4.3223  -14.4372 O   0  0  0  0  0  0  0  0  0  0  0  0
   19.1649   -6.5775  -14.0818 C   0  0  0  0  0  0  0  0  0  0  0  0
   19.0775   -6.9257  -12.8773 O   0  0  0  0  0  0  0  0  0  0  0  0
   13.6043   -5.0951  -16.1730 O   0  0  0  0  0  0  0  0  0  0  0  0
   23.0073   -6.0553  -15.3864 C   0  0  0  0  0  0  0  0  0  0  0  0
   22.6817   -6.2878  -13.9364 C   0  0  2  0  0  0  0  0  0  0  0  0
   22.4138   -7.7728  -13.7672 C   0  0  0  0  0  0  0  0  0  0  0  0
   21.4049   -5.5741  -13.5573 C   0  0  2  0  0  0  0  0  0  0  0  0
   20.3232   -5.8486  -14.4670 N   0  0  0  0  0  0  0  0  0  0  0  0
   21.6766   -4.1224  -13.5668 C   0  0  0  0  0  0  0  0  0  0  0  0
   22.4492   -3.5806  -12.7393 O   0  0  0  0  0  0  0  0  0  0  0  0
   21.0739   -3.3203  -14.5042 O   0  0  0  0  0  0  0  0  0  0  0  0
  2  3  1  0
  2  5  1  0
  2  1  1  6
  4  3  1  0
  5  6  2  0
  7  5  1  0
  7  8  1  0
  8 13  1  0
  9 10  1  0
  8  9  1  1
 10 11  1  0
 11 12  2  0
 13 20  1  0
 14 13  2  0
 15 11  1  0
 17 16  1  6
 17 18  1  0
 19 17  1  0
 19 20  1  6
 21 23  1  0
 21 19  1  0
 22 21  2  0
M  END
$$$$
