CEV.pdb
     RDKit          3D

 23 22  0  0  1  0  0  0  0  0999 V2000
   13.5760  -14.1163  -12.2891 N   0  0  0  0  0  0  0  0  0  0  0  0
   13.2384  -12.7313  -12.3919 C   0  0  1  0  0  0  0  0  0  0  0  0
   11.9688  -12.4721  -11.6383 C   0  0  0  0  0  0  0  0  0  0  0  0
   10.5837  -13.0551  -12.6702 S   0  0  0  0  0  0  0  0  0  0  0  0
   14.3467  -11.8372  -11.9730 C   0  0  0  0  0  0  0  0  0  0  0  0
   14.9434  -12.0864  -10.8894 O   0  0  0  0  0  0  0  0  0  0  0  0
   14.7628  -10.7157  -12.7388 N   0  0  0  0  0  0  0  0  0  0  0  0
   15.7896   -9.7926  -12.3378 C   0  0  1  0  0  0  0  0  0  0  0  0
   16.6825   -9.4088  -13.5198 C   0  0  0  0  0  0  0  0  0  0  0  0
   17.7757   -8.4618  -13.0837 C   0  0  0  0  0  0  0  0  0  0  0  0
   18.6373   -8.1579  -14.2368 C   0  0  0  0  0  0  0  0  0  0  0  0
   19.8774   -8.1569  -14.1359 O   0  0  0  0  0  0  0  0  0  0  0  0
   15.2096   -8.5093  -11.8254 C   0  0  0  0  0  0  0  0  0  0  0  0
   14.3541   -7.8894  -12.5063 O   0  0  0  0  0  0  0  0  0  0  0  0
   18.0755   -7.8595  -15.4884 O   0  0  0  0  0  0  0  0  0  0  0  0
   16.0811   -7.1857   -7.8786 C   0  0  0  0  0  0  0  0  0  0  0  0
   14.7945   -6.7954   -8.5530 C   0  0  2  0  0  0  0  0  0  0  0  0
   13.7865   -7.8957   -8.2719 C   0  0  0  0  0  0  0  0  0  0  0  0
   14.9735   -6.7484  -10.0526 C   0  0  2  0  0  0  0  0  0  0  0  0
   15.5854   -7.9413  -10.5775 N   0  0  0  0  0  0  0  0  0  0  0  0
   15.8365   -5.5926  -10.3705 C   0  0  0  0  0  0  0  0  0  0  0  0
   16.9764   -5.7280  -10.8778 O   0  0  0  0  0  0  0  0  0  0  0  0
   15.3959   -4.3186  -10.1102 O   0  0  0  0  0  0  0  0  0  0  0  0
  2  3  1  0
  2  5  1  0
  2  1  1  1
  4  3  1  0
  5  6  2  0
  7  5  1  0
  7  8  1  0
  8 13  1  0
  9 10  1  0
  8  9  1  6
 10 11  1  0
 11 12  2  0
 13 20  1  0
 14 13  2  0
 15 11  1  0
 17 16  1  1
 17 18  1  0
 19 17  1  0
 19 20  1  1
 21 23  1  0
 21 19  1  0
 22 21  2  0
M  END
$$$$
