CEV.pdb
     RDKit          3D

 23 22  0  0  1  0  0  0  0  0999 V2000
   15.9273  -13.1578  -13.3752 N   0  0  0  0  0  0  0  0  0  0  0  0
   15.2846  -11.8818  -13.3389 C   0  0  1  0  0  0  0  0  0  0  0  0
   13.8610  -12.0548  -12.9024 C   0  0  0  0  0  0  0  0  0  0  0  0
   13.0017  -13.0218  -14.1868 S   0  0  0  0  0  0  0  0  0  0  0  0
   16.0207  -10.8910  -12.5146 C   0  0  0  0  0  0  0  0  0  0  0  0
   16.4599  -11.2533  -11.3884 O   0  0  0  0  0  0  0  0  0  0  0  0
   16.2511   -9.5553  -12.9392 N   0  0  0  0  0  0  0  0  0  0  0  0
   16.9377   -8.5609  -12.1600 C   0  0  1  0  0  0  0  0  0  0  0  0
   17.8172   -7.6739  -13.0439 C   0  0  0  0  0  0  0  0  0  0  0  0
   19.0476   -8.4212  -13.5017 C   0  0  0  0  0  0  0  0  0  0  0  0
   19.8975   -7.5132  -14.2876 C   0  0  0  0  0  0  0  0  0  0  0  0
   19.6074   -6.3111  -14.4243 O   0  0  0  0  0  0  0  0  0  0  0  0
   15.9779   -7.6370  -11.4738 C   0  0  0  0  0  0  0  0  0  0  0  0
   14.9811   -7.1902  -12.0956 O   0  0  0  0  0  0  0  0  0  0  0  0
   21.0654   -7.9861  -14.9069 O   0  0  0  0  0  0  0  0  0  0  0  0
   14.6839   -8.0594   -7.6940 C   0  0  0  0  0  0  0  0  0  0  0  0
   15.1227   -6.6458   -7.9619 C   0  0  2  0  0  0  0  0  0  0  0  0
   14.0481   -5.7276   -7.4071 C   0  0  0  0  0  0  0  0  0  0  0  0
   15.1886   -6.3824   -9.4484 C   0  0  2  0  0  0  0  0  0  0  0  0
   16.1392   -7.2284  -10.1217 N   0  0  0  0  0  0  0  0  0  0  0  0
   15.5862   -4.9732   -9.6422 C   0  0  0  0  0  0  0  0  0  0  0  0
   16.7617   -4.6433   -9.9331 O   0  0  0  0  0  0  0  0  0  0  0  0
   14.6539   -3.9747   -9.5042 O   0  0  0  0  0  0  0  0  0  0  0  0
  2  3  1  0
  2  5  1  0
  2  1  1  1
  4  3  1  0
  5  6  2  0
  7  5  1  0
  7  8  1  0
  8 13  1  0
  9 10  1  0
  8  9  1  6
 10 11  1  0
 11 12  2  0
 13 20  1  0
 14 13  2  0
 15 11  1  0
 17 16  1  6
 17 18  1  0
 19 17  1  0
 19 20  1  6
 21 23  1  0
 21 19  1  0
 22 21  2  0
M  END
$$$$
