CEV.pdb
     RDKit          3D

 23 22  0  0  1  0  0  0  0  0999 V2000
   21.7172  -13.2934  -17.2271 N   0  0  0  0  0  0  0  0  0  0  0  0
   22.0948  -12.0996  -16.5378 C   0  0  1  0  0  0  0  0  0  0  0  0
   23.5803  -11.9212  -16.6304 C   0  0  0  0  0  0  0  0  0  0  0  0
   24.3522  -13.0918  -15.4654 S   0  0  0  0  0  0  0  0  0  0  0  0
   21.3438  -10.9063  -17.0016 C   0  0  0  0  0  0  0  0  0  0  0  0
   20.8741  -10.9093  -18.1728 O   0  0  0  0  0  0  0  0  0  0  0  0
   21.1322   -9.7640  -16.1845 N   0  0  0  0  0  0  0  0  0  0  0  0
   20.3049   -8.6456  -16.5480 C   0  0  1  0  0  0  0  0  0  0  0  0
   18.8290   -9.0451  -16.6109 C   0  0  0  0  0  0  0  0  0  0  0  0
   17.9793   -7.8928  -17.0925 C   0  0  0  0  0  0  0  0  0  0  0  0
   16.5751   -8.3264  -17.1618 C   0  0  0  0  0  0  0  0  0  0  0  0
   15.8183   -8.2292  -16.1790 O   0  0  0  0  0  0  0  0  0  0  0  0
   20.3910   -7.5429  -15.5370 C   0  0  0  0  0  0  0  0  0  0  0  0
   20.1327   -7.7752  -14.3291 O   0  0  0  0  0  0  0  0  0  0  0  0
   16.0521   -8.8644  -18.3484 O   0  0  0  0  0  0  0  0  0  0  0  0
   21.9819   -3.7213  -16.6384 C   0  0  0  0  0  0  0  0  0  0  0  0
   22.2006   -4.3180  -15.2751 C   0  0  2  0  0  0  0  0  0  0  0  0
   23.4209   -5.2170  -15.3671 C   0  0  0  0  0  0  0  0  0  0  0  0
   21.0398   -5.2060  -14.8911 C   0  0  2  0  0  0  0  0  0  0  0  0
   20.7590   -6.2133  -15.8807 N   0  0  0  0  0  0  0  0  0  0  0  0
   19.8466   -4.3498  -14.7331 C   0  0  0  0  0  0  0  0  0  0  0  0
   18.8774   -4.3991  -15.5288 O   0  0  0  0  0  0  0  0  0  0  0  0
   19.7752   -3.4633  -13.6871 O   0  0  0  0  0  0  0  0  0  0  0  0
  2  3  1  0
  2  5  1  0
  2  1  1  6
  4  3  1  0
  5  6  2  0
  7  5  1  0
  7  8  1  0
  8 13  1  0
  9 10  1  0
  8  9  1  1
 10 11  1  0
 11 12  2  0
 13 20  1  0
 14 13  2  0
 15 11  1  0
 17 16  1  6
 17 18  1  0
 19 17  1  0
 19 20  1  6
 21 23  1  0
 21 19  1  0
 22 21  2  0
M  END
$$$$
