CEV.pdb
     RDKit          3D

 23 22  0  0  1  0  0  0  0  0999 V2000
   17.9600  -15.0429  -17.9685 N   0  0  0  0  0  0  0  0  0  0  0  0
   17.5461  -13.8829  -17.2434 C   0  0  1  0  0  0  0  0  0  0  0  0
   17.1469  -14.2813  -15.8545 C   0  0  0  0  0  0  0  0  0  0  0  0
   16.4706  -12.8041  -15.0277 S   0  0  0  0  0  0  0  0  0  0  0  0
   18.5629  -12.8018  -17.2600 C   0  0  0  0  0  0  0  0  0  0  0  0
   19.7727  -13.1114  -17.0790 O   0  0  0  0  0  0  0  0  0  0  0  0
   18.2321  -11.4366  -17.4704 N   0  0  0  0  0  0  0  0  0  0  0  0
   19.1907  -10.3664  -17.5255 C   0  0  1  0  0  0  0  0  0  0  0  0
   18.6327   -9.1609  -18.2851 C   0  0  0  0  0  0  0  0  0  0  0  0
   19.6900   -8.0954  -18.4556 C   0  0  0  0  0  0  0  0  0  0  0  0
   19.1098   -6.9533  -19.1791 C   0  0  0  0  0  0  0  0  0  0  0  0
   18.2042   -6.2624  -18.6787 O   0  0  0  0  0  0  0  0  0  0  0  0
   19.5396   -9.8660  -16.1568 C   0  0  0  0  0  0  0  0  0  0  0  0
   18.6371   -9.7043  -15.2971 O   0  0  0  0  0  0  0  0  0  0  0  0
   19.5686   -6.6136  -20.4618 O   0  0  0  0  0  0  0  0  0  0  0  0
   23.5974   -9.6183  -14.8262 C   0  0  0  0  0  0  0  0  0  0  0  0
   22.4340   -9.7573  -13.8830 C   0  0  2  0  0  0  0  0  0  0  0  0
   22.1088  -11.2372  -13.7836 C   0  0  0  0  0  0  0  0  0  0  0  0
   21.2061   -9.0840  -14.4507 C   0  0  2  0  0  0  0  0  0  0  0  0
   20.8719   -9.5565  -15.7690 N   0  0  0  0  0  0  0  0  0  0  0  0
   21.4754   -7.6334  -14.5202 C   0  0  0  0  0  0  0  0  0  0  0  0
   21.6647   -7.0393  -15.6094 O   0  0  0  0  0  0  0  0  0  0  0  0
   21.5245   -6.8913  -13.3661 O   0  0  0  0  0  0  0  0  0  0  0  0
  2  3  1  0
  2  5  1  0
  2  1  1  1
  4  3  1  0
  5  6  2  0
  7  5  1  0
  7  8  1  0
  8 13  1  0
  9 10  1  0
  8  9  1  6
 10 11  1  0
 11 12  2  0
 13 20  1  0
 14 13  2  0
 15 11  1  0
 17 16  1  6
 17 18  1  0
 19 17  1  0
 19 20  1  6
 21 23  1  0
 21 19  1  0
 22 21  2  0
M  END
$$$$
