PPN.pdb
     RDKit          3D

 23 24  0  0  1  0  0  0  0  0999 V2000
   26.5241  -19.5769  -16.3090 N   0  0  0  0  0  0  0  0  0  0  0  0
   26.5871  -18.1721  -16.7468 C   0  0  0  0  0  0  0  0  0  0  0  0
   25.5005  -17.5876  -15.8748 C   0  0  0  0  0  0  0  0  0  0  0  0
   25.8099  -18.1915  -14.5265 C   0  0  0  0  0  0  0  0  0  0  0  0
   26.4652  -19.4941  -14.8609 C   0  0  1  0  0  0  0  0  0  0  0  0
   25.6830  -20.6010  -14.2595 C   0  0  0  0  0  0  0  0  0  0  0  0
   25.2465  -21.5050  -15.0374 O   0  0  0  0  0  0  0  0  0  0  0  0
   25.4375  -20.6409  -12.8643 N   0  0  0  0  0  0  0  0  0  0  0  0
   25.8932  -19.6666  -11.9123 C   0  0  0  0  0  0  0  0  0  0  0  0
   25.9007  -20.3641  -10.5644 C   0  0  0  0  0  0  0  0  0  0  0  0
   25.2986  -21.7432  -10.7903 C   0  0  0  0  0  0  0  0  0  0  0  0
   24.6947  -21.6733  -12.1794 C   0  0  1  0  0  0  0  0  0  0  0  0
   23.2465  -21.3555  -12.1276 C   0  0  0  0  0  0  0  0  0  0  0  0
   22.8578  -20.4986  -11.2844 O   0  0  0  0  0  0  0  0  0  0  0  0
   18.8788  -19.9094  -14.4288 N   0  0  0  0  0  0  0  0  0  0  0  0
   20.0558  -19.9597  -15.2091 C   0  0  0  0  0  0  0  0  0  0  0  0
   20.0087  -19.3953  -16.3309 O   0  0  0  0  0  0  0  0  0  0  0  0
   21.2976  -20.6303  -14.7671 C   0  0  0  0  0  0  0  0  0  0  0  0
   21.1169  -21.2015  -13.3923 C   0  0  2  0  0  0  0  0  0  0  0  0
   22.2804  -21.9430  -12.9523 N   0  0  0  0  0  0  0  0  0  0  0  0
   19.9647  -22.1062  -13.3402 C   0  0  0  0  0  0  0  0  0  0  0  0
   18.8095  -21.6493  -13.3463 O   0  0  0  0  0  0  0  0  0  0  0  0
   20.1440  -23.4689  -13.2837 O   0  0  0  0  0  0  0  0  0  0  0  0
  1  5  1  0
  1  2  1  0
  2  3  1  0
  4  3  1  0
  5  4  1  0
  5  6  1  6
  7  6  2  0
  8  6  1  0
  8 12  1  0
  9 10  1  0
  9  8  1  0
 10 11  1  0
 11 12  1  0
 12 13  1  1
 13 14  2  0
 16 15  1  0
 17 16  2  0
 18 16  1  0
 19 18  1  6
 20 13  1  0
 20 19  1  0
 21 19  1  0
 21 23  1  0
 22 21  2  0
M  END
$$$$
