PPN.pdb
     RDKit          3D

 23 24  0  0  1  0  0  0  0  0999 V2000
   27.7248  -19.6582  -17.2809 N   0  0  0  0  0  0  0  0  0  0  0  0
   27.7122  -18.3259  -17.9087 C   0  0  0  0  0  0  0  0  0  0  0  0
   27.1829  -17.5082  -16.7537 C   0  0  0  0  0  0  0  0  0  0  0  0
   28.0035  -18.0195  -15.5945 C   0  0  0  0  0  0  0  0  0  0  0  0
   28.3227  -19.4299  -15.9780 C   0  0  1  0  0  0  0  0  0  0  0  0
   27.7934  -20.3480  -14.9408 C   0  0  0  0  0  0  0  0  0  0  0  0
   26.8148  -21.0931  -15.2570 O   0  0  0  0  0  0  0  0  0  0  0  0
   28.3669  -20.3864  -13.6454 N   0  0  0  0  0  0  0  0  0  0  0  0
   29.4838  -19.5964  -13.2074 C   0  0  0  0  0  0  0  0  0  0  0  0
   30.0828  -20.3318  -12.0227 C   0  0  0  0  0  0  0  0  0  0  0  0
   29.1620  -21.5090  -11.7366 C   0  0  0  0  0  0  0  0  0  0  0  0
   27.9210  -21.2325  -12.5629 C   0  0  1  0  0  0  0  0  0  0  0  0
   26.8667  -20.5703  -11.7561 C   0  0  0  0  0  0  0  0  0  0  0  0
   26.8701  -19.3081  -11.6982 O   0  0  0  0  0  0  0  0  0  0  0  0
   23.1974  -21.6990  -13.0821 N   0  0  0  0  0  0  0  0  0  0  0  0
   23.1483  -20.7272  -12.0575 C   0  0  0  0  0  0  0  0  0  0  0  0
   22.8129  -19.5662  -12.4022 O   0  0  0  0  0  0  0  0  0  0  0  0
   23.4668  -21.0186  -10.6430 C   0  0  0  0  0  0  0  0  0  0  0  0
   24.8481  -20.5368  -10.3130 C   0  0  2  0  0  0  0  0  0  0  0  0
   25.8668  -21.2520  -11.0532 N   0  0  0  0  0  0  0  0  0  0  0  0
   25.1391  -20.6957   -8.8851 C   0  0  0  0  0  0  0  0  0  0  0  0
   25.7412  -21.7029   -8.4775 O   0  0  0  0  0  0  0  0  0  0  0  0
   24.7513  -19.7365   -7.9786 O   0  0  0  0  0  0  0  0  0  0  0  0
  1  5  1  0
  1  2  1  0
  2  3  1  0
  4  3  1  0
  5  4  1  0
  5  6  1  1
  7  6  2  0
  8  6  1  0
  8 12  1  0
  9 10  1  0
  9  8  1  0
 10 11  1  0
 11 12  1  0
 12 13  1  1
 13 14  2  0
 16 15  1  0
 17 16  2  0
 18 16  1  0
 19 18  1  1
 20 13  1  0
 20 19  1  0
 21 19  1  0
 21 23  1  0
 22 21  2  0
M  END
$$$$
