PPN.pdb
     RDKit          3D

 23 24  0  0  1  0  0  0  0  0999 V2000
   23.3828  -13.9592  -18.3602 N   0  0  0  0  0  0  0  0  0  0  0  0
   23.4128  -14.3064  -19.7912 C   0  0  0  0  0  0  0  0  0  0  0  0
   23.5332  -12.9217  -20.3838 C   0  0  0  0  0  0  0  0  0  0  0  0
   24.6017  -12.2944  -19.5217 C   0  0  0  0  0  0  0  0  0  0  0  0
   24.4562  -12.9941  -18.2075 C   0  0  1  0  0  0  0  0  0  0  0  0
   24.1740  -11.9922  -17.1513 C   0  0  0  0  0  0  0  0  0  0  0  0
   22.9885  -11.9289  -16.7004 O   0  0  0  0  0  0  0  0  0  0  0  0
   25.1982  -11.1405  -16.6674 N   0  0  0  0  0  0  0  0  0  0  0  0
   26.5607  -11.1378  -17.1224 C   0  0  0  0  0  0  0  0  0  0  0  0
   27.3783  -10.5179  -16.0043 C   0  0  0  0  0  0  0  0  0  0  0  0
   26.3836  -10.0518  -14.9513 C   0  0  0  0  0  0  0  0  0  0  0  0
   25.0331  -10.1445  -15.6344 C   0  0  1  0  0  0  0  0  0  0  0  0
   24.6200   -8.8377  -16.2023 C   0  0  0  0  0  0  0  0  0  0  0  0
   24.7107   -8.6798  -17.4526 O   0  0  0  0  0  0  0  0  0  0  0  0
   21.0918   -5.2217  -16.9165 N   0  0  0  0  0  0  0  0  0  0  0  0
   20.9018   -6.6217  -16.9325 C   0  0  0  0  0  0  0  0  0  0  0  0
   19.8181   -7.0345  -17.4167 O   0  0  0  0  0  0  0  0  0  0  0  0
   21.8990   -7.5846  -16.4171 C   0  0  0  0  0  0  0  0  0  0  0  0
   23.1359   -6.8619  -15.9733 C   0  0  2  0  0  0  0  0  0  0  0  0
   24.1356   -7.7659  -15.4437 N   0  0  0  0  0  0  0  0  0  0  0  0
   22.8302   -5.8751  -14.9333 C   0  0  0  0  0  0  0  0  0  0  0  0
   22.5406   -6.2467  -13.7839 O   0  0  0  0  0  0  0  0  0  0  0  0
   22.8590   -4.5286  -15.2129 O   0  0  0  0  0  0  0  0  0  0  0  0
  1  5  1  0
  1  2  1  0
  2  3  1  0
  4  3  1  0
  5  4  1  0
  5  6  1  1
  7  6  2  0
  8  6  1  0
  8 12  1  0
  9 10  1  0
  9  8  1  0
 10 11  1  0
 11 12  1  0
 12 13  1  6
 13 14  2  0
 16 15  1  0
 17 16  2  0
 18 16  1  0
 19 18  1  1
 20 13  1  0
 20 19  1  0
 21 19  1  0
 21 23  1  0
 22 21  2  0
M  END
$$$$
