PPN.pdb
     RDKit          3D

 23 24  0  0  1  0  0  0  0  0999 V2000
   27.6646  -18.3152  -16.2579 N   0  0  0  0  0  0  0  0  0  0  0  0
   27.6807  -16.8427  -16.2303 C   0  0  0  0  0  0  0  0  0  0  0  0
   26.4652  -16.5937  -15.3681 C   0  0  0  0  0  0  0  0  0  0  0  0
   26.6608  -17.5809  -14.2430 C   0  0  0  0  0  0  0  0  0  0  0  0
   27.4370  -18.6927  -14.8749 C   0  0  1  0  0  0  0  0  0  0  0  0
   26.6692  -19.9550  -14.7492 C   0  0  0  0  0  0  0  0  0  0  0  0
   26.4019  -20.5912  -15.8154 O   0  0  0  0  0  0  0  0  0  0  0  0
   26.2537  -20.4277  -13.4793 N   0  0  0  0  0  0  0  0  0  0  0  0
   26.3274  -19.6856  -12.2517 C   0  0  0  0  0  0  0  0  0  0  0  0
   26.3200  -20.7136  -11.1354 C   0  0  0  0  0  0  0  0  0  0  0  0
   26.1047  -22.0665  -11.7977 C   0  0  0  0  0  0  0  0  0  0  0  0
   25.6960  -21.7346  -13.2197 C   0  0  1  0  0  0  0  0  0  0  0  0
   24.2207  -21.7354  -13.3759 C   0  0  0  0  0  0  0  0  0  0  0  0
   23.5185  -22.0332  -12.3686 O   0  0  0  0  0  0  0  0  0  0  0  0
   19.6404  -19.6001  -13.5684 N   0  0  0  0  0  0  0  0  0  0  0  0
   20.8759  -18.9454  -13.7714 C   0  0  0  0  0  0  0  0  0  0  0  0
   20.8213  -17.7265  -14.0724 O   0  0  0  0  0  0  0  0  0  0  0  0
   22.1855  -19.6210  -13.6467 C   0  0  0  0  0  0  0  0  0  0  0  0
   22.2431  -20.8116  -14.5567 C   0  0  2  0  0  0  0  0  0  0  0  0
   23.5537  -21.4276  -14.5671 N   0  0  0  0  0  0  0  0  0  0  0  0
   21.9121  -20.4423  -15.9361 C   0  0  0  0  0  0  0  0  0  0  0  0
   20.7392  -20.5138  -16.3389 O   0  0  0  0  0  0  0  0  0  0  0  0
   22.8910  -20.0131  -16.8021 O   0  0  0  0  0  0  0  0  0  0  0  0
  1  5  1  0
  1  2  1  0
  2  3  1  0
  4  3  1  0
  5  4  1  0
  5  6  1  6
  7  6  2  0
  8  6  1  0
  8 12  1  0
  9 10  1  0
  9  8  1  0
 10 11  1  0
 11 12  1  0
 12 13  1  1
 13 14  2  0
 16 15  1  0
 17 16  2  0
 18 16  1  0
 19 18  1  1
 20 13  1  0
 20 19  1  0
 21 19  1  0
 21 23  1  0
 22 21  2  0
M  END
$$$$
