PPN.pdb
     RDKit          3D

 23 24  0  0  1  0  0  0  0  0999 V2000
   29.6959  -19.8859  -11.3335 N   0  0  0  0  0  0  0  0  0  0  0  0
   30.0820  -21.1193  -10.6271 C   0  0  0  0  0  0  0  0  0  0  0  0
   28.8763  -21.9753  -10.9376 C   0  0  0  0  0  0  0  0  0  0  0  0
   28.6802  -21.7317  -12.4144 C   0  0  0  0  0  0  0  0  0  0  0  0
   29.2178  -20.3512  -12.6227 C   0  0  1  0  0  0  0  0  0  0  0  0
   28.1454  -19.4896  -13.1761 C   0  0  0  0  0  0  0  0  0  0  0  0
   27.6238  -18.6276  -12.4029 O   0  0  0  0  0  0  0  0  0  0  0  0
   27.7249  -19.6297  -14.5222 N   0  0  0  0  0  0  0  0  0  0  0  0
   28.0477  -20.7333  -15.3830 C   0  0  0  0  0  0  0  0  0  0  0  0
   27.8896  -20.2220  -16.8031 C   0  0  0  0  0  0  0  0  0  0  0  0
   27.3326  -18.8103  -16.6926 C   0  0  0  0  0  0  0  0  0  0  0  0
   26.9097  -18.6792  -15.2423 C   0  0  1  0  0  0  0  0  0  0  0  0
   25.4640  -18.9642  -15.0695 C   0  0  0  0  0  0  0  0  0  0  0  0
   24.6421  -18.2973  -15.7594 O   0  0  0  0  0  0  0  0  0  0  0  0
   20.8516  -20.9685  -14.0840 N   0  0  0  0  0  0  0  0  0  0  0  0
   21.2566  -19.6841  -13.6567 C   0  0  0  0  0  0  0  0  0  0  0  0
   20.3476  -18.9147  -13.2553 O   0  0  0  0  0  0  0  0  0  0  0  0
   22.6638  -19.2294  -13.6652 C   0  0  0  0  0  0  0  0  0  0  0  0
   23.5512  -20.3008  -14.2252 C   0  0  2  0  0  0  0  0  0  0  0  0
   24.9492  -19.9245  -14.1912 N   0  0  0  0  0  0  0  0  0  0  0  0
   23.2041  -20.6045  -15.6166 C   0  0  0  0  0  0  0  0  0  0  0  0
   22.7262  -21.7116  -15.9150 O   0  0  0  0  0  0  0  0  0  0  0  0
   23.4016  -19.6725  -16.6089 O   0  0  0  0  0  0  0  0  0  0  0  0
  1  5  1  0
  1  2  1  0
  2  3  1  0
  4  3  1  0
  5  4  1  0
  5  6  1  1
  7  6  2  0
  8  6  1  0
  8 12  1  0
  9 10  1  0
  9  8  1  0
 10 11  1  0
 11 12  1  0
 12 13  1  6
 13 14  2  0
 16 15  1  0
 17 16  2  0
 18 16  1  0
 19 18  1  6
 20 13  1  0
 20 19  1  0
 21 19  1  0
 21 23  1  0
 22 21  2  0
M  END
$$$$
