PPN.pdb
     RDKit          3D

 23 24  0  0  1  0  0  0  0  0999 V2000
   39.5346  -10.3695   -7.9175 N   0  0  0  0  0  0  0  0  0  0  0  0
   38.9487  -10.7359   -6.6169 C   0  0  0  0  0  0  0  0  0  0  0  0
   38.0385   -9.5483   -6.4071 C   0  0  0  0  0  0  0  0  0  0  0  0
   37.3770   -9.4073   -7.7566 C   0  0  0  0  0  0  0  0  0  0  0  0
   38.3962   -9.9439   -8.7113 C   0  0  1  0  0  0  0  0  0  0  0  0
   38.7489   -8.8881   -9.6908 C   0  0  0  0  0  0  0  0  0  0  0  0
   39.8957   -8.3514   -9.5919 O   0  0  0  0  0  0  0  0  0  0  0  0
   37.8324   -8.4991  -10.6994 N   0  0  0  0  0  0  0  0  0  0  0  0
   36.5405   -9.0871  -10.9197 C   0  0  0  0  0  0  0  0  0  0  0  0
   36.1764   -8.7796  -12.3605 C   0  0  0  0  0  0  0  0  0  0  0  0
   37.2746   -7.8738  -12.8979 C   0  0  0  0  0  0  0  0  0  0  0  0
   38.0574   -7.4527  -11.6694 C   0  0  1  0  0  0  0  0  0  0  0  0
   37.6038   -6.1350  -11.1606 C   0  0  0  0  0  0  0  0  0  0  0  0
   36.6649   -6.1176  -10.3154 O   0  0  0  0  0  0  0  0  0  0  0  0
   39.0771   -2.6275   -7.6124 N   0  0  0  0  0  0  0  0  0  0  0  0
   39.5466   -2.6251   -8.9451 C   0  0  0  0  0  0  0  0  0  0  0  0
   40.0317   -1.5450   -9.3662 O   0  0  0  0  0  0  0  0  0  0  0  0
   39.4889   -3.8081   -9.8307 C   0  0  0  0  0  0  0  0  0  0  0  0
   38.2251   -3.7900  -10.6378 C   0  0  2  0  0  0  0  0  0  0  0  0
   38.1478   -4.9075  -11.5556 N   0  0  0  0  0  0  0  0  0  0  0  0
   38.1146   -2.5578  -11.4241 C   0  0  0  0  0  0  0  0  0  0  0  0
   37.5073   -1.5756  -10.9662 O   0  0  0  0  0  0  0  0  0  0  0  0
   38.6789   -2.4706  -12.6756 O   0  0  0  0  0  0  0  0  0  0  0  0
  1  5  1  0
  1  2  1  0
  2  3  1  0
  4  3  1  0
  5  4  1  0
  5  6  1  6
  7  6  2  0
  8  6  1  0
  8 12  1  0
  9 10  1  0
  9  8  1  0
 10 11  1  0
 11 12  1  0
 12 13  1  1
 13 14  2  0
 16 15  1  0
 17 16  2  0
 18 16  1  0
 19 18  1  6
 20 13  1  0
 20 19  1  0
 21 19  1  0
 21 23  1  0
 22 21  2  0
M  END
$$$$
