PPN.pdb
     RDKit          3D

 23 24  0  0  1  0  0  0  0  0999 V2000
   28.3541  -20.4788  -16.8093 N   0  0  0  0  0  0  0  0  0  0  0  0
   28.5932  -19.2444  -17.5763 C   0  0  0  0  0  0  0  0  0  0  0  0
   27.8627  -18.2562  -16.6973 C   0  0  0  0  0  0  0  0  0  0  0  0
   28.3379  -18.6404  -15.3170 C   0  0  0  0  0  0  0  0  0  0  0  0
   28.6343  -20.1019  -15.4357 C   0  0  1  0  0  0  0  0  0  0  0  0
   27.8028  -20.8480  -14.4606 C   0  0  0  0  0  0  0  0  0  0  0  0
   26.8629  -21.5695  -14.9176 O   0  0  0  0  0  0  0  0  0  0  0  0
   28.0567  -20.7540  -13.0695 N   0  0  0  0  0  0  0  0  0  0  0  0
   29.1439  -20.0314  -12.4702 C   0  0  0  0  0  0  0  0  0  0  0  0
   29.3506  -20.6417  -11.0962 C   0  0  0  0  0  0  0  0  0  0  0  0
   28.2344  -21.6580  -10.9045 C   0  0  0  0  0  0  0  0  0  0  0  0
   27.2638  -21.3769  -12.0351 C   0  0  1  0  0  0  0  0  0  0  0  0
   26.1567  -20.4931  -11.5944 C   0  0  0  0  0  0  0  0  0  0  0  0
   26.3359  -19.2439  -11.6549 O   0  0  0  0  0  0  0  0  0  0  0  0
   23.4916  -21.6861  -13.9647 N   0  0  0  0  0  0  0  0  0  0  0  0
   22.7399  -20.7801  -13.1834 C   0  0  0  0  0  0  0  0  0  0  0  0
   21.4997  -20.9771  -13.1350 O   0  0  0  0  0  0  0  0  0  0  0  0
   23.3409  -19.6474  -12.4464 C   0  0  0  0  0  0  0  0  0  0  0  0
   23.7640  -20.0868  -11.0764 C   0  0  2  0  0  0  0  0  0  0  0  0
   24.9245  -20.9521  -11.1150 N   0  0  0  0  0  0  0  0  0  0  0  0
   22.6879  -20.8129  -10.3954 C   0  0  0  0  0  0  0  0  0  0  0  0
   22.7946  -22.0315  -10.1792 O   0  0  0  0  0  0  0  0  0  0  0  0
   21.5485  -20.1590   -9.9875 O   0  0  0  0  0  0  0  0  0  0  0  0
  1  5  1  0
  1  2  1  0
  2  3  1  0
  4  3  1  0
  5  4  1  0
  5  6  1  1
  7  6  2  0
  8  6  1  0
  8 12  1  0
  9 10  1  0
  9  8  1  0
 10 11  1  0
 11 12  1  0
 12 13  1  1
 13 14  2  0
 16 15  1  0
 17 16  2  0
 18 16  1  0
 19 18  1  6
 20 13  1  0
 20 19  1  0
 21 19  1  0
 21 23  1  0
 22 21  2  0
M  END
$$$$
