PPN.pdb
     RDKit          3D

 23 24  0  0  1  0  0  0  0  0999 V2000
   27.3573  -21.6518  -18.9921 N   0  0  0  0  0  0  0  0  0  0  0  0
   26.3682  -21.9487  -20.0423 C   0  0  0  0  0  0  0  0  0  0  0  0
   25.0985  -21.6183  -19.2930 C   0  0  0  0  0  0  0  0  0  0  0  0
   25.4438  -20.3025  -18.6387 C   0  0  0  0  0  0  0  0  0  0  0  0
   26.9261  -20.3761  -18.4502 C   0  0  1  0  0  0  0  0  0  0  0  0
   27.2409  -20.2354  -17.0080 C   0  0  0  0  0  0  0  0  0  0  0  0
   27.7513  -21.2361  -16.4156 O   0  0  0  0  0  0  0  0  0  0  0  0
   26.9791  -19.0223  -16.3236 N   0  0  0  0  0  0  0  0  0  0  0  0
   26.3980  -17.8465  -16.9094 C   0  0  0  0  0  0  0  0  0  0  0  0
   26.8113  -16.6850  -16.0243 C   0  0  0  0  0  0  0  0  0  0  0  0
   27.5455  -17.2893  -14.8364 C   0  0  0  0  0  0  0  0  0  0  0  0
   27.2624  -18.7762  -14.9287 C   0  0  1  0  0  0  0  0  0  0  0  0
   26.1202  -19.1670  -14.0664 C   0  0  0  0  0  0  0  0  0  0  0  0
   25.0615  -19.5646  -14.6296 O   0  0  0  0  0  0  0  0  0  0  0  0
   23.4321  -21.2202  -10.1924 N   0  0  0  0  0  0  0  0  0  0  0  0
   24.6330  -20.7182   -9.6425 C   0  0  0  0  0  0  0  0  0  0  0  0
   24.8083  -20.9078   -8.4126 O   0  0  0  0  0  0  0  0  0  0  0  0
   25.6551  -20.0022  -10.4362 C   0  0  0  0  0  0  0  0  0  0  0  0
   25.2510  -19.9551  -11.8796 C   0  0  2  0  0  0  0  0  0  0  0  0
   26.1376  -19.1243  -12.6676 N   0  0  0  0  0  0  0  0  0  0  0  0
   23.8915  -19.4289  -12.0337 C   0  0  0  0  0  0  0  0  0  0  0  0
   22.9121  -20.1212  -11.7098 O   0  0  0  0  0  0  0  0  0  0  0  0
   23.6802  -18.1664  -12.5373 O   0  0  0  0  0  0  0  0  0  0  0  0
  1  5  1  0
  1  2  1  0
  2  3  1  0
  4  3  1  0
  5  4  1  0
  5  6  1  1
  7  6  2  0
  8  6  1  0
  8 12  1  0
  9 10  1  0
  9  8  1  0
 10 11  1  0
 11 12  1  0
 12 13  1  1
 13 14  2  0
 16 15  1  0
 17 16  2  0
 18 16  1  0
 19 18  1  1
 20 13  1  0
 20 19  1  0
 21 19  1  0
 21 23  1  0
 22 21  2  0
M  END
$$$$
