PPN.pdb
     RDKit          3D

 23 24  0  0  1  0  0  0  0  0999 V2000
   28.1264  -19.1668  -16.2393 N   0  0  0  0  0  0  0  0  0  0  0  0
   28.5272  -17.7661  -16.4557 C   0  0  0  0  0  0  0  0  0  0  0  0
   27.3517  -17.0660  -15.8147 C   0  0  0  0  0  0  0  0  0  0  0  0
   27.1847  -17.8323  -14.5249 C   0  0  0  0  0  0  0  0  0  0  0  0
   27.6914  -19.2007  -14.8549 C   0  0  1  0  0  0  0  0  0  0  0  0
   26.6106  -20.1890  -14.6226 C   0  0  0  0  0  0  0  0  0  0  0  0
   26.1051  -20.7595  -15.6383 O   0  0  0  0  0  0  0  0  0  0  0  0
   26.1649  -20.4809  -13.3093 N   0  0  0  0  0  0  0  0  0  0  0  0
   26.6763  -19.8849  -12.1066 C   0  0  0  0  0  0  0  0  0  0  0  0
   26.3419  -20.8481  -10.9824 C   0  0  0  0  0  0  0  0  0  0  0  0
   25.4987  -21.9541  -11.5999 C   0  0  0  0  0  0  0  0  0  0  0  0
   25.1290  -21.4302  -12.9741 C   0  0  1  0  0  0  0  0  0  0  0  0
   23.7896  -20.7924  -12.9708 C   0  0  0  0  0  0  0  0  0  0  0  0
   23.7036  -19.5969  -12.5712 O   0  0  0  0  0  0  0  0  0  0  0  0
   21.3752  -21.8745  -16.8766 N   0  0  0  0  0  0  0  0  0  0  0  0
   21.0944  -20.9003  -15.8925 C   0  0  0  0  0  0  0  0  0  0  0  0
   21.3857  -19.7124  -16.1809 O   0  0  0  0  0  0  0  0  0  0  0  0
   20.4908  -21.2189  -14.5805 C   0  0  0  0  0  0  0  0  0  0  0  0
   21.3605  -20.7059  -13.4717 C   0  0  2  0  0  0  0  0  0  0  0  0
   22.6124  -21.4283  -13.3815 N   0  0  0  0  0  0  0  0  0  0  0  0
   20.6871  -20.8156  -12.1743 C   0  0  0  0  0  0  0  0  0  0  0  0
   21.0167  -21.7044  -11.3714 O   0  0  0  0  0  0  0  0  0  0  0  0
   19.6843  -19.9402  -11.8276 O   0  0  0  0  0  0  0  0  0  0  0  0
  1  5  1  0
  1  2  1  0
  2  3  1  0
  4  3  1  0
  5  4  1  0
  5  6  1  6
  7  6  2  0
  8  6  1  0
  8 12  1  0
  9 10  1  0
  9  8  1  0
 10 11  1  0
 11 12  1  0
 12 13  1  1
 13 14  2  0
 16 15  1  0
 17 16  2  0
 18 16  1  0
 19 18  1  6
 20 13  1  0
 20 19  1  0
 21 19  1  0
 21 23  1  0
 22 21  2  0
M  END
$$$$
