PPN.pdb
     RDKit          3D

 23 24  0  0  1  0  0  0  0  0999 V2000
   28.9942  -19.8081  -18.5166 N   0  0  0  0  0  0  0  0  0  0  0  0
   28.9351  -18.5743  -17.7142 C   0  0  0  0  0  0  0  0  0  0  0  0
   28.2156  -19.1013  -16.4947 C   0  0  0  0  0  0  0  0  0  0  0  0
   28.9467  -20.3936  -16.2228 C   0  0  0  0  0  0  0  0  0  0  0  0
   29.4256  -20.8235  -17.5733 C   0  0  1  0  0  0  0  0  0  0  0  0
   28.8681  -22.1619  -17.8841 C   0  0  0  0  0  0  0  0  0  0  0  0
   27.9467  -22.2288  -18.7556 O   0  0  0  0  0  0  0  0  0  0  0  0
   29.3537  -23.3201  -17.2275 N   0  0  0  0  0  0  0  0  0  0  0  0
   30.3441  -23.3318  -16.1872 C   0  0  0  0  0  0  0  0  0  0  0  0
   30.9397  -24.7276  -16.1864 C   0  0  0  0  0  0  0  0  0  0  0  0
   30.1377  -25.5382  -17.1940 C   0  0  0  0  0  0  0  0  0  0  0  0
   28.9322  -24.6732  -17.5069 C   0  0  1  0  0  0  0  0  0  0  0  0
   27.7591  -25.0566  -16.6835 C   0  0  0  0  0  0  0  0  0  0  0  0
   27.6950  -24.6148  -15.5016 O   0  0  0  0  0  0  0  0  0  0  0  0
   23.2528  -25.1039  -14.1097 N   0  0  0  0  0  0  0  0  0  0  0  0
   23.4022  -25.3083  -15.4998 C   0  0  0  0  0  0  0  0  0  0  0  0
   22.4218  -25.8164  -16.0998 O   0  0  0  0  0  0  0  0  0  0  0  0
   24.6292  -24.9575  -16.2471 C   0  0  0  0  0  0  0  0  0  0  0  0
   25.5567  -26.1347  -16.3023 C   0  0  2  0  0  0  0  0  0  0  0  0
   26.7168  -25.8770  -17.1298 N   0  0  0  0  0  0  0  0  0  0  0  0
   24.8799  -27.3194  -16.8383 C   0  0  0  0  0  0  0  0  0  0  0  0
   25.0538  -27.6580  -18.0208 O   0  0  0  0  0  0  0  0  0  0  0  0
   24.0454  -28.0709  -16.0439 O   0  0  0  0  0  0  0  0  0  0  0  0
  1  5  1  0
  1  2  1  0
  2  3  1  0
  4  3  1  0
  5  4  1  0
  5  6  1  6
  7  6  2  0
  8  6  1  0
  8 12  1  0
  9 10  1  0
  9  8  1  0
 10 11  1  0
 11 12  1  0
 12 13  1  1
 13 14  2  0
 16 15  1  0
 17 16  2  0
 18 16  1  0
 19 18  1  6
 20 13  1  0
 20 19  1  0
 21 19  1  0
 21 23  1  0
 22 21  2  0
M  END
$$$$
