YSD.pdb
     RDKit          3D

 27 27  0  0  1  0  0  0  0  0999 V2000
    8.2440  -20.6492   12.7611 O   0  0  0  0  0  0  0  0  0  0  0  0
    8.5186  -19.7566   13.7909 C   0  0  0  0  0  0  0  0  0  0  0  0
    9.7135  -19.8238   14.4671 C   0  0  0  0  0  0  0  0  0  0  0  0
    9.9943  -18.9560   15.4769 C   0  0  0  0  0  0  0  0  0  0  0  0
    9.0618  -17.9893   15.8297 C   0  0  0  0  0  0  0  0  0  0  0  0
    9.4239  -17.0832   16.9214 C   0  0  0  0  0  0  0  0  0  0  0  0
    9.3044  -17.8083   18.2357 C   0  0  2  0  0  0  0  0  0  0  0  0
    7.9572  -18.3116   18.4485 N   0  0  0  0  0  0  0  0  0  0  0  0
    9.7235  -16.9588   19.3555 C   0  0  0  0  0  0  0  0  0  0  0  0
   10.8033  -16.3338   19.3337 O   0  0  0  0  0  0  0  0  0  0  0  0
    7.8737  -17.9275   15.1522 C   0  0  0  0  0  0  0  0  0  0  0  0
    7.5950  -18.8182   14.1218 C   0  0  0  0  0  0  0  0  0  0  0  0
    7.7086  -16.9745   23.2503 O   0  0  0  0  0  0  0  0  0  0  0  0
    8.1769  -15.8424   22.6390 C   0  0  0  0  0  0  0  0  0  0  0  0
    9.3295  -16.0931   21.6975 C   0  0  2  0  0  0  0  0  0  0  0  0
    8.9121  -16.8143   20.5134 N   0  0  0  0  0  0  0  0  0  0  0  0
   10.4643  -16.7745   22.3796 C   0  0  0  0  0  0  0  0  0  0  0  0
   10.6424  -18.0162   22.3403 O   0  0  0  0  0  0  0  0  0  0  0  0
   11.4158  -16.0239   23.1221 N   0  0  0  0  0  0  0  0  0  0  0  0
   12.5985  -16.6469   23.6382 C   0  0  1  0  0  0  0  0  0  0  0  0
   13.8045  -15.9078   23.1293 C   0  0  0  0  0  0  0  0  0  0  0  0
   15.0945  -16.4640   23.5256 C   0  0  0  0  0  0  0  0  0  0  0  0
   15.1651  -17.4881   24.2479 O   0  0  0  0  0  0  0  0  0  0  0  0
   12.5929  -16.7801   25.1041 C   0  0  0  0  0  0  0  0  0  0  0  0
   11.5579  -16.2464   25.8461 O   0  0  0  0  0  0  0  0  0  0  0  0
   16.2653  -15.8454   23.0930 O   0  0  0  0  0  0  0  0  0  0  0  0
   13.5142  -17.3729   25.7062 O   0  0  0  0  0  0  0  0  0  0  0  0
  2  1  1  0
  3  2  2  0
  4  3  1  0
  5  4  2  0
  5 11  1  0
  6  5  1  0
  7  6  1  0
  7  9  1  0
  7  8  1  1
  9 16  1  0
 10  9  2  0
 11 12  2  0
 12  2  1  0
 14 13  1  0
 15 14  1  1
 15 17  1  0
 16 15  1  0
 17 18  2  0
 17 19  1  0
 19 20  1  0
 20 21  1  1
 21 22  1  0
 22 23  2  0
 22 26  1  0
 24 20  1  0
 24 25  1  0
 27 24  2  0
M  END
$$$$
