YSD.pdb
     RDKit          3D

 27 27  0  0  1  0  0  0  0  0999 V2000
    5.6314  -10.6673   27.2637 O   0  0  0  0  0  0  0  0  0  0  0  0
    6.1126  -11.9520   27.0390 C   0  0  0  0  0  0  0  0  0  0  0  0
    7.4563  -12.2191   27.1510 C   0  0  0  0  0  0  0  0  0  0  0  0
    7.9398  -13.4724   26.9336 C   0  0  0  0  0  0  0  0  0  0  0  0
    7.0646  -14.4957   26.5940 C   0  0  0  0  0  0  0  0  0  0  0  0
    7.6451  -15.8223   26.3764 C   0  0  0  0  0  0  0  0  0  0  0  0
    6.9787  -16.4736   25.1935 C   0  0  2  0  0  0  0  0  0  0  0  0
    6.2909  -17.6968   25.5734 N   0  0  0  0  0  0  0  0  0  0  0  0
    7.9377  -16.7318   24.1143 C   0  0  0  0  0  0  0  0  0  0  0  0
    8.5696  -17.8055   24.0441 O   0  0  0  0  0  0  0  0  0  0  0  0
    5.7274  -14.2233   26.4843 C   0  0  0  0  0  0  0  0  0  0  0  0
    5.2421  -12.9399   26.7081 C   0  0  0  0  0  0  0  0  0  0  0  0
   10.1622  -14.8705   20.1373 O   0  0  0  0  0  0  0  0  0  0  0  0
    9.2010  -14.7701   21.1072 C   0  0  0  0  0  0  0  0  0  0  0  0
    9.2458  -15.8842   22.1243 C   0  0  2  0  0  0  0  0  0  0  0  0
    8.1851  -15.7647   23.1026 N   0  0  0  0  0  0  0  0  0  0  0  0
   10.5806  -15.9860   22.7765 C   0  0  0  0  0  0  0  0  0  0  0  0
   10.9218  -15.2777   23.7547 O   0  0  0  0  0  0  0  0  0  0  0  0
   11.5462  -16.9151   22.3030 N   0  0  0  0  0  0  0  0  0  0  0  0
   12.8528  -16.9758   22.8882 C   0  0  1  0  0  0  0  0  0  0  0  0
   13.2878  -18.4123   22.9698 C   0  0  0  0  0  0  0  0  0  0  0  0
   14.6114  -18.6353   23.5432 C   0  0  0  0  0  0  0  0  0  0  0  0
   15.3251  -17.6744   23.9211 O   0  0  0  0  0  0  0  0  0  0  0  0
   13.8375  -16.1241   22.2014 C   0  0  0  0  0  0  0  0  0  0  0  0
   13.6145  -15.7138   20.9019 O   0  0  0  0  0  0  0  0  0  0  0  0
   15.0878  -19.9381   23.6720 O   0  0  0  0  0  0  0  0  0  0  0  0
   14.8874  -15.7557   22.7710 O   0  0  0  0  0  0  0  0  0  0  0  0
  2  1  1  0
  3  2  2  0
  4  3  1  0
  5  4  2  0
  5 11  1  0
  6  5  1  0
  7  6  1  0
  7  9  1  0
  7  8  1  1
  9 16  1  0
 10  9  2  0
 11 12  2  0
 12  2  1  0
 14 13  1  0
 15 14  1  6
 15 17  1  0
 16 15  1  0
 17 18  2  0
 17 19  1  0
 19 20  1  0
 20 21  1  6
 21 22  1  0
 22 23  2  0
 22 26  1  0
 24 20  1  0
 24 25  1  0
 27 24  2  0
M  END
$$$$
