YSD.pdb
     RDKit          3D

 27 27  0  0  1  0  0  0  0  0999 V2000
    5.2633  -10.5893   28.0160 O   0  0  0  0  0  0  0  0  0  0  0  0
    5.9580  -11.5176   27.2490 C   0  0  0  0  0  0  0  0  0  0  0  0
    7.0587  -12.1593   27.7650 C   0  0  0  0  0  0  0  0  0  0  0  0
    7.7472  -13.0700   27.0244 C   0  0  0  0  0  0  0  0  0  0  0  0
    7.3329  -13.3553   25.7300 C   0  0  0  0  0  0  0  0  0  0  0  0
    8.1126  -14.3463   24.9856 C   0  0  0  0  0  0  0  0  0  0  0  0
    7.2392  -15.5283   24.6576 C   0  0  2  0  0  0  0  0  0  0  0  0
    6.8456  -16.2515   25.8558 N   0  0  0  0  0  0  0  0  0  0  0  0
    7.8927  -16.4273   23.7006 C   0  0  0  0  0  0  0  0  0  0  0  0
    8.4627  -17.4738   24.0709 O   0  0  0  0  0  0  0  0  0  0  0  0
    6.2359  -12.7129   25.2220 C   0  0  0  0  0  0  0  0  0  0  0  0
    5.5383  -11.7839   25.9856 C   0  0  0  0  0  0  0  0  0  0  0  0
    8.8763  -15.0774   19.6475 O   0  0  0  0  0  0  0  0  0  0  0  0
    8.5093  -16.3623   19.9456 C   0  0  0  0  0  0  0  0  0  0  0  0
    8.8088  -16.7648   21.3690 C   0  0  2  0  0  0  0  0  0  0  0  0
    7.9019  -16.1398   22.3088 N   0  0  0  0  0  0  0  0  0  0  0  0
   10.2305  -16.5085   21.7301 C   0  0  0  0  0  0  0  0  0  0  0  0
   10.6116  -15.4681   22.3195 O   0  0  0  0  0  0  0  0  0  0  0  0
   11.2385  -17.4587   21.4122 N   0  0  0  0  0  0  0  0  0  0  0  0
   12.5992  -17.2424   21.8059 C   0  0  1  0  0  0  0  0  0  0  0  0
   12.8355  -17.9001   23.1368 C   0  0  0  0  0  0  0  0  0  0  0  0
   14.2033  -17.8233   23.6404 C   0  0  0  0  0  0  0  0  0  0  0  0
   15.1215  -17.3174   22.9500 O   0  0  0  0  0  0  0  0  0  0  0  0
   13.5734  -17.6628   20.7856 C   0  0  0  0  0  0  0  0  0  0  0  0
   13.1413  -18.2485   19.6122 O   0  0  0  0  0  0  0  0  0  0  0  0
   14.4914  -18.3207   24.9094 O   0  0  0  0  0  0  0  0  0  0  0  0
   14.8015  -17.5017   20.9544 O   0  0  0  0  0  0  0  0  0  0  0  0
  2  1  1  0
  3  2  2  0
  4  3  1  0
  5  4  2  0
  5 11  1  0
  6  5  1  0
  7  6  1  0
  7  9  1  0
  7  8  1  1
  9 16  1  0
 10  9  2  0
 11 12  2  0
 12  2  1  0
 14 13  1  0
 15 14  1  6
 15 17  1  0
 16 15  1  0
 17 18  2  0
 17 19  1  0
 19 20  1  0
 20 21  1  1
 21 22  1  0
 22 23  2  0
 22 26  1  0
 24 20  1  0
 24 25  1  0
 27 24  2  0
M  END
$$$$
