YSD.pdb
     RDKit          3D

 27 27  0  0  1  0  0  0  0  0999 V2000
   13.6697  -14.4098   17.9145 O   0  0  0  0  0  0  0  0  0  0  0  0
   12.3489  -14.1420   18.2555 C   0  0  0  0  0  0  0  0  0  0  0  0
   11.3281  -14.4889   17.4027 C   0  0  0  0  0  0  0  0  0  0  0  0
   10.0312  -14.2321   17.7249 C   0  0  0  0  0  0  0  0  0  0  0  0
    9.7342  -13.6113   18.9311 C   0  0  0  0  0  0  0  0  0  0  0  0
    8.3202  -13.3655   19.2218 C   0  0  0  0  0  0  0  0  0  0  0  0
    7.7174  -14.5921   19.8538 C   0  0  2  0  0  0  0  0  0  0  0  0
    6.2741  -14.4736   19.9820 N   0  0  0  0  0  0  0  0  0  0  0  0
    8.3314  -14.8807   21.1542 C   0  0  0  0  0  0  0  0  0  0  0  0
    8.1090  -14.1689   22.1547 O   0  0  0  0  0  0  0  0  0  0  0  0
   10.7553  -13.2685   19.7761 C   0  0  0  0  0  0  0  0  0  0  0  0
   12.0775  -13.5345   19.4390 C   0  0  0  0  0  0  0  0  0  0  0  0
    8.6080  -18.3954   22.7857 O   0  0  0  0  0  0  0  0  0  0  0  0
    8.9576  -17.2334   23.4199 C   0  0  0  0  0  0  0  0  0  0  0  0
    9.8302  -16.3260   22.5875 C   0  0  2  0  0  0  0  0  0  0  0  0
    9.2071  -15.9870   21.3253 N   0  0  0  0  0  0  0  0  0  0  0  0
   11.1915  -16.8959   22.3882 C   0  0  0  0  0  0  0  0  0  0  0  0
   11.5124  -17.5685   21.3784 O   0  0  0  0  0  0  0  0  0  0  0  0
   12.2077  -16.6944   23.3611 N   0  0  0  0  0  0  0  0  0  0  0  0
   13.4213  -17.4553   23.3209 C   0  0  1  0  0  0  0  0  0  0  0  0
   14.5519  -16.6030   23.8258 C   0  0  0  0  0  0  0  0  0  0  0  0
   15.0806  -15.6329   22.8719 C   0  0  0  0  0  0  0  0  0  0  0  0
   14.6101  -15.5410   21.7119 O   0  0  0  0  0  0  0  0  0  0  0  0
   13.3237  -18.7430   24.0274 C   0  0  0  0  0  0  0  0  0  0  0  0
   14.3285  -19.6818   23.9024 O   0  0  0  0  0  0  0  0  0  0  0  0
   16.1251  -14.7962   23.2588 O   0  0  0  0  0  0  0  0  0  0  0  0
   12.3403  -19.0149   24.7496 O   0  0  0  0  0  0  0  0  0  0  0  0
  2  1  1  0
  3  2  2  0
  4  3  1  0
  5  4  2  0
  5 11  1  0
  6  5  1  0
  7  6  1  0
  7  9  1  0
  7  8  1  1
  9 16  1  0
 10  9  2  0
 11 12  2  0
 12  2  1  0
 14 13  1  0
 15 14  1  6
 15 17  1  0
 16 15  1  0
 17 18  2  0
 17 19  1  0
 19 20  1  0
 20 21  1  1
 21 22  1  0
 22 23  2  0
 22 26  1  0
 24 20  1  0
 24 25  1  0
 27 24  2  0
M  END
$$$$
