YSD.pdb
     RDKit          3D

 27 27  0  0  1  0  0  0  0  0999 V2000
    5.2287  -10.4527   28.0394 O   0  0  0  0  0  0  0  0  0  0  0  0
    5.9417  -11.4446   27.3759 C   0  0  0  0  0  0  0  0  0  0  0  0
    5.9013  -11.5286   26.0045 C   0  0  0  0  0  0  0  0  0  0  0  0
    6.5947  -12.4949   25.3432 C   0  0  0  0  0  0  0  0  0  0  0  0
    7.3534  -13.4087   26.0629 C   0  0  0  0  0  0  0  0  0  0  0  0
    8.0792  -14.4219   25.2942 C   0  0  0  0  0  0  0  0  0  0  0  0
    7.1065  -15.4427   24.7658 C   0  0  2  0  0  0  0  0  0  0  0  0
    6.4965  -16.2074   25.8413 N   0  0  0  0  0  0  0  0  0  0  0  0
    7.7440  -16.3353   23.7920 C   0  0  0  0  0  0  0  0  0  0  0  0
    8.3065  -17.3920   24.1440 O   0  0  0  0  0  0  0  0  0  0  0  0
    7.3896  -13.3195   27.4285 C   0  0  0  0  0  0  0  0  0  0  0  0
    6.6781  -12.3292   28.0960 C   0  0  0  0  0  0  0  0  0  0  0  0
    8.5387  -14.9084   19.8421 O   0  0  0  0  0  0  0  0  0  0  0  0
    8.2998  -16.2438   20.0271 C   0  0  0  0  0  0  0  0  0  0  0  0
    8.5690  -16.7198   21.4338 C   0  0  2  0  0  0  0  0  0  0  0  0
    7.7454  -16.0294   22.4040 N   0  0  0  0  0  0  0  0  0  0  0  0
   10.0140  -16.6300   21.7824 C   0  0  0  0  0  0  0  0  0  0  0  0
   10.5679  -15.5626   22.1413 O   0  0  0  0  0  0  0  0  0  0  0  0
   10.8443  -17.7818   21.7202 N   0  0  0  0  0  0  0  0  0  0  0  0
   12.2513  -17.6849   21.9737 C   0  0  1  0  0  0  0  0  0  0  0  0
   12.7040  -18.9167   22.7067 C   0  0  0  0  0  0  0  0  0  0  0  0
   12.1029  -19.1208   24.0211 C   0  0  0  0  0  0  0  0  0  0  0  0
   12.4973  -18.4747   25.0223 O   0  0  0  0  0  0  0  0  0  0  0  0
   13.0439  -17.4244   20.7609 C   0  0  0  0  0  0  0  0  0  0  0  0
   14.4093  -17.2390   20.8499 O   0  0  0  0  0  0  0  0  0  0  0  0
   11.0741  -20.0493   24.1633 O   0  0  0  0  0  0  0  0  0  0  0  0
   12.5065  -17.3655   19.6338 O   0  0  0  0  0  0  0  0  0  0  0  0
  2  1  1  0
  3  2  2  0
  4  3  1  0
  5  4  2  0
  5 11  1  0
  6  5  1  0
  7  6  1  0
  7  9  1  0
  7  8  1  1
  9 16  1  0
 10  9  2  0
 11 12  2  0
 12  2  1  0
 14 13  1  0
 15 14  1  6
 15 17  1  0
 16 15  1  0
 17 18  2  0
 17 19  1  0
 19 20  1  0
 20 21  1  6
 21 22  1  0
 22 23  2  0
 22 26  1  0
 24 20  1  0
 24 25  1  0
 27 24  2  0
M  END
$$$$
