YSD.pdb
     RDKit          3D

 27 27  0  0  1  0  0  0  0  0999 V2000
    8.0706  -12.5683   18.8031 O   0  0  0  0  0  0  0  0  0  0  0  0
    7.8946  -13.1722   20.0428 C   0  0  0  0  0  0  0  0  0  0  0  0
    6.7402  -13.8654   20.3193 C   0  0  0  0  0  0  0  0  0  0  0  0
    6.5558  -14.4609   21.5289 C   0  0  0  0  0  0  0  0  0  0  0  0
    7.5466  -14.3674   22.4975 C   0  0  0  0  0  0  0  0  0  0  0  0
    7.2905  -15.0321   23.7768 C   0  0  0  0  0  0  0  0  0  0  0  0
    7.1983  -16.5193   23.5598 C   0  0  2  0  0  0  0  0  0  0  0  0
    6.5431  -17.1831   24.6750 N   0  0  0  0  0  0  0  0  0  0  0  0
    8.5190  -17.1065   23.3104 C   0  0  0  0  0  0  0  0  0  0  0  0
    9.2997  -17.3807   24.2445 O   0  0  0  0  0  0  0  0  0  0  0  0
    8.6940  -13.6758   22.2159 C   0  0  0  0  0  0  0  0  0  0  0  0
    8.8741  -13.0704   20.9774 C   0  0  0  0  0  0  0  0  0  0  0  0
   11.4905  -19.0643   19.9187 O   0  0  0  0  0  0  0  0  0  0  0  0
   10.3456  -18.3800   20.2279 C   0  0  0  0  0  0  0  0  0  0  0  0
   10.2303  -18.0175   21.6884 C   0  0  2  0  0  0  0  0  0  0  0  0
    8.9622  -17.3871   21.9895 N   0  0  0  0  0  0  0  0  0  0  0  0
   11.3763  -17.1832   22.1446 C   0  0  0  0  0  0  0  0  0  0  0  0
   11.2787  -15.9548   22.3822 O   0  0  0  0  0  0  0  0  0  0  0  0
   12.6605  -17.7622   22.3335 N   0  0  0  0  0  0  0  0  0  0  0  0
   13.7801  -16.9527   22.7136 C   0  0  1  0  0  0  0  0  0  0  0  0
   13.9899  -17.0708   24.1974 C   0  0  0  0  0  0  0  0  0  0  0  0
   15.1656  -16.3826   24.7214 C   0  0  0  0  0  0  0  0  0  0  0  0
   15.8804  -15.6639   23.9811 O   0  0  0  0  0  0  0  0  0  0  0  0
   14.9995  -17.2490   21.9441 C   0  0  0  0  0  0  0  0  0  0  0  0
   15.5240  -18.5263   21.9382 O   0  0  0  0  0  0  0  0  0  0  0  0
   15.4973  -16.5281   26.0666 O   0  0  0  0  0  0  0  0  0  0  0  0
   15.5832  -16.3618   21.2847 O   0  0  0  0  0  0  0  0  0  0  0  0
  2  1  1  0
  3  2  2  0
  4  3  1  0
  5  4  2  0
  5 11  1  0
  6  5  1  0
  7  6  1  0
  7  9  1  0
  7  8  1  1
  9 16  1  0
 10  9  2  0
 11 12  2  0
 12  2  1  0
 14 13  1  0
 15 14  1  6
 15 17  1  0
 16 15  1  0
 17 18  2  0
 17 19  1  0
 19 20  1  0
 20 21  1  1
 21 22  1  0
 22 23  2  0
 22 26  1  0
 24 20  1  0
 24 25  1  0
 27 24  2  0
M  END
$$$$
