YSD.pdb
     RDKit          3D

 27 27  0  0  1  0  0  0  0  0999 V2000
    6.2672  -16.2723   13.0674 O   0  0  0  0  0  0  0  0  0  0  0  0
    6.9586  -15.8917   14.2119 C   0  0  0  0  0  0  0  0  0  0  0  0
    7.5388  -14.6480   14.2907 C   0  0  0  0  0  0  0  0  0  0  0  0
    8.2182  -14.2636   15.4053 C   0  0  0  0  0  0  0  0  0  0  0  0
    8.3273  -15.1388   16.4779 C   0  0  0  0  0  0  0  0  0  0  0  0
    9.0673  -14.6657   17.6495 C   0  0  0  0  0  0  0  0  0  0  0  0
    8.1184  -13.9878   18.6021 C   0  0  2  0  0  0  0  0  0  0  0  0
    7.7647  -12.6535   18.1459 N   0  0  0  0  0  0  0  0  0  0  0  0
    8.6666  -13.9425   19.9617 C   0  0  0  0  0  0  0  0  0  0  0  0
    9.4645  -13.0508   20.3157 O   0  0  0  0  0  0  0  0  0  0  0  0
    7.7471  -16.3760   16.3933 C   0  0  0  0  0  0  0  0  0  0  0  0
    7.0548  -16.7605   15.2507 C   0  0  0  0  0  0  0  0  0  0  0  0
    7.1253  -16.4305   23.0922 O   0  0  0  0  0  0  0  0  0  0  0  0
    7.7569  -15.2334   23.2987 C   0  0  0  0  0  0  0  0  0  0  0  0
    8.8310  -14.9302   22.2827 C   0  0  2  0  0  0  0  0  0  0  0  0
    8.3084  -14.9168   20.9325 N   0  0  0  0  0  0  0  0  0  0  0  0
    9.9910  -15.8553   22.4096 C   0  0  0  0  0  0  0  0  0  0  0  0
   10.0972  -16.9168   21.7487 O   0  0  0  0  0  0  0  0  0  0  0  0
   11.0519  -15.5633   23.3092 N   0  0  0  0  0  0  0  0  0  0  0  0
   12.0976  -16.5151   23.5420 C   0  0  1  0  0  0  0  0  0  0  0  0
   13.4041  -15.7847   23.6804 C   0  0  0  0  0  0  0  0  0  0  0  0
   14.5812  -16.6312   23.8491 C   0  0  0  0  0  0  0  0  0  0  0  0
   14.4897  -17.8827   23.8204 O   0  0  0  0  0  0  0  0  0  0  0  0
   11.8263  -17.4104   24.6784 C   0  0  0  0  0  0  0  0  0  0  0  0
   12.3989  -18.6660   24.7256 O   0  0  0  0  0  0  0  0  0  0  0  0
   15.8257  -16.0368   24.0452 O   0  0  0  0  0  0  0  0  0  0  0  0
   11.0796  -17.0601   25.6177 O   0  0  0  0  0  0  0  0  0  0  0  0
  2  1  1  0
  3  2  2  0
  4  3  1  0
  5  4  2  0
  5 11  1  0
  6  5  1  0
  7  6  1  0
  7  9  1  0
  7  8  1  6
  9 16  1  0
 10  9  2  0
 11 12  2  0
 12  2  1  0
 14 13  1  0
 15 14  1  1
 15 17  1  0
 16 15  1  0
 17 18  2  0
 17 19  1  0
 19 20  1  0
 20 21  1  1
 21 22  1  0
 22 23  2  0
 22 26  1  0
 24 20  1  0
 24 25  1  0
 27 24  2  0
M  END
$$$$
