YSD.pdb
     RDKit          3D

 27 27  0  0  1  0  0  0  0  0999 V2000
   -1.1094  -24.9286   24.3693 O   0  0  0  0  0  0  0  0  0  0  0  0
    0.1631  -24.4023   24.5601 C   0  0  0  0  0  0  0  0  0  0  0  0
    1.1389  -25.1514   25.1735 C   0  0  0  0  0  0  0  0  0  0  0  0
    2.3883  -24.6477   25.3661 C   0  0  0  0  0  0  0  0  0  0  0  0
    2.6821  -23.3598   24.9378 C   0  0  0  0  0  0  0  0  0  0  0  0
    4.0445  -22.8763   25.1704 C   0  0  0  0  0  0  0  0  0  0  0  0
    4.6919  -22.5468   23.8514 C   0  0  2  0  0  0  0  0  0  0  0  0
    4.7706  -23.7137   22.9878 N   0  0  0  0  0  0  0  0  0  0  0  0
    6.0190  -21.9515   24.0407 C   0  0  0  0  0  0  0  0  0  0  0  0
    7.0601  -22.6339   23.9538 O   0  0  0  0  0  0  0  0  0  0  0  0
    1.7059  -22.6190   24.3275 C   0  0  0  0  0  0  0  0  0  0  0  0
    0.4321  -23.1415   24.1347 C   0  0  0  0  0  0  0  0  0  0  0  0
    6.5301  -17.9098   25.4722 O   0  0  0  0  0  0  0  0  0  0  0  0
    7.3452  -18.4251   24.5002 C   0  0  0  0  0  0  0  0  0  0  0  0
    7.4541  -19.9300   24.5338 C   0  0  2  0  0  0  0  0  0  0  0  0
    6.1706  -20.5686   24.3315 N   0  0  0  0  0  0  0  0  0  0  0  0
    8.1121  -20.4105   25.7803 C   0  0  0  0  0  0  0  0  0  0  0  0
    7.4748  -20.7262   26.8144 O   0  0  0  0  0  0  0  0  0  0  0  0
    9.5264  -20.5333   25.8486 N   0  0  0  0  0  0  0  0  0  0  0  0
   10.1744  -20.8582   27.0846 C   0  0  1  0  0  0  0  0  0  0  0  0
   11.5909  -21.2741   26.8016 C   0  0  0  0  0  0  0  0  0  0  0  0
   12.2706  -21.9680   27.8911 C   0  0  0  0  0  0  0  0  0  0  0  0
   11.7369  -22.0803   29.0217 O   0  0  0  0  0  0  0  0  0  0  0  0
   10.0895  -19.7825   28.0858 C   0  0  0  0  0  0  0  0  0  0  0  0
   10.2604  -20.0661   29.4263 O   0  0  0  0  0  0  0  0  0  0  0  0
   13.5329  -22.5140   27.6691 O   0  0  0  0  0  0  0  0  0  0  0  0
    9.8632  -18.5996   27.7509 O   0  0  0  0  0  0  0  0  0  0  0  0
  2  1  1  0
  3  2  2  0
  4  3  1  0
  5  4  2  0
  5 11  1  0
  6  5  1  0
  7  6  1  0
  7  9  1  0
  7  8  1  6
  9 16  1  0
 10  9  2  0
 11 12  2  0
 12  2  1  0
 14 13  1  0
 15 14  1  1
 15 17  1  0
 16 15  1  0
 17 18  2  0
 17 19  1  0
 19 20  1  0
 20 21  1  6
 21 22  1  0
 22 23  2  0
 22 26  1  0
 24 20  1  0
 24 25  1  0
 27 24  2  0
M  END
$$$$
