YSD.pdb
     RDKit          3D

 27 27  0  0  1  0  0  0  0  0999 V2000
    7.8260  -11.4099   18.0775 O   0  0  0  0  0  0  0  0  0  0  0  0
    7.9765  -12.3649   19.0763 C   0  0  0  0  0  0  0  0  0  0  0  0
    6.8815  -12.8209   19.7710 C   0  0  0  0  0  0  0  0  0  0  0  0
    7.0155  -13.7555   20.7510 C   0  0  0  0  0  0  0  0  0  0  0  0
    8.2751  -14.2557   21.0539 C   0  0  0  0  0  0  0  0  0  0  0  0
    8.3535  -15.2613   22.1154 C   0  0  0  0  0  0  0  0  0  0  0  0
    8.6754  -16.6031   21.5124 C   0  0  2  0  0  0  0  0  0  0  0  0
    7.6090  -17.0673   20.6400 N   0  0  0  0  0  0  0  0  0  0  0  0
    8.9680  -17.5990   22.5486 C   0  0  0  0  0  0  0  0  0  0  0  0
    8.0638  -18.1011   23.2468 O   0  0  0  0  0  0  0  0  0  0  0  0
    9.3616  -13.7976   20.3584 C   0  0  0  0  0  0  0  0  0  0  0  0
    9.2156  -12.8426   19.3587 C   0  0  0  0  0  0  0  0  0  0  0  0
   11.6642  -20.2589   21.8139 O   0  0  0  0  0  0  0  0  0  0  0  0
   10.8645  -20.4133   22.9144 C   0  0  0  0  0  0  0  0  0  0  0  0
   10.6290  -19.1333   23.6785 C   0  0  2  0  0  0  0  0  0  0  0  0
   10.2984  -18.0324   22.7982 N   0  0  0  0  0  0  0  0  0  0  0  0
   11.7777  -18.7973   24.5646 C   0  0  0  0  0  0  0  0  0  0  0  0
   12.6728  -17.9774   24.2459 O   0  0  0  0  0  0  0  0  0  0  0  0
   11.9080  -19.4094   25.8406 N   0  0  0  0  0  0  0  0  0  0  0  0
   13.0692  -19.1794   26.6481 C   0  0  1  0  0  0  0  0  0  0  0  0
   12.8368  -19.7547   28.0172 C   0  0  0  0  0  0  0  0  0  0  0  0
   11.8050  -19.0923   28.8091 C   0  0  0  0  0  0  0  0  0  0  0  0
   11.2528  -18.0399   28.4051 O   0  0  0  0  0  0  0  0  0  0  0  0
   14.3125  -19.6700   26.0314 C   0  0  0  0  0  0  0  0  0  0  0  0
   15.5229  -19.0863   26.3492 O   0  0  0  0  0  0  0  0  0  0  0  0
   11.4288  -19.6400   30.0335 O   0  0  0  0  0  0  0  0  0  0  0  0
   14.3032  -20.6160   25.2144 O   0  0  0  0  0  0  0  0  0  0  0  0
  2  1  1  0
  3  2  2  0
  4  3  1  0
  5  4  2  0
  5 11  1  0
  6  5  1  0
  7  6  1  0
  7  9  1  0
  7  8  1  1
  9 16  1  0
 10  9  2  0
 11 12  2  0
 12  2  1  0
 14 13  1  0
 15 14  1  6
 15 17  1  0
 16 15  1  0
 17 18  2  0
 17 19  1  0
 19 20  1  0
 20 21  1  1
 21 22  1  0
 22 23  2  0
 22 26  1  0
 24 20  1  0
 24 25  1  0
 27 24  2  0
M  END
$$$$
