YSD.pdb
     RDKit          3D

 27 27  0  0  1  0  0  0  0  0999 V2000
    6.7266  -12.0808   18.1456 O   0  0  0  0  0  0  0  0  0  0  0  0
    7.2641  -12.9156   19.1186 C   0  0  0  0  0  0  0  0  0  0  0  0
    8.1760  -13.8849   18.7745 C   0  0  0  0  0  0  0  0  0  0  0  0
    8.7093  -14.7084   19.7175 C   0  0  0  0  0  0  0  0  0  0  0  0
    8.3277  -14.5683   21.0453 C   0  0  0  0  0  0  0  0  0  0  0  0
    8.9393  -15.4815   22.0129 C   0  0  0  0  0  0  0  0  0  0  0  0
    8.4473  -16.8823   21.7608 C   0  0  2  0  0  0  0  0  0  0  0  0
    7.1178  -17.0895   22.3113 N   0  0  0  0  0  0  0  0  0  0  0  0
    9.3860  -17.8811   22.2829 C   0  0  0  0  0  0  0  0  0  0  0  0
    9.6051  -17.9960   23.5060 O   0  0  0  0  0  0  0  0  0  0  0  0
    7.4192  -13.6009   21.3816 C   0  0  0  0  0  0  0  0  0  0  0  0
    6.8793  -12.7639   20.4117 C   0  0  0  0  0  0  0  0  0  0  0  0
   10.6964  -21.0841   19.9175 O   0  0  0  0  0  0  0  0  0  0  0  0
   10.8474  -21.0848   21.2783 C   0  0  0  0  0  0  0  0  0  0  0  0
   11.0766  -19.7131   21.8646 C   0  0  2  0  0  0  0  0  0  0  0  0
   10.0850  -18.7602   21.4120 N   0  0  0  0  0  0  0  0  0  0  0  0
   12.4597  -19.2246   21.6081 C   0  0  0  0  0  0  0  0  0  0  0  0
   12.7536  -18.4688   20.6502 O   0  0  0  0  0  0  0  0  0  0  0  0
   13.5299  -19.6063   22.4619 N   0  0  0  0  0  0  0  0  0  0  0  0
   14.8834  -19.2665   22.1364 C   0  0  1  0  0  0  0  0  0  0  0  0
   15.2646  -18.0116   22.8709 C   0  0  0  0  0  0  0  0  0  0  0  0
   16.5091  -17.3843   22.4372 C   0  0  0  0  0  0  0  0  0  0  0  0
   17.2212  -17.9050   21.5443 O   0  0  0  0  0  0  0  0  0  0  0  0
   15.8313  -20.3685   22.3684 C   0  0  0  0  0  0  0  0  0  0  0  0
   16.7303  -20.7301   21.3847 O   0  0  0  0  0  0  0  0  0  0  0  0
   16.9105  -16.1874   23.0262 O   0  0  0  0  0  0  0  0  0  0  0  0
   15.8455  -20.9966   23.4490 O   0  0  0  0  0  0  0  0  0  0  0  0
  2  1  1  0
  3  2  2  0
  4  3  1  0
  5  4  2  0
  5 11  1  0
  6  5  1  0
  7  6  1  0
  7  9  1  0
  7  8  1  1
  9 16  1  0
 10  9  2  0
 11 12  2  0
 12  2  1  0
 14 13  1  0
 15 14  1  6
 15 17  1  0
 16 15  1  0
 17 18  2  0
 17 19  1  0
 19 20  1  0
 20 21  1  1
 21 22  1  0
 22 23  2  0
 22 26  1  0
 24 20  1  0
 24 25  1  0
 27 24  2  0
M  END
$$$$
