YSD.pdb
     RDKit          3D

 27 27  0  0  1  0  0  0  0  0999 V2000
    6.0276  -17.2084   13.0711 O   0  0  0  0  0  0  0  0  0  0  0  0
    6.7552  -16.7732   14.1729 C   0  0  0  0  0  0  0  0  0  0  0  0
    6.5549  -17.3453   15.4066 C   0  0  0  0  0  0  0  0  0  0  0  0
    7.2606  -16.9282   16.4928 C   0  0  0  0  0  0  0  0  0  0  0  0
    8.1958  -15.9110   16.3538 C   0  0  0  0  0  0  0  0  0  0  0  0
    8.9252  -15.5093   17.5582 C   0  0  0  0  0  0  0  0  0  0  0  0
    8.1297  -14.4704   18.3033 C   0  0  2  0  0  0  0  0  0  0  0  0
    8.0788  -13.2125   17.5763 N   0  0  0  0  0  0  0  0  0  0  0  0
    8.6533  -14.2654   19.6579 C   0  0  0  0  0  0  0  0  0  0  0  0
    9.7330  -13.6728   19.8589 O   0  0  0  0  0  0  0  0  0  0  0  0
    8.3907  -15.3455   15.1223 C   0  0  0  0  0  0  0  0  0  0  0  0
    7.6653  -15.7777   14.0180 C   0  0  0  0  0  0  0  0  0  0  0  0
    6.7371  -16.0376   23.1245 O   0  0  0  0  0  0  0  0  0  0  0  0
    7.4024  -14.8425   23.1848 C   0  0  0  0  0  0  0  0  0  0  0  0
    8.4844  -14.6964   22.1429 C   0  0  2  0  0  0  0  0  0  0  0  0
    7.9481  -14.7359   20.7987 N   0  0  0  0  0  0  0  0  0  0  0  0
    9.5700  -15.6990   22.3269 C   0  0  0  0  0  0  0  0  0  0  0  0
    9.7006  -16.7106   21.5956 O   0  0  0  0  0  0  0  0  0  0  0  0
   10.5266  -15.5445   23.3666 N   0  0  0  0  0  0  0  0  0  0  0  0
   11.5369  -16.5367   23.5857 C   0  0  1  0  0  0  0  0  0  0  0  0
   12.8783  -15.9577   23.2316 C   0  0  0  0  0  0  0  0  0  0  0  0
   14.0247  -16.8195   23.5025 C   0  0  0  0  0  0  0  0  0  0  0  0
   13.8926  -18.0640   23.5981 O   0  0  0  0  0  0  0  0  0  0  0  0
   11.5068  -17.1075   24.9421 C   0  0  0  0  0  0  0  0  0  0  0  0
   10.6866  -16.5594   25.9083 O   0  0  0  0  0  0  0  0  0  0  0  0
   15.2857  -16.2478   23.6568 O   0  0  0  0  0  0  0  0  0  0  0  0
   12.2146  -18.0910   25.2491 O   0  0  0  0  0  0  0  0  0  0  0  0
  2  1  1  0
  3  2  2  0
  4  3  1  0
  5  4  2  0
  5 11  1  0
  6  5  1  0
  7  6  1  0
  7  9  1  0
  7  8  1  6
  9 16  1  0
 10  9  2  0
 11 12  2  0
 12  2  1  0
 14 13  1  0
 15 14  1  1
 15 17  1  0
 16 15  1  0
 17 18  2  0
 17 19  1  0
 19 20  1  0
 20 21  1  1
 21 22  1  0
 22 23  2  0
 22 26  1  0
 24 20  1  0
 24 25  1  0
 27 24  2  0
M  END
$$$$
