YSD.pdb
     RDKit          3D

 27 27  0  0  1  0  0  0  0  0999 V2000
    6.8119  -13.5483   15.4889 O   0  0  0  0  0  0  0  0  0  0  0  0
    7.1443  -13.9789   16.7682 C   0  0  0  0  0  0  0  0  0  0  0  0
    7.3212  -15.3175   17.0257 C   0  0  0  0  0  0  0  0  0  0  0  0
    7.6466  -15.7517   18.2737 C   0  0  0  0  0  0  0  0  0  0  0  0
    7.8022  -14.8307   19.3013 C   0  0  0  0  0  0  0  0  0  0  0  0
    8.1560  -15.3595   20.6201 C   0  0  0  0  0  0  0  0  0  0  0  0
    9.5244  -14.8651   21.0082 C   0  0  2  0  0  0  0  0  0  0  0  0
   10.5518  -15.3810   20.1183 N   0  0  0  0  0  0  0  0  0  0  0  0
    9.8355  -15.1919   22.4038 C   0  0  0  0  0  0  0  0  0  0  0  0
   10.8024  -15.9211   22.7046 O   0  0  0  0  0  0  0  0  0  0  0  0
    7.6248  -13.4989   19.0384 C   0  0  0  0  0  0  0  0  0  0  0  0
    7.2924  -13.0641   17.7604 C   0  0  0  0  0  0  0  0  0  0  0  0
    7.0731  -14.6112   25.5720 O   0  0  0  0  0  0  0  0  0  0  0  0
    8.3675  -14.2156   25.7784 C   0  0  0  0  0  0  0  0  0  0  0  0
    9.3624  -14.8944   24.8689 C   0  0  2  0  0  0  0  0  0  0  0  0
    9.0442  -14.6884   23.4716 N   0  0  0  0  0  0  0  0  0  0  0  0
    9.5074  -16.3417   25.1879 C   0  0  0  0  0  0  0  0  0  0  0  0
    8.7036  -17.2169   24.7842 O   0  0  0  0  0  0  0  0  0  0  0  0
   10.5918  -16.8002   25.9840 N   0  0  0  0  0  0  0  0  0  0  0  0
   10.6630  -18.1674   26.4071 C   0  0  1  0  0  0  0  0  0  0  0  0
   12.0776  -18.6539   26.2589 C   0  0  0  0  0  0  0  0  0  0  0  0
   12.5283  -18.8632   24.8865 C   0  0  0  0  0  0  0  0  0  0  0  0
   11.7068  -19.0015   23.9477 O   0  0  0  0  0  0  0  0  0  0  0  0
   10.1281  -18.3856   27.7610 C   0  0  0  0  0  0  0  0  0  0  0  0
    9.9613  -19.6685   28.2435 O   0  0  0  0  0  0  0  0  0  0  0  0
   13.8944  -18.9097   24.6174 O   0  0  0  0  0  0  0  0  0  0  0  0
    9.8156  -17.4259   28.4985 O   0  0  0  0  0  0  0  0  0  0  0  0
  2  1  1  0
  3  2  2  0
  4  3  1  0
  5  4  2  0
  5 11  1  0
  6  5  1  0
  7  6  1  0
  7  9  1  0
  7  8  1  6
  9 16  1  0
 10  9  2  0
 11 12  2  0
 12  2  1  0
 14 13  1  0
 15 14  1  1
 15 17  1  0
 16 15  1  0
 17 18  2  0
 17 19  1  0
 19 20  1  0
 20 21  1  1
 21 22  1  0
 22 23  2  0
 22 26  1  0
 24 20  1  0
 24 25  1  0
 27 24  2  0
M  END
$$$$
