YSD.pdb
     RDKit          3D

 27 27  0  0  1  0  0  0  0  0999 V2000
    5.5539  -17.2948   12.9069 O   0  0  0  0  0  0  0  0  0  0  0  0
    6.4799  -16.6680   13.7329 C   0  0  0  0  0  0  0  0  0  0  0  0
    6.8137  -17.2212   14.9462 C   0  0  0  0  0  0  0  0  0  0  0  0
    7.7185  -16.6174   15.7638 C   0  0  0  0  0  0  0  0  0  0  0  0
    8.3131  -15.4266   15.3678 C   0  0  0  0  0  0  0  0  0  0  0  0
    9.2808  -14.8279   16.2894 C   0  0  0  0  0  0  0  0  0  0  0  0
    8.5617  -14.3174   17.5099 C   0  0  2  0  0  0  0  0  0  0  0  0
    7.7152  -13.1783   17.1948 N   0  0  0  0  0  0  0  0  0  0  0  0
    9.5025  -13.9827   18.5843 C   0  0  0  0  0  0  0  0  0  0  0  0
   10.1192  -12.8980   18.5989 O   0  0  0  0  0  0  0  0  0  0  0  0
    7.9765  -14.8809   14.1582 C   0  0  0  0  0  0  0  0  0  0  0  0
    7.0510  -15.5044   13.3292 C   0  0  0  0  0  0  0  0  0  0  0  0
    9.4333  -15.9514   22.3334 O   0  0  0  0  0  0  0  0  0  0  0  0
    9.9613  -14.7120   22.0892 C   0  0  0  0  0  0  0  0  0  0  0  0
   10.6497  -14.5980   20.7510 C   0  0  2  0  0  0  0  0  0  0  0  0
    9.7488  -14.8848   19.6545 N   0  0  0  0  0  0  0  0  0  0  0  0
   11.8755  -15.4409   20.6846 C   0  0  0  0  0  0  0  0  0  0  0  0
   11.8501  -16.6696   20.4307 O   0  0  0  0  0  0  0  0  0  0  0  0
   13.1570  -14.8701   20.9128 N   0  0  0  0  0  0  0  0  0  0  0  0
   14.3278  -15.6949   20.9623 C   0  0  1  0  0  0  0  0  0  0  0  0
   15.4798  -14.9489   20.3491 C   0  0  0  0  0  0  0  0  0  0  0  0
   15.3144  -14.5829   18.9458 C   0  0  0  0  0  0  0  0  0  0  0  0
   14.8436  -15.3967   18.1142 O   0  0  0  0  0  0  0  0  0  0  0  0
   14.6310  -16.1933   22.3137 C   0  0  0  0  0  0  0  0  0  0  0  0
   15.6655  -17.0869   22.5085 O   0  0  0  0  0  0  0  0  0  0  0  0
   15.6863  -13.3078   18.5257 O   0  0  0  0  0  0  0  0  0  0  0  0
   13.9672  -15.8242   23.3065 O   0  0  0  0  0  0  0  0  0  0  0  0
  2  1  1  0
  3  2  2  0
  4  3  1  0
  5  4  2  0
  5 11  1  0
  6  5  1  0
  7  6  1  0
  7  9  1  0
  7  8  1  6
  9 16  1  0
 10  9  2  0
 11 12  2  0
 12  2  1  0
 14 13  1  0
 15 14  1  1
 15 17  1  0
 16 15  1  0
 17 18  2  0
 17 19  1  0
 19 20  1  0
 20 21  1  1
 21 22  1  0
 22 23  2  0
 22 26  1  0
 24 20  1  0
 24 25  1  0
 27 24  2  0
M  END
$$$$
