YSD.pdb
     RDKit          3D

 27 27  0  0  1  0  0  0  0  0999 V2000
    7.6976  -13.1020   16.2259 O   0  0  0  0  0  0  0  0  0  0  0  0
    7.7629  -13.3436   17.5933 C   0  0  0  0  0  0  0  0  0  0  0  0
    7.0685  -12.5472   18.4726 C   0  0  0  0  0  0  0  0  0  0  0  0
    7.1243  -12.7731   19.8133 C   0  0  0  0  0  0  0  0  0  0  0  0
    7.8928  -13.8222   20.3005 C   0  0  0  0  0  0  0  0  0  0  0  0
    7.9094  -14.0161   21.7518 C   0  0  0  0  0  0  0  0  0  0  0  0
    8.6142  -15.3064   22.0774 C   0  0  2  0  0  0  0  0  0  0  0  0
    7.9887  -16.4395   21.4154 N   0  0  0  0  0  0  0  0  0  0  0  0
    8.6852  -15.5265   23.5258 C   0  0  0  0  0  0  0  0  0  0  0  0
    9.1847  -14.6781   24.2924 O   0  0  0  0  0  0  0  0  0  0  0  0
    8.5818  -14.6119   19.4197 C   0  0  0  0  0  0  0  0  0  0  0  0
    8.5192  -14.3738   18.0514 C   0  0  0  0  0  0  0  0  0  0  0  0
    6.2982  -18.4175   25.6047 O   0  0  0  0  0  0  0  0  0  0  0  0
    6.8811  -17.2861   26.1093 C   0  0  0  0  0  0  0  0  0  0  0  0
    8.2461  -16.9977   25.5338 C   0  0  2  0  0  0  0  0  0  0  0  0
    8.1856  -16.7199   24.1142 N   0  0  0  0  0  0  0  0  0  0  0  0
    9.2163  -18.0864   25.8358 C   0  0  0  0  0  0  0  0  0  0  0  0
    8.9752  -19.2991   25.6209 O   0  0  0  0  0  0  0  0  0  0  0  0
   10.4879  -17.7853   26.3947 N   0  0  0  0  0  0  0  0  0  0  0  0
   11.3322  -18.8281   26.8978 C   0  0  1  0  0  0  0  0  0  0  0  0
   12.7526  -18.5473   26.4938 C   0  0  0  0  0  0  0  0  0  0  0  0
   12.9310  -18.0480   25.1339 C   0  0  0  0  0  0  0  0  0  0  0  0
   12.3985  -18.6263   24.1553 O   0  0  0  0  0  0  0  0  0  0  0  0
   11.1879  -19.0449   28.3465 C   0  0  0  0  0  0  0  0  0  0  0  0
   11.8814  -20.0639   28.9689 O   0  0  0  0  0  0  0  0  0  0  0  0
   13.7059  -16.9099   24.9218 O   0  0  0  0  0  0  0  0  0  0  0  0
   10.4427  -18.3202   29.0409 O   0  0  0  0  0  0  0  0  0  0  0  0
  2  1  1  0
  3  2  2  0
  4  3  1  0
  5  4  2  0
  5 11  1  0
  6  5  1  0
  7  6  1  0
  7  9  1  0
  7  8  1  6
  9 16  1  0
 10  9  2  0
 11 12  2  0
 12  2  1  0
 14 13  1  0
 15 14  1  6
 15 17  1  0
 16 15  1  0
 17 18  2  0
 17 19  1  0
 19 20  1  0
 20 21  1  1
 21 22  1  0
 22 23  2  0
 22 26  1  0
 24 20  1  0
 24 25  1  0
 27 24  2  0
M  END
$$$$
