YSD.pdb
     RDKit          3D

 27 27  0  0  1  0  0  0  0  0999 V2000
    4.7702  -10.5213   27.6840 O   0  0  0  0  0  0  0  0  0  0  0  0
    5.6069  -11.4434   27.0658 C   0  0  0  0  0  0  0  0  0  0  0  0
    6.5373  -12.1383   27.8013 C   0  0  0  0  0  0  0  0  0  0  0  0
    7.3622  -13.0435   27.2080 C   0  0  0  0  0  0  0  0  0  0  0  0
    7.2634  -13.2687   25.8413 C   0  0  0  0  0  0  0  0  0  0  0  0
    8.1758  -14.2569   25.2625 C   0  0  0  0  0  0  0  0  0  0  0  0
    7.3787  -15.3849   24.6627 C   0  0  2  0  0  0  0  0  0  0  0  0
    6.6484  -16.1238   25.6798 N   0  0  0  0  0  0  0  0  0  0  0  0
    8.2314  -16.2854   23.8797 C   0  0  0  0  0  0  0  0  0  0  0  0
    8.5524  -17.4145   24.3030 O   0  0  0  0  0  0  0  0  0  0  0  0
    6.3346  -12.5735   25.1144 C   0  0  0  0  0  0  0  0  0  0  0  0
    5.4958  -11.6505   25.7286 C   0  0  0  0  0  0  0  0  0  0  0  0
   10.2885  -15.0490   20.1937 O   0  0  0  0  0  0  0  0  0  0  0  0
    9.7198  -16.2781   20.3945 C   0  0  0  0  0  0  0  0  0  0  0  0
    9.6725  -16.6960   21.8440 C   0  0  2  0  0  0  0  0  0  0  0  0
    8.7270  -15.9049   22.6031 N   0  0  0  0  0  0  0  0  0  0  0  0
   11.0236  -16.6801   22.4698 C   0  0  0  0  0  0  0  0  0  0  0  0
   11.4333  -15.7402   23.1936 O   0  0  0  0  0  0  0  0  0  0  0  0
   11.9263  -17.7587   22.2656 N   0  0  0  0  0  0  0  0  0  0  0  0
   13.2403  -17.7322   22.8365 C   0  0  1  0  0  0  0  0  0  0  0  0
   13.7084  -19.1436   23.0566 C   0  0  0  0  0  0  0  0  0  0  0  0
   14.9623  -19.2813   23.7910 C   0  0  0  0  0  0  0  0  0  0  0  0
   15.6242  -18.2734   24.1394 O   0  0  0  0  0  0  0  0  0  0  0  0
   14.1980  -16.9335   22.0544 C   0  0  0  0  0  0  0  0  0  0  0  0
   15.1649  -16.1848   22.6956 O   0  0  0  0  0  0  0  0  0  0  0  0
   15.4295  -20.5546   24.1092 O   0  0  0  0  0  0  0  0  0  0  0  0
   14.1598  -16.9137   20.8051 O   0  0  0  0  0  0  0  0  0  0  0  0
  2  1  1  0
  3  2  2  0
  4  3  1  0
  5  4  2  0
  5 11  1  0
  6  5  1  0
  7  6  1  0
  7  9  1  0
  7  8  1  1
  9 16  1  0
 10  9  2  0
 11 12  2  0
 12  2  1  0
 14 13  1  0
 15 14  1  6
 15 17  1  0
 16 15  1  0
 17 18  2  0
 17 19  1  0
 19 20  1  0
 20 21  1  6
 21 22  1  0
 22 23  2  0
 22 26  1  0
 24 20  1  0
 24 25  1  0
 27 24  2  0
M  END
$$$$
