YSD.pdb
     RDKit          3D

 27 27  0  0  1  0  0  0  0  0999 V2000
    4.8753  -10.6421   27.5911 O   0  0  0  0  0  0  0  0  0  0  0  0
    5.7219  -11.6106   27.0641 C   0  0  0  0  0  0  0  0  0  0  0  0
    6.6529  -12.2285   27.8648 C   0  0  0  0  0  0  0  0  0  0  0  0
    7.4874  -13.1780   27.3610 C   0  0  0  0  0  0  0  0  0  0  0  0
    7.3979  -13.5279   26.0201 C   0  0  0  0  0  0  0  0  0  0  0  0
    8.3205  -14.5582   25.5388 C   0  0  0  0  0  0  0  0  0  0  0  0
    7.5581  -15.5788   24.7360 C   0  0  2  0  0  0  0  0  0  0  0  0
    6.6295  -16.3280   25.5667 N   0  0  0  0  0  0  0  0  0  0  0  0
    8.4648  -16.4858   24.0243 C   0  0  0  0  0  0  0  0  0  0  0  0
    8.7915  -17.5913   24.5020 O   0  0  0  0  0  0  0  0  0  0  0  0
    6.4686  -12.9090   25.2279 C   0  0  0  0  0  0  0  0  0  0  0  0
    5.6200  -11.9400   25.7509 C   0  0  0  0  0  0  0  0  0  0  0  0
   10.3518  -15.2267   20.3903 O   0  0  0  0  0  0  0  0  0  0  0  0
   10.1460  -16.5591   20.6289 C   0  0  0  0  0  0  0  0  0  0  0  0
   10.0426  -16.9048   22.0944 C   0  0  2  0  0  0  0  0  0  0  0  0
    9.0085  -16.1387   22.7579 N   0  0  0  0  0  0  0  0  0  0  0  0
   11.3525  -16.7698   22.7896 C   0  0  0  0  0  0  0  0  0  0  0  0
   11.6748  -15.7553   23.4545 O   0  0  0  0  0  0  0  0  0  0  0  0
   12.3149  -17.8136   22.7248 N   0  0  0  0  0  0  0  0  0  0  0  0
   13.6202  -17.6425   23.2908 C   0  0  1  0  0  0  0  0  0  0  0  0
   14.0658  -18.9430   23.8989 C   0  0  0  0  0  0  0  0  0  0  0  0
   13.4475  -19.2823   25.1768 C   0  0  0  0  0  0  0  0  0  0  0  0
   13.6228  -20.4079   25.7038 O   0  0  0  0  0  0  0  0  0  0  0  0
   14.6005  -17.0981   22.3371 C   0  0  0  0  0  0  0  0  0  0  0  0
   15.8607  -16.7339   22.7683 O   0  0  0  0  0  0  0  0  0  0  0  0
   12.6498  -18.3385   25.8200 O   0  0  0  0  0  0  0  0  0  0  0  0
   14.3194  -16.9538   21.1277 O   0  0  0  0  0  0  0  0  0  0  0  0
  2  1  1  0
  3  2  2  0
  4  3  1  0
  5  4  2  0
  5 11  1  0
  6  5  1  0
  7  6  1  0
  7  9  1  0
  7  8  1  1
  9 16  1  0
 10  9  2  0
 11 12  2  0
 12  2  1  0
 14 13  1  0
 15 14  1  6
 15 17  1  0
 16 15  1  0
 17 18  2  0
 17 19  1  0
 19 20  1  0
 20 21  1  6
 21 22  1  0
 22 23  2  0
 22 26  1  0
 24 20  1  0
 24 25  1  0
 27 24  2  0
M  END
$$$$
