DWC.pdb
     RDKit          3D

 29 30  0  0  1  0  0  0  0  0999 V2000
   28.9276  -22.8946  -16.9666 N   0  0  0  0  0  0  0  0  0  0  0  0
   27.5736  -22.4234  -17.1324 C   0  0  1  0  0  0  0  0  0  0  0  0
   26.9312  -23.2983  -18.1741 C   0  0  0  0  0  0  0  0  0  0  0  0
   27.4700  -23.1306  -19.5265 C   0  0  0  0  0  0  0  0  0  0  0  0
   26.9633  -23.7857  -20.4736 O   0  0  0  0  0  0  0  0  0  0  0  0
   26.8598  -22.4201  -15.8379 C   0  0  0  0  0  0  0  0  0  0  0  0
   26.5058  -23.4478  -15.2181 O   0  0  0  0  0  0  0  0  0  0  0  0
   28.5112  -22.2893  -19.8330 O   0  0  0  0  0  0  0  0  0  0  0  0
   26.5504  -21.1701  -15.2497 N   0  0  0  0  0  0  0  0  0  0  0  0
   25.9838  -21.1039  -13.8914 C   0  0  1  0  0  0  0  0  0  0  0  0
   26.5345  -19.9473  -13.1481 C   0  0  0  0  0  0  0  0  0  0  0  0
   27.4136  -20.3409  -12.0410 C   0  0  0  0  0  0  0  0  0  0  0  0
   28.7647  -20.7097  -12.0963 C   0  0  0  0  0  0  0  0  0  0  0  0
   29.1755  -21.0304  -10.8597 N   0  0  0  0  0  0  0  0  0  0  0  0
   28.1845  -20.9010   -9.9706 C   0  0  0  0  0  0  0  0  0  0  0  0
   28.0783  -21.1020   -8.5962 C   0  0  0  0  0  0  0  0  0  0  0  0
   26.8677  -20.8718   -7.9556 C   0  0  0  0  0  0  0  0  0  0  0  0
   25.7716  -20.4474   -8.6623 C   0  0  0  0  0  0  0  0  0  0  0  0
   25.9052  -20.2554  -10.0293 C   0  0  0  0  0  0  0  0  0  0  0  0
   27.0934  -20.4771  -10.6841 C   0  0  0  0  0  0  0  0  0  0  0  0
   24.5342  -20.9284  -14.0736 C   0  0  0  0  0  0  0  0  0  0  0  0
   24.1261  -20.6386  -15.2545 O   0  0  0  0  0  0  0  0  0  0  0  0
   23.5366  -21.0498  -13.0898 N   0  0  0  0  0  0  0  0  0  0  0  0
   22.1330  -20.8836  -13.3835 C   0  0  1  0  0  0  0  0  0  0  0  0
   21.4745  -22.2270  -13.6752 C   0  0  0  0  0  0  0  0  0  0  0  0
   19.6902  -21.9741  -13.8799 S   0  0  0  0  0  0  0  0  0  0  0  0
   21.3427  -20.2314  -12.3485 C   0  0  0  0  0  0  0  0  0  0  0  0
   21.7356  -20.3880  -11.1393 O   0  0  0  0  0  0  0  0  0  0  0  0
   20.2143  -19.4584  -12.5057 O   0  0  0  0  0  0  0  0  0  0  0  0
  2  1  1  1
  2  6  1  0
  3  2  1  0
  3  4  1  0
  4  8  1  0
  5  4  2  0
  6  9  1  0
  7  6  2  0
  9 10  1  0
 10 11  1  1
 12 11  1  0
 13 12  2  0
 14 13  1  0
 15 14  1  0
 15 20  2  0
 16 15  1  0
 17 16  2  0
 17 18  1  0
 18 19  2  0
 19 20  1  0
 20 12  1  0
 21 22  2  0
 21 10  1  0
 23 21  1  0
 24 23  1  0
 24 27  1  0
 24 25  1  1
 26 25  1  0
 27 29  1  0
 28 27  2  0
M  END
$$$$
