DWC.pdb
     RDKit          3D

 29 30  0  0  1  0  0  0  0  0999 V2000
   34.2655  -35.9607   -6.1990 N   0  0  0  0  0  0  0  0  0  0  0  0
   33.0252  -36.6490   -5.9326 C   0  0  1  0  0  0  0  0  0  0  0  0
   33.3833  -37.9608   -5.2891 C   0  0  0  0  0  0  0  0  0  0  0  0
   33.4508  -39.0947   -6.2148 C   0  0  0  0  0  0  0  0  0  0  0  0
   33.2212  -38.9027   -7.4368 O   0  0  0  0  0  0  0  0  0  0  0  0
   32.1288  -35.8096   -5.1099 C   0  0  0  0  0  0  0  0  0  0  0  0
   32.4825  -35.1809   -4.0874 O   0  0  0  0  0  0  0  0  0  0  0  0
   33.7540  -40.3771   -5.8282 O   0  0  0  0  0  0  0  0  0  0  0  0
   30.7716  -35.7032   -5.4984 N   0  0  0  0  0  0  0  0  0  0  0  0
   29.8218  -34.9219   -4.6873 C   0  0  1  0  0  0  0  0  0  0  0  0
   28.8681  -34.1913   -5.5534 C   0  0  0  0  0  0  0  0  0  0  0  0
   27.7800  -33.5549   -4.8021 C   0  0  0  0  0  0  0  0  0  0  0  0
   27.8765  -32.6646   -3.7239 C   0  0  0  0  0  0  0  0  0  0  0  0
   26.6388  -32.3538   -3.3087 N   0  0  0  0  0  0  0  0  0  0  0  0
   25.7103  -32.9798   -4.0404 C   0  0  0  0  0  0  0  0  0  0  0  0
   24.3175  -33.0072   -4.0280 C   0  0  0  0  0  0  0  0  0  0  0  0
   23.6335  -33.7870   -4.9513 C   0  0  0  0  0  0  0  0  0  0  0  0
   24.3148  -34.5333   -5.8786 C   0  0  0  0  0  0  0  0  0  0  0  0
   25.7010  -34.4877   -5.8685 C   0  0  0  0  0  0  0  0  0  0  0  0
   26.3988  -33.7230   -4.9639 C   0  0  0  0  0  0  0  0  0  0  0  0
   29.0929  -35.9058   -3.8711 C   0  0  0  0  0  0  0  0  0  0  0  0
   28.9185  -37.0702   -4.3799 O   0  0  0  0  0  0  0  0  0  0  0  0
   28.5667  -35.7121   -2.5815 N   0  0  0  0  0  0  0  0  0  0  0  0
   28.0493  -36.7982   -1.7835 C   0  0  1  0  0  0  0  0  0  0  0  0
   29.1292  -37.8398   -1.5150 C   0  0  0  0  0  0  0  0  0  0  0  0
   28.8775  -39.2475   -2.6307 S   0  0  0  0  0  0  0  0  0  0  0  0
   27.4821  -36.4229   -0.4957 C   0  0  0  0  0  0  0  0  0  0  0  0
   27.9993  -35.4062    0.0874 O   0  0  0  0  0  0  0  0  0  0  0  0
   26.4483  -37.0282    0.1830 O   0  0  0  0  0  0  0  0  0  0  0  0
  2  1  1  1
  2  6  1  0
  3  2  1  0
  3  4  1  0
  4  8  1  0
  5  4  2  0
  6  9  1  0
  7  6  2  0
  9 10  1  0
 10 11  1  6
 12 11  1  0
 13 12  2  0
 14 13  1  0
 15 14  1  0
 15 20  2  0
 16 15  1  0
 17 16  2  0
 17 18  1  0
 18 19  2  0
 19 20  1  0
 20 12  1  0
 21 22  2  0
 21 10  1  0
 23 21  1  0
 24 23  1  0
 24 27  1  0
 24 25  1  1
 26 25  1  0
 27 29  1  0
 28 27  2  0
M  END
$$$$
