DWC.pdb
     RDKit          3D

 29 30  0  0  1  0  0  0  0  0999 V2000
   28.2970  -21.1872  -15.5165 N   0  0  0  0  0  0  0  0  0  0  0  0
   27.5269  -20.2472  -14.7378 C   0  0  1  0  0  0  0  0  0  0  0  0
   26.8043  -19.3598  -15.7144 C   0  0  0  0  0  0  0  0  0  0  0  0
   27.6736  -18.4625  -16.4802 C   0  0  0  0  0  0  0  0  0  0  0  0
   27.9348  -18.7383  -17.6796 O   0  0  0  0  0  0  0  0  0  0  0  0
   26.6280  -20.9566  -13.8030 C   0  0  0  0  0  0  0  0  0  0  0  0
   26.1994  -22.1198  -13.9728 O   0  0  0  0  0  0  0  0  0  0  0  0
   28.2321  -17.3188  -15.9643 O   0  0  0  0  0  0  0  0  0  0  0  0
   26.2173  -20.2799  -12.6293 N   0  0  0  0  0  0  0  0  0  0  0  0
   25.3436  -20.9481  -11.6492 C   0  0  1  0  0  0  0  0  0  0  0  0
   25.5728  -20.4103  -10.2884 C   0  0  0  0  0  0  0  0  0  0  0  0
   26.9166  -20.6995   -9.7745 C   0  0  0  0  0  0  0  0  0  0  0  0
   27.9386  -21.4370  -10.3876 C   0  0  0  0  0  0  0  0  0  0  0  0
   28.9913  -21.4889   -9.5570 N   0  0  0  0  0  0  0  0  0  0  0  0
   28.7439  -20.8312   -8.4188 C   0  0  0  0  0  0  0  0  0  0  0  0
   29.4744  -20.5866   -7.2580 C   0  0  0  0  0  0  0  0  0  0  0  0
   28.9084  -19.8462   -6.2284 C   0  0  0  0  0  0  0  0  0  0  0  0
   27.6343  -19.3511   -6.3408 C   0  0  0  0  0  0  0  0  0  0  0  0
   26.9295  -19.6095   -7.5071 C   0  0  0  0  0  0  0  0  0  0  0  0
   27.4698  -20.3399   -8.5389 C   0  0  0  0  0  0  0  0  0  0  0  0
   23.9671  -20.6468  -12.0733 C   0  0  0  0  0  0  0  0  0  0  0  0
   23.6193  -19.4123  -12.0894 O   0  0  0  0  0  0  0  0  0  0  0  0
   22.9834  -21.5690  -12.4724 N   0  0  0  0  0  0  0  0  0  0  0  0
   21.6808  -21.1598  -12.9414 C   0  0  1  0  0  0  0  0  0  0  0  0
   21.5704  -21.3211  -14.4530 C   0  0  0  0  0  0  0  0  0  0  0  0
   21.1680  -19.7122  -15.1873 S   0  0  0  0  0  0  0  0  0  0  0  0
   20.5473  -21.8566  -12.3491 C   0  0  0  0  0  0  0  0  0  0  0  0
   20.6973  -23.1075  -12.1169 O   0  0  0  0  0  0  0  0  0  0  0  0
   19.3206  -21.3363  -12.0024 O   0  0  0  0  0  0  0  0  0  0  0  0
  2  1  1  6
  2  6  1  0
  3  2  1  0
  3  4  1  0
  4  8  1  0
  5  4  2  0
  6  9  1  0
  7  6  2  0
  9 10  1  0
 10 11  1  1
 12 11  1  0
 13 12  2  0
 14 13  1  0
 15 14  1  0
 15 20  2  0
 16 15  1  0
 17 16  2  0
 17 18  1  0
 18 19  2  0
 19 20  1  0
 20 12  1  0
 21 22  2  0
 21 10  1  0
 23 21  1  0
 24 23  1  0
 24 27  1  0
 24 25  1  6
 26 25  1  0
 27 29  1  0
 28 27  2  0
M  END
$$$$
