DWC.pdb
     RDKit          3D

 29 30  0  0  1  0  0  0  0  0999 V2000
   33.1205  -32.2982  -17.5419 N   0  0  0  0  0  0  0  0  0  0  0  0
   32.5817  -31.4270  -18.5587 C   0  0  1  0  0  0  0  0  0  0  0  0
   32.5740  -32.2087  -19.8441 C   0  0  0  0  0  0  0  0  0  0  0  0
   32.0782  -31.4656  -21.0056 C   0  0  0  0  0  0  0  0  0  0  0  0
   32.2067  -30.2143  -21.0332 O   0  0  0  0  0  0  0  0  0  0  0  0
   31.2496  -30.9235  -18.1624 C   0  0  0  0  0  0  0  0  0  0  0  0
   30.3436  -31.6262  -17.6612 O   0  0  0  0  0  0  0  0  0  0  0  0
   31.4710  -32.0570  -22.0862 O   0  0  0  0  0  0  0  0  0  0  0  0
   30.9696  -29.5499  -18.3599 N   0  0  0  0  0  0  0  0  0  0  0  0
   29.6810  -28.9810  -17.9282 C   0  0  1  0  0  0  0  0  0  0  0  0
   29.8236  -27.5427  -17.6050 C   0  0  0  0  0  0  0  0  0  0  0  0
   28.5685  -26.9259  -17.1602 C   0  0  0  0  0  0  0  0  0  0  0  0
   27.5306  -27.5095  -16.4210 C   0  0  0  0  0  0  0  0  0  0  0  0
   26.5518  -26.6051  -16.2630 N   0  0  0  0  0  0  0  0  0  0  0  0
   26.8643  -25.4447  -16.8504 C   0  0  0  0  0  0  0  0  0  0  0  0
   26.2197  -24.2168  -16.9830 C   0  0  0  0  0  0  0  0  0  0  0  0
   26.8358  -23.1844  -17.6781 C   0  0  0  0  0  0  0  0  0  0  0  0
   28.0755  -23.3595  -18.2377 C   0  0  0  0  0  0  0  0  0  0  0  0
   28.6946  -24.5919  -18.0907 C   0  0  0  0  0  0  0  0  0  0  0  0
   28.1036  -25.6278  -17.4070 C   0  0  0  0  0  0  0  0  0  0  0  0
   28.7719  -29.1413  -19.0742 C   0  0  0  0  0  0  0  0  0  0  0  0
   29.2361  -28.8442  -20.2323 O   0  0  0  0  0  0  0  0  0  0  0  0
   27.4408  -29.5939  -19.0417 N   0  0  0  0  0  0  0  0  0  0  0  0
   26.5985  -29.6114  -20.2140 C   0  0  1  0  0  0  0  0  0  0  0  0
   26.2091  -31.0379  -20.5839 C   0  0  0  0  0  0  0  0  0  0  0  0
   27.7109  -32.0504  -20.6794 S   0  0  0  0  0  0  0  0  0  0  0  0
   25.3676  -28.8386  -20.1205 C   0  0  0  0  0  0  0  0  0  0  0  0
   24.6933  -28.6962  -21.2004 O   0  0  0  0  0  0  0  0  0  0  0  0
   24.8294  -28.2349  -19.0062 O   0  0  0  0  0  0  0  0  0  0  0  0
  2  1  1  1
  2  6  1  0
  3  2  1  0
  3  4  1  0
  4  8  1  0
  5  4  2  0
  6  9  1  0
  7  6  2  0
  9 10  1  0
 10 11  1  6
 12 11  1  0
 13 12  2  0
 14 13  1  0
 15 14  1  0
 15 20  2  0
 16 15  1  0
 17 16  2  0
 17 18  1  0
 18 19  2  0
 19 20  1  0
 20 12  1  0
 21 22  2  0
 21 10  1  0
 23 21  1  0
 24 23  1  0
 24 27  1  0
 24 25  1  1
 26 25  1  0
 27 29  1  0
 28 27  2  0
M  END
$$$$
