DWC.pdb
     RDKit          3D

 29 30  0  0  1  0  0  0  0  0999 V2000
   26.8721  -22.3945  -17.0022 N   0  0  0  0  0  0  0  0  0  0  0  0
   27.4123  -21.2108  -16.3778 C   0  0  1  0  0  0  0  0  0  0  0  0
   28.0814  -20.4115  -17.4627 C   0  0  0  0  0  0  0  0  0  0  0  0
   29.2656  -21.0480  -18.0456 C   0  0  0  0  0  0  0  0  0  0  0  0
   29.5439  -22.2329  -17.7269 O   0  0  0  0  0  0  0  0  0  0  0  0
   26.3532  -20.4689  -15.6615 C   0  0  0  0  0  0  0  0  0  0  0  0
   26.4754  -19.3053  -15.2178 O   0  0  0  0  0  0  0  0  0  0  0  0
   30.1070  -20.4239  -18.9335 O   0  0  0  0  0  0  0  0  0  0  0  0
   25.1087  -21.1124  -15.4581 N   0  0  0  0  0  0  0  0  0  0  0  0
   23.9936  -20.3953  -14.8156 C   0  0  1  0  0  0  0  0  0  0  0  0
   22.7471  -20.5513  -15.6000 C   0  0  0  0  0  0  0  0  0  0  0  0
   22.7038  -19.6912  -16.7882 C   0  0  0  0  0  0  0  0  0  0  0  0
   23.0846  -20.0055  -18.0999 C   0  0  0  0  0  0  0  0  0  0  0  0
   22.9182  -18.9191  -18.8698 N   0  0  0  0  0  0  0  0  0  0  0  0
   22.4478  -17.8883  -18.1588 C   0  0  0  0  0  0  0  0  0  0  0  0
   22.1113  -16.5707  -18.4614 C   0  0  0  0  0  0  0  0  0  0  0  0
   21.6387  -15.7311  -17.4612 C   0  0  0  0  0  0  0  0  0  0  0  0
   21.4988  -16.1848  -16.1746 C   0  0  0  0  0  0  0  0  0  0  0  0
   21.8412  -17.5007  -15.9010 C   0  0  0  0  0  0  0  0  0  0  0  0
   22.3109  -18.3494  -16.8751 C   0  0  0  0  0  0  0  0  0  0  0  0
   23.8269  -21.0216  -13.4945 C   0  0  0  0  0  0  0  0  0  0  0  0
   23.5571  -22.2754  -13.4739 O   0  0  0  0  0  0  0  0  0  0  0  0
   23.9372  -20.3947  -12.2406 N   0  0  0  0  0  0  0  0  0  0  0  0
   23.6305  -21.0737  -11.0040 C   0  0  1  0  0  0  0  0  0  0  0  0
   24.5931  -20.6546   -9.8990 C   0  0  0  0  0  0  0  0  0  0  0  0
   26.2885  -20.7245  -10.5395 S   0  0  0  0  0  0  0  0  0  0  0  0
   22.2795  -20.8819  -10.4951 C   0  0  0  0  0  0  0  0  0  0  0  0
   21.5768  -19.9690  -11.0555 O   0  0  0  0  0  0  0  0  0  0  0  0
   21.6533  -21.5649   -9.4767 O   0  0  0  0  0  0  0  0  0  0  0  0
  2  1  1  6
  2  6  1  0
  3  2  1  0
  3  4  1  0
  4  8  1  0
  5  4  2  0
  6  9  1  0
  7  6  2  0
  9 10  1  0
 10 11  1  6
 12 11  1  0
 13 12  2  0
 14 13  1  0
 15 14  1  0
 15 20  2  0
 16 15  1  0
 17 16  2  0
 17 18  1  0
 18 19  2  0
 19 20  1  0
 20 12  1  0
 21 22  2  0
 21 10  1  0
 23 21  1  0
 24 23  1  0
 24 27  1  0
 24 25  1  1
 26 25  1  0
 27 29  1  0
 28 27  2  0
M  END
$$$$
