DWC.pdb
     RDKit          3D

 29 30  0  0  1  0  0  0  0  0999 V2000
   28.8401  -21.4466  -15.4101 N   0  0  0  0  0  0  0  0  0  0  0  0
   27.5101  -20.9007  -15.5371 C   0  0  1  0  0  0  0  0  0  0  0  0
   27.0588  -21.1736  -16.9461 C   0  0  0  0  0  0  0  0  0  0  0  0
   27.9065  -20.5790  -17.9829 C   0  0  0  0  0  0  0  0  0  0  0  0
   28.3911  -19.4331  -17.7957 O   0  0  0  0  0  0  0  0  0  0  0  0
   26.6134  -21.4658  -14.5068 C   0  0  0  0  0  0  0  0  0  0  0  0
   26.0639  -22.5876  -14.5795 O   0  0  0  0  0  0  0  0  0  0  0  0
   28.2121  -21.2026  -19.1677 O   0  0  0  0  0  0  0  0  0  0  0  0
   26.3516  -20.6900  -13.3518 N   0  0  0  0  0  0  0  0  0  0  0  0
   25.5250  -21.2324  -12.2596 C   0  0  1  0  0  0  0  0  0  0  0  0
   25.7490  -20.4765  -11.0059 C   0  0  0  0  0  0  0  0  0  0  0  0
   27.0296  -20.7945  -10.3636 C   0  0  0  0  0  0  0  0  0  0  0  0
   28.1418  -21.4400  -10.9209 C   0  0  0  0  0  0  0  0  0  0  0  0
   29.0876  -21.5626   -9.9768 N   0  0  0  0  0  0  0  0  0  0  0  0
   28.6830  -21.0392   -8.8142 C   0  0  0  0  0  0  0  0  0  0  0  0
   29.2595  -20.9098   -7.5525 C   0  0  0  0  0  0  0  0  0  0  0  0
   28.5493  -20.2983   -6.5277 C   0  0  0  0  0  0  0  0  0  0  0  0
   27.2826  -19.8186   -6.7432 C   0  0  0  0  0  0  0  0  0  0  0  0
   26.7328  -19.9607   -8.0086 C   0  0  0  0  0  0  0  0  0  0  0  0
   27.4174  -20.5624   -9.0377 C   0  0  0  0  0  0  0  0  0  0  0  0
   24.1297  -21.0628  -12.6953 C   0  0  0  0  0  0  0  0  0  0  0  0
   23.8114  -19.9287  -13.2028 O   0  0  0  0  0  0  0  0  0  0  0  0
   23.0984  -22.0161  -12.6223 N   0  0  0  0  0  0  0  0  0  0  0  0
   21.7484  -21.7327  -13.0482 C   0  0  1  0  0  0  0  0  0  0  0  0
   20.9931  -23.0201  -13.3575 C   0  0  0  0  0  0  0  0  0  0  0  0
   19.3066  -22.6009  -13.8767 S   0  0  0  0  0  0  0  0  0  0  0  0
   20.9357  -20.9704  -12.1104 C   0  0  0  0  0  0  0  0  0  0  0  0
   21.0480  -21.2747  -10.8710 O   0  0  0  0  0  0  0  0  0  0  0  0
   20.0521  -19.9520  -12.3889 O   0  0  0  0  0  0  0  0  0  0  0  0
  2  1  1  6
  2  6  1  0
  3  2  1  0
  3  4  1  0
  4  8  1  0
  5  4  2  0
  6  9  1  0
  7  6  2  0
  9 10  1  0
 10 11  1  1
 12 11  1  0
 13 12  2  0
 14 13  1  0
 15 14  1  0
 15 20  2  0
 16 15  1  0
 17 16  2  0
 17 18  1  0
 18 19  2  0
 19 20  1  0
 20 12  1  0
 21 22  2  0
 21 10  1  0
 23 21  1  0
 24 23  1  0
 24 27  1  0
 24 25  1  1
 26 25  1  0
 27 29  1  0
 28 27  2  0
M  END
$$$$
