DWC.pdb
     RDKit          3D

 29 30  0  0  1  0  0  0  0  0999 V2000
   18.3981  -13.0275  -16.3729 N   0  0  0  0  0  0  0  0  0  0  0  0
   18.9770  -12.0198  -17.2287 C   0  0  1  0  0  0  0  0  0  0  0  0
   18.1115  -11.9399  -18.4566 C   0  0  0  0  0  0  0  0  0  0  0  0
   18.0183  -13.1883  -19.2181 C   0  0  0  0  0  0  0  0  0  0  0  0
   19.0626  -13.8581  -19.4271 O   0  0  0  0  0  0  0  0  0  0  0  0
   19.1061  -10.7351  -16.5089 C   0  0  0  0  0  0  0  0  0  0  0  0
   18.1480  -10.0900  -16.0275 O   0  0  0  0  0  0  0  0  0  0  0  0
   16.8434  -13.6840  -19.7280 O   0  0  0  0  0  0  0  0  0  0  0  0
   20.4017  -10.1879  -16.3475 N   0  0  0  0  0  0  0  0  0  0  0  0
   20.5964   -8.9418  -15.5860 C   0  0  1  0  0  0  0  0  0  0  0  0
   22.0172   -8.7777  -15.2014 C   0  0  0  0  0  0  0  0  0  0  0  0
   22.3377   -7.4184  -14.7507 C   0  0  0  0  0  0  0  0  0  0  0  0
   21.8046   -6.7190  -13.6593 C   0  0  0  0  0  0  0  0  0  0  0  0
   22.3457   -5.4914  -13.6274 N   0  0  0  0  0  0  0  0  0  0  0  0
   23.2128   -5.3174  -14.6309 C   0  0  0  0  0  0  0  0  0  0  0  0
   24.0220   -4.2618  -15.0453 C   0  0  0  0  0  0  0  0  0  0  0  0
   24.8299   -4.4088  -16.1652 C   0  0  0  0  0  0  0  0  0  0  0  0
   24.8410   -5.5848  -16.8708 C   0  0  0  0  0  0  0  0  0  0  0  0
   24.0257   -6.6194  -16.4364 C   0  0  0  0  0  0  0  0  0  0  0  0
   23.2180   -6.4961  -15.3308 C   0  0  0  0  0  0  0  0  0  0  0  0
   20.2028   -7.8543  -16.4958 C   0  0  0  0  0  0  0  0  0  0  0  0
   20.5750   -7.9545  -17.7191 O   0  0  0  0  0  0  0  0  0  0  0  0
   19.4521   -6.7101  -16.1722 N   0  0  0  0  0  0  0  0  0  0  0  0
   19.2620   -5.6193  -17.0986 C   0  0  1  0  0  0  0  0  0  0  0  0
   17.8519   -5.6351  -17.6772 C   0  0  0  0  0  0  0  0  0  0  0  0
   17.6550   -4.2108  -18.7827 S   0  0  0  0  0  0  0  0  0  0  0  0
   19.4931   -4.2854  -16.5615 C   0  0  0  0  0  0  0  0  0  0  0  0
   19.3001   -4.1289  -15.3048 O   0  0  0  0  0  0  0  0  0  0  0  0
   19.8978   -3.1578  -17.2400 O   0  0  0  0  0  0  0  0  0  0  0  0
  2  1  1  1
  2  6  1  0
  3  2  1  0
  3  4  1  0
  4  8  1  0
  5  4  2  0
  6  9  1  0
  7  6  2  0
  9 10  1  0
 10 11  1  6
 12 11  1  0
 13 12  2  0
 14 13  1  0
 15 14  1  0
 15 20  2  0
 16 15  1  0
 17 16  2  0
 17 18  1  0
 18 19  2  0
 19 20  1  0
 20 12  1  0
 21 22  2  0
 21 10  1  0
 23 21  1  0
 24 23  1  0
 24 27  1  0
 24 25  1  1
 26 25  1  0
 27 29  1  0
 28 27  2  0
M  END
$$$$
