DWC.pdb
     RDKit          3D

 29 30  0  0  1  0  0  0  0  0999 V2000
   18.0834  -10.5171  -14.6983 N   0  0  0  0  0  0  0  0  0  0  0  0
   17.1629   -9.5096  -14.2287 C   0  0  1  0  0  0  0  0  0  0  0  0
   15.7907  -10.1258  -14.2544 C   0  0  0  0  0  0  0  0  0  0  0  0
   15.2206  -10.2868  -15.5946 C   0  0  0  0  0  0  0  0  0  0  0  0
   15.9328  -10.0276  -16.5988 O   0  0  0  0  0  0  0  0  0  0  0  0
   17.5663   -9.0146  -12.8956 C   0  0  0  0  0  0  0  0  0  0  0  0
   17.8988   -9.7455  -11.9359 O   0  0  0  0  0  0  0  0  0  0  0  0
   13.9356  -10.7101  -15.8303 O   0  0  0  0  0  0  0  0  0  0  0  0
   17.5808   -7.6155  -12.6795 N   0  0  0  0  0  0  0  0  0  0  0  0
   17.9628   -7.0667  -11.3668 C   0  0  1  0  0  0  0  0  0  0  0  0
   18.8298   -5.8767  -11.5270 C   0  0  0  0  0  0  0  0  0  0  0  0
   20.0641   -6.1599  -12.2686 C   0  0  0  0  0  0  0  0  0  0  0  0
   20.7665   -7.3699  -12.3522 C   0  0  0  0  0  0  0  0  0  0  0  0
   21.8618   -7.1820  -13.1043 N   0  0  0  0  0  0  0  0  0  0  0  0
   21.9435   -5.9182  -13.5349 C   0  0  0  0  0  0  0  0  0  0  0  0
   22.8536   -5.2154  -14.3213 C   0  0  0  0  0  0  0  0  0  0  0  0
   22.6414   -3.8691  -14.5879 C   0  0  0  0  0  0  0  0  0  0  0  0
   21.5427   -3.2206  -14.0845 C   0  0  0  0  0  0  0  0  0  0  0  0
   20.6528   -3.9442  -13.3046 C   0  0  0  0  0  0  0  0  0  0  0  0
   20.8429   -5.2773  -13.0279 C   0  0  0  0  0  0  0  0  0  0  0  0
   16.7018   -6.6745  -10.7177 C   0  0  0  0  0  0  0  0  0  0  0  0
   15.8029   -6.1442  -11.4632 O   0  0  0  0  0  0  0  0  0  0  0  0
   16.3668   -6.8232   -9.3600 N   0  0  0  0  0  0  0  0  0  0  0  0
   15.1065   -6.3736   -8.8181 C   0  0  1  0  0  0  0  0  0  0  0  0
   14.7349   -7.1680   -7.5714 C   0  0  0  0  0  0  0  0  0  0  0  0
   13.1155   -6.6064   -6.9784 S   0  0  0  0  0  0  0  0  0  0  0  0
   15.0361   -4.9619   -8.4671 C   0  0  0  0  0  0  0  0  0  0  0  0
   16.0695   -4.4562   -7.9036 O   0  0  0  0  0  0  0  0  0  0  0  0
   13.9886   -4.0910   -8.6663 O   0  0  0  0  0  0  0  0  0  0  0  0
  2  1  1  1
  2  6  1  0
  3  2  1  0
  3  4  1  0
  4  8  1  0
  5  4  2  0
  6  9  1  0
  7  6  2  0
  9 10  1  0
 10 11  1  6
 12 11  1  0
 13 12  2  0
 14 13  1  0
 15 14  1  0
 15 20  2  0
 16 15  1  0
 17 16  2  0
 17 18  1  0
 18 19  2  0
 19 20  1  0
 20 12  1  0
 21 22  2  0
 21 10  1  0
 23 21  1  0
 24 23  1  0
 24 27  1  0
 24 25  1  1
 26 25  1  0
 27 29  1  0
 28 27  2  0
M  END
$$$$
