DWC.pdb
     RDKit          3D

 29 30  0  0  1  0  0  0  0  0999 V2000
   27.4096  -22.7445  -15.7292 N   0  0  0  0  0  0  0  0  0  0  0  0
   26.9758  -21.5040  -15.1326 C   0  0  1  0  0  0  0  0  0  0  0  0
   26.2412  -20.7395  -16.1999 C   0  0  0  0  0  0  0  0  0  0  0  0
   27.0810  -20.2880  -17.3127 C   0  0  0  0  0  0  0  0  0  0  0  0
   26.7260  -20.5452  -18.4920 O   0  0  0  0  0  0  0  0  0  0  0  0
   26.1658  -21.7616  -13.9232 C   0  0  0  0  0  0  0  0  0  0  0  0
   25.5154  -22.8096  -13.7124 O   0  0  0  0  0  0  0  0  0  0  0  0
   28.2520  -19.5895  -17.1491 O   0  0  0  0  0  0  0  0  0  0  0  0
   26.1162  -20.7570  -12.9269 N   0  0  0  0  0  0  0  0  0  0  0  0
   25.2693  -20.9298  -11.7338 C   0  0  1  0  0  0  0  0  0  0  0  0
   25.7463  -20.0749  -10.6225 C   0  0  0  0  0  0  0  0  0  0  0  0
   27.0256  -20.5230  -10.0603 C   0  0  0  0  0  0  0  0  0  0  0  0
   27.9916  -21.3472  -10.6536 C   0  0  0  0  0  0  0  0  0  0  0  0
   28.9919  -21.5378   -9.7796 N   0  0  0  0  0  0  0  0  0  0  0  0
   28.7617  -20.8927   -8.6307 C   0  0  0  0  0  0  0  0  0  0  0  0
   29.4577  -20.7642   -7.4307 C   0  0  0  0  0  0  0  0  0  0  0  0
   28.9249  -19.9992   -6.4014 C   0  0  0  0  0  0  0  0  0  0  0  0
   27.7176  -19.3664   -6.5522 C   0  0  0  0  0  0  0  0  0  0  0  0
   27.0459  -19.5112   -7.7570 C   0  0  0  0  0  0  0  0  0  0  0  0
   27.5542  -20.2634   -8.7893 C   0  0  0  0  0  0  0  0  0  0  0  0
   23.9201  -20.5048  -12.1392 C   0  0  0  0  0  0  0  0  0  0  0  0
   23.8408  -19.6317  -13.0754 O   0  0  0  0  0  0  0  0  0  0  0  0
   22.6966  -20.9575  -11.6141 N   0  0  0  0  0  0  0  0  0  0  0  0
   21.4635  -20.9038  -12.3630 C   0  0  1  0  0  0  0  0  0  0  0  0
   21.5690  -21.7203  -13.6458 C   0  0  0  0  0  0  0  0  0  0  0  0
   19.9865  -21.6350  -14.5278 S   0  0  0  0  0  0  0  0  0  0  0  0
   20.2741  -21.3605  -11.6574 C   0  0  0  0  0  0  0  0  0  0  0  0
   19.1470  -20.9347  -12.0926 O   0  0  0  0  0  0  0  0  0  0  0  0
   20.2056  -22.2020  -10.5698 O   0  0  0  0  0  0  0  0  0  0  0  0
  2  1  1  6
  2  6  1  0
  3  2  1  0
  3  4  1  0
  4  8  1  0
  5  4  2  0
  6  9  1  0
  7  6  2  0
  9 10  1  0
 10 11  1  1
 12 11  1  0
 13 12  2  0
 14 13  1  0
 15 14  1  0
 15 20  2  0
 16 15  1  0
 17 16  2  0
 17 18  1  0
 18 19  2  0
 19 20  1  0
 20 12  1  0
 21 22  2  0
 21 10  1  0
 23 21  1  0
 24 23  1  0
 24 27  1  0
 24 25  1  6
 26 25  1  0
 27 29  1  0
 28 27  2  0
M  END
$$$$
