DWC.pdb
     RDKit          3D

 29 30  0  0  1  0  0  0  0  0999 V2000
   27.0055  -24.8244  -16.1901 N   0  0  0  0  0  0  0  0  0  0  0  0
   26.7972  -23.3974  -16.1312 C   0  0  1  0  0  0  0  0  0  0  0  0
   26.0558  -23.0124  -17.3823 C   0  0  0  0  0  0  0  0  0  0  0  0
   26.8374  -23.1360  -18.6156 C   0  0  0  0  0  0  0  0  0  0  0  0
   27.9083  -22.4855  -18.7303 O   0  0  0  0  0  0  0  0  0  0  0  0
   26.0940  -23.0235  -14.8859 C   0  0  0  0  0  0  0  0  0  0  0  0
   25.4007  -23.8057  -14.1980 O   0  0  0  0  0  0  0  0  0  0  0  0
   26.4704  -23.9303  -19.6740 O   0  0  0  0  0  0  0  0  0  0  0  0
   26.2072  -21.6877  -14.4310 N   0  0  0  0  0  0  0  0  0  0  0  0
   25.4853  -21.2458  -13.2252 C   0  0  1  0  0  0  0  0  0  0  0  0
   26.0791  -20.0018  -12.6836 C   0  0  0  0  0  0  0  0  0  0  0  0
   27.1565  -20.2513  -11.7190 C   0  0  0  0  0  0  0  0  0  0  0  0
   28.4867  -20.6083  -11.9788 C   0  0  0  0  0  0  0  0  0  0  0  0
   29.1249  -20.7755  -10.8102 N   0  0  0  0  0  0  0  0  0  0  0  0
   28.3073  -20.5533   -9.7751 C   0  0  0  0  0  0  0  0  0  0  0  0
   28.4582  -20.5915   -8.3907 C   0  0  0  0  0  0  0  0  0  0  0  0
   27.3765  -20.3011   -7.5694 C   0  0  0  0  0  0  0  0  0  0  0  0
   26.1572  -19.9762   -8.1067 C   0  0  0  0  0  0  0  0  0  0  0  0
   26.0349  -19.9458   -9.4879 C   0  0  0  0  0  0  0  0  0  0  0  0
   27.0918  -20.2296  -10.3199 C   0  0  0  0  0  0  0  0  0  0  0  0
   24.1047  -20.9839  -13.6621 C   0  0  0  0  0  0  0  0  0  0  0  0
   23.9533  -20.3007  -14.7369 O   0  0  0  0  0  0  0  0  0  0  0  0
   22.9222  -21.4082  -13.0302 N   0  0  0  0  0  0  0  0  0  0  0  0
   21.6109  -21.0613  -13.5246 C   0  0  1  0  0  0  0  0  0  0  0  0
   20.7198  -22.2944  -13.6175 C   0  0  0  0  0  0  0  0  0  0  0  0
   21.5914  -23.5793  -14.5550 S   0  0  0  0  0  0  0  0  0  0  0  0
   20.8865  -20.0627  -12.7505 C   0  0  0  0  0  0  0  0  0  0  0  0
   21.4671  -19.6159  -11.6996 O   0  0  0  0  0  0  0  0  0  0  0  0
   19.6428  -19.5308  -13.0073 O   0  0  0  0  0  0  0  0  0  0  0  0
  2  1  1  1
  2  6  1  0
  3  2  1  0
  3  4  1  0
  4  8  1  0
  5  4  2  0
  6  9  1  0
  7  6  2  0
  9 10  1  0
 10 11  1  6
 12 11  1  0
 13 12  2  0
 14 13  1  0
 15 14  1  0
 15 20  2  0
 16 15  1  0
 17 16  2  0
 17 18  1  0
 18 19  2  0
 19 20  1  0
 20 12  1  0
 21 22  2  0
 21 10  1  0
 23 21  1  0
 24 23  1  0
 24 27  1  0
 24 25  1  1
 26 25  1  0
 27 29  1  0
 28 27  2  0
M  END
$$$$
