DWC.pdb
     RDKit          3D

 29 30  0  0  1  0  0  0  0  0999 V2000
   23.7964  -35.1265  -12.8038 N   0  0  0  0  0  0  0  0  0  0  0  0
   23.7959  -35.8196  -11.5379 C   0  0  1  0  0  0  0  0  0  0  0  0
   25.1228  -36.5191  -11.4225 C   0  0  0  0  0  0  0  0  0  0  0  0
   25.2258  -37.7606  -12.1940 C   0  0  0  0  0  0  0  0  0  0  0  0
   24.2382  -38.1441  -12.8726 O   0  0  0  0  0  0  0  0  0  0  0  0
   23.5212  -34.8813  -10.4292 C   0  0  0  0  0  0  0  0  0  0  0  0
   23.8943  -33.6873  -10.3987 O   0  0  0  0  0  0  0  0  0  0  0  0
   26.3509  -38.5474  -12.2251 O   0  0  0  0  0  0  0  0  0  0  0  0
   22.7842  -35.3582   -9.3185 N   0  0  0  0  0  0  0  0  0  0  0  0
   22.5143  -34.4783   -8.1681 C   0  0  1  0  0  0  0  0  0  0  0  0
   21.2031  -34.7982   -7.5582 C   0  0  0  0  0  0  0  0  0  0  0  0
   20.0662  -34.3579   -8.3749 C   0  0  0  0  0  0  0  0  0  0  0  0
   19.6244  -34.8799   -9.5983 C   0  0  0  0  0  0  0  0  0  0  0  0
   18.5742  -34.1593  -10.0210 N   0  0  0  0  0  0  0  0  0  0  0  0
   18.2782  -33.1813   -9.1578 C   0  0  0  0  0  0  0  0  0  0  0  0
   17.3125  -32.1779   -9.1183 C   0  0  0  0  0  0  0  0  0  0  0  0
   17.2772  -31.2946   -8.0473 C   0  0  0  0  0  0  0  0  0  0  0  0
   18.1847  -31.3983   -7.0242 C   0  0  0  0  0  0  0  0  0  0  0  0
   19.1353  -32.4063   -7.0889 C   0  0  0  0  0  0  0  0  0  0  0  0
   19.1889  -33.2916   -8.1392 C   0  0  0  0  0  0  0  0  0  0  0  0
   23.5883  -34.7498   -7.1995 C   0  0  0  0  0  0  0  0  0  0  0  0
   23.9333  -35.9748   -7.0399 O   0  0  0  0  0  0  0  0  0  0  0  0
   24.2893  -33.8069   -6.4267 N   0  0  0  0  0  0  0  0  0  0  0  0
   25.3330  -34.1829   -5.5028 C   0  0  1  0  0  0  0  0  0  0  0  0
   26.6151  -33.4083   -5.7845 C   0  0  0  0  0  0  0  0  0  0  0  0
   28.0335  -34.4105   -5.2616 S   0  0  0  0  0  0  0  0  0  0  0  0
   25.0227  -34.0050   -4.0910 C   0  0  0  0  0  0  0  0  0  0  0  0
   24.1669  -33.0975   -3.7991 O   0  0  0  0  0  0  0  0  0  0  0  0
   25.5375  -34.6961   -3.0173 O   0  0  0  0  0  0  0  0  0  0  0  0
  2  1  1  6
  2  6  1  0
  3  2  1  0
  3  4  1  0
  4  8  1  0
  5  4  2  0
  6  9  1  0
  7  6  2  0
  9 10  1  0
 10 11  1  1
 12 11  1  0
 13 12  2  0
 14 13  1  0
 15 14  1  0
 15 20  2  0
 16 15  1  0
 17 16  2  0
 17 18  1  0
 18 19  2  0
 19 20  1  0
 20 12  1  0
 21 22  2  0
 21 10  1  0
 23 21  1  0
 24 23  1  0
 24 27  1  0
 24 25  1  6
 26 25  1  0
 27 29  1  0
 28 27  2  0
M  END
$$$$
