DWC.pdb
     RDKit          3D

 29 30  0  0  1  0  0  0  0  0999 V2000
   26.3417  -21.3905  -13.0052 N   0  0  0  0  0  0  0  0  0  0  0  0
   25.4264  -20.6171  -12.2009 C   0  0  1  0  0  0  0  0  0  0  0  0
   24.1794  -20.4256  -13.0204 C   0  0  0  0  0  0  0  0  0  0  0  0
   24.3998  -19.8004  -14.3273 C   0  0  0  0  0  0  0  0  0  0  0  0
   25.1524  -18.7954  -14.4068 O   0  0  0  0  0  0  0  0  0  0  0  0
   25.1864  -21.2789  -10.9010 C   0  0  0  0  0  0  0  0  0  0  0  0
   25.2196  -22.5159  -10.7157 O   0  0  0  0  0  0  0  0  0  0  0  0
   23.8276  -20.2485  -15.4925 O   0  0  0  0  0  0  0  0  0  0  0  0
   24.8979  -20.4635   -9.7803 N   0  0  0  0  0  0  0  0  0  0  0  0
   24.7068  -21.0647   -8.4489 C   0  0  1  0  0  0  0  0  0  0  0  0
   25.1566  -20.1383   -7.3846 C   0  0  0  0  0  0  0  0  0  0  0  0
   26.6151  -19.9840   -7.3350 C   0  0  0  0  0  0  0  0  0  0  0  0
   27.5276  -20.0261   -8.3980 C   0  0  0  0  0  0  0  0  0  0  0  0
   28.7680  -19.8769   -7.9083 N   0  0  0  0  0  0  0  0  0  0  0  0
   28.7506  -19.7363   -6.5781 C   0  0  0  0  0  0  0  0  0  0  0  0
   29.7322  -19.5578   -5.6058 C   0  0  0  0  0  0  0  0  0  0  0  0
   29.3693  -19.4454   -4.2700 C   0  0  0  0  0  0  0  0  0  0  0  0
   28.0516  -19.5082   -3.8950 C   0  0  0  0  0  0  0  0  0  0  0  0
   27.0950  -19.6865   -4.8833 C   0  0  0  0  0  0  0  0  0  0  0  0
   27.4312  -19.8002   -6.2115 C   0  0  0  0  0  0  0  0  0  0  0  0
   23.2592  -21.2968   -8.3217 C   0  0  0  0  0  0  0  0  0  0  0  0
   22.4806  -20.4218   -8.8443 O   0  0  0  0  0  0  0  0  0  0  0  0
   22.6286  -22.3838   -7.6905 N   0  0  0  0  0  0  0  0  0  0  0  0
   21.1944  -22.5480   -7.6777 C   0  0  1  0  0  0  0  0  0  0  0  0
   20.8091  -23.9347   -7.1757 C   0  0  0  0  0  0  0  0  0  0  0  0
   19.0058  -24.1096   -7.2602 S   0  0  0  0  0  0  0  0  0  0  0  0
   20.4536  -21.5795   -6.8811 C   0  0  0  0  0  0  0  0  0  0  0  0
   21.0061  -21.1838   -5.7951 O   0  0  0  0  0  0  0  0  0  0  0  0
   19.2210  -21.0280   -7.1496 O   0  0  0  0  0  0  0  0  0  0  0  0
  2  1  1  6
  2  6  1  0
  3  2  1  0
  3  4  1  0
  4  8  1  0
  5  4  2  0
  6  9  1  0
  7  6  2  0
  9 10  1  0
 10 11  1  1
 12 11  1  0
 13 12  2  0
 14 13  1  0
 15 14  1  0
 15 20  2  0
 16 15  1  0
 17 16  2  0
 17 18  1  0
 18 19  2  0
 19 20  1  0
 20 12  1  0
 21 22  2  0
 21 10  1  0
 23 21  1  0
 24 23  1  0
 24 27  1  0
 24 25  1  1
 26 25  1  0
 27 29  1  0
 28 27  2  0
M  END
$$$$
