FSV.pdb
     RDKit          3D

 25 25  0  0  1  0  0  0  0  0999 V2000
    7.4261  -16.7777   19.8489 N   0  0  0  0  0  0  0  0  0  0  0  0
    7.7821  -15.7990   20.8373 C   0  0  1  0  0  0  0  0  0  0  0  0
    6.6402  -14.8152   20.9678 C   0  0  0  0  0  0  0  0  0  0  0  0
    7.0124  -13.8247   21.9964 C   0  0  0  0  0  0  0  0  0  0  0  0
    7.7664  -12.7385   21.6420 C   0  0  0  0  0  0  0  0  0  0  0  0
    8.1334  -11.7904   22.5806 C   0  0  0  0  0  0  0  0  0  0  0  0
    7.7192  -11.9640   23.8962 C   0  0  0  0  0  0  0  0  0  0  0  0
    6.9634  -13.0520   24.2540 C   0  0  0  0  0  0  0  0  0  0  0  0
    6.6154  -13.9787   23.2905 C   0  0  0  0  0  0  0  0  0  0  0  0
    7.9876  -16.4089   22.1715 C   0  0  0  0  0  0  0  0  0  0  0  0
    7.1450  -17.1959   22.6548 O   0  0  0  0  0  0  0  0  0  0  0  0
   11.4761  -17.7899   23.1524 O   0  0  0  0  0  0  0  0  0  0  0  0
   10.3101  -18.1260   23.8244 C   0  0  0  0  0  0  0  0  0  0  0  0
    9.4398  -16.9391   24.0854 C   0  0  2  0  0  0  0  0  0  0  0  0
    9.1271  -16.1419   22.9618 N   0  0  0  0  0  0  0  0  0  0  0  0
   10.1315  -16.0638   25.0874 C   0  0  0  0  0  0  0  0  0  0  0  0
   11.0790  -15.3053   24.7563 O   0  0  0  0  0  0  0  0  0  0  0  0
    8.4965  -15.0310   28.8301 C   0  0  0  0  0  0  0  0  0  0  0  0
    9.6461  -14.3747   28.1493 C   0  0  2  0  0  0  0  0  0  0  0  0
    9.2361  -13.3136   27.1603 C   0  0  0  0  0  0  0  0  0  0  0  0
   10.5681  -15.3776   27.4610 C   0  0  2  0  0  0  0  0  0  0  0  0
    9.7537  -16.0453   26.4607 N   0  0  0  0  0  0  0  0  0  0  0  0
   11.1641  -16.3273   28.4177 C   0  0  0  0  0  0  0  0  0  0  0  0
   12.1296  -15.8715   29.2835 O   0  0  0  0  0  0  0  0  0  0  0  0
   10.8097  -17.5190   28.4514 O   0  0  0  0  0  0  0  0  0  0  0  0
  2  1  1  6
  2 10  1  0
  3  2  1  0
  4  3  1  0
  5  4  2  0
  6  5  1  0
  7  6  2  0
  7  8  1  0
  8  9  2  0
  9  4  1  0
 10 11  2  0
 12 13  1  0
 14 13  1  6
 15 10  1  0
 15 14  1  0
 16 14  1  0
 16 17  2  0
 19 18  1  6
 19 21  1  0
 20 19  1  0
 21 22  1  6
 22 16  1  0
 23 21  1  0
 23 24  1  0
 25 23  2  0
M  END
$$$$
