FSV.pdb
     RDKit          3D

 25 25  0  0  1  0  0  0  0  0999 V2000
    6.2203  -14.7055   21.7005 N   0  0  0  0  0  0  0  0  0  0  0  0
    7.6230  -14.6983   22.0065 C   0  0  1  0  0  0  0  0  0  0  0  0
    8.0192  -13.2915   22.3976 C   0  0  0  0  0  0  0  0  0  0  0  0
    7.4451  -13.0137   23.7283 C   0  0  0  0  0  0  0  0  0  0  0  0
    8.2417  -13.1094   24.8374 C   0  0  0  0  0  0  0  0  0  0  0  0
    7.7365  -12.8559   26.1003 C   0  0  0  0  0  0  0  0  0  0  0  0
    6.3978  -12.5006   26.2205 C   0  0  0  0  0  0  0  0  0  0  0  0
    5.5972  -12.4041   25.1103 C   0  0  0  0  0  0  0  0  0  0  0  0
    6.1354  -12.6643   23.8650 C   0  0  0  0  0  0  0  0  0  0  0  0
    7.9438  -15.5773   23.1548 C   0  0  0  0  0  0  0  0  0  0  0  0
    7.0460  -15.9794   23.9265 O   0  0  0  0  0  0  0  0  0  0  0  0
   10.2886  -19.2361   24.8546 O   0  0  0  0  0  0  0  0  0  0  0  0
   10.0819  -18.2914   23.8601 C   0  0  0  0  0  0  0  0  0  0  0  0
    9.5067  -17.0188   24.3928 C   0  0  2  0  0  0  0  0  0  0  0  0
    9.2589  -16.0052   23.4404 N   0  0  0  0  0  0  0  0  0  0  0  0
   10.4591  -16.4655   25.4104 C   0  0  0  0  0  0  0  0  0  0  0  0
   11.5440  -15.9259   25.0720 O   0  0  0  0  0  0  0  0  0  0  0  0
    9.3571  -15.1879   29.2003 C   0  0  0  0  0  0  0  0  0  0  0  0
   10.6455  -14.9207   28.5044 C   0  0  2  0  0  0  0  0  0  0  0  0
   10.5796  -13.7700   27.5329 C   0  0  0  0  0  0  0  0  0  0  0  0
   11.1911  -16.1543   27.7900 C   0  0  2  0  0  0  0  0  0  0  0  0
   10.1865  -16.5217   26.8074 N   0  0  0  0  0  0  0  0  0  0  0  0
   11.4798  -17.2537   28.7284 C   0  0  0  0  0  0  0  0  0  0  0  0
   12.6180  -17.1829   29.4958 O   0  0  0  0  0  0  0  0  0  0  0  0
   10.7176  -18.2310   28.8334 O   0  0  0  0  0  0  0  0  0  0  0  0
  2  1  1  1
  2 10  1  0
  3  2  1  0
  4  3  1  0
  5  4  2  0
  6  5  1  0
  7  6  2  0
  7  8  1  0
  8  9  2  0
  9  4  1  0
 10 11  2  0
 12 13  1  0
 14 13  1  6
 15 10  1  0
 15 14  1  0
 16 14  1  0
 16 17  2  0
 19 18  1  6
 19 21  1  0
 20 19  1  0
 21 22  1  6
 22 16  1  0
 23 21  1  0
 23 24  1  0
 25 23  2  0
M  END
$$$$
