FSV.pdb
     RDKit          3D

 25 25  0  0  1  0  0  0  0  0999 V2000
    5.8008  -17.3320   23.9999 N   0  0  0  0  0  0  0  0  0  0  0  0
    6.6672  -16.2611   24.4048 C   0  0  1  0  0  0  0  0  0  0  0  0
    6.2672  -15.8237   25.7967 C   0  0  0  0  0  0  0  0  0  0  0  0
    6.5021  -14.3705   25.8988 C   0  0  0  0  0  0  0  0  0  0  0  0
    5.4343  -13.5141   25.8831 C   0  0  0  0  0  0  0  0  0  0  0  0
    5.6181  -12.1460   25.9769 C   0  0  0  0  0  0  0  0  0  0  0  0
    6.9146  -11.6566   26.0878 C   0  0  0  0  0  0  0  0  0  0  0  0
    7.9867  -12.5129   26.1037 C   0  0  0  0  0  0  0  0  0  0  0  0
    7.7658  -13.8731   26.0081 C   0  0  0  0  0  0  0  0  0  0  0  0
    8.0835  -16.6901   24.4721 C   0  0  0  0  0  0  0  0  0  0  0  0
    8.4304  -17.6496   25.1946 O   0  0  0  0  0  0  0  0  0  0  0  0
   10.9619  -16.5825   21.4860 O   0  0  0  0  0  0  0  0  0  0  0  0
   11.3485  -16.0581   22.7105 C   0  0  0  0  0  0  0  0  0  0  0  0
   10.4482  -16.4860   23.8243 C   0  0  2  0  0  0  0  0  0  0  0  0
    9.1066  -16.0518   23.7373 N   0  0  0  0  0  0  0  0  0  0  0  0
   11.0145  -15.9626   25.1104 C   0  0  0  0  0  0  0  0  0  0  0  0
   11.2873  -14.7439   25.2620 O   0  0  0  0  0  0  0  0  0  0  0  0
    9.4761  -15.9504   28.3550 C   0  0  0  0  0  0  0  0  0  0  0  0
   10.7578  -15.2942   27.9775 C   0  0  2  0  0  0  0  0  0  0  0  0
   10.5945  -14.1871   26.9677 C   0  0  0  0  0  0  0  0  0  0  0  0
   11.7977  -16.2902   27.4714 C   0  0  2  0  0  0  0  0  0  0  0  0
   11.2723  -16.8141   26.2228 N   0  0  0  0  0  0  0  0  0  0  0  0
   12.0655  -17.3564   28.4533 C   0  0  0  0  0  0  0  0  0  0  0  0
   12.7367  -17.0343   29.6088 O   0  0  0  0  0  0  0  0  0  0  0  0
   11.6972  -18.5273   28.2527 O   0  0  0  0  0  0  0  0  0  0  0  0
  2  1  1  1
  2 10  1  0
  3  2  1  0
  4  3  1  0
  5  4  2  0
  6  5  1  0
  7  6  2  0
  7  8  1  0
  8  9  2  0
  9  4  1  0
 10 11  2  0
 12 13  1  0
 14 13  1  6
 15 10  1  0
 15 14  1  0
 16 14  1  0
 16 17  2  0
 19 18  1  6
 19 21  1  0
 20 19  1  0
 21 22  1  6
 22 16  1  0
 23 21  1  0
 23 24  1  0
 25 23  2  0
M  END
$$$$
