FSV.pdb
     RDKit          3D

 25 25  0  0  1  0  0  0  0  0999 V2000
    5.5792  -17.5973   24.9473 N   0  0  0  0  0  0  0  0  0  0  0  0
    6.5000  -16.4975   24.8839 C   0  0  1  0  0  0  0  0  0  0  0  0
    6.5718  -15.8554   26.2518 C   0  0  0  0  0  0  0  0  0  0  0  0
    6.5605  -14.3917   26.0652 C   0  0  0  0  0  0  0  0  0  0  0  0
    7.7281  -13.7433   25.7649 C   0  0  0  0  0  0  0  0  0  0  0  0
    7.7539  -12.3719   25.5833 C   0  0  0  0  0  0  0  0  0  0  0  0
    6.5651  -11.6629   25.7124 C   0  0  0  0  0  0  0  0  0  0  0  0
    5.3934  -12.3104   26.0134 C   0  0  0  0  0  0  0  0  0  0  0  0
    5.4048  -13.6807   26.1880 C   0  0  0  0  0  0  0  0  0  0  0  0
    7.8701  -16.9418   24.5378 C   0  0  0  0  0  0  0  0  0  0  0  0
    8.4438  -17.8320   25.2023 O   0  0  0  0  0  0  0  0  0  0  0  0
   10.1652  -15.3925   21.2648 O   0  0  0  0  0  0  0  0  0  0  0  0
   10.3656  -16.6719   21.7617 C   0  0  0  0  0  0  0  0  0  0  0  0
    9.9184  -16.8091   23.1813 C   0  0  2  0  0  0  0  0  0  0  0  0
    8.5957  -16.3958   23.4563 N   0  0  0  0  0  0  0  0  0  0  0  0
   10.8386  -15.9957   24.0418 C   0  0  0  0  0  0  0  0  0  0  0  0
   11.0758  -14.7857   23.7919 O   0  0  0  0  0  0  0  0  0  0  0  0
   11.3663  -16.6193   28.0090 C   0  0  0  0  0  0  0  0  0  0  0  0
   11.8306  -15.4256   27.2504 C   0  0  2  0  0  0  0  0  0  0  0  0
   10.7465  -14.4076   27.0045 C   0  0  0  0  0  0  0  0  0  0  0  0
   12.4868  -15.7953   25.9229 C   0  0  2  0  0  0  0  0  0  0  0  0
   11.4896  -16.5479   25.1820 N   0  0  0  0  0  0  0  0  0  0  0  0
   13.7315  -16.5609   26.1160 C   0  0  0  0  0  0  0  0  0  0  0  0
   14.8417  -15.9042   26.5911 O   0  0  0  0  0  0  0  0  0  0  0  0
   13.7894  -17.7763   25.8584 O   0  0  0  0  0  0  0  0  0  0  0  0
  2  1  1  1
  2 10  1  0
  3  2  1  0
  4  3  1  0
  5  4  2  0
  6  5  1  0
  7  6  2  0
  7  8  1  0
  8  9  2  0
  9  4  1  0
 10 11  2  0
 12 13  1  0
 14 13  1  6
 15 10  1  0
 15 14  1  0
 16 14  1  0
 16 17  2  0
 19 18  1  6
 19 21  1  0
 20 19  1  0
 21 22  1  6
 22 16  1  0
 23 21  1  0
 23 24  1  0
 25 23  2  0
M  END
$$$$
