FSV.pdb
     RDKit          3D

 25 25  0  0  1  0  0  0  0  0999 V2000
    5.9658  -18.0548   20.0588 N   0  0  0  0  0  0  0  0  0  0  0  0
    6.4665  -16.9406   20.8133 C   0  0  1  0  0  0  0  0  0  0  0  0
    5.6746  -15.7099   20.4297 C   0  0  0  0  0  0  0  0  0  0  0  0
    6.6340  -14.6240   20.1509 C   0  0  0  0  0  0  0  0  0  0  0  0
    7.0274  -13.7968   21.1683 C   0  0  0  0  0  0  0  0  0  0  0  0
    7.9253  -12.7686   20.9425 C   0  0  0  0  0  0  0  0  0  0  0  0
    8.4220  -12.5919   19.6561 C   0  0  0  0  0  0  0  0  0  0  0  0
    8.0292  -13.4196   18.6346 C   0  0  0  0  0  0  0  0  0  0  0  0
    7.1311  -14.4359   18.8965 C   0  0  0  0  0  0  0  0  0  0  0  0
    6.2913  -17.1357   22.2712 C   0  0  0  0  0  0  0  0  0  0  0  0
    5.1515  -17.1525   22.7847 O   0  0  0  0  0  0  0  0  0  0  0  0
    8.8616  -18.9367   25.0308 O   0  0  0  0  0  0  0  0  0  0  0  0
    7.5632  -18.5235   25.2904 C   0  0  0  0  0  0  0  0  0  0  0  0
    7.2034  -17.2747   24.5520 C   0  0  2  0  0  0  0  0  0  0  0  0
    7.3819  -17.3109   23.1510 N   0  0  0  0  0  0  0  0  0  0  0  0
    8.0435  -16.1552   25.0901 C   0  0  0  0  0  0  0  0  0  0  0  0
    9.0629  -15.7439   24.4781 O   0  0  0  0  0  0  0  0  0  0  0  0
    6.6454  -12.9021   26.2542 C   0  0  0  0  0  0  0  0  0  0  0  0
    7.5847  -13.3501   27.3185 C   0  0  2  0  0  0  0  0  0  0  0  0
    8.3608  -12.2237   27.9519 C   0  0  0  0  0  0  0  0  0  0  0  0
    8.5566  -14.4200   26.8282 C   0  0  2  0  0  0  0  0  0  0  0  0
    7.7328  -15.5015   26.3169 N   0  0  0  0  0  0  0  0  0  0  0  0
    9.4668  -14.8711   27.8963 C   0  0  0  0  0  0  0  0  0  0  0  0
   10.5499  -14.0864   28.2137 O   0  0  0  0  0  0  0  0  0  0  0  0
    9.2703  -15.9374   28.5056 O   0  0  0  0  0  0  0  0  0  0  0  0
  2  1  1  6
  2 10  1  0
  3  2  1  0
  4  3  1  0
  5  4  2  0
  6  5  1  0
  7  6  2  0
  7  8  1  0
  8  9  2  0
  9  4  1  0
 10 11  2  0
 12 13  1  0
 14 13  1  1
 15 10  1  0
 15 14  1  0
 16 14  1  0
 16 17  2  0
 19 18  1  6
 19 21  1  0
 20 19  1  0
 21 22  1  1
 22 16  1  0
 23 21  1  0
 23 24  1  0
 25 23  2  0
M  END
$$$$
