FSV.pdb
     RDKit          3D

 25 25  0  0  1  0  0  0  0  0999 V2000
    6.1322  -15.7226   25.7648 N   0  0  0  0  0  0  0  0  0  0  0  0
    7.1888  -15.3808   24.8547 C   0  0  1  0  0  0  0  0  0  0  0  0
    7.9806  -14.2374   25.4501 C   0  0  0  0  0  0  0  0  0  0  0  0
    7.0378  -13.1426   25.7499 C   0  0  0  0  0  0  0  0  0  0  0  0
    7.5226  -11.8857   25.9929 C   0  0  0  0  0  0  0  0  0  0  0  0
    6.6672  -10.8359   26.2772 C   0  0  0  0  0  0  0  0  0  0  0  0
    5.2999  -11.0845   26.3111 C   0  0  0  0  0  0  0  0  0  0  0  0
    4.8114  -12.3435   26.0679 C   0  0  0  0  0  0  0  0  0  0  0  0
    5.6947  -13.3679   25.7873 C   0  0  0  0  0  0  0  0  0  0  0  0
    8.1310  -16.5058   24.6526 C   0  0  0  0  0  0  0  0  0  0  0  0
    8.0594  -17.5378   25.3547 O   0  0  0  0  0  0  0  0  0  0  0  0
   11.5286  -16.0367   22.1715 O   0  0  0  0  0  0  0  0  0  0  0  0
   11.2035  -17.3157   22.5988 C   0  0  0  0  0  0  0  0  0  0  0  0
   10.2872  -17.3070   23.7797 C   0  0  2  0  0  0  0  0  0  0  0  0
    9.1474  -16.4791   23.6726 N   0  0  0  0  0  0  0  0  0  0  0  0
   11.0701  -16.8529   24.9753 C   0  0  0  0  0  0  0  0  0  0  0  0
   12.0175  -16.0319   24.8690 O   0  0  0  0  0  0  0  0  0  0  0  0
   11.2969  -14.4363   26.8300 C   0  0  0  0  0  0  0  0  0  0  0  0
   10.9332  -15.5004   27.8053 C   0  0  2  0  0  0  0  0  0  0  0  0
   11.2929  -15.1623   29.2296 C   0  0  0  0  0  0  0  0  0  0  0  0
   11.5318  -16.8565   27.4415 C   0  0  2  0  0  0  0  0  0  0  0  0
   10.7835  -17.3252   26.2882 N   0  0  0  0  0  0  0  0  0  0  0  0
   11.4726  -17.8066   28.5668 C   0  0  0  0  0  0  0  0  0  0  0  0
   12.4614  -17.7605   29.5206 O   0  0  0  0  0  0  0  0  0  0  0  0
   10.5524  -18.6378   28.6633 O   0  0  0  0  0  0  0  0  0  0  0  0
  2  1  1  1
  2 10  1  0
  3  2  1  0
  4  3  1  0
  5  4  2  0
  6  5  1  0
  7  6  2  0
  7  8  1  0
  8  9  2  0
  9  4  1  0
 10 11  2  0
 12 13  1  0
 14 13  1  6
 15 10  1  0
 15 14  1  0
 16 14  1  0
 16 17  2  0
 19 18  1  6
 19 21  1  0
 20 19  1  0
 21 22  1  6
 22 16  1  0
 23 21  1  0
 23 24  1  0
 25 23  2  0
M  END
$$$$
