FSV.pdb
     RDKit          3D

 25 25  0  0  1  0  0  0  0  0999 V2000
    5.9608  -16.0501   25.6409 N   0  0  0  0  0  0  0  0  0  0  0  0
    7.0174  -15.4524   24.8742 C   0  0  1  0  0  0  0  0  0  0  0  0
    7.7358  -14.4507   25.7513 C   0  0  0  0  0  0  0  0  0  0  0  0
    6.8788  -13.2551   25.8675 C   0  0  0  0  0  0  0  0  0  0  0  0
    5.5202  -13.4063   25.9392 C   0  0  0  0  0  0  0  0  0  0  0  0
    4.6868  -12.3073   26.0487 C   0  0  0  0  0  0  0  0  0  0  0  0
    5.2595  -11.0411   26.0845 C   0  0  0  0  0  0  0  0  0  0  0  0
    6.6211  -10.8868   26.0129 C   0  0  0  0  0  0  0  0  0  0  0  0
    7.4227  -12.0065   25.9041 C   0  0  0  0  0  0  0  0  0  0  0  0
    8.0209  -16.4521   24.4410 C   0  0  0  0  0  0  0  0  0  0  0  0
    8.1886  -17.5130   25.0809 O   0  0  0  0  0  0  0  0  0  0  0  0
   10.8340  -15.5849   21.3615 O   0  0  0  0  0  0  0  0  0  0  0  0
   10.6844  -16.8936   21.7963 C   0  0  0  0  0  0  0  0  0  0  0  0
   10.0451  -16.9772   23.1448 C   0  0  2  0  0  0  0  0  0  0  0  0
    8.8326  -16.2689   23.3000 N   0  0  0  0  0  0  0  0  0  0  0  0
   11.0164  -16.4457   24.1561 C   0  0  0  0  0  0  0  0  0  0  0  0
   11.1480  -15.2108   24.3572 O   0  0  0  0  0  0  0  0  0  0  0  0
   10.7179  -15.0788   26.4704 C   0  0  0  0  0  0  0  0  0  0  0  0
   11.3428  -16.3050   27.0374 C   0  0  2  0  0  0  0  0  0  0  0  0
   11.8467  -16.1291   28.4471 C   0  0  0  0  0  0  0  0  0  0  0  0
   12.4702  -16.8452   26.1617 C   0  0  2  0  0  0  0  0  0  0  0  0
   11.8375  -17.3074   24.9387 N   0  0  0  0  0  0  0  0  0  0  0  0
   13.2284  -17.9153   26.8346 C   0  0  0  0  0  0  0  0  0  0  0  0
   14.4794  -17.6272   27.3260 O   0  0  0  0  0  0  0  0  0  0  0  0
   12.7575  -19.0594   26.9618 O   0  0  0  0  0  0  0  0  0  0  0  0
  2  1  1  1
  2 10  1  0
  3  2  1  0
  4  3  1  0
  5  4  2  0
  6  5  1  0
  7  6  2  0
  7  8  1  0
  8  9  2  0
  9  4  1  0
 10 11  2  0
 12 13  1  0
 14 13  1  6
 15 10  1  0
 15 14  1  0
 16 14  1  0
 16 17  2  0
 19 18  1  6
 19 21  1  0
 20 19  1  0
 21 22  1  6
 22 16  1  0
 23 21  1  0
 23 24  1  0
 25 23  2  0
M  END
$$$$
