FSV.pdb
     RDKit          3D

 25 25  0  0  1  0  0  0  0  0999 V2000
    5.7302  -17.1049   24.3879 N   0  0  0  0  0  0  0  0  0  0  0  0
    6.8183  -16.1736   24.4890 C   0  0  1  0  0  0  0  0  0  0  0  0
    6.7723  -15.5324   25.8585 C   0  0  0  0  0  0  0  0  0  0  0  0
    6.6292  -14.0758   25.6710 C   0  0  0  0  0  0  0  0  0  0  0  0
    5.4968  -13.4486   26.1165 C   0  0  0  0  0  0  0  0  0  0  0  0
    5.3296  -12.0844   25.9572 C   0  0  0  0  0  0  0  0  0  0  0  0
    6.3390  -11.3605   25.3330 C   0  0  0  0  0  0  0  0  0  0  0  0
    7.4750  -11.9867   24.8856 C   0  0  0  0  0  0  0  0  0  0  0  0
    7.6082  -13.3504   25.0615 C   0  0  0  0  0  0  0  0  0  0  0  0
    8.1337  -16.8433   24.3645 C   0  0  0  0  0  0  0  0  0  0  0  0
    8.3482  -17.9453   24.9146 O   0  0  0  0  0  0  0  0  0  0  0  0
   10.9368  -16.7637   21.3956 O   0  0  0  0  0  0  0  0  0  0  0  0
   11.4572  -16.4534   22.6434 C   0  0  0  0  0  0  0  0  0  0  0  0
   10.5166  -16.7927   23.7544 C   0  0  2  0  0  0  0  0  0  0  0  0
    9.2036  -16.2863   23.6302 N   0  0  0  0  0  0  0  0  0  0  0  0
   11.0919  -16.2603   25.0327 C   0  0  0  0  0  0  0  0  0  0  0  0
   11.4812  -15.0682   25.1334 O   0  0  0  0  0  0  0  0  0  0  0  0
   10.0078  -14.5610   26.9456 C   0  0  0  0  0  0  0  0  0  0  0  0
   10.2655  -15.6936   27.8765 C   0  0  2  0  0  0  0  0  0  0  0  0
   10.3630  -15.2768   29.3218 C   0  0  0  0  0  0  0  0  0  0  0  0
   11.5096  -16.4918   27.4959 C   0  0  2  0  0  0  0  0  0  0  0  0
   11.2271  -17.0726   26.1949 N   0  0  0  0  0  0  0  0  0  0  0  0
   11.8383  -17.5164   28.5032 C   0  0  0  0  0  0  0  0  0  0  0  0
   12.6693  -17.1747   29.5434 O   0  0  0  0  0  0  0  0  0  0  0  0
   11.3800  -18.6701   28.4252 O   0  0  0  0  0  0  0  0  0  0  0  0
  2  1  1  1
  2 10  1  0
  3  2  1  0
  4  3  1  0
  5  4  2  0
  6  5  1  0
  7  6  2  0
  7  8  1  0
  8  9  2  0
  9  4  1  0
 10 11  2  0
 12 13  1  0
 14 13  1  6
 15 10  1  0
 15 14  1  0
 16 14  1  0
 16 17  2  0
 19 18  1  6
 19 21  1  0
 20 19  1  0
 21 22  1  6
 22 16  1  0
 23 21  1  0
 23 24  1  0
 25 23  2  0
M  END
$$$$
