FSV.pdb
     RDKit          3D

 25 25  0  0  1  0  0  0  0  0999 V2000
    6.7302  -16.4258   21.2456 N   0  0  0  0  0  0  0  0  0  0  0  0
    7.2193  -15.5444   22.2679 C   0  0  1  0  0  0  0  0  0  0  0  0
    6.0439  -15.0778   23.0984 C   0  0  0  0  0  0  0  0  0  0  0  0
    6.5298  -14.0368   24.0246 C   0  0  0  0  0  0  0  0  0  0  0  0
    6.1798  -14.0969   25.3466 C   0  0  0  0  0  0  0  0  0  0  0  0
    6.6175  -13.1378   26.2427 C   0  0  0  0  0  0  0  0  0  0  0  0
    7.4233  -12.1076   25.7712 C   0  0  0  0  0  0  0  0  0  0  0  0
    7.7754  -12.0452   24.4465 C   0  0  0  0  0  0  0  0  0  0  0  0
    7.3202  -13.0200   23.5801 C   0  0  0  0  0  0  0  0  0  0  0  0
    8.1585  -16.2289   23.1864 C   0  0  0  0  0  0  0  0  0  0  0  0
    7.7435  -17.0408   24.0418 O   0  0  0  0  0  0  0  0  0  0  0  0
   12.4124  -15.9311   22.8896 O   0  0  0  0  0  0  0  0  0  0  0  0
   11.7687  -17.0731   23.3430 C   0  0  0  0  0  0  0  0  0  0  0  0
   10.4341  -16.7743   23.9461 C   0  0  2  0  0  0  0  0  0  0  0  0
    9.5529  -16.0085   23.1506 N   0  0  0  0  0  0  0  0  0  0  0  0
   10.6570  -16.0280   25.2276 C   0  0  0  0  0  0  0  0  0  0  0  0
   10.8296  -14.7819   25.2425 O   0  0  0  0  0  0  0  0  0  0  0  0
    9.7305  -13.9536   26.8413 C   0  0  0  0  0  0  0  0  0  0  0  0
    9.7776  -15.0008   27.8983 C   0  0  2  0  0  0  0  0  0  0  0  0
    9.7987  -14.4441   29.2989 C   0  0  0  0  0  0  0  0  0  0  0  0
   10.9505  -15.9607   27.7185 C   0  0  2  0  0  0  0  0  0  0  0  0
   10.6847  -16.6880   26.4896 N   0  0  0  0  0  0  0  0  0  0  0  0
   11.1099  -16.8612   28.8745 C   0  0  0  0  0  0  0  0  0  0  0  0
   10.7791  -18.1872   28.7271 O   0  0  0  0  0  0  0  0  0  0  0  0
   11.5339  -16.4426   29.9663 O   0  0  0  0  0  0  0  0  0  0  0  0
  2  1  1  6
  2 10  1  0
  3  2  1  0
  4  3  1  0
  5  4  2  0
  6  5  1  0
  7  6  2  0
  7  8  1  0
  8  9  2  0
  9  4  1  0
 10 11  2  0
 12 13  1  0
 14 13  1  6
 15 10  1  0
 15 14  1  0
 16 14  1  0
 16 17  2  0
 19 18  1  6
 19 21  1  0
 20 19  1  0
 21 22  1  6
 22 16  1  0
 23 21  1  0
 23 24  1  0
 25 23  2  0
M  END
$$$$
