FSV.pdb
     RDKit          3D

 25 25  0  0  1  0  0  0  0  0999 V2000
    5.9510  -15.0279   22.4671 N   0  0  0  0  0  0  0  0  0  0  0  0
    7.3771  -14.9172   22.3434 C   0  0  1  0  0  0  0  0  0  0  0  0
    7.7580  -13.4610   22.4959 C   0  0  0  0  0  0  0  0  0  0  0  0
    7.3951  -13.0397   23.8627 C   0  0  0  0  0  0  0  0  0  0  0  0
    6.3003  -13.5945   24.4688 C   0  0  0  0  0  0  0  0  0  0  0  0
    5.9314  -13.2228   25.7495 C   0  0  0  0  0  0  0  0  0  0  0  0
    6.6983  -12.2704   26.4109 C   0  0  0  0  0  0  0  0  0  0  0  0
    7.7962  -11.7128   25.8056 C   0  0  0  0  0  0  0  0  0  0  0  0
    8.1351  -12.1077   24.5260 C   0  0  0  0  0  0  0  0  0  0  0  0
    8.0850  -15.6673   23.4067 C   0  0  0  0  0  0  0  0  0  0  0  0
    7.5236  -15.9251   24.4936 O   0  0  0  0  0  0  0  0  0  0  0  0
   11.9854  -17.2601   22.8887 O   0  0  0  0  0  0  0  0  0  0  0  0
   11.0335  -17.9476   23.6271 C   0  0  0  0  0  0  0  0  0  0  0  0
    9.9738  -17.0455   24.1724 C   0  0  2  0  0  0  0  0  0  0  0  0
    9.4120  -16.1270   23.2578 N   0  0  0  0  0  0  0  0  0  0  0  0
   10.5663  -16.2587   25.3031 C   0  0  0  0  0  0  0  0  0  0  0  0
   11.2395  -15.2158   25.0980 O   0  0  0  0  0  0  0  0  0  0  0  0
    9.0799  -15.5970   28.9832 C   0  0  0  0  0  0  0  0  0  0  0  0
   10.3081  -15.0089   28.3820 C   0  0  2  0  0  0  0  0  0  0  0  0
   10.0279  -13.9038   27.3960 C   0  0  0  0  0  0  0  0  0  0  0  0
   11.1976  -16.0600   27.7233 C   0  0  2  0  0  0  0  0  0  0  0  0
   10.3989  -16.6490   26.6627 N   0  0  0  0  0  0  0  0  0  0  0  0
   11.6701  -17.0680   28.6893 C   0  0  0  0  0  0  0  0  0  0  0  0
   12.6378  -16.7080   29.5967 O   0  0  0  0  0  0  0  0  0  0  0  0
   11.2110  -18.2240   28.6940 O   0  0  0  0  0  0  0  0  0  0  0  0
  2  1  1  1
  2 10  1  0
  3  2  1  0
  4  3  1  0
  5  4  2  0
  6  5  1  0
  7  6  2  0
  7  8  1  0
  8  9  2  0
  9  4  1  0
 10 11  2  0
 12 13  1  0
 14 13  1  6
 15 10  1  0
 15 14  1  0
 16 14  1  0
 16 17  2  0
 19 18  1  6
 19 21  1  0
 20 19  1  0
 21 22  1  6
 22 16  1  0
 23 21  1  0
 23 24  1  0
 25 23  2  0
M  END
$$$$
