FSV.pdb
     RDKit          3D

 25 25  0  0  1  0  0  0  0  0999 V2000
    7.4814  -16.4567   20.0597 N   0  0  0  0  0  0  0  0  0  0  0  0
    7.7998  -15.6231   21.1845 C   0  0  1  0  0  0  0  0  0  0  0  0
    6.5237  -14.9750   21.6749 C   0  0  0  0  0  0  0  0  0  0  0  0
    6.8810  -14.0304   22.7507 C   0  0  0  0  0  0  0  0  0  0  0  0
    7.6250  -12.9210   22.4516 C   0  0  0  0  0  0  0  0  0  0  0  0
    7.9780  -12.0145   23.4355 C   0  0  0  0  0  0  0  0  0  0  0  0
    7.5599  -12.2543   24.7395 C   0  0  0  0  0  0  0  0  0  0  0  0
    6.8140  -13.3656   25.0420 C   0  0  0  0  0  0  0  0  0  0  0  0
    6.4800  -14.2493   24.0342 C   0  0  0  0  0  0  0  0  0  0  0  0
    8.3542  -16.4051   22.3139 C   0  0  0  0  0  0  0  0  0  0  0  0
    7.6428  -17.2188   22.9422 O   0  0  0  0  0  0  0  0  0  0  0  0
   12.3446  -17.2734   22.6945 O   0  0  0  0  0  0  0  0  0  0  0  0
   11.3711  -17.9617   23.4034 C   0  0  0  0  0  0  0  0  0  0  0  0
   10.2124  -17.0926   23.7724 C   0  0  2  0  0  0  0  0  0  0  0  0
    9.6948  -16.2796   22.7394 N   0  0  0  0  0  0  0  0  0  0  0  0
   10.6422  -16.1908   24.8907 C   0  0  0  0  0  0  0  0  0  0  0  0
   11.6862  -15.4933   24.8100 O   0  0  0  0  0  0  0  0  0  0  0  0
    9.1947  -13.3541   26.5450 C   0  0  0  0  0  0  0  0  0  0  0  0
    9.4243  -14.3323   27.6433 C   0  0  2  0  0  0  0  0  0  0  0  0
    9.8356  -13.6928   28.9449 C   0  0  0  0  0  0  0  0  0  0  0  0
   10.4396  -15.4076   27.2658 C   0  0  2  0  0  0  0  0  0  0  0  0
    9.8944  -16.0769   26.0977 N   0  0  0  0  0  0  0  0  0  0  0  0
   10.6919  -16.3436   28.3761 C   0  0  0  0  0  0  0  0  0  0  0  0
   11.6486  -16.0176   29.3079 O   0  0  0  0  0  0  0  0  0  0  0  0
   10.0594  -17.4095   28.4795 O   0  0  0  0  0  0  0  0  0  0  0  0
  2  1  1  6
  2 10  1  0
  3  2  1  0
  4  3  1  0
  5  4  2  0
  6  5  1  0
  7  6  2  0
  7  8  1  0
  8  9  2  0
  9  4  1  0
 10 11  2  0
 12 13  1  0
 14 13  1  6
 15 10  1  0
 15 14  1  0
 16 14  1  0
 16 17  2  0
 19 18  1  6
 19 21  1  0
 20 19  1  0
 21 22  1  6
 22 16  1  0
 23 21  1  0
 23 24  1  0
 25 23  2  0
M  END
$$$$
