FSV.pdb
     RDKit          3D

 25 25  0  0  1  0  0  0  0  0999 V2000
    5.7873  -16.8556   23.3865 N   0  0  0  0  0  0  0  0  0  0  0  0
    6.7553  -15.9897   23.9985 C   0  0  1  0  0  0  0  0  0  0  0  0
    6.1912  -15.4964   25.3128 C   0  0  0  0  0  0  0  0  0  0  0  0
    6.3029  -14.0251   25.3288 C   0  0  0  0  0  0  0  0  0  0  0  0
    7.3749  -13.4257   24.7243 C   0  0  0  0  0  0  0  0  0  0  0  0
    7.5113  -12.0488   24.7203 C   0  0  0  0  0  0  0  0  0  0  0  0
    6.5334  -11.2833   25.3451 C   0  0  0  0  0  0  0  0  0  0  0  0
    5.4579  -11.8817   25.9517 C   0  0  0  0  0  0  0  0  0  0  0  0
    5.3541  -13.2591   25.9363 C   0  0  0  0  0  0  0  0  0  0  0  0
    8.0185  -16.7003   24.3048 C   0  0  0  0  0  0  0  0  0  0  0  0
    8.0657  -17.5681   25.2036 O   0  0  0  0  0  0  0  0  0  0  0  0
   11.8763  -15.7089   22.6385 O   0  0  0  0  0  0  0  0  0  0  0  0
   11.5468  -17.0039   23.0107 C   0  0  0  0  0  0  0  0  0  0  0  0
   10.4366  -17.0452   24.0106 C   0  0  2  0  0  0  0  0  0  0  0  0
    9.2220  -16.4438   23.6120 N   0  0  0  0  0  0  0  0  0  0  0  0
   10.9027  -16.3505   25.2552 C   0  0  0  0  0  0  0  0  0  0  0  0
   10.9707  -15.0961   25.3230 O   0  0  0  0  0  0  0  0  0  0  0  0
   10.0188  -14.5653   27.1734 C   0  0  0  0  0  0  0  0  0  0  0  0
   10.4337  -15.6406   28.1154 C   0  0  2  0  0  0  0  0  0  0  0  0
   10.6494  -15.1566   29.5266 C   0  0  0  0  0  0  0  0  0  0  0  0
   11.6787  -16.3853   27.6410 C   0  0  2  0  0  0  0  0  0  0  0  0
   11.2911  -17.0713   26.4208 N   0  0  0  0  0  0  0  0  0  0  0  0
   12.1896  -17.3155   28.6639 C   0  0  0  0  0  0  0  0  0  0  0  0
   11.7149  -18.6055   28.6771 O   0  0  0  0  0  0  0  0  0  0  0  0
   13.0328  -16.9534   29.5035 O   0  0  0  0  0  0  0  0  0  0  0  0
  2  1  1  1
  2 10  1  0
  3  2  1  0
  4  3  1  0
  5  4  2  0
  6  5  1  0
  7  6  2  0
  7  8  1  0
  8  9  2  0
  9  4  1  0
 10 11  2  0
 12 13  1  0
 14 13  1  6
 15 10  1  0
 15 14  1  0
 16 14  1  0
 16 17  2  0
 19 18  1  6
 19 21  1  0
 20 19  1  0
 21 22  1  6
 22 16  1  0
 23 21  1  0
 23 24  1  0
 25 23  2  0
M  END
$$$$
