FSV.pdb
     RDKit          3D

 25 25  0  0  1  0  0  0  0  0999 V2000
    6.1178  -16.4234   25.1914 N   0  0  0  0  0  0  0  0  0  0  0  0
    7.1494  -15.7187   24.4840 C   0  0  1  0  0  0  0  0  0  0  0  0
    8.0021  -14.9814   25.4930 C   0  0  0  0  0  0  0  0  0  0  0  0
    7.3867  -13.6607   25.7258 C   0  0  0  0  0  0  0  0  0  0  0  0
    7.6254  -12.6426   24.8424 C   0  0  0  0  0  0  0  0  0  0  0  0
    7.0646  -11.3918   25.0299 C   0  0  0  0  0  0  0  0  0  0  0  0
    6.2504  -11.1889   26.1382 C   0  0  0  0  0  0  0  0  0  0  0  0
    6.0094  -12.2077   27.0253 C   0  0  0  0  0  0  0  0  0  0  0  0
    6.5860  -13.4438   26.8066 C   0  0  0  0  0  0  0  0  0  0  0  0
    8.0443  -16.6406   23.7467 C   0  0  0  0  0  0  0  0  0  0  0  0
    8.3301  -17.7660   24.2103 O   0  0  0  0  0  0  0  0  0  0  0  0
   10.0794  -15.5196   20.2382 O   0  0  0  0  0  0  0  0  0  0  0  0
    9.7952  -16.8668   20.4065 C   0  0  0  0  0  0  0  0  0  0  0  0
    9.4718  -17.2087   21.8251 C   0  0  2  0  0  0  0  0  0  0  0  0
    8.6168  -16.3085   22.4993 N   0  0  0  0  0  0  0  0  0  0  0  0
   10.7575  -17.2789   22.5937 C   0  0  0  0  0  0  0  0  0  0  0  0
   11.2086  -16.2823   23.2150 O   0  0  0  0  0  0  0  0  0  0  0  0
   11.7617  -20.3271   24.8532 C   0  0  0  0  0  0  0  0  0  0  0  0
   12.8751  -19.9652   23.9338 C   0  0  2  0  0  0  0  0  0  0  0  0
   14.2433  -20.1814   24.5283 C   0  0  0  0  0  0  0  0  0  0  0  0
   12.7678  -18.5315   23.4214 C   0  0  2  0  0  0  0  0  0  0  0  0
   11.5322  -18.4724   22.6602 N   0  0  0  0  0  0  0  0  0  0  0  0
   13.9382  -18.1443   22.6134 C   0  0  0  0  0  0  0  0  0  0  0  0
   14.8904  -17.3314   23.1806 O   0  0  0  0  0  0  0  0  0  0  0  0
   14.0734  -18.5382   21.4414 O   0  0  0  0  0  0  0  0  0  0  0  0
  2  1  1  1
  2 10  1  0
  3  2  1  0
  4  3  1  0
  5  4  2  0
  6  5  1  0
  7  6  2  0
  7  8  1  0
  8  9  2  0
  9  4  1  0
 10 11  2  0
 12 13  1  0
 14 13  1  6
 15 10  1  0
 15 14  1  0
 16 14  1  0
 16 17  2  0
 19 18  1  1
 19 21  1  0
 20 19  1  0
 21 22  1  6
 22 16  1  0
 23 21  1  0
 23 24  1  0
 25 23  2  0
M  END
$$$$
