FSV.pdb
     RDKit          3D

 25 25  0  0  1  0  0  0  0  0999 V2000
    6.4322  -16.7493   20.3195 N   0  0  0  0  0  0  0  0  0  0  0  0
    7.7975  -16.7337   20.7635 C   0  0  1  0  0  0  0  0  0  0  0  0
    8.4649  -15.4933   20.2114 C   0  0  0  0  0  0  0  0  0  0  0  0
    8.0358  -14.3454   21.0334 C   0  0  0  0  0  0  0  0  0  0  0  0
    8.5407  -13.1013   20.7665 C   0  0  0  0  0  0  0  0  0  0  0  0
    8.1602  -12.0030   21.5170 C   0  0  0  0  0  0  0  0  0  0  0  0
    7.2509  -12.1892   22.5520 C   0  0  0  0  0  0  0  0  0  0  0  0
    6.7433  -13.4352   22.8216 C   0  0  0  0  0  0  0  0  0  0  0  0
    7.1456  -14.5093   22.0517 C   0  0  0  0  0  0  0  0  0  0  0  0
    7.8989  -16.6638   22.2396 C   0  0  0  0  0  0  0  0  0  0  0  0
    6.9359  -16.2681   22.9317 O   0  0  0  0  0  0  0  0  0  0  0  0
   10.7925  -19.0233   24.1008 O   0  0  0  0  0  0  0  0  0  0  0  0
    9.5154  -18.8045   24.5959 C   0  0  0  0  0  0  0  0  0  0  0  0
    9.0146  -17.4288   24.2947 C   0  0  2  0  0  0  0  0  0  0  0  0
    9.0685  -17.0335   22.9394 N   0  0  0  0  0  0  0  0  0  0  0  0
    9.8292  -16.4509   25.0878 C   0  0  0  0  0  0  0  0  0  0  0  0
   10.6623  -15.6870   24.5353 O   0  0  0  0  0  0  0  0  0  0  0  0
    8.5303  -14.2993   28.1645 C   0  0  0  0  0  0  0  0  0  0  0  0
    9.8047  -14.1417   27.4117 C   0  0  2  0  0  0  0  0  0  0  0  0
    9.6287  -13.5181   26.0508 C   0  0  0  0  0  0  0  0  0  0  0  0
   10.5667  -15.4566   27.2701 C   0  0  2  0  0  0  0  0  0  0  0  0
    9.7030  -16.3362   26.5019 N   0  0  0  0  0  0  0  0  0  0  0  0
   10.9240  -16.0320   28.5793 C   0  0  0  0  0  0  0  0  0  0  0  0
   11.9463  -15.4558   29.2951 O   0  0  0  0  0  0  0  0  0  0  0  0
   10.3210  -17.0183   29.0382 O   0  0  0  0  0  0  0  0  0  0  0  0
  2  1  1  1
  2 10  1  0
  3  2  1  0
  4  3  1  0
  5  4  2  0
  6  5  1  0
  7  6  2  0
  7  8  1  0
  8  9  2  0
  9  4  1  0
 10 11  2  0
 12 13  1  0
 14 13  1  6
 15 10  1  0
 15 14  1  0
 16 14  1  0
 16 17  2  0
 19 18  1  6
 19 21  1  0
 20 19  1  0
 21 22  1  1
 22 16  1  0
 23 21  1  0
 23 24  1  0
 25 23  2  0
M  END
$$$$
