FSV.pdb
     RDKit          3D

 25 25  0  0  1  0  0  0  0  0999 V2000
    7.3264  -17.6851   19.7240 N   0  0  0  0  0  0  0  0  0  0  0  0
    7.7005  -16.5090   20.4576 C   0  0  1  0  0  0  0  0  0  0  0  0
    6.6039  -15.4788   20.2997 C   0  0  0  0  0  0  0  0  0  0  0  0
    7.1053  -14.1990   20.8365 C   0  0  0  0  0  0  0  0  0  0  0  0
    7.7801  -13.3416   20.0098 C   0  0  0  0  0  0  0  0  0  0  0  0
    8.2640  -12.1335   20.4797 C   0  0  0  0  0  0  0  0  0  0  0  0
    8.0501  -11.8067   21.8139 C   0  0  0  0  0  0  0  0  0  0  0  0
    7.3740  -12.6644   22.6446 C   0  0  0  0  0  0  0  0  0  0  0  0
    6.9049  -13.8622   22.1413 C   0  0  0  0  0  0  0  0  0  0  0  0
    7.8385  -16.7811   21.9072 C   0  0  0  0  0  0  0  0  0  0  0  0
    6.9155  -17.3284   22.5487 O   0  0  0  0  0  0  0  0  0  0  0  0
   11.5076  -17.5405   23.5255 O   0  0  0  0  0  0  0  0  0  0  0  0
   10.3048  -17.9762   24.0617 C   0  0  0  0  0  0  0  0  0  0  0  0
    9.2206  -16.9551   23.9351 C   0  0  2  0  0  0  0  0  0  0  0  0
    8.9999  -16.4444   22.6365 N   0  0  0  0  0  0  0  0  0  0  0  0
    9.5606  -15.7994   24.8281 C   0  0  0  0  0  0  0  0  0  0  0  0
   10.0818  -14.7480   24.3747 O   0  0  0  0  0  0  0  0  0  0  0  0
    7.5506  -14.8786   28.2932 C   0  0  0  0  0  0  0  0  0  0  0  0
    8.4878  -14.0147   27.5244 C   0  0  2  0  0  0  0  0  0  0  0  0
    7.8601  -13.3699   26.3151 C   0  0  0  0  0  0  0  0  0  0  0  0
    9.7533  -14.7562   27.1018 C   0  0  2  0  0  0  0  0  0  0  0  0
    9.3122  -15.8312   26.2303 N   0  0  0  0  0  0  0  0  0  0  0  0
   10.5139  -15.2563   28.2611 C   0  0  0  0  0  0  0  0  0  0  0  0
   11.1367  -14.3468   29.0823 O   0  0  0  0  0  0  0  0  0  0  0  0
   10.5983  -16.4735   28.5026 O   0  0  0  0  0  0  0  0  0  0  0  0
  2  1  1  6
  2 10  1  0
  3  2  1  0
  4  3  1  0
  5  4  2  0
  6  5  1  0
  7  6  2  0
  7  8  1  0
  8  9  2  0
  9  4  1  0
 10 11  2  0
 12 13  1  0
 14 13  1  6
 15 10  1  0
 15 14  1  0
 16 14  1  0
 16 17  2  0
 19 18  1  6
 19 21  1  0
 20 19  1  0
 21 22  1  6
 22 16  1  0
 23 21  1  0
 23 24  1  0
 25 23  2  0
M  END
$$$$
