FRF.pdb
     RDKit          3D

 34 35  0  0  1  0  0  0  0  0999 V2000
    4.8352  -16.5480   20.1026 N   0  0  0  0  0  0  0  0  0  0  0  0
    6.1178  -16.3456   20.7462 C   0  0  1  0  0  0  0  0  0  0  0  0
    6.2687  -14.8660   20.9848 C   0  0  0  0  0  0  0  0  0  0  0  0
    7.2262  -14.2292   20.1035 C   0  0  0  0  0  0  0  0  0  0  0  0
    8.5665  -14.5092   20.2097 C   0  0  0  0  0  0  0  0  0  0  0  0
    9.5117  -13.9197   19.3841 C   0  0  0  0  0  0  0  0  0  0  0  0
    9.0980  -13.0242   18.4254 C   0  0  0  0  0  0  0  0  0  0  0  0
    7.7673  -12.7229   18.2934 C   0  0  0  0  0  0  0  0  0  0  0  0
    6.8499  -13.3279   19.1324 C   0  0  0  0  0  0  0  0  0  0  0  0
    6.1555  -17.1484   21.9537 C   0  0  0  0  0  0  0  0  0  0  0  0
    5.4247  -16.8524   22.9332 O   0  0  0  0  0  0  0  0  0  0  0  0
    9.4816  -22.1583   26.6769 N   0  0  0  0  0  0  0  0  0  0  0  0
    8.4931  -23.0888   26.2940 C   0  0  0  0  0  0  0  0  0  0  0  0
    8.8177  -24.3579   26.2897 N   0  0  0  0  0  0  0  0  0  0  0  0
    7.1986  -22.6524   25.9291 N   0  0  0  0  0  0  0  0  0  0  0  0
    7.0079  -21.3415   25.4099 C   0  0  0  0  0  0  0  0  0  0  0  0
    8.2347  -20.7966   24.7093 C   0  0  0  0  0  0  0  0  0  0  0  0
    7.8005  -20.2652   23.3696 C   0  0  0  0  0  0  0  0  0  0  0  0
    7.2213  -18.8798   23.4469 C   0  0  2  0  0  0  0  0  0  0  0  0
    6.9849  -18.2992   22.1434 N   0  0  0  0  0  0  0  0  0  0  0  0
    8.0599  -17.9526   24.2319 C   0  0  0  0  0  0  0  0  0  0  0  0
    8.9324  -17.2831   23.6226 O   0  0  0  0  0  0  0  0  0  0  0  0
    8.1671  -25.0845   25.9443 N   0  0  0  0  0  0  0  0  0  0  0  0
    7.9531  -17.7631   25.6176 C   0  0  2  0  0  0  0  0  0  0  0  0
    8.8060  -16.8162   26.2986 C   0  0  0  0  0  0  0  0  0  0  0  0
    7.9964  -15.9539   27.2488 C   0  0  0  0  0  0  0  0  0  0  0  0
    8.8884  -15.0548   28.0107 C   0  0  0  0  0  0  0  0  0  0  0  0
    9.6275  -15.5140   29.0988 C   0  0  0  0  0  0  0  0  0  0  0  0
   10.4725  -14.7181   29.8225 C   0  0  0  0  0  0  0  0  0  0  0  0
   10.6266  -13.4029   29.4934 C   0  0  0  0  0  0  0  0  0  0  0  0
    9.9195  -12.8935   28.4246 C   0  0  0  0  0  0  0  0  0  0  0  0
    9.0721  -13.7103   27.7061 C   0  0  0  0  0  0  0  0  0  0  0  0
    9.9102  -17.5356   26.9325 O   0  0  0  0  0  0  0  0  0  0  0  0
   11.1024  -17.1674   26.6775 O   0  0  0  0  0  0  0  0  0  0  0  0
  2  1  1  1
  2  3  1  0
  3  4  1  0
  4  5  2  0
  4  9  1  0
  5  6  1  0
  6  7  2  0
  8  7  1  0
  9  8  2  0
 10 20  1  0
 10  2  1  0
 11 10  2  0
 13 12  1  0
 13 15  1  0
 14 13  2  0
 16 15  1  0
 16 17  1  0
 17 18  1  0
 19 18  1  6
 19 21  1  0
 19 20  1  0
 21 23  1  0
 22 21  2  0
 23 24  1  0
 24 32  1  0
 24 25  1  1
 25 26  1  0
 26 27  2  0
 27 28  1  0
 29 28  2  0
 30 29  1  0
 31 26  1  0
 31 30  2  0
 32 34  1  0
 33 32  2  0
M  END
$$$$
