FRF.pdb
     RDKit          3D

 34 35  0  0  1  0  0  0  0  0999 V2000
    6.6972  -17.9536   25.7909 N   0  0  0  0  0  0  0  0  0  0  0  0
    6.4482  -17.6501   24.3959 C   0  0  1  0  0  0  0  0  0  0  0  0
    5.4504  -16.5225   24.3557 C   0  0  0  0  0  0  0  0  0  0  0  0
    5.9797  -15.2600   24.8297 C   0  0  0  0  0  0  0  0  0  0  0  0
    5.8617  -14.9056   26.1513 C   0  0  0  0  0  0  0  0  0  0  0  0
    6.3559  -13.7063   26.6412 C   0  0  0  0  0  0  0  0  0  0  0  0
    6.9861  -12.8395   25.7788 C   0  0  0  0  0  0  0  0  0  0  0  0
    7.1204  -13.1633   24.4536 C   0  0  0  0  0  0  0  0  0  0  0  0
    6.6165  -14.3671   23.9965 C   0  0  0  0  0  0  0  0  0  0  0  0
    7.7160  -17.3438   23.7610 C   0  0  0  0  0  0  0  0  0  0  0  0
    8.7698  -17.9112   24.1464 O   0  0  0  0  0  0  0  0  0  0  0  0
    9.0515  -12.9549   16.4019 N   0  0  0  0  0  0  0  0  0  0  0  0
    8.3120  -14.0942   16.7823 C   0  0  0  0  0  0  0  0  0  0  0  0
    7.2877  -14.4336   16.0396 N   0  0  0  0  0  0  0  0  0  0  0  0
    8.6753  -14.8362   17.9297 N   0  0  0  0  0  0  0  0  0  0  0  0
    9.8718  -14.5222   18.6327 C   0  0  0  0  0  0  0  0  0  0  0  0
   10.1467  -15.4639   19.7861 C   0  0  0  0  0  0  0  0  0  0  0  0
    8.9346  -15.4631   20.6787 C   0  0  0  0  0  0  0  0  0  0  0  0
    9.0532  -16.4214   21.8312 C   0  0  2  0  0  0  0  0  0  0  0  0
    7.8876  -16.4130   22.6875 N   0  0  0  0  0  0  0  0  0  0  0  0
   10.2497  -16.1739   22.6596 C   0  0  0  0  0  0  0  0  0  0  0  0
   10.9322  -15.1451   22.4218 O   0  0  0  0  0  0  0  0  0  0  0  0
    6.7655  -15.3120   16.2019 N   0  0  0  0  0  0  0  0  0  0  0  0
   10.6833  -17.0088   23.7001 C   0  0  1  0  0  0  0  0  0  0  0  0
   10.9613  -16.4675   25.0105 C   0  0  0  0  0  0  0  0  0  0  0  0
    9.7407  -15.7579   25.5663 C   0  0  0  0  0  0  0  0  0  0  0  0
   10.0017  -15.2934   26.9449 C   0  0  0  0  0  0  0  0  0  0  0  0
    9.8560  -16.1436   28.0390 C   0  0  0  0  0  0  0  0  0  0  0  0
   10.0986  -15.7568   29.3285 C   0  0  0  0  0  0  0  0  0  0  0  0
   10.5054  -14.4825   29.5976 C   0  0  0  0  0  0  0  0  0  0  0  0
   10.6666  -13.5970   28.5529 C   0  0  0  0  0  0  0  0  0  0  0  0
   10.4176  -14.0041   27.2591 C   0  0  0  0  0  0  0  0  0  0  0  0
   11.4802  -17.5320   25.8686 O   0  0  0  0  0  0  0  0  0  0  0  0
   12.3718  -17.2394   26.7296 O   0  0  0  0  0  0  0  0  0  0  0  0
  2  1  1  1
  2  3  1  0
  3  4  1  0
  4  5  2  0
  4  9  1  0
  5  6  1  0
  6  7  2  0
  8  7  1  0
  9  8  2  0
 10 20  1  0
 10  2  1  0
 11 10  2  0
 13 12  1  0
 13 15  1  0
 14 13  2  0
 16 15  1  0
 16 17  1  0
 17 18  1  0
 19 18  1  6
 19 21  1  0
 19 20  1  0
 21 23  1  0
 22 21  2  0
 23 24  1  0
 24 32  1  0
 24 25  1  6
 25 26  1  0
 26 27  2  0
 27 28  1  0
 29 28  2  0
 30 29  1  0
 31 26  1  0
 31 30  2  0
 32 34  1  0
 33 32  2  0
M  END
$$$$
