FRF.pdb
     RDKit          3D

 34 35  0  0  1  0  0  0  0  0999 V2000
    7.2022  -17.5981   21.0444 N   0  0  0  0  0  0  0  0  0  0  0  0
    8.0988  -16.5147   21.3944 C   0  0  1  0  0  0  0  0  0  0  0  0
    7.2493  -15.3783   21.9002 C   0  0  0  0  0  0  0  0  0  0  0  0
    7.1638  -14.2618   20.9809 C   0  0  0  0  0  0  0  0  0  0  0  0
    6.2781  -14.2878   19.9316 C   0  0  0  0  0  0  0  0  0  0  0  0
    6.1680  -13.2384   19.0321 C   0  0  0  0  0  0  0  0  0  0  0  0
    6.9702  -12.1325   19.1919 C   0  0  0  0  0  0  0  0  0  0  0  0
    7.8647  -12.0751   20.2290 C   0  0  0  0  0  0  0  0  0  0  0  0
    7.9501  -13.1383   21.1087 C   0  0  0  0  0  0  0  0  0  0  0  0
    9.0615  -17.0112   22.3591 C   0  0  0  0  0  0  0  0  0  0  0  0
    8.6925  -17.7811   23.2822 O   0  0  0  0  0  0  0  0  0  0  0  0
   16.3628  -15.7411   25.8615 N   0  0  0  0  0  0  0  0  0  0  0  0
   16.6561  -16.7138   24.8830 C   0  0  0  0  0  0  0  0  0  0  0  0
   17.7226  -16.5345   24.1437 N   0  0  0  0  0  0  0  0  0  0  0  0
   15.8182  -17.8404   24.7164 N   0  0  0  0  0  0  0  0  0  0  0  0
   14.6543  -17.7495   23.9030 C   0  0  0  0  0  0  0  0  0  0  0  0
   13.6304  -16.7716   24.4397 C   0  0  0  0  0  0  0  0  0  0  0  0
   12.7038  -16.4104   23.3096 C   0  0  0  0  0  0  0  0  0  0  0  0
   11.3128  -16.9502   23.4953 C   0  0  2  0  0  0  0  0  0  0  0  0
   10.4567  -16.6922   22.3585 N   0  0  0  0  0  0  0  0  0  0  0  0
   10.6550  -16.4294   24.7099 C   0  0  0  0  0  0  0  0  0  0  0  0
   10.3903  -15.2013   24.7598 O   0  0  0  0  0  0  0  0  0  0  0  0
   17.9725  -17.1886   23.3820 N   0  0  0  0  0  0  0  0  0  0  0  0
   10.3013  -17.2106   25.8199 C   0  0  1  0  0  0  0  0  0  0  0  0
    9.8964  -16.5876   27.0591 C   0  0  0  0  0  0  0  0  0  0  0  0
    8.4144  -16.2635   27.0359 C   0  0  0  0  0  0  0  0  0  0  0  0
    8.2109  -14.8039   26.9230 C   0  0  0  0  0  0  0  0  0  0  0  0
    7.0675  -14.2724   26.3304 C   0  0  0  0  0  0  0  0  0  0  0  0
    6.8356  -12.9290   26.2167 C   0  0  0  0  0  0  0  0  0  0  0  0
    7.7461  -12.0326   26.6954 C   0  0  0  0  0  0  0  0  0  0  0  0
    8.8971  -12.5021   27.2923 C   0  0  0  0  0  0  0  0  0  0  0  0
    9.1145  -13.8597   27.3985 C   0  0  0  0  0  0  0  0  0  0  0  0
   10.3091  -17.4338   28.1782 O   0  0  0  0  0  0  0  0  0  0  0  0
   10.7279  -18.6104   27.9292 O   0  0  0  0  0  0  0  0  0  0  0  0
  2  1  1  1
  2  3  1  0
  3  4  1  0
  4  5  2  0
  4  9  1  0
  5  6  1  0
  6  7  2  0
  8  7  1  0
  9  8  2  0
 10 20  1  0
 10  2  1  0
 11 10  2  0
 13 12  1  0
 13 15  1  0
 14 13  2  0
 16 15  1  0
 16 17  1  0
 17 18  1  0
 19 18  1  6
 19 21  1  0
 19 20  1  0
 21 23  1  0
 22 21  2  0
 23 24  1  0
 24 32  1  0
 24 25  1  1
 25 26  1  0
 26 27  2  0
 27 28  1  0
 29 28  2  0
 30 29  1  0
 31 26  1  0
 31 30  2  0
 32 34  1  0
 33 32  2  0
M  END
$$$$
