FRF.pdb
     RDKit          3D

 34 35  0  0  1  0  0  0  0  0999 V2000
    5.9528  -17.7399   26.0269 N   0  0  0  0  0  0  0  0  0  0  0  0
    6.1440  -16.3547   25.6461 C   0  0  1  0  0  0  0  0  0  0  0  0
    6.5175  -15.5967   26.8929 C   0  0  0  0  0  0  0  0  0  0  0  0
    6.6178  -14.1649   26.6953 C   0  0  0  0  0  0  0  0  0  0  0  0
    5.4997  -13.3705   26.7658 C   0  0  0  0  0  0  0  0  0  0  0  0
    5.5570  -11.9972   26.5826 C   0  0  0  0  0  0  0  0  0  0  0  0
    6.7714  -11.4066   26.3213 C   0  0  0  0  0  0  0  0  0  0  0  0
    7.9065  -12.1713   26.2445 C   0  0  0  0  0  0  0  0  0  0  0  0
    7.8156  -13.5382   26.4321 C   0  0  0  0  0  0  0  0  0  0  0  0
    7.1448  -16.3026   24.5975 C   0  0  0  0  0  0  0  0  0  0  0  0
    8.0820  -17.1404   24.5754 O   0  0  0  0  0  0  0  0  0  0  0  0
   10.3053  -15.4786   17.9274 N   0  0  0  0  0  0  0  0  0  0  0  0
    9.3556  -14.6890   17.2461 C   0  0  0  0  0  0  0  0  0  0  0  0
    9.5490  -14.4664   15.9697 N   0  0  0  0  0  0  0  0  0  0  0  0
    8.2364  -14.1615   17.9305 N   0  0  0  0  0  0  0  0  0  0  0  0
    8.4093  -13.5060   19.1814 C   0  0  0  0  0  0  0  0  0  0  0  0
    8.8874  -14.4354   20.2771 C   0  0  0  0  0  0  0  0  0  0  0  0
    7.9015  -14.3533   21.4117 C   0  0  0  0  0  0  0  0  0  0  0  0
    8.1799  -15.3474   22.5048 C   0  0  2  0  0  0  0  0  0  0  0  0
    7.1662  -15.3423   23.5365 N   0  0  0  0  0  0  0  0  0  0  0  0
    9.4986  -15.1471   23.1373 C   0  0  0  0  0  0  0  0  0  0  0  0
    9.7939  -13.9927   23.5384 O   0  0  0  0  0  0  0  0  0  0  0  0
    8.9031  -13.8771   15.4165 N   0  0  0  0  0  0  0  0  0  0  0  0
   10.4526  -16.1583   23.3246 C   0  0  1  0  0  0  0  0  0  0  0  0
   11.6880  -15.8841   24.0219 C   0  0  0  0  0  0  0  0  0  0  0  0
   11.7593  -16.6746   25.3150 C   0  0  0  0  0  0  0  0  0  0  0  0
   10.8561  -16.0856   26.3259 C   0  0  0  0  0  0  0  0  0  0  0  0
   10.7613  -14.7068   26.5016 C   0  0  0  0  0  0  0  0  0  0  0  0
    9.9300  -14.1215   27.4169 C   0  0  0  0  0  0  0  0  0  0  0  0
    9.1381  -14.8930   28.2164 C   0  0  0  0  0  0  0  0  0  0  0  0
    9.1903  -16.2648   28.0862 C   0  0  0  0  0  0  0  0  0  0  0  0
   10.0341  -16.8378   27.1582 C   0  0  0  0  0  0  0  0  0  0  0  0
   12.8116  -16.1137   23.1145 O   0  0  0  0  0  0  0  0  0  0  0  0
   13.9880  -15.8472   23.5229 O   0  0  0  0  0  0  0  0  0  0  0  0
  2  1  1  1
  2  3  1  0
  3  4  1  0
  4  5  2  0
  4  9  1  0
  5  6  1  0
  6  7  2  0
  8  7  1  0
  9  8  2  0
 10 20  1  0
 10  2  1  0
 11 10  2  0
 13 12  1  0
 13 15  1  0
 14 13  2  0
 16 15  1  0
 16 17  1  0
 17 18  1  0
 19 18  1  6
 19 21  1  0
 19 20  1  0
 21 23  1  0
 22 21  2  0
 23 24  1  0
 24 32  1  0
 24 25  1  1
 25 26  1  0
 26 27  2  0
 27 28  1  0
 29 28  2  0
 30 29  1  0
 31 26  1  0
 31 30  2  0
 32 34  1  0
 33 32  2  0
M  END
$$$$
