FRF.pdb
     RDKit          3D

 34 35  0  0  1  0  0  0  0  0999 V2000
    7.2280  -17.5777   20.7497 N   0  0  0  0  0  0  0  0  0  0  0  0
    8.0050  -16.5141   21.3540 C   0  0  1  0  0  0  0  0  0  0  0  0
    7.0376  -15.4406   21.7786 C   0  0  0  0  0  0  0  0  0  0  0  0
    7.2775  -14.1585   21.1479 C   0  0  0  0  0  0  0  0  0  0  0  0
    6.7236  -13.8673   19.9255 C   0  0  0  0  0  0  0  0  0  0  0  0
    6.9306  -12.6515   19.2917 C   0  0  0  0  0  0  0  0  0  0  0  0
    7.7161  -11.7026   19.9037 C   0  0  0  0  0  0  0  0  0  0  0  0
    8.2837  -11.9618   21.1242 C   0  0  0  0  0  0  0  0  0  0  0  0
    8.0578  -13.1841   21.7298 C   0  0  0  0  0  0  0  0  0  0  0  0
    8.7823  -17.0768   22.4418 C   0  0  0  0  0  0  0  0  0  0  0  0
    8.2779  -17.9481   23.1949 O   0  0  0  0  0  0  0  0  0  0  0  0
   15.7931  -20.1662   20.3802 N   0  0  0  0  0  0  0  0  0  0  0  0
   14.5567  -20.3896   19.7389 C   0  0  0  0  0  0  0  0  0  0  0  0
   14.5551  -21.1238   18.6540 N   0  0  0  0  0  0  0  0  0  0  0  0
   13.3661  -19.8334   20.2607 N   0  0  0  0  0  0  0  0  0  0  0  0
   13.3941  -19.1090   21.4850 C   0  0  0  0  0  0  0  0  0  0  0  0
   12.0192  -18.6788   21.9514 C   0  0  0  0  0  0  0  0  0  0  0  0
   12.1826  -17.9667   23.2675 C   0  0  0  0  0  0  0  0  0  0  0  0
   10.8964  -17.3833   23.7833 C   0  0  2  0  0  0  0  0  0  0  0  0
   10.1321  -16.7163   22.7524 N   0  0  0  0  0  0  0  0  0  0  0  0
   11.1036  -16.4421   24.9015 C   0  0  0  0  0  0  0  0  0  0  0  0
   11.7981  -15.4155   24.6906 O   0  0  0  0  0  0  0  0  0  0  0  0
   13.6951  -21.2704   18.0978 N   0  0  0  0  0  0  0  0  0  0  0  0
   10.5782  -16.6113   26.1911 C   0  0  1  0  0  0  0  0  0  0  0  0
   11.0046  -15.7586   27.2768 C   0  0  0  0  0  0  0  0  0  0  0  0
   10.9174  -14.2979   26.8760 C   0  0  0  0  0  0  0  0  0  0  0  0
    9.5043  -13.8718   26.7973 C   0  0  0  0  0  0  0  0  0  0  0  0
    8.6343  -14.4082   25.8505 C   0  0  0  0  0  0  0  0  0  0  0  0
    7.3178  -14.0500   25.7518 C   0  0  0  0  0  0  0  0  0  0  0  0
    6.7928  -13.1240   26.6055 C   0  0  0  0  0  0  0  0  0  0  0  0
    7.6081  -12.5593   27.5636 C   0  0  0  0  0  0  0  0  0  0  0  0
    8.9330  -12.9323   27.6487 C   0  0  0  0  0  0  0  0  0  0  0  0
   10.2450  -16.0982   28.4795 O   0  0  0  0  0  0  0  0  0  0  0  0
    9.3264  -16.9758   28.3915 O   0  0  0  0  0  0  0  0  0  0  0  0
  2  1  1  1
  2  3  1  0
  3  4  1  0
  4  5  2  0
  4  9  1  0
  5  6  1  0
  6  7  2  0
  8  7  1  0
  9  8  2  0
 10 20  1  0
 10  2  1  0
 11 10  2  0
 13 12  1  0
 13 15  1  0
 14 13  2  0
 16 15  1  0
 16 17  1  0
 17 18  1  0
 19 18  1  6
 19 21  1  0
 19 20  1  0
 21 23  1  0
 22 21  2  0
 23 24  1  0
 24 32  1  0
 24 25  1  1
 25 26  1  0
 26 27  2  0
 27 28  1  0
 29 28  2  0
 30 29  1  0
 31 26  1  0
 31 30  2  0
 32 34  1  0
 33 32  2  0
M  END
$$$$
