FRF.pdb
     RDKit          3D

 34 35  0  0  1  0  0  0  0  0999 V2000
    5.9209  -18.2578   25.3689 N   0  0  0  0  0  0  0  0  0  0  0  0
    6.4600  -16.9568   25.0267 C   0  0  1  0  0  0  0  0  0  0  0  0
    6.8248  -16.2714   26.3174 C   0  0  0  0  0  0  0  0  0  0  0  0
    7.0041  -14.8398   26.1856 C   0  0  0  0  0  0  0  0  0  0  0  0
    8.1367  -14.3291   25.6003 C   0  0  0  0  0  0  0  0  0  0  0  0
    8.3428  -12.9654   25.4565 C   0  0  0  0  0  0  0  0  0  0  0  0
    7.3841  -12.0914   25.9138 C   0  0  0  0  0  0  0  0  0  0  0  0
    6.2422  -12.5688   26.5029 C   0  0  0  0  0  0  0  0  0  0  0  0
    6.0668  -13.9343   26.6311 C   0  0  0  0  0  0  0  0  0  0  0  0
    7.5761  -17.1483   24.1202 C   0  0  0  0  0  0  0  0  0  0  0  0
    8.3698  -18.1088   24.2882 O   0  0  0  0  0  0  0  0  0  0  0  0
    8.4139  -13.9437   16.0645 N   0  0  0  0  0  0  0  0  0  0  0  0
    8.2703  -13.6847   17.4436 C   0  0  0  0  0  0  0  0  0  0  0  0
    7.9685  -12.4630   17.8075 N   0  0  0  0  0  0  0  0  0  0  0  0
    8.4489  -14.7188   18.3911 N   0  0  0  0  0  0  0  0  0  0  0  0
    9.7488  -15.2410   18.6403 C   0  0  0  0  0  0  0  0  0  0  0  0
    9.7620  -16.3159   19.7067 C   0  0  0  0  0  0  0  0  0  0  0  0
    8.6851  -15.9855   20.7052 C   0  0  0  0  0  0  0  0  0  0  0  0
    8.9153  -16.6198   22.0488 C   0  0  2  0  0  0  0  0  0  0  0  0
    7.8721  -16.3072   23.0007 N   0  0  0  0  0  0  0  0  0  0  0  0
   10.2180  -16.2533   22.6384 C   0  0  0  0  0  0  0  0  0  0  0  0
   10.8186  -15.2520   22.1719 O   0  0  0  0  0  0  0  0  0  0  0  0
    7.8803  -12.1984   18.8039 N   0  0  0  0  0  0  0  0  0  0  0  0
   10.8388  -16.9458   23.6886 C   0  0  1  0  0  0  0  0  0  0  0  0
   11.0649  -16.3019   24.9622 C   0  0  0  0  0  0  0  0  0  0  0  0
    9.7607  -15.7832   25.5384 C   0  0  0  0  0  0  0  0  0  0  0  0
    9.9734  -15.2729   26.9092 C   0  0  0  0  0  0  0  0  0  0  0  0
   10.4938  -16.0845   27.9150 C   0  0  0  0  0  0  0  0  0  0  0  0
   10.7167  -15.6481   29.1922 C   0  0  0  0  0  0  0  0  0  0  0  0
   10.4278  -14.3601   29.5376 C   0  0  0  0  0  0  0  0  0  0  0  0
    9.9103  -13.5113   28.5819 C   0  0  0  0  0  0  0  0  0  0  0  0
    9.6920  -13.9680   27.2992 C   0  0  0  0  0  0  0  0  0  0  0  0
   11.7875  -17.2201   25.8416 O   0  0  0  0  0  0  0  0  0  0  0  0
   12.8390  -16.8021   26.4259 O   0  0  0  0  0  0  0  0  0  0  0  0
  2  1  1  1
  2  3  1  0
  3  4  1  0
  4  5  2  0
  4  9  1  0
  5  6  1  0
  6  7  2  0
  8  7  1  0
  9  8  2  0
 10 20  1  0
 10  2  1  0
 11 10  2  0
 13 12  1  0
 13 15  1  0
 14 13  2  0
 16 15  1  0
 16 17  1  0
 17 18  1  0
 19 18  1  6
 19 21  1  0
 19 20  1  0
 21 23  1  0
 22 21  2  0
 23 24  1  0
 24 32  1  0
 24 25  1  6
 25 26  1  0
 26 27  2  0
 27 28  1  0
 29 28  2  0
 30 29  1  0
 31 26  1  0
 31 30  2  0
 32 34  1  0
 33 32  2  0
M  END
$$$$
