FRF.pdb
     RDKit          3D

 34 35  0  0  1  0  0  0  0  0999 V2000
    6.3533  -17.8415   19.9894 N   0  0  0  0  0  0  0  0  0  0  0  0
    7.0181  -16.7398   20.6562 C   0  0  1  0  0  0  0  0  0  0  0  0
    5.9853  -15.6672   20.8835 C   0  0  0  0  0  0  0  0  0  0  0  0
    6.5414  -14.3318   20.9646 C   0  0  0  0  0  0  0  0  0  0  0  0
    7.0638  -13.7242   19.8493 C   0  0  0  0  0  0  0  0  0  0  0  0
    7.6040  -12.4478   19.8884 C   0  0  0  0  0  0  0  0  0  0  0  0
    7.6194  -11.7635   21.0816 C   0  0  0  0  0  0  0  0  0  0  0  0
    7.1058  -12.3417   22.2133 C   0  0  0  0  0  0  0  0  0  0  0  0
    6.5743  -13.6161   22.1408 C   0  0  0  0  0  0  0  0  0  0  0  0
    7.6290  -17.2427   21.8719 C   0  0  0  0  0  0  0  0  0  0  0  0
    7.3012  -18.3685   22.3256 O   0  0  0  0  0  0  0  0  0  0  0  0
   15.8321  -20.7473   23.0051 N   0  0  0  0  0  0  0  0  0  0  0  0
   14.7722  -19.9252   22.5689 C   0  0  0  0  0  0  0  0  0  0  0  0
   15.0512  -18.9686   21.7185 N   0  0  0  0  0  0  0  0  0  0  0  0
   13.4568  -20.1377   23.0419 N   0  0  0  0  0  0  0  0  0  0  0  0
   12.3660  -19.4378   22.4547 C   0  0  0  0  0  0  0  0  0  0  0  0
   11.9980  -18.1754   23.2054 C   0  0  0  0  0  0  0  0  0  0  0  0
   10.8661  -17.5143   22.4654 C   0  0  0  0  0  0  0  0  0  0  0  0
    9.6787  -17.2285   23.3423 C   0  0  2  0  0  0  0  0  0  0  0  0
    8.6157  -16.5450   22.6387 N   0  0  0  0  0  0  0  0  0  0  0  0
   10.0302  -16.4452   24.5431 C   0  0  0  0  0  0  0  0  0  0  0  0
   10.9176  -15.5610   24.4346 O   0  0  0  0  0  0  0  0  0  0  0  0
   14.3193  -18.3346   21.3538 N   0  0  0  0  0  0  0  0  0  0  0  0
    9.4422  -16.6168   25.8050 C   0  0  1  0  0  0  0  0  0  0  0  0
   10.0363  -16.0228   26.9805 C   0  0  0  0  0  0  0  0  0  0  0  0
    9.0613  -15.0731   27.6510 C   0  0  0  0  0  0  0  0  0  0  0  0
    8.6990  -13.9759   26.7293 C   0  0  0  0  0  0  0  0  0  0  0  0
    7.5930  -14.0686   25.8871 C   0  0  0  0  0  0  0  0  0  0  0  0
    7.2171  -13.0721   25.0286 C   0  0  0  0  0  0  0  0  0  0  0  0
    7.9357  -11.9140   24.9647 C   0  0  0  0  0  0  0  0  0  0  0  0
    9.0409  -11.7668   25.7762 C   0  0  0  0  0  0  0  0  0  0  0  0
    9.4054  -12.7817   26.6357 C   0  0  0  0  0  0  0  0  0  0  0  0
   10.5375  -17.0843   27.8526 O   0  0  0  0  0  0  0  0  0  0  0  0
   11.0702  -16.7591   28.9627 O   0  0  0  0  0  0  0  0  0  0  0  0
  2  1  1  1
  2  3  1  0
  3  4  1  0
  4  5  2  0
  4  9  1  0
  5  6  1  0
  6  7  2  0
  8  7  1  0
  9  8  2  0
 10 20  1  0
 10  2  1  0
 11 10  2  0
 13 12  1  0
 13 15  1  0
 14 13  2  0
 16 15  1  0
 16 17  1  0
 17 18  1  0
 19 18  1  6
 19 21  1  0
 19 20  1  0
 21 23  1  0
 22 21  2  0
 23 24  1  0
 24 32  1  0
 24 25  1  1
 25 26  1  0
 26 27  2  0
 27 28  1  0
 29 28  2  0
 30 29  1  0
 31 26  1  0
 31 30  2  0
 32 34  1  0
 33 32  2  0
M  END
$$$$
