FRF.pdb
     RDKit          3D

 34 35  0  0  1  0  0  0  0  0999 V2000
    8.4566  -17.1897   17.3451 N   0  0  0  0  0  0  0  0  0  0  0  0
    8.6201  -16.1968   18.3880 C   0  0  1  0  0  0  0  0  0  0  0  0
    7.4593  -15.2427   18.2817 C   0  0  0  0  0  0  0  0  0  0  0  0
    7.4171  -14.2572   19.3428 C   0  0  0  0  0  0  0  0  0  0  0  0
    6.7666  -14.5281   20.5216 C   0  0  0  0  0  0  0  0  0  0  0  0
    6.7055  -13.6101   21.5590 C   0  0  0  0  0  0  0  0  0  0  0  0
    7.3150  -12.3864   21.4071 C   0  0  0  0  0  0  0  0  0  0  0  0
    7.9725  -12.0847   20.2428 C   0  0  0  0  0  0  0  0  0  0  0  0
    8.0153  -13.0220   19.2272 C   0  0  0  0  0  0  0  0  0  0  0  0
    8.7096  -16.8829   19.6629 C   0  0  0  0  0  0  0  0  0  0  0  0
    7.8200  -17.7037   20.0033 O   0  0  0  0  0  0  0  0  0  0  0  0
    9.6616  -22.3803   21.6017 N   0  0  0  0  0  0  0  0  0  0  0  0
   10.5593  -22.7017   20.5623 C   0  0  0  0  0  0  0  0  0  0  0  0
   10.3129  -23.7745   19.8521 N   0  0  0  0  0  0  0  0  0  0  0  0
   11.6842  -21.8841   20.3062 N   0  0  0  0  0  0  0  0  0  0  0  0
   11.8721  -20.6796   21.0398 C   0  0  0  0  0  0  0  0  0  0  0  0
   10.6659  -19.7651   20.9980 C   0  0  0  0  0  0  0  0  0  0  0  0
   11.0258  -18.4965   21.7239 C   0  0  0  0  0  0  0  0  0  0  0  0
    9.8848  -17.5205   21.8019 C   0  0  2  0  0  0  0  0  0  0  0  0
    9.7646  -16.7050   20.6134 N   0  0  0  0  0  0  0  0  0  0  0  0
    9.9719  -16.6320   22.9776 C   0  0  0  0  0  0  0  0  0  0  0  0
   10.4784  -15.4918   22.8221 O   0  0  0  0  0  0  0  0  0  0  0  0
   10.9717  -24.1112   19.1289 N   0  0  0  0  0  0  0  0  0  0  0  0
    9.5276  -16.9699   24.2645 C   0  0  2  0  0  0  0  0  0  0  0  0
    9.1952  -15.9402   25.2220 C   0  0  0  0  0  0  0  0  0  0  0  0
    8.1694  -14.9832   24.6442 C   0  0  0  0  0  0  0  0  0  0  0  0
    7.7861  -13.9731   25.6528 C   0  0  0  0  0  0  0  0  0  0  0  0
    8.7046  -13.0449   26.1385 C   0  0  0  0  0  0  0  0  0  0  0  0
    8.3877  -12.0872   27.0625 C   0  0  0  0  0  0  0  0  0  0  0  0
    7.1189  -12.0045   27.5574 C   0  0  0  0  0  0  0  0  0  0  0  0
    6.1675  -12.8979   27.1122 C   0  0  0  0  0  0  0  0  0  0  0  0
    6.5046  -13.8568   26.1803 C   0  0  0  0  0  0  0  0  0  0  0  0
    8.7905  -16.5677   26.4794 O   0  0  0  0  0  0  0  0  0  0  0  0
    9.3636  -16.1995   27.5554 O   0  0  0  0  0  0  0  0  0  0  0  0
  2  1  1  6
  2  3  1  0
  3  4  1  0
  4  5  2  0
  4  9  1  0
  5  6  1  0
  6  7  2  0
  8  7  1  0
  9  8  2  0
 10 20  1  0
 10  2  1  0
 11 10  2  0
 13 12  1  0
 13 15  1  0
 14 13  2  0
 16 15  1  0
 16 17  1  0
 17 18  1  0
 19 18  1  6
 19 21  1  0
 19 20  1  0
 21 23  1  0
 22 21  2  0
 23 24  1  0
 24 32  1  0
 24 25  1  6
 25 26  1  0
 26 27  2  0
 27 28  1  0
 29 28  2  0
 30 29  1  0
 31 26  1  0
 31 30  2  0
 32 34  1  0
 33 32  2  0
M  END
$$$$
