FRF.pdb
     RDKit          3D

 34 35  0  0  1  0  0  0  0  0999 V2000
    6.1374  -17.8876   25.5991 N   0  0  0  0  0  0  0  0  0  0  0  0
    6.2517  -16.4961   25.2105 C   0  0  1  0  0  0  0  0  0  0  0  0
    6.2692  -15.6794   26.4760 C   0  0  0  0  0  0  0  0  0  0  0  0
    6.0396  -14.2655   26.2592 C   0  0  0  0  0  0  0  0  0  0  0  0
    4.7615  -13.7651   26.2116 C   0  0  0  0  0  0  0  0  0  0  0  0
    4.5030  -12.4184   26.0064 C   0  0  0  0  0  0  0  0  0  0  0  0
    5.5583  -11.5510   25.8447 C   0  0  0  0  0  0  0  0  0  0  0  0
    6.8462  -12.0185   25.8869 C   0  0  0  0  0  0  0  0  0  0  0  0
    7.0703  -13.3671   26.0932 C   0  0  0  0  0  0  0  0  0  0  0  0
    7.4389  -16.3462   24.3907 C   0  0  0  0  0  0  0  0  0  0  0  0
    8.3962  -17.1525   24.5105 O   0  0  0  0  0  0  0  0  0  0  0  0
    7.5351  -15.1950   17.4926 N   0  0  0  0  0  0  0  0  0  0  0  0
    8.1299  -13.9202   17.3890 C   0  0  0  0  0  0  0  0  0  0  0  0
    8.7605  -13.6287   16.2784 N   0  0  0  0  0  0  0  0  0  0  0  0
    8.0408  -12.9971   18.4563 N   0  0  0  0  0  0  0  0  0  0  0  0
    7.2924  -13.3240   19.6214 C   0  0  0  0  0  0  0  0  0  0  0  0
    7.7463  -14.6116   20.2762 C   0  0  0  0  0  0  0  0  0  0  0  0
    8.6292  -14.2485   21.4401 C   0  0  0  0  0  0  0  0  0  0  0  0
    8.7258  -15.3420   22.4676 C   0  0  2  0  0  0  0  0  0  0  0  0
    7.6316  -15.3189   23.4131 N   0  0  0  0  0  0  0  0  0  0  0  0
    9.9977  -15.3121   23.2162 C   0  0  0  0  0  0  0  0  0  0  0  0
   10.3890  -14.2089   23.6752 O   0  0  0  0  0  0  0  0  0  0  0  0
    9.1999  -12.7040   16.1291 N   0  0  0  0  0  0  0  0  0  0  0  0
   10.8069  -16.4329   23.4544 C   0  0  1  0  0  0  0  0  0  0  0  0
   12.0228  -16.3119   24.2255 C   0  0  0  0  0  0  0  0  0  0  0  0
   11.8081  -16.8056   25.6441 C   0  0  0  0  0  0  0  0  0  0  0  0
   11.6204  -15.6620   26.5614 C   0  0  0  0  0  0  0  0  0  0  0  0
   11.5011  -15.8451   27.9374 C   0  0  0  0  0  0  0  0  0  0  0  0
   11.3381  -14.8136   28.8211 C   0  0  0  0  0  0  0  0  0  0  0  0
   11.2848  -13.5266   28.3713 C   0  0  0  0  0  0  0  0  0  0  0  0
   11.3976  -13.2856   27.0182 C   0  0  0  0  0  0  0  0  0  0  0  0
   11.5615  -14.3375   26.1417 C   0  0  0  0  0  0  0  0  0  0  0  0
   13.1103  -16.9825   23.5139 O   0  0  0  0  0  0  0  0  0  0  0  0
   14.2755  -16.9648   24.0273 O   0  0  0  0  0  0  0  0  0  0  0  0
  2  1  1  1
  2  3  1  0
  3  4  1  0
  4  5  2  0
  4  9  1  0
  5  6  1  0
  6  7  2  0
  8  7  1  0
  9  8  2  0
 10 20  1  0
 10  2  1  0
 11 10  2  0
 13 12  1  0
 13 15  1  0
 14 13  2  0
 16 15  1  0
 16 17  1  0
 17 18  1  0
 19 18  1  6
 19 21  1  0
 19 20  1  0
 21 23  1  0
 22 21  2  0
 23 24  1  0
 24 32  1  0
 24 25  1  6
 25 26  1  0
 26 27  2  0
 27 28  1  0
 29 28  2  0
 30 29  1  0
 31 26  1  0
 31 30  2  0
 32 34  1  0
 33 32  2  0
M  END
$$$$
