FRF.pdb
     RDKit          3D

 34 35  0  0  1  0  0  0  0  0999 V2000
   13.4711  -15.3887   25.5843 N   0  0  0  0  0  0  0  0  0  0  0  0
   12.1419  -15.9290   25.3804 C   0  0  1  0  0  0  0  0  0  0  0  0
   11.1926  -15.1026   26.2078 C   0  0  0  0  0  0  0  0  0  0  0  0
   11.3509  -15.2896   27.6357 C   0  0  0  0  0  0  0  0  0  0  0  0
   11.4251  -14.2071   28.4775 C   0  0  0  0  0  0  0  0  0  0  0  0
   11.5763  -14.3470   29.8487 C   0  0  0  0  0  0  0  0  0  0  0  0
   11.6549  -15.6099   30.3883 C   0  0  0  0  0  0  0  0  0  0  0  0
   11.5842  -16.7113   29.5754 C   0  0  0  0  0  0  0  0  0  0  0  0
   11.4333  -16.5378   28.2120 C   0  0  0  0  0  0  0  0  0  0  0  0
   11.8560  -15.9158   23.9584 C   0  0  0  0  0  0  0  0  0  0  0  0
   12.1538  -14.9117   23.2627 O   0  0  0  0  0  0  0  0  0  0  0  0
    8.9808  -14.4824   17.5370 N   0  0  0  0  0  0  0  0  0  0  0  0
    8.3240  -14.2423   18.7619 C   0  0  0  0  0  0  0  0  0  0  0  0
    7.7775  -13.0653   18.9416 N   0  0  0  0  0  0  0  0  0  0  0  0
    8.2648  -15.2475   19.7545 N   0  0  0  0  0  0  0  0  0  0  0  0
    8.7957  -16.5412   19.4918 C   0  0  0  0  0  0  0  0  0  0  0  0
    8.5463  -17.5244   20.6160 C   0  0  0  0  0  0  0  0  0  0  0  0
    9.8442  -17.7177   21.3535 C   0  0  0  0  0  0  0  0  0  0  0  0
    9.9647  -16.8421   22.5698 C   0  0  2  0  0  0  0  0  0  0  0  0
   11.2381  -16.9883   23.2400 N   0  0  0  0  0  0  0  0  0  0  0  0
    8.8857  -17.0738   23.5502 C   0  0  0  0  0  0  0  0  0  0  0  0
    9.0710  -17.9417   24.4408 O   0  0  0  0  0  0  0  0  0  0  0  0
    7.3424  -12.7995   19.8419 N   0  0  0  0  0  0  0  0  0  0  0  0
    7.6602  -16.3913   23.5602 C   0  0  2  0  0  0  0  0  0  0  0  0
    6.6415  -16.7227   24.5299 C   0  0  0  0  0  0  0  0  0  0  0  0
    5.6877  -15.5585   24.7229 C   0  0  0  0  0  0  0  0  0  0  0  0
    6.3700  -14.4474   25.4191 C   0  0  0  0  0  0  0  0  0  0  0  0
    5.7459  -13.2167   25.6109 C   0  0  0  0  0  0  0  0  0  0  0  0
    6.3375  -12.1675   26.2596 C   0  0  0  0  0  0  0  0  0  0  0  0
    7.6013  -12.2936   26.7581 C   0  0  0  0  0  0  0  0  0  0  0  0
    8.2675  -13.4903   26.5974 C   0  0  0  0  0  0  0  0  0  0  0  0
    7.6559  -14.5374   25.9409 C   0  0  0  0  0  0  0  0  0  0  0  0
    5.9925  -17.9723   24.1351 O   0  0  0  0  0  0  0  0  0  0  0  0
    5.0837  -18.4504   24.8883 O   0  0  0  0  0  0  0  0  0  0  0  0
  2  1  1  6
  2  3  1  0
  3  4  1  0
  4  5  2  0
  4  9  1  0
  5  6  1  0
  6  7  2  0
  8  7  1  0
  9  8  2  0
 10 20  1  0
 10  2  1  0
 11 10  2  0
 13 12  1  0
 13 15  1  0
 14 13  2  0
 16 15  1  0
 16 17  1  0
 17 18  1  0
 19 18  1  6
 19 21  1  0
 19 20  1  0
 21 23  1  0
 22 21  2  0
 23 24  1  0
 24 32  1  0
 24 25  1  6
 25 26  1  0
 26 27  2  0
 27 28  1  0
 29 28  2  0
 30 29  1  0
 31 26  1  0
 31 30  2  0
 32 34  1  0
 33 32  2  0
M  END
$$$$
