FRF.pdb
     RDKit          3D

 34 35  0  0  1  0  0  0  0  0999 V2000
    7.3832  -20.0533   22.4329 N   0  0  0  0  0  0  0  0  0  0  0  0
    7.0242  -18.8968   23.2291 C   0  0  1  0  0  0  0  0  0  0  0  0
    6.8264  -19.3733   24.6442 C   0  0  0  0  0  0  0  0  0  0  0  0
    6.5469  -18.3064   25.5837 C   0  0  0  0  0  0  0  0  0  0  0  0
    7.2587  -18.2021   26.7535 C   0  0  0  0  0  0  0  0  0  0  0  0
    7.0197  -17.1949   27.6760 C   0  0  0  0  0  0  0  0  0  0  0  0
    6.0382  -16.2671   27.4152 C   0  0  0  0  0  0  0  0  0  0  0  0
    5.3096  -16.3430   26.2566 C   0  0  0  0  0  0  0  0  0  0  0  0
    5.5725  -17.3597   25.3571 C   0  0  0  0  0  0  0  0  0  0  0  0
    8.0647  -17.8974   23.0792 C   0  0  0  0  0  0  0  0  0  0  0  0
    9.2752  -18.2269   23.1645 O   0  0  0  0  0  0  0  0  0  0  0  0
    7.6187  -12.1444   17.5000 N   0  0  0  0  0  0  0  0  0  0  0  0
    7.5814  -13.5273   17.2249 C   0  0  0  0  0  0  0  0  0  0  0  0
    7.8426  -13.9140   16.0008 N   0  0  0  0  0  0  0  0  0  0  0  0
    7.2711  -14.4547   18.2461 N   0  0  0  0  0  0  0  0  0  0  0  0
    7.4171  -14.0861   19.6126 C   0  0  0  0  0  0  0  0  0  0  0  0
    8.5743  -14.7845   20.2950 C   0  0  0  0  0  0  0  0  0  0  0  0
    8.5375  -14.4157   21.7540 C   0  0  0  0  0  0  0  0  0  0  0  0
    8.9094  -15.5581   22.6581 C   0  0  2  0  0  0  0  0  0  0  0  0
    7.8318  -16.5071   22.8318 N   0  0  0  0  0  0  0  0  0  0  0  0
    9.3627  -15.1092   23.9894 C   0  0  0  0  0  0  0  0  0  0  0  0
    9.4124  -13.8729   24.2123 O   0  0  0  0  0  0  0  0  0  0  0  0
    7.9492  -14.9139   15.7575 N   0  0  0  0  0  0  0  0  0  0  0  0
    9.7446  -15.9679   25.0307 C   0  0  1  0  0  0  0  0  0  0  0  0
   10.4501  -15.4576   26.1838 C   0  0  0  0  0  0  0  0  0  0  0  0
    9.4795  -15.1303   27.3032 C   0  0  0  0  0  0  0  0  0  0  0  0
    8.6020  -14.0084   26.9086 C   0  0  0  0  0  0  0  0  0  0  0  0
    9.1215  -12.8321   26.3726 C   0  0  0  0  0  0  0  0  0  0  0  0
    8.3438  -11.7758   25.9842 C   0  0  0  0  0  0  0  0  0  0  0  0
    6.9868  -11.8392   26.1124 C   0  0  0  0  0  0  0  0  0  0  0  0
    6.4170  -12.9801   26.6371 C   0  0  0  0  0  0  0  0  0  0  0  0
    7.2163  -14.0353   27.0233 C   0  0  0  0  0  0  0  0  0  0  0  0
   11.5029  -16.4012   26.5578 O   0  0  0  0  0  0  0  0  0  0  0  0
   12.2324  -16.1307   27.5659 O   0  0  0  0  0  0  0  0  0  0  0  0
  2  1  1  6
  2  3  1  0
  3  4  1  0
  4  5  2  0
  4  9  1  0
  5  6  1  0
  6  7  2  0
  8  7  1  0
  9  8  2  0
 10 20  1  0
 10  2  1  0
 11 10  2  0
 13 12  1  0
 13 15  1  0
 14 13  2  0
 16 15  1  0
 16 17  1  0
 17 18  1  0
 19 18  1  6
 19 21  1  0
 19 20  1  0
 21 23  1  0
 22 21  2  0
 23 24  1  0
 24 32  1  0
 24 25  1  6
 25 26  1  0
 26 27  2  0
 27 28  1  0
 29 28  2  0
 30 29  1  0
 31 26  1  0
 31 30  2  0
 32 34  1  0
 33 32  2  0
M  END
$$$$
