FRF.pdb
     RDKit          3D

 34 35  0  0  1  0  0  0  0  0999 V2000
    5.3206  -19.8436   21.5245 N   0  0  0  0  0  0  0  0  0  0  0  0
    5.0158  -18.4268   21.5268 C   0  0  1  0  0  0  0  0  0  0  0  0
    4.0213  -18.1862   22.6321 C   0  0  0  0  0  0  0  0  0  0  0  0
    2.6752  -18.6118   22.3065 C   0  0  0  0  0  0  0  0  0  0  0  0
    2.1055  -18.2674   21.1053 C   0  0  0  0  0  0  0  0  0  0  0  0
    0.8205  -18.6565   20.7589 C   0  0  0  0  0  0  0  0  0  0  0  0
    0.0882  -19.4125   21.6445 C   0  0  0  0  0  0  0  0  0  0  0  0
    0.6277  -19.7730   22.8520 C   0  0  0  0  0  0  0  0  0  0  0  0
    1.9118  -19.3690   23.1673 C   0  0  0  0  0  0  0  0  0  0  0  0
    6.2576  -17.6920   21.6753 C   0  0  0  0  0  0  0  0  0  0  0  0
    7.2238  -18.2020   22.2977 O   0  0  0  0  0  0  0  0  0  0  0  0
    7.2187  -14.6614   16.5408 N   0  0  0  0  0  0  0  0  0  0  0  0
    8.0221  -13.5033   16.4877 C   0  0  0  0  0  0  0  0  0  0  0  0
    8.6438  -13.2420   15.3646 N   0  0  0  0  0  0  0  0  0  0  0  0
    8.1435  -12.6609   17.6168 N   0  0  0  0  0  0  0  0  0  0  0  0
    7.3650  -12.9120   18.7809 C   0  0  0  0  0  0  0  0  0  0  0  0
    7.4668  -14.3430   19.2654 C   0  0  0  0  0  0  0  0  0  0  0  0
    7.7508  -14.3085   20.7432 C   0  0  0  0  0  0  0  0  0  0  0  0
    7.7392  -15.6726   21.3755 C   0  0  2  0  0  0  0  0  0  0  0  0
    6.4971  -16.3802   21.1555 N   0  0  0  0  0  0  0  0  0  0  0  0
    8.0095  -15.6325   22.8262 C   0  0  0  0  0  0  0  0  0  0  0  0
    7.1307  -15.1407   23.5790 O   0  0  0  0  0  0  0  0  0  0  0  0
    9.2807  -12.4320   15.2713 N   0  0  0  0  0  0  0  0  0  0  0  0
    9.1836  -16.1066   23.4299 C   0  0  1  0  0  0  0  0  0  0  0  0
    9.5866  -15.6273   24.7320 C   0  0  0  0  0  0  0  0  0  0  0  0
    8.5465  -15.9821   25.7782 C   0  0  0  0  0  0  0  0  0  0  0  0
    9.0083  -15.5693   27.1202 C   0  0  0  0  0  0  0  0  0  0  0  0
    8.7020  -14.3138   27.6407 C   0  0  0  0  0  0  0  0  0  0  0  0
    9.0997  -13.8976   28.8816 C   0  0  0  0  0  0  0  0  0  0  0  0
    9.8348  -14.7248   29.6798 C   0  0  0  0  0  0  0  0  0  0  0  0
   10.1675  -15.9801   29.2161 C   0  0  0  0  0  0  0  0  0  0  0  0
    9.7580  -16.3831   27.9626 C   0  0  0  0  0  0  0  0  0  0  0  0
   10.9307  -16.1207   25.0294 O   0  0  0  0  0  0  0  0  0  0  0  0
   11.5461  -15.6413   26.0360 O   0  0  0  0  0  0  0  0  0  0  0  0
  2  1  1  1
  2  3  1  0
  3  4  1  0
  4  5  2  0
  4  9  1  0
  5  6  1  0
  6  7  2  0
  8  7  1  0
  9  8  2  0
 10 20  1  0
 10  2  1  0
 11 10  2  0
 13 12  1  0
 13 15  1  0
 14 13  2  0
 16 15  1  0
 16 17  1  0
 17 18  1  0
 19 18  1  1
 19 21  1  0
 19 20  1  0
 21 23  1  0
 22 21  2  0
 23 24  1  0
 24 32  1  0
 24 25  1  6
 25 26  1  0
 26 27  2  0
 27 28  1  0
 29 28  2  0
 30 29  1  0
 31 26  1  0
 31 30  2  0
 32 34  1  0
 33 32  2  0
M  END
$$$$
