FRF.pdb
     RDKit          3D

 34 35  0  0  1  0  0  0  0  0999 V2000
   10.6831  -19.3305   20.5684 N   0  0  0  0  0  0  0  0  0  0  0  0
   11.8260  -18.5430   20.9853 C   0  0  1  0  0  0  0  0  0  0  0  0
   12.8082  -18.5427   19.8434 C   0  0  0  0  0  0  0  0  0  0  0  0
   13.4217  -19.8330   19.6032 C   0  0  0  0  0  0  0  0  0  0  0  0
   14.4089  -20.3022   20.4347 C   0  0  0  0  0  0  0  0  0  0  0  0
   15.0186  -21.5316   20.2366 C   0  0  0  0  0  0  0  0  0  0  0  0
   14.6252  -22.3107   19.1734 C   0  0  0  0  0  0  0  0  0  0  0  0
   13.6426  -21.8714   18.3247 C   0  0  0  0  0  0  0  0  0  0  0  0
   13.0543  -20.6405   18.5497 C   0  0  0  0  0  0  0  0  0  0  0  0
   11.3582  -17.2239   21.3663 C   0  0  0  0  0  0  0  0  0  0  0  0
   11.4241  -16.2694   20.5505 O   0  0  0  0  0  0  0  0  0  0  0  0
    6.9299  -12.8476   18.5707 N   0  0  0  0  0  0  0  0  0  0  0  0
    8.1082  -12.8549   19.3460 C   0  0  0  0  0  0  0  0  0  0  0  0
    9.0957  -12.0835   18.9640 N   0  0  0  0  0  0  0  0  0  0  0  0
    8.2068  -13.6725   20.4953 N   0  0  0  0  0  0  0  0  0  0  0  0
    7.1183  -14.5081   20.8716 C   0  0  0  0  0  0  0  0  0  0  0  0
    7.3930  -15.3116   22.1252 C   0  0  0  0  0  0  0  0  0  0  0  0
    8.5843  -16.1912   21.8552 C   0  0  0  0  0  0  0  0  0  0  0  0
    9.7280  -15.9365   22.7975 C   0  0  2  0  0  0  0  0  0  0  0  0
   10.8029  -16.8918   22.6429 N   0  0  0  0  0  0  0  0  0  0  0  0
    9.3098  -15.9210   24.2131 C   0  0  0  0  0  0  0  0  0  0  0  0
    8.2294  -16.4875   24.5177 O   0  0  0  0  0  0  0  0  0  0  0  0
    9.9976  -12.0636   19.4706 N   0  0  0  0  0  0  0  0  0  0  0  0
   10.0351  -15.3160   25.2501 C   0  0  2  0  0  0  0  0  0  0  0  0
    9.6536  -15.5167   26.6292 C   0  0  0  0  0  0  0  0  0  0  0  0
    8.1891  -15.1772   26.8340 C   0  0  0  0  0  0  0  0  0  0  0  0
    7.9761  -13.7215   26.6927 C   0  0  0  0  0  0  0  0  0  0  0  0
    6.7893  -13.2066   26.1754 C   0  0  0  0  0  0  0  0  0  0  0  0
    6.5480  -11.8670   26.0391 C   0  0  0  0  0  0  0  0  0  0  0  0
    7.4924  -10.9577   26.4174 C   0  0  0  0  0  0  0  0  0  0  0  0
    8.6870  -11.4105   26.9366 C   0  0  0  0  0  0  0  0  0  0  0  0
    8.9132  -12.7645   27.0669 C   0  0  0  0  0  0  0  0  0  0  0  0
   10.0184  -16.8736   27.0347 O   0  0  0  0  0  0  0  0  0  0  0  0
   10.4980  -17.6627   26.1577 O   0  0  0  0  0  0  0  0  0  0  0  0
  2  1  1  6
  2  3  1  0
  3  4  1  0
  4  5  2  0
  4  9  1  0
  5  6  1  0
  6  7  2  0
  8  7  1  0
  9  8  2  0
 10 20  1  0
 10  2  1  0
 11 10  2  0
 13 12  1  0
 13 15  1  0
 14 13  2  0
 16 15  1  0
 16 17  1  0
 17 18  1  0
 19 18  1  6
 19 21  1  0
 19 20  1  0
 21 23  1  0
 22 21  2  0
 23 24  1  0
 24 32  1  0
 24 25  1  1
 25 26  1  0
 26 27  2  0
 27 28  1  0
 29 28  2  0
 30 29  1  0
 31 26  1  0
 31 30  2  0
 32 34  1  0
 33 32  2  0
M  END
$$$$
