FRF.pdb
     RDKit          3D

 34 35  0  0  1  0  0  0  0  0999 V2000
    6.6072  -20.7245   23.0020 N   0  0  0  0  0  0  0  0  0  0  0  0
    6.5925  -19.5064   23.7871 C   0  0  1  0  0  0  0  0  0  0  0  0
    6.6304  -19.9100   25.2377 C   0  0  0  0  0  0  0  0  0  0  0  0
    6.7499  -18.7910   26.1501 C   0  0  0  0  0  0  0  0  0  0  0  0
    5.9811  -17.6659   25.9794 C   0  0  0  0  0  0  0  0  0  0  0  0
    6.0676  -16.5760   26.8322 C   0  0  0  0  0  0  0  0  0  0  0  0
    6.9514  -16.6184   27.8854 C   0  0  0  0  0  0  0  0  0  0  0  0
    7.7333  -17.7267   28.0837 C   0  0  0  0  0  0  0  0  0  0  0  0
    7.6230  -18.7970   27.2153 C   0  0  0  0  0  0  0  0  0  0  0  0
    7.7102  -18.6807   23.3712 C   0  0  0  0  0  0  0  0  0  0  0  0
    8.8434  -19.1945   23.1903 O   0  0  0  0  0  0  0  0  0  0  0  0
    8.6094  -11.9664   19.0760 N   0  0  0  0  0  0  0  0  0  0  0  0
    7.6325  -12.9713   18.9160 C   0  0  0  0  0  0  0  0  0  0  0  0
    6.4458  -12.6085   18.4963 N   0  0  0  0  0  0  0  0  0  0  0  0
    7.9376  -14.3218   19.2028 N   0  0  0  0  0  0  0  0  0  0  0  0
    9.2762  -14.7034   19.4981 C   0  0  0  0  0  0  0  0  0  0  0  0
    9.5516  -14.7995   20.9840 C   0  0  0  0  0  0  0  0  0  0  0  0
    8.3704  -15.4754   21.6273 C   0  0  0  0  0  0  0  0  0  0  0  0
    8.7674  -16.5086   22.6450 C   0  0  2  0  0  0  0  0  0  0  0  0
    7.6406  -17.2705   23.1367 N   0  0  0  0  0  0  0  0  0  0  0  0
    9.4851  -15.9294   23.7976 C   0  0  0  0  0  0  0  0  0  0  0  0
   10.1418  -14.8727   23.6162 O   0  0  0  0  0  0  0  0  0  0  0  0
    5.7054  -13.3019   18.2930 N   0  0  0  0  0  0  0  0  0  0  0  0
    9.4876  -16.4762   25.0893 C   0  0  1  0  0  0  0  0  0  0  0  0
   10.2214  -15.8370   26.1574 C   0  0  0  0  0  0  0  0  0  0  0  0
    9.2739  -15.3285   27.2278 C   0  0  0  0  0  0  0  0  0  0  0  0
    8.4149  -14.2557   26.6839 C   0  0  0  0  0  0  0  0  0  0  0  0
    8.9253  -12.9925   26.3924 C   0  0  0  0  0  0  0  0  0  0  0  0
    8.1675  -11.9766   25.8775 C   0  0  0  0  0  0  0  0  0  0  0  0
    6.8413  -12.1711   25.6228 C   0  0  0  0  0  0  0  0  0  0  0  0
    6.2818  -13.4024   25.8920 C   0  0  0  0  0  0  0  0  0  0  0  0
    7.0606  -14.4151   26.4109 C   0  0  0  0  0  0  0  0  0  0  0  0
   11.2477  -16.7549   26.6500 O   0  0  0  0  0  0  0  0  0  0  0  0
   11.9760  -16.3857   27.6273 O   0  0  0  0  0  0  0  0  0  0  0  0
  2  1  1  6
  2  3  1  0
  3  4  1  0
  4  5  2  0
  4  9  1  0
  5  6  1  0
  6  7  2  0
  8  7  1  0
  9  8  2  0
 10 20  1  0
 10  2  1  0
 11 10  2  0
 13 12  1  0
 13 15  1  0
 14 13  2  0
 16 15  1  0
 16 17  1  0
 17 18  1  0
 19 18  1  6
 19 21  1  0
 19 20  1  0
 21 23  1  0
 22 21  2  0
 23 24  1  0
 24 32  1  0
 24 25  1  6
 25 26  1  0
 26 27  2  0
 27 28  1  0
 29 28  2  0
 30 29  1  0
 31 26  1  0
 31 30  2  0
 32 34  1  0
 33 32  2  0
M  END
$$$$
