FRF.pdb
     RDKit          3D

 34 35  0  0  1  0  0  0  0  0999 V2000
    5.7860  -17.8454   24.6790 N   0  0  0  0  0  0  0  0  0  0  0  0
    6.5532  -16.6201   24.5772 C   0  0  1  0  0  0  0  0  0  0  0  0
    6.2837  -15.8199   25.8245 C   0  0  0  0  0  0  0  0  0  0  0  0
    6.0167  -14.4188   25.5706 C   0  0  0  0  0  0  0  0  0  0  0  0
    6.7283  -13.7343   24.6160 C   0  0  0  0  0  0  0  0  0  0  0  0
    6.5006  -12.3936   24.3453 C   0  0  0  0  0  0  0  0  0  0  0  0
    5.5310  -11.7227   25.0536 C   0  0  0  0  0  0  0  0  0  0  0  0
    4.8029  -12.3769   26.0133 C   0  0  0  0  0  0  0  0  0  0  0  0
    5.0544  -13.7141   26.2593 C   0  0  0  0  0  0  0  0  0  0  0  0
    7.9482  -16.9685   24.3852 C   0  0  0  0  0  0  0  0  0  0  0  0
    8.4337  -17.9751   24.9613 O   0  0  0  0  0  0  0  0  0  0  0  0
    9.3510  -16.8744   18.0629 N   0  0  0  0  0  0  0  0  0  0  0  0
   10.2295  -17.9631   18.2433 C   0  0  0  0  0  0  0  0  0  0  0  0
   10.7795  -18.4877   17.1763 N   0  0  0  0  0  0  0  0  0  0  0  0
   10.4988  -18.4619   19.5386 N   0  0  0  0  0  0  0  0  0  0  0  0
    9.8499  -17.8942   20.6705 C   0  0  0  0  0  0  0  0  0  0  0  0
   10.0116  -16.3911   20.7551 C   0  0  0  0  0  0  0  0  0  0  0  0
   10.7689  -16.0809   22.0185 C   0  0  0  0  0  0  0  0  0  0  0  0
   10.1811  -16.7435   23.2334 C   0  0  2  0  0  0  0  0  0  0  0  0
    8.8660  -16.2400   23.5635 N   0  0  0  0  0  0  0  0  0  0  0  0
   11.0452  -16.6239   24.4242 C   0  0  0  0  0  0  0  0  0  0  0  0
   11.8000  -15.6220   24.5100 O   0  0  0  0  0  0  0  0  0  0  0  0
   11.4715  -19.2540   17.2420 N   0  0  0  0  0  0  0  0  0  0  0  0
   11.0857  -17.5533   25.4741 C   0  0  1  0  0  0  0  0  0  0  0  0
   12.1725  -17.5408   26.4262 C   0  0  0  0  0  0  0  0  0  0  0  0
   11.6563  -17.2535   27.8237 C   0  0  0  0  0  0  0  0  0  0  0  0
   11.2389  -15.8399   27.9350 C   0  0  0  0  0  0  0  0  0  0  0  0
   12.1657  -14.8227   28.1528 C   0  0  0  0  0  0  0  0  0  0  0  0
   11.8225  -13.5020   28.2502 C   0  0  0  0  0  0  0  0  0  0  0  0
   10.5173  -13.1219   28.1335 C   0  0  0  0  0  0  0  0  0  0  0  0
    9.5562  -14.0868   27.9169 C   0  0  0  0  0  0  0  0  0  0  0  0
    9.9202  -15.4134   27.8214 C   0  0  0  0  0  0  0  0  0  0  0  0
   12.9267  -18.7882   26.3087 O   0  0  0  0  0  0  0  0  0  0  0  0
   13.9882  -18.9248   26.9989 O   0  0  0  0  0  0  0  0  0  0  0  0
  2  1  1  1
  2  3  1  0
  3  4  1  0
  4  5  2  0
  4  9  1  0
  5  6  1  0
  6  7  2  0
  8  7  1  0
  9  8  2  0
 10 20  1  0
 10  2  1  0
 11 10  2  0
 13 12  1  0
 13 15  1  0
 14 13  2  0
 16 15  1  0
 16 17  1  0
 17 18  1  0
 19 18  1  6
 19 21  1  0
 19 20  1  0
 21 23  1  0
 22 21  2  0
 23 24  1  0
 24 32  1  0
 24 25  1  6
 25 26  1  0
 26 27  2  0
 27 28  1  0
 29 28  2  0
 30 29  1  0
 31 26  1  0
 31 30  2  0
 32 34  1  0
 33 32  2  0
M  END
$$$$
