MEK.pdb
     RDKit          3D

 27 26  0  0  1  0  0  0  0  0999 V2000
    7.6482  -12.7394   21.9791 C   0  0  0  0  0  0  0  0  0  0  0  0
    7.9377  -12.4224   20.2014 S   0  0  0  0  0  0  0  0  0  0  0  0
    7.2374  -13.8557   19.3161 C   0  0  0  0  0  0  0  0  0  0  0  0
    7.7197  -15.1353   19.9345 C   0  0  0  0  0  0  0  0  0  0  0  0
    9.2338  -15.1804   19.8691 C   0  0  2  0  0  0  0  0  0  0  0  0
    9.6103  -15.2330   18.4420 N   0  0  0  0  0  0  0  0  0  0  0  0
    9.8043  -16.3972   20.5237 C   0  0  0  0  0  0  0  0  0  0  0  0
    9.4384  -16.6842   21.7130 O   0  0  0  0  0  0  0  0  0  0  0  0
   10.7285  -17.2518   19.8969 N   0  0  0  0  0  0  0  0  0  0  0  0
   11.2582  -18.4950   20.4603 C   0  0  1  0  0  0  0  0  0  0  0  0
   12.2740  -19.0629   19.5031 C   0  0  0  0  0  0  0  0  0  0  0  0
   12.9397  -20.3180   19.9381 C   0  0  0  0  0  0  0  0  0  0  0  0
   13.8901  -20.6989   18.8393 C   0  0  0  0  0  0  0  0  0  0  0  0
   15.1099  -20.8244   19.0308 O   0  0  0  0  0  0  0  0  0  0  0  0
   11.8233  -18.1948   21.7903 C   0  0  0  0  0  0  0  0  0  0  0  0
   12.5222  -17.1359   21.9861 O   0  0  0  0  0  0  0  0  0  0  0  0
   13.3540  -20.9107   17.5761 O   0  0  0  0  0  0  0  0  0  0  0  0
   11.6736  -18.9859   22.9565 N   0  0  0  0  0  0  0  0  0  0  0  0
   12.2544  -18.6108   24.2315 C   0  0  1  0  0  0  0  0  0  0  0  0
   11.4841  -19.1988   25.3905 C   0  0  0  0  0  0  0  0  0  0  0  0
   12.1373  -19.0337   26.7238 C   0  0  0  0  0  0  0  0  0  0  0  0
   11.3064  -19.8466   27.7192 C   0  0  0  0  0  0  0  0  0  0  0  0
   11.9453  -19.7580   29.1056 C   0  0  0  0  0  0  0  0  0  0  0  0
   11.0884  -20.4980   30.0106 N   0  0  0  0  0  0  0  0  0  0  0  0
   13.6805  -18.9778   24.2498 C   0  0  0  0  0  0  0  0  0  0  0  0
   14.6871  -18.2029   24.8030 O   0  0  0  0  0  0  0  0  0  0  0  0
   14.0448  -20.0657   23.7351 O   0  0  0  0  0  0  0  0  0  0  0  0
  2  1  1  0
  3  2  1  0
  4  3  1  0
  5  4  1  0
  5  6  1  6
  7  8  2  0
  7  5  1  0
  9  7  1  0
 10  9  1  0
 11 12  1  0
 10 11  1  6
 13 14  2  0
 13 12  1  0
 15 10  1  0
 15 16  2  0
 17 13  1  0
 18 15  1  0
 19 20  1  1
 19 18  1  0
 21 20  1  0
 22 21  1  0
 23 22  1  0
 23 24  1  0
 25 19  1  0
 26 25  1  0
 27 25  2  0
M  END
$$$$
