MEK.pdb
     RDKit          3D

 27 26  0  0  1  0  0  0  0  0999 V2000
    8.1260  -11.5858   20.7856 C   0  0  0  0  0  0  0  0  0  0  0  0
    7.7289  -12.4825   19.2419 S   0  0  0  0  0  0  0  0  0  0  0  0
    6.7096  -13.9112   19.7402 C   0  0  0  0  0  0  0  0  0  0  0  0
    7.3252  -14.6025   20.9214 C   0  0  0  0  0  0  0  0  0  0  0  0
    7.8665  -15.9495   20.4837 C   0  0  2  0  0  0  0  0  0  0  0  0
    6.7085  -16.7914   20.1214 N   0  0  0  0  0  0  0  0  0  0  0  0
    8.6058  -16.6569   21.5736 C   0  0  0  0  0  0  0  0  0  0  0  0
    7.9372  -17.2676   22.4739 O   0  0  0  0  0  0  0  0  0  0  0  0
   10.0088  -16.6889   21.6626 N   0  0  0  0  0  0  0  0  0  0  0  0
   10.7814  -17.3534   22.7137 C   0  0  1  0  0  0  0  0  0  0  0  0
   12.1184  -17.7559   22.1471 C   0  0  0  0  0  0  0  0  0  0  0  0
   12.0892  -18.8411   21.1326 C   0  0  0  0  0  0  0  0  0  0  0  0
   13.4911  -18.9738   20.6106 C   0  0  0  0  0  0  0  0  0  0  0  0
   14.4825  -18.6407   21.2791 O   0  0  0  0  0  0  0  0  0  0  0  0
   10.8946  -16.4281   23.8580 C   0  0  0  0  0  0  0  0  0  0  0  0
   11.1265  -15.1787   23.6754 O   0  0  0  0  0  0  0  0  0  0  0  0
   13.6502  -19.4902   19.3316 O   0  0  0  0  0  0  0  0  0  0  0  0
   10.7652  -16.7756   25.2258 N   0  0  0  0  0  0  0  0  0  0  0  0
   10.3626  -15.8176   26.2377 C   0  0  1  0  0  0  0  0  0  0  0  0
    9.0826  -15.1102   25.8589 C   0  0  0  0  0  0  0  0  0  0  0  0
    8.5816  -14.1367   26.8752 C   0  0  0  0  0  0  0  0  0  0  0  0
    7.3135  -13.5107   26.2903 C   0  0  0  0  0  0  0  0  0  0  0  0
    6.8002  -12.4248   27.2365 C   0  0  0  0  0  0  0  0  0  0  0  0
    5.5340  -11.9657   26.7010 N   0  0  0  0  0  0  0  0  0  0  0  0
   10.2773  -16.4894   27.5454 C   0  0  0  0  0  0  0  0  0  0  0  0
   10.4333  -17.8519   27.7436 O   0  0  0  0  0  0  0  0  0  0  0  0
   10.0475  -15.8072   28.5764 O   0  0  0  0  0  0  0  0  0  0  0  0
  2  1  1  0
  3  2  1  0
  4  3  1  0
  5  4  1  0
  5  6  1  1
  7  8  2  0
  7  5  1  0
  9  7  1  0
 10  9  1  0
 11 12  1  0
 10 11  1  6
 13 14  2  0
 13 12  1  0
 15 10  1  0
 15 16  2  0
 17 13  1  0
 18 15  1  0
 19 20  1  6
 19 18  1  0
 21 20  1  0
 22 21  1  0
 23 22  1  0
 23 24  1  0
 25 19  1  0
 26 25  1  0
 27 25  2  0
M  END
$$$$
