MEK.pdb
     RDKit          3D

 27 26  0  0  1  0  0  0  0  0999 V2000
    8.0404  -11.6890   27.1127 C   0  0  0  0  0  0  0  0  0  0  0  0
    6.9067  -11.8195   25.6837 S   0  0  0  0  0  0  0  0  0  0  0  0
    6.1463  -13.4741   25.7966 C   0  0  0  0  0  0  0  0  0  0  0  0
    7.2083  -14.5343   25.8158 C   0  0  0  0  0  0  0  0  0  0  0  0
    7.0504  -15.4196   24.5951 C   0  0  2  0  0  0  0  0  0  0  0  0
    5.8072  -16.1966   24.7740 N   0  0  0  0  0  0  0  0  0  0  0  0
    8.1687  -16.4001   24.4439 C   0  0  0  0  0  0  0  0  0  0  0  0
    8.1989  -17.4211   25.2103 O   0  0  0  0  0  0  0  0  0  0  0  0
    9.1974  -16.2605   23.4955 N   0  0  0  0  0  0  0  0  0  0  0  0
   10.2939  -17.2066   23.2816 C   0  0  1  0  0  0  0  0  0  0  0  0
   11.0815  -16.7660   22.0748 C   0  0  0  0  0  0  0  0  0  0  0  0
   12.3529  -17.4956   21.8322 C   0  0  0  0  0  0  0  0  0  0  0  0
   12.3146  -17.9541   20.4025 C   0  0  0  0  0  0  0  0  0  0  0  0
   12.1211  -19.1398   20.0908 O   0  0  0  0  0  0  0  0  0  0  0  0
   11.1058  -17.2580   24.5131 C   0  0  0  0  0  0  0  0  0  0  0  0
   11.5464  -16.1823   25.0579 O   0  0  0  0  0  0  0  0  0  0  0  0
   12.5063  -16.9935   19.4185 O   0  0  0  0  0  0  0  0  0  0  0  0
   11.4788  -18.4306   25.2161 N   0  0  0  0  0  0  0  0  0  0  0  0
   12.2699  -18.3913   26.4312 C   0  0  1  0  0  0  0  0  0  0  0  0
   11.8023  -19.4186   27.4353 C   0  0  0  0  0  0  0  0  0  0  0  0
   12.6429  -19.5180   28.6662 C   0  0  0  0  0  0  0  0  0  0  0  0
   11.9520  -20.5284   29.5848 C   0  0  0  0  0  0  0  0  0  0  0  0
   12.7782  -20.7037   30.8594 C   0  0  0  0  0  0  0  0  0  0  0  0
   12.0109  -21.5595   31.7425 N   0  0  0  0  0  0  0  0  0  0  0  0
   13.6967  -18.5313   26.0944 C   0  0  0  0  0  0  0  0  0  0  0  0
   14.7277  -17.8656   26.7375 O   0  0  0  0  0  0  0  0  0  0  0  0
   14.0382  -19.3022   25.1615 O   0  0  0  0  0  0  0  0  0  0  0  0
  2  1  1  0
  3  2  1  0
  4  3  1  0
  5  4  1  0
  5  6  1  1
  7  8  2  0
  7  5  1  0
  9  7  1  0
 10  9  1  0
 11 12  1  0
 10 11  1  6
 13 14  2  0
 13 12  1  0
 15 10  1  0
 15 16  2  0
 17 13  1  0
 18 15  1  0
 19 20  1  1
 19 18  1  0
 21 20  1  0
 22 21  1  0
 23 22  1  0
 23 24  1  0
 25 19  1  0
 26 25  1  0
 27 25  2  0
M  END
$$$$
