MEK.pdb
     RDKit          3D

 27 26  0  0  1  0  0  0  0  0999 V2000
    7.0028  -12.8199   27.5536 C   0  0  0  0  0  0  0  0  0  0  0  0
    6.8330  -11.9141   25.9740 S   0  0  0  0  0  0  0  0  0  0  0  0
    5.9174  -13.0261   24.8544 C   0  0  0  0  0  0  0  0  0  0  0  0
    6.6586  -14.3201   24.6860 C   0  0  0  0  0  0  0  0  0  0  0  0
    7.8166  -14.1100   23.7300 C   0  0  2  0  0  0  0  0  0  0  0  0
    7.2493  -13.9988   22.3709 N   0  0  0  0  0  0  0  0  0  0  0  0
    8.7727  -15.2591   23.7192 C   0  0  0  0  0  0  0  0  0  0  0  0
    9.0861  -15.8084   24.8285 O   0  0  0  0  0  0  0  0  0  0  0  0
    9.3501  -15.7744   22.5452 N   0  0  0  0  0  0  0  0  0  0  0  0
   10.3230  -16.8666   22.4819 C   0  0  1  0  0  0  0  0  0  0  0  0
   10.6405  -17.1453   21.0355 C   0  0  0  0  0  0  0  0  0  0  0  0
   11.6495  -18.2079   20.7894 C   0  0  0  0  0  0  0  0  0  0  0  0
   11.7746  -18.3392   19.2985 C   0  0  0  0  0  0  0  0  0  0  0  0
   12.4872  -17.5800   18.6229 O   0  0  0  0  0  0  0  0  0  0  0  0
   11.5091  -16.4740   23.2678 C   0  0  0  0  0  0  0  0  0  0  0  0
   12.1211  -15.3706   23.0313 O   0  0  0  0  0  0  0  0  0  0  0  0
   11.0547  -19.3552   18.6842 O   0  0  0  0  0  0  0  0  0  0  0  0
   12.0899  -17.2165   24.3259 N   0  0  0  0  0  0  0  0  0  0  0  0
   13.2075  -16.7183   25.1046 C   0  0  1  0  0  0  0  0  0  0  0  0
   13.0991  -17.1198   26.5570 C   0  0  0  0  0  0  0  0  0  0  0  0
   12.3485  -16.1569   27.4178 C   0  0  0  0  0  0  0  0  0  0  0  0
   12.3601  -16.7382   28.8334 C   0  0  0  0  0  0  0  0  0  0  0  0
   11.6995  -15.7488   29.7941 C   0  0  0  0  0  0  0  0  0  0  0  0
   11.6858  -16.3774   31.1001 N   0  0  0  0  0  0  0  0  0  0  0  0
   14.4712  -17.1527   24.4858 C   0  0  0  0  0  0  0  0  0  0  0  0
   15.7029  -16.5579   24.7071 O   0  0  0  0  0  0  0  0  0  0  0  0
   14.4675  -18.1303   23.6948 O   0  0  0  0  0  0  0  0  0  0  0  0
  2  1  1  0
  3  2  1  0
  4  3  1  0
  5  4  1  0
  5  6  1  6
  7  8  2  0
  7  5  1  0
  9  7  1  0
 10  9  1  0
 11 12  1  0
 10 11  1  6
 13 14  2  0
 13 12  1  0
 15 10  1  0
 15 16  2  0
 17 13  1  0
 18 15  1  0
 19 20  1  1
 19 18  1  0
 21 20  1  0
 22 21  1  0
 23 22  1  0
 23 24  1  0
 25 19  1  0
 26 25  1  0
 27 25  2  0
M  END
$$$$
