MEK.pdb
     RDKit          3D

 27 26  0  0  1  0  0  0  0  0999 V2000
    7.0914  -12.0794   25.9846 C   0  0  0  0  0  0  0  0  0  0  0  0
    7.3453  -13.2286   27.3844 S   0  0  0  0  0  0  0  0  0  0  0  0
    7.4212  -14.8988   26.6543 C   0  0  0  0  0  0  0  0  0  0  0  0
    6.4690  -15.0052   25.4992 C   0  0  0  0  0  0  0  0  0  0  0  0
    6.5177  -16.4145   24.9419 C   0  0  2  0  0  0  0  0  0  0  0  0
    6.1682  -17.3345   26.0431 N   0  0  0  0  0  0  0  0  0  0  0  0
    7.8793  -16.7979   24.4585 C   0  0  0  0  0  0  0  0  0  0  0  0
    8.6301  -17.4924   25.2231 O   0  0  0  0  0  0  0  0  0  0  0  0
    8.3834  -16.4346   23.1971 N   0  0  0  0  0  0  0  0  0  0  0  0
    9.7003  -16.7955   22.6691 C   0  0  1  0  0  0  0  0  0  0  0  0
    9.6817  -16.6261   21.1719 C   0  0  0  0  0  0  0  0  0  0  0  0
   10.9456  -16.9652   20.4682 C   0  0  0  0  0  0  0  0  0  0  0  0
   10.6631  -16.8346   18.9989 C   0  0  0  0  0  0  0  0  0  0  0  0
   10.4710  -15.7355   18.4552 O   0  0  0  0  0  0  0  0  0  0  0  0
   10.7112  -15.9494   23.3329 C   0  0  0  0  0  0  0  0  0  0  0  0
   10.3747  -14.8603   23.9234 O   0  0  0  0  0  0  0  0  0  0  0  0
   10.6216  -18.0031   18.2501 O   0  0  0  0  0  0  0  0  0  0  0  0
   12.1014  -16.2147   23.4053 N   0  0  0  0  0  0  0  0  0  0  0  0
   12.8857  -15.9388   24.5939 C   0  0  1  0  0  0  0  0  0  0  0  0
   12.2910  -16.5921   25.8193 C   0  0  0  0  0  0  0  0  0  0  0  0
   13.0976  -16.4333   27.0666 C   0  0  0  0  0  0  0  0  0  0  0  0
   12.2894  -17.0812   28.1931 C   0  0  0  0  0  0  0  0  0  0  0  0
   13.0510  -16.9387   29.5113 C   0  0  0  0  0  0  0  0  0  0  0  0
   12.2689  -17.6203   30.5237 N   0  0  0  0  0  0  0  0  0  0  0  0
   14.2861  -16.3307   24.3615 C   0  0  0  0  0  0  0  0  0  0  0  0
   15.3564  -15.4513   24.3313 O   0  0  0  0  0  0  0  0  0  0  0  0
   14.5651  -17.5423   24.1734 O   0  0  0  0  0  0  0  0  0  0  0  0
  2  1  1  0
  3  2  1  0
  4  3  1  0
  5  4  1  0
  5  6  1  1
  7  8  2  0
  7  5  1  0
  9  7  1  0
 10  9  1  0
 11 12  1  0
 10 11  1  6
 13 14  2  0
 13 12  1  0
 15 10  1  0
 15 16  2  0
 17 13  1  0
 18 15  1  0
 19 20  1  1
 19 18  1  0
 21 20  1  0
 22 21  1  0
 23 22  1  0
 23 24  1  0
 25 19  1  0
 26 25  1  0
 27 25  2  0
M  END
$$$$
