MEK.pdb
     RDKit          3D

 27 26  0  0  1  0  0  0  0  0999 V2000
    8.0337  -11.6545   26.4686 C   0  0  0  0  0  0  0  0  0  0  0  0
    6.8877  -12.9951   26.9524 S   0  0  0  0  0  0  0  0  0  0  0  0
    6.8389  -14.1474   25.5389 C   0  0  0  0  0  0  0  0  0  0  0  0
    7.4804  -13.5214   24.3351 C   0  0  0  0  0  0  0  0  0  0  0  0
    7.4465  -14.5071   23.1835 C   0  0  2  0  0  0  0  0  0  0  0  0
    6.0778  -15.0579   23.1171 N   0  0  0  0  0  0  0  0  0  0  0  0
    8.3791  -15.6586   23.3811 C   0  0  0  0  0  0  0  0  0  0  0  0
    7.9811  -16.6620   24.0631 O   0  0  0  0  0  0  0  0  0  0  0  0
    9.6812  -15.6994   22.8517 N   0  0  0  0  0  0  0  0  0  0  0  0
   10.5990  -16.8372   22.9324 C   0  0  1  0  0  0  0  0  0  0  0  0
   11.6430  -16.6909   21.8557 C   0  0  0  0  0  0  0  0  0  0  0  0
   12.6890  -17.7457   21.8233 C   0  0  0  0  0  0  0  0  0  0  0  0
   13.5411  -17.4634   20.6192 C   0  0  0  0  0  0  0  0  0  0  0  0
   14.6370  -16.8867   20.7023 O   0  0  0  0  0  0  0  0  0  0  0  0
   11.1729  -16.8715   24.2917 C   0  0  0  0  0  0  0  0  0  0  0  0
   11.5746  -15.7956   24.8653 O   0  0  0  0  0  0  0  0  0  0  0  0
   13.0577  -17.8743   19.3842 O   0  0  0  0  0  0  0  0  0  0  0  0
   11.3412  -18.0265   25.0956 N   0  0  0  0  0  0  0  0  0  0  0  0
   11.9451  -17.9765   26.4134 C   0  0  1  0  0  0  0  0  0  0  0  0
   11.2327  -18.8841   27.3887 C   0  0  0  0  0  0  0  0  0  0  0  0
   11.9623  -19.1202   28.6707 C   0  0  0  0  0  0  0  0  0  0  0  0
   11.1240  -20.1197   29.4708 C   0  0  0  0  0  0  0  0  0  0  0  0
   11.7028  -20.2550   30.8796 C   0  0  0  0  0  0  0  0  0  0  0  0
   10.9580  -21.3086   31.5400 N   0  0  0  0  0  0  0  0  0  0  0  0
   13.3840  -18.2711   26.3069 C   0  0  0  0  0  0  0  0  0  0  0  0
   13.9324  -19.2329   25.4739 O   0  0  0  0  0  0  0  0  0  0  0  0
   14.2009  -17.6217   27.0085 O   0  0  0  0  0  0  0  0  0  0  0  0
  2  1  1  0
  3  2  1  0
  4  3  1  0
  5  4  1  0
  5  6  1  1
  7  8  2  0
  7  5  1  0
  9  7  1  0
 10  9  1  0
 11 12  1  0
 10 11  1  6
 13 14  2  0
 13 12  1  0
 15 10  1  0
 15 16  2  0
 17 13  1  0
 18 15  1  0
 19 20  1  1
 19 18  1  0
 21 20  1  0
 22 21  1  0
 23 22  1  0
 23 24  1  0
 25 19  1  0
 26 25  1  0
 27 25  2  0
M  END
$$$$
