MEK.pdb
     RDKit          3D

 27 26  0  0  1  0  0  0  0  0999 V2000
    7.6941  -12.0219   20.6191 C   0  0  0  0  0  0  0  0  0  0  0  0
    6.8667  -13.1099   21.8340 S   0  0  0  0  0  0  0  0  0  0  0  0
    7.3506  -14.8128   21.3931 C   0  0  0  0  0  0  0  0  0  0  0  0
    8.2182  -14.8064   20.1685 C   0  0  0  0  0  0  0  0  0  0  0  0
    8.7471  -16.2065   19.9255 C   0  0  2  0  0  0  0  0  0  0  0  0
    7.5872  -17.0662   19.6146 N   0  0  0  0  0  0  0  0  0  0  0  0
    9.4198  -16.7866   21.1279 C   0  0  0  0  0  0  0  0  0  0  0  0
    8.9220  -17.8321   21.6663 O   0  0  0  0  0  0  0  0  0  0  0  0
   10.5813  -16.2415   21.7032 N   0  0  0  0  0  0  0  0  0  0  0  0
   11.4234  -16.8955   22.7065 C   0  0  1  0  0  0  0  0  0  0  0  0
   12.7648  -16.2093   22.7304 C   0  0  0  0  0  0  0  0  0  0  0  0
   13.7341  -16.7219   23.7331 C   0  0  0  0  0  0  0  0  0  0  0  0
   15.0167  -15.9740   23.5064 C   0  0  0  0  0  0  0  0  0  0  0  0
   15.6001  -15.9738   22.4109 O   0  0  0  0  0  0  0  0  0  0  0  0
   10.7231  -16.8388   24.0045 C   0  0  0  0  0  0  0  0  0  0  0  0
   10.3104  -15.7214   24.4829 O   0  0  0  0  0  0  0  0  0  0  0  0
   15.5427  -15.2681   24.5802 O   0  0  0  0  0  0  0  0  0  0  0  0
   10.4279  -17.9446   24.8402 N   0  0  0  0  0  0  0  0  0  0  0  0
    9.6726  -17.8103   26.0712 C   0  0  1  0  0  0  0  0  0  0  0  0
    8.4900  -18.7498   26.1059 C   0  0  0  0  0  0  0  0  0  0  0  0
    7.7090  -18.8196   24.8344 C   0  0  0  0  0  0  0  0  0  0  0  0
    6.6700  -19.9274   25.0219 C   0  0  0  0  0  0  0  0  0  0  0  0
    5.7758  -19.9999   23.7837 C   0  0  0  0  0  0  0  0  0  0  0  0
    4.8797  -21.1224   23.9783 N   0  0  0  0  0  0  0  0  0  0  0  0
   10.5734  -17.9847   27.2230 C   0  0  0  0  0  0  0  0  0  0  0  0
   10.2491  -17.6687   28.5325 O   0  0  0  0  0  0  0  0  0  0  0  0
   11.7266  -18.4513   27.0400 O   0  0  0  0  0  0  0  0  0  0  0  0
  2  1  1  0
  3  2  1  0
  4  3  1  0
  5  4  1  0
  5  6  1  1
  7  8  2  0
  7  5  1  0
  9  7  1  0
 10  9  1  0
 11 12  1  0
 10 11  1  1
 13 14  2  0
 13 12  1  0
 15 10  1  0
 15 16  2  0
 17 13  1  0
 18 15  1  0
 19 20  1  6
 19 18  1  0
 21 20  1  0
 22 21  1  0
 23 22  1  0
 23 24  1  0
 25 19  1  0
 26 25  1  0
 27 25  2  0
M  END
$$$$
