MEK.pdb
     RDKit          3D

 27 26  0  0  1  0  0  0  0  0999 V2000
    6.5879  -11.2831   26.8784 C   0  0  0  0  0  0  0  0  0  0  0  0
    7.2152  -12.4737   25.6401 S   0  0  0  0  0  0  0  0  0  0  0  0
    5.9410  -13.7722   25.5029 C   0  0  0  0  0  0  0  0  0  0  0  0
    6.5117  -14.9932   24.8426 C   0  0  0  0  0  0  0  0  0  0  0  0
    7.8917  -14.6692   24.3043 C   0  0  2  0  0  0  0  0  0  0  0  0
    7.7173  -14.1516   22.9321 N   0  0  0  0  0  0  0  0  0  0  0  0
    8.7744  -15.8724   24.2160 C   0  0  0  0  0  0  0  0  0  0  0  0
    8.7505  -16.7236   25.1675 O   0  0  0  0  0  0  0  0  0  0  0  0
    9.6361  -16.1222   23.1332 N   0  0  0  0  0  0  0  0  0  0  0  0
   10.4647  -17.3169   22.9610 C   0  0  1  0  0  0  0  0  0  0  0  0
   10.8854  -17.4070   21.5169 C   0  0  0  0  0  0  0  0  0  0  0  0
   11.7325  -18.5753   21.1631 C   0  0  0  0  0  0  0  0  0  0  0  0
   12.0573  -18.4392   19.7031 C   0  0  0  0  0  0  0  0  0  0  0  0
   11.4203  -17.6869   18.9489 O   0  0  0  0  0  0  0  0  0  0  0  0
   11.6076  -17.2234   23.8902 C   0  0  0  0  0  0  0  0  0  0  0  0
   12.2257  -16.1120   24.0657 O   0  0  0  0  0  0  0  0  0  0  0  0
   13.1125  -19.1953   19.2104 O   0  0  0  0  0  0  0  0  0  0  0  0
   12.1377  -18.2833   24.6674 N   0  0  0  0  0  0  0  0  0  0  0  0
   13.2674  -18.1050   25.5596 C   0  0  1  0  0  0  0  0  0  0  0  0
   13.1571  -18.9848   26.7827 C   0  0  0  0  0  0  0  0  0  0  0  0
   11.9483  -18.7368   27.6247 C   0  0  0  0  0  0  0  0  0  0  0  0
   11.9438  -19.8169   28.7087 C   0  0  0  0  0  0  0  0  0  0  0  0
   10.6747  -19.6855   29.5514 C   0  0  0  0  0  0  0  0  0  0  0  0
   10.6384  -20.8322   30.4372 N   0  0  0  0  0  0  0  0  0  0  0  0
   14.5204  -18.3173   24.8156 C   0  0  0  0  0  0  0  0  0  0  0  0
   15.7578  -17.8252   25.1985 O   0  0  0  0  0  0  0  0  0  0  0  0
   14.5012  -18.9886   23.7525 O   0  0  0  0  0  0  0  0  0  0  0  0
  2  1  1  0
  3  2  1  0
  4  3  1  0
  5  4  1  0
  5  6  1  6
  7  8  2  0
  7  5  1  0
  9  7  1  0
 10  9  1  0
 11 12  1  0
 10 11  1  6
 13 14  2  0
 13 12  1  0
 15 10  1  0
 15 16  2  0
 17 13  1  0
 18 15  1  0
 19 20  1  1
 19 18  1  0
 21 20  1  0
 22 21  1  0
 23 22  1  0
 23 24  1  0
 25 19  1  0
 26 25  1  0
 27 25  2  0
M  END
$$$$
