MEK.pdb
     RDKit          3D

 27 26  0  0  1  0  0  0  0  0999 V2000
    7.4612  -12.5039   21.3123 C   0  0  0  0  0  0  0  0  0  0  0  0
    6.5388  -12.7003   19.7453 S   0  0  0  0  0  0  0  0  0  0  0  0
    7.3903  -14.0258   18.8252 C   0  0  0  0  0  0  0  0  0  0  0  0
    8.0330  -14.9904   19.7784 C   0  0  0  0  0  0  0  0  0  0  0  0
    8.6673  -16.1205   18.9912 C   0  0  2  0  0  0  0  0  0  0  0  0
    7.5758  -16.8545   18.3197 N   0  0  0  0  0  0  0  0  0  0  0  0
    9.3888  -17.0976   19.8626 C   0  0  0  0  0  0  0  0  0  0  0  0
    8.7513  -18.1094   20.3105 O   0  0  0  0  0  0  0  0  0  0  0  0
   10.7426  -16.9645   20.2185 N   0  0  0  0  0  0  0  0  0  0  0  0
   11.4853  -17.8675   21.0996 C   0  0  1  0  0  0  0  0  0  0  0  0
   12.9496  -17.5207   21.0209 C   0  0  0  0  0  0  0  0  0  0  0  0
   13.8428  -18.2806   21.9332 C   0  0  0  0  0  0  0  0  0  0  0  0
   15.2484  -17.8909   21.5751 C   0  0  0  0  0  0  0  0  0  0  0  0
   15.5888  -17.6322   20.4099 O   0  0  0  0  0  0  0  0  0  0  0  0
   10.9343  -17.7386   22.4628 C   0  0  0  0  0  0  0  0  0  0  0  0
   10.7213  -16.5839   22.9815 O   0  0  0  0  0  0  0  0  0  0  0  0
   16.1760  -17.8273   22.6063 O   0  0  0  0  0  0  0  0  0  0  0  0
   10.5845  -18.8083   23.3241 N   0  0  0  0  0  0  0  0  0  0  0  0
   10.1050  -18.5942   24.6761 C   0  0  1  0  0  0  0  0  0  0  0  0
    8.9637  -19.5232   25.0174 C   0  0  0  0  0  0  0  0  0  0  0  0
    8.4850  -19.4335   26.4297 C   0  0  0  0  0  0  0  0  0  0  0  0
    7.3694  -20.4706   26.5779 C   0  0  0  0  0  0  0  0  0  0  0  0
    6.7762  -20.3809   27.9843 C   0  0  0  0  0  0  0  0  0  0  0  0
    5.6041  -21.2335   28.0006 N   0  0  0  0  0  0  0  0  0  0  0  0
   11.2301  -18.7023   25.6202 C   0  0  0  0  0  0  0  0  0  0  0  0
   12.1052  -19.7746   25.6846 O   0  0  0  0  0  0  0  0  0  0  0  0
   11.4396  -17.7723   26.4403 O   0  0  0  0  0  0  0  0  0  0  0  0
  2  1  1  0
  3  2  1  0
  4  3  1  0
  5  4  1  0
  5  6  1  1
  7  8  2  0
  7  5  1  0
  9  7  1  0
 10  9  1  0
 11 12  1  0
 10 11  1  1
 13 14  2  0
 13 12  1  0
 15 10  1  0
 15 16  2  0
 17 13  1  0
 18 15  1  0
 19 20  1  1
 19 18  1  0
 21 20  1  0
 22 21  1  0
 23 22  1  0
 23 24  1  0
 25 19  1  0
 26 25  1  0
 27 25  2  0
M  END
$$$$
