MEK.pdb
     RDKit          3D

 27 26  0  0  1  0  0  0  0  0999 V2000
    8.2927  -12.4261   27.7942 C   0  0  0  0  0  0  0  0  0  0  0  0
    7.0012  -12.0297   26.5616 S   0  0  0  0  0  0  0  0  0  0  0  0
    6.2305  -13.6214   26.1135 C   0  0  0  0  0  0  0  0  0  0  0  0
    7.2765  -14.6915   25.9986 C   0  0  0  0  0  0  0  0  0  0  0  0
    7.0420  -15.4825   24.7264 C   0  0  2  0  0  0  0  0  0  0  0  0
    5.7769  -16.2250   24.8979 N   0  0  0  0  0  0  0  0  0  0  0  0
    8.1158  -16.4895   24.4660 C   0  0  0  0  0  0  0  0  0  0  0  0
    8.1689  -17.5346   25.1978 O   0  0  0  0  0  0  0  0  0  0  0  0
    9.0781  -16.3495   23.4503 N   0  0  0  0  0  0  0  0  0  0  0  0
   10.1584  -17.2950   23.1633 C   0  0  1  0  0  0  0  0  0  0  0  0
   10.8614  -16.8552   21.9051 C   0  0  0  0  0  0  0  0  0  0  0  0
   12.0397  -17.6679   21.5065 C   0  0  0  0  0  0  0  0  0  0  0  0
   12.4934  -17.1364   20.1771 C   0  0  0  0  0  0  0  0  0  0  0  0
   12.8587  -15.9604   20.0223 O   0  0  0  0  0  0  0  0  0  0  0  0
   11.0524  -17.3441   24.3367 C   0  0  0  0  0  0  0  0  0  0  0  0
   11.5411  -16.2685   24.8389 O   0  0  0  0  0  0  0  0  0  0  0  0
   12.4921  -18.0165   19.1032 O   0  0  0  0  0  0  0  0  0  0  0  0
   11.4601  -18.5143   25.0244 N   0  0  0  0  0  0  0  0  0  0  0  0
   12.3615  -18.4756   26.1601 C   0  0  1  0  0  0  0  0  0  0  0  0
   11.9872  -19.5003   27.2051 C   0  0  0  0  0  0  0  0  0  0  0  0
   12.9231  -19.5797   28.3667 C   0  0  0  0  0  0  0  0  0  0  0  0
   12.3157  -20.5857   29.3470 C   0  0  0  0  0  0  0  0  0  0  0  0
   13.2431  -20.7434   30.5526 C   0  0  0  0  0  0  0  0  0  0  0  0
   12.5195  -21.5194   31.5401 N   0  0  0  0  0  0  0  0  0  0  0  0
   13.7501  -18.6199   25.6915 C   0  0  0  0  0  0  0  0  0  0  0  0
   14.8515  -18.0381   26.2983 O   0  0  0  0  0  0  0  0  0  0  0  0
   13.9883  -19.3141   24.6704 O   0  0  0  0  0  0  0  0  0  0  0  0
  2  1  1  0
  3  2  1  0
  4  3  1  0
  5  4  1  0
  5  6  1  1
  7  8  2  0
  7  5  1  0
  9  7  1  0
 10  9  1  0
 11 12  1  0
 10 11  1  6
 13 14  2  0
 13 12  1  0
 15 10  1  0
 15 16  2  0
 17 13  1  0
 18 15  1  0
 19 20  1  1
 19 18  1  0
 21 20  1  0
 22 21  1  0
 23 22  1  0
 23 24  1  0
 25 19  1  0
 26 25  1  0
 27 25  2  0
M  END
$$$$
