MEK.pdb
     RDKit          3D

 27 26  0  0  1  0  0  0  0  0999 V2000
    9.6347  -12.3404   19.0646 C   0  0  0  0  0  0  0  0  0  0  0  0
    7.8616  -12.2286   19.4984 S   0  0  0  0  0  0  0  0  0  0  0  0
    7.1141  -13.8043   18.9626 C   0  0  0  0  0  0  0  0  0  0  0  0
    7.2645  -14.8427   20.0356 C   0  0  0  0  0  0  0  0  0  0  0  0
    8.6360  -14.7102   20.6683 C   0  0  2  0  0  0  0  0  0  0  0  0
    9.6267  -15.1495   19.6650 N   0  0  0  0  0  0  0  0  0  0  0  0
    8.8046  -15.5830   21.8702 C   0  0  0  0  0  0  0  0  0  0  0  0
    8.0221  -15.4164   22.8655 O   0  0  0  0  0  0  0  0  0  0  0  0
    9.7843  -16.5871   21.9661 N   0  0  0  0  0  0  0  0  0  0  0  0
   10.0110  -17.4488   23.1278 C   0  0  1  0  0  0  0  0  0  0  0  0
   11.2007  -18.3303   22.8484 C   0  0  0  0  0  0  0  0  0  0  0  0
   11.5715  -19.2766   23.9323 C   0  0  0  0  0  0  0  0  0  0  0  0
   12.0033  -20.5476   23.2586 C   0  0  0  0  0  0  0  0  0  0  0  0
   11.2086  -21.2750   22.6423 O   0  0  0  0  0  0  0  0  0  0  0  0
   10.1963  -16.5876   24.3120 C   0  0  0  0  0  0  0  0  0  0  0  0
   11.1596  -15.7408   24.3673 O   0  0  0  0  0  0  0  0  0  0  0  0
   13.3451  -20.8934   23.3470 O   0  0  0  0  0  0  0  0  0  0  0  0
    9.3815  -16.5795   25.4714 N   0  0  0  0  0  0  0  0  0  0  0  0
    9.6611  -15.7302   26.6135 C   0  0  1  0  0  0  0  0  0  0  0  0
    8.4766  -14.8616   26.9666 C   0  0  0  0  0  0  0  0  0  0  0  0
    8.2319  -13.7257   26.0278 C   0  0  0  0  0  0  0  0  0  0  0  0
    6.9941  -12.9908   26.5469 C   0  0  0  0  0  0  0  0  0  0  0  0
    6.6844  -11.8071   25.6298 C   0  0  0  0  0  0  0  0  0  0  0  0
    5.4805  -11.1831   26.1420 N   0  0  0  0  0  0  0  0  0  0  0  0
   10.1177  -16.5582   27.7425 C   0  0  0  0  0  0  0  0  0  0  0  0
   10.1924  -17.9417   27.7261 O   0  0  0  0  0  0  0  0  0  0  0  0
   10.4724  -16.0016   28.8128 O   0  0  0  0  0  0  0  0  0  0  0  0
  2  1  1  0
  3  2  1  0
  4  3  1  0
  5  4  1  0
  5  6  1  6
  7  8  2  0
  7  5  1  0
  9  7  1  0
 10  9  1  0
 11 12  1  0
 10 11  1  6
 13 14  2  0
 13 12  1  0
 15 10  1  0
 15 16  2  0
 17 13  1  0
 18 15  1  0
 19 20  1  1
 19 18  1  0
 21 20  1  0
 22 21  1  0
 23 22  1  0
 23 24  1  0
 25 19  1  0
 26 25  1  0
 27 25  2  0
M  END
$$$$
