MEK.pdb
     RDKit          3D

 27 26  0  0  1  0  0  0  0  0999 V2000
    8.3295  -11.5599   26.5190 C   0  0  0  0  0  0  0  0  0  0  0  0
    6.7398  -12.2118   27.1452 S   0  0  0  0  0  0  0  0  0  0  0  0
    6.2048  -13.4717   25.9391 C   0  0  0  0  0  0  0  0  0  0  0  0
    7.2976  -14.4760   25.7167 C   0  0  0  0  0  0  0  0  0  0  0  0
    6.8433  -15.4851   24.6803 C   0  0  2  0  0  0  0  0  0  0  0  0
    5.7271  -16.2501   25.2720 N   0  0  0  0  0  0  0  0  0  0  0  0
    7.9126  -16.4662   24.3216 C   0  0  0  0  0  0  0  0  0  0  0  0
    8.0594  -17.5077   25.0457 O   0  0  0  0  0  0  0  0  0  0  0  0
    8.7725  -16.3056   23.2206 N   0  0  0  0  0  0  0  0  0  0  0  0
    9.8512  -17.2197   22.8409 C   0  0  1  0  0  0  0  0  0  0  0  0
   10.3756  -16.8103   21.4888 C   0  0  0  0  0  0  0  0  0  0  0  0
   11.4930  -17.6310   20.9544 C   0  0  0  0  0  0  0  0  0  0  0  0
   11.8057  -17.0874   19.5897 C   0  0  0  0  0  0  0  0  0  0  0  0
   11.5662  -17.7234   18.5511 O   0  0  0  0  0  0  0  0  0  0  0  0
   10.8825  -17.1800   23.8960 C   0  0  0  0  0  0  0  0  0  0  0  0
   11.2993  -16.0617   24.3689 O   0  0  0  0  0  0  0  0  0  0  0  0
   12.3830  -15.8265   19.5214 O   0  0  0  0  0  0  0  0  0  0  0  0
   11.5068  -18.3035   24.4928 N   0  0  0  0  0  0  0  0  0  0  0  0
   12.5087  -18.1757   25.5338 C   0  0  1  0  0  0  0  0  0  0  0  0
   12.4161  -19.2999   26.5388 C   0  0  0  0  0  0  0  0  0  0  0  0
   12.3367  -18.8597   27.9641 C   0  0  0  0  0  0  0  0  0  0  0  0
   12.1203  -20.1240   28.7988 C   0  0  0  0  0  0  0  0  0  0  0  0
   12.1361  -19.7609   30.2840 C   0  0  0  0  0  0  0  0  0  0  0  0
   11.9968  -21.0014   31.0208 N   0  0  0  0  0  0  0  0  0  0  0  0
   13.8436  -18.0668   24.9215 C   0  0  0  0  0  0  0  0  0  0  0  0
   14.9326  -17.4443   25.5101 O   0  0  0  0  0  0  0  0  0  0  0  0
   14.0435  -18.5634   23.7837 O   0  0  0  0  0  0  0  0  0  0  0  0
  2  1  1  0
  3  2  1  0
  4  3  1  0
  5  4  1  0
  5  6  1  1
  7  8  2  0
  7  5  1  0
  9  7  1  0
 10  9  1  0
 11 12  1  0
 10 11  1  6
 13 14  2  0
 13 12  1  0
 15 10  1  0
 15 16  2  0
 17 13  1  0
 18 15  1  0
 19 20  1  1
 19 18  1  0
 21 20  1  0
 22 21  1  0
 23 22  1  0
 23 24  1  0
 25 19  1  0
 26 25  1  0
 27 25  2  0
M  END
$$$$
