MEK.pdb
     RDKit          3D

 27 26  0  0  1  0  0  0  0  0999 V2000
    8.3662  -12.2899   27.7245 C   0  0  0  0  0  0  0  0  0  0  0  0
    7.4556  -12.2539   26.1390 S   0  0  0  0  0  0  0  0  0  0  0  0
    7.2567  -13.9962   25.6355 C   0  0  0  0  0  0  0  0  0  0  0  0
    6.5963  -14.0766   24.2902 C   0  0  0  0  0  0  0  0  0  0  0  0
    6.3808  -15.5330   23.9275 C   0  0  2  0  0  0  0  0  0  0  0  0
    5.6264  -16.1543   25.0348 N   0  0  0  0  0  0  0  0  0  0  0  0
    7.6628  -16.2886   23.7850 C   0  0  0  0  0  0  0  0  0  0  0  0
    8.0195  -17.0768   24.7243 O   0  0  0  0  0  0  0  0  0  0  0  0
    8.5045  -16.1802   22.6639 N   0  0  0  0  0  0  0  0  0  0  0  0
    9.6776  -17.0137   22.3947 C   0  0  1  0  0  0  0  0  0  0  0  0
   10.0449  -16.8727   20.9401 C   0  0  0  0  0  0  0  0  0  0  0  0
    9.1619  -17.5836   19.9796 C   0  0  0  0  0  0  0  0  0  0  0  0
    9.6016  -17.1642   18.6062 C   0  0  0  0  0  0  0  0  0  0  0  0
   10.6832  -17.5259   18.1164 O   0  0  0  0  0  0  0  0  0  0  0  0
   10.7602  -16.5950   23.3064 C   0  0  0  0  0  0  0  0  0  0  0  0
   11.0619  -15.3551   23.4461 O   0  0  0  0  0  0  0  0  0  0  0  0
    8.7460  -16.3425   17.8847 O   0  0  0  0  0  0  0  0  0  0  0  0
   11.5572  -17.4546   24.1027 N   0  0  0  0  0  0  0  0  0  0  0  0
   12.6156  -16.9601   24.9624 C   0  0  1  0  0  0  0  0  0  0  0  0
   12.8946  -17.9074   26.1057 C   0  0  0  0  0  0  0  0  0  0  0  0
   11.7290  -18.1641   27.0040 C   0  0  0  0  0  0  0  0  0  0  0  0
   12.1947  -19.1912   28.0385 C   0  0  0  0  0  0  0  0  0  0  0  0
   11.0682  -19.4502   29.0396 C   0  0  0  0  0  0  0  0  0  0  0  0
   11.5587  -20.4420   29.9759 N   0  0  0  0  0  0  0  0  0  0  0  0
   13.8128  -16.6735   24.1542 C   0  0  0  0  0  0  0  0  0  0  0  0
   14.1950  -17.3880   23.0302 O   0  0  0  0  0  0  0  0  0  0  0  0
   14.5638  -15.7190   24.4799 O   0  0  0  0  0  0  0  0  0  0  0  0
  2  1  1  0
  3  2  1  0
  4  3  1  0
  5  4  1  0
  5  6  1  1
  7  8  2  0
  7  5  1  0
  9  7  1  0
 10  9  1  0
 11 12  1  0
 10 11  1  6
 13 14  2  0
 13 12  1  0
 15 10  1  0
 15 16  2  0
 17 13  1  0
 18 15  1  0
 19 20  1  1
 19 18  1  0
 21 20  1  0
 22 21  1  0
 23 22  1  0
 23 24  1  0
 25 19  1  0
 26 25  1  0
 27 25  2  0
M  END
$$$$
