QLI.pdb
     RDKit          3D

 26 25  0  0  1  0  0  0  0  0999 V2000
   18.7380  -15.7717  -15.0899 N   0  0  0  0  0  0  0  0  0  0  0  0
   18.1341  -15.3813  -16.3031 C   0  0  0  0  0  0  0  0  0  0  0  0
   17.2096  -16.1337  -16.7522 O   0  0  0  0  0  0  0  0  0  0  0  0
   18.5037  -14.1870  -17.0487 C   0  0  0  0  0  0  0  0  0  0  0  0
   19.5652  -13.3205  -16.4720 C   0  0  0  0  0  0  0  0  0  0  0  0
   19.8323  -12.0463  -17.2310 C   0  0  2  0  0  0  0  0  0  0  0  0
   20.3658  -12.3377  -18.5240 N   0  0  0  0  0  0  0  0  0  0  0  0
   20.7592  -11.1702  -16.4283 C   0  0  0  0  0  0  0  0  0  0  0  0
   20.4512  -10.7038  -15.3057 O   0  0  0  0  0  0  0  0  0  0  0  0
   26.0643  -10.7263  -14.6221 C   0  0  0  0  0  0  0  0  0  0  0  0
   25.5638   -9.9323  -15.8033 C   0  0  1  0  0  0  0  0  0  0  0  0
   26.7468   -9.8714  -16.7839 C   0  0  0  0  0  0  0  0  0  0  0  0
   24.4455  -10.5552  -16.5377 C   0  0  0  0  0  0  0  0  0  0  0  0
   23.0562  -10.1228  -16.2015 C   0  0  2  0  0  0  0  0  0  0  0  0
   22.0461  -10.8451  -16.9445 N   0  0  0  0  0  0  0  0  0  0  0  0
   22.8281   -8.6807  -16.1077 C   0  0  0  0  0  0  0  0  0  0  0  0
   23.5353   -7.9769  -15.3562 O   0  0  0  0  0  0  0  0  0  0  0  0
   20.6945   -6.0264  -20.4449 C   0  0  0  0  0  0  0  0  0  0  0  0
   21.5391   -6.4198  -19.2650 C   0  0  0  0  0  0  0  0  0  0  0  0
   20.8473   -6.0959  -17.9492 C   0  0  2  0  0  0  0  0  0  0  0  0
   20.7728   -4.5911  -17.8424 C   0  0  0  0  0  0  0  0  0  0  0  0
   21.6271   -6.6188  -16.7721 C   0  0  2  0  0  0  0  0  0  0  0  0
   21.8044   -8.0675  -16.8676 N   0  0  0  0  0  0  0  0  0  0  0  0
   20.9081   -6.2443  -15.5350 C   0  0  0  0  0  0  0  0  0  0  0  0
   21.1451   -5.1332  -14.9636 O   0  0  0  0  0  0  0  0  0  0  0  0
   19.9651   -7.0996  -14.9775 O   0  0  0  0  0  0  0  0  0  0  0  0
  2  1  1  0
  3  2  2  0
  4  2  1  0
  5  4  1  0
  6  8  1  0
  6  5  1  0
  6  7  1  6
  8  9  2  0
 11 10  1  1
 12 11  1  0
 14 13  1  6
 13 11  1  0
 15 14  1  0
 15  8  1  0
 16 17  2  0
 16 14  1  0
 18 19  1  0
 19 20  1  0
 20 22  1  0
 20 21  1  1
 22 24  1  0
 22 23  1  6
 23 16  1  0
 24 26  1  0
 25 24  2  0
M  END
$$$$
