QLI.pdb
     RDKit          3D

 26 25  0  0  1  0  0  0  0  0999 V2000
   22.5796  -20.3719  -15.8003 N   0  0  0  0  0  0  0  0  0  0  0  0
   23.7656  -19.8880  -16.3905 C   0  0  0  0  0  0  0  0  0  0  0  0
   23.6537  -19.3318  -17.5309 O   0  0  0  0  0  0  0  0  0  0  0  0
   25.0804  -19.9873  -15.7740 C   0  0  0  0  0  0  0  0  0  0  0  0
   25.1594  -20.6060  -14.4245 C   0  0  0  0  0  0  0  0  0  0  0  0
   24.6640  -19.7404  -13.2947 C   0  0  2  0  0  0  0  0  0  0  0  0
   25.2214  -18.4282  -13.3896 N   0  0  0  0  0  0  0  0  0  0  0  0
   24.9970  -20.3954  -11.9789 C   0  0  0  0  0  0  0  0  0  0  0  0
   24.8162  -21.6174  -11.7631 O   0  0  0  0  0  0  0  0  0  0  0  0
   28.0224  -21.0926   -7.4217 C   0  0  0  0  0  0  0  0  0  0  0  0
   27.0670  -19.9252   -7.4480 C   0  0  1  0  0  0  0  0  0  0  0  0
   27.7950  -18.7865   -6.7144 C   0  0  0  0  0  0  0  0  0  0  0  0
   26.7499  -19.4163   -8.7965 C   0  0  0  0  0  0  0  0  0  0  0  0
   25.6340  -20.0647   -9.5481 C   0  0  2  0  0  0  0  0  0  0  0  0
   25.5430  -19.6146  -10.9203 N   0  0  0  0  0  0  0  0  0  0  0  0
   24.3505  -20.1612   -8.8526 C   0  0  0  0  0  0  0  0  0  0  0  0
   23.8167  -19.1413   -8.3677 O   0  0  0  0  0  0  0  0  0  0  0  0
   20.2995  -21.5724  -11.3890 C   0  0  0  0  0  0  0  0  0  0  0  0
   21.1329  -20.9773  -10.2883 C   0  0  0  0  0  0  0  0  0  0  0  0
   21.3618  -21.9718   -9.1600 C   0  0  2  0  0  0  0  0  0  0  0  0
   20.0358  -22.1717   -8.4649 C   0  0  0  0  0  0  0  0  0  0  0  0
   22.3523  -21.4476   -8.1544 C   0  0  2  0  0  0  0  0  0  0  0  0
   23.6998  -21.4105   -8.7220 N   0  0  0  0  0  0  0  0  0  0  0  0
   22.2968  -22.3101   -6.9542 C   0  0  0  0  0  0  0  0  0  0  0  0
   23.0656  -23.3177   -6.8490 O   0  0  0  0  0  0  0  0  0  0  0  0
   21.4044  -22.0348   -5.9248 O   0  0  0  0  0  0  0  0  0  0  0  0
  2  1  1  0
  3  2  2  0
  4  2  1  0
  5  4  1  0
  6  8  1  0
  6  5  1  0
  6  7  1  1
  8  9  2  0
 11 10  1  6
 12 11  1  0
 14 13  1  1
 13 11  1  0
 15 14  1  0
 15  8  1  0
 16 17  2  0
 16 14  1  0
 18 19  1  0
 19 20  1  0
 20 22  1  0
 20 21  1  1
 22 24  1  0
 22 23  1  6
 23 16  1  0
 24 26  1  0
 25 24  2  0
M  END
$$$$
