QLI.pdb
     RDKit          3D

 26 25  0  0  1  0  0  0  0  0999 V2000
  -51.0684  -64.6217  -67.6627 N   0  0  0  0  0  0  0  0  0  0  0  0
  -51.7662  -65.7959  -68.0138 C   0  0  0  0  0  0  0  0  0  0  0  0
  -52.6230  -66.2267  -67.1755 O   0  0  0  0  0  0  0  0  0  0  0  0
  -51.5630  -66.5215  -69.2592 C   0  0  0  0  0  0  0  0  0  0  0  0
  -51.0244  -65.7591  -70.4164 C   0  0  0  0  0  0  0  0  0  0  0  0
  -51.7303  -66.0012  -71.7255 C   0  0  2  0  0  0  0  0  0  0  0  0
  -50.8143  -65.8843  -72.8159 N   0  0  0  0  0  0  0  0  0  0  0  0
  -52.8829  -65.0394  -71.8583 C   0  0  0  0  0  0  0  0  0  0  0  0
  -52.8028  -63.9679  -72.5049 O   0  0  0  0  0  0  0  0  0  0  0  0
  -55.8653  -61.9058  -72.3020 C   0  0  0  0  0  0  0  0  0  0  0  0
  -56.5654  -63.1100  -72.8819 C   0  0  1  0  0  0  0  0  0  0  0  0
  -56.2305  -63.0924  -74.3826 C   0  0  0  0  0  0  0  0  0  0  0  0
  -56.0922  -64.4086  -72.3644 C   0  0  0  0  0  0  0  0  0  0  0  0
  -55.2313  -64.4075  -71.1442 C   0  0  2  0  0  0  0  0  0  0  0  0
  -54.1271  -65.3386  -71.2332 N   0  0  0  0  0  0  0  0  0  0  0  0
  -55.9268  -64.4092  -69.8570 C   0  0  0  0  0  0  0  0  0  0  0  0
  -55.6066  -65.2253  -68.9672 O   0  0  0  0  0  0  0  0  0  0  0  0
  -59.1151  -63.8510  -67.5645 C   0  0  0  0  0  0  0  0  0  0  0  0
  -59.2669  -64.5884  -68.8658 C   0  0  0  0  0  0  0  0  0  0  0  0
  -59.3694  -63.6300  -70.0430 C   0  0  2  0  0  0  0  0  0  0  0  0
  -60.1876  -64.3186  -71.1096 C   0  0  0  0  0  0  0  0  0  0  0  0
  -58.0136  -63.3108  -70.6147 C   0  0  2  0  0  0  0  0  0  0  0  0
  -56.9691  -63.4862  -69.6059 N   0  0  0  0  0  0  0  0  0  0  0  0
  -58.0401  -61.9236  -71.1271 C   0  0  0  0  0  0  0  0  0  0  0  0
  -59.1405  -61.3826  -71.4646 O   0  0  0  0  0  0  0  0  0  0  0  0
  -56.8653  -61.1911  -71.2491 O   0  0  0  0  0  0  0  0  0  0  0  0
  2  1  1  0
  3  2  2  0
  4  2  1  0
  5  4  1  0
  6  8  1  0
  6  5  1  0
  6  7  1  6
  8  9  2  0
 11 10  1  1
 12 11  1  0
 14 13  1  6
 13 11  1  0
 15 14  1  0
 15  8  1  0
 16 17  2  0
 16 14  1  0
 18 19  1  0
 19 20  1  0
 20 22  1  0
 20 21  1  6
 22 24  1  0
 22 23  1  1
 23 16  1  0
 24 26  1  0
 25 24  2  0
M  END
$$$$
