QLI.pdb
     RDKit          3D

 26 25  0  0  1  0  0  0  0  0999 V2000
   19.4743  -20.1566  -15.7127 N   0  0  0  0  0  0  0  0  0  0  0  0
   19.2293  -21.0749  -14.6707 C   0  0  0  0  0  0  0  0  0  0  0  0
   18.1519  -21.7506  -14.7429 O   0  0  0  0  0  0  0  0  0  0  0  0
   20.1271  -21.2866  -13.5448 C   0  0  0  0  0  0  0  0  0  0  0  0
   21.3806  -20.4881  -13.5085 C   0  0  0  0  0  0  0  0  0  0  0  0
   22.1775  -20.4912  -14.7876 C   0  0  2  0  0  0  0  0  0  0  0  0
   22.6434  -21.8094  -15.0823 N   0  0  0  0  0  0  0  0  0  0  0  0
   23.3149  -19.5094  -14.6713 C   0  0  0  0  0  0  0  0  0  0  0  0
   23.1820  -18.3732  -14.1575 O   0  0  0  0  0  0  0  0  0  0  0  0
   28.5704  -21.5410  -14.6172 C   0  0  0  0  0  0  0  0  0  0  0  0
   27.2667  -20.8148  -14.3948 C   0  0  1  0  0  0  0  0  0  0  0  0
   27.3510  -20.2552  -12.9650 C   0  0  0  0  0  0  0  0  0  0  0  0
   27.0446  -19.6574  -15.2830 C   0  0  0  0  0  0  0  0  0  0  0  0
   25.7295  -18.9539  -15.2054 C   0  0  2  0  0  0  0  0  0  0  0  0
   24.6058  -19.8643  -15.1570 N   0  0  0  0  0  0  0  0  0  0  0  0
   25.5490  -17.8111  -16.1008 C   0  0  0  0  0  0  0  0  0  0  0  0
   25.3696  -17.9892  -17.3241 O   0  0  0  0  0  0  0  0  0  0  0  0
   21.6368  -14.7745  -16.2342 C   0  0  0  0  0  0  0  0  0  0  0  0
   22.9185  -15.5112  -16.5076 C   0  0  0  0  0  0  0  0  0  0  0  0
   24.1340  -14.6321  -16.2531 C   0  0  2  0  0  0  0  0  0  0  0  0
   24.0489  -13.4650  -17.2080 C   0  0  0  0  0  0  0  0  0  0  0  0
   25.4170  -15.3734  -16.5202 C   0  0  2  0  0  0  0  0  0  0  0  0
   25.5750  -16.4917  -15.5908 N   0  0  0  0  0  0  0  0  0  0  0  0
   26.5389  -14.4163  -16.4072 C   0  0  0  0  0  0  0  0  0  0  0  0
   27.1160  -14.2295  -15.2894 O   0  0  0  0  0  0  0  0  0  0  0  0
   26.9787  -13.7062  -17.5180 O   0  0  0  0  0  0  0  0  0  0  0  0
  2  1  1  0
  3  2  2  0
  4  2  1  0
  5  4  1  0
  6  8  1  0
  6  5  1  0
  6  7  1  1
  8  9  2  0
 11 10  1  6
 12 11  1  0
 14 13  1  6
 13 11  1  0
 15 14  1  0
 15  8  1  0
 16 17  2  0
 16 14  1  0
 18 19  1  0
 19 20  1  0
 20 22  1  0
 20 21  1  6
 22 24  1  0
 22 23  1  1
 23 16  1  0
 24 26  1  0
 25 24  2  0
M  END
$$$$
