QLI.pdb
     RDKit          3D

 26 25  0  0  1  0  0  0  0  0999 V2000
   21.6720  -23.4253  -14.3505 N   0  0  0  0  0  0  0  0  0  0  0  0
   20.5271  -23.0300  -13.6281 C   0  0  0  0  0  0  0  0  0  0  0  0
   19.5614  -23.8595  -13.5844 O   0  0  0  0  0  0  0  0  0  0  0  0
   20.3983  -21.7523  -12.9429 C   0  0  0  0  0  0  0  0  0  0  0  0
   21.5471  -20.8122  -13.0246 C   0  0  0  0  0  0  0  0  0  0  0  0
   22.5867  -20.9783  -11.9463 C   0  0  2  0  0  0  0  0  0  0  0  0
   22.0441  -20.6286  -10.6716 N   0  0  0  0  0  0  0  0  0  0  0  0
   23.7973  -20.1473  -12.2855 C   0  0  0  0  0  0  0  0  0  0  0  0
   23.8887  -18.9303  -11.9972 O   0  0  0  0  0  0  0  0  0  0  0  0
   28.7205  -21.9628  -11.1759 C   0  0  0  0  0  0  0  0  0  0  0  0
   27.5085  -21.1194  -11.4856 C   0  0  1  0  0  0  0  0  0  0  0  0
   27.7295  -19.7969  -10.7327 C   0  0  0  0  0  0  0  0  0  0  0  0
   27.3485  -20.7665  -12.9096 C   0  0  0  0  0  0  0  0  0  0  0  0
   26.1092  -20.0407  -13.3190 C   0  0  2  0  0  0  0  0  0  0  0  0
   24.8983  -20.7474  -12.9609 N   0  0  0  0  0  0  0  0  0  0  0  0
   26.1047  -19.4688  -14.6656 C   0  0  0  0  0  0  0  0  0  0  0  0
   25.6169  -20.1079  -15.6216 O   0  0  0  0  0  0  0  0  0  0  0  0
   25.7340  -14.0946  -15.0413 C   0  0  0  0  0  0  0  0  0  0  0  0
   25.4794  -15.5285  -15.4144 C   0  0  0  0  0  0  0  0  0  0  0  0
   26.6417  -16.1166  -16.2005 C   0  0  2  0  0  0  0  0  0  0  0  0
   26.5376  -15.5905  -17.6125 C   0  0  0  0  0  0  0  0  0  0  0  0
   26.5728  -17.6200  -16.2461 C   0  0  2  0  0  0  0  0  0  0  0  0
   26.6525  -18.1856  -14.8996 N   0  0  0  0  0  0  0  0  0  0  0  0
   27.6748  -18.1100  -17.1023 C   0  0  0  0  0  0  0  0  0  0  0  0
   28.8793  -18.0515  -16.6983 O   0  0  0  0  0  0  0  0  0  0  0  0
   27.4125  -18.6398  -18.3602 O   0  0  0  0  0  0  0  0  0  0  0  0
  2  1  1  0
  3  2  2  0
  4  2  1  0
  5  4  1  0
  6  8  1  0
  6  5  1  0
  6  7  1  1
  8  9  2  0
 11 10  1  6
 12 11  1  0
 14 13  1  6
 13 11  1  0
 15 14  1  0
 15  8  1  0
 16 17  2  0
 16 14  1  0
 18 19  1  0
 19 20  1  0
 20 22  1  0
 20 21  1  6
 22 24  1  0
 22 23  1  1
 23 16  1  0
 24 26  1  0
 25 24  2  0
M  END
$$$$
