QLI.pdb
     RDKit          3D

 26 25  0  0  1  0  0  0  0  0999 V2000
   27.6413  -17.6634  -20.7355 N   0  0  0  0  0  0  0  0  0  0  0  0
   26.5302  -17.3496  -19.9255 C   0  0  0  0  0  0  0  0  0  0  0  0
   26.6721  -16.3856  -19.1052 O   0  0  0  0  0  0  0  0  0  0  0  0
   25.2577  -18.0541  -19.9814 C   0  0  0  0  0  0  0  0  0  0  0  0
   24.8580  -18.8425  -18.7860 C   0  0  0  0  0  0  0  0  0  0  0  0
   25.9386  -19.7199  -18.2086 C   0  0  2  0  0  0  0  0  0  0  0  0
   26.2351  -20.7978  -19.0985 N   0  0  0  0  0  0  0  0  0  0  0  0
   25.5087  -20.2170  -16.8524 C   0  0  0  0  0  0  0  0  0  0  0  0
   24.6395  -21.1079  -16.6993 O   0  0  0  0  0  0  0  0  0  0  0  0
   29.2633  -19.9267  -12.7348 C   0  0  0  0  0  0  0  0  0  0  0  0
   28.1745  -20.3248  -13.7004 C   0  0  1  0  0  0  0  0  0  0  0  0
   28.1164  -21.8602  -13.6383 C   0  0  0  0  0  0  0  0  0  0  0  0
   26.8260  -19.8421  -13.3446 C   0  0  0  0  0  0  0  0  0  0  0  0
   25.7245  -20.0416  -14.3331 C   0  0  2  0  0  0  0  0  0  0  0  0
   26.1013  -19.6682  -15.6794 N   0  0  0  0  0  0  0  0  0  0  0  0
   24.3943  -19.5888  -13.9255 C   0  0  0  0  0  0  0  0  0  0  0  0
   24.1303  -18.3689  -13.8751 O   0  0  0  0  0  0  0  0  0  0  0  0
   18.8817  -19.5446  -15.3552 C   0  0  0  0  0  0  0  0  0  0  0  0
   19.7553  -19.5890  -14.1326 C   0  0  0  0  0  0  0  0  0  0  0  0
   21.1776  -20.0059  -14.4764 C   0  0  2  0  0  0  0  0  0  0  0  0
   21.1073  -21.3999  -15.0533 C   0  0  0  0  0  0  0  0  0  0  0  0
   22.0538  -20.0407  -13.2524 C   0  0  2  0  0  0  0  0  0  0  0  0
   23.3924  -20.5276  -13.5845 N   0  0  0  0  0  0  0  0  0  0  0  0
   21.4036  -20.9005  -12.2397 C   0  0  0  0  0  0  0  0  0  0  0  0
   21.7186  -22.1286  -12.1395 O   0  0  0  0  0  0  0  0  0  0  0  0
   20.4391  -20.3816  -11.3840 O   0  0  0  0  0  0  0  0  0  0  0  0
  2  1  1  0
  3  2  2  0
  4  2  1  0
  5  4  1  0
  6  8  1  0
  6  5  1  0
  6  7  1  6
  8  9  2  0
 11 10  1  1
 12 11  1  0
 14 13  1  1
 13 11  1  0
 15 14  1  0
 15  8  1  0
 16 17  2  0
 16 14  1  0
 18 19  1  0
 19 20  1  0
 20 22  1  0
 20 21  1  1
 22 24  1  0
 22 23  1  6
 23 16  1  0
 24 26  1  0
 25 24  2  0
M  END
$$$$
