QLI.pdb
     RDKit          3D

 26 25  0  0  1  0  0  0  0  0999 V2000
   30.0692  -18.5413  -17.3073 N   0  0  0  0  0  0  0  0  0  0  0  0
   28.8150  -18.0139  -17.6788 C   0  0  0  0  0  0  0  0  0  0  0  0
   28.7731  -16.7703  -17.9508 O   0  0  0  0  0  0  0  0  0  0  0  0
   27.5949  -18.8026  -17.7680 C   0  0  0  0  0  0  0  0  0  0  0  0
   26.9541  -19.2201  -16.4932 C   0  0  0  0  0  0  0  0  0  0  0  0
   27.5330  -20.4608  -15.8634 C   0  0  2  0  0  0  0  0  0  0  0  0
   27.8990  -21.4072  -16.8694 N   0  0  0  0  0  0  0  0  0  0  0  0
   26.5393  -21.0378  -14.8883 C   0  0  0  0  0  0  0  0  0  0  0  0
   25.6237  -21.8216  -15.2348 O   0  0  0  0  0  0  0  0  0  0  0  0
   24.8531  -21.5831   -9.0564 C   0  0  0  0  0  0  0  0  0  0  0  0
   25.2711  -20.5359  -10.0589 C   0  0  1  0  0  0  0  0  0  0  0  0
   26.0714  -19.4982   -9.2543 C   0  0  0  0  0  0  0  0  0  0  0  0
   26.1709  -21.0228  -11.1225 C   0  0  0  0  0  0  0  0  0  0  0  0
   25.6424  -21.0816  -12.5181 C   0  0  2  0  0  0  0  0  0  0  0  0
   26.6238  -20.6946  -13.5087 N   0  0  0  0  0  0  0  0  0  0  0  0
   24.3076  -20.5224  -12.7327 C   0  0  0  0  0  0  0  0  0  0  0  0
   24.1238  -19.2880  -12.6789 O   0  0  0  0  0  0  0  0  0  0  0  0
   20.1373  -20.3171  -16.7284 C   0  0  0  0  0  0  0  0  0  0  0  0
   20.3590  -20.2472  -15.2431 C   0  0  0  0  0  0  0  0  0  0  0  0
   21.6622  -20.9209  -14.8399 C   0  0  2  0  0  0  0  0  0  0  0  0
   21.5215  -22.3910  -15.1565 C   0  0  0  0  0  0  0  0  0  0  0  0
   21.9260  -20.7745  -13.3648 C   0  0  2  0  0  0  0  0  0  0  0  0
   23.2107  -21.3735  -13.0040 N   0  0  0  0  0  0  0  0  0  0  0  0
   20.8106  -21.4075  -12.6281 C   0  0  0  0  0  0  0  0  0  0  0  0
   20.8613  -22.6396  -12.3168 O   0  0  0  0  0  0  0  0  0  0  0  0
   19.6908  -20.6681  -12.2663 O   0  0  0  0  0  0  0  0  0  0  0  0
  2  1  1  0
  3  2  2  0
  4  2  1  0
  5  4  1  0
  6  8  1  0
  6  5  1  0
  6  7  1  6
  8  9  2  0
 11 10  1  1
 12 11  1  0
 14 13  1  1
 13 11  1  0
 15 14  1  0
 15  8  1  0
 16 17  2  0
 16 14  1  0
 18 19  1  0
 19 20  1  0
 20 22  1  0
 20 21  1  1
 22 24  1  0
 22 23  1  6
 23 16  1  0
 24 26  1  0
 25 24  2  0
M  END
$$$$
