QLI.pdb
     RDKit          3D

 26 25  0  0  1  0  0  0  0  0999 V2000
   30.1908  -21.5064  -18.4307 N   0  0  0  0  0  0  0  0  0  0  0  0
   29.2747  -22.5291  -18.7532 C   0  0  0  0  0  0  0  0  0  0  0  0
   29.6848  -23.4379  -19.5459 O   0  0  0  0  0  0  0  0  0  0  0  0
   27.9164  -22.5980  -18.2346 C   0  0  0  0  0  0  0  0  0  0  0  0
   27.5072  -21.5656  -17.2462 C   0  0  0  0  0  0  0  0  0  0  0  0
   26.7825  -20.3780  -17.8255 C   0  0  2  0  0  0  0  0  0  0  0  0
   27.7159  -19.4171  -18.3223 N   0  0  0  0  0  0  0  0  0  0  0  0
   25.8746  -19.7859  -16.7785 C   0  0  0  0  0  0  0  0  0  0  0  0
   26.2511  -18.8997  -15.9750 O   0  0  0  0  0  0  0  0  0  0  0  0
   20.9765  -17.2370  -15.5201 C   0  0  0  0  0  0  0  0  0  0  0  0
   21.2217  -18.7255  -15.5430 C   0  0  1  0  0  0  0  0  0  0  0  0
   19.9507  -19.3384  -16.1542 C   0  0  0  0  0  0  0  0  0  0  0  0
   22.3444  -19.1538  -16.3998 C   0  0  0  0  0  0  0  0  0  0  0  0
   23.5655  -19.7014  -15.7368 C   0  0  2  0  0  0  0  0  0  0  0  0
   24.5265  -20.2342  -16.6783 N   0  0  0  0  0  0  0  0  0  0  0  0
   23.3459  -20.5340  -14.5541 C   0  0  0  0  0  0  0  0  0  0  0  0
   22.8817  -21.6878  -14.6711 O   0  0  0  0  0  0  0  0  0  0  0  0
   26.6885  -20.7942  -10.2595 C   0  0  0  0  0  0  0  0  0  0  0  0
   25.6830  -21.1491  -11.3194 C   0  0  0  0  0  0  0  0  0  0  0  0
   24.2991  -20.6172  -10.9779 C   0  0  2  0  0  0  0  0  0  0  0  0
   23.8207  -21.3678   -9.7577 C   0  0  0  0  0  0  0  0  0  0  0  0
   23.3229  -20.8585  -12.0985 C   0  0  2  0  0  0  0  0  0  0  0  0
   23.6574  -20.0417  -13.2649 N   0  0  0  0  0  0  0  0  0  0  0  0
   21.9624  -20.5579  -11.6026 C   0  0  0  0  0  0  0  0  0  0  0  0
   21.5448  -19.3576  -11.5549 O   0  0  0  0  0  0  0  0  0  0  0  0
   21.1206  -21.5800  -11.1802 O   0  0  0  0  0  0  0  0  0  0  0  0
  2  1  1  0
  3  2  2  0
  4  2  1  0
  5  4  1  0
  6  8  1  0
  6  5  1  0
  6  7  1  1
  8  9  2  0
 11 10  1  6
 12 11  1  0
 14 13  1  6
 13 11  1  0
 15 14  1  0
 15  8  1  0
 16 17  2  0
 16 14  1  0
 18 19  1  0
 19 20  1  0
 20 22  1  0
 20 21  1  1
 22 24  1  0
 22 23  1  6
 23 16  1  0
 24 26  1  0
 25 24  2  0
M  END
$$$$
