QLI.pdb
     RDKit          3D

 26 25  0  0  1  0  0  0  0  0999 V2000
   24.2523  -17.0563  -16.2426 N   0  0  0  0  0  0  0  0  0  0  0  0
   23.8031  -17.4427  -17.5224 C   0  0  0  0  0  0  0  0  0  0  0  0
   24.2024  -16.7404  -18.5071 O   0  0  0  0  0  0  0  0  0  0  0  0
   22.9287  -18.5801  -17.7686 C   0  0  0  0  0  0  0  0  0  0  0  0
   22.5384  -19.4102  -16.5986 C   0  0  0  0  0  0  0  0  0  0  0  0
   23.6855  -20.0382  -15.8497 C   0  0  2  0  0  0  0  0  0  0  0  0
   24.4575  -20.8661  -16.7215 N   0  0  0  0  0  0  0  0  0  0  0  0
   23.1509  -20.8120  -14.6722 C   0  0  0  0  0  0  0  0  0  0  0  0
   22.5699  -21.9169  -14.7923 O   0  0  0  0  0  0  0  0  0  0  0  0
   25.8039  -20.3940   -9.8152 C   0  0  0  0  0  0  0  0  0  0  0  0
   25.0427  -20.7761  -11.0606 C   0  0  1  0  0  0  0  0  0  0  0  0
   25.3420  -22.2685  -11.2792 C   0  0  0  0  0  0  0  0  0  0  0  0
   23.5759  -20.6572  -10.9493 C   0  0  0  0  0  0  0  0  0  0  0  0
   22.7553  -20.9124  -12.1706 C   0  0  2  0  0  0  0  0  0  0  0  0
   23.3010  -20.2879  -13.3565 N   0  0  0  0  0  0  0  0  0  0  0  0
   21.3064  -20.7742  -12.0218 C   0  0  0  0  0  0  0  0  0  0  0  0
   20.7756  -19.6435  -12.0306 O   0  0  0  0  0  0  0  0  0  0  0  0
   17.8135  -24.4556  -14.1341 C   0  0  0  0  0  0  0  0  0  0  0  0
   18.5701  -23.8436  -12.9882 C   0  0  0  0  0  0  0  0  0  0  0  0
   18.3085  -22.3487  -12.8801 C   0  0  2  0  0  0  0  0  0  0  0  0
   18.8168  -21.7132  -14.1525 C   0  0  0  0  0  0  0  0  0  0  0  0
   19.0468  -21.7418  -11.7167 C   0  0  2  0  0  0  0  0  0  0  0  0
   20.4908  -21.9196  -11.8668 N   0  0  0  0  0  0  0  0  0  0  0  0
   18.5528  -22.3717  -10.4731 C   0  0  0  0  0  0  0  0  0  0  0  0
   17.3629  -22.1645  -10.0747 O   0  0  0  0  0  0  0  0  0  0  0  0
   19.3797  -23.1974   -9.7206 O   0  0  0  0  0  0  0  0  0  0  0  0
  2  1  1  0
  3  2  2  0
  4  2  1  0
  5  4  1  0
  6  8  1  0
  6  5  1  0
  6  7  1  6
  8  9  2  0
 11 10  1  1
 12 11  1  0
 14 13  1  1
 13 11  1  0
 15 14  1  0
 15  8  1  0
 16 17  2  0
 16 14  1  0
 18 19  1  0
 19 20  1  0
 20 22  1  0
 20 21  1  6
 22 24  1  0
 22 23  1  6
 23 16  1  0
 24 26  1  0
 25 24  2  0
M  END
$$$$
