QLI.pdb
     RDKit          3D

 26 25  0  0  1  0  0  0  0  0999 V2000
   16.9806  -14.3550  -16.9415 N   0  0  0  0  0  0  0  0  0  0  0  0
   16.8328  -13.6912  -18.1770 C   0  0  0  0  0  0  0  0  0  0  0  0
   16.0321  -14.2151  -19.0177 O   0  0  0  0  0  0  0  0  0  0  0  0
   17.5310  -12.4637  -18.5299 C   0  0  0  0  0  0  0  0  0  0  0  0
   18.4524  -11.8843  -17.5172 C   0  0  0  0  0  0  0  0  0  0  0  0
   19.2701  -10.7117  -17.9941 C   0  0  2  0  0  0  0  0  0  0  0  0
   20.2800  -11.1455  -18.9071 N   0  0  0  0  0  0  0  0  0  0  0  0
   19.8604   -9.9966  -16.8061 C   0  0  0  0  0  0  0  0  0  0  0  0
   19.1607   -9.5429  -15.8695 O   0  0  0  0  0  0  0  0  0  0  0  0
   24.6186  -11.8515  -14.8716 C   0  0  0  0  0  0  0  0  0  0  0  0
   23.2493  -11.2623  -15.1041 C   0  0  1  0  0  0  0  0  0  0  0  0
   22.4419  -11.5964  -13.8388 C   0  0  0  0  0  0  0  0  0  0  0  0
   23.2235   -9.7930  -15.2391 C   0  0  0  0  0  0  0  0  0  0  0  0
   21.9341   -9.1449  -15.6235 C   0  0  2  0  0  0  0  0  0  0  0  0
   21.2706   -9.8173  -16.7197 N   0  0  0  0  0  0  0  0  0  0  0  0
   21.9429   -7.6851  -15.7207 C   0  0  0  0  0  0  0  0  0  0  0  0
   22.4702   -7.1206  -16.7023 O   0  0  0  0  0  0  0  0  0  0  0  0
   17.7970   -4.7436  -15.9288 C   0  0  0  0  0  0  0  0  0  0  0  0
   19.2043   -5.2674  -16.0018 C   0  0  0  0  0  0  0  0  0  0  0  0
   20.0197   -4.8510  -14.7867 C   0  0  2  0  0  0  0  0  0  0  0  0
   20.1396   -3.3458  -14.8238 C   0  0  0  0  0  0  0  0  0  0  0  0
   21.4049   -5.4401  -14.8231 C   0  0  2  0  0  0  0  0  0  0  0  0
   21.3540   -6.8970  -14.7041 N   0  0  0  0  0  0  0  0  0  0  0  0
   22.1952   -4.8374  -13.7278 C   0  0  0  0  0  0  0  0  0  0  0  0
   22.2265   -5.3839  -12.5799 O   0  0  0  0  0  0  0  0  0  0  0  0
   22.9136   -3.6657  -13.9346 O   0  0  0  0  0  0  0  0  0  0  0  0
  2  1  1  0
  3  2  2  0
  4  2  1  0
  5  4  1  0
  6  8  1  0
  6  5  1  0
  6  7  1  6
  8  9  2  0
 11 10  1  1
 12 11  1  0
 14 13  1  6
 13 11  1  0
 15 14  1  0
 15  8  1  0
 16 17  2  0
 16 14  1  0
 18 19  1  0
 19 20  1  0
 20 22  1  0
 20 21  1  6
 22 24  1  0
 22 23  1  1
 23 16  1  0
 24 26  1  0
 25 24  2  0
M  END
$$$$
