PHL.pdb
     RDKit          3D

 26 27  0  0  1  0  0  0  0  0999 V2000
   28.0130  -21.2268  -15.3776 N   0  0  0  0  0  0  0  0  0  0  0  0
   27.1978  -20.8961  -16.5230 C   0  0  0  0  0  0  0  0  0  0  0  0
   27.3421  -19.4135  -16.7604 C   0  0  0  0  0  0  0  0  0  0  0  0
   28.4059  -18.9747  -15.7826 C   0  0  0  0  0  0  0  0  0  0  0  0
   28.3021  -19.9846  -14.6876 C   0  0  1  0  0  0  0  0  0  0  0  0
   27.2171  -19.6879  -13.7160 C   0  0  0  0  0  0  0  0  0  0  0  0
   27.0461  -18.5177  -13.3191 O   0  0  0  0  0  0  0  0  0  0  0  0
   26.3496  -20.6839  -13.2067 N   0  0  0  0  0  0  0  0  0  0  0  0
   25.2929  -20.3996  -12.2455 C   0  0  1  0  0  0  0  0  0  0  0  0
   23.9981  -21.0061  -12.7936 C   0  0  0  0  0  0  0  0  0  0  0  0
   23.5247  -20.2470  -13.9788 C   0  0  0  0  0  0  0  0  0  0  0  0
   22.7229  -19.1251  -14.0057 C   0  0  0  0  0  0  0  0  0  0  0  0
   22.5112  -18.7257  -15.2640 N   0  0  0  0  0  0  0  0  0  0  0  0
   23.1847  -19.6023  -16.0403 C   0  0  0  0  0  0  0  0  0  0  0  0
   23.7984  -20.5230  -15.2663 N   0  0  0  0  0  0  0  0  0  0  0  0
   25.5807  -20.9679  -10.9222 C   0  0  0  0  0  0  0  0  0  0  0  0
   25.7937  -22.1991  -10.8012 O   0  0  0  0  0  0  0  0  0  0  0  0
   28.7808  -20.6295   -7.8204 C   0  0  0  0  0  0  0  0  0  0  0  0
   27.7935  -19.5180   -7.7409 C   0  0  2  0  0  0  0  0  0  0  0  0
   28.2332  -18.5628   -6.6184 C   0  0  0  0  0  0  0  0  0  0  0  0
   26.4138  -19.9327   -7.4211 C   0  0  0  0  0  0  0  0  0  0  0  0
   25.6534  -20.7000   -8.4373 C   0  0  2  0  0  0  0  0  0  0  0  0
   25.6236  -20.1444   -9.7642 N   0  0  0  0  0  0  0  0  0  0  0  0
   24.3070  -21.1242   -7.9714 C   0  0  0  0  0  0  0  0  0  0  0  0
   24.1234  -21.9061   -6.8358 O   0  0  0  0  0  0  0  0  0  0  0  0
   23.2646  -20.7911   -8.5906 O   0  0  0  0  0  0  0  0  0  0  0  0
  1  2  1  0
  3  2  1  0
  4  5  1  0
  4  3  1  0
  5  1  1  0
  5  6  1  1
  6  8  1  0
  7  6  2  0
  9  8  1  0
 10 11  1  0
  9 10  1  6
 11 12  2  0
 13 12  1  0
 14 13  1  0
 15 14  2  0
 15 11  1  0
 16  9  1  0
 17 16  2  0
 19 18  1  1
 19 21  1  0
 20 19  1  0
 22 21  1  1
 22 24  1  0
 22 23  1  0
 23 16  1  0
 24 25  1  0
 26 24  2  0
M  END
$$$$
