PHL.pdb
     RDKit          3D

 26 27  0  0  1  0  0  0  0  0999 V2000
   18.4577  -10.9387  -17.3222 N   0  0  0  0  0  0  0  0  0  0  0  0
   19.6023  -11.7576  -16.9978 C   0  0  0  0  0  0  0  0  0  0  0  0
   19.3627  -12.3357  -15.6253 C   0  0  0  0  0  0  0  0  0  0  0  0
   17.9530  -11.9194  -15.2792 C   0  0  0  0  0  0  0  0  0  0  0  0
   17.7571  -10.6746  -16.0804 C   0  0  1  0  0  0  0  0  0  0  0  0
   18.3262   -9.4638  -15.4327 C   0  0  0  0  0  0  0  0  0  0  0  0
   18.0375   -9.2037  -14.2473 O   0  0  0  0  0  0  0  0  0  0  0  0
   19.1965   -8.5718  -16.1040 N   0  0  0  0  0  0  0  0  0  0  0  0
   19.6511   -7.3171  -15.5204 C   0  0  1  0  0  0  0  0  0  0  0  0
   21.1741   -7.2660  -15.6707 C   0  0  0  0  0  0  0  0  0  0  0  0
   21.8092   -8.4059  -14.9620 C   0  0  0  0  0  0  0  0  0  0  0  0
   22.5452   -9.4396  -15.5021 C   0  0  0  0  0  0  0  0  0  0  0  0
   22.9538  -10.2791  -14.5451 N   0  0  0  0  0  0  0  0  0  0  0  0
   22.4723   -9.7724  -13.3893 C   0  0  0  0  0  0  0  0  0  0  0  0
   21.7800   -8.6401  -13.6380 N   0  0  0  0  0  0  0  0  0  0  0  0
   19.0520   -6.1502  -16.1809 C   0  0  0  0  0  0  0  0  0  0  0  0
   18.8912   -6.1481  -17.4259 O   0  0  0  0  0  0  0  0  0  0  0  0
   16.7633   -2.1805  -18.1389 C   0  0  0  0  0  0  0  0  0  0  0  0
   15.9235   -3.1309  -17.3591 C   0  0  2  0  0  0  0  0  0  0  0  0
   15.2243   -2.3461  -16.2361 C   0  0  0  0  0  0  0  0  0  0  0  0
   16.6663   -4.2255  -16.7048 C   0  0  0  0  0  0  0  0  0  0  0  0
   17.9547   -3.9077  -16.0425 C   0  0  2  0  0  0  0  0  0  0  0  0
   18.6465   -5.0118  -15.4321 N   0  0  0  0  0  0  0  0  0  0  0  0
   17.8828   -2.7219  -15.1490 C   0  0  0  0  0  0  0  0  0  0  0  0
   17.9089   -1.4192  -15.6359 O   0  0  0  0  0  0  0  0  0  0  0  0
   17.7943   -2.8465  -13.9011 O   0  0  0  0  0  0  0  0  0  0  0  0
  1  2  1  0
  3  2  1  0
  4  5  1  0
  4  3  1  0
  5  1  1  0
  5  6  1  1
  6  8  1  0
  7  6  2  0
  9  8  1  0
 10 11  1  0
  9 10  1  6
 11 12  2  0
 13 12  1  0
 14 13  1  0
 15 14  2  0
 15 11  1  0
 16  9  1  0
 17 16  2  0
 19 18  1  1
 19 21  1  0
 20 19  1  0
 22 21  1  1
 22 24  1  0
 22 23  1  0
 23 16  1  0
 24 25  1  0
 26 24  2  0
M  END
$$$$
