PHL.pdb
     RDKit          3D

 26 27  0  0  1  0  0  0  0  0999 V2000
   20.6602  -13.2698  -16.3477 N   0  0  0  0  0  0  0  0  0  0  0  0
   19.9239  -14.4249  -15.8902 C   0  0  0  0  0  0  0  0  0  0  0  0
   19.2403  -15.0240  -17.0940 C   0  0  0  0  0  0  0  0  0  0  0  0
   19.7693  -14.2301  -18.2646 C   0  0  0  0  0  0  0  0  0  0  0  0
   20.1333  -12.9179  -17.6520 C   0  0  1  0  0  0  0  0  0  0  0  0
   18.9731  -12.0026  -17.4924 C   0  0  0  0  0  0  0  0  0  0  0  0
   18.2302  -11.7708  -18.4674 O   0  0  0  0  0  0  0  0  0  0  0  0
   18.6602  -11.3667  -16.2670 N   0  0  0  0  0  0  0  0  0  0  0  0
   17.5199  -10.4753  -16.1041 C   0  0  1  0  0  0  0  0  0  0  0  0
   16.6315  -11.0625  -15.0038 C   0  0  0  0  0  0  0  0  0  0  0  0
   15.8766  -12.2365  -15.5106 C   0  0  0  0  0  0  0  0  0  0  0  0
   14.7208  -12.2443  -16.2630 C   0  0  0  0  0  0  0  0  0  0  0  0
   14.3382  -13.4976  -16.5284 N   0  0  0  0  0  0  0  0  0  0  0  0
   15.2598  -14.2900  -15.9389 C   0  0  0  0  0  0  0  0  0  0  0  0
   16.1910  -13.5305  -15.3229 N   0  0  0  0  0  0  0  0  0  0  0  0
   17.9294   -9.1149  -15.7322 C   0  0  0  0  0  0  0  0  0  0  0  0
   18.7646   -8.9410  -14.8112 O   0  0  0  0  0  0  0  0  0  0  0  0
   19.8193   -5.6167  -18.4313 C   0  0  0  0  0  0  0  0  0  0  0  0
   18.3659   -5.9336  -18.3688 C   0  0  2  0  0  0  0  0  0  0  0  0
   17.6448   -5.1002  -19.4417 C   0  0  0  0  0  0  0  0  0  0  0  0
   17.7142   -5.6154  -17.0835 C   0  0  0  0  0  0  0  0  0  0  0  0
   17.7346   -6.6375  -16.0090 C   0  0  2  0  0  0  0  0  0  0  0  0
   17.3945   -7.9797  -16.4002 N   0  0  0  0  0  0  0  0  0  0  0  0
   17.0246   -6.2111  -14.7746 C   0  0  0  0  0  0  0  0  0  0  0  0
   17.4583   -5.1426  -13.9968 O   0  0  0  0  0  0  0  0  0  0  0  0
   15.9901   -6.8042  -14.3759 O   0  0  0  0  0  0  0  0  0  0  0  0
  1  2  1  0
  3  2  1  0
  4  5  1  0
  4  3  1  0
  5  1  1  0
  5  6  1  1
  6  8  1  0
  7  6  2  0
  9  8  1  0
 10 11  1  0
  9 10  1  1
 11 12  2  0
 13 12  1  0
 14 13  1  0
 15 14  2  0
 15 11  1  0
 16  9  1  0
 17 16  2  0
 19 18  1  1
 19 21  1  0
 20 19  1  0
 22 21  1  6
 22 24  1  0
 22 23  1  0
 23 16  1  0
 24 25  1  0
 26 24  2  0
M  END
$$$$
