PHL.pdb
     RDKit          3D

 26 27  0  0  1  0  0  0  0  0999 V2000
   28.1286  -20.6293  -15.8488 N   0  0  0  0  0  0  0  0  0  0  0  0
   28.1002  -19.3777  -16.5690 C   0  0  0  0  0  0  0  0  0  0  0  0
   28.9673  -18.4055  -15.8086 C   0  0  0  0  0  0  0  0  0  0  0  0
   29.6023  -19.2358  -14.7188 C   0  0  0  0  0  0  0  0  0  0  0  0
   28.6205  -20.3423  -14.5153 C   0  0  1  0  0  0  0  0  0  0  0  0
   27.4848  -19.9648  -13.6337 C   0  0  0  0  0  0  0  0  0  0  0  0
   27.3109  -18.7678  -13.3285 O   0  0  0  0  0  0  0  0  0  0  0  0
   26.5713  -20.9116  -13.1113 N   0  0  0  0  0  0  0  0  0  0  0  0
   25.4770  -20.5505  -12.2206 C   0  0  1  0  0  0  0  0  0  0  0  0
   24.1852  -21.0968  -12.8351 C   0  0  0  0  0  0  0  0  0  0  0  0
   22.9999  -20.5971  -12.0932 C   0  0  0  0  0  0  0  0  0  0  0  0
   22.2052  -19.5103  -12.3925 C   0  0  0  0  0  0  0  0  0  0  0  0
   21.2293  -19.3754  -11.4885 N   0  0  0  0  0  0  0  0  0  0  0  0
   21.4078  -20.3854  -10.6095 C   0  0  0  0  0  0  0  0  0  0  0  0
   22.4773  -21.1256  -10.9724 N   0  0  0  0  0  0  0  0  0  0  0  0
   25.6540  -21.1061  -10.8727 C   0  0  0  0  0  0  0  0  0  0  0  0
   25.9101  -22.3263  -10.7260 O   0  0  0  0  0  0  0  0  0  0  0  0
   28.6521  -20.8072   -7.5339 C   0  0  0  0  0  0  0  0  0  0  0  0
   27.6953  -19.6690   -7.6081 C   0  0  2  0  0  0  0  0  0  0  0  0
   28.0789  -18.6460   -6.5256 C   0  0  0  0  0  0  0  0  0  0  0  0
   26.2839  -20.0255   -7.3657 C   0  0  0  0  0  0  0  0  0  0  0  0
   25.5726  -20.8296   -8.3890 C   0  0  2  0  0  0  0  0  0  0  0  0
   25.5403  -20.2827   -9.7194 N   0  0  0  0  0  0  0  0  0  0  0  0
   24.2381  -21.3080   -7.9416 C   0  0  0  0  0  0  0  0  0  0  0  0
   24.0822  -22.2069   -6.8916 O   0  0  0  0  0  0  0  0  0  0  0  0
   23.1813  -20.9165   -8.4989 O   0  0  0  0  0  0  0  0  0  0  0  0
  1  2  1  0
  3  2  1  0
  4  5  1  0
  4  3  1  0
  5  1  1  0
  5  6  1  1
  6  8  1  0
  7  6  2  0
  9  8  1  0
 10 11  1  0
  9 10  1  6
 11 12  2  0
 13 12  1  0
 14 13  1  0
 15 14  2  0
 15 11  1  0
 16  9  1  0
 17 16  2  0
 19 18  1  1
 19 21  1  0
 20 19  1  0
 22 21  1  1
 22 24  1  0
 22 23  1  0
 23 16  1  0
 24 25  1  0
 26 24  2  0
M  END
$$$$
