PHL.pdb
     RDKit          3D

 26 27  0  0  1  0  0  0  0  0999 V2000
   28.2909  -20.6137  -14.9251 N   0  0  0  0  0  0  0  0  0  0  0  0
   27.3466  -20.4419  -16.0043 C   0  0  0  0  0  0  0  0  0  0  0  0
   27.1349  -18.9588  -16.1802 C   0  0  0  0  0  0  0  0  0  0  0  0
   28.1351  -18.3196  -15.2466 C   0  0  0  0  0  0  0  0  0  0  0  0
   28.3370  -19.3612  -14.1959 C   0  0  1  0  0  0  0  0  0  0  0  0
   27.2810  -19.3523  -13.1498 C   0  0  0  0  0  0  0  0  0  0  0  0
   26.7960  -18.2674  -12.7706 O   0  0  0  0  0  0  0  0  0  0  0  0
   26.7865  -20.5347  -12.5487 N   0  0  0  0  0  0  0  0  0  0  0  0
   25.8640  -20.5258  -11.4216 C   0  0  1  0  0  0  0  0  0  0  0  0
   24.6915  -21.4430  -11.7805 C   0  0  0  0  0  0  0  0  0  0  0  0
   23.7889  -20.7820  -12.7568 C   0  0  0  0  0  0  0  0  0  0  0  0
   22.5365  -20.2498  -12.5323 C   0  0  0  0  0  0  0  0  0  0  0  0
   22.0314  -19.7384  -13.6596 N   0  0  0  0  0  0  0  0  0  0  0  0
   22.9720  -19.9488  -14.6059 C   0  0  0  0  0  0  0  0  0  0  0  0
   24.0356  -20.5795  -14.0633 N   0  0  0  0  0  0  0  0  0  0  0  0
   26.4976  -20.9984  -10.1839 C   0  0  0  0  0  0  0  0  0  0  0  0
   27.1353  -22.0798  -10.1792 O   0  0  0  0  0  0  0  0  0  0  0  0
   27.1786  -18.9311   -5.2285 C   0  0  0  0  0  0  0  0  0  0  0  0
   28.2026  -19.8813   -5.7436 C   0  0  2  0  0  0  0  0  0  0  0  0
   29.5929  -19.2722   -5.4950 C   0  0  0  0  0  0  0  0  0  0  0  0
   28.1205  -20.1606   -7.1903 C   0  0  0  0  0  0  0  0  0  0  0  0
   26.8765  -20.7671   -7.7232 C   0  0  2  0  0  0  0  0  0  0  0  0
   26.4028  -20.2495   -8.9794 N   0  0  0  0  0  0  0  0  0  0  0  0
   25.7926  -20.8768   -6.7119 C   0  0  0  0  0  0  0  0  0  0  0  0
   24.5848  -20.1984   -6.8373 O   0  0  0  0  0  0  0  0  0  0  0  0
   25.9220  -21.5954   -5.6883 O   0  0  0  0  0  0  0  0  0  0  0  0
  1  2  1  0
  3  2  1  0
  4  5  1  0
  4  3  1  0
  5  1  1  0
  5  6  1  1
  6  8  1  0
  7  6  2  0
  9  8  1  0
 10 11  1  0
  9 10  1  6
 11 12  2  0
 13 12  1  0
 14 13  1  0
 15 14  2  0
 15 11  1  0
 16  9  1  0
 17 16  2  0
 19 18  1  6
 19 21  1  0
 20 19  1  0
 22 21  1  1
 22 24  1  0
 22 23  1  0
 23 16  1  0
 24 25  1  0
 26 24  2  0
M  END
$$$$
