PHL.pdb
     RDKit          3D

 26 27  0  0  1  0  0  0  0  0999 V2000
   13.4918  -22.7125   -6.3333 N   0  0  0  0  0  0  0  0  0  0  0  0
   12.0638  -22.5007   -6.3752 C   0  0  0  0  0  0  0  0  0  0  0  0
   11.7669  -21.2913   -5.5241 C   0  0  0  0  0  0  0  0  0  0  0  0
   13.1253  -20.7541   -5.1415 C   0  0  0  0  0  0  0  0  0  0  0  0
   14.0007  -21.9622   -5.2016 C   0  0  1  0  0  0  0  0  0  0  0  0
   13.9317  -22.7989   -3.9750 C   0  0  0  0  0  0  0  0  0  0  0  0
   12.8417  -23.2954   -3.6262 O   0  0  0  0  0  0  0  0  0  0  0  0
   15.0610  -23.0675   -3.1648 N   0  0  0  0  0  0  0  0  0  0  0  0
   15.0021  -23.9031   -1.9733 C   0  0  1  0  0  0  0  0  0  0  0  0
   16.0622  -24.9973   -2.1269 C   0  0  0  0  0  0  0  0  0  0  0  0
   15.7830  -25.8334   -3.3219 C   0  0  0  0  0  0  0  0  0  0  0  0
   16.4834  -25.8812   -4.5090 C   0  0  0  0  0  0  0  0  0  0  0  0
   15.9268  -26.7582   -5.3509 N   0  0  0  0  0  0  0  0  0  0  0  0
   14.8651  -27.2699   -4.6911 C   0  0  0  0  0  0  0  0  0  0  0  0
   14.7755  -26.7129   -3.4643 N   0  0  0  0  0  0  0  0  0  0  0  0
   15.2593  -23.1374   -0.7469 C   0  0  0  0  0  0  0  0  0  0  0  0
   16.1180  -22.2216   -0.7478 O   0  0  0  0  0  0  0  0  0  0  0  0
   14.4486  -20.1967    3.5489 C   0  0  0  0  0  0  0  0  0  0  0  0
   13.4514  -21.2969    3.4415 C   0  0  2  0  0  0  0  0  0  0  0  0
   13.8026  -22.3690    4.4871 C   0  0  0  0  0  0  0  0  0  0  0  0
   13.4184  -21.9818    2.1347 C   0  0  0  0  0  0  0  0  0  0  0  0
   14.6733  -22.5811    1.6194 C   0  0  2  0  0  0  0  0  0  0  0  0
   14.5492  -23.4144    0.4531 N   0  0  0  0  0  0  0  0  0  0  0  0
   15.5056  -23.2104    2.6781 C   0  0  0  0  0  0  0  0  0  0  0  0
   16.1021  -22.4717    3.6947 O   0  0  0  0  0  0  0  0  0  0  0  0
   15.7086  -24.4509    2.7008 O   0  0  0  0  0  0  0  0  0  0  0  0
  1  2  1  0
  3  2  1  0
  4  5  1  0
  4  3  1  0
  5  1  1  0
  5  6  1  1
  6  8  1  0
  7  6  2  0
  9  8  1  0
 10 11  1  0
  9 10  1  6
 11 12  2  0
 13 12  1  0
 14 13  1  0
 15 14  2  0
 15 11  1  0
 16  9  1  0
 17 16  2  0
 19 18  1  6
 19 21  1  0
 20 19  1  0
 22 21  1  1
 22 24  1  0
 22 23  1  0
 23 16  1  0
 24 25  1  0
 26 24  2  0
M  END
$$$$
