PHL.pdb
     RDKit          3D

 26 27  0  0  1  0  0  0  0  0999 V2000
   26.4357  -37.8212  -10.9306 N   0  0  0  0  0  0  0  0  0  0  0  0
   27.5500  -38.6543  -11.3181 C   0  0  0  0  0  0  0  0  0  0  0  0
   27.9048  -39.5079  -10.1262 C   0  0  0  0  0  0  0  0  0  0  0  0
   26.8235  -39.2138   -9.1139 C   0  0  0  0  0  0  0  0  0  0  0  0
   26.3749  -37.8380   -9.4819 C   0  0  1  0  0  0  0  0  0  0  0  0
   27.2488  -36.7687   -8.9321 C   0  0  0  0  0  0  0  0  0  0  0  0
   28.2682  -36.4197   -9.5607 O   0  0  0  0  0  0  0  0  0  0  0  0
   26.9796  -36.1119   -7.7074 N   0  0  0  0  0  0  0  0  0  0  0  0
   27.7843  -35.0059   -7.2067 C   0  0  1  0  0  0  0  0  0  0  0  0
   26.8253  -33.9784   -6.5989 C   0  0  0  0  0  0  0  0  0  0  0  0
   26.2168  -33.1374   -7.6607 C   0  0  0  0  0  0  0  0  0  0  0  0
   26.4769  -33.1573   -9.0150 C   0  0  0  0  0  0  0  0  0  0  0  0
   25.7302  -32.2500   -9.6528 N   0  0  0  0  0  0  0  0  0  0  0  0
   24.9912  -31.6506   -8.6941 C   0  0  0  0  0  0  0  0  0  0  0  0
   25.2831  -32.1849   -7.4888 N   0  0  0  0  0  0  0  0  0  0  0  0
   28.7498  -35.4402   -6.1888 C   0  0  0  0  0  0  0  0  0  0  0  0
   28.4736  -36.4039   -5.4332 O   0  0  0  0  0  0  0  0  0  0  0  0
   34.3983  -34.0743   -3.9019 C   0  0  0  0  0  0  0  0  0  0  0  0
   33.4045  -35.1041   -4.3121 C   0  0  2  0  0  0  0  0  0  0  0  0
   34.1453  -36.2057   -5.0890 C   0  0  0  0  0  0  0  0  0  0  0  0
   32.3318  -34.6151   -5.1998 C   0  0  0  0  0  0  0  0  0  0  0  0
   30.9906  -35.2398   -5.0977 C   0  0  2  0  0  0  0  0  0  0  0  0
   30.0028  -34.7855   -6.0400 N   0  0  0  0  0  0  0  0  0  0  0  0
   30.4660  -35.2886   -3.7077 C   0  0  0  0  0  0  0  0  0  0  0  0
   30.7688  -36.3266   -2.8327 O   0  0  0  0  0  0  0  0  0  0  0  0
   29.7177  -34.3838   -3.2579 O   0  0  0  0  0  0  0  0  0  0  0  0
  1  2  1  0
  3  2  1  0
  4  5  1  0
  4  3  1  0
  5  1  1  0
  5  6  1  1
  6  8  1  0
  7  6  2  0
  9  8  1  0
 10 11  1  0
  9 10  1  1
 11 12  2  0
 13 12  1  0
 14 13  1  0
 15 14  2  0
 15 11  1  0
 16  9  1  0
 17 16  2  0
 19 18  1  6
 19 21  1  0
 20 19  1  0
 22 21  1  1
 22 24  1  0
 22 23  1  0
 23 16  1  0
 24 25  1  0
 26 24  2  0
M  END
$$$$
