PHL.pdb
     RDKit          3D

 26 27  0  0  1  0  0  0  0  0999 V2000
   13.7860  -21.8937   -0.4361 N   0  0  0  0  0  0  0  0  0  0  0  0
   15.1030  -22.1785   -0.9560 C   0  0  0  0  0  0  0  0  0  0  0  0
   15.8830  -22.8488    0.1474 C   0  0  0  0  0  0  0  0  0  0  0  0
   14.8735  -23.0619    1.2500 C   0  0  0  0  0  0  0  0  0  0  0  0
   13.8700  -21.9828    1.0088 C   0  0  1  0  0  0  0  0  0  0  0  0
   14.2766  -20.6671    1.5683 C   0  0  0  0  0  0  0  0  0  0  0  0
   15.0522  -19.9340    0.9224 O   0  0  0  0  0  0  0  0  0  0  0  0
   13.8206  -20.1923    2.8215 N   0  0  0  0  0  0  0  0  0  0  0  0
   14.1092  -18.8527    3.3152 C   0  0  1  0  0  0  0  0  0  0  0  0
   13.1401  -18.5687    4.4662 C   0  0  0  0  0  0  0  0  0  0  0  0
   13.2183  -17.1440    4.8776 C   0  0  0  0  0  0  0  0  0  0  0  0
   13.8013  -16.0938    4.1999 C   0  0  0  0  0  0  0  0  0  0  0  0
   13.6706  -14.9558    4.8895 N   0  0  0  0  0  0  0  0  0  0  0  0
   12.9992  -15.2886    6.0133 C   0  0  0  0  0  0  0  0  0  0  0  0
   12.7244  -16.6106    6.0090 N   0  0  0  0  0  0  0  0  0  0  0  0
   15.4920  -18.7249    3.7933 C   0  0  0  0  0  0  0  0  0  0  0  0
   16.1225  -19.7436    4.1685 O   0  0  0  0  0  0  0  0  0  0  0  0
   19.0473  -17.7363    1.6422 C   0  0  0  0  0  0  0  0  0  0  0  0
   18.4114  -16.4999    2.1745 C   0  0  2  0  0  0  0  0  0  0  0  0
   19.2207  -15.2899    1.6776 C   0  0  0  0  0  0  0  0  0  0  0  0
   18.3749  -16.4030    3.6466 C   0  0  0  0  0  0  0  0  0  0  0  0
   17.4571  -17.2991    4.3910 C   0  0  2  0  0  0  0  0  0  0  0  0
   16.1375  -17.4593    3.8403 N   0  0  0  0  0  0  0  0  0  0  0  0
   17.4313  -17.0353    5.8537 C   0  0  0  0  0  0  0  0  0  0  0  0
   18.5505  -17.2063    6.6617 O   0  0  0  0  0  0  0  0  0  0  0  0
   16.3854  -16.6420    6.4299 O   0  0  0  0  0  0  0  0  0  0  0  0
  1  2  1  0
  3  2  1  0
  4  5  1  0
  4  3  1  0
  5  1  1  0
  5  6  1  6
  6  8  1  0
  7  6  2  0
  9  8  1  0
 10 11  1  0
  9 10  1  1
 11 12  2  0
 13 12  1  0
 14 13  1  0
 15 14  2  0
 15 11  1  0
 16  9  1  0
 17 16  2  0
 19 18  1  1
 19 21  1  0
 20 19  1  0
 22 21  1  6
 22 24  1  0
 22 23  1  0
 23 16  1  0
 24 25  1  0
 26 24  2  0
M  END
$$$$
