PHL.pdb
     RDKit          3D

 26 27  0  0  1  0  0  0  0  0999 V2000
   28.0744  -21.2769  -14.7573 N   0  0  0  0  0  0  0  0  0  0  0  0
   27.1226  -21.0600  -15.8217 C   0  0  0  0  0  0  0  0  0  0  0  0
   27.1308  -19.5843  -16.1340 C   0  0  0  0  0  0  0  0  0  0  0  0
   28.2545  -19.0253  -15.2943 C   0  0  0  0  0  0  0  0  0  0  0  0
   28.3402  -19.9854  -14.1539 C   0  0  1  0  0  0  0  0  0  0  0  0
   27.3425  -19.7180  -13.0850 C   0  0  0  0  0  0  0  0  0  0  0  0
   27.1015  -18.5422  -12.7449 O   0  0  0  0  0  0  0  0  0  0  0  0
   26.6369  -20.7486  -12.4187 N   0  0  0  0  0  0  0  0  0  0  0  0
   25.7025  -20.4951  -11.3305 C   0  0  1  0  0  0  0  0  0  0  0  0
   24.3986  -21.2246  -11.6655 C   0  0  0  0  0  0  0  0  0  0  0  0
   23.6575  -20.5088  -12.7349 C   0  0  0  0  0  0  0  0  0  0  0  0
   24.0189  -19.3509  -13.3914 C   0  0  0  0  0  0  0  0  0  0  0  0
   23.0930  -19.0109  -14.2939 N   0  0  0  0  0  0  0  0  0  0  0  0
   22.1373  -19.9617  -14.2081 C   0  0  0  0  0  0  0  0  0  0  0  0
   22.4758  -20.8685  -13.2665 N   0  0  0  0  0  0  0  0  0  0  0  0
   26.2147  -20.9709  -10.0390 C   0  0  0  0  0  0  0  0  0  0  0  0
   26.6599  -22.1399   -9.9330 O   0  0  0  0  0  0  0  0  0  0  0  0
   29.4303  -20.3926   -6.6232 C   0  0  0  0  0  0  0  0  0  0  0  0
   28.4122  -19.3219   -6.8064 C   0  0  2  0  0  0  0  0  0  0  0  0
   28.7018  -18.2033   -5.7912 C   0  0  0  0  0  0  0  0  0  0  0  0
   27.0168  -19.7441   -6.5772 C   0  0  0  0  0  0  0  0  0  0  0  0
   26.3815  -20.6499   -7.5649 C   0  0  2  0  0  0  0  0  0  0  0  0
   26.2168  -20.1268   -8.8951 N   0  0  0  0  0  0  0  0  0  0  0  0
   25.1470  -21.3044   -7.0576 C   0  0  0  0  0  0  0  0  0  0  0  0
   23.9267  -21.2071   -7.7179 O   0  0  0  0  0  0  0  0  0  0  0  0
   25.1526  -21.9815   -5.9982 O   0  0  0  0  0  0  0  0  0  0  0  0
  1  2  1  0
  3  2  1  0
  4  5  1  0
  4  3  1  0
  5  1  1  0
  5  6  1  1
  6  8  1  0
  7  6  2  0
  9  8  1  0
 10 11  1  0
  9 10  1  6
 11 12  2  0
 13 12  1  0
 14 13  1  0
 15 14  2  0
 15 11  1  0
 16  9  1  0
 17 16  2  0
 19 18  1  1
 19 21  1  0
 20 19  1  0
 22 21  1  1
 22 24  1  0
 22 23  1  0
 23 16  1  0
 24 25  1  0
 26 24  2  0
M  END
$$$$
