PHL.pdb
     RDKit          3D

 26 27  0  0  1  0  0  0  0  0999 V2000
   28.1038  -21.8430  -15.7048 N   0  0  0  0  0  0  0  0  0  0  0  0
   27.1761  -21.6844  -16.8002 C   0  0  0  0  0  0  0  0  0  0  0  0
   27.3065  -20.2649  -17.2935 C   0  0  0  0  0  0  0  0  0  0  0  0
   28.4700  -19.6984  -16.5152 C   0  0  0  0  0  0  0  0  0  0  0  0
   28.4731  -20.5121  -15.2632 C   0  0  1  0  0  0  0  0  0  0  0  0
   27.4978  -20.0330  -14.2490 C   0  0  0  0  0  0  0  0  0  0  0  0
   27.4737  -18.8254  -13.9372 O   0  0  0  0  0  0  0  0  0  0  0  0
   26.5758  -20.8926  -13.6050 N   0  0  0  0  0  0  0  0  0  0  0  0
   25.5547  -20.4135  -12.6834 C   0  0  1  0  0  0  0  0  0  0  0  0
   24.1974  -20.8752  -13.2214 C   0  0  0  0  0  0  0  0  0  0  0  0
   23.8480  -20.1392  -14.4628 C   0  0  0  0  0  0  0  0  0  0  0  0
   23.6664  -20.6491  -15.7313 C   0  0  0  0  0  0  0  0  0  0  0  0
   23.3594  -19.6740  -16.5930 N   0  0  0  0  0  0  0  0  0  0  0  0
   23.3464  -18.5371  -15.8637 C   0  0  0  0  0  0  0  0  0  0  0  0
   23.6414  -18.8151  -14.5756 N   0  0  0  0  0  0  0  0  0  0  0  0
   25.7480  -20.9339  -11.3238 C   0  0  0  0  0  0  0  0  0  0  0  0
   25.9871  -22.1535  -11.1472 O   0  0  0  0  0  0  0  0  0  0  0  0
   28.6541  -20.7770   -7.8567 C   0  0  0  0  0  0  0  0  0  0  0  0
   27.8080  -19.5597   -7.9934 C   0  0  2  0  0  0  0  0  0  0  0  0
   28.2218  -18.5602   -6.8999 C   0  0  0  0  0  0  0  0  0  0  0  0
   26.3593  -19.7866   -7.8263 C   0  0  0  0  0  0  0  0  0  0  0  0
   25.6478  -20.5912   -8.8490 C   0  0  2  0  0  0  0  0  0  0  0  0
   25.6692  -20.0767  -10.1925 N   0  0  0  0  0  0  0  0  0  0  0  0
   24.2865  -21.0131   -8.4266 C   0  0  0  0  0  0  0  0  0  0  0  0
   23.1559  -20.7628   -9.1972 O   0  0  0  0  0  0  0  0  0  0  0  0
   24.0960  -21.6211   -7.3426 O   0  0  0  0  0  0  0  0  0  0  0  0
  1  2  1  0
  3  2  1  0
  4  5  1  0
  4  3  1  0
  5  1  1  0
  5  6  1  1
  6  8  1  0
  7  6  2  0
  9  8  1  0
 10 11  1  0
  9 10  1  6
 11 12  2  0
 13 12  1  0
 14 13  1  0
 15 14  2  0
 15 11  1  0
 16  9  1  0
 17 16  2  0
 19 18  1  1
 19 21  1  0
 20 19  1  0
 22 21  1  1
 22 24  1  0
 22 23  1  0
 23 16  1  0
 24 25  1  0
 26 24  2  0
M  END
$$$$
