PHL.pdb
     RDKit          3D

 26 27  0  0  1  0  0  0  0  0999 V2000
   28.4743  -21.8507  -12.8065 N   0  0  0  0  0  0  0  0  0  0  0  0
   29.4263  -21.1318  -13.6205 C   0  0  0  0  0  0  0  0  0  0  0  0
   29.7327  -19.8368  -12.9103 C   0  0  0  0  0  0  0  0  0  0  0  0
   29.0202  -19.9540  -11.5840 C   0  0  0  0  0  0  0  0  0  0  0  0
   27.8996  -20.8955  -11.8792 C   0  0  1  0  0  0  0  0  0  0  0  0
   26.7261  -20.2331  -12.5067 C   0  0  0  0  0  0  0  0  0  0  0  0
   26.3108  -19.1493  -12.0497 O   0  0  0  0  0  0  0  0  0  0  0  0
   26.0407  -20.7788  -13.6186 N   0  0  0  0  0  0  0  0  0  0  0  0
   24.9440  -20.0938  -14.2889 C   0  0  1  0  0  0  0  0  0  0  0  0
   25.1686  -20.2334  -15.7971 C   0  0  0  0  0  0  0  0  0  0  0  0
   26.3356  -19.4236  -16.2303 C   0  0  0  0  0  0  0  0  0  0  0  0
   27.5755  -19.8689  -16.6380 C   0  0  0  0  0  0  0  0  0  0  0  0
   28.3680  -18.8387  -16.9513 N   0  0  0  0  0  0  0  0  0  0  0  0
   27.6233  -17.7317  -16.7401 C   0  0  0  0  0  0  0  0  0  0  0  0
   26.3942  -18.0821  -16.3043 N   0  0  0  0  0  0  0  0  0  0  0  0
   23.6369  -20.6599  -13.9316 C   0  0  0  0  0  0  0  0  0  0  0  0
   23.5155  -21.8973  -13.7583 O   0  0  0  0  0  0  0  0  0  0  0  0
   21.5367  -21.4524  -10.3682 C   0  0  0  0  0  0  0  0  0  0  0  0
   21.4873  -20.0323  -10.8128 C   0  0  2  0  0  0  0  0  0  0  0  0
   20.8099  -19.2050   -9.7072 C   0  0  0  0  0  0  0  0  0  0  0  0
   20.7150  -19.7931  -12.0474 C   0  0  0  0  0  0  0  0  0  0  0  0
   21.2321  -20.3465  -13.3225 C   0  0  2  0  0  0  0  0  0  0  0  0
   22.4949  -19.8275  -13.7764 N   0  0  0  0  0  0  0  0  0  0  0  0
   20.2145  -20.3853  -14.4053 C   0  0  0  0  0  0  0  0  0  0  0  0
   20.4387  -19.8268  -15.6593 O   0  0  0  0  0  0  0  0  0  0  0  0
   19.0949  -20.9307  -14.2327 O   0  0  0  0  0  0  0  0  0  0  0  0
  1  2  1  0
  3  2  1  0
  4  5  1  0
  4  3  1  0
  5  1  1  0
  5  6  1  6
  6  8  1  0
  7  6  2  0
  9  8  1  0
 10 11  1  0
  9 10  1  6
 11 12  2  0
 13 12  1  0
 14 13  1  0
 15 14  2  0
 15 11  1  0
 16  9  1  0
 17 16  2  0
 19 18  1  1
 19 21  1  0
 20 19  1  0
 22 21  1  1
 22 24  1  0
 22 23  1  0
 23 16  1  0
 24 25  1  0
 26 24  2  0
M  END
$$$$
