PHL.pdb
     RDKit          3D

 26 27  0  0  1  0  0  0  0  0999 V2000
   20.4019  -32.6390  -12.2052 N   0  0  0  0  0  0  0  0  0  0  0  0
   19.1493  -33.0679  -11.6284 C   0  0  0  0  0  0  0  0  0  0  0  0
   18.8298  -32.1196  -10.4997 C   0  0  0  0  0  0  0  0  0  0  0  0
   19.8931  -31.0511  -10.5897 C   0  0  0  0  0  0  0  0  0  0  0  0
   21.0347  -31.7581  -11.2427 C   0  0  1  0  0  0  0  0  0  0  0  0
   21.8502  -32.5589  -10.2924 C   0  0  0  0  0  0  0  0  0  0  0  0
   21.6442  -33.7842  -10.1816 O   0  0  0  0  0  0  0  0  0  0  0  0
   22.8696  -31.9926   -9.4899 N   0  0  0  0  0  0  0  0  0  0  0  0
   23.7393  -32.7878   -8.6339 C   0  0  1  0  0  0  0  0  0  0  0  0
   25.1668  -32.2649   -8.8171 C   0  0  0  0  0  0  0  0  0  0  0  0
   26.1338  -33.1089   -8.0704 C   0  0  0  0  0  0  0  0  0  0  0  0
   25.8723  -34.2190   -7.2949 C   0  0  0  0  0  0  0  0  0  0  0  0
   27.0032  -34.7136   -6.7811 N   0  0  0  0  0  0  0  0  0  0  0  0
   27.9891  -33.9097   -7.2353 C   0  0  0  0  0  0  0  0  0  0  0  0
   27.4667  -32.9388   -8.0149 N   0  0  0  0  0  0  0  0  0  0  0  0
   23.3589  -32.6944   -7.2185 C   0  0  0  0  0  0  0  0  0  0  0  0
   23.1162  -31.5739   -6.7070 O   0  0  0  0  0  0  0  0  0  0  0  0
   19.7821  -32.8603   -5.1747 C   0  0  0  0  0  0  0  0  0  0  0  0
   20.3126  -34.2202   -5.4676 C   0  0  2  0  0  0  0  0  0  0  0  0
   19.2552  -35.2520   -5.0397 C   0  0  0  0  0  0  0  0  0  0  0  0
   21.5542  -34.5716   -4.7513 C   0  0  0  0  0  0  0  0  0  0  0  0
   22.7849  -33.8000   -5.0506 C   0  0  2  0  0  0  0  0  0  0  0  0
   23.2587  -33.8578   -6.4079 N   0  0  0  0  0  0  0  0  0  0  0  0
   23.8734  -34.0173   -4.0618 C   0  0  0  0  0  0  0  0  0  0  0  0
   23.6981  -33.7960   -2.6998 O   0  0  0  0  0  0  0  0  0  0  0  0
   25.0118  -34.4148   -4.4177 O   0  0  0  0  0  0  0  0  0  0  0  0
  1  2  1  0
  3  2  1  0
  4  5  1  0
  4  3  1  0
  5  1  1  0
  5  6  1  1
  6  8  1  0
  7  6  2  0
  9  8  1  0
 10 11  1  0
  9 10  1  1
 11 12  2  0
 13 12  1  0
 14 13  1  0
 15 14  2  0
 15 11  1  0
 16  9  1  0
 17 16  2  0
 19 18  1  1
 19 21  1  0
 20 19  1  0
 22 21  1  6
 22 24  1  0
 22 23  1  0
 23 16  1  0
 24 25  1  0
 26 24  2  0
M  END
$$$$
