PHL.pdb
     RDKit          3D

 26 27  0  0  1  0  0  0  0  0999 V2000
   21.8089  -22.3257   -9.4582 N   0  0  0  0  0  0  0  0  0  0  0  0
   21.3783  -21.5688  -10.6103 C   0  0  0  0  0  0  0  0  0  0  0  0
   20.6820  -20.3328  -10.0975 C   0  0  0  0  0  0  0  0  0  0  0  0
   20.8936  -20.3710   -8.6028 C   0  0  0  0  0  0  0  0  0  0  0  0
   21.0644  -21.8268   -8.3182 C   0  0  1  0  0  0  0  0  0  0  0  0
   19.7753  -22.5579   -8.2039 C   0  0  0  0  0  0  0  0  0  0  0  0
   18.7101  -21.9833   -8.5063 O   0  0  0  0  0  0  0  0  0  0  0  0
   19.6908  -23.8997   -7.7606 N   0  0  0  0  0  0  0  0  0  0  0  0
   18.4255  -24.5649   -7.4816 C   0  0  1  0  0  0  0  0  0  0  0  0
   18.2402  -25.6602   -8.5355 C   0  0  0  0  0  0  0  0  0  0  0  0
   17.9963  -25.0640   -9.8735 C   0  0  0  0  0  0  0  0  0  0  0  0
   16.8005  -24.6300  -10.4061 C   0  0  0  0  0  0  0  0  0  0  0  0
   16.9795  -24.1519  -11.6418 N   0  0  0  0  0  0  0  0  0  0  0  0
   18.3000  -24.2845  -11.8936 C   0  0  0  0  0  0  0  0  0  0  0  0
   18.9173  -24.8356  -10.8266 N   0  0  0  0  0  0  0  0  0  0  0  0
   18.3984  -25.1629   -6.1405 C   0  0  0  0  0  0  0  0  0  0  0  0
   19.4726  -25.4782   -5.5726 O   0  0  0  0  0  0  0  0  0  0  0  0
   14.5484  -25.4648   -1.3724 C   0  0  0  0  0  0  0  0  0  0  0  0
   15.9407  -25.6696   -1.8582 C   0  0  2  0  0  0  0  0  0  0  0  0
   16.9006  -24.9806   -0.8734 C   0  0  0  0  0  0  0  0  0  0  0  0
   16.2259  -25.0990   -3.1890 C   0  0  0  0  0  0  0  0  0  0  0  0
   17.1246  -25.8477   -4.1008 C   0  0  2  0  0  0  0  0  0  0  0  0
   17.1688  -25.3943   -5.4656 N   0  0  0  0  0  0  0  0  0  0  0  0
   16.9731  -27.3230   -3.9996 C   0  0  0  0  0  0  0  0  0  0  0  0
   16.3279  -28.0747   -4.9760 O   0  0  0  0  0  0  0  0  0  0  0  0
   17.4265  -27.9621   -3.0164 O   0  0  0  0  0  0  0  0  0  0  0  0
  1  2  1  0
  3  2  1  0
  4  5  1  0
  4  3  1  0
  5  1  1  0
  5  6  1  6
  6  8  1  0
  7  6  2  0
  9  8  1  0
 10 11  1  0
  9 10  1  6
 11 12  2  0
 13 12  1  0
 14 13  1  0
 15 14  2  0
 15 11  1  0
 16  9  1  0
 17 16  2  0
 19 18  1  1
 19 21  1  0
 20 19  1  0
 22 21  1  1
 22 24  1  0
 22 23  1  0
 23 16  1  0
 24 25  1  0
 26 24  2  0
M  END
$$$$
