PHL.pdb
     RDKit          3D

 26 27  0  0  1  0  0  0  0  0999 V2000
   18.1665  -12.7070  -16.0162 N   0  0  0  0  0  0  0  0  0  0  0  0
   17.1116  -13.0454  -16.9427 C   0  0  0  0  0  0  0  0  0  0  0  0
   17.7695  -13.4819  -18.2280 C   0  0  0  0  0  0  0  0  0  0  0  0
   19.2444  -13.5182  -17.9058 C   0  0  0  0  0  0  0  0  0  0  0  0
   19.3767  -12.5291  -16.7950 C   0  0  1  0  0  0  0  0  0  0  0  0
   19.4647  -11.1229  -17.2685 C   0  0  0  0  0  0  0  0  0  0  0  0
   20.3526  -10.7995  -18.0828 O   0  0  0  0  0  0  0  0  0  0  0  0
   18.5756  -10.1102  -16.8349 N   0  0  0  0  0  0  0  0  0  0  0  0
   18.6211   -8.7449  -17.3402 C   0  0  1  0  0  0  0  0  0  0  0  0
   17.2525   -8.4365  -17.9539 C   0  0  0  0  0  0  0  0  0  0  0  0
   17.0303   -9.2513  -19.1753 C   0  0  0  0  0  0  0  0  0  0  0  0
   16.0002  -10.1306  -19.4354 C   0  0  0  0  0  0  0  0  0  0  0  0
   16.1415  -10.6790  -20.6465 N   0  0  0  0  0  0  0  0  0  0  0  0
   17.2709  -10.1422  -21.1575 C   0  0  0  0  0  0  0  0  0  0  0  0
   17.8104   -9.2788  -20.2705 N   0  0  0  0  0  0  0  0  0  0  0  0
   18.9156   -7.7719  -16.2803 C   0  0  0  0  0  0  0  0  0  0  0  0
   18.2927   -7.8228  -15.1916 O   0  0  0  0  0  0  0  0  0  0  0  0
   22.7563   -2.9433  -15.1135 C   0  0  0  0  0  0  0  0  0  0  0  0
   21.6755   -3.8747  -14.6881 C   0  0  2  0  0  0  0  0  0  0  0  0
   22.0809   -4.5003  -13.3427 C   0  0  0  0  0  0  0  0  0  0  0  0
   21.4217   -4.9971  -15.6120 C   0  0  0  0  0  0  0  0  0  0  0  0
   20.1617   -5.7647  -15.4616 C   0  0  2  0  0  0  0  0  0  0  0  0
   19.9011   -6.7639  -16.4635 N   0  0  0  0  0  0  0  0  0  0  0  0
   18.9763   -4.9081  -15.1953 C   0  0  0  0  0  0  0  0  0  0  0  0
   18.2502   -4.3025  -16.2154 O   0  0  0  0  0  0  0  0  0  0  0  0
   18.5745   -4.6917  -14.0238 O   0  0  0  0  0  0  0  0  0  0  0  0
  1  2  1  0
  3  2  1  0
  4  5  1  0
  4  3  1  0
  5  1  1  0
  5  6  1  6
  6  8  1  0
  7  6  2  0
  9  8  1  0
 10 11  1  0
  9 10  1  1
 11 12  2  0
 13 12  1  0
 14 13  1  0
 15 14  2  0
 15 11  1  0
 16  9  1  0
 17 16  2  0
 19 18  1  6
 19 21  1  0
 20 19  1  0
 22 21  1  6
 22 24  1  0
 22 23  1  0
 23 16  1  0
 24 25  1  0
 26 24  2  0
M  END
$$$$
