PHL.pdb
     RDKit          3D

 26 27  0  0  1  0  0  0  0  0999 V2000
   27.0294  -17.5711  -15.0080 N   0  0  0  0  0  0  0  0  0  0  0  0
   28.2444  -17.8136  -15.7501 C   0  0  0  0  0  0  0  0  0  0  0  0
   27.8806  -17.8148  -17.2140 C   0  0  0  0  0  0  0  0  0  0  0  0
   26.4286  -17.4009  -17.2441 C   0  0  0  0  0  0  0  0  0  0  0  0
   25.9219  -17.8313  -15.9071 C   0  0  1  0  0  0  0  0  0  0  0  0
   25.5609  -19.2722  -15.8522 C   0  0  0  0  0  0  0  0  0  0  0  0
   24.7305  -19.7324  -16.6614 O   0  0  0  0  0  0  0  0  0  0  0  0
   26.1213  -20.1683  -14.9104 N   0  0  0  0  0  0  0  0  0  0  0  0
   25.7053  -21.5592  -14.7938 C   0  0  1  0  0  0  0  0  0  0  0  0
   26.9740  -22.4141  -14.7287 C   0  0  0  0  0  0  0  0  0  0  0  0
   27.7569  -22.2863  -15.9839 C   0  0  0  0  0  0  0  0  0  0  0  0
   27.4791  -22.8333  -17.2191 C   0  0  0  0  0  0  0  0  0  0  0  0
   28.4192  -22.4953  -18.1078 N   0  0  0  0  0  0  0  0  0  0  0  0
   29.2996  -21.7277  -17.4293 C   0  0  0  0  0  0  0  0  0  0  0  0
   28.9020  -21.5996  -16.1452 N   0  0  0  0  0  0  0  0  0  0  0  0
   24.8912  -21.7948  -13.5944 C   0  0  0  0  0  0  0  0  0  0  0  0
   24.3789  -22.9236  -13.3959 O   0  0  0  0  0  0  0  0  0  0  0  0
   26.1151  -22.0136   -9.5092 C   0  0  0  0  0  0  0  0  0  0  0  0
   25.7468  -20.6186   -9.8767 C   0  0  2  0  0  0  0  0  0  0  0  0
   26.0447  -19.7089   -8.6727 C   0  0  0  0  0  0  0  0  0  0  0  0
   24.3234  -20.4182  -10.2107 C   0  0  0  0  0  0  0  0  0  0  0  0
   23.8184  -20.9508  -11.4994 C   0  0  2  0  0  0  0  0  0  0  0  0
   24.6690  -20.7610  -12.6442 N   0  0  0  0  0  0  0  0  0  0  0  0
   22.4053  -20.5828  -11.7776 C   0  0  0  0  0  0  0  0  0  0  0  0
   22.0145  -19.9689  -12.9630 O   0  0  0  0  0  0  0  0  0  0  0  0
   21.4923  -20.8129  -10.9443 O   0  0  0  0  0  0  0  0  0  0  0  0
  1  2  1  0
  3  2  1  0
  4  5  1  0
  4  3  1  0
  5  1  1  0
  5  6  1  6
  6  8  1  0
  7  6  2  0
  9  8  1  0
 10 11  1  0
  9 10  1  1
 11 12  2  0
 13 12  1  0
 14 13  1  0
 15 14  2  0
 15 11  1  0
 16  9  1  0
 17 16  2  0
 19 18  1  1
 19 21  1  0
 20 19  1  0
 22 21  1  1
 22 24  1  0
 22 23  1  0
 23 16  1  0
 24 25  1  0
 26 24  2  0
M  END
$$$$
