KSH.pdb
     RDKit          3D

 26 26  0  0  1  0  0  0  0  0999 V2000
    6.9275  -16.3274   20.7119 N   0  0  0  0  0  0  0  0  0  0  0  0
    8.0173  -15.6345   21.3056 C   0  0  1  0  0  0  0  0  0  0  0  0
    7.8501  -14.1759   21.3098 C   0  0  0  0  0  0  0  0  0  0  0  0
    7.8535  -13.3862   20.0983 C   0  0  0  0  0  0  0  0  0  0  0  0
    8.4567  -13.6899   18.8213 C   0  0  0  0  0  0  0  0  0  0  0  0
    8.3988  -12.8345   17.6297 C   0  0  0  0  0  0  0  0  0  0  0  0
    9.1017  -13.6516   16.5626 N   0  0  0  0  0  0  0  0  0  0  0  0
    8.2007  -16.1834   22.7050 C   0  0  0  0  0  0  0  0  0  0  0  0
    7.1932  -16.3209   23.4257 O   0  0  0  0  0  0  0  0  0  0  0  0
   11.9475  -17.4249   23.8643 O   0  0  0  0  0  0  0  0  0  0  0  0
   10.8434  -18.0847   24.3565 C   0  0  0  0  0  0  0  0  0  0  0  0
    9.6990  -17.0889   24.5345 C   0  0  2  0  0  0  0  0  0  0  0  0
    9.4635  -16.5405   23.2123 N   0  0  0  0  0  0  0  0  0  0  0  0
   10.0091  -16.0561   25.5289 C   0  0  0  0  0  0  0  0  0  0  0  0
   10.8006  -15.1172   25.2012 O   0  0  0  0  0  0  0  0  0  0  0  0
    9.4949  -16.0117   26.8476 N   0  0  0  0  0  0  0  0  0  0  0  0
    9.8600  -14.9853   27.8191 C   0  0  1  0  0  0  0  0  0  0  0  0
    8.6628  -14.4074   28.4889 C   0  0  0  0  0  0  0  0  0  0  0  0
    7.7461  -13.7482   27.5434 C   0  0  0  0  0  0  0  0  0  0  0  0
    8.0311  -13.6020   26.1956 C   0  0  0  0  0  0  0  0  0  0  0  0
    7.0011  -12.9602   25.5698 N   0  0  0  0  0  0  0  0  0  0  0  0
    6.0814  -12.7119   26.5365 C   0  0  0  0  0  0  0  0  0  0  0  0
    6.5402  -13.1845   27.6931 N   0  0  0  0  0  0  0  0  0  0  0  0
   10.8110  -15.4859   28.8125 C   0  0  0  0  0  0  0  0  0  0  0  0
   11.1186  -16.6952   28.8314 O   0  0  0  0  0  0  0  0  0  0  0  0
   11.3866  -14.6421   29.7448 O   0  0  0  0  0  0  0  0  0  0  0  0
  2  8  1  0
  2  1  1  1
  3  2  1  0
  4  3  1  0
  5  6  1  0
  5  4  1  0
  7  6  1  0
  8  9  2  0
 10 11  1  0
 12 11  1  6
 13 12  1  0
 13  8  1  0
 14 15  2  0
 14 12  1  0
 16 14  1  0
 17 24  1  0
 17 16  1  0
 17 18  1  1
 19 18  1  0
 20 19  2  0
 21 20  1  0
 22 21  1  0
 22 23  2  0
 23 19  1  0
 24 26  1  0
 25 24  2  0
M  END
$$$$
