KSH.pdb
     RDKit          3D

 26 26  0  0  1  0  0  0  0  0999 V2000
   12.8730  -16.6381   14.6784 N   0  0  0  0  0  0  0  0  0  0  0  0
   12.2261  -16.7133   15.9418 C   0  0  1  0  0  0  0  0  0  0  0  0
   11.9573  -18.0885   16.3800 C   0  0  0  0  0  0  0  0  0  0  0  0
   12.2305  -19.2401   15.5490 C   0  0  0  0  0  0  0  0  0  0  0  0
   13.3334  -20.1700   15.6247 C   0  0  0  0  0  0  0  0  0  0  0  0
   13.5026  -21.3578   14.7788 C   0  0  0  0  0  0  0  0  0  0  0  0
   14.8362  -21.9299   15.2200 N   0  0  0  0  0  0  0  0  0  0  0  0
   13.0825  -15.9625   16.9398 C   0  0  0  0  0  0  0  0  0  0  0  0
   14.2997  -15.8381   16.7027 O   0  0  0  0  0  0  0  0  0  0  0  0
   11.5428  -14.9865   20.6786 O   0  0  0  0  0  0  0  0  0  0  0  0
   12.3043  -14.0382   20.0324 C   0  0  0  0  0  0  0  0  0  0  0  0
   13.3298  -14.7366   19.1416 C   0  0  2  0  0  0  0  0  0  0  0  0
   12.5502  -15.4050   18.1168 N   0  0  0  0  0  0  0  0  0  0  0  0
   14.1848  -15.6602   19.8951 C   0  0  0  0  0  0  0  0  0  0  0  0
   14.0055  -16.9098   19.7472 O   0  0  0  0  0  0  0  0  0  0  0  0
   15.2121  -15.2754   20.7906 N   0  0  0  0  0  0  0  0  0  0  0  0
   16.0411  -16.2290   21.5212 C   0  0  1  0  0  0  0  0  0  0  0  0
   16.7740  -17.1421   20.6020 C   0  0  0  0  0  0  0  0  0  0  0  0
   15.9898  -18.3361   20.2435 C   0  0  0  0  0  0  0  0  0  0  0  0
   14.7445  -18.6101   20.7852 C   0  0  0  0  0  0  0  0  0  0  0  0
   14.2580  -19.7754   20.2656 N   0  0  0  0  0  0  0  0  0  0  0  0
   15.2076  -20.2176   19.4027 C   0  0  0  0  0  0  0  0  0  0  0  0
   16.2207  -19.3545   19.4046 N   0  0  0  0  0  0  0  0  0  0  0  0
   16.9736  -15.5599   22.4293 C   0  0  0  0  0  0  0  0  0  0  0  0
   17.0596  -14.3149   22.4331 O   0  0  0  0  0  0  0  0  0  0  0  0
   17.7740  -16.2811   23.2964 O   0  0  0  0  0  0  0  0  0  0  0  0
  2  8  1  0
  2  1  1  6
  3  2  1  0
  4  3  1  0
  5  6  1  0
  5  4  1  0
  7  6  1  0
  8  9  2  0
 10 11  1  0
 12 11  1  1
 13 12  1  0
 13  8  1  0
 14 15  2  0
 14 12  1  0
 16 14  1  0
 17 24  1  0
 17 16  1  0
 17 18  1  6
 19 18  1  0
 20 19  2  0
 21 20  1  0
 22 21  1  0
 22 23  2  0
 23 19  1  0
 24 26  1  0
 25 24  2  0
M  END
$$$$
