KSH.pdb
     RDKit          3D

 26 26  0  0  1  0  0  0  0  0999 V2000
    7.1279  -18.0868   15.8596 N   0  0  0  0  0  0  0  0  0  0  0  0
    8.3733  -17.5057   16.2221 C   0  0  1  0  0  0  0  0  0  0  0  0
    8.4794  -16.0841   15.8712 C   0  0  0  0  0  0  0  0  0  0  0  0
    8.2090  -15.5861   14.5407 C   0  0  0  0  0  0  0  0  0  0  0  0
    8.3628  -14.2445   14.0275 C   0  0  0  0  0  0  0  0  0  0  0  0
    8.0386  -13.8151   12.6617 C   0  0  0  0  0  0  0  0  0  0  0  0
    8.3636  -12.3336   12.6608 N   0  0  0  0  0  0  0  0  0  0  0  0
    8.5705  -17.7347   17.7060 C   0  0  0  0  0  0  0  0  0  0  0  0
    7.6267  -17.4748   18.4775 O   0  0  0  0  0  0  0  0  0  0  0  0
   12.2907  -18.9675   19.1726 O   0  0  0  0  0  0  0  0  0  0  0  0
   11.1356  -19.5234   19.6762 C   0  0  0  0  0  0  0  0  0  0  0  0
   10.0191  -18.4817   19.6439 C   0  0  2  0  0  0  0  0  0  0  0  0
    9.7765  -18.2284   18.2362 N   0  0  0  0  0  0  0  0  0  0  0  0
   10.3701  -17.2660   20.3857 C   0  0  0  0  0  0  0  0  0  0  0  0
   10.5607  -16.1917   19.7337 O   0  0  0  0  0  0  0  0  0  0  0  0
   10.5188  -17.1814   21.7914 N   0  0  0  0  0  0  0  0  0  0  0  0
   10.2014  -15.9840   22.5633 C   0  0  1  0  0  0  0  0  0  0  0  0
    8.7665  -15.6087   22.4361 C   0  0  0  0  0  0  0  0  0  0  0  0
    8.5139  -14.7082   21.2984 C   0  0  0  0  0  0  0  0  0  0  0  0
    9.5116  -14.2892   20.4334 C   0  0  0  0  0  0  0  0  0  0  0  0
    8.9838  -13.4686   19.4781 N   0  0  0  0  0  0  0  0  0  0  0  0
    7.6585  -13.3840   19.7577 C   0  0  0  0  0  0  0  0  0  0  0  0
    7.4020  -14.1222   20.8351 N   0  0  0  0  0  0  0  0  0  0  0  0
   10.5702  -16.1276   23.9723 C   0  0  0  0  0  0  0  0  0  0  0  0
   10.3461  -17.1986   24.5724 O   0  0  0  0  0  0  0  0  0  0  0  0
   11.1696  -15.0928   24.6669 O   0  0  0  0  0  0  0  0  0  0  0  0
  2  8  1  0
  2  1  1  1
  3  2  1  0
  4  3  1  0
  5  6  1  0
  5  4  1  0
  7  6  1  0
  8  9  2  0
 10 11  1  0
 12 11  1  6
 13 12  1  0
 13  8  1  0
 14 15  2  0
 14 12  1  0
 16 14  1  0
 17 24  1  0
 17 16  1  0
 17 18  1  1
 19 18  1  0
 20 19  2  0
 21 20  1  0
 22 21  1  0
 22 23  2  0
 23 19  1  0
 24 26  1  0
 25 24  2  0
M  END
$$$$
