KSH.pdb
     RDKit          3D

 26 26  0  0  1  0  0  0  0  0999 V2000
    8.9714  -19.3771   15.6476 N   0  0  0  0  0  0  0  0  0  0  0  0
    9.4104  -18.2004   16.3131 C   0  0  1  0  0  0  0  0  0  0  0  0
    8.4887  -17.0672   16.1661 C   0  0  0  0  0  0  0  0  0  0  0  0
    8.7306  -15.7796   16.7783 C   0  0  0  0  0  0  0  0  0  0  0  0
    8.1535  -14.4972   16.4478 C   0  0  0  0  0  0  0  0  0  0  0  0
    8.3606  -13.2533   17.1994 C   0  0  0  0  0  0  0  0  0  0  0  0
    7.4573  -12.2541   16.5025 N   0  0  0  0  0  0  0  0  0  0  0  0
    9.6377  -18.5552   17.7677 C   0  0  0  0  0  0  0  0  0  0  0  0
    8.7053  -19.0856   18.4022 O   0  0  0  0  0  0  0  0  0  0  0  0
   13.3619  -19.0232   19.0519 O   0  0  0  0  0  0  0  0  0  0  0  0
   12.3250  -19.6144   19.7390 C   0  0  0  0  0  0  0  0  0  0  0  0
   11.1447  -18.6469   19.8005 C   0  0  2  0  0  0  0  0  0  0  0  0
   10.8597  -18.3070   18.4193 N   0  0  0  0  0  0  0  0  0  0  0  0
   11.4327  -17.4689   20.6257 C   0  0  0  0  0  0  0  0  0  0  0  0
   12.0503  -16.4931   20.0949 O   0  0  0  0  0  0  0  0  0  0  0  0
   11.0768  -17.3196   21.9883 N   0  0  0  0  0  0  0  0  0  0  0  0
   11.3647  -16.1198   22.7679 C   0  0  1  0  0  0  0  0  0  0  0  0
   10.1894  -15.6888   23.5734 C   0  0  0  0  0  0  0  0  0  0  0  0
    9.0573  -15.2538   22.7379 C   0  0  0  0  0  0  0  0  0  0  0  0
    9.1280  -15.1719   21.3568 C   0  0  0  0  0  0  0  0  0  0  0  0
    7.9316  -14.7462   20.8548 N   0  0  0  0  0  0  0  0  0  0  0  0
    7.1246  -14.5665   21.9310 C   0  0  0  0  0  0  0  0  0  0  0  0
    7.8077  -14.8712   23.0319 N   0  0  0  0  0  0  0  0  0  0  0  0
   12.5377  -16.2932   23.6258 C   0  0  0  0  0  0  0  0  0  0  0  0
   12.9810  -15.3294   24.2830 O   0  0  0  0  0  0  0  0  0  0  0  0
   13.1777  -17.5148   23.7292 O   0  0  0  0  0  0  0  0  0  0  0  0
  2  8  1  0
  2  1  1  6
  3  2  1  0
  4  3  1  0
  5  6  1  0
  5  4  1  0
  7  6  1  0
  8  9  2  0
 10 11  1  0
 12 11  1  6
 13 12  1  0
 13  8  1  0
 14 15  2  0
 14 12  1  0
 16 14  1  0
 17 24  1  0
 17 16  1  0
 17 18  1  1
 19 18  1  0
 20 19  2  0
 21 20  1  0
 22 21  1  0
 22 23  2  0
 23 19  1  0
 24 26  1  0
 25 24  2  0
M  END
$$$$
