KSH.pdb
     RDKit          3D

 26 26  0  0  1  0  0  0  0  0999 V2000
    7.8601  -12.7063   17.8332 N   0  0  0  0  0  0  0  0  0  0  0  0
    7.6088  -13.9208   18.5275 C   0  0  1  0  0  0  0  0  0  0  0  0
    7.9138  -15.1199   17.7372 C   0  0  0  0  0  0  0  0  0  0  0  0
    8.7915  -15.0952   16.5882 C   0  0  0  0  0  0  0  0  0  0  0  0
    8.5432  -15.5758   15.2487 C   0  0  0  0  0  0  0  0  0  0  0  0
    9.4750  -15.4643   14.1198 C   0  0  0  0  0  0  0  0  0  0  0  0
    8.6830  -15.9991   12.9420 N   0  0  0  0  0  0  0  0  0  0  0  0
    8.3999  -13.8821   19.8183 C   0  0  0  0  0  0  0  0  0  0  0  0
    9.5741  -13.4657   19.7828 O   0  0  0  0  0  0  0  0  0  0  0  0
    6.6881  -15.3568   23.2734 O   0  0  0  0  0  0  0  0  0  0  0  0
    7.4171  -14.1923   23.3694 C   0  0  0  0  0  0  0  0  0  0  0  0
    8.5323  -14.2082   22.3258 C   0  0  2  0  0  0  0  0  0  0  0  0
    7.8541  -14.2980   21.0466 N   0  0  0  0  0  0  0  0  0  0  0  0
    9.4813  -15.3056   22.5418 C   0  0  0  0  0  0  0  0  0  0  0  0
    9.2745  -16.4113   21.9502 O   0  0  0  0  0  0  0  0  0  0  0  0
   10.6300  -15.2411   23.3676 N   0  0  0  0  0  0  0  0  0  0  0  0
   11.5045  -16.3822   23.6196 C   0  0  1  0  0  0  0  0  0  0  0  0
   12.9422  -16.0091   23.5218 C   0  0  0  0  0  0  0  0  0  0  0  0
   13.3514  -15.6820   22.1454 C   0  0  0  0  0  0  0  0  0  0  0  0
   12.4755  -15.7088   21.0724 C   0  0  0  0  0  0  0  0  0  0  0  0
   13.1318  -15.3574   19.9278 N   0  0  0  0  0  0  0  0  0  0  0  0
   14.4142  -15.1142   20.2996 C   0  0  0  0  0  0  0  0  0  0  0  0
   14.5227  -15.3116   21.6113 N   0  0  0  0  0  0  0  0  0  0  0  0
   11.2252  -17.0106   24.9115 C   0  0  0  0  0  0  0  0  0  0  0  0
   10.3465  -16.5378   25.6611 O   0  0  0  0  0  0  0  0  0  0  0  0
   11.9192  -18.1311   25.3302 O   0  0  0  0  0  0  0  0  0  0  0  0
  2  8  1  0
  2  1  1  6
  3  2  1  0
  4  3  1  0
  5  6  1  0
  5  4  1  0
  7  6  1  0
  8  9  2  0
 10 11  1  0
 12 11  1  1
 13 12  1  0
 13  8  1  0
 14 15  2  0
 14 12  1  0
 16 14  1  0
 17 24  1  0
 17 16  1  0
 17 18  1  1
 19 18  1  0
 20 19  2  0
 21 20  1  0
 22 21  1  0
 22 23  2  0
 23 19  1  0
 24 26  1  0
 25 24  2  0
M  END
$$$$
