KSH.pdb
     RDKit          3D

 26 26  0  0  1  0  0  0  0  0999 V2000
    9.6029  -17.3509   17.5709 N   0  0  0  0  0  0  0  0  0  0  0  0
    8.7670  -17.6531   18.6801 C   0  0  1  0  0  0  0  0  0  0  0  0
    8.7820  -19.0727   19.0538 C   0  0  0  0  0  0  0  0  0  0  0  0
    9.9631  -19.8988   18.9352 C   0  0  0  0  0  0  0  0  0  0  0  0
   10.1183  -21.3043   19.2307 C   0  0  0  0  0  0  0  0  0  0  0  0
   11.3494  -22.0813   19.0415 C   0  0  0  0  0  0  0  0  0  0  0  0
   10.9748  -23.4739   19.5112 N   0  0  0  0  0  0  0  0  0  0  0  0
    9.1934  -16.7646   19.8299 C   0  0  0  0  0  0  0  0  0  0  0  0
   10.4066  -16.5153   19.9695 O   0  0  0  0  0  0  0  0  0  0  0  0
    6.4803  -15.8956   22.7827 O   0  0  0  0  0  0  0  0  0  0  0  0
    7.2976  -14.8519   22.4091 C   0  0  0  0  0  0  0  0  0  0  0  0
    8.6219  -15.4091   21.8909 C   0  0  2  0  0  0  0  0  0  0  0  0
    8.2693  -16.2157   20.7378 N   0  0  0  0  0  0  0  0  0  0  0  0
    9.3444  -16.1708   22.9152 C   0  0  0  0  0  0  0  0  0  0  0  0
    9.0781  -17.4060   23.0527 O   0  0  0  0  0  0  0  0  0  0  0  0
   10.3316  -15.6417   23.7817 N   0  0  0  0  0  0  0  0  0  0  0  0
   10.9228  -16.3954   24.8829 C   0  0  1  0  0  0  0  0  0  0  0  0
   12.3152  -15.9541   25.1701 C   0  0  0  0  0  0  0  0  0  0  0  0
   13.2572  -16.3126   24.0963 C   0  0  0  0  0  0  0  0  0  0  0  0
   12.8829  -17.0376   22.9767 C   0  0  0  0  0  0  0  0  0  0  0  0
   13.9597  -17.2138   22.1558 N   0  0  0  0  0  0  0  0  0  0  0  0
   14.9977  -16.5950   22.7735 C   0  0  0  0  0  0  0  0  0  0  0  0
   14.5623  -16.0702   23.9165 N   0  0  0  0  0  0  0  0  0  0  0  0
   10.1040  -16.3276   26.0940 C   0  0  0  0  0  0  0  0  0  0  0  0
   10.4462  -16.9545   27.1174 O   0  0  0  0  0  0  0  0  0  0  0  0
    8.9439  -15.5760   26.1356 O   0  0  0  0  0  0  0  0  0  0  0  0
  2  8  1  0
  2  1  1  6
  3  2  1  0
  4  3  1  0
  5  6  1  0
  5  4  1  0
  7  6  1  0
  8  9  2  0
 10 11  1  0
 12 11  1  1
 13 12  1  0
 13  8  1  0
 14 15  2  0
 14 12  1  0
 16 14  1  0
 17 24  1  0
 17 16  1  0
 17 18  1  1
 19 18  1  0
 20 19  2  0
 21 20  1  0
 22 21  1  0
 22 23  2  0
 23 19  1  0
 24 26  1  0
 25 24  2  0
M  END
$$$$
