KSH.pdb
     RDKit          3D

 26 26  0  0  1  0  0  0  0  0999 V2000
    7.1582  -24.0347   20.0777 N   0  0  0  0  0  0  0  0  0  0  0  0
    7.1661  -22.6695   20.4732 C   0  0  1  0  0  0  0  0  0  0  0  0
    5.8542  -22.1816   20.9162 C   0  0  0  0  0  0  0  0  0  0  0  0
    4.7089  -23.0511   21.0697 C   0  0  0  0  0  0  0  0  0  0  0  0
    3.6481  -22.9868   22.0481 C   0  0  0  0  0  0  0  0  0  0  0  0
    2.5113  -23.9120   22.1305 C   0  0  0  0  0  0  0  0  0  0  0  0
    1.7073  -23.3942   23.3077 N   0  0  0  0  0  0  0  0  0  0  0  0
    8.2180  -22.5116   21.5512 C   0  0  0  0  0  0  0  0  0  0  0  0
    8.5508  -23.5172   22.2079 O   0  0  0  0  0  0  0  0  0  0  0  0
    9.6462  -18.7220   22.4870 O   0  0  0  0  0  0  0  0  0  0  0  0
   10.5382  -19.7712   22.4702 C   0  0  0  0  0  0  0  0  0  0  0  0
    9.8142  -21.0549   22.8710 C   0  0  2  0  0  0  0  0  0  0  0  0
    8.8265  -21.2744   21.8313 N   0  0  0  0  0  0  0  0  0  0  0  0
    9.2181  -20.9638   24.2081 C   0  0  0  0  0  0  0  0  0  0  0  0
    8.0083  -20.5873   24.3083 O   0  0  0  0  0  0  0  0  0  0  0  0
    9.8843  -21.2637   25.4213 N   0  0  0  0  0  0  0  0  0  0  0  0
    9.2406  -21.1988   26.7297 C   0  0  1  0  0  0  0  0  0  0  0  0
    8.5022  -22.4521   27.0453 C   0  0  0  0  0  0  0  0  0  0  0  0
    7.0890  -22.2091   27.3814 C   0  0  0  0  0  0  0  0  0  0  0  0
    6.3082  -21.2732   26.7230 C   0  0  0  0  0  0  0  0  0  0  0  0
    5.0459  -21.2722   27.2437 N   0  0  0  0  0  0  0  0  0  0  0  0
    5.0523  -22.2103   28.2244 C   0  0  0  0  0  0  0  0  0  0  0  0
    6.2667  -22.7510   28.2895 N   0  0  0  0  0  0  0  0  0  0  0  0
   10.1950  -20.8849   27.7939 C   0  0  0  0  0  0  0  0  0  0  0  0
   11.3760  -21.2800   27.7127 O   0  0  0  0  0  0  0  0  0  0  0  0
    9.8176  -20.1511   28.9037 O   0  0  0  0  0  0  0  0  0  0  0  0
  2  8  1  0
  2  1  1  1
  3  2  1  0
  4  3  1  0
  5  6  1  0
  5  4  1  0
  7  6  1  0
  8  9  2  0
 10 11  1  0
 12 11  1  6
 13 12  1  0
 13  8  1  0
 14 15  2  0
 14 12  1  0
 16 14  1  0
 17 24  1  0
 17 16  1  0
 17 18  1  1
 19 18  1  0
 20 19  2  0
 21 20  1  0
 22 21  1  0
 22 23  2  0
 23 19  1  0
 24 26  1  0
 25 24  2  0
M  END
$$$$
