KSH.pdb
     RDKit          3D

 26 26  0  0  1  0  0  0  0  0999 V2000
    5.9102  -15.6202   20.2904 N   0  0  0  0  0  0  0  0  0  0  0  0
    7.3135  -15.3995   20.2419 C   0  0  1  0  0  0  0  0  0  0  0  0
    7.6838  -13.9795   20.2848 C   0  0  0  0  0  0  0  0  0  0  0  0
    7.6587  -13.1304   19.1145 C   0  0  0  0  0  0  0  0  0  0  0  0
    7.6527  -13.5098   17.7206 C   0  0  0  0  0  0  0  0  0  0  0  0
    8.7335  -13.2444   16.7633 C   0  0  0  0  0  0  0  0  0  0  0  0
    8.1993  -13.7905   15.4530 N   0  0  0  0  0  0  0  0  0  0  0  0
    7.9388  -16.1782   21.3803 C   0  0  0  0  0  0  0  0  0  0  0  0
    7.3156  -16.2601   22.4565 O   0  0  0  0  0  0  0  0  0  0  0  0
   12.0026  -17.2933   21.4463 O   0  0  0  0  0  0  0  0  0  0  0  0
   11.0299  -18.2519   21.6241 C   0  0  0  0  0  0  0  0  0  0  0  0
    9.8123  -17.6167   22.2926 C   0  0  2  0  0  0  0  0  0  0  0  0
    9.1915  -16.8076   21.2610 N   0  0  0  0  0  0  0  0  0  0  0  0
   10.1732  -16.8382   23.4823 C   0  0  0  0  0  0  0  0  0  0  0  0
   10.4842  -15.6147   23.3349 O   0  0  0  0  0  0  0  0  0  0  0  0
   10.2068  -17.3389   24.8066 N   0  0  0  0  0  0  0  0  0  0  0  0
   10.5604  -16.5251   25.9654 C   0  0  1  0  0  0  0  0  0  0  0  0
    9.3543  -15.9823   26.6484 C   0  0  0  0  0  0  0  0  0  0  0  0
    9.6832  -15.2439   27.8796 C   0  0  0  0  0  0  0  0  0  0  0  0
   10.2094  -15.8543   29.0064 C   0  0  0  0  0  0  0  0  0  0  0  0
   10.4158  -14.9246   29.9849 N   0  0  0  0  0  0  0  0  0  0  0  0
   10.0152  -13.7403   29.4569 C   0  0  0  0  0  0  0  0  0  0  0  0
    9.5864  -13.9505   28.2145 N   0  0  0  0  0  0  0  0  0  0  0  0
   11.3993  -17.2589   26.9138 C   0  0  0  0  0  0  0  0  0  0  0  0
   12.3810  -16.7002   27.4443 O   0  0  0  0  0  0  0  0  0  0  0  0
   11.1292  -18.5747   27.2430 O   0  0  0  0  0  0  0  0  0  0  0  0
  2  8  1  0
  2  1  1  1
  3  2  1  0
  4  3  1  0
  5  6  1  0
  5  4  1  0
  7  6  1  0
  8  9  2  0
 10 11  1  0
 12 11  1  6
 13 12  1  0
 13  8  1  0
 14 15  2  0
 14 12  1  0
 16 14  1  0
 17 24  1  0
 17 16  1  0
 17 18  1  1
 19 18  1  0
 20 19  2  0
 21 20  1  0
 22 21  1  0
 22 23  2  0
 23 19  1  0
 24 26  1  0
 25 24  2  0
M  END
$$$$
