KSH.pdb
     RDKit          3D

 26 26  0  0  1  0  0  0  0  0999 V2000
    8.5907  -16.3903   17.2765 N   0  0  0  0  0  0  0  0  0  0  0  0
    8.8094  -15.3940   18.2663 C   0  0  1  0  0  0  0  0  0  0  0  0
    7.9716  -14.2013   18.0904 C   0  0  0  0  0  0  0  0  0  0  0  0
    7.8277  -13.5290   16.8182 C   0  0  0  0  0  0  0  0  0  0  0  0
    8.0030  -14.0626   15.4872 C   0  0  0  0  0  0  0  0  0  0  0  0
    7.8890  -13.2937   14.2419 C   0  0  0  0  0  0  0  0  0  0  0  0
    8.0506  -14.3387   13.1546 N   0  0  0  0  0  0  0  0  0  0  0  0
    8.5933  -16.0382   19.6196 C   0  0  0  0  0  0  0  0  0  0  0  0
    7.4278  -16.1407   20.0492 O   0  0  0  0  0  0  0  0  0  0  0  0
   11.8701  -17.2672   21.9526 O   0  0  0  0  0  0  0  0  0  0  0  0
   10.7338  -18.0401   21.8622 C   0  0  0  0  0  0  0  0  0  0  0  0
    9.5163  -17.1306   21.7092 C   0  0  2  0  0  0  0  0  0  0  0  0
    9.6593  -16.5214   20.4004 N   0  0  0  0  0  0  0  0  0  0  0  0
    9.4220  -16.1405   22.7874 C   0  0  0  0  0  0  0  0  0  0  0  0
   10.1507  -15.1012   22.7217 O   0  0  0  0  0  0  0  0  0  0  0  0
    8.5745  -16.2420   23.9174 N   0  0  0  0  0  0  0  0  0  0  0  0
    8.5260  -15.2415   24.9789 C   0  0  1  0  0  0  0  0  0  0  0  0
    7.2212  -14.5256   25.0047 C   0  0  0  0  0  0  0  0  0  0  0  0
    7.1435  -13.5256   26.0831 C   0  0  0  0  0  0  0  0  0  0  0  0
    6.0032  -12.7820   26.3403 C   0  0  0  0  0  0  0  0  0  0  0  0
    6.2234  -11.9437   27.3954 N   0  0  0  0  0  0  0  0  0  0  0  0
    7.5024  -12.1736   27.7867 C   0  0  0  0  0  0  0  0  0  0  0  0
    8.0274  -13.1098   26.9997 N   0  0  0  0  0  0  0  0  0  0  0  0
    8.8182  -15.8210   26.2907 C   0  0  0  0  0  0  0  0  0  0  0  0
    8.6994  -17.0498   26.4731 O   0  0  0  0  0  0  0  0  0  0  0  0
    9.2286  -15.0316   27.3494 O   0  0  0  0  0  0  0  0  0  0  0  0
  2  8  1  0
  2  1  1  6
  3  2  1  0
  4  3  1  0
  5  6  1  0
  5  4  1  0
  7  6  1  0
  8  9  2  0
 10 11  1  0
 12 11  1  1
 13 12  1  0
 13  8  1  0
 14 15  2  0
 14 12  1  0
 16 14  1  0
 17 24  1  0
 17 16  1  0
 17 18  1  1
 19 18  1  0
 20 19  2  0
 21 20  1  0
 22 21  1  0
 22 23  2  0
 23 19  1  0
 24 26  1  0
 25 24  2  0
M  END
$$$$
