KSH.pdb
     RDKit          3D

 26 26  0  0  1  0  0  0  0  0999 V2000
    9.7457  -17.3726   14.7176 N   0  0  0  0  0  0  0  0  0  0  0  0
   10.9735  -16.7656   14.3377 C   0  0  1  0  0  0  0  0  0  0  0  0
   10.9181  -16.1038   13.0284 C   0  0  0  0  0  0  0  0  0  0  0  0
   10.1235  -16.6096   11.9310 C   0  0  0  0  0  0  0  0  0  0  0  0
    8.6867  -16.6175   11.7820 C   0  0  0  0  0  0  0  0  0  0  0  0
    7.9605  -17.0187   10.5709 C   0  0  0  0  0  0  0  0  0  0  0  0
    7.9811  -18.5344   10.6213 N   0  0  0  0  0  0  0  0  0  0  0  0
   11.3675  -15.8026   15.4381 C   0  0  0  0  0  0  0  0  0  0  0  0
   12.2819  -14.9860   15.2133 O   0  0  0  0  0  0  0  0  0  0  0  0
    9.5883  -16.0551   19.2437 O   0  0  0  0  0  0  0  0  0  0  0  0
    9.8434  -14.8334   18.6613 C   0  0  0  0  0  0  0  0  0  0  0  0
   11.1025  -14.9373   17.8030 C   0  0  2  0  0  0  0  0  0  0  0  0
   10.7376  -15.8011   16.6961 N   0  0  0  0  0  0  0  0  0  0  0  0
   12.2526  -15.4427   18.5603 C   0  0  0  0  0  0  0  0  0  0  0  0
   12.4601  -16.6964   18.5829 O   0  0  0  0  0  0  0  0  0  0  0  0
   13.1700  -14.6418   19.2831 N   0  0  0  0  0  0  0  0  0  0  0  0
   14.3226  -15.1835   19.9962 C   0  0  1  0  0  0  0  0  0  0  0  0
   15.3967  -14.1667   20.1639 C   0  0  0  0  0  0  0  0  0  0  0  0
   16.0144  -13.7770   18.8849 C   0  0  0  0  0  0  0  0  0  0  0  0
   16.0544  -14.6140   17.7817 C   0  0  0  0  0  0  0  0  0  0  0  0
   16.6812  -13.9856   16.7442 N   0  0  0  0  0  0  0  0  0  0  0  0
   17.0267  -12.7594   17.2121 C   0  0  0  0  0  0  0  0  0  0  0  0
   16.6245  -12.6566   18.4767 N   0  0  0  0  0  0  0  0  0  0  0  0
   13.9472  -15.7504   21.2921 C   0  0  0  0  0  0  0  0  0  0  0  0
   12.7819  -15.6194   21.7192 O   0  0  0  0  0  0  0  0  0  0  0  0
   14.8628  -16.4378   22.0678 O   0  0  0  0  0  0  0  0  0  0  0  0
  2  8  1  0
  2  1  1  1
  3  2  1  0
  4  3  1  0
  5  6  1  0
  5  4  1  0
  7  6  1  0
  8  9  2  0
 10 11  1  0
 12 11  1  1
 13 12  1  0
 13  8  1  0
 14 15  2  0
 14 12  1  0
 16 14  1  0
 17 24  1  0
 17 16  1  0
 17 18  1  1
 19 18  1  0
 20 19  2  0
 21 20  1  0
 22 21  1  0
 22 23  2  0
 23 19  1  0
 24 26  1  0
 25 24  2  0
M  END
$$$$
