KSH.pdb
     RDKit          3D

 26 26  0  0  1  0  0  0  0  0999 V2000
    9.1787  -18.7303   17.7304 N   0  0  0  0  0  0  0  0  0  0  0  0
   10.5435  -18.6147   18.1102 C   0  0  1  0  0  0  0  0  0  0  0  0
   11.4463  -18.3682   16.9790 C   0  0  0  0  0  0  0  0  0  0  0  0
   11.9159  -19.4247   16.1103 C   0  0  0  0  0  0  0  0  0  0  0  0
   13.2617  -19.9182   15.9308 C   0  0  0  0  0  0  0  0  0  0  0  0
   13.6869  -20.8688   14.8961 C   0  0  0  0  0  0  0  0  0  0  0  0
   15.1406  -21.1426   15.2310 N   0  0  0  0  0  0  0  0  0  0  0  0
   10.6372  -17.5205   19.1529 C   0  0  0  0  0  0  0  0  0  0  0  0
   10.1223  -16.4139   18.9003 O   0  0  0  0  0  0  0  0  0  0  0  0
    9.4050  -17.4755   22.5427 O   0  0  0  0  0  0  0  0  0  0  0  0
    9.9156  -16.4188   21.8219 C   0  0  0  0  0  0  0  0  0  0  0  0
   11.3641  -16.7203   21.4427 C   0  0  2  0  0  0  0  0  0  0  0  0
   11.2819  -17.7135   20.3885 N   0  0  0  0  0  0  0  0  0  0  0  0
   12.1566  -17.1764   22.5897 C   0  0  0  0  0  0  0  0  0  0  0  0
   11.9874  -18.3640   23.0098 O   0  0  0  0  0  0  0  0  0  0  0  0
   13.1120  -16.3954   23.2844 N   0  0  0  0  0  0  0  0  0  0  0  0
   13.8785  -16.8886   24.4243 C   0  0  1  0  0  0  0  0  0  0  0  0
   15.0745  -16.0440   24.6934 C   0  0  0  0  0  0  0  0  0  0  0  0
   16.0632  -16.0962   23.6031 C   0  0  0  0  0  0  0  0  0  0  0  0
   16.1386  -17.1475   22.7041 C   0  0  0  0  0  0  0  0  0  0  0  0
   17.1427  -16.9207   21.8070 N   0  0  0  0  0  0  0  0  0  0  0  0
   17.6849  -15.7267   22.1565 C   0  0  0  0  0  0  0  0  0  0  0  0
   17.0339  -15.2572   23.2183 N   0  0  0  0  0  0  0  0  0  0  0  0
   13.0541  -17.0072   25.6277 C   0  0  0  0  0  0  0  0  0  0  0  0
   11.8800  -16.5844   25.6268 O   0  0  0  0  0  0  0  0  0  0  0  0
   13.5488  -17.5841   26.7832 O   0  0  0  0  0  0  0  0  0  0  0  0
  2  8  1  0
  2  1  1  6
  3  2  1  0
  4  3  1  0
  5  6  1  0
  5  4  1  0
  7  6  1  0
  8  9  2  0
 10 11  1  0
 12 11  1  1
 13 12  1  0
 13  8  1  0
 14 15  2  0
 14 12  1  0
 16 14  1  0
 17 24  1  0
 17 16  1  0
 17 18  1  1
 19 18  1  0
 20 19  2  0
 21 20  1  0
 22 21  1  0
 22 23  2  0
 23 19  1  0
 24 26  1  0
 25 24  2  0
M  END
$$$$
