LPL.pdb
     RDKit          3D

 24 24  0  0  1  0  0  0  0  0999 V2000
   28.3142  -18.6779  -15.2549 C   0  0  0  0  0  0  0  0  0  0  0  0
   26.9130  -18.4457  -14.7638 C   0  0  2  0  0  0  0  0  0  0  0  0
   26.6888  -16.9228  -14.7645 C   0  0  0  0  0  0  0  0  0  0  0  0
   26.6722  -18.9501  -13.3975 C   0  0  0  0  0  0  0  0  0  0  0  0
   26.8323  -20.3862  -13.1095 C   0  0  2  0  0  0  0  0  0  0  0  0
   25.5191  -20.9943  -13.4778 N   0  0  0  0  0  0  0  0  0  0  0  0
   27.1379  -20.8175  -11.7673 C   0  0  0  0  0  0  0  0  0  0  0  0
   26.1623  -21.0858  -10.9820 O   0  0  0  0  0  0  0  0  0  0  0  0
   28.4352  -20.9877  -11.1822 N   0  0  0  0  0  0  0  0  0  0  0  0
   29.6479  -20.6806  -11.8932 C   0  0  0  0  0  0  0  0  0  0  0  0
   30.6614  -21.6383  -11.3085 C   0  0  0  0  0  0  0  0  0  0  0  0
   30.0848  -22.1462  -10.0267 C   0  0  0  0  0  0  0  0  0  0  0  0
   28.7885  -21.4581   -9.8922 C   0  0  1  0  0  0  0  0  0  0  0  0
   28.7588  -20.4221   -8.8327 C   0  0  0  0  0  0  0  0  0  0  0  0
   29.2438  -19.2955   -9.1134 O   0  0  0  0  0  0  0  0  0  0  0  0
   25.8603  -21.8091   -4.3871 C   0  0  0  0  0  0  0  0  0  0  0  0
   27.2003  -21.3281   -4.9561 C   0  0  2  0  0  0  0  0  0  0  0  0
   28.1679  -21.1971   -3.8232 C   0  0  0  0  0  0  0  0  0  0  0  0
   26.9828  -19.9859   -5.6088 C   0  0  0  0  0  0  0  0  0  0  0  0
   28.1213  -19.5916   -6.5235 C   0  0  2  0  0  0  0  0  0  0  0  0
   28.2299  -20.5991   -7.5319 N   0  0  0  0  0  0  0  0  0  0  0  0
   29.3694  -19.4927   -5.6966 C   0  0  0  0  0  0  0  0  0  0  0  0
   29.5947  -18.5221   -4.9342 O   0  0  0  0  0  0  0  0  0  0  0  0
   30.3235  -20.4953   -5.7584 O   0  0  0  0  0  0  0  0  0  0  0  0
  2  1  1  1
  2  3  1  0
  4  2  1  0
  4  5  1  0
  5  7  1  0
  5  6  1  1
  7  8  2  0
  9 13  1  0
  9  7  1  0
 10  9  1  0
 11 10  1  0
 11 12  1  0
 12 13  1  0
 13 14  1  1
 14 15  2  0
 17 16  1  1
 17 19  1  0
 18 17  1  0
 20 19  1  1
 20 21  1  0
 20 22  1  0
 21 14  1  0
 22 23  2  0
 22 24  1  0
M  END
$$$$
