LPL.pdb
     RDKit          3D

 24 24  0  0  1  0  0  0  0  0999 V2000
   26.3316  -19.5263  -14.3826 C   0  0  0  0  0  0  0  0  0  0  0  0
   25.2623  -19.8340  -13.3724 C   0  0  2  0  0  0  0  0  0  0  0  0
   24.4239  -18.5535  -13.2088 C   0  0  0  0  0  0  0  0  0  0  0  0
   25.7902  -20.2161  -12.0478 C   0  0  0  0  0  0  0  0  0  0  0  0
   26.6681  -21.3928  -11.9222 C   0  0  2  0  0  0  0  0  0  0  0  0
   25.7799  -22.5591  -12.2063 N   0  0  0  0  0  0  0  0  0  0  0  0
   27.3319  -21.6604  -10.6696 C   0  0  0  0  0  0  0  0  0  0  0  0
   26.6319  -22.1217   -9.7014 O   0  0  0  0  0  0  0  0  0  0  0  0
   28.7182  -21.4678  -10.3611 N   0  0  0  0  0  0  0  0  0  0  0  0
   29.6527  -20.9301  -11.3141 C   0  0  0  0  0  0  0  0  0  0  0  0
   30.9683  -21.5682  -10.9290 C   0  0  0  0  0  0  0  0  0  0  0  0
   30.7983  -22.1040   -9.5443 C   0  0  0  0  0  0  0  0  0  0  0  0
   29.4220  -21.7418   -9.1612 C   0  0  1  0  0  0  0  0  0  0  0  0
   29.3385  -20.6683   -8.1429 C   0  0  0  0  0  0  0  0  0  0  0  0
   29.3707  -19.4794   -8.5537 O   0  0  0  0  0  0  0  0  0  0  0  0
   26.2348  -19.0374   -6.0723 C   0  0  0  0  0  0  0  0  0  0  0  0
   26.6983  -20.4037   -5.5535 C   0  0  2  0  0  0  0  0  0  0  0  0
   25.6563  -20.9242   -4.6153 C   0  0  0  0  0  0  0  0  0  0  0  0
   28.0042  -20.2143   -4.8231 C   0  0  0  0  0  0  0  0  0  0  0  0
   29.1431  -19.8519   -5.7504 C   0  0  2  0  0  0  0  0  0  0  0  0
   29.2264  -20.8735   -6.7470 N   0  0  0  0  0  0  0  0  0  0  0  0
   30.3986  -19.7655   -4.9333 C   0  0  0  0  0  0  0  0  0  0  0  0
   31.2208  -20.7104   -4.8635 O   0  0  0  0  0  0  0  0  0  0  0  0
   30.6843  -18.6121   -4.2209 O   0  0  0  0  0  0  0  0  0  0  0  0
  2  1  1  6
  2  3  1  0
  4  2  1  0
  4  5  1  0
  5  7  1  0
  5  6  1  1
  7  8  2  0
  9 13  1  0
  9  7  1  0
 10  9  1  0
 11 10  1  0
 11 12  1  0
 12 13  1  0
 13 14  1  1
 14 15  2  0
 17 16  1  1
 17 19  1  0
 18 17  1  0
 20 19  1  1
 20 21  1  0
 20 22  1  0
 21 14  1  0
 22 23  2  0
 22 24  1  0
M  END
$$$$
