LPL.pdb
     RDKit          3D

 24 24  0  0  1  0  0  0  0  0999 V2000
   22.3773  -18.8303  -12.9870 C   0  0  0  0  0  0  0  0  0  0  0  0
   23.7087  -19.4991  -13.1840 C   0  0  2  0  0  0  0  0  0  0  0  0
   24.0636  -19.3517  -14.6745 C   0  0  0  0  0  0  0  0  0  0  0  0
   23.7061  -20.9362  -12.8468 C   0  0  0  0  0  0  0  0  0  0  0  0
   24.9605  -21.7061  -12.9172 C   0  0  2  0  0  0  0  0  0  0  0  0
   24.5419  -23.0715  -13.3534 N   0  0  0  0  0  0  0  0  0  0  0  0
   25.7686  -21.8680  -11.7333 C   0  0  0  0  0  0  0  0  0  0  0  0
   25.3473  -22.6584  -10.8178 O   0  0  0  0  0  0  0  0  0  0  0  0
   27.0213  -21.2358  -11.4417 N   0  0  0  0  0  0  0  0  0  0  0  0
   27.6612  -20.3321  -12.3607 C   0  0  0  0  0  0  0  0  0  0  0  0
   29.1350  -20.5072  -12.0718 C   0  0  0  0  0  0  0  0  0  0  0  0
   29.2362  -21.1813  -10.7418 C   0  0  0  0  0  0  0  0  0  0  0  0
   27.8428  -21.3486  -10.2917 C   0  0  1  0  0  0  0  0  0  0  0  0
   27.4560  -20.4577   -9.1722 C   0  0  0  0  0  0  0  0  0  0  0  0
   26.7269  -19.4696   -9.4466 O   0  0  0  0  0  0  0  0  0  0  0  0
   26.8968  -21.5646   -4.4143 C   0  0  0  0  0  0  0  0  0  0  0  0
   28.2767  -21.4814   -5.0774 C   0  0  2  0  0  0  0  0  0  0  0  0
   29.3110  -21.7881   -4.0415 C   0  0  0  0  0  0  0  0  0  0  0  0
   28.4671  -20.0793   -5.5996 C   0  0  0  0  0  0  0  0  0  0  0  0
   27.5281  -19.7495   -6.7388 C   0  0  2  0  0  0  0  0  0  0  0  0
   27.8414  -20.6292   -7.8213 N   0  0  0  0  0  0  0  0  0  0  0  0
   27.7355  -18.3108   -7.1107 C   0  0  0  0  0  0  0  0  0  0  0  0
   28.5269  -17.9591   -8.0185 O   0  0  0  0  0  0  0  0  0  0  0  0
   27.0406  -17.3149   -6.4437 O   0  0  0  0  0  0  0  0  0  0  0  0
  2  1  1  6
  2  3  1  0
  4  2  1  0
  4  5  1  0
  5  7  1  0
  5  6  1  1
  7  8  2  0
  9 13  1  0
  9  7  1  0
 10  9  1  0
 11 10  1  0
 11 12  1  0
 12 13  1  0
 13 14  1  1
 14 15  2  0
 17 16  1  1
 17 19  1  0
 18 17  1  0
 20 19  1  1
 20 21  1  0
 20 22  1  0
 21 14  1  0
 22 23  2  0
 22 24  1  0
M  END
$$$$
