LPL.pdb
     RDKit          3D

 24 24  0  0  1  0  0  0  0  0999 V2000
   23.2693  -18.8144  -15.3674 C   0  0  0  0  0  0  0  0  0  0  0  0
   22.2959  -19.3448  -14.3527 C   0  0  2  0  0  0  0  0  0  0  0  0
   21.3759  -18.1732  -13.9649 C   0  0  0  0  0  0  0  0  0  0  0  0
   22.9379  -19.8571  -13.1262 C   0  0  0  0  0  0  0  0  0  0  0  0
   23.8363  -21.0225  -13.2031 C   0  0  2  0  0  0  0  0  0  0  0  0
   22.9332  -22.1780  -13.4843 N   0  0  0  0  0  0  0  0  0  0  0  0
   24.6421  -21.3818  -12.0619 C   0  0  0  0  0  0  0  0  0  0  0  0
   24.1109  -22.1108  -11.1526 O   0  0  0  0  0  0  0  0  0  0  0  0
   26.0038  -21.0139  -11.8077 N   0  0  0  0  0  0  0  0  0  0  0  0
   26.7243  -20.0956  -12.6493 C   0  0  0  0  0  0  0  0  0  0  0  0
   28.1616  -20.5501  -12.5317 C   0  0  0  0  0  0  0  0  0  0  0  0
   28.2385  -21.4281  -11.3249 C   0  0  0  0  0  0  0  0  0  0  0  0
   26.8733  -21.4342  -10.7697 C   0  0  1  0  0  0  0  0  0  0  0  0
   26.7296  -20.6753   -9.5048 C   0  0  0  0  0  0  0  0  0  0  0  0
   26.1958  -19.5379   -9.5717 O   0  0  0  0  0  0  0  0  0  0  0  0
   29.5509  -20.6703   -4.0823 C   0  0  0  0  0  0  0  0  0  0  0  0
   28.2883  -20.1828   -4.8026 C   0  0  2  0  0  0  0  0  0  0  0  0
   27.1158  -20.4311   -3.9079 C   0  0  0  0  0  0  0  0  0  0  0  0
   28.1394  -20.9692   -6.0810 C   0  0  0  0  0  0  0  0  0  0  0  0
   27.1132  -20.3702   -7.0171 C   0  0  2  0  0  0  0  0  0  0  0  0
   27.1451  -21.1271   -8.2295 N   0  0  0  0  0  0  0  0  0  0  0  0
   27.4762  -18.9326   -7.2469 C   0  0  0  0  0  0  0  0  0  0  0  0
   28.4155  -18.5900   -8.0048 O   0  0  0  0  0  0  0  0  0  0  0  0
   26.7649  -17.9277   -6.6117 O   0  0  0  0  0  0  0  0  0  0  0  0
  2  1  1  6
  2  3  1  0
  4  2  1  0
  4  5  1  0
  5  7  1  0
  5  6  1  1
  7  8  2  0
  9 13  1  0
  9  7  1  0
 10  9  1  0
 11 10  1  0
 11 12  1  0
 12 13  1  0
 13 14  1  1
 14 15  2  0
 17 16  1  1
 17 19  1  0
 18 17  1  0
 20 19  1  1
 20 21  1  0
 20 22  1  0
 21 14  1  0
 22 23  2  0
 22 24  1  0
M  END
$$$$
