LPL.pdb
     RDKit          3D

 24 24  0  0  1  0  0  0  0  0999 V2000
   26.2552  -16.9263  -14.9929 C   0  0  0  0  0  0  0  0  0  0  0  0
   27.1511  -18.1285  -14.8903 C   0  0  2  0  0  0  0  0  0  0  0  0
   28.4105  -17.8160  -15.7183 C   0  0  0  0  0  0  0  0  0  0  0  0
   26.5443  -19.3670  -15.4168 C   0  0  0  0  0  0  0  0  0  0  0  0
   27.0905  -20.6759  -15.0177 C   0  0  2  0  0  0  0  0  0  0  0  0
   26.2817  -21.6718  -15.7817 N   0  0  0  0  0  0  0  0  0  0  0  0
   27.0547  -21.0741  -13.6316 C   0  0  0  0  0  0  0  0  0  0  0  0
   25.9980  -21.6520  -13.1962 O   0  0  0  0  0  0  0  0  0  0  0  0
   28.0832  -20.8982  -12.6490 N   0  0  0  0  0  0  0  0  0  0  0  0
   29.3261  -20.2359  -12.9439 C   0  0  0  0  0  0  0  0  0  0  0  0
   30.3164  -20.8949  -12.0104 C   0  0  0  0  0  0  0  0  0  0  0  0
   29.5176  -21.5949  -10.9591 C   0  0  0  0  0  0  0  0  0  0  0  0
   28.1115  -21.3026  -11.2904 C   0  0  1  0  0  0  0  0  0  0  0  0
   27.4518  -20.3599  -10.3563 C   0  0  0  0  0  0  0  0  0  0  0  0
   27.5664  -19.1308  -10.6002 O   0  0  0  0  0  0  0  0  0  0  0  0
   23.4224  -19.7160   -9.4902 C   0  0  0  0  0  0  0  0  0  0  0  0
   23.9197  -20.9635   -8.7506 C   0  0  2  0  0  0  0  0  0  0  0  0
   22.7407  -21.6316   -8.1179 C   0  0  0  0  0  0  0  0  0  0  0  0
   24.8978  -20.5259   -7.6891 C   0  0  0  0  0  0  0  0  0  0  0  0
   26.1146  -19.8372   -8.2665 C   0  0  2  0  0  0  0  0  0  0  0  0
   26.7047  -20.7314   -9.2131 N   0  0  0  0  0  0  0  0  0  0  0  0
   27.0507  -19.5227   -7.1369 C   0  0  0  0  0  0  0  0  0  0  0  0
   28.0808  -20.2018   -6.9094 O   0  0  0  0  0  0  0  0  0  0  0  0
   26.7919  -18.4493   -6.3001 O   0  0  0  0  0  0  0  0  0  0  0  0
  2  1  1  6
  2  3  1  0
  4  2  1  0
  4  5  1  0
  5  7  1  0
  5  6  1  6
  7  8  2  0
  9 13  1  0
  9  7  1  0
 10  9  1  0
 11 10  1  0
 11 12  1  0
 12 13  1  0
 13 14  1  1
 14 15  2  0
 17 16  1  1
 17 19  1  0
 18 17  1  0
 20 19  1  1
 20 21  1  0
 20 22  1  0
 21 14  1  0
 22 23  2  0
 22 24  1  0
M  END
$$$$
