LPL.pdb
     RDKit          3D

 24 24  0  0  1  0  0  0  0  0999 V2000
   29.8624  -22.4671  -15.0890 C   0  0  0  0  0  0  0  0  0  0  0  0
   28.5110  -21.8100  -15.0683 C   0  0  2  0  0  0  0  0  0  0  0  0
   27.7997  -22.2158  -16.3717 C   0  0  0  0  0  0  0  0  0  0  0  0
   28.5690  -20.3362  -15.0100 C   0  0  0  0  0  0  0  0  0  0  0  0
   27.3284  -19.5621  -14.8291 C   0  0  2  0  0  0  0  0  0  0  0  0
   27.6899  -18.1697  -15.2296 N   0  0  0  0  0  0  0  0  0  0  0  0
   26.7175  -19.4832  -13.5247 C   0  0  0  0  0  0  0  0  0  0  0  0
   27.2351  -18.6906  -12.6621 O   0  0  0  0  0  0  0  0  0  0  0  0
   25.5699  -20.2030  -13.0564 N   0  0  0  0  0  0  0  0  0  0  0  0
   24.9299  -21.2270  -13.8390 C   0  0  0  0  0  0  0  0  0  0  0  0
   23.4840  -21.1651  -13.4010 C   0  0  0  0  0  0  0  0  0  0  0  0
   23.4557  -20.4057  -12.1142 C   0  0  0  0  0  0  0  0  0  0  0  0
   24.8651  -20.0796  -11.8324 C   0  0  1  0  0  0  0  0  0  0  0  0
   25.4517  -20.8458  -10.7075 C   0  0  0  0  0  0  0  0  0  0  0  0
   25.7108  -22.0604  -10.9096 O   0  0  0  0  0  0  0  0  0  0  0  0
   28.7349  -20.4757   -7.6845 C   0  0  0  0  0  0  0  0  0  0  0  0
   27.6207  -19.4304   -7.5562 C   0  0  2  0  0  0  0  0  0  0  0  0
   28.0255  -18.4436   -6.5077 C   0  0  0  0  0  0  0  0  0  0  0  0
   26.3546  -20.1368   -7.1407 C   0  0  0  0  0  0  0  0  0  0  0  0
   25.8296  -21.0688   -8.2103 C   0  0  2  0  0  0  0  0  0  0  0  0
   25.7425  -20.3210   -9.4256 N   0  0  0  0  0  0  0  0  0  0  0  0
   24.4879  -21.5747   -7.7687 C   0  0  0  0  0  0  0  0  0  0  0  0
   24.3612  -22.4880   -6.9180 O   0  0  0  0  0  0  0  0  0  0  0  0
   23.3313  -21.0312   -8.3038 O   0  0  0  0  0  0  0  0  0  0  0  0
  2  1  1  6
  2  3  1  0
  4  2  1  0
  4  5  1  0
  5  7  1  0
  5  6  1  1
  7  8  2  0
  9 13  1  0
  9  7  1  0
 10  9  1  0
 11 10  1  0
 11 12  1  0
 12 13  1  0
 13 14  1  1
 14 15  2  0
 17 16  1  1
 17 19  1  0
 18 17  1  0
 20 19  1  1
 20 21  1  0
 20 22  1  0
 21 14  1  0
 22 23  2  0
 22 24  1  0
M  END
$$$$
