LPL.pdb
     RDKit          3D

 24 24  0  0  1  0  0  0  0  0999 V2000
   26.7601  -15.9751  -15.0027 C   0  0  0  0  0  0  0  0  0  0  0  0
   26.2728  -15.8085  -16.4146 C   0  0  2  0  0  0  0  0  0  0  0  0
   25.3421  -14.5825  -16.4216 C   0  0  0  0  0  0  0  0  0  0  0  0
   25.5153  -16.9698  -16.9214 C   0  0  0  0  0  0  0  0  0  0  0  0
   26.1393  -18.3046  -16.9255 C   0  0  2  0  0  0  0  0  0  0  0  0
   25.5694  -18.9846  -18.1265 N   0  0  0  0  0  0  0  0  0  0  0  0
   25.9432  -19.1900  -15.8036 C   0  0  0  0  0  0  0  0  0  0  0  0
   24.7789  -19.6938  -15.6280 O   0  0  0  0  0  0  0  0  0  0  0  0
   26.9159  -19.5886  -14.8293 N   0  0  0  0  0  0  0  0  0  0  0  0
   28.2300  -19.0055  -14.7685 C   0  0  0  0  0  0  0  0  0  0  0  0
   29.0932  -20.1179  -14.2176 C   0  0  0  0  0  0  0  0  0  0  0  0
   28.1670  -21.1232  -13.6135 C   0  0  0  0  0  0  0  0  0  0  0  0
   26.8178  -20.5607  -13.8019 C   0  0  1  0  0  0  0  0  0  0  0  0
   26.1847  -20.0721  -12.5541 C   0  0  0  0  0  0  0  0  0  0  0  0
   26.4627  -18.9014  -12.1861 O   0  0  0  0  0  0  0  0  0  0  0  0
   22.2740  -19.2553  -12.2056 C   0  0  0  0  0  0  0  0  0  0  0  0
   22.5954  -20.7330  -11.9529 C   0  0  2  0  0  0  0  0  0  0  0  0
   21.3143  -21.5033  -11.9986 C   0  0  0  0  0  0  0  0  0  0  0  0
   23.2234  -20.8538  -10.5869 C   0  0  0  0  0  0  0  0  0  0  0  0
   24.6502  -20.3525  -10.5553 C   0  0  2  0  0  0  0  0  0  0  0  0
   25.2943  -20.8166  -11.7443 N   0  0  0  0  0  0  0  0  0  0  0  0
   25.3056  -20.8925   -9.3183 C   0  0  0  0  0  0  0  0  0  0  0  0
   26.1266  -21.8405   -9.3525 O   0  0  0  0  0  0  0  0  0  0  0  0
   25.0114  -20.3425   -8.0812 O   0  0  0  0  0  0  0  0  0  0  0  0
  2  1  1  1
  2  3  1  0
  4  2  1  0
  4  5  1  0
  5  7  1  0
  5  6  1  6
  7  8  2  0
  9 13  1  0
  9  7  1  0
 10  9  1  0
 11 10  1  0
 11 12  1  0
 12 13  1  0
 13 14  1  1
 14 15  2  0
 17 16  1  1
 17 19  1  0
 18 17  1  0
 20 19  1  6
 20 21  1  0
 20 22  1  0
 21 14  1  0
 22 23  2  0
 22 24  1  0
M  END
$$$$
