LPL.pdb
     RDKit          3D

 24 24  0  0  1  0  0  0  0  0999 V2000
   13.0247   -6.3469   -9.3100 C   0  0  0  0  0  0  0  0  0  0  0  0
   14.1337   -7.1386   -8.6760 C   0  0  2  0  0  0  0  0  0  0  0  0
   14.6278   -6.3224   -7.4681 C   0  0  0  0  0  0  0  0  0  0  0  0
   15.2798   -7.3786   -9.5748 C   0  0  0  0  0  0  0  0  0  0  0  0
   15.1890   -8.4195  -10.6137 C   0  0  2  0  0  0  0  0  0  0  0  0
   15.1662   -9.7070   -9.8578 N   0  0  0  0  0  0  0  0  0  0  0  0
   16.2273   -8.5302  -11.6090 C   0  0  0  0  0  0  0  0  0  0  0  0
   17.2452   -9.2600  -11.3415 O   0  0  0  0  0  0  0  0  0  0  0  0
   16.2664   -7.9064  -12.8988 N   0  0  0  0  0  0  0  0  0  0  0  0
   15.1730   -7.1227  -13.4096 C   0  0  0  0  0  0  0  0  0  0  0  0
   15.2650   -7.3081  -14.9074 C   0  0  0  0  0  0  0  0  0  0  0  0
   16.6317   -7.8412  -15.1925 C   0  0  0  0  0  0  0  0  0  0  0  0
   17.2923   -7.9210  -13.8774 C   0  0  1  0  0  0  0  0  0  0  0  0
   18.3527   -6.9068  -13.6689 C   0  0  0  0  0  0  0  0  0  0  0  0
   18.0061   -5.8026  -13.1750 O   0  0  0  0  0  0  0  0  0  0  0  0
   21.2316   -9.1190  -13.4256 C   0  0  0  0  0  0  0  0  0  0  0  0
   22.2666   -8.1153  -12.9040 C   0  0  2  0  0  0  0  0  0  0  0  0
   22.9676   -8.7329  -11.7361 C   0  0  0  0  0  0  0  0  0  0  0  0
   21.5389   -6.8675  -12.4702 C   0  0  0  0  0  0  0  0  0  0  0  0
   20.7886   -6.2063  -13.6051 C   0  0  2  0  0  0  0  0  0  0  0  0
   19.7221   -7.0809  -13.9812 N   0  0  0  0  0  0  0  0  0  0  0  0
   21.7527   -5.9845  -14.7332 C   0  0  0  0  0  0  0  0  0  0  0  0
   21.7320   -6.6755  -15.7801 O   0  0  0  0  0  0  0  0  0  0  0  0
   22.7102   -4.9874  -14.6412 O   0  0  0  0  0  0  0  0  0  0  0  0
  2  1  1  6
  2  3  1  0
  4  2  1  0
  4  5  1  0
  5  7  1  0
  5  6  1  1
  7  8  2  0
  9 13  1  0
  9  7  1  0
 10  9  1  0
 11 10  1  0
 11 12  1  0
 12 13  1  0
 13 14  1  1
 14 15  2  0
 17 16  1  1
 17 19  1  0
 18 17  1  0
 20 19  1  1
 20 21  1  0
 20 22  1  0
 21 14  1  0
 22 23  2  0
 22 24  1  0
M  END
$$$$
