LPL.pdb
     RDKit          3D

 24 24  0  0  1  0  0  0  0  0999 V2000
   24.6803  -15.6742  -18.7582 C   0  0  0  0  0  0  0  0  0  0  0  0
   23.4721  -16.3189  -18.1391 C   0  0  2  0  0  0  0  0  0  0  0  0
   22.6651  -15.1946  -17.4650 C   0  0  0  0  0  0  0  0  0  0  0  0
   23.7990  -17.3330  -17.1175 C   0  0  0  0  0  0  0  0  0  0  0  0
   24.5631  -18.5341  -17.4976 C   0  0  2  0  0  0  0  0  0  0  0  0
   23.6380  -19.3076  -18.3783 N   0  0  0  0  0  0  0  0  0  0  0  0
   25.0309  -19.4383  -16.4756 C   0  0  0  0  0  0  0  0  0  0  0  0
   24.2124  -20.3128  -16.0221 O   0  0  0  0  0  0  0  0  0  0  0  0
   26.3354  -19.4826  -15.8837 N   0  0  0  0  0  0  0  0  0  0  0  0
   27.3908  -18.5864  -16.2758 C   0  0  0  0  0  0  0  0  0  0  0  0
   28.6511  -19.3876  -16.0389 C   0  0  0  0  0  0  0  0  0  0  0  0
   28.2760  -20.5274  -15.1481 C   0  0  0  0  0  0  0  0  0  0  0  0
   26.8397  -20.3416  -14.8747 C   0  0  1  0  0  0  0  0  0  0  0  0
   26.5372  -19.9055  -13.4909 C   0  0  0  0  0  0  0  0  0  0  0  0
   26.7213  -18.6917  -13.2152 O   0  0  0  0  0  0  0  0  0  0  0  0
   22.1944  -19.3453  -12.5510 C   0  0  0  0  0  0  0  0  0  0  0  0
   23.2822  -20.3211  -12.0872 C   0  0  2  0  0  0  0  0  0  0  0  0
   22.6528  -21.3181  -11.1670 C   0  0  0  0  0  0  0  0  0  0  0  0
   24.3407  -19.5361  -11.3536 C   0  0  0  0  0  0  0  0  0  0  0  0
   25.6204  -20.3199  -11.1637 C   0  0  2  0  0  0  0  0  0  0  0  0
   26.0592  -20.7446  -12.4563 N   0  0  0  0  0  0  0  0  0  0  0  0
   25.3238  -21.4839  -10.2646 C   0  0  0  0  0  0  0  0  0  0  0  0
   25.3881  -22.6724  -10.6613 O   0  0  0  0  0  0  0  0  0  0  0  0
   24.9636  -21.2665   -8.9446 O   0  0  0  0  0  0  0  0  0  0  0  0
  2  1  1  1
  2  3  1  0
  4  2  1  0
  4  5  1  0
  5  7  1  0
  5  6  1  6
  7  8  2  0
  9 13  1  0
  9  7  1  0
 10  9  1  0
 11 10  1  0
 11 12  1  0
 12 13  1  0
 13 14  1  1
 14 15  2  0
 17 16  1  1
 17 19  1  0
 18 17  1  0
 20 19  1  6
 20 21  1  0
 20 22  1  0
 21 14  1  0
 22 23  2  0
 22 24  1  0
M  END
$$$$
