KYN.pdb
     RDKit          3D

 30 30  0  0  1  0  0  0  0  0999 V2000
    7.0087  -15.8425   18.9155 N   0  0  0  0  0  0  0  0  0  0  0  0
    8.0377  -14.8549   18.9153 C   0  0  1  0  0  0  0  0  0  0  0  0
    7.6405  -13.5519   18.2569 C   0  0  0  0  0  0  0  0  0  0  0  0
    8.3512  -13.4283   16.9499 C   0  0  0  0  0  0  0  0  0  0  0  0
    7.4802  -13.7360   15.7613 C   0  0  0  0  0  0  0  0  0  0  0  0
    8.3017  -13.7551   14.5023 C   0  0  0  0  0  0  0  0  0  0  0  0
    7.4909  -13.8810   13.3123 N   0  0  0  0  0  0  0  0  0  0  0  0
    8.4402  -14.5409   20.2968 C   0  0  0  0  0  0  0  0  0  0  0  0
    9.5562  -13.9937   20.5736 O   0  0  0  0  0  0  0  0  0  0  0  0
    7.3660  -12.9641   28.9568 O   0  0  0  0  0  0  0  0  0  0  0  0
    7.2150  -13.2582   27.6187 C   0  0  0  0  0  0  0  0  0  0  0  0
    7.0638  -14.5533   27.1831 C   0  0  0  0  0  0  0  0  0  0  0  0
    6.9110  -14.8813   25.8590 C   0  0  0  0  0  0  0  0  0  0  0  0
    6.9060  -13.8840   24.9062 C   0  0  0  0  0  0  0  0  0  0  0  0
    6.7567  -14.1255   23.4708 C   0  0  0  0  0  0  0  0  0  0  0  0
    8.0021  -14.5370   22.7512 C   0  0  2  0  0  0  0  0  0  0  0  0
    7.5895  -14.8407   21.3727 N   0  0  0  0  0  0  0  0  0  0  0  0
    8.6059  -15.7460   23.3553 C   0  0  0  0  0  0  0  0  0  0  0  0
    8.1340  -16.9000   23.1347 O   0  0  0  0  0  0  0  0  0  0  0  0
    7.0579  -12.5797   25.3395 C   0  0  0  0  0  0  0  0  0  0  0  0
    7.2121  -12.2500   26.6775 C   0  0  0  0  0  0  0  0  0  0  0  0
   12.7190  -18.9077   23.4743 N   0  0  0  0  0  0  0  0  0  0  0  0
   12.8289  -17.6929   24.1865 C   0  0  0  0  0  0  0  0  0  0  0  0
   13.6752  -17.5819   25.0933 O   0  0  0  0  0  0  0  0  0  0  0  0
   11.9437  -16.5705   23.8515 C   0  0  0  0  0  0  0  0  0  0  0  0
   10.5982  -16.7813   24.4971 C   0  0  2  0  0  0  0  0  0  0  0  0
    9.7394  -15.6205   24.2025 N   0  0  0  0  0  0  0  0  0  0  0  0
   10.7458  -16.8987   25.9583 C   0  0  0  0  0  0  0  0  0  0  0  0
   10.7598  -15.9273   26.7261 O   0  0  0  0  0  0  0  0  0  0  0  0
   10.8775  -18.1642   26.5192 O   0  0  0  0  0  0  0  0  0  0  0  0
  2  1  1  1
  3  4  1  0
  3  2  1  0
  5  6  1  0
  5  4  1  0
  6  7  1  0
  8  2  1  0
  8  9  2  0
 10 11  1  0
 11 12  2  0
 12 13  1  0
 14 13  2  0
 14 15  1  0
 16 15  1  1
 16 17  1  0
 17  8  1  0
 18 16  1  0
 19 18  2  0
 20 14  1  0
 21 11  1  0
 21 20  2  0
 22 23  1  0
 23 25  1  0
 24 23  2  0
 26 25  1  6
 26 28  1  0
 26 27  1  0
 27 18  1  0
 28 30  1  0
 29 28  2  0
M  END
$$$$
