KYN.pdb
     RDKit          3D

 30 30  0  0  1  0  0  0  0  0999 V2000
    9.6580  -16.7668   18.4745 N   0  0  0  0  0  0  0  0  0  0  0  0
    8.9566  -17.2968   19.5975 C   0  0  1  0  0  0  0  0  0  0  0  0
    9.3505  -18.7125   19.9576 C   0  0  0  0  0  0  0  0  0  0  0  0
    8.7625  -19.6525   18.9581 C   0  0  0  0  0  0  0  0  0  0  0  0
    9.0057  -21.1024   19.2818 C   0  0  0  0  0  0  0  0  0  0  0  0
    8.2930  -21.9850   18.2951 C   0  0  0  0  0  0  0  0  0  0  0  0
    8.5058  -23.3912   18.5533 N   0  0  0  0  0  0  0  0  0  0  0  0
    9.1965  -16.4612   20.7864 C   0  0  0  0  0  0  0  0  0  0  0  0
   10.3588  -16.0544   21.1100 O   0  0  0  0  0  0  0  0  0  0  0  0
    6.7888  -11.6318   27.9054 O   0  0  0  0  0  0  0  0  0  0  0  0
    6.8606  -12.3480   26.7298 C   0  0  0  0  0  0  0  0  0  0  0  0
    7.5448  -11.8665   25.6389 C   0  0  0  0  0  0  0  0  0  0  0  0
    7.6364  -12.5532   24.4540 C   0  0  0  0  0  0  0  0  0  0  0  0
    7.0228  -13.7822   24.3295 C   0  0  0  0  0  0  0  0  0  0  0  0
    7.0536  -14.5915   23.1109 C   0  0  0  0  0  0  0  0  0  0  0  0
    8.3713  -15.2208   22.7856 C   0  0  2  0  0  0  0  0  0  0  0  0
    8.1302  -16.0794   21.6162 N   0  0  0  0  0  0  0  0  0  0  0  0
    8.8687  -16.0523   23.9046 C   0  0  0  0  0  0  0  0  0  0  0  0
    8.2757  -17.1160   24.2510 O   0  0  0  0  0  0  0  0  0  0  0  0
    6.3332  -14.2706   25.4240 C   0  0  0  0  0  0  0  0  0  0  0  0
    6.2417  -13.5756   26.6205 C   0  0  0  0  0  0  0  0  0  0  0  0
   13.4830  -18.0920   24.6833 N   0  0  0  0  0  0  0  0  0  0  0  0
   12.7029  -16.9232   24.5403 C   0  0  0  0  0  0  0  0  0  0  0  0
   12.5389  -16.4234   23.4115 O   0  0  0  0  0  0  0  0  0  0  0  0
   12.0917  -16.3071   25.7244 C   0  0  0  0  0  0  0  0  0  0  0  0
   10.5981  -16.5045   25.6795 C   0  0  2  0  0  0  0  0  0  0  0  0
   10.0358  -15.6578   24.6123 N   0  0  0  0  0  0  0  0  0  0  0  0
    9.9919  -16.1087   26.9627 C   0  0  0  0  0  0  0  0  0  0  0  0
    9.4003  -16.8962   27.7132 O   0  0  0  0  0  0  0  0  0  0  0  0
   10.0819  -14.7809   27.3653 O   0  0  0  0  0  0  0  0  0  0  0  0
  2  1  1  6
  3  4  1  0
  3  2  1  0
  5  6  1  0
  5  4  1  0
  6  7  1  0
  8  2  1  0
  8  9  2  0
 10 11  1  0
 11 12  2  0
 12 13  1  0
 14 13  2  0
 14 15  1  0
 16 15  1  1
 16 17  1  0
 17  8  1  0
 18 16  1  0
 19 18  2  0
 20 14  1  0
 21 11  1  0
 21 20  2  0
 22 23  1  0
 23 25  1  0
 24 23  2  0
 26 25  1  1
 26 28  1  0
 26 27  1  0
 27 18  1  0
 28 30  1  0
 29 28  2  0
M  END
$$$$
