KYN.pdb
     RDKit          3D

 30 30  0  0  1  0  0  0  0  0999 V2000
    7.3742  -16.1097   20.7968 N   0  0  0  0  0  0  0  0  0  0  0  0
    8.3333  -15.0799   20.5655 C   0  0  1  0  0  0  0  0  0  0  0  0
    7.7376  -13.7879   20.0505 C   0  0  0  0  0  0  0  0  0  0  0  0
    8.3680  -13.4471   18.7410 C   0  0  0  0  0  0  0  0  0  0  0  0
    7.4371  -13.6017   17.5681 C   0  0  0  0  0  0  0  0  0  0  0  0
    8.1452  -13.2514   16.2890 C   0  0  0  0  0  0  0  0  0  0  0  0
    7.3338  -13.5009   15.1190 N   0  0  0  0  0  0  0  0  0  0  0  0
    9.0495  -14.7635   21.8130 C   0  0  0  0  0  0  0  0  0  0  0  0
   10.0421  -13.9667   21.8455 O   0  0  0  0  0  0  0  0  0  0  0  0
   10.4422  -14.9768   30.6145 O   0  0  0  0  0  0  0  0  0  0  0  0
    9.9462  -14.9680   29.3285 C   0  0  0  0  0  0  0  0  0  0  0  0
    9.8516  -13.8024   28.6057 C   0  0  0  0  0  0  0  0  0  0  0  0
    9.3630  -13.7579   27.3238 C   0  0  0  0  0  0  0  0  0  0  0  0
    8.9426  -14.9214   26.7140 C   0  0  0  0  0  0  0  0  0  0  0  0
    8.4008  -14.9831   25.3562 C   0  0  0  0  0  0  0  0  0  0  0  0
    9.4138  -15.0780   24.2593 C   0  0  2  0  0  0  0  0  0  0  0  0
    8.6523  -15.3418   23.0291 N   0  0  0  0  0  0  0  0  0  0  0  0
   10.3640  -16.1893   24.4903 C   0  0  0  0  0  0  0  0  0  0  0  0
   11.0913  -16.2315   25.5258 O   0  0  0  0  0  0  0  0  0  0  0  0
    9.0357  -16.0964   27.4371 C   0  0  0  0  0  0  0  0  0  0  0  0
    9.5296  -16.1397   28.7321 C   0  0  0  0  0  0  0  0  0  0  0  0
    8.7948  -20.7220   24.2741 N   0  0  0  0  0  0  0  0  0  0  0  0
   10.0360  -20.0867   24.4993 C   0  0  0  0  0  0  0  0  0  0  0  0
   10.4432  -19.9201   25.6643 O   0  0  0  0  0  0  0  0  0  0  0  0
   10.8362  -19.6278   23.3572 C   0  0  0  0  0  0  0  0  0  0  0  0
   11.4748  -18.3038   23.6902 C   0  0  2  0  0  0  0  0  0  0  0  0
   10.4705  -17.2364   23.5359 N   0  0  0  0  0  0  0  0  0  0  0  0
   12.5951  -18.0321   22.7728 C   0  0  0  0  0  0  0  0  0  0  0  0
   13.6780  -18.6311   22.8169 O   0  0  0  0  0  0  0  0  0  0  0  0
   12.4414  -17.0515   21.7991 O   0  0  0  0  0  0  0  0  0  0  0  0
  2  1  1  1
  3  4  1  0
  3  2  1  0
  5  6  1  0
  5  4  1  0
  6  7  1  0
  8  2  1  0
  8  9  2  0
 10 11  1  0
 11 12  2  0
 12 13  1  0
 14 13  2  0
 14 15  1  0
 16 15  1  1
 16 17  1  0
 17  8  1  0
 18 16  1  0
 19 18  2  0
 20 14  1  0
 21 11  1  0
 21 20  2  0
 22 23  1  0
 23 25  1  0
 24 23  2  0
 26 25  1  6
 26 28  1  0
 26 27  1  0
 27 18  1  0
 28 30  1  0
 29 28  2  0
M  END
$$$$
