KYN.pdb
     RDKit          3D

 30 30  0  0  1  0  0  0  0  0999 V2000
    7.1034  -15.4680   20.7899 N   0  0  0  0  0  0  0  0  0  0  0  0
    8.2549  -14.6605   20.5536 C   0  0  1  0  0  0  0  0  0  0  0  0
    7.9369  -13.2450   20.1241 C   0  0  0  0  0  0  0  0  0  0  0  0
    7.1254  -13.2851   18.8718 C   0  0  0  0  0  0  0  0  0  0  0  0
    7.9433  -13.5418   17.6343 C   0  0  0  0  0  0  0  0  0  0  0  0
    7.0626  -13.5394   16.4158 C   0  0  0  0  0  0  0  0  0  0  0  0
    7.8007  -13.7820   15.1969 N   0  0  0  0  0  0  0  0  0  0  0  0
    9.0727  -14.5725   21.7754 C   0  0  0  0  0  0  0  0  0  0  0  0
   10.1772  -13.9400   21.8120 O   0  0  0  0  0  0  0  0  0  0  0  0
   10.7987  -14.8162   30.4681 O   0  0  0  0  0  0  0  0  0  0  0  0
   10.2414  -14.8466   29.2077 C   0  0  0  0  0  0  0  0  0  0  0  0
   10.0285  -13.6929   28.4911 C   0  0  0  0  0  0  0  0  0  0  0  0
    9.4762  -13.6873   27.2345 C   0  0  0  0  0  0  0  0  0  0  0  0
    9.1112  -14.8797   26.6453 C   0  0  0  0  0  0  0  0  0  0  0  0
    8.5098  -14.9840   25.3155 C   0  0  0  0  0  0  0  0  0  0  0  0
    9.4735  -15.1063   24.1776 C   0  0  2  0  0  0  0  0  0  0  0  0
    8.6517  -15.1953   22.9612 N   0  0  0  0  0  0  0  0  0  0  0  0
   10.3020  -16.3274   24.2946 C   0  0  0  0  0  0  0  0  0  0  0  0
   10.4782  -16.9012   25.4094 O   0  0  0  0  0  0  0  0  0  0  0  0
    9.3232  -16.0429   27.3623 C   0  0  0  0  0  0  0  0  0  0  0  0
    9.8813  -16.0470   28.6317 C   0  0  0  0  0  0  0  0  0  0  0  0
   10.4665  -19.5232   22.1373 N   0  0  0  0  0  0  0  0  0  0  0  0
   11.5615  -19.1256   21.3385 C   0  0  0  0  0  0  0  0  0  0  0  0
   11.6940  -19.5952   20.1927 O   0  0  0  0  0  0  0  0  0  0  0  0
   12.5349  -18.1616   21.8663 C   0  0  0  0  0  0  0  0  0  0  0  0
   12.1150  -17.7280   23.2473 C   0  0  2  0  0  0  0  0  0  0  0  0
   10.9176  -16.8759   23.1376 N   0  0  0  0  0  0  0  0  0  0  0  0
   13.1898  -16.9491   23.8868 C   0  0  0  0  0  0  0  0  0  0  0  0
   13.3382  -15.7297   23.7314 O   0  0  0  0  0  0  0  0  0  0  0  0
   14.0941  -17.6074   24.7128 O   0  0  0  0  0  0  0  0  0  0  0  0
  2  1  1  1
  3  4  1  0
  3  2  1  0
  5  6  1  0
  5  4  1  0
  6  7  1  0
  8  2  1  0
  8  9  2  0
 10 11  1  0
 11 12  2  0
 12 13  1  0
 14 13  2  0
 14 15  1  0
 16 15  1  1
 16 17  1  0
 17  8  1  0
 18 16  1  0
 19 18  2  0
 20 14  1  0
 21 11  1  0
 21 20  2  0
 22 23  1  0
 23 25  1  0
 24 23  2  0
 26 25  1  6
 26 28  1  0
 26 27  1  0
 27 18  1  0
 28 30  1  0
 29 28  2  0
M  END
$$$$
