KYN.pdb
     RDKit          3D

 30 30  0  0  1  0  0  0  0  0999 V2000
   10.1167  -17.0238   18.2716 N   0  0  0  0  0  0  0  0  0  0  0  0
    9.0089  -17.1806   19.1560 C   0  0  1  0  0  0  0  0  0  0  0  0
    8.6902  -18.6203   19.4947 C   0  0  0  0  0  0  0  0  0  0  0  0
    8.4301  -19.3732   18.2321 C   0  0  0  0  0  0  0  0  0  0  0  0
    7.9717  -20.7887   18.4607 C   0  0  0  0  0  0  0  0  0  0  0  0
    7.6028  -21.4361   17.1548 C   0  0  0  0  0  0  0  0  0  0  0  0
    7.2885  -22.8394   17.3002 N   0  0  0  0  0  0  0  0  0  0  0  0
    9.2697  -16.4810   20.4256 C   0  0  0  0  0  0  0  0  0  0  0  0
   10.4306  -16.4227   20.9453 O   0  0  0  0  0  0  0  0  0  0  0  0
    6.9905  -12.0727   27.8470 O   0  0  0  0  0  0  0  0  0  0  0  0
    7.0603  -12.6342   26.5901 C   0  0  0  0  0  0  0  0  0  0  0  0
    7.8083  -12.0597   25.5899 C   0  0  0  0  0  0  0  0  0  0  0  0
    7.8997  -12.5921   24.3281 C   0  0  0  0  0  0  0  0  0  0  0  0
    7.2198  -13.7540   24.0278 C   0  0  0  0  0  0  0  0  0  0  0  0
    7.2446  -14.3996   22.7150 C   0  0  0  0  0  0  0  0  0  0  0  0
    8.4874  -15.1689   22.3959 C   0  0  2  0  0  0  0  0  0  0  0  0
    8.2262  -15.8440   21.1157 N   0  0  0  0  0  0  0  0  0  0  0  0
    8.7789  -16.1862   23.4310 C   0  0  0  0  0  0  0  0  0  0  0  0
    8.0960  -17.2483   23.5236 O   0  0  0  0  0  0  0  0  0  0  0  0
    6.4658  -14.3354   25.0305 C   0  0  0  0  0  0  0  0  0  0  0  0
    6.3745  -13.7964   26.3049 C   0  0  0  0  0  0  0  0  0  0  0  0
   12.3320  -19.6650   25.4340 N   0  0  0  0  0  0  0  0  0  0  0  0
   12.3922  -18.2902   25.7523 C   0  0  0  0  0  0  0  0  0  0  0  0
   12.9317  -17.9241   26.8134 O   0  0  0  0  0  0  0  0  0  0  0  0
   11.8178  -17.3038   24.8290 C   0  0  0  0  0  0  0  0  0  0  0  0
   10.3665  -17.0817   25.1697 C   0  0  2  0  0  0  0  0  0  0  0  0
    9.8457  -15.9765   24.3457 N   0  0  0  0  0  0  0  0  0  0  0  0
   10.2255  -16.7168   26.5901 C   0  0  0  0  0  0  0  0  0  0  0  0
   10.2247  -15.5487   27.0009 O   0  0  0  0  0  0  0  0  0  0  0  0
   10.0847  -17.7302   27.5317 O   0  0  0  0  0  0  0  0  0  0  0  0
  2  1  1  6
  3  4  1  0
  3  2  1  0
  5  6  1  0
  5  4  1  0
  6  7  1  0
  8  2  1  0
  8  9  2  0
 10 11  1  0
 11 12  2  0
 12 13  1  0
 14 13  2  0
 14 15  1  0
 16 15  1  1
 16 17  1  0
 17  8  1  0
 18 16  1  0
 19 18  2  0
 20 14  1  0
 21 11  1  0
 21 20  2  0
 22 23  1  0
 23 25  1  0
 24 23  2  0
 26 25  1  6
 26 28  1  0
 26 27  1  0
 27 18  1  0
 28 30  1  0
 29 28  2  0
M  END
$$$$
