KYN.pdb
     RDKit          3D

 30 30  0  0  1  0  0  0  0  0999 V2000
    7.6849  -15.8590   18.6986 N   0  0  0  0  0  0  0  0  0  0  0  0
    8.8201  -15.0011   18.7949 C   0  0  1  0  0  0  0  0  0  0  0  0
    8.7448  -13.7779   17.9076 C   0  0  0  0  0  0  0  0  0  0  0  0
    7.8295  -14.0605   16.7626 C   0  0  0  0  0  0  0  0  0  0  0  0
    8.5346  -14.1369   15.4349 C   0  0  0  0  0  0  0  0  0  0  0  0
    7.5413  -14.3527   14.3271 C   0  0  0  0  0  0  0  0  0  0  0  0
    8.1689  -14.4402   13.0280 N   0  0  0  0  0  0  0  0  0  0  0  0
    8.9818  -14.5264   20.1797 C   0  0  0  0  0  0  0  0  0  0  0  0
    9.9830  -13.8320   20.5495 O   0  0  0  0  0  0  0  0  0  0  0  0
    7.1049  -12.6721   28.5903 O   0  0  0  0  0  0  0  0  0  0  0  0
    7.0793  -12.9665   27.2439 C   0  0  0  0  0  0  0  0  0  0  0  0
    6.1866  -13.8751   26.7267 C   0  0  0  0  0  0  0  0  0  0  0  0
    6.1339  -14.1913   25.3921 C   0  0  0  0  0  0  0  0  0  0  0  0
    7.0053  -13.5830   24.5128 C   0  0  0  0  0  0  0  0  0  0  0  0
    7.0368  -13.8530   23.0750 C   0  0  0  0  0  0  0  0  0  0  0  0
    8.2740  -14.5261   22.5703 C   0  0  2  0  0  0  0  0  0  0  0  0
    8.0182  -14.8305   21.1545 N   0  0  0  0  0  0  0  0  0  0  0  0
    8.5430  -15.7871   23.2975 C   0  0  0  0  0  0  0  0  0  0  0  0
    7.6880  -16.7199   23.3401 O   0  0  0  0  0  0  0  0  0  0  0  0
    7.9052  -12.6685   25.0283 C   0  0  0  0  0  0  0  0  0  0  0  0
    7.9571  -12.3501   26.3769 C   0  0  0  0  0  0  0  0  0  0  0  0
   11.3618  -17.9083   21.2124 N   0  0  0  0  0  0  0  0  0  0  0  0
   11.4752  -17.7766   22.6141 C   0  0  0  0  0  0  0  0  0  0  0  0
   12.4910  -17.2496   23.1056 O   0  0  0  0  0  0  0  0  0  0  0  0
   10.3941  -18.2624   23.4804 C   0  0  0  0  0  0  0  0  0  0  0  0
   10.1382  -17.2591   24.5757 C   0  0  2  0  0  0  0  0  0  0  0  0
    9.7841  -15.9652   23.9657 N   0  0  0  0  0  0  0  0  0  0  0  0
   11.3492  -17.0776   25.3950 C   0  0  0  0  0  0  0  0  0  0  0  0
   12.0084  -16.0297   25.4211 O   0  0  0  0  0  0  0  0  0  0  0  0
   11.7870  -18.1332   26.1870 O   0  0  0  0  0  0  0  0  0  0  0  0
  2  1  1  1
  3  4  1  0
  3  2  1  0
  5  6  1  0
  5  4  1  0
  6  7  1  0
  8  2  1  0
  8  9  2  0
 10 11  1  0
 11 12  2  0
 12 13  1  0
 14 13  2  0
 14 15  1  0
 16 15  1  1
 16 17  1  0
 17  8  1  0
 18 16  1  0
 19 18  2  0
 20 14  1  0
 21 11  1  0
 21 20  2  0
 22 23  1  0
 23 25  1  0
 24 23  2  0
 26 25  1  6
 26 28  1  0
 26 27  1  0
 27 18  1  0
 28 30  1  0
 29 28  2  0
M  END
$$$$
