KYN.pdb
     RDKit          3D

 30 30  0  0  1  0  0  0  0  0999 V2000
    7.2950  -15.9817   20.9706 N   0  0  0  0  0  0  0  0  0  0  0  0
    8.4605  -15.1655   20.8727 C   0  0  1  0  0  0  0  0  0  0  0  0
    8.1975  -13.7795   20.3261 C   0  0  0  0  0  0  0  0  0  0  0  0
    7.5224  -13.8972   18.9999 C   0  0  0  0  0  0  0  0  0  0  0  0
    8.4189  -13.5625   17.8379 C   0  0  0  0  0  0  0  0  0  0  0  0
    7.6496  -13.6288   16.5479 C   0  0  0  0  0  0  0  0  0  0  0  0
    8.5033  -13.5239   15.3863 N   0  0  0  0  0  0  0  0  0  0  0  0
    9.0784  -15.0015   22.1995 C   0  0  0  0  0  0  0  0  0  0  0  0
   10.0869  -14.2487   22.3931 O   0  0  0  0  0  0  0  0  0  0  0  0
    5.5294  -10.5083   26.6327 O   0  0  0  0  0  0  0  0  0  0  0  0
    6.1457  -11.7156   26.3825 C   0  0  0  0  0  0  0  0  0  0  0  0
    7.4987  -11.7945   26.1518 C   0  0  0  0  0  0  0  0  0  0  0  0
    8.1440  -12.9794   25.8998 C   0  0  0  0  0  0  0  0  0  0  0  0
    7.4234  -14.1552   25.8720 C   0  0  0  0  0  0  0  0  0  0  0  0
    8.0117  -15.4684   25.6067 C   0  0  0  0  0  0  0  0  0  0  0  0
    9.1575  -15.4814   24.6448 C   0  0  2  0  0  0  0  0  0  0  0  0
    8.5645  -15.6831   23.3142 N   0  0  0  0  0  0  0  0  0  0  0  0
   10.0964  -16.5893   24.9314 C   0  0  0  0  0  0  0  0  0  0  0  0
   10.6005  -16.7465   26.0822 O   0  0  0  0  0  0  0  0  0  0  0  0
    6.0621  -14.0809   26.1032 C   0  0  0  0  0  0  0  0  0  0  0  0
    5.4117  -12.8830   26.3577 C   0  0  0  0  0  0  0  0  0  0  0  0
    9.4370  -19.9175   21.4610 N   0  0  0  0  0  0  0  0  0  0  0  0
    9.9882  -19.9821   22.7598 C   0  0  0  0  0  0  0  0  0  0  0  0
    9.2965  -20.4060   23.7048 O   0  0  0  0  0  0  0  0  0  0  0  0
   11.3727  -19.5488   22.9851 C   0  0  0  0  0  0  0  0  0  0  0  0
   11.4158  -18.5852   24.1433 C   0  0  2  0  0  0  0  0  0  0  0  0
   10.4466  -17.5019   23.9003 N   0  0  0  0  0  0  0  0  0  0  0  0
   12.7601  -17.9951   24.2668 C   0  0  0  0  0  0  0  0  0  0  0  0
   12.9906  -16.7842   24.1488 O   0  0  0  0  0  0  0  0  0  0  0  0
   13.8382  -18.8327   24.5302 O   0  0  0  0  0  0  0  0  0  0  0  0
  2  1  1  1
  3  4  1  0
  3  2  1  0
  5  6  1  0
  5  4  1  0
  6  7  1  0
  8  2  1  0
  8  9  2  0
 10 11  1  0
 11 12  2  0
 12 13  1  0
 14 13  2  0
 14 15  1  0
 16 15  1  1
 16 17  1  0
 17  8  1  0
 18 16  1  0
 19 18  2  0
 20 14  1  0
 21 11  1  0
 21 20  2  0
 22 23  1  0
 23 25  1  0
 24 23  2  0
 26 25  1  6
 26 28  1  0
 26 27  1  0
 27 18  1  0
 28 30  1  0
 29 28  2  0
M  END
$$$$
