KYN.pdb
     RDKit          3D

 30 30  0  0  1  0  0  0  0  0999 V2000
   10.7553  -17.2121   19.7059 N   0  0  0  0  0  0  0  0  0  0  0  0
    9.7624  -17.5409   20.6754 C   0  0  1  0  0  0  0  0  0  0  0  0
    9.9795  -18.8773   21.3506 C   0  0  0  0  0  0  0  0  0  0  0  0
    9.8579  -19.9638   20.3341 C   0  0  0  0  0  0  0  0  0  0  0  0
    9.9596  -21.3472   20.9188 C   0  0  0  0  0  0  0  0  0  0  0  0
    9.9089  -22.3807   19.8281 C   0  0  0  0  0  0  0  0  0  0  0  0
   10.0323  -23.7289   20.3346 N   0  0  0  0  0  0  0  0  0  0  0  0
    9.7280  -16.5175   21.7340 C   0  0  0  0  0  0  0  0  0  0  0  0
   10.7454  -15.8132   22.0340 O   0  0  0  0  0  0  0  0  0  0  0  0
    6.0302  -10.6094   27.1842 O   0  0  0  0  0  0  0  0  0  0  0  0
    6.2858  -11.6066   26.2675 C   0  0  0  0  0  0  0  0  0  0  0  0
    5.7190  -12.8531   26.3891 C   0  0  0  0  0  0  0  0  0  0  0  0
    5.9518  -13.8681   25.4949 C   0  0  0  0  0  0  0  0  0  0  0  0
    6.7877  -13.6506   24.4196 C   0  0  0  0  0  0  0  0  0  0  0  0
    7.1070  -14.6645   23.4142 C   0  0  0  0  0  0  0  0  0  0  0  0
    8.4993  -15.2097   23.4649 C   0  0  2  0  0  0  0  0  0  0  0  0
    8.5493  -16.2818   22.4595 N   0  0  0  0  0  0  0  0  0  0  0  0
    8.8140  -15.7765   24.7957 C   0  0  0  0  0  0  0  0  0  0  0  0
    8.8547  -15.0481   25.8306 O   0  0  0  0  0  0  0  0  0  0  0  0
    7.3603  -12.3983   24.2931 C   0  0  0  0  0  0  0  0  0  0  0  0
    7.1241  -11.3739   25.1973 C   0  0  0  0  0  0  0  0  0  0  0  0
    6.8310  -18.2823   26.8397 N   0  0  0  0  0  0  0  0  0  0  0  0
    7.6199  -19.4036   26.5000 C   0  0  0  0  0  0  0  0  0  0  0  0
    7.0997  -20.5340   26.4517 O   0  0  0  0  0  0  0  0  0  0  0  0
    9.0474  -19.2267   26.2064 C   0  0  0  0  0  0  0  0  0  0  0  0
    9.3894  -17.7592   26.2389 C   0  0  2  0  0  0  0  0  0  0  0  0
    9.0778  -17.1664   24.9262 N   0  0  0  0  0  0  0  0  0  0  0  0
   10.8261  -17.5756   26.5091 C   0  0  0  0  0  0  0  0  0  0  0  0
   11.6081  -17.0308   25.7186 O   0  0  0  0  0  0  0  0  0  0  0  0
   11.3455  -18.0347   27.7144 O   0  0  0  0  0  0  0  0  0  0  0  0
  2  1  1  6
  3  4  1  0
  3  2  1  0
  5  6  1  0
  5  4  1  0
  6  7  1  0
  8  2  1  0
  8  9  2  0
 10 11  1  0
 11 12  2  0
 12 13  1  0
 14 13  2  0
 14 15  1  0
 16 15  1  1
 16 17  1  0
 17  8  1  0
 18 16  1  0
 19 18  2  0
 20 14  1  0
 21 11  1  0
 21 20  2  0
 22 23  1  0
 23 25  1  0
 24 23  2  0
 26 25  1  6
 26 28  1  0
 26 27  1  0
 27 18  1  0
 28 30  1  0
 29 28  2  0
M  END
$$$$
