KYN.pdb
     RDKit          3D

 30 30  0  0  1  0  0  0  0  0999 V2000
    9.7717  -17.2553   18.7909 N   0  0  0  0  0  0  0  0  0  0  0  0
    8.5411  -17.0009   19.4652 C   0  0  1  0  0  0  0  0  0  0  0  0
    7.6483  -18.2153   19.5966 C   0  0  0  0  0  0  0  0  0  0  0  0
    8.4718  -19.3824   20.0304 C   0  0  0  0  0  0  0  0  0  0  0  0
    7.7249  -20.6890   19.9995 C   0  0  0  0  0  0  0  0  0  0  0  0
    8.6380  -21.8222   20.3767 C   0  0  0  0  0  0  0  0  0  0  0  0
    7.9530  -23.0941   20.4262 N   0  0  0  0  0  0  0  0  0  0  0  0
    8.8016  -16.5014   20.8260 C   0  0  0  0  0  0  0  0  0  0  0  0
    9.8485  -16.8166   21.4787 O   0  0  0  0  0  0  0  0  0  0  0  0
    7.4429  -11.7526   28.1919 O   0  0  0  0  0  0  0  0  0  0  0  0
    7.3770  -12.3008   26.9289 C   0  0  0  0  0  0  0  0  0  0  0  0
    6.1796  -12.6974   26.3822 C   0  0  0  0  0  0  0  0  0  0  0  0
    6.0782  -13.2465   25.1283 C   0  0  0  0  0  0  0  0  0  0  0  0
    7.2145  -13.4172   24.3653 C   0  0  0  0  0  0  0  0  0  0  0  0
    7.2176  -13.9973   23.0220 C   0  0  0  0  0  0  0  0  0  0  0  0
    8.1531  -15.1465   22.8159 C   0  0  2  0  0  0  0  0  0  0  0  0
    7.8861  -15.6451   21.4584 N   0  0  0  0  0  0  0  0  0  0  0  0
    7.9042  -16.2327   23.7903 C   0  0  0  0  0  0  0  0  0  0  0  0
    6.9206  -17.0199   23.6643 O   0  0  0  0  0  0  0  0  0  0  0  0
    8.4213  -13.0199   24.9110 C   0  0  0  0  0  0  0  0  0  0  0  0
    8.5221  -12.4654   26.1779 C   0  0  0  0  0  0  0  0  0  0  0  0
    8.8430  -20.8559   25.2381 N   0  0  0  0  0  0  0  0  0  0  0  0
    9.8977  -19.9526   24.9802 C   0  0  0  0  0  0  0  0  0  0  0  0
   11.0704  -20.2799   25.2422 O   0  0  0  0  0  0  0  0  0  0  0  0
    9.6025  -18.6344   24.4052 C   0  0  0  0  0  0  0  0  0  0  0  0
    9.0228  -17.7396   25.4705 C   0  0  2  0  0  0  0  0  0  0  0  0
    8.7815  -16.4048   24.8945 N   0  0  0  0  0  0  0  0  0  0  0  0
    9.9674  -17.6040   26.5930 C   0  0  0  0  0  0  0  0  0  0  0  0
   10.0420  -18.4128   27.5277 O   0  0  0  0  0  0  0  0  0  0  0  0
   10.8282  -16.5123   26.6165 O   0  0  0  0  0  0  0  0  0  0  0  0
  2  1  1  1
  3  4  1  0
  3  2  1  0
  5  6  1  0
  5  4  1  0
  6  7  1  0
  8  2  1  0
  8  9  2  0
 10 11  1  0
 11 12  2  0
 12 13  1  0
 14 13  2  0
 14 15  1  0
 16 15  1  1
 16 17  1  0
 17  8  1  0
 18 16  1  0
 19 18  2  0
 20 14  1  0
 21 11  1  0
 21 20  2  0
 22 23  1  0
 23 25  1  0
 24 23  2  0
 26 25  1  6
 26 28  1  0
 26 27  1  0
 27 18  1  0
 28 30  1  0
 29 28  2  0
M  END
$$$$
