SHC.pdb
     RDKit          3D

 23 23  0  0  1  0  0  0  0  0999 V2000
   26.4994  -13.1007  -15.6267 O   0  0  0  0  0  0  0  0  0  0  0  0
   25.7490  -12.0348  -16.0593 C   0  0  0  0  0  0  0  0  0  0  0  0
   24.4693  -12.4562  -16.7386 C   0  0  2  0  0  0  0  0  0  0  0  0
   24.7246  -13.1071  -18.0053 N   0  0  0  0  0  0  0  0  0  0  0  0
   23.5449  -11.3346  -16.9632 C   0  0  0  0  0  0  0  0  0  0  0  0
   23.6308  -10.5817  -17.9930 O   0  0  0  0  0  0  0  0  0  0  0  0
   22.5221  -11.0728  -16.0117 N   0  0  0  0  0  0  0  0  0  0  0  0
   21.5532   -9.9846  -16.1878 C   0  0  1  0  0  0  0  0  0  0  0  0
   20.2055  -10.5005  -15.6854 C   0  0  0  0  0  0  0  0  0  0  0  0
   19.5136  -11.3202  -16.6941 C   0  0  0  0  0  0  0  0  0  0  0  0
   19.9940  -11.4747  -17.9951 C   0  0  0  0  0  0  0  0  0  0  0  0
   19.1498  -12.2715  -18.6632 N   0  0  0  0  0  0  0  0  0  0  0  0
   18.1408  -12.6343  -17.8316 C   0  0  0  0  0  0  0  0  0  0  0  0
   18.3931  -12.0390  -16.6439 N   0  0  0  0  0  0  0  0  0  0  0  0
   21.9041   -8.8178  -15.3560 C   0  0  0  0  0  0  0  0  0  0  0  0
   22.4138   -9.0032  -14.2336 O   0  0  0  0  0  0  0  0  0  0  0  0
   21.6773   -7.4977  -15.7991 N   0  0  0  0  0  0  0  0  0  0  0  0
   22.0982   -6.4030  -14.9730 C   0  0  1  0  0  0  0  0  0  0  0  0
   22.9167   -5.3735  -15.7050 C   0  0  0  0  0  0  0  0  0  0  0  0
   23.2265   -4.0045  -14.5262 S   0  0  0  0  0  0  0  0  0  0  0  0
   20.8803   -5.7124  -14.4532 C   0  0  0  0  0  0  0  0  0  0  0  0
   21.0226   -4.9474  -13.2817 O   0  0  0  0  0  0  0  0  0  0  0  0
   19.7698   -5.8054  -15.0322 O   0  0  0  0  0  0  0  0  0  0  0  0
  2  1  1  0
  3  2  1  0
  3  5  1  0
  3  4  1  6
  5  6  2  0
  7  8  1  0
  7  5  1  0
  8 15  1  0
  8  9  1  1
 10  9  1  0
 10 11  2  0
 12 11  1  0
 13 12  1  0
 14 13  2  0
 14 10  1  0
 15 17  1  0
 15 16  2  0
 17 18  1  0
 18 21  1  0
 18 19  1  6
 20 19  1  0
 21 23  2  0
 21 22  1  0
M  END
$$$$
