SHC.pdb
     RDKit          3D

 23 23  0  0  1  0  0  0  0  0999 V2000
   29.1820   -9.0610  -17.5271 O   0  0  0  0  0  0  0  0  0  0  0  0
   27.8192   -9.0196  -17.6931 C   0  0  0  0  0  0  0  0  0  0  0  0
   27.1395  -10.3027  -17.2829 C   0  0  2  0  0  0  0  0  0  0  0  0
   27.4546  -11.3881  -18.1862 N   0  0  0  0  0  0  0  0  0  0  0  0
   25.6772  -10.1724  -17.1951 C   0  0  0  0  0  0  0  0  0  0  0  0
   24.9248  -10.2750  -18.2237 O   0  0  0  0  0  0  0  0  0  0  0  0
   25.0739   -9.9250  -15.9321 N   0  0  0  0  0  0  0  0  0  0  0  0
   23.6316   -9.6947  -15.7886 C   0  0  1  0  0  0  0  0  0  0  0  0
   23.2760   -9.9818  -14.3306 C   0  0  0  0  0  0  0  0  0  0  0  0
   21.8312   -9.8555  -14.0761 C   0  0  0  0  0  0  0  0  0  0  0  0
   20.9223   -9.4896  -15.0697 C   0  0  0  0  0  0  0  0  0  0  0  0
   19.6970   -9.4630  -14.5296 N   0  0  0  0  0  0  0  0  0  0  0  0
   19.7899   -9.8008  -13.2186 C   0  0  0  0  0  0  0  0  0  0  0  0
   21.0999  -10.0326  -12.9767 N   0  0  0  0  0  0  0  0  0  0  0  0
   23.2885   -8.2829  -16.0449 C   0  0  0  0  0  0  0  0  0  0  0  0
   24.0115   -7.3861  -15.5687 O   0  0  0  0  0  0  0  0  0  0  0  0
   22.1628   -7.9228  -16.8153 N   0  0  0  0  0  0  0  0  0  0  0  0
   21.9065   -6.5341  -17.0684 C   0  0  1  0  0  0  0  0  0  0  0  0
   21.4668   -6.2482  -18.4792 C   0  0  0  0  0  0  0  0  0  0  0  0
   22.8710   -6.6863  -19.5728 S   0  0  0  0  0  0  0  0  0  0  0  0
   20.8063   -6.0876  -16.1626 C   0  0  0  0  0  0  0  0  0  0  0  0
   21.0459   -4.9529  -15.3669 O   0  0  0  0  0  0  0  0  0  0  0  0
   19.7083   -6.6945  -16.1070 O   0  0  0  0  0  0  0  0  0  0  0  0
  2  1  1  0
  3  2  1  0
  3  5  1  0
  3  4  1  6
  5  6  2  0
  7  8  1  0
  7  5  1  0
  8 15  1  0
  8  9  1  1
 10  9  1  0
 10 11  2  0
 12 11  1  0
 13 12  1  0
 14 13  2  0
 14 10  1  0
 15 17  1  0
 15 16  2  0
 17 18  1  0
 18 21  1  0
 18 19  1  6
 20 19  1  0
 21 23  2  0
 21 22  1  0
M  END
$$$$
