SHC.pdb
     RDKit          3D

 23 23  0  0  1  0  0  0  0  0999 V2000
   23.5132  -13.3877  -16.3469 O   0  0  0  0  0  0  0  0  0  0  0  0
   22.1490  -13.4801  -16.4758 C   0  0  0  0  0  0  0  0  0  0  0  0
   21.5483  -12.3050  -17.2072 C   0  0  2  0  0  0  0  0  0  0  0  0
   22.0447  -12.2074  -18.5627 N   0  0  0  0  0  0  0  0  0  0  0  0
   21.7867  -11.0242  -16.5248 C   0  0  0  0  0  0  0  0  0  0  0  0
   21.4585  -10.8357  -15.3036 O   0  0  0  0  0  0  0  0  0  0  0  0
   22.4001   -9.9582  -17.2373 N   0  0  0  0  0  0  0  0  0  0  0  0
   22.7442   -8.6855  -16.5926 C   0  0  1  0  0  0  0  0  0  0  0  0
   24.1545   -8.3186  -17.0520 C   0  0  0  0  0  0  0  0  0  0  0  0
   25.1854   -9.1275  -16.3802 C   0  0  0  0  0  0  0  0  0  0  0  0
   24.8807  -10.0587  -15.3867 C   0  0  0  0  0  0  0  0  0  0  0  0
   26.0229  -10.6259  -14.9774 N   0  0  0  0  0  0  0  0  0  0  0  0
   27.0533  -10.0878  -15.6776 C   0  0  0  0  0  0  0  0  0  0  0  0
   26.5091   -9.1814  -16.5206 N   0  0  0  0  0  0  0  0  0  0  0  0
   21.8501   -7.6010  -17.0412 C   0  0  0  0  0  0  0  0  0  0  0  0
   21.7260   -7.3822  -18.2621 O   0  0  0  0  0  0  0  0  0  0  0  0
   21.1324   -6.8058  -16.1232 N   0  0  0  0  0  0  0  0  0  0  0  0
   20.2411   -5.7981  -16.6215 C   0  0  1  0  0  0  0  0  0  0  0  0
   18.7899   -6.1934  -16.5648 C   0  0  0  0  0  0  0  0  0  0  0  0
   17.8137   -4.6858  -16.9309 S   0  0  0  0  0  0  0  0  0  0  0  0
   20.3999   -4.5742  -15.7805 C   0  0  0  0  0  0  0  0  0  0  0  0
   19.9032   -3.3653  -16.3000 O   0  0  0  0  0  0  0  0  0  0  0  0
   20.9531   -4.6135  -14.6538 O   0  0  0  0  0  0  0  0  0  0  0  0
  2  1  1  0
  3  2  1  0
  3  5  1  0
  3  4  1  6
  5  6  2  0
  7  8  1  0
  7  5  1  0
  8 15  1  0
  8  9  1  6
 10  9  1  0
 10 11  2  0
 12 11  1  0
 13 12  1  0
 14 13  2  0
 14 10  1  0
 15 17  1  0
 15 16  2  0
 17 18  1  0
 18 21  1  0
 18 19  1  1
 20 19  1  0
 21 23  2  0
 21 22  1  0
M  END
$$$$
