SHC.pdb
     RDKit          3D

 23 23  0  0  1  0  0  0  0  0999 V2000
   26.3755  -11.6783  -15.6313 O   0  0  0  0  0  0  0  0  0  0  0  0
   25.5508  -10.7338  -16.1919 C   0  0  0  0  0  0  0  0  0  0  0  0
   24.1209  -11.2004  -16.3106 C   0  0  2  0  0  0  0  0  0  0  0  0
   23.9789  -12.2447  -17.3018 N   0  0  0  0  0  0  0  0  0  0  0  0
   23.1890  -10.1106  -16.6378 C   0  0  0  0  0  0  0  0  0  0  0  0
   22.9550   -9.7585  -17.8444 O   0  0  0  0  0  0  0  0  0  0  0  0
   22.5242   -9.4226  -15.5866 N   0  0  0  0  0  0  0  0  0  0  0  0
   21.6079   -8.3053  -15.8430 C   0  0  1  0  0  0  0  0  0  0  0  0
   20.2408   -8.7138  -15.2964 C   0  0  0  0  0  0  0  0  0  0  0  0
   19.5045   -9.5795  -16.2327 C   0  0  0  0  0  0  0  0  0  0  0  0
   19.7590   -9.5904  -17.6047 C   0  0  0  0  0  0  0  0  0  0  0  0
   18.9328  -10.4747  -18.1786 N   0  0  0  0  0  0  0  0  0  0  0  0
   18.1544  -11.0330  -17.2174 C   0  0  0  0  0  0  0  0  0  0  0  0
   18.5280  -10.4667  -16.0478 N   0  0  0  0  0  0  0  0  0  0  0  0
   22.0217   -7.0959  -15.1062 C   0  0  0  0  0  0  0  0  0  0  0  0
   22.3138   -7.1910  -13.8981 O   0  0  0  0  0  0  0  0  0  0  0  0
   22.0949   -5.8350  -15.7347 N   0  0  0  0  0  0  0  0  0  0  0  0
   22.6556   -4.7284  -15.0142 C   0  0  1  0  0  0  0  0  0  0  0  0
   23.4670   -3.7966  -15.8737 C   0  0  0  0  0  0  0  0  0  0  0  0
   24.9191   -4.7468  -16.4640 S   0  0  0  0  0  0  0  0  0  0  0  0
   21.5347   -3.9311  -14.4327 C   0  0  0  0  0  0  0  0  0  0  0  0
   21.8647   -2.9604  -13.4699 O   0  0  0  0  0  0  0  0  0  0  0  0
   20.3426   -4.1132  -14.7832 O   0  0  0  0  0  0  0  0  0  0  0  0
  2  1  1  0
  3  2  1  0
  3  5  1  0
  3  4  1  6
  5  6  2  0
  7  8  1  0
  7  5  1  0
  8 15  1  0
  8  9  1  1
 10  9  1  0
 10 11  2  0
 12 11  1  0
 13 12  1  0
 14 13  2  0
 14 10  1  0
 15 17  1  0
 15 16  2  0
 17 18  1  0
 18 21  1  0
 18 19  1  6
 20 19  1  0
 21 23  2  0
 21 22  1  0
M  END
$$$$
