SHC.pdb
     RDKit          3D

 23 23  0  0  1  0  0  0  0  0999 V2000
   20.2505  -12.7872  -15.1497 O   0  0  0  0  0  0  0  0  0  0  0  0
   19.6848  -11.6056  -15.5624 C   0  0  0  0  0  0  0  0  0  0  0  0
   18.2110  -11.5209  -15.2504 C   0  0  2  0  0  0  0  0  0  0  0  0
   17.4013  -11.7080  -16.4347 N   0  0  0  0  0  0  0  0  0  0  0  0
   17.8327  -10.2484  -14.6174 C   0  0  0  0  0  0  0  0  0  0  0  0
   17.5382   -9.2111  -15.3044 O   0  0  0  0  0  0  0  0  0  0  0  0
   17.7907  -10.1604  -13.1994 N   0  0  0  0  0  0  0  0  0  0  0  0
   17.4303   -8.9185  -12.5054 C   0  0  1  0  0  0  0  0  0  0  0  0
   17.0442   -9.3003  -11.0772 C   0  0  0  0  0  0  0  0  0  0  0  0
   16.5782   -8.1404  -10.2990 C   0  0  0  0  0  0  0  0  0  0  0  0
   16.4654   -6.8628  -10.8488 C   0  0  0  0  0  0  0  0  0  0  0  0
   16.0195   -6.0331   -9.8965 N   0  0  0  0  0  0  0  0  0  0  0  0
   15.8420   -6.7382   -8.7508 C   0  0  0  0  0  0  0  0  0  0  0  0
   16.1907   -8.0143   -9.0306 N   0  0  0  0  0  0  0  0  0  0  0  0
   18.5859   -8.0063  -12.4091 C   0  0  0  0  0  0  0  0  0  0  0  0
   19.7060   -8.4732  -12.1242 O   0  0  0  0  0  0  0  0  0  0  0  0
   18.4547   -6.6194  -12.6314 N   0  0  0  0  0  0  0  0  0  0  0  0
   19.6382   -5.8195  -12.7637 C   0  0  1  0  0  0  0  0  0  0  0  0
   20.5783   -6.3039  -13.8347 C   0  0  0  0  0  0  0  0  0  0  0  0
   21.9586   -5.1004  -13.9146 S   0  0  0  0  0  0  0  0  0  0  0  0
   19.2275   -4.4311  -13.1300 C   0  0  0  0  0  0  0  0  0  0  0  0
   20.0372   -3.3764  -12.6718 O   0  0  0  0  0  0  0  0  0  0  0  0
   18.2021   -4.2051  -13.8188 O   0  0  0  0  0  0  0  0  0  0  0  0
  2  1  1  0
  3  2  1  0
  3  5  1  0
  3  4  1  6
  5  6  2  0
  7  8  1  0
  7  5  1  0
  8 15  1  0
  8  9  1  1
 10  9  1  0
 10 11  2  0
 12 11  1  0
 13 12  1  0
 14 13  2  0
 14 10  1  0
 15 17  1  0
 15 16  2  0
 17 18  1  0
 18 21  1  0
 18 19  1  6
 20 19  1  0
 21 23  2  0
 21 22  1  0
M  END
$$$$
