SHC.pdb
     RDKit          3D

 23 23  0  0  1  0  0  0  0  0999 V2000
   46.5417  -11.1647   -7.2482 O   0  0  0  0  0  0  0  0  0  0  0  0
   45.3121  -10.8319   -7.7616 C   0  0  0  0  0  0  0  0  0  0  0  0
   44.2169  -11.7680   -7.3134 C   0  0  2  0  0  0  0  0  0  0  0  0
   44.4816  -13.1327   -7.7145 N   0  0  0  0  0  0  0  0  0  0  0  0
   42.8905  -11.3784   -7.8153 C   0  0  0  0  0  0  0  0  0  0  0  0
   42.4506  -11.7770   -8.9477 O   0  0  0  0  0  0  0  0  0  0  0  0
   42.0662  -10.5332   -7.0239 N   0  0  0  0  0  0  0  0  0  0  0  0
   40.7294  -10.1153   -7.4621 C   0  0  1  0  0  0  0  0  0  0  0  0
   40.0376   -9.4895   -6.2518 C   0  0  0  0  0  0  0  0  0  0  0  0
   38.6689   -9.0445   -6.5632 C   0  0  0  0  0  0  0  0  0  0  0  0
   38.1069   -9.1752   -7.8337 C   0  0  0  0  0  0  0  0  0  0  0  0
   36.8621   -8.6823   -7.7956 N   0  0  0  0  0  0  0  0  0  0  0  0
   36.6062   -8.2384   -6.5391 C   0  0  0  0  0  0  0  0  0  0  0  0
   37.7247   -8.4737   -5.8166 N   0  0  0  0  0  0  0  0  0  0  0  0
   40.8105   -9.0694   -8.4994 C   0  0  0  0  0  0  0  0  0  0  0  0
   41.7567   -8.2583   -8.4713 O   0  0  0  0  0  0  0  0  0  0  0  0
   39.8442   -8.9643   -9.5219 N   0  0  0  0  0  0  0  0  0  0  0  0
   39.9674   -7.9151  -10.4925 C   0  0  1  0  0  0  0  0  0  0  0  0
   39.0872   -8.1017  -11.6990 C   0  0  0  0  0  0  0  0  0  0  0  0
   39.2821   -6.6031  -12.7363 S   0  0  0  0  0  0  0  0  0  0  0  0
   39.5667   -6.6295   -9.8467 C   0  0  0  0  0  0  0  0  0  0  0  0
   40.4625   -5.5499   -9.9474 O   0  0  0  0  0  0  0  0  0  0  0  0
   38.4758   -6.5081   -9.2364 O   0  0  0  0  0  0  0  0  0  0  0  0
  2  1  1  0
  3  2  1  0
  3  5  1  0
  3  4  1  6
  5  6  2  0
  7  8  1  0
  7  5  1  0
  8 15  1  0
  8  9  1  1
 10  9  1  0
 10 11  2  0
 12 11  1  0
 13 12  1  0
 14 13  2  0
 14 10  1  0
 15 17  1  0
 15 16  2  0
 17 18  1  0
 18 21  1  0
 18 19  1  6
 20 19  1  0
 21 23  2  0
 21 22  1  0
M  END
$$$$
