SHC.pdb
     RDKit          3D

 23 23  0  0  1  0  0  0  0  0999 V2000
   18.7648  -10.7941  -19.2828 O   0  0  0  0  0  0  0  0  0  0  0  0
   17.9587   -9.9003  -18.6212 C   0  0  0  0  0  0  0  0  0  0  0  0
   17.6436  -10.3291  -17.2093 C   0  0  2  0  0  0  0  0  0  0  0  0
   16.6652  -11.3946  -17.1790 N   0  0  0  0  0  0  0  0  0  0  0  0
   17.1607   -9.2222  -16.3698 C   0  0  0  0  0  0  0  0  0  0  0  0
   15.9426   -8.8347  -16.3944 O   0  0  0  0  0  0  0  0  0  0  0  0
   18.0693   -8.5577  -15.5020 N   0  0  0  0  0  0  0  0  0  0  0  0
   17.6386   -7.4912  -14.5905 C   0  0  1  0  0  0  0  0  0  0  0  0
   18.3734   -7.7090  -13.2686 C   0  0  0  0  0  0  0  0  0  0  0  0
   17.6384   -8.6115  -12.3668 C   0  0  0  0  0  0  0  0  0  0  0  0
   16.4009   -9.1633  -12.7005 C   0  0  0  0  0  0  0  0  0  0  0  0
   15.9954   -9.9332  -11.6823 N   0  0  0  0  0  0  0  0  0  0  0  0
   16.9345   -9.8935  -10.7036 C   0  0  0  0  0  0  0  0  0  0  0  0
   17.9185   -9.0817  -11.1522 N   0  0  0  0  0  0  0  0  0  0  0  0
   18.0421   -6.1642  -15.0932 C   0  0  0  0  0  0  0  0  0  0  0  0
   19.0846   -6.0620  -15.7689 O   0  0  0  0  0  0  0  0  0  0  0  0
   17.2777   -5.0084  -14.8283 N   0  0  0  0  0  0  0  0  0  0  0  0
   17.6216   -3.7796  -15.4842 C   0  0  1  0  0  0  0  0  0  0  0  0
   17.4809   -3.8341  -16.9817 C   0  0  0  0  0  0  0  0  0  0  0  0
   18.0059   -2.2000  -17.6248 S   0  0  0  0  0  0  0  0  0  0  0  0
   16.7013   -2.7116  -14.9915 C   0  0  0  0  0  0  0  0  0  0  0  0
   17.1167   -1.3775  -15.1515 O   0  0  0  0  0  0  0  0  0  0  0  0
   15.5992   -2.9843  -14.4548 O   0  0  0  0  0  0  0  0  0  0  0  0
  2  1  1  0
  3  2  1  0
  3  5  1  0
  3  4  1  6
  5  6  2  0
  7  8  1  0
  7  5  1  0
  8 15  1  0
  8  9  1  1
 10  9  1  0
 10 11  2  0
 12 11  1  0
 13 12  1  0
 14 13  2  0
 14 10  1  0
 15 17  1  0
 15 16  2  0
 17 18  1  0
 18 21  1  0
 18 19  1  6
 20 19  1  0
 21 23  2  0
 21 22  1  0
M  END
$$$$
