SHC.pdb
     RDKit          3D

 23 23  0  0  1  0  0  0  0  0999 V2000
   23.8572  -10.6457  -17.1383 O   0  0  0  0  0  0  0  0  0  0  0  0
   22.9404   -9.6636  -16.8531 C   0  0  0  0  0  0  0  0  0  0  0  0
   21.8136  -10.1506  -15.9757 C   0  0  2  0  0  0  0  0  0  0  0  0
   20.9310  -11.0495  -16.6872 N   0  0  0  0  0  0  0  0  0  0  0  0
   21.0132   -9.0534  -15.4112 C   0  0  0  0  0  0  0  0  0  0  0  0
   20.0084   -8.5603  -16.0291 O   0  0  0  0  0  0  0  0  0  0  0  0
   21.3604   -8.5192  -14.1406 N   0  0  0  0  0  0  0  0  0  0  0  0
   20.6198   -7.4072  -13.5334 C   0  0  1  0  0  0  0  0  0  0  0  0
   20.4457   -7.7418  -12.0527 C   0  0  0  0  0  0  0  0  0  0  0  0
   19.1774   -8.4411  -11.7868 C   0  0  0  0  0  0  0  0  0  0  0  0
   18.2500   -8.7234  -12.7906 C   0  0  0  0  0  0  0  0  0  0  0  0
   17.2108   -9.3607  -12.2359 N   0  0  0  0  0  0  0  0  0  0  0  0
   17.4414   -9.4970  -10.9056 C   0  0  0  0  0  0  0  0  0  0  0  0
   18.6444   -8.9276  -10.6670 N   0  0  0  0  0  0  0  0  0  0  0  0
   21.3910   -6.1514  -13.6026 C   0  0  0  0  0  0  0  0  0  0  0  0
   22.6222   -6.1834  -13.4101 O   0  0  0  0  0  0  0  0  0  0  0  0
   20.7699   -4.9158  -13.8813 N   0  0  0  0  0  0  0  0  0  0  0  0
   21.5882   -3.7762  -14.1813 C   0  0  1  0  0  0  0  0  0  0  0  0
   22.3690   -3.9130  -15.4608 C   0  0  0  0  0  0  0  0  0  0  0  0
   23.2948   -2.3475  -15.6886 S   0  0  0  0  0  0  0  0  0  0  0  0
   20.6983   -2.5861  -14.3307 C   0  0  0  0  0  0  0  0  0  0  0  0
   21.2851   -1.3177  -14.1731 O   0  0  0  0  0  0  0  0  0  0  0  0
   19.4745   -2.7038  -14.5867 O   0  0  0  0  0  0  0  0  0  0  0  0
  2  1  1  0
  3  2  1  0
  3  5  1  0
  3  4  1  6
  5  6  2  0
  7  8  1  0
  7  5  1  0
  8 15  1  0
  8  9  1  1
 10  9  1  0
 10 11  2  0
 12 11  1  0
 13 12  1  0
 14 13  2  0
 14 10  1  0
 15 17  1  0
 15 16  2  0
 17 18  1  0
 18 21  1  0
 18 19  1  6
 20 19  1  0
 21 23  2  0
 21 22  1  0
M  END
$$$$
