SHC.pdb
     RDKit          3D

 23 23  0  0  1  0  0  0  0  0999 V2000
   28.5605  -10.6847  -16.8709 O   0  0  0  0  0  0  0  0  0  0  0  0
   27.3417  -10.0873  -17.0804 C   0  0  0  0  0  0  0  0  0  0  0  0
   26.2050  -11.0780  -17.1353 C   0  0  2  0  0  0  0  0  0  0  0  0
   26.3304  -11.9749  -18.2635 N   0  0  0  0  0  0  0  0  0  0  0  0
   24.8852  -10.4315  -17.1919 C   0  0  0  0  0  0  0  0  0  0  0  0
   24.4132   -9.9488  -18.2777 O   0  0  0  0  0  0  0  0  0  0  0  0
   24.1042  -10.3361  -16.0081 N   0  0  0  0  0  0  0  0  0  0  0  0
   22.7567   -9.7547  -16.0077 C   0  0  1  0  0  0  0  0  0  0  0  0
   21.8416  -10.7480  -15.2930 C   0  0  0  0  0  0  0  0  0  0  0  0
   21.3776  -11.8199  -16.1896 C   0  0  0  0  0  0  0  0  0  0  0  0
   21.7518  -11.8914  -17.5320 C   0  0  0  0  0  0  0  0  0  0  0  0
   21.1711  -12.9700  -18.0736 N   0  0  0  0  0  0  0  0  0  0  0  0
   20.4345  -13.5946  -17.1203 C   0  0  0  0  0  0  0  0  0  0  0  0
   20.5824  -12.8696  -15.9885 N   0  0  0  0  0  0  0  0  0  0  0  0
   22.7172   -8.4996  -15.2333 C   0  0  0  0  0  0  0  0  0  0  0  0
   23.6343   -8.2556  -14.4250 O   0  0  0  0  0  0  0  0  0  0  0  0
   21.6676   -7.5691  -15.3847 N   0  0  0  0  0  0  0  0  0  0  0  0
   21.7529   -6.3061  -14.7096 C   0  0  1  0  0  0  0  0  0  0  0  0
   22.9586   -5.4934  -15.0984 C   0  0  0  0  0  0  0  0  0  0  0  0
   22.8934   -3.9443  -14.1207 S   0  0  0  0  0  0  0  0  0  0  0  0
   20.5446   -5.5028  -15.0633 C   0  0  0  0  0  0  0  0  0  0  0  0
   19.9811   -4.7050  -14.0513 O   0  0  0  0  0  0  0  0  0  0  0  0
   20.0451   -5.5322  -16.2151 O   0  0  0  0  0  0  0  0  0  0  0  0
  2  1  1  0
  3  2  1  0
  3  5  1  0
  3  4  1  6
  5  6  2  0
  7  8  1  0
  7  5  1  0
  8 15  1  0
  8  9  1  1
 10  9  1  0
 10 11  2  0
 12 11  1  0
 13 12  1  0
 14 13  2  0
 14 10  1  0
 15 17  1  0
 15 16  2  0
 17 18  1  0
 18 21  1  0
 18 19  1  6
 20 19  1  0
 21 23  2  0
 21 22  1  0
M  END
$$$$
