SHC.pdb
     RDKit          3D

 23 23  0  0  1  0  0  0  0  0999 V2000
   22.9392  -12.9517  -17.6016 O   0  0  0  0  0  0  0  0  0  0  0  0
   22.1993  -11.8050  -17.7569 C   0  0  0  0  0  0  0  0  0  0  0  0
   20.7332  -12.0094  -17.4650 C   0  0  2  0  0  0  0  0  0  0  0  0
   20.0452  -12.6210  -18.5812 N   0  0  0  0  0  0  0  0  0  0  0  0
   20.0409  -10.7608  -17.1119 C   0  0  0  0  0  0  0  0  0  0  0  0
   19.6273   -9.9406  -18.0012 O   0  0  0  0  0  0  0  0  0  0  0  0
   19.8209  -10.4488  -15.7428 N   0  0  0  0  0  0  0  0  0  0  0  0
   19.1453   -9.2154  -15.3228 C   0  0  1  0  0  0  0  0  0  0  0  0
   18.1277   -9.6056  -14.2519 C   0  0  0  0  0  0  0  0  0  0  0  0
   16.8632  -10.0841  -14.8354 C   0  0  0  0  0  0  0  0  0  0  0  0
   16.6311  -10.1056  -16.2112 C   0  0  0  0  0  0  0  0  0  0  0  0
   15.4004  -10.5900  -16.4225 N   0  0  0  0  0  0  0  0  0  0  0  0
   14.8336  -10.8806  -15.2243 C   0  0  0  0  0  0  0  0  0  0  0  0
   15.7493  -10.5613  -14.2820 N   0  0  0  0  0  0  0  0  0  0  0  0
   20.0927   -8.2756  -14.6937 C   0  0  0  0  0  0  0  0  0  0  0  0
   21.1183   -8.7236  -14.1447 O   0  0  0  0  0  0  0  0  0  0  0  0
   19.8668   -6.8831  -14.6980 N   0  0  0  0  0  0  0  0  0  0  0  0
   20.8847   -6.0101  -14.1880 C   0  0  1  0  0  0  0  0  0  0  0  0
   22.1944   -6.1154  -14.9222 C   0  0  0  0  0  0  0  0  0  0  0  0
   23.3130   -4.8573  -14.1971 S   0  0  0  0  0  0  0  0  0  0  0  0
   20.4092   -4.6016  -14.3304 C   0  0  0  0  0  0  0  0  0  0  0  0
   20.8439   -3.6732  -13.3675 O   0  0  0  0  0  0  0  0  0  0  0  0
   19.6517   -4.2513  -15.2688 O   0  0  0  0  0  0  0  0  0  0  0  0
  2  1  1  0
  3  2  1  0
  3  5  1  0
  3  4  1  6
  5  6  2  0
  7  8  1  0
  7  5  1  0
  8 15  1  0
  8  9  1  1
 10  9  1  0
 10 11  2  0
 12 11  1  0
 13 12  1  0
 14 13  2  0
 14 10  1  0
 15 17  1  0
 15 16  2  0
 17 18  1  0
 18 21  1  0
 18 19  1  6
 20 19  1  0
 21 23  2  0
 21 22  1  0
M  END
$$$$
