SHC.pdb
     RDKit          3D

 23 23  0  0  1  0  0  0  0  0999 V2000
   24.8533  -31.0286   -7.8016 O   0  0  0  0  0  0  0  0  0  0  0  0
   25.1473  -32.2436   -7.2325 C   0  0  0  0  0  0  0  0  0  0  0  0
   26.4279  -32.8429   -7.7592 C   0  0  2  0  0  0  0  0  0  0  0  0
   26.2198  -33.5338   -9.0132 N   0  0  0  0  0  0  0  0  0  0  0  0
   27.0580  -33.7717   -6.8086 C   0  0  0  0  0  0  0  0  0  0  0  0
   26.5746  -34.9318   -6.5735 O   0  0  0  0  0  0  0  0  0  0  0  0
   28.2403  -33.3756   -6.1264 N   0  0  0  0  0  0  0  0  0  0  0  0
   28.8968  -34.2393   -5.1381 C   0  0  1  0  0  0  0  0  0  0  0  0
   30.2482  -33.6031   -4.8161 C   0  0  0  0  0  0  0  0  0  0  0  0
   31.3714  -34.5123   -5.0988 C   0  0  0  0  0  0  0  0  0  0  0  0
   31.1859  -35.8528   -5.4393 C   0  0  0  0  0  0  0  0  0  0  0  0
   32.3893  -36.4078   -5.6334 N   0  0  0  0  0  0  0  0  0  0  0  0
   33.3435  -35.4650   -5.4281 C   0  0  0  0  0  0  0  0  0  0  0  0
   32.6905  -34.3258   -5.1051 N   0  0  0  0  0  0  0  0  0  0  0  0
   28.1318  -34.2850   -3.8774 C   0  0  0  0  0  0  0  0  0  0  0  0
   27.7585  -33.2168   -3.3544 O   0  0  0  0  0  0  0  0  0  0  0  0
   27.8123  -35.5071   -3.2493 N   0  0  0  0  0  0  0  0  0  0  0  0
   26.9825  -35.4935   -2.0791 C   0  0  1  0  0  0  0  0  0  0  0  0
   25.9852  -36.6199   -2.0325 C   0  0  0  0  0  0  0  0  0  0  0  0
   24.5417  -36.0935   -3.0320 S   0  0  0  0  0  0  0  0  0  0  0  0
   27.8612  -35.6304   -0.8793 C   0  0  0  0  0  0  0  0  0  0  0  0
   27.4030  -35.0650    0.3242 O   0  0  0  0  0  0  0  0  0  0  0  0
   28.9663  -36.2246   -0.9336 O   0  0  0  0  0  0  0  0  0  0  0  0
  2  1  1  0
  3  2  1  0
  3  5  1  0
  3  4  1  6
  5  6  2  0
  7  8  1  0
  7  5  1  0
  8 15  1  0
  8  9  1  1
 10  9  1  0
 10 11  2  0
 12 11  1  0
 13 12  1  0
 14 13  2  0
 14 10  1  0
 15 17  1  0
 15 16  2  0
 17 18  1  0
 18 21  1  0
 18 19  1  6
 20 19  1  0
 21 23  2  0
 21 22  1  0
M  END
$$$$
