SHC.pdb
     RDKit          3D

 23 23  0  0  1  0  0  0  0  0999 V2000
   24.2634  -11.5442  -19.9155 O   0  0  0  0  0  0  0  0  0  0  0  0
   23.2440  -10.7100  -19.5265 C   0  0  0  0  0  0  0  0  0  0  0  0
   22.5186  -11.2038  -18.2991 C   0  0  2  0  0  0  0  0  0  0  0  0
   21.7740  -12.4147  -18.5680 N   0  0  0  0  0  0  0  0  0  0  0  0
   21.6011  -10.2020  -17.7354 C   0  0  0  0  0  0  0  0  0  0  0  0
   20.6855   -9.6509  -18.4373 O   0  0  0  0  0  0  0  0  0  0  0  0
   21.7293   -9.8294  -16.3697 N   0  0  0  0  0  0  0  0  0  0  0  0
   20.7934   -8.9021  -15.7233 C   0  0  1  0  0  0  0  0  0  0  0  0
   20.1799   -9.6419  -14.5354 C   0  0  0  0  0  0  0  0  0  0  0  0
   18.9934  -10.4241  -14.9211 C   0  0  0  0  0  0  0  0  0  0  0  0
   18.5119  -10.4630  -16.2302 C   0  0  0  0  0  0  0  0  0  0  0  0
   17.4312  -11.2536  -16.2575 N   0  0  0  0  0  0  0  0  0  0  0  0
   17.2027  -11.7246  -15.0055 C   0  0  0  0  0  0  0  0  0  0  0  0
   18.1700  -11.2011  -14.2190 N   0  0  0  0  0  0  0  0  0  0  0  0
   21.4981   -7.7254  -15.1795 C   0  0  0  0  0  0  0  0  0  0  0  0
   22.7190   -7.8053  -14.9411 O   0  0  0  0  0  0  0  0  0  0  0  0
   20.8246   -6.5126  -14.9228 N   0  0  0  0  0  0  0  0  0  0  0  0
   21.5877   -5.3580  -14.5450 C   0  0  1  0  0  0  0  0  0  0  0  0
   22.5563   -4.9013  -15.6026 C   0  0  0  0  0  0  0  0  0  0  0  0
   23.3548   -3.3775  -14.9699 S   0  0  0  0  0  0  0  0  0  0  0  0
   20.6402   -4.2307  -14.2958 C   0  0  0  0  0  0  0  0  0  0  0  0
   20.9713   -3.3234  -13.2735 O   0  0  0  0  0  0  0  0  0  0  0  0
   19.5881   -4.0908  -14.9670 O   0  0  0  0  0  0  0  0  0  0  0  0
  2  1  1  0
  3  2  1  0
  3  5  1  0
  3  4  1  6
  5  6  2  0
  7  8  1  0
  7  5  1  0
  8 15  1  0
  8  9  1  1
 10  9  1  0
 10 11  2  0
 12 11  1  0
 13 12  1  0
 14 13  2  0
 14 10  1  0
 15 17  1  0
 15 16  2  0
 17 18  1  0
 18 21  1  0
 18 19  1  6
 20 19  1  0
 21 23  2  0
 21 22  1  0
M  END
$$$$
