SHC.pdb
     RDKit          3D

 23 23  0  0  1  0  0  0  0  0999 V2000
   24.8280  -10.8745  -19.8103 O   0  0  0  0  0  0  0  0  0  0  0  0
   23.6600  -10.1808  -19.6080 C   0  0  0  0  0  0  0  0  0  0  0  0
   22.9018  -10.6517  -18.3915 C   0  0  2  0  0  0  0  0  0  0  0  0
   22.4138  -12.0039  -18.5548 N   0  0  0  0  0  0  0  0  0  0  0  0
   21.7675   -9.7794  -18.0515 C   0  0  0  0  0  0  0  0  0  0  0  0
   20.6542   -9.8408  -18.6773 O   0  0  0  0  0  0  0  0  0  0  0  0
   21.9045   -8.8367  -16.9966 N   0  0  0  0  0  0  0  0  0  0  0  0
   20.7877   -7.9937  -16.5542 C   0  0  1  0  0  0  0  0  0  0  0  0
   20.5156   -8.3434  -15.0918 C   0  0  0  0  0  0  0  0  0  0  0  0
   19.6397   -9.5193  -14.9558 C   0  0  0  0  0  0  0  0  0  0  0  0
   19.1722  -10.2394  -16.0558 C   0  0  0  0  0  0  0  0  0  0  0  0
   18.4060  -11.2421  -15.6070 N   0  0  0  0  0  0  0  0  0  0  0  0
   18.3663  -11.1889  -14.2517 C   0  0  0  0  0  0  0  0  0  0  0  0
   19.1263  -10.1308  -13.8894 N   0  0  0  0  0  0  0  0  0  0  0  0
   21.1497   -6.5640  -16.5942 C   0  0  0  0  0  0  0  0  0  0  0  0
   22.2924   -6.2167  -16.2372 O   0  0  0  0  0  0  0  0  0  0  0  0
   20.2350   -5.5806  -17.0261 N   0  0  0  0  0  0  0  0  0  0  0  0
   20.6949   -4.2345  -17.2122 C   0  0  1  0  0  0  0  0  0  0  0  0
   20.4308   -3.6909  -18.5907 C   0  0  0  0  0  0  0  0  0  0  0  0
   21.4962   -4.6331  -19.7468 S   0  0  0  0  0  0  0  0  0  0  0  0
   19.9746   -3.3548  -16.2438 C   0  0  0  0  0  0  0  0  0  0  0  0
   20.3922   -2.0147  -16.1554 O   0  0  0  0  0  0  0  0  0  0  0  0
   19.0331   -3.7856  -15.5332 O   0  0  0  0  0  0  0  0  0  0  0  0
  2  1  1  0
  3  2  1  0
  3  5  1  0
  3  4  1  6
  5  6  2  0
  7  8  1  0
  7  5  1  0
  8 15  1  0
  8  9  1  1
 10  9  1  0
 10 11  2  0
 12 11  1  0
 13 12  1  0
 14 13  2  0
 14 10  1  0
 15 17  1  0
 15 16  2  0
 17 18  1  0
 18 21  1  0
 18 19  1  6
 20 19  1  0
 21 23  2  0
 21 22  1  0
M  END
$$$$
