SHC.pdb
     RDKit          3D

 23 23  0  0  1  0  0  0  0  0999 V2000
   14.7985   -9.5839  -11.9367 O   0  0  0  0  0  0  0  0  0  0  0  0
   14.5342   -9.5148  -13.2827 C   0  0  0  0  0  0  0  0  0  0  0  0
   15.3305  -10.5114  -14.0884 C   0  0  2  0  0  0  0  0  0  0  0  0
   15.0430  -11.8727  -13.6916 N   0  0  0  0  0  0  0  0  0  0  0  0
   16.7818  -10.2909  -13.9976 C   0  0  0  0  0  0  0  0  0  0  0  0
   17.4951  -10.8400  -13.0896 O   0  0  0  0  0  0  0  0  0  0  0  0
   17.4187   -9.4431  -14.9441 N   0  0  0  0  0  0  0  0  0  0  0  0
   18.8793   -9.3273  -15.0286 C   0  0  1  0  0  0  0  0  0  0  0  0
   19.2647   -9.5853  -16.4845 C   0  0  0  0  0  0  0  0  0  0  0  0
   19.1832  -11.0130  -16.8359 C   0  0  0  0  0  0  0  0  0  0  0  0
   20.2433  -11.8980  -16.6354 C   0  0  0  0  0  0  0  0  0  0  0  0
   19.8617  -13.1124  -17.0519 N   0  0  0  0  0  0  0  0  0  0  0  0
   18.5883  -13.0355  -17.5143 C   0  0  0  0  0  0  0  0  0  0  0  0
   18.2069  -11.7465  -17.3684 N   0  0  0  0  0  0  0  0  0  0  0  0
   19.3261   -7.9599  -14.7014 C   0  0  0  0  0  0  0  0  0  0  0  0
   18.5073   -7.0221  -14.7643 O   0  0  0  0  0  0  0  0  0  0  0  0
   20.6564   -7.6874  -14.3191 N   0  0  0  0  0  0  0  0  0  0  0  0
   21.0187   -6.3455  -13.9636 C   0  0  1  0  0  0  0  0  0  0  0  0
   21.8266   -6.2532  -12.6971 C   0  0  0  0  0  0  0  0  0  0  0  0
   22.3492   -4.5046  -12.5261 S   0  0  0  0  0  0  0  0  0  0  0  0
   21.8541   -5.7781  -15.0640 C   0  0  0  0  0  0  0  0  0  0  0  0
   21.6389   -4.4318  -15.4090 O   0  0  0  0  0  0  0  0  0  0  0  0
   22.7161   -6.4679  -15.6625 O   0  0  0  0  0  0  0  0  0  0  0  0
  2  1  1  0
  3  2  1  0
  3  5  1  0
  3  4  1  1
  5  6  2  0
  7  8  1  0
  7  5  1  0
  8 15  1  0
  8  9  1  6
 10  9  1  0
 10 11  2  0
 12 11  1  0
 13 12  1  0
 14 13  2  0
 14 10  1  0
 15 17  1  0
 15 16  2  0
 17 18  1  0
 18 21  1  0
 18 19  1  1
 20 19  1  0
 21 23  2  0
 21 22  1  0
M  END
$$$$
