SHC.pdb
     RDKit          3D

 23 23  0  0  1  0  0  0  0  0999 V2000
   26.8503  -35.8529  -12.7707 O   0  0  0  0  0  0  0  0  0  0  0  0
   25.8083  -35.0882  -12.3062 C   0  0  0  0  0  0  0  0  0  0  0  0
   26.0618  -33.6071  -12.4431 C   0  0  2  0  0  0  0  0  0  0  0  0
   27.1342  -33.3311  -13.3742 N   0  0  0  0  0  0  0  0  0  0  0  0
   26.3735  -32.9593  -11.1600 C   0  0  0  0  0  0  0  0  0  0  0  0
   27.4808  -32.3524  -10.9589 O   0  0  0  0  0  0  0  0  0  0  0  0
   25.4207  -33.0046  -10.1064 N   0  0  0  0  0  0  0  0  0  0  0  0
   25.7302  -32.5261   -8.7540 C   0  0  1  0  0  0  0  0  0  0  0  0
   24.5711  -31.6296   -8.3208 C   0  0  0  0  0  0  0  0  0  0  0  0
   23.2816  -32.3402   -8.3418 C   0  0  0  0  0  0  0  0  0  0  0  0
   23.1636  -33.6716   -8.7427 C   0  0  0  0  0  0  0  0  0  0  0  0
   21.8751  -34.0256   -8.6516 N   0  0  0  0  0  0  0  0  0  0  0  0
   21.1605  -32.9623   -8.2042 C   0  0  0  0  0  0  0  0  0  0  0  0
   22.0457  -31.9558   -8.0263 N   0  0  0  0  0  0  0  0  0  0  0  0
   25.7913  -33.6440   -7.7932 C   0  0  0  0  0  0  0  0  0  0  0  0
   25.8313  -34.8132   -8.2237 O   0  0  0  0  0  0  0  0  0  0  0  0
   25.8057  -33.4228   -6.4000 N   0  0  0  0  0  0  0  0  0  0  0  0
   26.8635  -33.9909   -5.6147 C   0  0  1  0  0  0  0  0  0  0  0  0
   28.2189  -33.4102   -5.9166 C   0  0  0  0  0  0  0  0  0  0  0  0
   29.4039  -34.1975   -4.7609 S   0  0  0  0  0  0  0  0  0  0  0  0
   26.5762  -33.7194   -4.1745 C   0  0  0  0  0  0  0  0  0  0  0  0
   25.5559  -32.7966   -3.8828 O   0  0  0  0  0  0  0  0  0  0  0  0
   27.2148  -34.2877   -3.2545 O   0  0  0  0  0  0  0  0  0  0  0  0
  2  1  1  0
  3  2  1  0
  3  5  1  0
  3  4  1  6
  5  6  2  0
  7  8  1  0
  7  5  1  0
  8 15  1  0
  8  9  1  1
 10  9  1  0
 10 11  2  0
 12 11  1  0
 13 12  1  0
 14 13  2  0
 14 10  1  0
 15 17  1  0
 15 16  2  0
 17 18  1  0
 18 21  1  0
 18 19  1  6
 20 19  1  0
 21 23  2  0
 21 22  1  0
M  END
$$$$
