SHC.pdb
     RDKit          3D

 23 23  0  0  1  0  0  0  0  0999 V2000
   22.1426  -10.7532  -17.8727 O   0  0  0  0  0  0  0  0  0  0  0  0
   21.4049   -9.6756  -17.4475 C   0  0  0  0  0  0  0  0  0  0  0  0
   20.4137  -10.0331  -16.3676 C   0  0  2  0  0  0  0  0  0  0  0  0
   19.2696  -10.7385  -16.9031 N   0  0  0  0  0  0  0  0  0  0  0  0
   19.9362   -8.8609  -15.6187 C   0  0  0  0  0  0  0  0  0  0  0  0
   18.9213   -8.1820  -15.9979 O   0  0  0  0  0  0  0  0  0  0  0  0
   20.6180   -8.4637  -14.4364 N   0  0  0  0  0  0  0  0  0  0  0  0
   20.2167   -7.2818  -13.6646 C   0  0  1  0  0  0  0  0  0  0  0  0
   20.1701   -7.7015  -12.1961 C   0  0  0  0  0  0  0  0  0  0  0  0
   18.8971   -8.3532  -11.8450 C   0  0  0  0  0  0  0  0  0  0  0  0
   17.8748   -8.5545  -12.7732 C   0  0  0  0  0  0  0  0  0  0  0  0
   16.8576   -9.1658  -12.1523 N   0  0  0  0  0  0  0  0  0  0  0  0
   17.1945   -9.3639  -10.8529 C   0  0  0  0  0  0  0  0  0  0  0  0
   18.4394   -8.8586  -10.7005 N   0  0  0  0  0  0  0  0  0  0  0  0
   21.2218   -6.2072  -13.7729 C   0  0  0  0  0  0  0  0  0  0  0  0
   22.4322   -6.5048  -13.7657 O   0  0  0  0  0  0  0  0  0  0  0  0
   20.8471   -4.8517  -13.8844 N   0  0  0  0  0  0  0  0  0  0  0  0
   21.8387   -3.8822  -14.2517 C   0  0  1  0  0  0  0  0  0  0  0  0
   22.3924   -4.0795  -15.6373 C   0  0  0  0  0  0  0  0  0  0  0  0
   23.5946   -2.7265  -15.9270 S   0  0  0  0  0  0  0  0  0  0  0  0
   21.2077   -2.5291  -14.2155 C   0  0  0  0  0  0  0  0  0  0  0  0
   22.0309   -1.4421  -13.8708 O   0  0  0  0  0  0  0  0  0  0  0  0
   19.9920   -2.3592  -14.4807 O   0  0  0  0  0  0  0  0  0  0  0  0
  2  1  1  0
  3  2  1  0
  3  5  1  0
  3  4  1  6
  5  6  2  0
  7  8  1  0
  7  5  1  0
  8 15  1  0
  8  9  1  1
 10  9  1  0
 10 11  2  0
 12 11  1  0
 13 12  1  0
 14 13  2  0
 14 10  1  0
 15 17  1  0
 15 16  2  0
 17 18  1  0
 18 21  1  0
 18 19  1  6
 20 19  1  0
 21 23  2  0
 21 22  1  0
M  END
$$$$
