SHC.pdb
     RDKit          3D

 23 23  0  0  1  0  0  0  0  0999 V2000
   26.3730   -3.4915  -17.6053 O   0  0  0  0  0  0  0  0  0  0  0  0
   26.8324   -4.7622  -17.8514 C   0  0  0  0  0  0  0  0  0  0  0  0
   25.9036   -5.5609  -18.7322 C   0  0  2  0  0  0  0  0  0  0  0  0
   25.7987   -4.9893  -20.0572 N   0  0  0  0  0  0  0  0  0  0  0  0
   24.5521   -5.6924  -18.1675 C   0  0  0  0  0  0  0  0  0  0  0  0
   23.5684   -4.9965  -18.5951 O   0  0  0  0  0  0  0  0  0  0  0  0
   24.3237   -6.6189  -17.1141 N   0  0  0  0  0  0  0  0  0  0  0  0
   22.9832   -6.8664  -16.5702 C   0  0  1  0  0  0  0  0  0  0  0  0
   23.0885   -8.0903  -15.6615 C   0  0  0  0  0  0  0  0  0  0  0  0
   21.7665   -8.5932  -15.2520 C   0  0  0  0  0  0  0  0  0  0  0  0
   20.5749   -7.9875  -15.6525 C   0  0  0  0  0  0  0  0  0  0  0  0
   19.5550   -8.6732  -15.1201 N   0  0  0  0  0  0  0  0  0  0  0  0
   20.0542   -9.7018  -14.3892 C   0  0  0  0  0  0  0  0  0  0  0  0
   21.4003   -9.6235  -14.4910 N   0  0  0  0  0  0  0  0  0  0  0  0
   22.5335   -5.7424  -15.7270 C   0  0  0  0  0  0  0  0  0  0  0  0
   23.3776   -5.0946  -15.0776 O   0  0  0  0  0  0  0  0  0  0  0  0
   21.1723   -5.3825  -15.6375 N   0  0  0  0  0  0  0  0  0  0  0  0
   20.8145   -4.1725  -14.9548 C   0  0  1  0  0  0  0  0  0  0  0  0
   21.4399   -2.9377  -15.5459 C   0  0  0  0  0  0  0  0  0  0  0  0
   20.8413   -1.5140  -14.5587 S   0  0  0  0  0  0  0  0  0  0  0  0
   19.3332   -4.0045  -15.0435 C   0  0  0  0  0  0  0  0  0  0  0  0
   18.6797   -3.4425  -13.9321 O   0  0  0  0  0  0  0  0  0  0  0  0
   18.6889   -4.3482  -16.0652 O   0  0  0  0  0  0  0  0  0  0  0  0
  2  1  1  0
  3  2  1  0
  3  5  1  0
  3  4  1  6
  5  6  2  0
  7  8  1  0
  7  5  1  0
  8 15  1  0
  8  9  1  1
 10  9  1  0
 10 11  2  0
 12 11  1  0
 13 12  1  0
 14 13  2  0
 14 10  1  0
 15 17  1  0
 15 16  2  0
 17 18  1  0
 18 21  1  0
 18 19  1  6
 20 19  1  0
 21 23  2  0
 21 22  1  0
M  END
$$$$
