YSD.pdb
     RDKit          3D

 27 27  0  0  1  0  0  0  0  0999 V2000
   30.8149  -30.1082  -20.2902 O   0  0  0  0  0  0  0  0  0  0  0  0
   30.1518  -29.0543  -19.6719 C   0  0  0  0  0  0  0  0  0  0  0  0
   29.1832  -29.3020  -18.7285 C   0  0  0  0  0  0  0  0  0  0  0  0
   28.5269  -28.2792  -18.1162 C   0  0  0  0  0  0  0  0  0  0  0  0
   28.8393  -26.9675  -18.4483 C   0  0  0  0  0  0  0  0  0  0  0  0
   28.1011  -25.9116  -17.7524 C   0  0  0  0  0  0  0  0  0  0  0  0
   29.0698  -25.0227  -17.0181 C   0  0  2  0  0  0  0  0  0  0  0  0
   29.7795  -25.7492  -15.9779 N   0  0  0  0  0  0  0  0  0  0  0  0
   28.3977  -23.8441  -16.4609 C   0  0  0  0  0  0  0  0  0  0  0  0
   27.7305  -23.9085  -15.4084 O   0  0  0  0  0  0  0  0  0  0  0  0
   29.8051  -26.7275  -19.3885 C   0  0  0  0  0  0  0  0  0  0  0  0
   30.4706  -27.7785  -20.0092 C   0  0  0  0  0  0  0  0  0  0  0  0
   28.9646  -19.9868  -18.2226 O   0  0  0  0  0  0  0  0  0  0  0  0
   28.7192  -20.1491  -16.8855 C   0  0  0  0  0  0  0  0  0  0  0  0
   27.8919  -21.3697  -16.5636 C   0  0  2  0  0  0  0  0  0  0  0  0
   28.4809  -22.5781  -17.1013 N   0  0  0  0  0  0  0  0  0  0  0  0
   26.4771  -21.2113  -17.0005 C   0  0  0  0  0  0  0  0  0  0  0  0
   26.0218  -21.7257  -18.0508 O   0  0  0  0  0  0  0  0  0  0  0  0
   25.5626  -20.4501  -16.2230 N   0  0  0  0  0  0  0  0  0  0  0  0
   24.2043  -20.2813  -16.6472 C   0  0  1  0  0  0  0  0  0  0  0  0
   23.3796  -19.8168  -15.4793 C   0  0  0  0  0  0  0  0  0  0  0  0
   23.2114  -20.7894  -14.4040 C   0  0  0  0  0  0  0  0  0  0  0  0
   23.7100  -21.9385  -14.4846 O   0  0  0  0  0  0  0  0  0  0  0  0
   24.0668  -19.4047  -17.8217 C   0  0  0  0  0  0  0  0  0  0  0  0
   25.1095  -18.5828  -18.2009 O   0  0  0  0  0  0  0  0  0  0  0  0
   22.4846  -20.4330  -13.2702 O   0  0  0  0  0  0  0  0  0  0  0  0
   23.0150  -19.3832  -18.4968 O   0  0  0  0  0  0  0  0  0  0  0  0
  2  1  1  0
  3  2  2  0
  4  3  1  0
  5  4  2  0
  5 11  1  0
  6  5  1  0
  7  6  1  0
  7  9  1  0
  7  8  1  1
  9 16  1  0
 10  9  2  0
 11 12  2  0
 12  2  1  0
 14 13  1  0
 15 14  1  6
 15 17  1  0
 16 15  1  0
 17 18  2  0
 17 19  1  0
 19 20  1  0
 20 21  1  1
 21 22  1  0
 22 23  2  0
 22 26  1  0
 24 20  1  0
 24 25  1  0
 27 24  2  0
M  END
$$$$
