YSD.pdb
     RDKit          3D

 27 27  0  0  1  0  0  0  0  0999 V2000
   27.6919  -19.7203   -5.6332 O   0  0  0  0  0  0  0  0  0  0  0  0
   27.3076  -19.7522   -6.9688 C   0  0  0  0  0  0  0  0  0  0  0  0
   28.1893  -19.3749   -7.9537 C   0  0  0  0  0  0  0  0  0  0  0  0
   27.8254  -19.4016   -9.2646 C   0  0  0  0  0  0  0  0  0  0  0  0
   26.5463  -19.8153   -9.6130 C   0  0  0  0  0  0  0  0  0  0  0  0
   26.2162  -19.8254  -11.0395 C   0  0  0  0  0  0  0  0  0  0  0  0
   25.6242  -21.1601  -11.4079 C   0  0  2  0  0  0  0  0  0  0  0  0
   26.6401  -22.1985  -11.4652 N   0  0  0  0  0  0  0  0  0  0  0  0
   24.8857  -21.0870  -12.6730 C   0  0  0  0  0  0  0  0  0  0  0  0
   25.4744  -21.0530  -13.7728 O   0  0  0  0  0  0  0  0  0  0  0  0
   25.6730  -20.1899   -8.6275 C   0  0  0  0  0  0  0  0  0  0  0  0
   26.0531  -20.1596   -7.2906 C   0  0  0  0  0  0  0  0  0  0  0  0
   20.6401  -21.2427  -12.6594 O   0  0  0  0  0  0  0  0  0  0  0  0
   21.3435  -21.6694  -13.7538 C   0  0  0  0  0  0  0  0  0  0  0  0
   22.6851  -20.9967  -13.9135 C   0  0  2  0  0  0  0  0  0  0  0  0
   23.4650  -21.0519  -12.6949 N   0  0  0  0  0  0  0  0  0  0  0  0
   22.5491  -19.5999  -14.4114 C   0  0  0  0  0  0  0  0  0  0  0  0
   22.4453  -18.6075  -13.6502 O   0  0  0  0  0  0  0  0  0  0  0  0
   22.5309  -19.3295  -15.8066 N   0  0  0  0  0  0  0  0  0  0  0  0
   22.2627  -18.0087  -16.2932 C   0  0  1  0  0  0  0  0  0  0  0  0
   22.9987  -17.8038  -17.5878 C   0  0  0  0  0  0  0  0  0  0  0  0
   22.8412  -16.4868  -18.1972 C   0  0  0  0  0  0  0  0  0  0  0  0
   22.1784  -15.5845  -17.6299 O   0  0  0  0  0  0  0  0  0  0  0  0
   20.8254  -17.7114  -16.4058 C   0  0  0  0  0  0  0  0  0  0  0  0
   20.3453  -16.4632  -16.0620 O   0  0  0  0  0  0  0  0  0  0  0  0
   23.4380  -16.2303  -19.4296 O   0  0  0  0  0  0  0  0  0  0  0  0
   20.0138  -18.5715  -16.8107 O   0  0  0  0  0  0  0  0  0  0  0  0
  2  1  1  0
  3  2  2  0
  4  3  1  0
  5  4  2  0
  5 11  1  0
  6  5  1  0
  7  6  1  0
  7  9  1  0
  7  8  1  6
  9 16  1  0
 10  9  2  0
 11 12  2  0
 12  2  1  0
 14 13  1  0
 15 14  1  1
 15 17  1  0
 16 15  1  0
 17 18  2  0
 17 19  1  0
 19 20  1  0
 20 21  1  6
 21 22  1  0
 22 23  2  0
 22 26  1  0
 24 20  1  0
 24 25  1  0
 27 24  2  0
M  END
$$$$
