YSD.pdb
     RDKit          3D

 27 27  0  0  1  0  0  0  0  0999 V2000
   36.8611   -2.0379    1.9396 O   0  0  0  0  0  0  0  0  0  0  0  0
   36.9245   -2.2690    0.5703 C   0  0  0  0  0  0  0  0  0  0  0  0
   36.5553   -1.2862   -0.3171 C   0  0  0  0  0  0  0  0  0  0  0  0
   36.6127   -1.5000   -1.6598 C   0  0  0  0  0  0  0  0  0  0  0  0
   37.0500   -2.7272   -2.1407 C   0  0  0  0  0  0  0  0  0  0  0  0
   37.0927   -2.8946   -3.5948 C   0  0  0  0  0  0  0  0  0  0  0  0
   38.4839   -3.2906   -4.0134 C   0  0  2  0  0  0  0  0  0  0  0  0
   39.4707   -2.3138   -3.5824 N   0  0  0  0  0  0  0  0  0  0  0  0
   38.5659   -3.5059   -5.4619 C   0  0  0  0  0  0  0  0  0  0  0  0
   39.0516   -2.6457   -6.2243 O   0  0  0  0  0  0  0  0  0  0  0  0
   37.4164   -3.7018   -1.2518 C   0  0  0  0  0  0  0  0  0  0  0  0
   37.3545   -3.4749    0.1184 C   0  0  0  0  0  0  0  0  0  0  0  0
   36.3398   -6.6124   -7.4044 O   0  0  0  0  0  0  0  0  0  0  0  0
   37.6153   -6.3389   -7.8199 C   0  0  0  0  0  0  0  0  0  0  0  0
   38.0771   -4.9419   -7.4839 C   0  0  2  0  0  0  0  0  0  0  0  0
   38.0933   -4.7078   -6.0552 N   0  0  0  0  0  0  0  0  0  0  0  0
   37.2781   -3.9073   -8.1972 C   0  0  0  0  0  0  0  0  0  0  0  0
   36.2868   -3.3327   -7.6852 O   0  0  0  0  0  0  0  0  0  0  0  0
   37.6168   -3.5204   -9.5221 N   0  0  0  0  0  0  0  0  0  0  0  0
   36.8424   -2.5360  -10.2183 C   0  0  1  0  0  0  0  0  0  0  0  0
   37.7295   -1.3763  -10.5757 C   0  0  0  0  0  0  0  0  0  0  0  0
   37.0670   -0.2644  -11.2503 C   0  0  0  0  0  0  0  0  0  0  0  0
   35.8183   -0.1400  -11.2228 O   0  0  0  0  0  0  0  0  0  0  0  0
   36.1234   -3.0788  -11.3824 C   0  0  0  0  0  0  0  0  0  0  0  0
   35.0162   -2.4227  -11.8828 O   0  0  0  0  0  0  0  0  0  0  0  0
   37.8367    0.6731  -11.9356 O   0  0  0  0  0  0  0  0  0  0  0  0
   36.4932   -4.1346  -11.9401 O   0  0  0  0  0  0  0  0  0  0  0  0
  2  1  1  0
  3  2  2  0
  4  3  1  0
  5  4  2  0
  5 11  1  0
  6  5  1  0
  7  6  1  0
  7  9  1  0
  7  8  1  6
  9 16  1  0
 10  9  2  0
 11 12  2  0
 12  2  1  0
 14 13  1  0
 15 14  1  1
 15 17  1  0
 16 15  1  0
 17 18  2  0
 17 19  1  0
 19 20  1  0
 20 21  1  6
 21 22  1  0
 22 23  2  0
 22 26  1  0
 24 20  1  0
 24 25  1  0
 27 24  2  0
M  END
$$$$
