YSD.pdb
     RDKit          3D

 27 27  0  0  1  0  0  0  0  0999 V2000
   14.6878  -12.9669  -20.2002 O   0  0  0  0  0  0  0  0  0  0  0  0
   15.2050  -12.2192  -19.1486 C   0  0  0  0  0  0  0  0  0  0  0  0
   16.0330  -11.1507  -19.3983 C   0  0  0  0  0  0  0  0  0  0  0  0
   16.5458  -10.4109  -18.3777 C   0  0  0  0  0  0  0  0  0  0  0  0
   16.2289  -10.7393  -17.0662 C   0  0  0  0  0  0  0  0  0  0  0  0
   16.8088   -9.9036  -16.0128 C   0  0  0  0  0  0  0  0  0  0  0  0
   18.2361  -10.3185  -15.7721 C   0  0  2  0  0  0  0  0  0  0  0  0
   18.3181  -11.6687  -15.2393 N   0  0  0  0  0  0  0  0  0  0  0  0
   18.9276   -9.3709  -14.8917 C   0  0  0  0  0  0  0  0  0  0  0  0
   18.4725   -9.0694  -13.7695 O   0  0  0  0  0  0  0  0  0  0  0  0
   15.4036  -11.8044  -16.8241 C   0  0  0  0  0  0  0  0  0  0  0  0
   14.8842  -12.5548  -17.8728 C   0  0  0  0  0  0  0  0  0  0  0  0
   23.0082   -8.3230  -15.4641 O   0  0  0  0  0  0  0  0  0  0  0  0
   22.3207   -8.2280  -14.2839 C   0  0  0  0  0  0  0  0  0  0  0  0
   20.8768   -7.8225  -14.4531 C   0  0  2  0  0  0  0  0  0  0  0  0
   20.1477   -8.7570  -15.2846 N   0  0  0  0  0  0  0  0  0  0  0  0
   20.7484   -6.4276  -14.9582 C   0  0  0  0  0  0  0  0  0  0  0  0
   20.7718   -6.1351  -16.1785 O   0  0  0  0  0  0  0  0  0  0  0  0
   20.5900   -5.3437  -14.0526 N   0  0  0  0  0  0  0  0  0  0  0  0
   20.4844   -3.9977  -14.5325 C   0  0  1  0  0  0  0  0  0  0  0  0
   19.6729   -3.1912  -13.5575 C   0  0  0  0  0  0  0  0  0  0  0  0
   19.3609   -1.8285  -13.9772 C   0  0  0  0  0  0  0  0  0  0  0  0
   19.7104   -1.4007  -15.1043 O   0  0  0  0  0  0  0  0  0  0  0  0
   21.7883   -3.3824  -14.8292 C   0  0  0  0  0  0  0  0  0  0  0  0
   21.9280   -2.5399  -15.9143 O   0  0  0  0  0  0  0  0  0  0  0  0
   18.6633   -0.9910  -13.1097 O   0  0  0  0  0  0  0  0  0  0  0  0
   22.7894   -3.6047  -14.1144 O   0  0  0  0  0  0  0  0  0  0  0  0
  2  1  1  0
  3  2  2  0
  4  3  1  0
  5  4  2  0
  5 11  1  0
  6  5  1  0
  7  6  1  0
  7  9  1  0
  7  8  1  1
  9 16  1  0
 10  9  2  0
 11 12  2  0
 12  2  1  0
 14 13  1  0
 15 14  1  6
 15 17  1  0
 16 15  1  0
 17 18  2  0
 17 19  1  0
 19 20  1  0
 20 21  1  1
 21 22  1  0
 22 23  2  0
 22 26  1  0
 24 20  1  0
 24 25  1  0
 27 24  2  0
M  END
$$$$
