YSD.pdb
     RDKit          3D

 27 27  0  0  1  0  0  0  0  0999 V2000
    9.7859   -9.9612  -15.8739 O   0  0  0  0  0  0  0  0  0  0  0  0
   11.0932   -9.7075  -15.4747 C   0  0  0  0  0  0  0  0  0  0  0  0
   11.4835   -9.9538  -14.1799 C   0  0  0  0  0  0  0  0  0  0  0  0
   12.7600   -9.7096  -13.7768 C   0  0  0  0  0  0  0  0  0  0  0  0
   13.6813   -9.2049  -14.6850 C   0  0  0  0  0  0  0  0  0  0  0  0
   15.0393   -8.9667  -14.1918 C   0  0  0  0  0  0  0  0  0  0  0  0
   15.9156  -10.1379  -14.5496 C   0  0  2  0  0  0  0  0  0  0  0  0
   15.5266  -11.3377  -13.8265 N   0  0  0  0  0  0  0  0  0  0  0  0
   17.3328   -9.8340  -14.3252 C   0  0  0  0  0  0  0  0  0  0  0  0
   17.8057   -9.7330  -13.1748 O   0  0  0  0  0  0  0  0  0  0  0  0
   13.2865   -8.9620  -15.9732 C   0  0  0  0  0  0  0  0  0  0  0  0
   11.9802   -9.2143  -16.3765 C   0  0  0  0  0  0  0  0  0  0  0  0
   21.8508   -9.9549  -15.9117 O   0  0  0  0  0  0  0  0  0  0  0  0
   20.5134  -10.1552  -16.1258 C   0  0  0  0  0  0  0  0  0  0  0  0
   19.6244   -9.3048  -15.2516 C   0  0  2  0  0  0  0  0  0  0  0  0
   18.2258   -9.6421  -15.4141 N   0  0  0  0  0  0  0  0  0  0  0  0
   19.8634   -7.8507  -15.4661 C   0  0  0  0  0  0  0  0  0  0  0  0
   19.3315   -7.1981  -16.3969 O   0  0  0  0  0  0  0  0  0  0  0  0
   20.7272   -7.1259  -14.6008 N   0  0  0  0  0  0  0  0  0  0  0  0
   20.9574   -5.7258  -14.8005 C   0  0  1  0  0  0  0  0  0  0  0  0
   19.7743   -4.9554  -14.2844 C   0  0  0  0  0  0  0  0  0  0  0  0
   19.8830   -3.5027  -14.3766 C   0  0  0  0  0  0  0  0  0  0  0  0
   20.8513   -2.9605  -14.9630 O   0  0  0  0  0  0  0  0  0  0  0  0
   22.2306   -5.2587  -14.2283 C   0  0  0  0  0  0  0  0  0  0  0  0
   22.7886   -4.0695  -14.6539 O   0  0  0  0  0  0  0  0  0  0  0  0
   18.8935   -2.7074  -13.8029 O   0  0  0  0  0  0  0  0  0  0  0  0
   22.8308   -5.9193  -13.3531 O   0  0  0  0  0  0  0  0  0  0  0  0
  2  1  1  0
  3  2  2  0
  4  3  1  0
  5  4  2  0
  5 11  1  0
  6  5  1  0
  7  6  1  0
  7  9  1  0
  7  8  1  1
  9 16  1  0
 10  9  2  0
 11 12  2  0
 12  2  1  0
 14 13  1  0
 15 14  1  6
 15 17  1  0
 16 15  1  0
 17 18  2  0
 17 19  1  0
 19 20  1  0
 20 21  1  1
 21 22  1  0
 22 23  2  0
 22 26  1  0
 24 20  1  0
 24 25  1  0
 27 24  2  0
M  END
$$$$
