YSD.pdb
     RDKit          3D

 27 27  0  0  1  0  0  0  0  0999 V2000
   30.6019  -31.1292  -20.2152 O   0  0  0  0  0  0  0  0  0  0  0  0
   29.8004  -30.2075  -19.5516 C   0  0  0  0  0  0  0  0  0  0  0  0
   29.3647  -29.0749  -20.1973 C   0  0  0  0  0  0  0  0  0  0  0  0
   28.5798  -28.1651  -19.5587 C   0  0  0  0  0  0  0  0  0  0  0  0
   28.2136  -28.3830  -18.2370 C   0  0  0  0  0  0  0  0  0  0  0  0
   27.3652  -27.3697  -17.6064 C   0  0  0  0  0  0  0  0  0  0  0  0
   28.2230  -26.2370  -17.1078 C   0  0  2  0  0  0  0  0  0  0  0  0
   29.1235  -26.6721  -16.0526 N   0  0  0  0  0  0  0  0  0  0  0  0
   27.4060  -25.1049  -16.6581 C   0  0  0  0  0  0  0  0  0  0  0  0
   27.0059  -25.0148  -15.4796 O   0  0  0  0  0  0  0  0  0  0  0  0
   28.6505  -29.5130  -17.5996 C   0  0  0  0  0  0  0  0  0  0  0  0
   29.4523  -30.4373  -18.2596 C   0  0  0  0  0  0  0  0  0  0  0  0
   28.3576  -21.5702  -16.6423 O   0  0  0  0  0  0  0  0  0  0  0  0
   27.2149  -21.6241  -17.3945 C   0  0  0  0  0  0  0  0  0  0  0  0
   26.3715  -22.8476  -17.1310 C   0  0  2  0  0  0  0  0  0  0  0  0
   27.0372  -24.0627  -17.5512 N   0  0  0  0  0  0  0  0  0  0  0  0
   25.0174  -22.7290  -17.7394 C   0  0  0  0  0  0  0  0  0  0  0  0
   24.7341  -23.1803  -18.8756 O   0  0  0  0  0  0  0  0  0  0  0  0
   23.9648  -22.0820  -17.0370 N   0  0  0  0  0  0  0  0  0  0  0  0
   22.6503  -21.9993  -17.6013 C   0  0  1  0  0  0  0  0  0  0  0  0
   21.6698  -21.6595  -16.5137 C   0  0  0  0  0  0  0  0  0  0  0  0
   21.3987  -22.7281  -15.5572 C   0  0  0  0  0  0  0  0  0  0  0  0
   21.8455  -23.8874  -15.7357 O   0  0  0  0  0  0  0  0  0  0  0  0
   22.5664  -21.0791  -18.7471 C   0  0  0  0  0  0  0  0  0  0  0  0
   21.4715  -21.1144  -19.5877 O   0  0  0  0  0  0  0  0  0  0  0  0
   20.6308  -22.4533  -14.4278 O   0  0  0  0  0  0  0  0  0  0  0  0
   23.4737  -20.2526  -18.9844 O   0  0  0  0  0  0  0  0  0  0  0  0
  2  1  1  0
  3  2  2  0
  4  3  1  0
  5  4  2  0
  5 11  1  0
  6  5  1  0
  7  6  1  0
  7  9  1  0
  7  8  1  1
  9 16  1  0
 10  9  2  0
 11 12  2  0
 12  2  1  0
 14 13  1  0
 15 14  1  6
 15 17  1  0
 16 15  1  0
 17 18  2  0
 17 19  1  0
 19 20  1  0
 20 21  1  1
 21 22  1  0
 22 23  2  0
 22 26  1  0
 24 20  1  0
 24 25  1  0
 27 24  2  0
M  END
$$$$
