YSD.pdb
     RDKit          3D

 27 27  0  0  1  0  0  0  0  0999 V2000
   20.4195  -22.8634   -7.3111 O   0  0  0  0  0  0  0  0  0  0  0  0
   21.1911  -22.2368   -8.2831 C   0  0  0  0  0  0  0  0  0  0  0  0
   22.0151  -21.1895   -7.9461 C   0  0  0  0  0  0  0  0  0  0  0  0
   22.7753  -20.5678   -8.8882 C   0  0  0  0  0  0  0  0  0  0  0  0
   22.7182  -20.9966  -10.2078 C   0  0  0  0  0  0  0  0  0  0  0  0
   23.5621  -20.2900  -11.1736 C   0  0  0  0  0  0  0  0  0  0  0  0
   24.8120  -21.0904  -11.4275 C   0  0  2  0  0  0  0  0  0  0  0  0
   25.6950  -21.0845  -10.2726 N   0  0  0  0  0  0  0  0  0  0  0  0
   25.5180  -20.6156  -12.6223 C   0  0  0  0  0  0  0  0  0  0  0  0
   26.1478  -19.5383  -12.6246 O   0  0  0  0  0  0  0  0  0  0  0  0
   21.8956  -22.0403  -10.5369 C   0  0  0  0  0  0  0  0  0  0  0  0
   21.1224  -22.6697   -9.5680 C   0  0  0  0  0  0  0  0  0  0  0  0
   27.2011  -23.0493  -15.5272 O   0  0  0  0  0  0  0  0  0  0  0  0
   27.4167  -21.7117  -15.3302 C   0  0  0  0  0  0  0  0  0  0  0  0
   26.1578  -20.9288  -15.0475 C   0  0  2  0  0  0  0  0  0  0  0  0
   25.5117  -21.3674  -13.8283 N   0  0  0  0  0  0  0  0  0  0  0  0
   25.2181  -20.9542  -16.2025 C   0  0  0  0  0  0  0  0  0  0  0  0
   24.2322  -21.7281  -16.2676 O   0  0  0  0  0  0  0  0  0  0  0  0
   25.4071  -20.0788  -17.3061 N   0  0  0  0  0  0  0  0  0  0  0  0
   24.4808  -20.0680  -18.3993 C   0  0  1  0  0  0  0  0  0  0  0  0
   24.5717  -18.7447  -19.1066 C   0  0  0  0  0  0  0  0  0  0  0  0
   24.2078  -17.5795  -18.3065 C   0  0  0  0  0  0  0  0  0  0  0  0
   23.4824  -17.6924  -17.2884 O   0  0  0  0  0  0  0  0  0  0  0  0
   24.6459  -21.2107  -19.3125 C   0  0  0  0  0  0  0  0  0  0  0  0
   23.6123  -21.5885  -20.1464 O   0  0  0  0  0  0  0  0  0  0  0  0
   24.6753  -16.3220  -18.6819 O   0  0  0  0  0  0  0  0  0  0  0  0
   25.7136  -21.8594  -19.3549 O   0  0  0  0  0  0  0  0  0  0  0  0
  2  1  1  0
  3  2  2  0
  4  3  1  0
  5  4  2  0
  5 11  1  0
  6  5  1  0
  7  6  1  0
  7  9  1  0
  7  8  1  1
  9 16  1  0
 10  9  2  0
 11 12  2  0
 12  2  1  0
 14 13  1  0
 15 14  1  6
 15 17  1  0
 16 15  1  0
 17 18  2  0
 17 19  1  0
 19 20  1  0
 20 21  1  6
 21 22  1  0
 22 23  2  0
 22 26  1  0
 24 20  1  0
 24 25  1  0
 27 24  2  0
M  END
$$$$
