YSD.pdb
     RDKit          3D

 27 27  0  0  1  0  0  0  0  0999 V2000
   29.9120  -11.6846  -17.0222 O   0  0  0  0  0  0  0  0  0  0  0  0
   28.7646  -10.9337  -16.7942 C   0  0  0  0  0  0  0  0  0  0  0  0
   28.4130   -9.9240  -17.6582 C   0  0  0  0  0  0  0  0  0  0  0  0
   27.2924   -9.1817  -17.4461 C   0  0  0  0  0  0  0  0  0  0  0  0
   26.4928   -9.4472  -16.3422 C   0  0  0  0  0  0  0  0  0  0  0  0
   25.2991   -8.6166  -16.1707 C   0  0  0  0  0  0  0  0  0  0  0  0
   24.0679   -9.4694  -16.3271 C   0  0  2  0  0  0  0  0  0  0  0  0
   24.0532  -10.1580  -17.6075 N   0  0  0  0  0  0  0  0  0  0  0  0
   22.8444   -8.6806  -16.1486 C   0  0  0  0  0  0  0  0  0  0  0  0
   22.3027   -8.0888  -17.1044 O   0  0  0  0  0  0  0  0  0  0  0  0
   26.8483  -10.4542  -15.4855 C   0  0  0  0  0  0  0  0  0  0  0  0
   27.9949  -11.2076  -15.7098 C   0  0  0  0  0  0  0  0  0  0  0  0
   19.1394   -7.6052  -13.1243 O   0  0  0  0  0  0  0  0  0  0  0  0
   20.3266   -8.2453  -13.3593 C   0  0  0  0  0  0  0  0  0  0  0  0
   20.9927   -7.8351  -14.6500 C   0  0  2  0  0  0  0  0  0  0  0  0
   22.2261   -8.5593  -14.8747 N   0  0  0  0  0  0  0  0  0  0  0  0
   21.2039   -6.3627  -14.7213 C   0  0  0  0  0  0  0  0  0  0  0  0
   22.3132   -5.8176  -14.5036 O   0  0  0  0  0  0  0  0  0  0  0  0
   20.1272   -5.4942  -15.0475 N   0  0  0  0  0  0  0  0  0  0  0  0
   20.3321   -4.0795  -15.1478 C   0  0  1  0  0  0  0  0  0  0  0  0
   21.2185   -3.7944  -16.3278 C   0  0  0  0  0  0  0  0  0  0  0  0
   21.3988   -2.3823  -16.6503 C   0  0  0  0  0  0  0  0  0  0  0  0
   20.9003   -1.8854  -17.6895 O   0  0  0  0  0  0  0  0  0  0  0  0
   19.0768   -3.3115  -15.1838 C   0  0  0  0  0  0  0  0  0  0  0  0
   17.8642   -3.9662  -15.2708 O   0  0  0  0  0  0  0  0  0  0  0  0
   22.1371   -1.5751  -15.7878 O   0  0  0  0  0  0  0  0  0  0  0  0
   19.0778   -2.0624  -15.1370 O   0  0  0  0  0  0  0  0  0  0  0  0
  2  1  1  0
  3  2  2  0
  4  3  1  0
  5  4  2  0
  5 11  1  0
  6  5  1  0
  7  6  1  0
  7  9  1  0
  7  8  1  6
  9 16  1  0
 10  9  2  0
 11 12  2  0
 12  2  1  0
 14 13  1  0
 15 14  1  1
 15 17  1  0
 16 15  1  0
 17 18  2  0
 17 19  1  0
 19 20  1  0
 20 21  1  6
 21 22  1  0
 22 23  2  0
 22 26  1  0
 24 20  1  0
 24 25  1  0
 27 24  2  0
M  END
$$$$
