YSD.pdb
     RDKit          3D

 27 27  0  0  1  0  0  0  0  0999 V2000
   19.0809  -17.5248  -16.3855 O   0  0  0  0  0  0  0  0  0  0  0  0
   19.2134  -16.1458  -16.5016 C   0  0  0  0  0  0  0  0  0  0  0  0
   19.9636  -15.6040  -17.5180 C   0  0  0  0  0  0  0  0  0  0  0  0
   20.1012  -14.2559  -17.6425 C   0  0  0  0  0  0  0  0  0  0  0  0
   19.4756  -13.4157  -16.7308 C   0  0  0  0  0  0  0  0  0  0  0  0
   19.6586  -11.9753  -16.9200 C   0  0  0  0  0  0  0  0  0  0  0  0
   18.3529  -11.3549  -17.3415 C   0  0  2  0  0  0  0  0  0  0  0  0
   17.8712  -11.9196  -18.5916 N   0  0  0  0  0  0  0  0  0  0  0  0
   18.4609   -9.8954  -17.4395 C   0  0  0  0  0  0  0  0  0  0  0  0
   19.2904   -9.3505  -18.1959 O   0  0  0  0  0  0  0  0  0  0  0  0
   18.7298  -13.9615  -15.7208 C   0  0  0  0  0  0  0  0  0  0  0  0
   18.5946  -15.3400  -15.6011 C   0  0  0  0  0  0  0  0  0  0  0  0
   15.6816   -7.3061  -15.4040 O   0  0  0  0  0  0  0  0  0  0  0  0
   16.2737   -6.9973  -16.5992 C   0  0  0  0  0  0  0  0  0  0  0  0
   17.6478   -7.5978  -16.7693 C   0  0  2  0  0  0  0  0  0  0  0  0
   17.6213   -9.0422  -16.6734 N   0  0  0  0  0  0  0  0  0  0  0  0
   18.6325   -7.0061  -15.8218 C   0  0  0  0  0  0  0  0  0  0  0  0
   18.9044   -7.5163  -14.7078 O   0  0  0  0  0  0  0  0  0  0  0  0
   19.3213   -5.8075  -16.1517 N   0  0  0  0  0  0  0  0  0  0  0  0
   20.2825   -5.2435  -15.2510 C   0  0  1  0  0  0  0  0  0  0  0  0
   21.2524   -4.4018  -16.0324 C   0  0  0  0  0  0  0  0  0  0  0  0
   22.2922   -3.7478  -15.2440 C   0  0  0  0  0  0  0  0  0  0  0  0
   22.4015   -3.9593  -14.0116 O   0  0  0  0  0  0  0  0  0  0  0  0
   19.6698   -4.5097  -14.1318 C   0  0  0  0  0  0  0  0  0  0  0  0
   20.3096   -4.4459  -12.9098 O   0  0  0  0  0  0  0  0  0  0  0  0
   23.1768   -2.8746  -15.8731 O   0  0  0  0  0  0  0  0  0  0  0  0
   18.5680   -3.9329  -14.2586 O   0  0  0  0  0  0  0  0  0  0  0  0
  2  1  1  0
  3  2  2  0
  4  3  1  0
  5  4  2  0
  5 11  1  0
  6  5  1  0
  7  6  1  0
  7  9  1  0
  7  8  1  6
  9 16  1  0
 10  9  2  0
 11 12  2  0
 12  2  1  0
 14 13  1  0
 15 14  1  1
 15 17  1  0
 16 15  1  0
 17 18  2  0
 17 19  1  0
 19 20  1  0
 20 21  1  6
 21 22  1  0
 22 23  2  0
 22 26  1  0
 24 20  1  0
 24 25  1  0
 27 24  2  0
M  END
$$$$
