YSD.pdb
     RDKit          3D

 27 27  0  0  1  0  0  0  0  0999 V2000
   18.5866  -13.7501  -18.6279 O   0  0  0  0  0  0  0  0  0  0  0  0
   18.6515  -12.6048  -17.8426 C   0  0  0  0  0  0  0  0  0  0  0  0
   19.0864  -11.4175  -18.3817 C   0  0  0  0  0  0  0  0  0  0  0  0
   19.1546  -10.2895  -17.6236 C   0  0  0  0  0  0  0  0  0  0  0  0
   18.7799  -10.3378  -16.2873 C   0  0  0  0  0  0  0  0  0  0  0  0
   18.8722   -9.0907  -15.5254 C   0  0  0  0  0  0  0  0  0  0  0  0
   20.3190   -8.7775  -15.2491 C   0  0  2  0  0  0  0  0  0  0  0  0
   20.9369   -9.7956  -14.4153 N   0  0  0  0  0  0  0  0  0  0  0  0
   20.4732   -7.4495  -14.6459 C   0  0  0  0  0  0  0  0  0  0  0  0
   19.9464   -7.1633  -13.5516 O   0  0  0  0  0  0  0  0  0  0  0  0
   18.3475  -11.5233  -15.7563 C   0  0  0  0  0  0  0  0  0  0  0  0
   18.2811  -12.6709  -16.5381 C   0  0  0  0  0  0  0  0  0  0  0  0
   23.3581   -4.6845  -16.1428 O   0  0  0  0  0  0  0  0  0  0  0  0
   22.9124   -4.7053  -14.8484 C   0  0  0  0  0  0  0  0  0  0  0  0
   21.4702   -5.1276  -14.7093 C   0  0  2  0  0  0  0  0  0  0  0  0
   21.2320   -6.4334  -15.2875 N   0  0  0  0  0  0  0  0  0  0  0  0
   20.5379   -4.1071  -15.2635 C   0  0  0  0  0  0  0  0  0  0  0  0
   20.1540   -4.1060  -16.4584 O   0  0  0  0  0  0  0  0  0  0  0  0
   20.0333   -3.0663  -14.4377 N   0  0  0  0  0  0  0  0  0  0  0  0
   19.2031   -2.0345  -14.9849 C   0  0  1  0  0  0  0  0  0  0  0  0
   18.2799   -1.5271  -13.9126 C   0  0  0  0  0  0  0  0  0  0  0  0
   17.3043   -0.5310  -14.3446 C   0  0  0  0  0  0  0  0  0  0  0  0
   17.2205   -0.1842  -15.5480 O   0  0  0  0  0  0  0  0  0  0  0  0
   19.9672   -0.9553  -15.6315 C   0  0  0  0  0  0  0  0  0  0  0  0
   21.3466   -0.9469  -15.5686 O   0  0  0  0  0  0  0  0  0  0  0  0
   16.4531    0.0425  -13.4026 O   0  0  0  0  0  0  0  0  0  0  0  0
   19.3929   -0.0309  -16.2464 O   0  0  0  0  0  0  0  0  0  0  0  0
  2  1  1  0
  3  2  2  0
  4  3  1  0
  5  4  2  0
  5 11  1  0
  6  5  1  0
  7  6  1  0
  7  9  1  0
  7  8  1  1
  9 16  1  0
 10  9  2  0
 11 12  2  0
 12  2  1  0
 14 13  1  0
 15 14  1  6
 15 17  1  0
 16 15  1  0
 17 18  2  0
 17 19  1  0
 19 20  1  0
 20 21  1  1
 21 22  1  0
 22 23  2  0
 22 26  1  0
 24 20  1  0
 24 25  1  0
 27 24  2  0
M  END
$$$$
