YSD.pdb
     RDKit          3D

 27 27  0  0  1  0  0  0  0  0999 V2000
   28.9212  -15.7979  -16.4673 O   0  0  0  0  0  0  0  0  0  0  0  0
   28.3285  -14.5423  -16.3969 C   0  0  0  0  0  0  0  0  0  0  0  0
   28.9580  -13.5139  -15.7368 C   0  0  0  0  0  0  0  0  0  0  0  0
   28.3883  -12.2804  -15.6608 C   0  0  0  0  0  0  0  0  0  0  0  0
   27.1546  -12.0569  -16.2579 C   0  0  0  0  0  0  0  0  0  0  0  0
   26.5957  -10.7082  -16.1445 C   0  0  0  0  0  0  0  0  0  0  0  0
   26.6631  -10.0231  -17.4837 C   0  0  2  0  0  0  0  0  0  0  0  0
   28.0248   -9.6426  -17.8222 N   0  0  0  0  0  0  0  0  0  0  0  0
   25.7718   -8.8594  -17.5348 C   0  0  0  0  0  0  0  0  0  0  0  0
   26.1298   -7.7423  -17.1092 O   0  0  0  0  0  0  0  0  0  0  0  0
   26.5329  -13.0852  -16.9139 C   0  0  0  0  0  0  0  0  0  0  0  0
   27.1221  -14.3423  -16.9866 C   0  0  0  0  0  0  0  0  0  0  0  0
   21.6518   -9.1488  -18.8291 O   0  0  0  0  0  0  0  0  0  0  0  0
   22.4694   -8.1280  -19.2340 C   0  0  0  0  0  0  0  0  0  0  0  0
   23.5851   -7.8225  -18.2647 C   0  0  2  0  0  0  0  0  0  0  0  0
   24.4604   -8.9598  -18.0735 N   0  0  0  0  0  0  0  0  0  0  0  0
   23.0666   -7.3088  -16.9667 C   0  0  0  0  0  0  0  0  0  0  0  0
   22.9237   -8.0317  -15.9508 O   0  0  0  0  0  0  0  0  0  0  0  0
   22.7036   -5.9420  -16.8247 N   0  0  0  0  0  0  0  0  0  0  0  0
   22.2044   -5.4427  -15.5778 C   0  0  1  0  0  0  0  0  0  0  0  0
   22.1447   -3.9419  -15.6387 C   0  0  0  0  0  0  0  0  0  0  0  0
   21.6703   -3.2832  -14.4256 C   0  0  0  0  0  0  0  0  0  0  0  0
   21.4492   -3.9364  -13.3768 O   0  0  0  0  0  0  0  0  0  0  0  0
   20.9206   -6.0448  -15.1826 C   0  0  0  0  0  0  0  0  0  0  0  0
   20.7179   -6.4557  -13.8800 O   0  0  0  0  0  0  0  0  0  0  0  0
   21.4605   -1.9060  -14.4353 O   0  0  0  0  0  0  0  0  0  0  0  0
   19.9932   -6.1969  -16.0068 O   0  0  0  0  0  0  0  0  0  0  0  0
  2  1  1  0
  3  2  2  0
  4  3  1  0
  5  4  2  0
  5 11  1  0
  6  5  1  0
  7  6  1  0
  7  9  1  0
  7  8  1  1
  9 16  1  0
 10  9  2  0
 11 12  2  0
 12  2  1  0
 14 13  1  0
 15 14  1  6
 15 17  1  0
 16 15  1  0
 17 18  2  0
 17 19  1  0
 19 20  1  0
 20 21  1  6
 21 22  1  0
 22 23  2  0
 22 26  1  0
 24 20  1  0
 24 25  1  0
 27 24  2  0
M  END
$$$$
