YSD.pdb
     RDKit          3D

 27 27  0  0  1  0  0  0  0  0999 V2000
   18.2859  -14.0235  -22.2379 O   0  0  0  0  0  0  0  0  0  0  0  0
   18.3755  -13.0441  -21.2556 C   0  0  0  0  0  0  0  0  0  0  0  0
   17.2477  -12.3843  -20.8285 C   0  0  0  0  0  0  0  0  0  0  0  0
   17.3222  -11.4236  -19.8677 C   0  0  0  0  0  0  0  0  0  0  0  0
   18.5537  -11.1048  -19.3107 C   0  0  0  0  0  0  0  0  0  0  0  0
   18.5679  -10.0655  -18.2793 C   0  0  0  0  0  0  0  0  0  0  0  0
   18.7622  -10.7020  -16.9285 C   0  0  2  0  0  0  0  0  0  0  0  0
   17.6340  -11.5446  -16.5669 N   0  0  0  0  0  0  0  0  0  0  0  0
   19.0092   -9.6937  -15.8924 C   0  0  0  0  0  0  0  0  0  0  0  0
   18.0869   -8.9919  -15.4299 O   0  0  0  0  0  0  0  0  0  0  0  0
   19.6732  -11.7656  -19.7402 C   0  0  0  0  0  0  0  0  0  0  0  0
   19.5879  -12.7458  -20.7223 C   0  0  0  0  0  0  0  0  0  0  0  0
   22.8935   -9.2517  -14.1367 O   0  0  0  0  0  0  0  0  0  0  0  0
   21.7466   -8.9290  -13.4622 C   0  0  0  0  0  0  0  0  0  0  0  0
   20.6176   -8.4867  -14.3608 C   0  0  2  0  0  0  0  0  0  0  0  0
   20.3142   -9.4763  -15.3732 N   0  0  0  0  0  0  0  0  0  0  0  0
   20.8805   -7.1512  -14.9648 C   0  0  0  0  0  0  0  0  0  0  0  0
   21.4303   -7.0003  -16.0829 O   0  0  0  0  0  0  0  0  0  0  0  0
   20.5088   -5.9631  -14.2791 N   0  0  0  0  0  0  0  0  0  0  0  0
   20.8095   -4.6749  -14.8300 C   0  0  1  0  0  0  0  0  0  0  0  0
   19.7539   -3.6968  -14.3957 C   0  0  0  0  0  0  0  0  0  0  0  0
   19.8903   -2.3468  -14.9336 C   0  0  0  0  0  0  0  0  0  0  0  0
   20.6264   -1.4972  -14.3751 O   0  0  0  0  0  0  0  0  0  0  0  0
   22.1720   -4.2131  -14.5182 C   0  0  0  0  0  0  0  0  0  0  0  0
   22.9526   -3.6384  -15.5016 O   0  0  0  0  0  0  0  0  0  0  0  0
   19.1902   -1.9985  -16.0865 O   0  0  0  0  0  0  0  0  0  0  0  0
   22.6501   -4.3284  -13.3690 O   0  0  0  0  0  0  0  0  0  0  0  0
  2  1  1  0
  3  2  2  0
  4  3  1  0
  5  4  2  0
  5 11  1  0
  6  5  1  0
  7  6  1  0
  7  9  1  0
  7  8  1  1
  9 16  1  0
 10  9  2  0
 11 12  2  0
 12  2  1  0
 14 13  1  0
 15 14  1  6
 15 17  1  0
 16 15  1  0
 17 18  2  0
 17 19  1  0
 19 20  1  0
 20 21  1  1
 21 22  1  0
 22 23  2  0
 22 26  1  0
 24 20  1  0
 24 25  1  0
 27 24  2  0
M  END
$$$$
