YSD.pdb
     RDKit          3D

 27 27  0  0  1  0  0  0  0  0999 V2000
   29.0267  -10.7322  -16.8497 O   0  0  0  0  0  0  0  0  0  0  0  0
   27.7576  -10.3111  -16.4693 C   0  0  0  0  0  0  0  0  0  0  0  0
   27.1623  -10.8306  -15.3445 C   0  0  0  0  0  0  0  0  0  0  0  0
   25.9205  -10.4268  -14.9616 C   0  0  0  0  0  0  0  0  0  0  0  0
   25.2450   -9.4772  -15.7169 C   0  0  0  0  0  0  0  0  0  0  0  0
   23.9143   -9.0813  -15.2514 C   0  0  0  0  0  0  0  0  0  0  0  0
   22.8839  -10.0205  -15.8202 C   0  0  2  0  0  0  0  0  0  0  0  0
   23.4354  -10.8346  -16.8911 N   0  0  0  0  0  0  0  0  0  0  0  0
   21.6948   -9.2954  -16.2800 C   0  0  0  0  0  0  0  0  0  0  0  0
   21.6603   -8.7366  -17.3953 O   0  0  0  0  0  0  0  0  0  0  0  0
   25.8434   -8.9635  -16.8359 C   0  0  0  0  0  0  0  0  0  0  0  0
   27.1124   -9.3818  -17.2198 C   0  0  0  0  0  0  0  0  0  0  0  0
   16.9500   -8.9254  -16.2316 O   0  0  0  0  0  0  0  0  0  0  0  0
   18.1053   -9.4444  -15.7114 C   0  0  0  0  0  0  0  0  0  0  0  0
   19.3090   -8.5532  -15.8972 C   0  0  2  0  0  0  0  0  0  0  0  0
   20.5312   -9.2009  -15.4694 N   0  0  0  0  0  0  0  0  0  0  0  0
   19.1294   -7.2332  -15.2317 C   0  0  0  0  0  0  0  0  0  0  0  0
   19.4533   -7.0168  -14.0387 O   0  0  0  0  0  0  0  0  0  0  0  0
   18.5686   -6.1372  -15.9419 N   0  0  0  0  0  0  0  0  0  0  0  0
   18.3348   -4.8836  -15.2884 C   0  0  1  0  0  0  0  0  0  0  0  0
   18.6170   -3.7667  -16.2540 C   0  0  0  0  0  0  0  0  0  0  0  0
   18.4214   -2.4189  -15.7288 C   0  0  0  0  0  0  0  0  0  0  0  0
   18.0793   -2.2308  -14.5358 O   0  0  0  0  0  0  0  0  0  0  0  0
   16.9967   -4.7842  -14.6830 C   0  0  0  0  0  0  0  0  0  0  0  0
   16.7962   -3.9968  -13.5666 O   0  0  0  0  0  0  0  0  0  0  0  0
   18.6185   -1.3249  -16.5684 O   0  0  0  0  0  0  0  0  0  0  0  0
   16.0206   -5.4030  -15.1593 O   0  0  0  0  0  0  0  0  0  0  0  0
  2  1  1  0
  3  2  2  0
  4  3  1  0
  5  4  2  0
  5 11  1  0
  6  5  1  0
  7  6  1  0
  7  9  1  0
  7  8  1  6
  9 16  1  0
 10  9  2  0
 11 12  2  0
 12  2  1  0
 14 13  1  0
 15 14  1  1
 15 17  1  0
 16 15  1  0
 17 18  2  0
 17 19  1  0
 19 20  1  0
 20 21  1  6
 21 22  1  0
 22 23  2  0
 22 26  1  0
 24 20  1  0
 24 25  1  0
 27 24  2  0
M  END
$$$$
