YSD.pdb
     RDKit          3D

 27 27  0  0  1  0  0  0  0  0999 V2000
   19.3235  -16.1733  -19.3675 O   0  0  0  0  0  0  0  0  0  0  0  0
   19.1504  -14.8782  -18.8928 C   0  0  0  0  0  0  0  0  0  0  0  0
   20.1998  -14.2057  -18.3131 C   0  0  0  0  0  0  0  0  0  0  0  0
   20.0432  -12.9377  -17.8446 C   0  0  0  0  0  0  0  0  0  0  0  0
   18.8071  -12.3143  -17.9532 C   0  0  0  0  0  0  0  0  0  0  0  0
   18.7031  -10.9491  -17.4339 C   0  0  0  0  0  0  0  0  0  0  0  0
   18.8246  -10.9727  -15.9331 C   0  0  2  0  0  0  0  0  0  0  0  0
   17.7435  -11.7274  -15.3206 N   0  0  0  0  0  0  0  0  0  0  0  0
   18.8878   -9.6157  -15.3801 C   0  0  0  0  0  0  0  0  0  0  0  0
   17.8604   -9.0119  -15.0101 O   0  0  0  0  0  0  0  0  0  0  0  0
   17.7661  -12.9894  -18.5317 C   0  0  0  0  0  0  0  0  0  0  0  0
   17.9348  -14.2846  -19.0076 C   0  0  0  0  0  0  0  0  0  0  0  0
   21.5622   -6.1606  -13.3068 O   0  0  0  0  0  0  0  0  0  0  0  0
   21.4439   -7.4149  -13.8426 C   0  0  0  0  0  0  0  0  0  0  0  0
   20.2442   -7.5799  -14.7432 C   0  0  2  0  0  0  0  0  0  0  0  0
   20.1272   -8.9335  -15.2437 N   0  0  0  0  0  0  0  0  0  0  0  0
   20.2427   -6.5862  -15.8523 C   0  0  0  0  0  0  0  0  0  0  0  0
   20.8862   -6.7465  -16.9178 O   0  0  0  0  0  0  0  0  0  0  0  0
   19.4917   -5.3844  -15.7435 N   0  0  0  0  0  0  0  0  0  0  0  0
   19.4821   -4.4277  -16.8102 C   0  0  1  0  0  0  0  0  0  0  0  0
   18.2582   -3.5642  -16.6841 C   0  0  0  0  0  0  0  0  0  0  0  0
   16.9992   -4.2024  -17.0560 C   0  0  0  0  0  0  0  0  0  0  0  0
   16.7636   -5.3976  -16.7536 O   0  0  0  0  0  0  0  0  0  0  0  0
   20.7234   -3.6413  -16.8969 C   0  0  0  0  0  0  0  0  0  0  0  0
   20.8962   -2.7262  -17.9164 O   0  0  0  0  0  0  0  0  0  0  0  0
   16.0451   -3.4697  -17.7585 O   0  0  0  0  0  0  0  0  0  0  0  0
   21.6408   -3.7809  -16.0594 O   0  0  0  0  0  0  0  0  0  0  0  0
  2  1  1  0
  3  2  2  0
  4  3  1  0
  5  4  2  0
  5 11  1  0
  6  5  1  0
  7  6  1  0
  7  9  1  0
  7  8  1  1
  9 16  1  0
 10  9  2  0
 11 12  2  0
 12  2  1  0
 14 13  1  0
 15 14  1  6
 15 17  1  0
 16 15  1  0
 17 18  2  0
 17 19  1  0
 19 20  1  0
 20 21  1  1
 21 22  1  0
 22 23  2  0
 22 26  1  0
 24 20  1  0
 24 25  1  0
 27 24  2  0
M  END
$$$$
