YSD.pdb
     RDKit          3D

 27 27  0  0  1  0  0  0  0  0999 V2000
   35.1379   -0.9207    1.6726 O   0  0  0  0  0  0  0  0  0  0  0  0
   35.5922   -1.2599    0.4033 C   0  0  0  0  0  0  0  0  0  0  0  0
   36.4212   -0.4083   -0.2875 C   0  0  0  0  0  0  0  0  0  0  0  0
   36.8727   -0.7287   -1.5306 C   0  0  0  0  0  0  0  0  0  0  0  0
   36.4911   -1.9318   -2.1097 C   0  0  0  0  0  0  0  0  0  0  0  0
   37.0126   -2.2208   -3.4471 C   0  0  0  0  0  0  0  0  0  0  0  0
   37.9650   -3.3849   -3.3734 C   0  0  2  0  0  0  0  0  0  0  0  0
   39.1420   -3.0640   -2.5826 N   0  0  0  0  0  0  0  0  0  0  0  0
   38.3495   -3.8472   -4.7112 C   0  0  0  0  0  0  0  0  0  0  0  0
   39.4676   -3.5828   -5.1981 O   0  0  0  0  0  0  0  0  0  0  0  0
   35.6655   -2.7756   -1.4165 C   0  0  0  0  0  0  0  0  0  0  0  0
   35.2089   -2.4403   -0.1470 C   0  0  0  0  0  0  0  0  0  0  0  0
   37.1636   -7.3739   -6.1660 O   0  0  0  0  0  0  0  0  0  0  0  0
   37.0464   -6.4076   -7.1288 C   0  0  0  0  0  0  0  0  0  0  0  0
   37.8035   -5.1408   -6.8131 C   0  0  2  0  0  0  0  0  0  0  0  0
   37.4594   -4.6175   -5.5077 N   0  0  0  0  0  0  0  0  0  0  0  0
   37.6306   -4.1122   -7.8760 C   0  0  0  0  0  0  0  0  0  0  0  0
   36.6968   -3.2737   -7.8737 O   0  0  0  0  0  0  0  0  0  0  0  0
   38.5418   -4.0388   -8.9643 N   0  0  0  0  0  0  0  0  0  0  0  0
   38.3897   -3.0403   -9.9807 C   0  0  1  0  0  0  0  0  0  0  0  0
   39.6750   -2.9251  -10.7518 C   0  0  0  0  0  0  0  0  0  0  0  0
   39.6919   -1.9033  -11.7939 C   0  0  0  0  0  0  0  0  0  0  0  0
   39.8639   -0.6922  -11.5124 O   0  0  0  0  0  0  0  0  0  0  0  0
   37.2255   -3.2700  -10.8518 C   0  0  0  0  0  0  0  0  0  0  0  0
   36.5581   -2.2007  -11.4155 O   0  0  0  0  0  0  0  0  0  0  0  0
   39.5138   -2.2820  -13.1227 O   0  0  0  0  0  0  0  0  0  0  0  0
   36.8174   -4.4252  -11.0997 O   0  0  0  0  0  0  0  0  0  0  0  0
  2  1  1  0
  3  2  2  0
  4  3  1  0
  5  4  2  0
  5 11  1  0
  6  5  1  0
  7  6  1  0
  7  9  1  0
  7  8  1  1
  9 16  1  0
 10  9  2  0
 11 12  2  0
 12  2  1  0
 14 13  1  0
 15 14  1  6
 15 17  1  0
 16 15  1  0
 17 18  2  0
 17 19  1  0
 19 20  1  0
 20 21  1  6
 21 22  1  0
 22 23  2  0
 22 26  1  0
 24 20  1  0
 24 25  1  0
 27 24  2  0
M  END
$$$$
