DHP.pdb
     RDKit          3D

 26 27  0  0  1  0  0  0  0  0999 V2000
   10.7187  -18.0494   21.0303 N   0  0  0  0  0  0  0  0  0  0  0  0
   11.7935  -17.3806   21.7166 C   0  0  1  0  0  0  0  0  0  0  0  0
   12.7848  -16.7621   20.7635 C   0  0  0  0  0  0  0  0  0  0  0  0
   13.4068  -17.8476   19.9926 C   0  0  0  0  0  0  0  0  0  0  0  0
   13.4018  -19.0325   20.4625 O   0  0  0  0  0  0  0  0  0  0  0  0
   11.2998  -16.3262   22.6332 C   0  0  0  0  0  0  0  0  0  0  0  0
   12.1039  -15.5621   23.2649 O   0  0  0  0  0  0  0  0  0  0  0  0
   13.9902  -17.5538   18.7648 O   0  0  0  0  0  0  0  0  0  0  0  0
    9.9152  -16.0914   22.8713 N   0  0  0  0  0  0  0  0  0  0  0  0
    9.4963  -15.1615   23.9373 C   0  0  1  0  0  0  0  0  0  0  0  0
    7.9919  -14.9510   23.7102 C   0  0  0  0  0  0  0  0  0  0  0  0
    7.7344  -14.4626   22.3476 C   0  0  0  0  0  0  0  0  0  0  0  0
    8.0204  -13.2208   21.8250 C   0  0  0  0  0  0  0  0  0  0  0  0
    7.6122  -13.1918   20.5509 N   0  0  0  0  0  0  0  0  0  0  0  0
    7.0679  -14.3979   20.2474 C   0  0  0  0  0  0  0  0  0  0  0  0
    7.1575  -15.1492   21.3629 N   0  0  0  0  0  0  0  0  0  0  0  0
    9.6535  -15.8394   25.2405 C   0  0  0  0  0  0  0  0  0  0  0  0
    9.8318  -17.1053   25.3193 O   0  0  0  0  0  0  0  0  0  0  0  0
    9.6197  -15.1358   26.4746 N   0  0  0  0  0  0  0  0  0  0  0  0
    8.7894  -14.0034   26.8245 C   0  0  0  0  0  0  0  0  0  0  0  0
    9.7132  -13.1361   27.6588 C   0  0  0  0  0  0  0  0  0  0  0  0
   10.8565  -14.0040   28.0685 C   0  0  0  0  0  0  0  0  0  0  0  0
   10.4154  -15.3897   27.6698 C   0  0  1  0  0  0  0  0  0  0  0  0
    9.6016  -16.0241   28.7426 C   0  0  0  0  0  0  0  0  0  0  0  0
    8.2534  -16.3280   28.5821 O   0  0  0  0  0  0  0  0  0  0  0  0
   10.1163  -16.3091   29.8424 O   0  0  0  0  0  0  0  0  0  0  0  0
  2  3  1  0
  2  1  1  6
  4  3  1  0
  4  8  1  0
  5  4  2  0
  6  2  1  0
  7  6  2  0
  9  6  1  0
 10  9  1  0
 11 12  1  0
 10 11  1  6
 12 16  1  0
 13 14  1  0
 13 12  2  0
 14 15  1  0
 15 16  2  0
 17 19  1  0
 17 10  1  0
 18 17  2  0
 19 20  1  0
 20 21  1  0
 22 21  1  0
 23 22  1  0
 23 19  1  0
 23 24  1  1
 24 25  1  0
 26 24  2  0
M  END
$$$$
