DHP.pdb
     RDKit          3D

 26 27  0  0  1  0  0  0  0  0999 V2000
    9.9517  -17.5379   13.4255 N   0  0  0  0  0  0  0  0  0  0  0  0
    9.4909  -16.1794   13.5511 C   0  0  1  0  0  0  0  0  0  0  0  0
    8.4444  -15.8320   12.5225 C   0  0  0  0  0  0  0  0  0  0  0  0
    9.1041  -15.7716   11.2108 C   0  0  0  0  0  0  0  0  0  0  0  0
   10.2198  -16.3646   11.0425 O   0  0  0  0  0  0  0  0  0  0  0  0
    8.9395  -15.8994   14.8977 C   0  0  0  0  0  0  0  0  0  0  0  0
    8.6020  -14.7190   15.2476 O   0  0  0  0  0  0  0  0  0  0  0  0
    8.4933  -15.0639   10.1812 O   0  0  0  0  0  0  0  0  0  0  0  0
    8.7480  -16.9100   15.8830 N   0  0  0  0  0  0  0  0  0  0  0  0
    8.1466  -16.5670   17.1858 C   0  0  1  0  0  0  0  0  0  0  0  0
    7.8597  -17.9183   17.8573 C   0  0  0  0  0  0  0  0  0  0  0  0
    7.2993  -17.7226   19.2023 C   0  0  0  0  0  0  0  0  0  0  0  0
    7.9041  -17.9666   20.4154 C   0  0  0  0  0  0  0  0  0  0  0  0
    7.0394  -17.6621   21.3902 N   0  0  0  0  0  0  0  0  0  0  0  0
    5.8872  -17.2256   20.8203 C   0  0  0  0  0  0  0  0  0  0  0  0
    6.0778  -17.2746   19.4869 N   0  0  0  0  0  0  0  0  0  0  0  0
    9.1634  -15.8761   18.0052 C   0  0  0  0  0  0  0  0  0  0  0  0
   10.4101  -16.1480   17.8943 O   0  0  0  0  0  0  0  0  0  0  0  0
    8.8249  -14.8754   18.9555 N   0  0  0  0  0  0  0  0  0  0  0  0
    7.5035  -14.4072   19.3141 C   0  0  0  0  0  0  0  0  0  0  0  0
    7.7004  -12.9151   19.5057 C   0  0  0  0  0  0  0  0  0  0  0  0
    9.1702  -12.6946   19.6458 C   0  0  0  0  0  0  0  0  0  0  0  0
    9.7300  -14.0879   19.7843 C   0  0  1  0  0  0  0  0  0  0  0  0
    9.7032  -14.5392   21.2025 C   0  0  0  0  0  0  0  0  0  0  0  0
   10.6412  -14.1215   22.1413 O   0  0  0  0  0  0  0  0  0  0  0  0
    8.8182  -15.3229   21.6005 O   0  0  0  0  0  0  0  0  0  0  0  0
  2  3  1  0
  2  1  1  1
  4  3  1  0
  4  8  1  0
  5  4  2  0
  6  2  1  0
  7  6  2  0
  9  6  1  0
 10  9  1  0
 11 12  1  0
 10 11  1  1
 12 16  1  0
 13 14  1  0
 13 12  2  0
 14 15  1  0
 15 16  2  0
 17 19  1  0
 17 10  1  0
 18 17  2  0
 19 20  1  0
 20 21  1  0
 22 21  1  0
 23 22  1  0
 23 19  1  0
 23 24  1  1
 24 25  1  0
 26 24  2  0
M  END
$$$$
