DHP.pdb
     RDKit          3D

 26 27  0  0  1  0  0  0  0  0999 V2000
   10.4905  -18.1078   21.3282 N   0  0  0  0  0  0  0  0  0  0  0  0
   11.3818  -17.0735   21.7858 C   0  0  1  0  0  0  0  0  0  0  0  0
   12.2491  -16.5327   20.6771 C   0  0  0  0  0  0  0  0  0  0  0  0
   13.2189  -17.5754   20.3138 C   0  0  0  0  0  0  0  0  0  0  0  0
   12.8096  -18.6426   19.7496 O   0  0  0  0  0  0  0  0  0  0  0  0
   10.6528  -15.9434   22.4080 C   0  0  0  0  0  0  0  0  0  0  0  0
   11.2566  -15.0699   23.1165 O   0  0  0  0  0  0  0  0  0  0  0  0
   14.5650  -17.3722   20.5979 O   0  0  0  0  0  0  0  0  0  0  0  0
    9.2489  -15.7518   22.2622 N   0  0  0  0  0  0  0  0  0  0  0  0
    8.5675  -14.6813   23.0147 C   0  0  1  0  0  0  0  0  0  0  0  0
    7.2210  -14.4910   22.3005 C   0  0  0  0  0  0  0  0  0  0  0  0
    7.4247  -14.2107   20.8717 C   0  0  0  0  0  0  0  0  0  0  0  0
    7.8089  -13.0239   20.2879 C   0  0  0  0  0  0  0  0  0  0  0  0
    7.8645  -13.2007   18.9626 N   0  0  0  0  0  0  0  0  0  0  0  0
    7.5214  -14.4848   18.6866 C   0  0  0  0  0  0  0  0  0  0  0  0
    7.2592  -15.0733   19.8705 N   0  0  0  0  0  0  0  0  0  0  0  0
    8.2768  -15.1758   24.3762 C   0  0  0  0  0  0  0  0  0  0  0  0
    8.5742  -16.3697   24.7323 O   0  0  0  0  0  0  0  0  0  0  0  0
    7.6581  -14.3651   25.3656 N   0  0  0  0  0  0  0  0  0  0  0  0
    6.9052  -13.1456   25.1656 C   0  0  0  0  0  0  0  0  0  0  0  0
    7.3190  -12.2814   26.3419 C   0  0  0  0  0  0  0  0  0  0  0  0
    7.9499  -13.1950   27.3398 C   0  0  0  0  0  0  0  0  0  0  0  0
    7.6427  -14.5725   26.8088 C   0  0  1  0  0  0  0  0  0  0  0  0
    6.3113  -15.0448   27.2781 C   0  0  0  0  0  0  0  0  0  0  0  0
    6.1078  -15.5758   28.5478 O   0  0  0  0  0  0  0  0  0  0  0  0
    5.3158  -14.9762   26.5298 O   0  0  0  0  0  0  0  0  0  0  0  0
  2  3  1  0
  2  1  1  6
  4  3  1  0
  4  8  1  0
  5  4  2  0
  6  2  1  0
  7  6  2  0
  9  6  1  0
 10  9  1  0
 11 12  1  0
 10 11  1  6
 12 16  1  0
 13 14  1  0
 13 12  2  0
 14 15  1  0
 15 16  2  0
 17 19  1  0
 17 10  1  0
 18 17  2  0
 19 20  1  0
 20 21  1  0
 22 21  1  0
 23 22  1  0
 23 19  1  0
 23 24  1  1
 24 25  1  0
 26 24  2  0
M  END
$$$$
