DHP.pdb
     RDKit          3D

 26 27  0  0  1  0  0  0  0  0999 V2000
    9.5107  -14.8837   19.5318 N   0  0  0  0  0  0  0  0  0  0  0  0
    8.6140  -13.8584   19.9990 C   0  0  1  0  0  0  0  0  0  0  0  0
    7.5351  -13.5398   18.9949 C   0  0  0  0  0  0  0  0  0  0  0  0
    8.0634  -13.8361   17.6560 C   0  0  0  0  0  0  0  0  0  0  0  0
    9.2727  -14.2191   17.5302 O   0  0  0  0  0  0  0  0  0  0  0  0
    7.9703  -14.2226   21.2831 C   0  0  0  0  0  0  0  0  0  0  0  0
    7.1466  -13.4378   21.8620 O   0  0  0  0  0  0  0  0  0  0  0  0
    7.2281  -13.6886   16.5540 O   0  0  0  0  0  0  0  0  0  0  0  0
    8.2186  -15.4547   21.9531 N   0  0  0  0  0  0  0  0  0  0  0  0
    7.6804  -15.6802   23.3082 C   0  0  1  0  0  0  0  0  0  0  0  0
    7.6210  -17.2073   23.4614 C   0  0  0  0  0  0  0  0  0  0  0  0
    7.3889  -17.5811   24.8642 C   0  0  0  0  0  0  0  0  0  0  0  0
    8.3278  -17.8305   25.8406 C   0  0  0  0  0  0  0  0  0  0  0  0
    7.6891  -18.1473   26.9731 N   0  0  0  0  0  0  0  0  0  0  0  0
    6.3527  -18.1048   26.7380 C   0  0  0  0  0  0  0  0  0  0  0  0
    6.2031  -17.7571   25.4444 N   0  0  0  0  0  0  0  0  0  0  0  0
    8.6607  -15.1774   24.2926 C   0  0  0  0  0  0  0  0  0  0  0  0
    9.9194  -15.3523   24.1330 O   0  0  0  0  0  0  0  0  0  0  0  0
    8.2719  -14.4737   25.4642 N   0  0  0  0  0  0  0  0  0  0  0  0
    6.9292  -14.1550   25.8998 C   0  0  0  0  0  0  0  0  0  0  0  0
    7.0713  -12.7616   26.4829 C   0  0  0  0  0  0  0  0  0  0  0  0
    8.5300  -12.5438   26.7134 C   0  0  0  0  0  0  0  0  0  0  0  0
    9.1351  -13.9075   26.4940 C   0  0  1  0  0  0  0  0  0  0  0  0
    9.0998  -14.7182   27.7419 C   0  0  0  0  0  0  0  0  0  0  0  0
    8.2583  -15.8145   27.9016 O   0  0  0  0  0  0  0  0  0  0  0  0
    9.8413  -14.4323   28.7033 O   0  0  0  0  0  0  0  0  0  0  0  0
  2  3  1  0
  2  1  1  6
  4  3  1  0
  4  8  1  0
  5  4  2  0
  6  2  1  0
  7  6  2  0
  9  6  1  0
 10  9  1  0
 11 12  1  0
 10 11  1  1
 12 16  1  0
 13 14  1  0
 13 12  2  0
 14 15  1  0
 15 16  2  0
 17 19  1  0
 17 10  1  0
 18 17  2  0
 19 20  1  0
 20 21  1  0
 22 21  1  0
 23 22  1  0
 23 19  1  0
 23 24  1  1
 24 25  1  0
 26 24  2  0
M  END
$$$$
