DHP.pdb
     RDKit          3D

 26 27  0  0  1  0  0  0  0  0999 V2000
   11.1072  -17.1331   13.6273 N   0  0  0  0  0  0  0  0  0  0  0  0
   10.0844  -16.1370   13.4396 C   0  0  1  0  0  0  0  0  0  0  0  0
    9.1430  -16.4872   12.3149 C   0  0  0  0  0  0  0  0  0  0  0  0
    9.8918  -16.3921   11.0540 C   0  0  0  0  0  0  0  0  0  0  0  0
   11.0624  -16.8912   10.9812 O   0  0  0  0  0  0  0  0  0  0  0  0
    9.2880  -15.9162   14.6695 C   0  0  0  0  0  0  0  0  0  0  0  0
    8.3927  -15.0083   14.7299 O   0  0  0  0  0  0  0  0  0  0  0  0
    9.3030  -15.7552    9.9670 O   0  0  0  0  0  0  0  0  0  0  0  0
    9.4595  -16.6888   15.8538 N   0  0  0  0  0  0  0  0  0  0  0  0
    8.6607  -16.3848   17.0563 C   0  0  1  0  0  0  0  0  0  0  0  0
    8.5025  -17.7317   17.7773 C   0  0  0  0  0  0  0  0  0  0  0  0
    7.5152  -18.5771   17.0902 C   0  0  0  0  0  0  0  0  0  0  0  0
    6.2258  -18.2523   16.7313 C   0  0  0  0  0  0  0  0  0  0  0  0
    5.6703  -19.3140   16.1356 N   0  0  0  0  0  0  0  0  0  0  0  0
    6.5849  -20.3168   16.1066 C   0  0  0  0  0  0  0  0  0  0  0  0
    7.6977  -19.8361   16.6959 N   0  0  0  0  0  0  0  0  0  0  0  0
    9.4552  -15.5049   17.9379 C   0  0  0  0  0  0  0  0  0  0  0  0
   10.7251  -15.3988   17.8092 O   0  0  0  0  0  0  0  0  0  0  0  0
    8.8655  -14.7278   18.9710 N   0  0  0  0  0  0  0  0  0  0  0  0
    7.4692  -14.6698   19.3467 C   0  0  0  0  0  0  0  0  0  0  0  0
    7.2567  -13.2052   19.6807 C   0  0  0  0  0  0  0  0  0  0  0  0
    8.6130  -12.6107   19.8686 C   0  0  0  0  0  0  0  0  0  0  0  0
    9.5296  -13.8079   19.8869 C   0  0  1  0  0  0  0  0  0  0  0  0
    9.6358  -14.3826   21.2559 C   0  0  0  0  0  0  0  0  0  0  0  0
   10.5024  -13.8744   22.2184 O   0  0  0  0  0  0  0  0  0  0  0  0
    8.9344  -15.3588   21.5885 O   0  0  0  0  0  0  0  0  0  0  0  0
  2  3  1  0
  2  1  1  1
  4  3  1  0
  4  8  1  0
  5  4  2  0
  6  2  1  0
  7  6  2  0
  9  6  1  0
 10  9  1  0
 11 12  1  0
 10 11  1  1
 12 16  1  0
 13 14  1  0
 13 12  2  0
 14 15  1  0
 15 16  2  0
 17 19  1  0
 17 10  1  0
 18 17  2  0
 19 20  1  0
 20 21  1  0
 22 21  1  0
 23 22  1  0
 23 19  1  0
 23 24  1  1
 24 25  1  0
 26 24  2  0
M  END
$$$$
