DHP.pdb
     RDKit          3D

 26 27  0  0  1  0  0  0  0  0999 V2000
   10.0780  -16.0620   13.0525 N   0  0  0  0  0  0  0  0  0  0  0  0
   10.4384  -16.7372   14.2722 C   0  0  1  0  0  0  0  0  0  0  0  0
   11.8936  -16.5515   14.6214 C   0  0  0  0  0  0  0  0  0  0  0  0
   12.6953  -17.1696   13.5561 C   0  0  0  0  0  0  0  0  0  0  0  0
   12.6585  -18.4339   13.3975 O   0  0  0  0  0  0  0  0  0  0  0  0
    9.6171  -16.2898   15.4215 C   0  0  0  0  0  0  0  0  0  0  0  0
    9.3226  -15.0593   15.5914 O   0  0  0  0  0  0  0  0  0  0  0  0
   13.4797  -16.3567   12.7451 O   0  0  0  0  0  0  0  0  0  0  0  0
    9.1038  -17.1849   16.4033 N   0  0  0  0  0  0  0  0  0  0  0  0
    8.2965  -16.6676   17.5245 C   0  0  1  0  0  0  0  0  0  0  0  0
    7.6783  -17.9140   18.1753 C   0  0  0  0  0  0  0  0  0  0  0  0
    6.8829  -17.5449   19.3553 C   0  0  0  0  0  0  0  0  0  0  0  0
    7.2333  -17.6591   20.6823 C   0  0  0  0  0  0  0  0  0  0  0  0
    6.2151  -17.2178   21.4302 N   0  0  0  0  0  0  0  0  0  0  0  0
    5.2151  -16.8214   20.6021 C   0  0  0  0  0  0  0  0  0  0  0  0
    5.6530  -17.0337   19.3451 N   0  0  0  0  0  0  0  0  0  0  0  0
    9.2062  -16.0590   18.5169 C   0  0  0  0  0  0  0  0  0  0  0  0
   10.4011  -16.4898   18.6821 O   0  0  0  0  0  0  0  0  0  0  0  0
    8.8169  -14.9676   19.3392 N   0  0  0  0  0  0  0  0  0  0  0  0
    7.5519  -14.2649   19.3357 C   0  0  0  0  0  0  0  0  0  0  0  0
    7.9532  -12.8196   19.5635 C   0  0  0  0  0  0  0  0  0  0  0  0
    9.3524  -12.8436   20.0829 C   0  0  0  0  0  0  0  0  0  0  0  0
    9.6026  -14.3023   20.3717 C   0  0  1  0  0  0  0  0  0  0  0  0
    9.1326  -14.6683   21.7359 C   0  0  0  0  0  0  0  0  0  0  0  0
    7.9914  -15.4328   21.9569 O   0  0  0  0  0  0  0  0  0  0  0  0
    9.7629  -14.2923   22.7443 O   0  0  0  0  0  0  0  0  0  0  0  0
  2  3  1  0
  2  1  1  6
  4  3  1  0
  4  8  1  0
  5  4  2  0
  6  2  1  0
  7  6  2  0
  9  6  1  0
 10  9  1  0
 11 12  1  0
 10 11  1  1
 12 16  1  0
 13 14  1  0
 13 12  2  0
 14 15  1  0
 15 16  2  0
 17 19  1  0
 17 10  1  0
 18 17  2  0
 19 20  1  0
 20 21  1  0
 22 21  1  0
 23 22  1  0
 23 19  1  0
 23 24  1  1
 24 25  1  0
 26 24  2  0
M  END
$$$$
