DHP.pdb
     RDKit          3D

 26 27  0  0  1  0  0  0  0  0999 V2000
    9.8794  -17.0621   20.6092 N   0  0  0  0  0  0  0  0  0  0  0  0
    8.7212  -16.2394   20.3740 C   0  0  1  0  0  0  0  0  0  0  0  0
    7.7603  -16.8685   19.3968 C   0  0  0  0  0  0  0  0  0  0  0  0
    8.5021  -17.1671   18.1639 C   0  0  0  0  0  0  0  0  0  0  0  0
    9.7595  -17.3682   18.2221 O   0  0  0  0  0  0  0  0  0  0  0  0
    7.9889  -15.9356   21.6259 C   0  0  0  0  0  0  0  0  0  0  0  0
    6.9070  -15.2582   21.6177 O   0  0  0  0  0  0  0  0  0  0  0  0
    7.8113  -17.2209   16.9581 O   0  0  0  0  0  0  0  0  0  0  0  0
    8.4308  -16.3709   22.9081 N   0  0  0  0  0  0  0  0  0  0  0  0
    7.6841  -15.9795   24.1188 C   0  0  1  0  0  0  0  0  0  0  0  0
    7.5672  -17.2687   24.9457 C   0  0  0  0  0  0  0  0  0  0  0  0
    6.8466  -18.3061   24.1933 C   0  0  0  0  0  0  0  0  0  0  0  0
    5.4894  -18.4112   23.9834 C   0  0  0  0  0  0  0  0  0  0  0  0
    5.2560  -19.5090   23.2547 N   0  0  0  0  0  0  0  0  0  0  0  0
    6.4444  -20.1109   22.9933 C   0  0  0  0  0  0  0  0  0  0  0  0
    7.3933  -19.3537   23.5789 N   0  0  0  0  0  0  0  0  0  0  0  0
    8.5110  -15.0329   24.8952 C   0  0  0  0  0  0  0  0  0  0  0  0
    9.7547  -14.8650   24.6395 O   0  0  0  0  0  0  0  0  0  0  0  0
    7.9825  -14.2559   25.9611 N   0  0  0  0  0  0  0  0  0  0  0  0
    6.6240  -14.2468   26.4598 C   0  0  0  0  0  0  0  0  0  0  0  0
    6.3786  -12.7845   26.7814 C   0  0  0  0  0  0  0  0  0  0  0  0
    7.7192  -12.1299   26.8341 C   0  0  0  0  0  0  0  0  0  0  0  0
    8.6850  -13.2872   26.7942 C   0  0  1  0  0  0  0  0  0  0  0  0
    8.9377  -13.8234   28.1597 C   0  0  0  0  0  0  0  0  0  0  0  0
    9.7441  -13.1694   29.0858 O   0  0  0  0  0  0  0  0  0  0  0  0
    8.4217  -14.8994   28.5224 O   0  0  0  0  0  0  0  0  0  0  0  0
  2  3  1  0
  2  1  1  1
  4  3  1  0
  4  8  1  0
  5  4  2  0
  6  2  1  0
  7  6  2  0
  9  6  1  0
 10  9  1  0
 11 12  1  0
 10 11  1  1
 12 16  1  0
 13 14  1  0
 13 12  2  0
 14 15  1  0
 15 16  2  0
 17 19  1  0
 17 10  1  0
 18 17  2  0
 19 20  1  0
 20 21  1  0
 22 21  1  0
 23 22  1  0
 23 19  1  0
 23 24  1  1
 24 25  1  0
 26 24  2  0
M  END
$$$$
