DHP.pdb
     RDKit          3D

 26 27  0  0  1  0  0  0  0  0999 V2000
    9.3340  -14.8894   19.6598 N   0  0  0  0  0  0  0  0  0  0  0  0
    8.3930  -13.8983   20.1134 C   0  0  1  0  0  0  0  0  0  0  0  0
    7.2781  -13.6713   19.1237 C   0  0  0  0  0  0  0  0  0  0  0  0
    7.7917  -13.9918   17.7847 C   0  0  0  0  0  0  0  0  0  0  0  0
    7.8047  -13.0883   16.8856 O   0  0  0  0  0  0  0  0  0  0  0  0
    7.7962  -14.2532   21.4225 C   0  0  0  0  0  0  0  0  0  0  0  0
    6.9525  -13.4886   21.9997 O   0  0  0  0  0  0  0  0  0  0  0  0
    8.2509  -15.2794   17.5294 O   0  0  0  0  0  0  0  0  0  0  0  0
    8.1142  -15.4537   22.1199 N   0  0  0  0  0  0  0  0  0  0  0  0
    7.5641  -15.6926   23.4679 C   0  0  1  0  0  0  0  0  0  0  0  0
    7.5537  -17.2203   23.6260 C   0  0  0  0  0  0  0  0  0  0  0  0
    7.2380  -17.5982   25.0113 C   0  0  0  0  0  0  0  0  0  0  0  0
    8.0902  -18.1097   25.9647 C   0  0  0  0  0  0  0  0  0  0  0  0
    7.3932  -18.3231   27.0870 N   0  0  0  0  0  0  0  0  0  0  0  0
    6.1048  -17.9557   26.8680 C   0  0  0  0  0  0  0  0  0  0  0  0
    6.0432  -17.5188   25.5944 N   0  0  0  0  0  0  0  0  0  0  0  0
    8.5126  -15.1540   24.4645 C   0  0  0  0  0  0  0  0  0  0  0  0
    9.7725  -15.1165   24.2373 O   0  0  0  0  0  0  0  0  0  0  0  0
    8.0898  -14.6472   25.7228 N   0  0  0  0  0  0  0  0  0  0  0  0
    6.7675  -14.7194   26.3063 C   0  0  0  0  0  0  0  0  0  0  0  0
    6.6125  -13.3742   26.9906 C   0  0  0  0  0  0  0  0  0  0  0  0
    7.9832  -12.7938   27.1032 C   0  0  0  0  0  0  0  0  0  0  0  0
    8.8886  -13.9348   26.7130 C   0  0  1  0  0  0  0  0  0  0  0  0
    9.2013  -14.7976   27.8850 C   0  0  0  0  0  0  0  0  0  0  0  0
   10.1111  -14.4256   28.8698 O   0  0  0  0  0  0  0  0  0  0  0  0
    8.6437  -15.9047   28.0224 O   0  0  0  0  0  0  0  0  0  0  0  0
  2  3  1  0
  2  1  1  6
  4  3  1  0
  4  8  1  0
  5  4  2  0
  6  2  1  0
  7  6  2  0
  9  6  1  0
 10  9  1  0
 11 12  1  0
 10 11  1  1
 12 16  1  0
 13 14  1  0
 13 12  2  0
 14 15  1  0
 15 16  2  0
 17 19  1  0
 17 10  1  0
 18 17  2  0
 19 20  1  0
 20 21  1  0
 22 21  1  0
 23 22  1  0
 23 19  1  0
 23 24  1  1
 24 25  1  0
 26 24  2  0
M  END
$$$$
