DHP.pdb
     RDKit          3D

 26 27  0  0  1  0  0  0  0  0999 V2000
   10.3790  -18.1234   21.2900 N   0  0  0  0  0  0  0  0  0  0  0  0
   11.3206  -17.1564   21.7919 C   0  0  1  0  0  0  0  0  0  0  0  0
   12.2925  -16.7000   20.7331 C   0  0  0  0  0  0  0  0  0  0  0  0
   13.4506  -17.6040   20.7643 C   0  0  0  0  0  0  0  0  0  0  0  0
   13.4668  -18.5734   21.5918 O   0  0  0  0  0  0  0  0  0  0  0  0
   10.6475  -15.9645   22.3593 C   0  0  0  0  0  0  0  0  0  0  0  0
   11.3059  -15.0483   22.9566 O   0  0  0  0  0  0  0  0  0  0  0  0
   14.5063  -17.3773   19.8878 O   0  0  0  0  0  0  0  0  0  0  0  0
    9.2406  -15.7570   22.2801 N   0  0  0  0  0  0  0  0  0  0  0  0
    8.6166  -14.6383   23.0119 C   0  0  1  0  0  0  0  0  0  0  0  0
    7.2599  -14.4235   22.3247 C   0  0  0  0  0  0  0  0  0  0  0  0
    7.4399  -14.1502   20.8914 C   0  0  0  0  0  0  0  0  0  0  0  0
    7.8053  -12.9638   20.2949 C   0  0  0  0  0  0  0  0  0  0  0  0
    7.8427  -13.1483   18.9699 N   0  0  0  0  0  0  0  0  0  0  0  0
    7.5064  -14.4369   18.7067 C   0  0  0  0  0  0  0  0  0  0  0  0
    7.2669  -15.0203   19.8979 N   0  0  0  0  0  0  0  0  0  0  0  0
    8.3436  -15.0766   24.3962 C   0  0  0  0  0  0  0  0  0  0  0  0
    8.6871  -16.2390   24.8102 O   0  0  0  0  0  0  0  0  0  0  0  0
    7.6922  -14.2434   25.3450 N   0  0  0  0  0  0  0  0  0  0  0  0
    6.8633  -13.0862   25.0841 C   0  0  0  0  0  0  0  0  0  0  0  0
    7.2419  -12.1260   26.1961 C   0  0  0  0  0  0  0  0  0  0  0  0
    7.9428  -12.9352   27.2364 C   0  0  0  0  0  0  0  0  0  0  0  0
    7.7120  -14.3595   26.7984 C   0  0  1  0  0  0  0  0  0  0  0  0
    6.4193  -14.8799   27.3219 C   0  0  0  0  0  0  0  0  0  0  0  0
    6.2773  -15.3745   28.6145 O   0  0  0  0  0  0  0  0  0  0  0  0
    5.4017  -14.8875   26.6008 O   0  0  0  0  0  0  0  0  0  0  0  0
  2  3  1  0
  2  1  1  6
  4  3  1  0
  4  8  1  0
  5  4  2  0
  6  2  1  0
  7  6  2  0
  9  6  1  0
 10  9  1  0
 11 12  1  0
 10 11  1  6
 12 16  1  0
 13 14  1  0
 13 12  2  0
 14 15  1  0
 15 16  2  0
 17 19  1  0
 17 10  1  0
 18 17  2  0
 19 20  1  0
 20 21  1  0
 22 21  1  0
 23 22  1  0
 23 19  1  0
 23 24  1  1
 24 25  1  0
 26 24  2  0
M  END
$$$$
