DHP.pdb
     RDKit          3D

 26 27  0  0  1  0  0  0  0  0999 V2000
   12.2297  -16.3890   19.6050 N   0  0  0  0  0  0  0  0  0  0  0  0
   12.6782  -15.2693   20.3916 C   0  0  1  0  0  0  0  0  0  0  0  0
   13.3876  -14.2315   19.5587 C   0  0  0  0  0  0  0  0  0  0  0  0
   14.4021  -14.9201   18.7486 C   0  0  0  0  0  0  0  0  0  0  0  0
   15.3093  -15.6027   19.3280 O   0  0  0  0  0  0  0  0  0  0  0  0
   11.5635  -14.6126   21.1139 C   0  0  0  0  0  0  0  0  0  0  0  0
   11.7640  -13.6123   21.8813 O   0  0  0  0  0  0  0  0  0  0  0  0
   14.3485  -14.8076   17.3635 O   0  0  0  0  0  0  0  0  0  0  0  0
   10.2096  -15.0414   21.0057 N   0  0  0  0  0  0  0  0  0  0  0  0
    9.1633  -14.3977   21.8227 C   0  0  1  0  0  0  0  0  0  0  0  0
    7.8468  -14.7051   21.0935 C   0  0  0  0  0  0  0  0  0  0  0  0
    7.9300  -14.3093   19.6801 C   0  0  0  0  0  0  0  0  0  0  0  0
    7.9604  -13.0352   19.1578 C   0  0  0  0  0  0  0  0  0  0  0  0
    8.0287  -13.1241   17.8243 N   0  0  0  0  0  0  0  0  0  0  0  0
    8.0426  -14.4378   17.4823 C   0  0  0  0  0  0  0  0  0  0  0  0
    7.9812  -15.1335   18.6351 N   0  0  0  0  0  0  0  0  0  0  0  0
    9.1079  -15.0756   23.1342 C   0  0  0  0  0  0  0  0  0  0  0  0
    9.8395  -16.0948   23.3923 O   0  0  0  0  0  0  0  0  0  0  0  0
    8.2504  -14.6418   24.1808 N   0  0  0  0  0  0  0  0  0  0  0  0
    7.1284  -13.7328   24.0854 C   0  0  0  0  0  0  0  0  0  0  0  0
    7.2238  -12.9228   25.3647 C   0  0  0  0  0  0  0  0  0  0  0  0
    8.1268  -13.6799   26.2811 C   0  0  0  0  0  0  0  0  0  0  0  0
    8.3056  -15.0087   25.5909 C   0  0  1  0  0  0  0  0  0  0  0  0
    7.2132  -15.9531   25.9523 C   0  0  0  0  0  0  0  0  0  0  0  0
    7.2076  -16.6751   27.1415 O   0  0  0  0  0  0  0  0  0  0  0  0
    6.2480  -16.1286   25.1820 O   0  0  0  0  0  0  0  0  0  0  0  0
  2  3  1  0
  2  1  1  6
  4  3  1  0
  4  8  1  0
  5  4  2  0
  6  2  1  0
  7  6  2  0
  9  6  1  0
 10  9  1  0
 11 12  1  0
 10 11  1  6
 12 16  1  0
 13 14  1  0
 13 12  2  0
 14 15  1  0
 15 16  2  0
 17 19  1  0
 17 10  1  0
 18 17  2  0
 19 20  1  0
 20 21  1  0
 22 21  1  0
 23 22  1  0
 23 19  1  0
 23 24  1  1
 24 25  1  0
 26 24  2  0
M  END
$$$$
