DHP.pdb
     RDKit          3D

 26 27  0  0  1  0  0  0  0  0999 V2000
   10.9541  -17.7871   21.0953 N   0  0  0  0  0  0  0  0  0  0  0  0
   10.1454  -16.7126   20.5803 C   0  0  1  0  0  0  0  0  0  0  0  0
    9.3548  -17.1229   19.3636 C   0  0  0  0  0  0  0  0  0  0  0  0
   10.3085  -17.5303   18.3225 C   0  0  0  0  0  0  0  0  0  0  0  0
   11.4410  -16.9500   18.2482 O   0  0  0  0  0  0  0  0  0  0  0  0
    9.2058  -16.1845   21.5971 C   0  0  0  0  0  0  0  0  0  0  0  0
    8.3738  -15.2573   21.3182 O   0  0  0  0  0  0  0  0  0  0  0  0
    9.9496  -18.5421   17.4384 O   0  0  0  0  0  0  0  0  0  0  0  0
    9.1621  -16.6657   22.9370 N   0  0  0  0  0  0  0  0  0  0  0  0
    8.1798  -16.1126   23.8888 C   0  0  1  0  0  0  0  0  0  0  0  0
    7.6748  -17.3248   24.6855 C   0  0  0  0  0  0  0  0  0  0  0  0
    6.9014  -18.2294   23.8223 C   0  0  0  0  0  0  0  0  0  0  0  0
    5.5822  -18.1161   23.4433 C   0  0  0  0  0  0  0  0  0  0  0  0
    5.2736  -19.1581   22.6622 N   0  0  0  0  0  0  0  0  0  0  0  0
    6.3763  -19.9393   22.5340 C   0  0  0  0  0  0  0  0  0  0  0  0
    7.3504  -19.3464   23.2526 N   0  0  0  0  0  0  0  0  0  0  0  0
    8.8899  -15.2289   24.8362 C   0  0  0  0  0  0  0  0  0  0  0  0
   10.1659  -15.1188   24.8209 O   0  0  0  0  0  0  0  0  0  0  0  0
    8.2081  -14.4522   25.8113 N   0  0  0  0  0  0  0  0  0  0  0  0
    6.7833  -14.3952   26.0583 C   0  0  0  0  0  0  0  0  0  0  0  0
    6.5403  -12.9307   26.3715 C   0  0  0  0  0  0  0  0  0  0  0  0
    7.8735  -12.3352   26.6820 C   0  0  0  0  0  0  0  0  0  0  0  0
    8.7855  -13.5318   26.7837 C   0  0  1  0  0  0  0  0  0  0  0  0
    8.7671  -14.1063   28.1568 C   0  0  0  0  0  0  0  0  0  0  0  0
    9.4532  -13.5300   29.2211 O   0  0  0  0  0  0  0  0  0  0  0  0
    8.1207  -15.1450   28.3994 O   0  0  0  0  0  0  0  0  0  0  0  0
  2  3  1  0
  2  1  1  1
  4  3  1  0
  4  8  1  0
  5  4  2  0
  6  2  1  0
  7  6  2  0
  9  6  1  0
 10  9  1  0
 11 12  1  0
 10 11  1  1
 12 16  1  0
 13 14  1  0
 13 12  2  0
 14 15  1  0
 15 16  2  0
 17 19  1  0
 17 10  1  0
 18 17  2  0
 19 20  1  0
 20 21  1  0
 22 21  1  0
 23 22  1  0
 23 19  1  0
 23 24  1  1
 24 25  1  0
 26 24  2  0
M  END
$$$$
