CGM.pdb
     RDKit          3D

 19 18  0  0  1  0  0  0  0  0999 V2000
   17.1092  -11.8758  -16.3306 N   0  0  0  0  0  0  0  0  0  0  0  0
   17.2048  -11.1582  -17.5866 C   0  0  1  0  0  0  0  0  0  0  0  0
   15.9299  -11.3685  -18.3499 C   0  0  0  0  0  0  0  0  0  0  0  0
   15.7508  -13.0769  -18.9274 S   0  0  0  0  0  0  0  0  0  0  0  0
   17.5323   -9.7198  -17.3625 C   0  0  0  0  0  0  0  0  0  0  0  0
   16.6372   -8.9675  -16.9059 O   0  0  0  0  0  0  0  0  0  0  0  0
   18.8057   -9.1742  -17.6417 N   0  0  0  0  0  0  0  0  0  0  0  0
   19.1216   -7.8038  -17.4704 C   0  0  0  0  0  0  0  0  0  0  0  0
   19.7996   -7.4172  -16.2360 C   0  0  0  0  0  0  0  0  0  0  0  0
   19.1424   -7.6231  -15.1587 O   0  0  0  0  0  0  0  0  0  0  0  0
   23.4642  -11.6894  -13.9468 C   0  0  0  0  0  0  0  0  0  0  0  0
   23.8630   -9.9247  -14.0821 S   0  0  0  0  0  0  0  0  0  0  0  0
   22.3452   -8.9542  -14.3913 C   0  0  0  0  0  0  0  0  0  0  0  0
   22.7455   -7.5255  -14.4621 C   0  0  0  0  0  0  0  0  0  0  0  0
   21.6150   -6.5720  -14.7437 C   0  0  2  0  0  0  0  0  0  0  0  0
   21.0836   -6.8499  -16.0960 N   0  0  0  0  0  0  0  0  0  0  0  0
   22.0688   -5.1919  -14.6490 C   0  0  0  0  0  0  0  0  0  0  0  0
   22.4349   -4.6317  -13.4540 O   0  0  0  0  0  0  0  0  0  0  0  0
   22.1405   -4.4492  -15.6797 O   0  0  0  0  0  0  0  0  0  0  0  0
  2  1  1  1
  3  2  1  0
  4  3  1  0
  5  2  1  0
  5  6  2  0
  7  5  1  0
  8  7  1  0
  9  8  1  0
 10  9  2  0
 11 12  1  0
 13 12  1  0
 13 14  1  0
 15 14  1  6
 15 16  1  0
 15 17  1  0
 16  9  1  0
 17 18  1  0
 19 17  2  0
M  END
$$$$
