CGM.pdb
     RDKit          3D

 19 18  0  0  1  0  0  0  0  0999 V2000
   28.6245  -20.3583  -18.2936 N   0  0  0  0  0  0  0  0  0  0  0  0
   28.0910  -20.7377  -17.0001 C   0  0  1  0  0  0  0  0  0  0  0  0
   26.5933  -20.6724  -17.0683 C   0  0  0  0  0  0  0  0  0  0  0  0
   26.0092  -19.1555  -17.8698 S   0  0  0  0  0  0  0  0  0  0  0  0
   28.6085  -22.0704  -16.5729 C   0  0  0  0  0  0  0  0  0  0  0  0
   28.2898  -22.4986  -15.4368 O   0  0  0  0  0  0  0  0  0  0  0  0
   29.4384  -22.8664  -17.3943 N   0  0  0  0  0  0  0  0  0  0  0  0
   29.9263  -24.1395  -17.0094 C   0  0  0  0  0  0  0  0  0  0  0  0
   29.0734  -25.2959  -17.2703 C   0  0  0  0  0  0  0  0  0  0  0  0
   28.8440  -25.5442  -18.5034 O   0  0  0  0  0  0  0  0  0  0  0  0
   27.2575  -32.4216  -16.9926 C   0  0  0  0  0  0  0  0  0  0  0  0
   28.0875  -30.9804  -16.2675 S   0  0  0  0  0  0  0  0  0  0  0  0
   26.9076  -29.5968  -16.0820 C   0  0  0  0  0  0  0  0  0  0  0  0
   27.7010  -28.3862  -15.7478 C   0  0  0  0  0  0  0  0  0  0  0  0
   27.6732  -27.3096  -16.7998 C   0  0  2  0  0  0  0  0  0  0  0  0
   28.4805  -26.1629  -16.3287 N   0  0  0  0  0  0  0  0  0  0  0  0
   26.3058  -26.8911  -17.0731 C   0  0  0  0  0  0  0  0  0  0  0  0
   25.7643  -25.7713  -16.4998 O   0  0  0  0  0  0  0  0  0  0  0  0
   25.5573  -27.5561  -17.8582 O   0  0  0  0  0  0  0  0  0  0  0  0
  2  1  1  6
  3  2  1  0
  4  3  1  0
  5  2  1  0
  5  6  2  0
  7  5  1  0
  8  7  1  0
  9  8  1  0
 10  9  2  0
 11 12  1  0
 13 12  1  0
 13 14  1  0
 15 14  1  1
 15 16  1  0
 15 17  1  0
 16  9  1  0
 17 18  1  0
 19 17  2  0
M  END
$$$$
