CGM.pdb
     RDKit          3D

 19 18  0  0  1  0  0  0  0  0999 V2000
   23.2835  -10.6453  -17.1739 N   0  0  0  0  0  0  0  0  0  0  0  0
   22.0227  -10.6132  -17.8887 C   0  0  1  0  0  0  0  0  0  0  0  0
   21.2729  -11.8765  -17.5826 C   0  0  0  0  0  0  0  0  0  0  0  0
   22.0922  -13.3422  -18.2644 S   0  0  0  0  0  0  0  0  0  0  0  0
   21.2538   -9.3745  -17.5711 C   0  0  0  0  0  0  0  0  0  0  0  0
   20.8453   -9.2101  -16.3956 O   0  0  0  0  0  0  0  0  0  0  0  0
   20.9701   -8.3830  -18.5373 N   0  0  0  0  0  0  0  0  0  0  0  0
   20.2013   -7.2249  -18.2638 C   0  0  0  0  0  0  0  0  0  0  0  0
   20.8425   -6.1528  -17.5073 C   0  0  0  0  0  0  0  0  0  0  0  0
   21.6481   -5.4151  -18.1719 O   0  0  0  0  0  0  0  0  0  0  0  0
   20.4451    0.5492  -14.2194 C   0  0  0  0  0  0  0  0  0  0  0  0
   19.7612   -1.0274  -14.8011 S   0  0  0  0  0  0  0  0  0  0  0  0
   21.0631   -2.3101  -14.8308 C   0  0  0  0  0  0  0  0  0  0  0  0
   20.4728   -3.5189  -15.4609 C   0  0  0  0  0  0  0  0  0  0  0  0
   21.4100   -4.6928  -15.5622 C   0  0  2  0  0  0  0  0  0  0  0  0
   20.6763   -5.8390  -16.1420 N   0  0  0  0  0  0  0  0  0  0  0  0
   21.9445   -5.0403  -14.2533 C   0  0  0  0  0  0  0  0  0  0  0  0
   21.5238   -6.1519  -13.5726 O   0  0  0  0  0  0  0  0  0  0  0  0
   22.8264   -4.3179  -13.6883 O   0  0  0  0  0  0  0  0  0  0  0  0
  2  1  1  1
  3  2  1  0
  4  3  1  0
  5  2  1  0
  5  6  2  0
  7  5  1  0
  8  7  1  0
  9  8  1  0
 10  9  2  0
 11 12  1  0
 13 12  1  0
 13 14  1  0
 15 14  1  1
 15 16  1  0
 15 17  1  0
 16  9  1  0
 17 18  1  0
 19 17  2  0
M  END
$$$$
