CGM.pdb
     RDKit          3D

 19 18  0  0  1  0  0  0  0  0999 V2000
   22.3301  -19.5626  -15.8167 N   0  0  0  0  0  0  0  0  0  0  0  0
   21.5973  -20.6706  -15.2362 C   0  0  1  0  0  0  0  0  0  0  0  0
   21.9181  -21.9111  -16.0174 C   0  0  0  0  0  0  0  0  0  0  0  0
   22.3317  -21.5462  -17.7437 S   0  0  0  0  0  0  0  0  0  0  0  0
   21.8796  -20.7985  -13.7766 C   0  0  0  0  0  0  0  0  0  0  0  0
   21.4315  -21.8002  -13.1671 O   0  0  0  0  0  0  0  0  0  0  0  0
   22.6297  -19.8409  -13.0572 N   0  0  0  0  0  0  0  0  0  0  0  0
   22.8767  -19.9294  -11.6650 C   0  0  0  0  0  0  0  0  0  0  0  0
   24.2698  -19.9641  -11.2281 C   0  0  0  0  0  0  0  0  0  0  0  0
   25.1170  -19.4697  -12.0483 O   0  0  0  0  0  0  0  0  0  0  0  0
   29.2952  -19.5467   -5.1820 C   0  0  0  0  0  0  0  0  0  0  0  0
   27.6654  -19.9536   -5.8675 S   0  0  0  0  0  0  0  0  0  0  0  0
   27.7196  -19.9178   -7.6942 C   0  0  0  0  0  0  0  0  0  0  0  0
   26.3409  -20.1842   -8.1788 C   0  0  0  0  0  0  0  0  0  0  0  0
   26.2059  -20.2504   -9.6768 C   0  0  2  0  0  0  0  0  0  0  0  0
   24.7837  -20.4735  -10.0171 N   0  0  0  0  0  0  0  0  0  0  0  0
   27.0331  -21.3171  -10.2222 C   0  0  0  0  0  0  0  0  0  0  0  0
   28.3426  -21.1118  -10.5672 O   0  0  0  0  0  0  0  0  0  0  0  0
   26.5663  -22.4870  -10.4021 O   0  0  0  0  0  0  0  0  0  0  0  0
  2  1  1  6
  3  2  1  0
  4  3  1  0
  5  2  1  0
  5  6  2  0
  7  5  1  0
  8  7  1  0
  9  8  1  0
 10  9  2  0
 11 12  1  0
 13 12  1  0
 13 14  1  0
 15 14  1  1
 15 16  1  0
 15 17  1  0
 16  9  1  0
 17 18  1  0
 19 17  2  0
M  END
$$$$
