CGM.pdb
     RDKit          3D

 19 18  0  0  1  0  0  0  0  0999 V2000
   18.1036  -11.9889  -15.3421 N   0  0  0  0  0  0  0  0  0  0  0  0
   17.2675  -10.8850  -14.9131 C   0  0  1  0  0  0  0  0  0  0  0  0
   15.8326  -11.2642  -15.1351 C   0  0  0  0  0  0  0  0  0  0  0  0
   14.9143   -9.9805  -16.0256 S   0  0  0  0  0  0  0  0  0  0  0  0
   17.5679  -10.4965  -13.5041 C   0  0  0  0  0  0  0  0  0  0  0  0
   17.5941  -11.3962  -12.6292 O   0  0  0  0  0  0  0  0  0  0  0  0
   17.8244   -9.1614  -13.1183 N   0  0  0  0  0  0  0  0  0  0  0  0
   18.0398   -8.7654  -11.7753 C   0  0  0  0  0  0  0  0  0  0  0  0
   17.0507   -7.8802  -11.1662 C   0  0  0  0  0  0  0  0  0  0  0  0
   16.3632   -7.1771  -11.9834 O   0  0  0  0  0  0  0  0  0  0  0  0
   11.4060   -9.4136   -7.4542 C   0  0  0  0  0  0  0  0  0  0  0  0
   12.9401   -8.5242   -7.0702 S   0  0  0  0  0  0  0  0  0  0  0  0
   13.7291   -7.9291   -8.6079 C   0  0  0  0  0  0  0  0  0  0  0  0
   14.9856   -7.2397   -8.2172 C   0  0  0  0  0  0  0  0  0  0  0  0
   15.7843   -6.6933   -9.3705 C   0  0  2  0  0  0  0  0  0  0  0  0
   16.7677   -7.7139   -9.7943 N   0  0  0  0  0  0  0  0  0  0  0  0
   16.4608   -5.4612   -8.9912 C   0  0  0  0  0  0  0  0  0  0  0  0
   15.8772   -4.2340   -9.1621 O   0  0  0  0  0  0  0  0  0  0  0  0
   17.6283   -5.4789   -8.4857 O   0  0  0  0  0  0  0  0  0  0  0  0
  2  1  1  1
  3  2  1  0
  4  3  1  0
  5  2  1  0
  5  6  2  0
  7  5  1  0
  8  7  1  0
  9  8  1  0
 10  9  2  0
 11 12  1  0
 13 12  1  0
 13 14  1  0
 15 14  1  1
 15 16  1  0
 15 17  1  0
 16  9  1  0
 17 18  1  0
 19 17  2  0
M  END
$$$$
