CGM.pdb
     RDKit          3D

 19 18  0  0  1  0  0  0  0  0999 V2000
   21.3111   -9.2873  -16.3958 N   0  0  0  0  0  0  0  0  0  0  0  0
   20.0042   -9.4018  -15.7790 C   0  0  1  0  0  0  0  0  0  0  0  0
   19.5044  -10.8016  -15.9858 C   0  0  0  0  0  0  0  0  0  0  0  0
   18.2523  -10.8963  -17.2925 S   0  0  0  0  0  0  0  0  0  0  0  0
   20.0468   -8.9923  -14.3448 C   0  0  0  0  0  0  0  0  0  0  0  0
   21.0827   -9.2441  -13.6822 O   0  0  0  0  0  0  0  0  0  0  0  0
   18.9716   -8.3337  -13.7065 N   0  0  0  0  0  0  0  0  0  0  0  0
   18.9921   -7.9475  -12.3437 C   0  0  0  0  0  0  0  0  0  0  0  0
   17.8115   -7.2677  -11.8174 C   0  0  0  0  0  0  0  0  0  0  0  0
   16.9548   -6.8959  -12.6907 O   0  0  0  0  0  0  0  0  0  0  0  0
   13.3303   -9.0301   -7.8791 C   0  0  0  0  0  0  0  0  0  0  0  0
   13.6418   -7.3750   -7.2044 S   0  0  0  0  0  0  0  0  0  0  0  0
   14.3576   -6.2911   -8.4904 C   0  0  0  0  0  0  0  0  0  0  0  0
   15.6100   -6.9369   -8.9604 C   0  0  0  0  0  0  0  0  0  0  0  0
   16.2568   -6.2628  -10.1410 C   0  0  2  0  0  0  0  0  0  0  0  0
   17.5091   -6.9782  -10.4703 N   0  0  0  0  0  0  0  0  0  0  0  0
   16.5320   -4.8634   -9.8486 C   0  0  0  0  0  0  0  0  0  0  0  0
   15.5891   -3.8873  -10.0340 O   0  0  0  0  0  0  0  0  0  0  0  0
   17.6669   -4.4924   -9.4093 O   0  0  0  0  0  0  0  0  0  0  0  0
  2  1  1  1
  3  2  1  0
  4  3  1  0
  5  2  1  0
  5  6  2  0
  7  5  1  0
  8  7  1  0
  9  8  1  0
 10  9  2  0
 11 12  1  0
 13 12  1  0
 13 14  1  0
 15 14  1  1
 15 16  1  0
 15 17  1  0
 16  9  1  0
 17 18  1  0
 19 17  2  0
M  END
$$$$
