CGM.pdb
     RDKit          3D

 19 18  0  0  1  0  0  0  0  0999 V2000
   18.9420  -11.0900  -16.2526 N   0  0  0  0  0  0  0  0  0  0  0  0
   17.9024  -10.9823  -15.2479 C   0  0  1  0  0  0  0  0  0  0  0  0
   17.4592  -12.3667  -14.8753 C   0  0  0  0  0  0  0  0  0  0  0  0
   16.7807  -13.2732  -16.2903 S   0  0  0  0  0  0  0  0  0  0  0  0
   18.3608  -10.1716  -14.0821 C   0  0  0  0  0  0  0  0  0  0  0  0
   19.5870  -10.1503  -13.8146 O   0  0  0  0  0  0  0  0  0  0  0  0
   17.4724   -9.4290  -13.2719 N   0  0  0  0  0  0  0  0  0  0  0  0
   17.8928   -8.6432  -12.1707 C   0  0  0  0  0  0  0  0  0  0  0  0
   16.8729   -7.8753  -11.4615 C   0  0  0  0  0  0  0  0  0  0  0  0
   15.8574   -7.5324  -12.1586 O   0  0  0  0  0  0  0  0  0  0  0  0
   12.2605   -9.0924   -7.7691 C   0  0  0  0  0  0  0  0  0  0  0  0
   13.0654   -7.7977   -6.7855 S   0  0  0  0  0  0  0  0  0  0  0  0
   13.9402   -6.6231   -7.8792 C   0  0  0  0  0  0  0  0  0  0  0  0
   15.0942   -7.3495   -8.4685 C   0  0  0  0  0  0  0  0  0  0  0  0
   15.7798   -6.6251   -9.5963 C   0  0  2  0  0  0  0  0  0  0  0  0
   16.8777   -7.4736  -10.1093 N   0  0  0  0  0  0  0  0  0  0  0  0
   16.2972   -5.3411   -9.1453 C   0  0  0  0  0  0  0  0  0  0  0  0
   15.4924   -4.2394   -9.0252 O   0  0  0  0  0  0  0  0  0  0  0  0
   17.5250   -5.1933   -8.8462 O   0  0  0  0  0  0  0  0  0  0  0  0
  2  1  1  6
  3  2  1  0
  4  3  1  0
  5  2  1  0
  5  6  2  0
  7  5  1  0
  8  7  1  0
  9  8  1  0
 10  9  2  0
 11 12  1  0
 13 12  1  0
 13 14  1  0
 15 14  1  1
 15 16  1  0
 15 17  1  0
 16  9  1  0
 17 18  1  0
 19 17  2  0
M  END
$$$$
