CGM.pdb
     RDKit          3D

 19 18  0  0  1  0  0  0  0  0999 V2000
   15.8454  -11.7928  -14.9243 N   0  0  0  0  0  0  0  0  0  0  0  0
   17.2828  -11.9453  -15.0348 C   0  0  1  0  0  0  0  0  0  0  0  0
   17.5777  -13.3526  -15.4643 C   0  0  0  0  0  0  0  0  0  0  0  0
   17.2252  -14.5565  -14.1564 S   0  0  0  0  0  0  0  0  0  0  0  0
   17.8668  -10.9133  -15.9406 C   0  0  0  0  0  0  0  0  0  0  0  0
   17.4556  -10.8567  -17.1252 O   0  0  0  0  0  0  0  0  0  0  0  0
   18.8593  -10.0003  -15.5183 N   0  0  0  0  0  0  0  0  0  0  0  0
   19.4560   -9.0445  -16.3771 C   0  0  0  0  0  0  0  0  0  0  0  0
   20.5744   -8.2680  -15.8486 C   0  0  0  0  0  0  0  0  0  0  0  0
   20.8047   -8.4138  -14.5994 O   0  0  0  0  0  0  0  0  0  0  0  0
   27.1420   -3.9762  -17.0663 C   0  0  0  0  0  0  0  0  0  0  0  0
   25.6697   -4.8408  -17.6798 S   0  0  0  0  0  0  0  0  0  0  0  0
   24.6769   -5.4720  -16.2809 C   0  0  0  0  0  0  0  0  0  0  0  0
   23.4938   -6.1600  -16.8585 C   0  0  0  0  0  0  0  0  0  0  0  0
   22.5440   -6.7327  -15.8404 C   0  0  2  0  0  0  0  0  0  0  0  0
   21.4224   -7.3857  -16.5502 N   0  0  0  0  0  0  0  0  0  0  0  0
   22.0472   -5.6893  -14.9548 C   0  0  0  0  0  0  0  0  0  0  0  0
   20.8808   -5.0186  -15.2110 O   0  0  0  0  0  0  0  0  0  0  0  0
   22.6837   -5.3581  -13.9041 O   0  0  0  0  0  0  0  0  0  0  0  0
  2  1  1  6
  3  2  1  0
  4  3  1  0
  5  2  1  0
  5  6  2  0
  7  5  1  0
  8  7  1  0
  9  8  1  0
 10  9  2  0
 11 12  1  0
 13 12  1  0
 13 14  1  0
 15 14  1  6
 15 16  1  0
 15 17  1  0
 16  9  1  0
 17 18  1  0
 19 17  2  0
M  END
$$$$
