CGM.pdb
     RDKit          3D

 19 18  0  0  1  0  0  0  0  0999 V2000
   24.8222  -18.7859  -14.3108 N   0  0  0  0  0  0  0  0  0  0  0  0
   26.2551  -18.6506  -14.4840 C   0  0  1  0  0  0  0  0  0  0  0  0
   26.5673  -17.2037  -14.7313 C   0  0  0  0  0  0  0  0  0  0  0  0
   25.8233  -16.5949  -16.2676 S   0  0  0  0  0  0  0  0  0  0  0  0
   26.9957  -19.2281  -13.3245 C   0  0  0  0  0  0  0  0  0  0  0  0
   26.7987  -18.7377  -12.1859 O   0  0  0  0  0  0  0  0  0  0  0  0
   27.9050  -20.3017  -13.4574 N   0  0  0  0  0  0  0  0  0  0  0  0
   28.6350  -20.8444  -12.3713 C   0  0  0  0  0  0  0  0  0  0  0  0
   27.8797  -21.2672  -11.1951 C   0  0  0  0  0  0  0  0  0  0  0  0
   28.4300  -22.1767  -10.4846 O   0  0  0  0  0  0  0  0  0  0  0  0
   27.8736  -18.3860   -5.9933 C   0  0  0  0  0  0  0  0  0  0  0  0
   27.5728  -20.1653   -5.8061 S   0  0  0  0  0  0  0  0  0  0  0  0
   26.2954  -20.7197   -6.9902 C   0  0  0  0  0  0  0  0  0  0  0  0
   26.8427  -20.5100   -8.3551 C   0  0  0  0  0  0  0  0  0  0  0  0
   26.0974  -21.2320   -9.4460 C   0  0  2  0  0  0  0  0  0  0  0  0
   26.6264  -20.7919  -10.7555 N   0  0  0  0  0  0  0  0  0  0  0  0
   24.6689  -20.9649   -9.3583 C   0  0  0  0  0  0  0  0  0  0  0  0
   23.9190  -21.3857   -8.2922 O   0  0  0  0  0  0  0  0  0  0  0  0
   24.0597  -20.3283  -10.2761 O   0  0  0  0  0  0  0  0  0  0  0  0
  2  1  1  1
  3  2  1  0
  4  3  1  0
  5  2  1  0
  5  6  2  0
  7  5  1  0
  8  7  1  0
  9  8  1  0
 10  9  2  0
 11 12  1  0
 13 12  1  0
 13 14  1  0
 15 14  1  1
 15 16  1  0
 15 17  1  0
 16  9  1  0
 17 18  1  0
 19 17  2  0
M  END
$$$$
