CGM.pdb
     RDKit          3D

 19 18  0  0  1  0  0  0  0  0999 V2000
   25.9015  -12.0822  -17.6260 N   0  0  0  0  0  0  0  0  0  0  0  0
   25.7153  -12.2201  -16.1950 C   0  0  1  0  0  0  0  0  0  0  0  0
   27.0006  -11.8528  -15.5130 C   0  0  0  0  0  0  0  0  0  0  0  0
   28.4534  -12.3968  -16.4498 S   0  0  0  0  0  0  0  0  0  0  0  0
   24.5445  -11.4238  -15.7241 C   0  0  0  0  0  0  0  0  0  0  0  0
   24.2476  -11.4622  -14.5051 O   0  0  0  0  0  0  0  0  0  0  0  0
   23.7614  -10.6307  -16.5928 N   0  0  0  0  0  0  0  0  0  0  0  0
   22.6754   -9.8335  -16.1546 C   0  0  0  0  0  0  0  0  0  0  0  0
   22.8765   -8.3878  -16.1055 C   0  0  0  0  0  0  0  0  0  0  0  0
   24.0840   -7.9942  -16.2532 O   0  0  0  0  0  0  0  0  0  0  0  0
   20.0550   -1.2566  -17.8176 C   0  0  0  0  0  0  0  0  0  0  0  0
   19.8806   -3.0527  -17.6299 S   0  0  0  0  0  0  0  0  0  0  0  0
   21.3902   -3.7609  -16.8811 C   0  0  0  0  0  0  0  0  0  0  0  0
   21.1460   -5.2142  -16.6939 C   0  0  0  0  0  0  0  0  0  0  0  0
   22.2839   -5.9623  -16.0519 C   0  0  2  0  0  0  0  0  0  0  0  0
   21.9022   -7.3852  -15.9173 N   0  0  0  0  0  0  0  0  0  0  0  0
   22.6036   -5.3958  -14.7494 C   0  0  0  0  0  0  0  0  0  0  0  0
   22.1588   -5.9638  -13.5852 O   0  0  0  0  0  0  0  0  0  0  0  0
   23.3109   -4.3435  -14.6438 O   0  0  0  0  0  0  0  0  0  0  0  0
  2  1  1  6
  3  2  1  0
  4  3  1  0
  5  2  1  0
  5  6  2  0
  7  5  1  0
  8  7  1  0
  9  8  1  0
 10  9  2  0
 11 12  1  0
 13 12  1  0
 13 14  1  0
 15 14  1  1
 15 16  1  0
 15 17  1  0
 16  9  1  0
 17 18  1  0
 19 17  2  0
M  END
$$$$
