DQA.pdb
     RDKit          3D

 23 22  0  0  1  0  0  0  0  0999 V2000
   11.0663  -18.1989   20.8779 N   0  0  0  0  0  0  0  0  0  0  0  0
   11.5398  -17.0044   21.5188 C   0  0  1  0  0  0  0  0  0  0  0  0
   11.4142  -15.8515   20.5694 C   0  0  0  0  0  0  0  0  0  0  0  0
   12.5161  -15.9111   19.5779 C   0  0  0  0  0  0  0  0  0  0  0  0
   13.4702  -16.7389   19.7108 O   0  0  0  0  0  0  0  0  0  0  0  0
   10.7393  -16.7169   22.7488 C   0  0  0  0  0  0  0  0  0  0  0  0
    9.7830  -15.9033   22.6849 O   0  0  0  0  0  0  0  0  0  0  0  0
   12.5717  -15.0808   18.4636 O   0  0  0  0  0  0  0  0  0  0  0  0
    9.6192  -20.9724   26.9651 N   0  0  0  0  0  0  0  0  0  0  0  0
   10.9347  -20.4565   26.9885 C   0  0  0  0  0  0  0  0  0  0  0  0
   11.8147  -21.1620   27.5435 O   0  0  0  0  0  0  0  0  0  0  0  0
   11.1676  -19.1431   26.3657 C   0  0  0  0  0  0  0  0  0  0  0  0
    9.9602  -18.4389   25.8772 C   0  0  0  0  0  0  0  0  0  0  0  0
   10.1899  -17.1460   25.1679 C   0  0  2  0  0  0  0  0  0  0  0  0
   11.0106  -17.3216   23.9864 N   0  0  0  0  0  0  0  0  0  0  0  0
   10.7550  -16.1157   26.0753 C   0  0  0  0  0  0  0  0  0  0  0  0
   11.9792  -16.1274   26.3506 O   0  0  0  0  0  0  0  0  0  0  0  0
    9.3927  -13.0598   27.7889 C   0  0  0  0  0  0  0  0  0  0  0  0
   10.3720  -14.2310   27.6846 C   0  0  2  0  0  0  0  0  0  0  0  0
    9.9113  -15.1057   26.6405 N   0  0  0  0  0  0  0  0  0  0  0  0
   10.3848  -14.8948   29.0122 C   0  0  0  0  0  0  0  0  0  0  0  0
   10.8392  -14.2369   29.9827 O   0  0  0  0  0  0  0  0  0  0  0  0
    9.9349  -16.1725   29.2451 O   0  0  0  0  0  0  0  0  0  0  0  0
  2  1  1  6
  3  2  1  0
  4  3  1  0
  5  4  2  0
  6  7  2  0
  6  2  1  0
  8  4  1  0
  9 10  1  0
 10 12  1  0
 11 10  2  0
 12 13  1  0
 14 13  1  1
 14 16  1  0
 14 15  1  0
 15  6  1  0
 16 17  2  0
 19 18  1  1
 20 19  1  0
 20 16  1  0
 21 19  1  0
 22 21  2  0
 23 21  1  0
M  END
$$$$
