DQA.pdb
     RDKit          3D

 23 22  0  0  1  0  0  0  0  0999 V2000
   13.4431  -18.1719   16.6623 N   0  0  0  0  0  0  0  0  0  0  0  0
   13.9618  -18.0332   17.9941 C   0  0  1  0  0  0  0  0  0  0  0  0
   14.7626  -16.7694   18.0832 C   0  0  0  0  0  0  0  0  0  0  0  0
   15.9921  -16.9098   17.2650 C   0  0  0  0  0  0  0  0  0  0  0  0
   16.8679  -17.7855   17.5471 O   0  0  0  0  0  0  0  0  0  0  0  0
   12.8459  -17.9784   18.9881 C   0  0  0  0  0  0  0  0  0  0  0  0
   11.8095  -17.3214   18.7147 O   0  0  0  0  0  0  0  0  0  0  0  0
   16.2568  -16.1074   16.1603 O   0  0  0  0  0  0  0  0  0  0  0  0
   11.4902  -22.4583   23.1423 N   0  0  0  0  0  0  0  0  0  0  0  0
   10.4269  -21.5495   23.3441 C   0  0  0  0  0  0  0  0  0  0  0  0
    9.4639  -21.9451   24.0484 O   0  0  0  0  0  0  0  0  0  0  0  0
   10.5314  -20.2215   22.7174 C   0  0  0  0  0  0  0  0  0  0  0  0
   11.6869  -20.0255   21.8126 C   0  0  0  0  0  0  0  0  0  0  0  0
   11.8019  -18.6846   21.1674 C   0  0  2  0  0  0  0  0  0  0  0  0
   12.9040  -18.6351   20.2276 N   0  0  0  0  0  0  0  0  0  0  0  0
   11.8960  -17.5979   22.1746 C   0  0  0  0  0  0  0  0  0  0  0  0
   13.0090  -17.2986   22.6708 O   0  0  0  0  0  0  0  0  0  0  0  0
    9.4116  -15.1207   23.5533 C   0  0  0  0  0  0  0  0  0  0  0  0
   10.7885  -15.7869   23.5097 C   0  0  2  0  0  0  0  0  0  0  0  0
   10.7228  -16.8863   22.5855 N   0  0  0  0  0  0  0  0  0  0  0  0
   11.0909  -16.2303   24.8936 C   0  0  0  0  0  0  0  0  0  0  0  0
   10.9742  -17.4567   25.1459 O   0  0  0  0  0  0  0  0  0  0  0  0
   11.4871  -15.3916   25.9079 O   0  0  0  0  0  0  0  0  0  0  0  0
  2  1  1  6
  3  2  1  0
  4  3  1  0
  5  4  2  0
  6  7  2  0
  6  2  1  0
  8  4  1  0
  9 10  1  0
 10 12  1  0
 11 10  2  0
 12 13  1  0
 14 13  1  1
 14 16  1  0
 14 15  1  0
 15  6  1  0
 16 17  2  0
 19 18  1  1
 20 19  1  0
 20 16  1  0
 21 19  1  0
 22 21  2  0
 23 21  1  0
M  END
$$$$
