DQA.pdb
     RDKit          3D

 23 22  0  0  1  0  0  0  0  0999 V2000
   10.5817  -16.5862   20.4803 N   0  0  0  0  0  0  0  0  0  0  0  0
   11.2318  -16.9652   21.7032 C   0  0  1  0  0  0  0  0  0  0  0  0
   12.5278  -16.2222   21.8244 C   0  0  0  0  0  0  0  0  0  0  0  0
   13.4467  -16.6608   20.7456 C   0  0  0  0  0  0  0  0  0  0  0  0
   13.8995  -15.8319   19.8962 O   0  0  0  0  0  0  0  0  0  0  0  0
   10.3673  -16.6394   22.8791 C   0  0  0  0  0  0  0  0  0  0  0  0
    9.7631  -15.5374   22.9127 O   0  0  0  0  0  0  0  0  0  0  0  0
   13.8613  -17.9803   20.6000 O   0  0  0  0  0  0  0  0  0  0  0  0
    7.5367  -20.7585   26.6852 N   0  0  0  0  0  0  0  0  0  0  0  0
    7.2209  -19.5423   27.3322 C   0  0  0  0  0  0  0  0  0  0  0  0
    6.4759  -19.6099   28.3423 O   0  0  0  0  0  0  0  0  0  0  0  0
    7.7856  -18.3022   26.7750 C   0  0  0  0  0  0  0  0  0  0  0  0
    8.6592  -18.4675   25.5910 C   0  0  0  0  0  0  0  0  0  0  0  0
    9.3527  -17.2390   25.1037 C   0  0  2  0  0  0  0  0  0  0  0  0
   10.1979  -17.5189   23.9602 N   0  0  0  0  0  0  0  0  0  0  0  0
   10.1111  -16.5701   26.1907 C   0  0  0  0  0  0  0  0  0  0  0  0
   11.2216  -17.0284   26.5533 O   0  0  0  0  0  0  0  0  0  0  0  0
    9.4820  -13.4954   28.2890 C   0  0  0  0  0  0  0  0  0  0  0  0
   10.3161  -14.7007   27.8498 C   0  0  2  0  0  0  0  0  0  0  0  0
    9.5835  -15.4023   26.8307 N   0  0  0  0  0  0  0  0  0  0  0  0
   10.5346  -15.5312   29.0605 C   0  0  0  0  0  0  0  0  0  0  0  0
   11.2033  -15.0233   29.9966 O   0  0  0  0  0  0  0  0  0  0  0  0
   10.0559  -16.8096   29.2212 O   0  0  0  0  0  0  0  0  0  0  0  0
  2  1  1  6
  3  2  1  0
  4  3  1  0
  5  4  2  0
  6  7  2  0
  6  2  1  0
  8  4  1  0
  9 10  1  0
 10 12  1  0
 11 10  2  0
 12 13  1  0
 14 13  1  1
 14 16  1  0
 14 15  1  0
 15  6  1  0
 16 17  2  0
 19 18  1  1
 20 19  1  0
 20 16  1  0
 21 19  1  0
 22 21  2  0
 23 21  1  0
M  END
$$$$
