DQA.pdb
     RDKit          3D

 23 22  0  0  1  0  0  0  0  0999 V2000
    9.3840  -17.6611   20.2602 N   0  0  0  0  0  0  0  0  0  0  0  0
    8.5094  -16.5272   20.3664 C   0  0  1  0  0  0  0  0  0  0  0  0
    7.3031  -16.7515   19.5057 C   0  0  0  0  0  0  0  0  0  0  0  0
    7.7209  -16.8152   18.0838 C   0  0  0  0  0  0  0  0  0  0  0  0
    8.5709  -17.6733   17.6905 O   0  0  0  0  0  0  0  0  0  0  0  0
    8.0724  -16.3334   21.7834 C   0  0  0  0  0  0  0  0  0  0  0  0
    6.8582  -16.1197   22.0295 O   0  0  0  0  0  0  0  0  0  0  0  0
    7.2178  -15.9565   17.1122 O   0  0  0  0  0  0  0  0  0  0  0  0
   11.0919  -18.3544   26.9323 N   0  0  0  0  0  0  0  0  0  0  0  0
   10.1483  -17.4802   27.5176 C   0  0  0  0  0  0  0  0  0  0  0  0
   10.1687  -17.3738   28.7699 O   0  0  0  0  0  0  0  0  0  0  0  0
    9.2230  -16.7692   26.6200 C   0  0  0  0  0  0  0  0  0  0  0  0
    9.4182  -17.0097   25.1721 C   0  0  0  0  0  0  0  0  0  0  0  0
    8.5731  -16.1989   24.2469 C   0  0  2  0  0  0  0  0  0  0  0  0
    8.9672  -16.3799   22.8641 N   0  0  0  0  0  0  0  0  0  0  0  0
    8.5650  -14.7639   24.6276 C   0  0  0  0  0  0  0  0  0  0  0  0
    9.6210  -14.0902   24.5524 O   0  0  0  0  0  0  0  0  0  0  0  0
    5.9043  -12.3353   25.7146 C   0  0  0  0  0  0  0  0  0  0  0  0
    7.3542  -12.8197   25.6488 C   0  0  2  0  0  0  0  0  0  0  0  0
    7.3577  -14.1407   25.0811 N   0  0  0  0  0  0  0  0  0  0  0  0
    7.8726  -12.8017   27.0395 C   0  0  0  0  0  0  0  0  0  0  0  0
    8.0275  -13.9102   27.6128 O   0  0  0  0  0  0  0  0  0  0  0  0
    8.1911  -11.6592   27.7341 O   0  0  0  0  0  0  0  0  0  0  0  0
  2  1  1  1
  3  2  1  0
  4  3  1  0
  5  4  2  0
  6  7  2  0
  6  2  1  0
  8  4  1  0
  9 10  1  0
 10 12  1  0
 11 10  2  0
 12 13  1  0
 14 13  1  1
 14 16  1  0
 14 15  1  0
 15  6  1  0
 16 17  2  0
 19 18  1  1
 20 19  1  0
 20 16  1  0
 21 19  1  0
 22 21  2  0
 23 21  1  0
M  END
$$$$
