DQA.pdb
     RDKit          3D

 23 22  0  0  1  0  0  0  0  0999 V2000
    9.4689  -17.4527   20.7745 N   0  0  0  0  0  0  0  0  0  0  0  0
   10.3667  -16.7019   21.6065 C   0  0  1  0  0  0  0  0  0  0  0  0
   10.7860  -15.4577   20.8838 C   0  0  0  0  0  0  0  0  0  0  0  0
   11.8635  -15.7906   19.9200 C   0  0  0  0  0  0  0  0  0  0  0  0
   12.3845  -16.9488   19.8971 O   0  0  0  0  0  0  0  0  0  0  0  0
    9.6988  -16.3229   22.8897 C   0  0  0  0  0  0  0  0  0  0  0  0
    9.0935  -15.2237   22.9675 O   0  0  0  0  0  0  0  0  0  0  0  0
   12.3602  -14.8734   19.0000 O   0  0  0  0  0  0  0  0  0  0  0  0
    6.1438  -20.7957   24.4128 N   0  0  0  0  0  0  0  0  0  0  0  0
    6.8897  -20.0111   25.3213 C   0  0  0  0  0  0  0  0  0  0  0  0
    6.9286  -20.4024   26.5151 O   0  0  0  0  0  0  0  0  0  0  0  0
    7.5565  -18.8064   24.8003 C   0  0  0  0  0  0  0  0  0  0  0  0
    8.2771  -17.9860   25.8002 C   0  0  0  0  0  0  0  0  0  0  0  0
    9.0500  -16.8245   25.2699 C   0  0  2  0  0  0  0  0  0  0  0  0
    9.7173  -17.1486   24.0249 N   0  0  0  0  0  0  0  0  0  0  0  0
   10.0037  -16.2949   26.2770 C   0  0  0  0  0  0  0  0  0  0  0  0
   11.2231  -16.5796   26.1952 O   0  0  0  0  0  0  0  0  0  0  0  0
    9.8669  -13.5292   28.7382 C   0  0  0  0  0  0  0  0  0  0  0  0
   10.4474  -14.8738   28.2950 C   0  0  2  0  0  0  0  0  0  0  0  0
    9.5414  -15.4590   27.3443 N   0  0  0  0  0  0  0  0  0  0  0  0
   10.5914  -15.6998   29.5198 C   0  0  0  0  0  0  0  0  0  0  0  0
    9.8002  -16.6670   29.6607 O   0  0  0  0  0  0  0  0  0  0  0  0
   11.5273  -15.4757   30.5012 O   0  0  0  0  0  0  0  0  0  0  0  0
  2  1  1  6
  3  2  1  0
  4  3  1  0
  5  4  2  0
  6  7  2  0
  6  2  1  0
  8  4  1  0
  9 10  1  0
 10 12  1  0
 11 10  2  0
 12 13  1  0
 14 13  1  1
 14 16  1  0
 14 15  1  0
 15  6  1  0
 16 17  2  0
 19 18  1  1
 20 19  1  0
 20 16  1  0
 21 19  1  0
 22 21  2  0
 23 21  1  0
M  END
$$$$
