DQA.pdb
     RDKit          3D

 23 22  0  0  1  0  0  0  0  0999 V2000
    9.5491  -16.0481   19.5973 N   0  0  0  0  0  0  0  0  0  0  0  0
    8.5780  -16.4285   20.5844 C   0  0  1  0  0  0  0  0  0  0  0  0
    8.4241  -17.9193   20.5770 C   0  0  0  0  0  0  0  0  0  0  0  0
    7.7359  -18.3347   19.3302 C   0  0  0  0  0  0  0  0  0  0  0  0
    8.3909  -18.8020   18.3473 O   0  0  0  0  0  0  0  0  0  0  0  0
    9.0131  -15.9866   21.9451 C   0  0  0  0  0  0  0  0  0  0  0  0
   10.1963  -16.1996   22.3127 O   0  0  0  0  0  0  0  0  0  0  0  0
    6.3585  -18.2401   19.1634 O   0  0  0  0  0  0  0  0  0  0  0  0
    5.6206  -12.3710   25.9902 N   0  0  0  0  0  0  0  0  0  0  0  0
    6.8420  -12.5293   26.6833 C   0  0  0  0  0  0  0  0  0  0  0  0
    6.9836  -11.8747   27.7470 O   0  0  0  0  0  0  0  0  0  0  0  0
    7.8440  -13.4415   26.1078 C   0  0  0  0  0  0  0  0  0  0  0  0
    7.5297  -13.9784   24.7643 C   0  0  0  0  0  0  0  0  0  0  0  0
    8.5426  -14.8963   24.1650 C   0  0  2  0  0  0  0  0  0  0  0  0
    8.1497  -15.3368   22.8415 N   0  0  0  0  0  0  0  0  0  0  0  0
    8.8360  -16.0463   25.0570 C   0  0  0  0  0  0  0  0  0  0  0  0
    7.9905  -16.9631   25.1953 O   0  0  0  0  0  0  0  0  0  0  0  0
   11.7290  -17.8312   26.1070 C   0  0  0  0  0  0  0  0  0  0  0  0
   10.4105  -17.2353   26.6049 C   0  0  2  0  0  0  0  0  0  0  0  0
   10.0803  -16.1176   25.7629 N   0  0  0  0  0  0  0  0  0  0  0  0
   10.6314  -16.8327   28.0164 C   0  0  0  0  0  0  0  0  0  0  0  0
   10.5781  -15.6047   28.2821 O   0  0  0  0  0  0  0  0  0  0  0  0
   10.8883  -17.7104   29.0424 O   0  0  0  0  0  0  0  0  0  0  0  0
  2  1  1  6
  3  2  1  0
  4  3  1  0
  5  4  2  0
  6  7  2  0
  6  2  1  0
  8  4  1  0
  9 10  1  0
 10 12  1  0
 11 10  2  0
 12 13  1  0
 14 13  1  1
 14 16  1  0
 14 15  1  0
 15  6  1  0
 16 17  2  0
 19 18  1  6
 20 19  1  0
 20 16  1  0
 21 19  1  0
 22 21  2  0
 23 21  1  0
M  END
$$$$
