DQA.pdb
     RDKit          3D

 23 22  0  0  1  0  0  0  0  0999 V2000
   12.6363  -16.4935   14.7870 N   0  0  0  0  0  0  0  0  0  0  0  0
   12.6195  -15.9709   16.1244 C   0  0  1  0  0  0  0  0  0  0  0  0
   11.7627  -16.8477   16.9866 C   0  0  0  0  0  0  0  0  0  0  0  0
   10.3429  -16.6917   16.5860 C   0  0  0  0  0  0  0  0  0  0  0  0
    9.7866  -17.5314   15.8121 O   0  0  0  0  0  0  0  0  0  0  0  0
   14.0038  -15.9296   16.6884 C   0  0  0  0  0  0  0  0  0  0  0  0
   14.7398  -16.9440   16.5888 O   0  0  0  0  0  0  0  0  0  0  0  0
    9.5486  -15.6375   17.0242 O   0  0  0  0  0  0  0  0  0  0  0  0
   17.4526  -10.7789   16.7257 N   0  0  0  0  0  0  0  0  0  0  0  0
   18.3490  -11.6780   17.3465 C   0  0  0  0  0  0  0  0  0  0  0  0
   19.4945  -11.2413   17.6243 O   0  0  0  0  0  0  0  0  0  0  0  0
   17.8728  -13.0447   17.6162 C   0  0  0  0  0  0  0  0  0  0  0  0
   16.4470  -13.3018   17.3109 C   0  0  0  0  0  0  0  0  0  0  0  0
   15.9196  -14.6439   17.6958 C   0  0  2  0  0  0  0  0  0  0  0  0
   14.5250  -14.7959   17.3319 N   0  0  0  0  0  0  0  0  0  0  0  0
   16.1405  -14.9272   19.1363 C   0  0  0  0  0  0  0  0  0  0  0  0
   15.4267  -14.3649   20.0018 O   0  0  0  0  0  0  0  0  0  0  0  0
   18.3058  -17.3434   21.0343 C   0  0  0  0  0  0  0  0  0  0  0  0
   17.4618  -16.0710   20.9349 C   0  0  2  0  0  0  0  0  0  0  0  0
   17.1650  -15.8400   19.5471 N   0  0  0  0  0  0  0  0  0  0  0  0
   18.2700  -14.9767   21.5288 C   0  0  0  0  0  0  0  0  0  0  0  0
   18.7740  -14.1371   20.7400 O   0  0  0  0  0  0  0  0  0  0  0  0
   18.4998  -14.8249   22.8754 O   0  0  0  0  0  0  0  0  0  0  0  0
  2  1  1  6
  3  2  1  0
  4  3  1  0
  5  4  2  0
  6  7  2  0
  6  2  1  0
  8  4  1  0
  9 10  1  0
 10 12  1  0
 11 10  2  0
 12 13  1  0
 14 13  1  1
 14 16  1  0
 14 15  1  0
 15  6  1  0
 16 17  2  0
 19 18  1  6
 20 19  1  0
 20 16  1  0
 21 19  1  0
 22 21  2  0
 23 21  1  0
M  END
$$$$
