DQA.pdb
     RDKit          3D

 23 22  0  0  1  0  0  0  0  0999 V2000
    9.6090  -16.2751   15.4857 N   0  0  0  0  0  0  0  0  0  0  0  0
    9.2247  -15.3614   16.5246 C   0  0  1  0  0  0  0  0  0  0  0  0
    7.8970  -14.7555   16.1833 C   0  0  0  0  0  0  0  0  0  0  0  0
    7.8266  -14.5221   14.7201 C   0  0  0  0  0  0  0  0  0  0  0  0
    8.8292  -14.7482   13.9736 O   0  0  0  0  0  0  0  0  0  0  0  0
    9.1171  -16.0732   17.8353 C   0  0  0  0  0  0  0  0  0  0  0  0
    8.0833  -16.7418   18.0899 O   0  0  0  0  0  0  0  0  0  0  0  0
    6.6813  -14.0508   14.0872 O   0  0  0  0  0  0  0  0  0  0  0  0
   13.6950  -18.4005   19.2584 N   0  0  0  0  0  0  0  0  0  0  0  0
   12.7106  -18.7677   18.3132 C   0  0  0  0  0  0  0  0  0  0  0  0
   13.1152  -19.2592   17.2294 O   0  0  0  0  0  0  0  0  0  0  0  0
   11.2998  -18.5465   18.6711 C   0  0  0  0  0  0  0  0  0  0  0  0
   11.0603  -17.9361   19.9986 C   0  0  0  0  0  0  0  0  0  0  0  0
   10.1031  -16.7916   20.0376 C   0  0  2  0  0  0  0  0  0  0  0  0
   10.1305  -16.0282   18.8060 N   0  0  0  0  0  0  0  0  0  0  0  0
   10.3329  -15.9248   21.2208 C   0  0  0  0  0  0  0  0  0  0  0  0
   11.3674  -15.2176   21.2875 O   0  0  0  0  0  0  0  0  0  0  0  0
    8.2783  -14.7717   24.1091 C   0  0  0  0  0  0  0  0  0  0  0  0
    9.6289  -15.1571   23.5020 C   0  0  2  0  0  0  0  0  0  0  0  0
    9.3803  -15.8893   22.2898 N   0  0  0  0  0  0  0  0  0  0  0  0
   10.3356  -15.9742   24.5200 C   0  0  0  0  0  0  0  0  0  0  0  0
   10.7391  -15.3852   25.5551 O   0  0  0  0  0  0  0  0  0  0  0  0
   10.5745  -17.3227   24.4030 O   0  0  0  0  0  0  0  0  0  0  0  0
  2  1  1  6
  3  2  1  0
  4  3  1  0
  5  4  2  0
  6  7  2  0
  6  2  1  0
  8  4  1  0
  9 10  1  0
 10 12  1  0
 11 10  2  0
 12 13  1  0
 14 13  1  6
 14 16  1  0
 14 15  1  0
 15  6  1  0
 16 17  2  0
 19 18  1  1
 20 19  1  0
 20 16  1  0
 21 19  1  0
 22 21  2  0
 23 21  1  0
M  END
$$$$
