DQA.pdb
     RDKit          3D

 23 22  0  0  1  0  0  0  0  0999 V2000
    8.7711  -17.4267   19.8075 N   0  0  0  0  0  0  0  0  0  0  0  0
    9.5683  -16.7981   20.8230 C   0  0  1  0  0  0  0  0  0  0  0  0
   10.2000  -15.5612   20.2598 C   0  0  0  0  0  0  0  0  0  0  0  0
   11.3626  -15.9430   19.4212 C   0  0  0  0  0  0  0  0  0  0  0  0
   12.2145  -16.7905   19.8329 O   0  0  0  0  0  0  0  0  0  0  0  0
    8.7218  -16.4256   21.9981 C   0  0  0  0  0  0  0  0  0  0  0  0
    7.8043  -15.5786   21.8523 O   0  0  0  0  0  0  0  0  0  0  0  0
   11.5875  -15.4076   18.1575 O   0  0  0  0  0  0  0  0  0  0  0  0
    8.1633  -19.9569   27.2364 N   0  0  0  0  0  0  0  0  0  0  0  0
    7.1963  -18.9513   27.4626 C   0  0  0  0  0  0  0  0  0  0  0  0
    6.4320  -19.1059   28.4484 O   0  0  0  0  0  0  0  0  0  0  0  0
    7.1617  -17.8112   26.5318 C   0  0  0  0  0  0  0  0  0  0  0  0
    8.0491  -17.9165   25.3513 C   0  0  0  0  0  0  0  0  0  0  0  0
    8.0007  -16.7811   24.3838 C   0  0  2  0  0  0  0  0  0  0  0  0
    8.9076  -16.9856   23.2721 N   0  0  0  0  0  0  0  0  0  0  0  0
    8.2456  -15.4791   25.0540 C   0  0  0  0  0  0  0  0  0  0  0  0
    9.4161  -15.1378   25.3505 O   0  0  0  0  0  0  0  0  0  0  0  0
    6.0017  -12.6331   26.1082 C   0  0  0  0  0  0  0  0  0  0  0  0
    7.3570  -13.3360   26.0061 C   0  0  2  0  0  0  0  0  0  0  0  0
    7.1529  -14.6070   25.3656 N   0  0  0  0  0  0  0  0  0  0  0  0
    7.8683  -13.4783   27.3923 C   0  0  0  0  0  0  0  0  0  0  0  0
    7.8731  -14.6328   27.8907 O   0  0  0  0  0  0  0  0  0  0  0  0
    8.3329  -12.4362   28.1586 O   0  0  0  0  0  0  0  0  0  0  0  0
  2  1  1  6
  3  2  1  0
  4  3  1  0
  5  4  2  0
  6  7  2  0
  6  2  1  0
  8  4  1  0
  9 10  1  0
 10 12  1  0
 11 10  2  0
 12 13  1  0
 14 13  1  1
 14 16  1  0
 14 15  1  0
 15  6  1  0
 16 17  2  0
 19 18  1  1
 20 19  1  0
 20 16  1  0
 21 19  1  0
 22 21  2  0
 23 21  1  0
M  END
$$$$
