DQA.pdb
     RDKit          3D

 23 22  0  0  1  0  0  0  0  0999 V2000
   18.5981  -17.6931   16.0310 N   0  0  0  0  0  0  0  0  0  0  0  0
   18.4948  -16.8575   17.1942 C   0  0  1  0  0  0  0  0  0  0  0  0
   18.2732  -15.4387   16.7650 C   0  0  0  0  0  0  0  0  0  0  0  0
   19.5490  -14.8746   16.2602 C   0  0  0  0  0  0  0  0  0  0  0  0
   20.6660  -15.2909   16.6986 O   0  0  0  0  0  0  0  0  0  0  0  0
   17.3519  -17.2946   18.0538 C   0  0  0  0  0  0  0  0  0  0  0  0
   16.1850  -17.2687   17.5867 O   0  0  0  0  0  0  0  0  0  0  0  0
   19.6001  -13.8747   15.2948 O   0  0  0  0  0  0  0  0  0  0  0  0
   14.6407  -21.1960   21.2744 N   0  0  0  0  0  0  0  0  0  0  0  0
   15.6073  -21.5574   20.3088 C   0  0  0  0  0  0  0  0  0  0  0  0
   15.4089  -22.6239   19.6740 O   0  0  0  0  0  0  0  0  0  0  0  0
   16.7614  -20.6621   20.1253 C   0  0  0  0  0  0  0  0  0  0  0  0
   16.7583  -19.4306   20.9473 C   0  0  0  0  0  0  0  0  0  0  0  0
   16.4369  -18.1597   20.2338 C   0  0  2  0  0  0  0  0  0  0  0  0
   17.5251  -17.7378   19.3747 N   0  0  0  0  0  0  0  0  0  0  0  0
   16.0413  -17.0854   21.1790 C   0  0  0  0  0  0  0  0  0  0  0  0
   16.9217  -16.3844   21.7343 O   0  0  0  0  0  0  0  0  0  0  0  0
   12.7150  -15.8369   22.4555 C   0  0  0  0  0  0  0  0  0  0  0  0
   14.2419  -15.8004   22.3621 C   0  0  2  0  0  0  0  0  0  0  0  0
   14.6587  -16.8420   21.4629 N   0  0  0  0  0  0  0  0  0  0  0  0
   14.7576  -16.0038   23.7391 C   0  0  0  0  0  0  0  0  0  0  0  0
   15.1234  -17.1652   24.0534 O   0  0  0  0  0  0  0  0  0  0  0  0
   14.8594  -15.0109   24.6840 O   0  0  0  0  0  0  0  0  0  0  0  0
  2  1  1  6
  3  2  1  0
  4  3  1  0
  5  4  2  0
  6  7  2  0
  6  2  1  0
  8  4  1  0
  9 10  1  0
 10 12  1  0
 11 10  2  0
 12 13  1  0
 14 13  1  1
 14 16  1  0
 14 15  1  0
 15  6  1  0
 16 17  2  0
 19 18  1  1
 20 19  1  0
 20 16  1  0
 21 19  1  0
 22 21  2  0
 23 21  1  0
M  END
$$$$
