PEI.pdb
     RDKit          3D

 25 25  0  0  1  0  0  0  0  0999 V2000
   26.8557  -19.1393  -17.3496 N   0  0  0  0  0  0  0  0  0  0  0  0
   28.1162  -18.7965  -17.9976 C   0  0  0  0  0  0  0  0  0  0  0  0
   28.5272  -17.4400  -17.4631 C   0  0  0  0  0  0  0  0  0  0  0  0
   27.3798  -17.0749  -16.5089 C   0  0  0  0  0  0  0  0  0  0  0  0
   26.9501  -18.4571  -16.0752 C   0  0  1  0  0  0  0  0  0  0  0  0
   25.6351  -18.4943  -15.4077 C   0  0  0  0  0  0  0  0  0  0  0  0
   25.5729  -18.0066  -14.2552 O   0  0  0  0  0  0  0  0  0  0  0  0
   24.4777  -19.0526  -16.0229 N   0  0  0  0  0  0  0  0  0  0  0  0
   23.1657  -19.0802  -15.5005 C   0  0  1  0  0  0  0  0  0  0  0  0
   22.0133  -19.0294  -16.4071 C   0  0  0  0  0  0  0  0  0  0  0  0
   20.6506  -19.0960  -15.7943 C   0  0  0  0  0  0  0  0  0  0  0  0
   19.6473  -19.9051  -16.4375 C   0  0  0  0  0  0  0  0  0  0  0  0
   19.2463  -20.9908  -15.9982 O   0  0  0  0  0  0  0  0  0  0  0  0
   23.0298  -20.1251  -14.4070 C   0  0  0  0  0  0  0  0  0  0  0  0
   23.0715  -21.3544  -14.6622 O   0  0  0  0  0  0  0  0  0  0  0  0
   19.0711  -19.4647  -17.6335 O   0  0  0  0  0  0  0  0  0  0  0  0
   24.4421  -21.3776   -8.6155 C   0  0  0  0  0  0  0  0  0  0  0  0
   23.4787  -21.6000   -9.7612 C   0  0  0  0  0  0  0  0  0  0  0  0
   23.5670  -20.5292  -10.8158 C   0  0  2  0  0  0  0  0  0  0  0  0
   23.0974  -19.2357  -10.1843 C   0  0  0  0  0  0  0  0  0  0  0  0
   22.7261  -20.8003  -12.0097 C   0  0  2  0  0  0  0  0  0  0  0  0
   22.8505  -19.7923  -13.0457 N   0  0  0  0  0  0  0  0  0  0  0  0
   21.3190  -20.9886  -11.5872 C   0  0  0  0  0  0  0  0  0  0  0  0
   21.0180  -22.0090  -10.9330 O   0  0  0  0  0  0  0  0  0  0  0  0
   20.3470  -20.0711  -11.8984 O   0  0  0  0  0  0  0  0  0  0  0  0
  1  2  1  0
  2  3  1  0
  4  3  1  0
  5  1  1  0
  5  4  1  0
  5  6  1  6
  7  6  2  0
  8  6  1  0
  9 14  1  0
  9  8  1  0
  9 10  1  6
 11 10  1  0
 12 16  1  0
 12 11  1  0
 13 12  2  0
 14 22  1  0
 15 14  2  0
 17 18  1  0
 19 21  1  0
 19 18  1  0
 19 20  1  1
 21 23  1  0
 21 22  1  6
 23 24  2  0
 23 25  1  0
M  END
$$$$
