PEI.pdb
     RDKit          3D

 25 25  0  0  1  0  0  0  0  0999 V2000
   16.3497  -10.7671  -17.0686 N   0  0  0  0  0  0  0  0  0  0  0  0
   15.8161  -12.0329  -17.5574 C   0  0  0  0  0  0  0  0  0  0  0  0
   16.8653  -12.6232  -18.4768 C   0  0  0  0  0  0  0  0  0  0  0  0
   17.9798  -11.5659  -18.4642 C   0  0  0  0  0  0  0  0  0  0  0  0
   17.7807  -10.9920  -17.0806 C   0  0  1  0  0  0  0  0  0  0  0  0
   18.4742   -9.7092  -16.8581 C   0  0  0  0  0  0  0  0  0  0  0  0
   19.7225   -9.7520  -16.7589 O   0  0  0  0  0  0  0  0  0  0  0  0
   17.7802   -8.4690  -16.7569 N   0  0  0  0  0  0  0  0  0  0  0  0
   18.3494   -7.1851  -16.6070 C   0  0  1  0  0  0  0  0  0  0  0  0
   17.5658   -5.9909  -16.9425 C   0  0  0  0  0  0  0  0  0  0  0  0
   18.2134   -4.6596  -16.7311 C   0  0  0  0  0  0  0  0  0  0  0  0
   17.4421   -3.4714  -16.9930 C   0  0  0  0  0  0  0  0  0  0  0  0
   16.2798   -3.4796  -17.4189 O   0  0  0  0  0  0  0  0  0  0  0  0
   19.1017   -7.0657  -15.2933 C   0  0  0  0  0  0  0  0  0  0  0  0
   18.5321   -7.2516  -14.1892 O   0  0  0  0  0  0  0  0  0  0  0  0
   18.0132   -2.2156  -16.7620 O   0  0  0  0  0  0  0  0  0  0  0  0
   22.5612   -9.3384  -11.8446 C   0  0  0  0  0  0  0  0  0  0  0  0
   22.9125   -8.0991  -12.6390 C   0  0  0  0  0  0  0  0  0  0  0  0
   22.1459   -7.9957  -13.9307 C   0  0  2  0  0  0  0  0  0  0  0  0
   23.1605   -7.8608  -15.0464 C   0  0  0  0  0  0  0  0  0  0  0  0
   21.2300   -6.8278  -13.9861 C   0  0  2  0  0  0  0  0  0  0  0  0
   20.4753   -6.7430  -15.2222 N   0  0  0  0  0  0  0  0  0  0  0  0
   21.9968   -5.5888  -13.7200 C   0  0  0  0  0  0  0  0  0  0  0  0
   22.4748   -5.4095  -12.5802 O   0  0  0  0  0  0  0  0  0  0  0  0
   22.1905   -4.6413  -14.6937 O   0  0  0  0  0  0  0  0  0  0  0  0
  1  2  1  0
  2  3  1  0
  4  3  1  0
  5  1  1  0
  5  4  1  0
  5  6  1  6
  7  6  2  0
  8  6  1  0
  9 14  1  0
  9  8  1  0
  9 10  1  1
 11 10  1  0
 12 16  1  0
 12 11  1  0
 13 12  2  0
 14 22  1  0
 15 14  2  0
 17 18  1  0
 19 21  1  0
 19 18  1  0
 19 20  1  6
 21 23  1  0
 21 22  1  6
 23 24  2  0
 23 25  1  0
M  END
$$$$
