PEI.pdb
     RDKit          3D

 25 25  0  0  1  0  0  0  0  0999 V2000
   27.6486  -21.7271  -16.9682 N   0  0  0  0  0  0  0  0  0  0  0  0
   28.3946  -21.7705  -18.2203 C   0  0  0  0  0  0  0  0  0  0  0  0
   29.0213  -20.4035  -18.4027 C   0  0  0  0  0  0  0  0  0  0  0  0
   28.5295  -19.6236  -17.1739 C   0  0  0  0  0  0  0  0  0  0  0  0
   28.3857  -20.7569  -16.1848 C   0  0  1  0  0  0  0  0  0  0  0  0
   27.6027  -20.4089  -14.9839 C   0  0  0  0  0  0  0  0  0  0  0  0
   28.0687  -19.5088  -14.2474 O   0  0  0  0  0  0  0  0  0  0  0  0
   26.3739  -21.0513  -14.6563 N   0  0  0  0  0  0  0  0  0  0  0  0
   25.3865  -20.5913  -13.7572 C   0  0  1  0  0  0  0  0  0  0  0  0
   23.9755  -20.5807  -14.1589 C   0  0  0  0  0  0  0  0  0  0  0  0
   22.9785  -20.0825  -13.1617 C   0  0  0  0  0  0  0  0  0  0  0  0
   21.5823  -20.1072  -13.5155 C   0  0  0  0  0  0  0  0  0  0  0  0
   20.6603  -20.1846  -12.6930 O   0  0  0  0  0  0  0  0  0  0  0  0
   25.6138  -21.1416  -12.3602 C   0  0  0  0  0  0  0  0  0  0  0  0
   25.6885  -22.3767  -12.1433 O   0  0  0  0  0  0  0  0  0  0  0  0
   21.2127  -20.0411  -14.8629 O   0  0  0  0  0  0  0  0  0  0  0  0
   28.1137  -19.7957   -6.8812 C   0  0  0  0  0  0  0  0  0  0  0  0
   27.1930  -20.6522   -7.7231 C   0  0  0  0  0  0  0  0  0  0  0  0
   26.8589  -20.0227   -9.0493 C   0  0  2  0  0  0  0  0  0  0  0  0
   26.1632  -18.7090   -8.7614 C   0  0  0  0  0  0  0  0  0  0  0  0
   25.9616  -20.8535   -9.8922 C   0  0  2  0  0  0  0  0  0  0  0  0
   25.7562  -20.3148  -11.2235 N   0  0  0  0  0  0  0  0  0  0  0  0
   24.6812  -21.0716   -9.1801 C   0  0  0  0  0  0  0  0  0  0  0  0
   24.6835  -21.7490   -8.1309 O   0  0  0  0  0  0  0  0  0  0  0  0
   23.5017  -20.5483   -9.6471 O   0  0  0  0  0  0  0  0  0  0  0  0
  1  2  1  0
  2  3  1  0
  4  3  1  0
  5  1  1  0
  5  4  1  0
  5  6  1  1
  7  6  2  0
  8  6  1  0
  9 14  1  0
  9  8  1  0
  9 10  1  6
 11 10  1  0
 12 16  1  0
 12 11  1  0
 13 12  2  0
 14 22  1  0
 15 14  2  0
 17 18  1  0
 19 21  1  0
 19 18  1  0
 19 20  1  1
 21 23  1  0
 21 22  1  6
 23 24  2  0
 23 25  1  0
M  END
$$$$
