PEI.pdb
     RDKit          3D

 25 25  0  0  1  0  0  0  0  0999 V2000
   18.0615  -12.3599  -15.4289 N   0  0  0  0  0  0  0  0  0  0  0  0
   17.8133  -13.7665  -15.7217 C   0  0  0  0  0  0  0  0  0  0  0  0
   17.9802  -13.9372  -17.2175 C   0  0  0  0  0  0  0  0  0  0  0  0
   18.3046  -12.5153  -17.7004 C   0  0  0  0  0  0  0  0  0  0  0  0
   18.9914  -11.9711  -16.4693 C   0  0  1  0  0  0  0  0  0  0  0  0
   19.1378  -10.5032  -16.4639 C   0  0  0  0  0  0  0  0  0  0  0  0
   19.9964  -10.0186  -17.2370 O   0  0  0  0  0  0  0  0  0  0  0  0
   18.3528   -9.6567  -15.6289 N   0  0  0  0  0  0  0  0  0  0  0  0
   18.2770   -8.2471  -15.6771 C   0  0  1  0  0  0  0  0  0  0  0  0
   17.0152   -7.5686  -15.3610 C   0  0  0  0  0  0  0  0  0  0  0  0
   16.9883   -6.0773  -15.4702 C   0  0  0  0  0  0  0  0  0  0  0  0
   15.7960   -5.3802  -15.0607 C   0  0  0  0  0  0  0  0  0  0  0  0
   14.6543   -5.6832  -15.4312 O   0  0  0  0  0  0  0  0  0  0  0  0
   19.4887   -7.6074  -15.0222 C   0  0  0  0  0  0  0  0  0  0  0  0
   19.8966   -7.9741  -13.8921 O   0  0  0  0  0  0  0  0  0  0  0  0
   15.9010   -4.2894  -14.1914 O   0  0  0  0  0  0  0  0  0  0  0  0
   25.0576   -5.8357  -16.5546 C   0  0  0  0  0  0  0  0  0  0  0  0
   23.9432   -5.7601  -15.5334 C   0  0  0  0  0  0  0  0  0  0  0  0
   22.6015   -6.1369  -16.1031 C   0  0  2  0  0  0  0  0  0  0  0  0
   22.2769   -5.1348  -17.1907 C   0  0  0  0  0  0  0  0  0  0  0  0
   21.5039   -6.1151  -15.1027 C   0  0  2  0  0  0  0  0  0  0  0  0
   20.2316   -6.5708  -15.6301 N   0  0  0  0  0  0  0  0  0  0  0  0
   21.4045   -4.7604  -14.5118 C   0  0  0  0  0  0  0  0  0  0  0  0
   22.3173   -4.3641  -13.7573 O   0  0  0  0  0  0  0  0  0  0  0  0
   20.3371   -3.9390  -14.7749 O   0  0  0  0  0  0  0  0  0  0  0  0
  1  2  1  0
  2  3  1  0
  4  3  1  0
  5  1  1  0
  5  4  1  0
  5  6  1  6
  7  6  2  0
  8  6  1  0
  9 14  1  0
  9  8  1  0
  9 10  1  1
 11 10  1  0
 12 16  1  0
 12 11  1  0
 13 12  2  0
 14 22  1  0
 15 14  2  0
 17 18  1  0
 19 21  1  0
 19 18  1  0
 19 20  1  6
 21 23  1  0
 21 22  1  6
 23 24  2  0
 23 25  1  0
M  END
$$$$
