PEI.pdb
     RDKit          3D

 25 25  0  0  1  0  0  0  0  0999 V2000
   18.4514  -10.4363  -18.0241 N   0  0  0  0  0  0  0  0  0  0  0  0
   17.3368  -11.2743  -18.4502 C   0  0  0  0  0  0  0  0  0  0  0  0
   16.9846  -12.1632  -17.2753 C   0  0  0  0  0  0  0  0  0  0  0  0
   18.0113  -11.7579  -16.2067 C   0  0  0  0  0  0  0  0  0  0  0  0
   18.2393  -10.3158  -16.5962 C   0  0  1  0  0  0  0  0  0  0  0  0
   19.4340   -9.7096  -15.9788 C   0  0  0  0  0  0  0  0  0  0  0  0
   19.3965   -9.5228  -14.7405 O   0  0  0  0  0  0  0  0  0  0  0  0
   20.5865   -9.3454  -16.7331 N   0  0  0  0  0  0  0  0  0  0  0  0
   21.7803   -8.7734  -16.2404 C   0  0  1  0  0  0  0  0  0  0  0  0
   23.0782   -9.2329  -16.7472 C   0  0  0  0  0  0  0  0  0  0  0  0
   23.2694   -9.2583  -18.2302 C   0  0  0  0  0  0  0  0  0  0  0  0
   24.5004   -9.7918  -18.7549 C   0  0  0  0  0  0  0  0  0  0  0  0
   25.4076  -10.2590  -18.0540 O   0  0  0  0  0  0  0  0  0  0  0  0
   21.6687   -7.2620  -16.1447 C   0  0  0  0  0  0  0  0  0  0  0  0
   21.5467   -6.5447  -17.1687 O   0  0  0  0  0  0  0  0  0  0  0  0
   24.7142   -9.7967  -20.1372 O   0  0  0  0  0  0  0  0  0  0  0  0
   18.4192   -2.8309  -14.7657 C   0  0  0  0  0  0  0  0  0  0  0  0
   19.8776   -3.2330  -14.7258 C   0  0  0  0  0  0  0  0  0  0  0  0
   20.0800   -4.7161  -14.8878 C   0  0  2  0  0  0  0  0  0  0  0  0
   19.3378   -5.3977  -13.7578 C   0  0  0  0  0  0  0  0  0  0  0  0
   21.5049   -5.1311  -14.8304 C   0  0  2  0  0  0  0  0  0  0  0  0
   21.6928   -6.5671  -14.9148 N   0  0  0  0  0  0  0  0  0  0  0  0
   22.1342   -4.5612  -13.6166 C   0  0  0  0  0  0  0  0  0  0  0  0
   22.4049   -5.3227  -12.6646 O   0  0  0  0  0  0  0  0  0  0  0  0
   22.4229   -3.2232  -13.5184 O   0  0  0  0  0  0  0  0  0  0  0  0
  1  2  1  0
  2  3  1  0
  4  3  1  0
  5  1  1  0
  5  4  1  0
  5  6  1  1
  7  6  2  0
  8  6  1  0
  9 14  1  0
  9  8  1  0
  9 10  1  6
 11 10  1  0
 12 16  1  0
 12 11  1  0
 13 12  2  0
 14 22  1  0
 15 14  2  0
 17 18  1  0
 19 21  1  0
 19 18  1  0
 19 20  1  1
 21 23  1  0
 21 22  1  1
 23 24  2  0
 23 25  1  0
M  END
$$$$
