PEI.pdb
     RDKit          3D

 25 25  0  0  1  0  0  0  0  0999 V2000
   19.7533  -12.9693  -16.7376 N   0  0  0  0  0  0  0  0  0  0  0  0
   19.8729  -14.3891  -17.0474 C   0  0  0  0  0  0  0  0  0  0  0  0
   19.9304  -14.5033  -18.5568 C   0  0  0  0  0  0  0  0  0  0  0  0
   19.8022  -13.0460  -19.0256 C   0  0  0  0  0  0  0  0  0  0  0  0
   20.4322  -12.3363  -17.8497 C   0  0  1  0  0  0  0  0  0  0  0  0
   20.1698  -10.8851  -17.8144 C   0  0  0  0  0  0  0  0  0  0  0  0
   20.7486  -10.1855  -18.6777 O   0  0  0  0  0  0  0  0  0  0  0  0
   19.3046  -10.2848  -16.8547 N   0  0  0  0  0  0  0  0  0  0  0  0
   18.9071   -8.9307  -16.7966 C   0  0  1  0  0  0  0  0  0  0  0  0
   17.4852   -8.5871  -16.6843 C   0  0  0  0  0  0  0  0  0  0  0  0
   17.1335   -7.1386  -16.5632 C   0  0  0  0  0  0  0  0  0  0  0  0
   16.5283   -6.4821  -17.6936 C   0  0  0  0  0  0  0  0  0  0  0  0
   15.9434   -7.0762  -18.6087 O   0  0  0  0  0  0  0  0  0  0  0  0
   19.7979   -8.1346  -15.8591 C   0  0  0  0  0  0  0  0  0  0  0  0
   19.9640   -8.4751  -14.6614 O   0  0  0  0  0  0  0  0  0  0  0  0
   16.5880   -5.0881  -17.7926 O   0  0  0  0  0  0  0  0  0  0  0  0
   24.7724   -6.8729  -17.1189 C   0  0  0  0  0  0  0  0  0  0  0  0
   23.4348   -7.1921  -16.4869 C   0  0  0  0  0  0  0  0  0  0  0  0
   22.7156   -5.9664  -15.9898 C   0  0  2  0  0  0  0  0  0  0  0  0
   23.5962   -5.3227  -14.9397 C   0  0  0  0  0  0  0  0  0  0  0  0
   21.3945   -6.2600  -15.3778 C   0  0  2  0  0  0  0  0  0  0  0  0
   20.4927   -6.9727  -16.2630 N   0  0  0  0  0  0  0  0  0  0  0  0
   20.7959   -5.0023  -14.8739 C   0  0  0  0  0  0  0  0  0  0  0  0
   19.9300   -4.4277  -15.5666 O   0  0  0  0  0  0  0  0  0  0  0  0
   21.1714   -4.4602  -13.6705 O   0  0  0  0  0  0  0  0  0  0  0  0
  1  2  1  0
  2  3  1  0
  4  3  1  0
  5  1  1  0
  5  4  1  0
  5  6  1  6
  7  6  2  0
  8  6  1  0
  9 14  1  0
  9  8  1  0
  9 10  1  1
 11 10  1  0
 12 16  1  0
 12 11  1  0
 13 12  2  0
 14 22  1  0
 15 14  2  0
 17 18  1  0
 19 21  1  0
 19 18  1  0
 19 20  1  1
 21 23  1  0
 21 22  1  6
 23 24  2  0
 23 25  1  0
M  END
$$$$
