PEI.pdb
     RDKit          3D

 25 25  0  0  1  0  0  0  0  0999 V2000
   17.8929  -12.1109  -18.0784 N   0  0  0  0  0  0  0  0  0  0  0  0
   17.4800  -13.3498  -18.7271 C   0  0  0  0  0  0  0  0  0  0  0  0
   18.0587  -13.3236  -20.1268 C   0  0  0  0  0  0  0  0  0  0  0  0
   18.7819  -11.9694  -20.1837 C   0  0  0  0  0  0  0  0  0  0  0  0
   19.1521  -11.8088  -18.7276 C   0  0  1  0  0  0  0  0  0  0  0  0
   19.5693  -10.4418  -18.3622 C   0  0  0  0  0  0  0  0  0  0  0  0
   20.7873  -10.1727  -18.4804 O   0  0  0  0  0  0  0  0  0  0  0  0
   18.6506   -9.4582  -17.8948 N   0  0  0  0  0  0  0  0  0  0  0  0
   18.9311   -8.1073  -17.5925 C   0  0  1  0  0  0  0  0  0  0  0  0
   18.0031   -7.0524  -18.0152 C   0  0  0  0  0  0  0  0  0  0  0  0
   18.3764   -5.6389  -17.7001 C   0  0  0  0  0  0  0  0  0  0  0  0
   17.4917   -4.5842  -18.1244 C   0  0  0  0  0  0  0  0  0  0  0  0
   17.0255   -4.4884  -19.2672 O   0  0  0  0  0  0  0  0  0  0  0  0
   19.4127   -7.9515  -16.1607 C   0  0  0  0  0  0  0  0  0  0  0  0
   18.6424   -8.1275  -15.1842 O   0  0  0  0  0  0  0  0  0  0  0  0
   17.1174   -3.5918  -17.2125 O   0  0  0  0  0  0  0  0  0  0  0  0
   24.0373  -10.0691  -14.2971 C   0  0  0  0  0  0  0  0  0  0  0  0
   23.2553   -8.8638  -14.7723 C   0  0  0  0  0  0  0  0  0  0  0  0
   21.9885   -8.6427  -13.9893 C   0  0  2  0  0  0  0  0  0  0  0  0
   21.1429   -9.8896  -14.1399 C   0  0  0  0  0  0  0  0  0  0  0  0
   21.1950   -7.4785  -14.4593 C   0  0  2  0  0  0  0  0  0  0  0  0
   20.7420   -7.6037  -15.8319 N   0  0  0  0  0  0  0  0  0  0  0  0
   21.9714   -6.2356  -14.2442 C   0  0  0  0  0  0  0  0  0  0  0  0
   22.3513   -5.5831  -15.2390 O   0  0  0  0  0  0  0  0  0  0  0  0
   22.2793   -5.7906  -12.9831 O   0  0  0  0  0  0  0  0  0  0  0  0
  1  2  1  0
  2  3  1  0
  4  3  1  0
  5  1  1  0
  5  4  1  0
  5  6  1  6
  7  6  2  0
  8  6  1  0
  9 14  1  0
  9  8  1  0
  9 10  1  1
 11 10  1  0
 12 16  1  0
 12 11  1  0
 13 12  2  0
 14 22  1  0
 15 14  2  0
 17 18  1  0
 19 21  1  0
 19 18  1  0
 19 20  1  6
 21 23  1  0
 21 22  1  6
 23 24  2  0
 23 25  1  0
M  END
$$$$
