PEI.pdb
     RDKit          3D

 25 25  0  0  1  0  0  0  0  0999 V2000
   14.0179  -12.1317  -14.4880 N   0  0  0  0  0  0  0  0  0  0  0  0
   13.4370  -13.3279  -15.0862 C   0  0  0  0  0  0  0  0  0  0  0  0
   14.1727  -14.5129  -14.4954 C   0  0  0  0  0  0  0  0  0  0  0  0
   15.2050  -13.8584  -13.5647 C   0  0  0  0  0  0  0  0  0  0  0  0
   14.4583  -12.5994  -13.1897 C   0  0  1  0  0  0  0  0  0  0  0  0
   15.3034  -11.5650  -12.5636 C   0  0  0  0  0  0  0  0  0  0  0  0
   15.8045  -11.8435  -11.4495 O   0  0  0  0  0  0  0  0  0  0  0  0
   15.5522  -10.3030  -13.1763 N   0  0  0  0  0  0  0  0  0  0  0  0
   16.3794   -9.2679  -12.6871 C   0  0  1  0  0  0  0  0  0  0  0  0
   17.4235   -8.6955  -13.5443 C   0  0  0  0  0  0  0  0  0  0  0  0
   18.2097   -7.5461  -12.9989 C   0  0  0  0  0  0  0  0  0  0  0  0
   19.1722   -6.9038  -13.8570 C   0  0  0  0  0  0  0  0  0  0  0  0
   19.8677   -5.9377  -13.5172 O   0  0  0  0  0  0  0  0  0  0  0  0
   15.5703   -8.2229  -11.9390 C   0  0  0  0  0  0  0  0  0  0  0  0
   14.6871   -7.5388  -12.5134 O   0  0  0  0  0  0  0  0  0  0  0  0
   19.3558   -7.3773  -15.1603 O   0  0  0  0  0  0  0  0  0  0  0  0
   12.4918   -9.0248   -7.8480 C   0  0  0  0  0  0  0  0  0  0  0  0
   13.2080   -8.4665   -9.0586 C   0  0  0  0  0  0  0  0  0  0  0  0
   14.2396   -7.4298   -8.7012 C   0  0  2  0  0  0  0  0  0  0  0  0
   13.5075   -6.2668   -8.0658 C   0  0  0  0  0  0  0  0  0  0  0  0
   15.0013   -6.9217   -9.8707 C   0  0  2  0  0  0  0  0  0  0  0  0
   15.7512   -7.9520  -10.5643 N   0  0  0  0  0  0  0  0  0  0  0  0
   15.8686   -5.7998   -9.4425 C   0  0  0  0  0  0  0  0  0  0  0  0
   17.0853   -6.0147   -9.2606 O   0  0  0  0  0  0  0  0  0  0  0  0
   15.3651   -4.5389   -9.2430 O   0  0  0  0  0  0  0  0  0  0  0  0
  1  2  1  0
  2  3  1  0
  4  3  1  0
  5  1  1  0
  5  4  1  0
  5  6  1  6
  7  6  2  0
  8  6  1  0
  9 14  1  0
  9  8  1  0
  9 10  1  6
 11 10  1  0
 12 16  1  0
 12 11  1  0
 13 12  2  0
 14 22  1  0
 15 14  2  0
 17 18  1  0
 19 21  1  0
 19 18  1  0
 19 20  1  6
 21 23  1  0
 21 22  1  1
 23 24  2  0
 23 25  1  0
M  END
$$$$
