PEI.pdb
     RDKit          3D

 25 25  0  0  1  0  0  0  0  0999 V2000
   14.7433  -22.1572   -1.3621 N   0  0  0  0  0  0  0  0  0  0  0  0
   13.6535  -22.7189   -2.1514 C   0  0  0  0  0  0  0  0  0  0  0  0
   13.0463  -23.8344   -1.3258 C   0  0  0  0  0  0  0  0  0  0  0  0
   13.9112  -23.8439   -0.0561 C   0  0  0  0  0  0  0  0  0  0  0  0
   14.3091  -22.3873    0.0006 C   0  0  1  0  0  0  0  0  0  0  0  0
   15.4287  -22.1068    0.9193 C   0  0  0  0  0  0  0  0  0  0  0  0
   16.5855  -22.2379    0.4561 O   0  0  0  0  0  0  0  0  0  0  0  0
   15.2295  -21.7054    2.2717 N   0  0  0  0  0  0  0  0  0  0  0  0
   16.2266  -21.4390    3.2360 C   0  0  1  0  0  0  0  0  0  0  0  0
   16.0068  -20.4044    4.2528 C   0  0  0  0  0  0  0  0  0  0  0  0
   15.4351  -19.0999    3.7966 C   0  0  0  0  0  0  0  0  0  0  0  0
   15.1752  -18.0819    4.7821 C   0  0  0  0  0  0  0  0  0  0  0  0
   15.3379  -16.8704    4.5865 O   0  0  0  0  0  0  0  0  0  0  0  0
   16.8083  -22.7247    3.7968 C   0  0  0  0  0  0  0  0  0  0  0  0
   16.0729  -23.6727    4.1691 O   0  0  0  0  0  0  0  0  0  0  0  0
   14.7095  -18.4527    6.0479 O   0  0  0  0  0  0  0  0  0  0  0  0
   21.4323  -25.0104    1.8681 C   0  0  0  0  0  0  0  0  0  0  0  0
   20.0489  -24.8128    2.4488 C   0  0  0  0  0  0  0  0  0  0  0  0
   20.0703  -24.5294    3.9273 C   0  0  2  0  0  0  0  0  0  0  0  0
   20.5545  -25.7860    4.6194 C   0  0  0  0  0  0  0  0  0  0  0  0
   18.7403  -24.1710    4.4829 C   0  0  2  0  0  0  0  0  0  0  0  0
   18.1973  -22.9418    3.9361 N   0  0  0  0  0  0  0  0  0  0  0  0
   18.8199  -24.1311    5.9615 C   0  0  0  0  0  0  0  0  0  0  0  0
   18.5164  -25.1551    6.6087 O   0  0  0  0  0  0  0  0  0  0  0  0
   19.2172  -22.9996    6.6288 O   0  0  0  0  0  0  0  0  0  0  0  0
  1  2  1  0
  2  3  1  0
  4  3  1  0
  5  1  1  0
  5  4  1  0
  5  6  1  1
  7  6  2  0
  8  6  1  0
  9 14  1  0
  9  8  1  0
  9 10  1  1
 11 10  1  0
 12 16  1  0
 12 11  1  0
 13 12  2  0
 14 22  1  0
 15 14  2  0
 17 18  1  0
 19 21  1  0
 19 18  1  0
 19 20  1  1
 21 23  1  0
 21 22  1  6
 23 24  2  0
 23 25  1  0
M  END
$$$$
