HTA.pdb
     RDKit          3D

 23 23  0  0  1  0  0  0  0  0999 V2000
    8.5688  -15.7072   17.0610 N   0  0  0  0  0  0  0  0  0  0  0  0
    8.6028  -14.3291   17.4237 C   0  0  1  0  0  0  0  0  0  0  0  0
    7.5105  -13.6116   16.6469 C   0  0  0  0  0  0  0  0  0  0  0  0
    7.7074  -13.8776   15.2129 C   0  0  0  0  0  0  0  0  0  0  0  0
    8.1046  -12.9721   14.2612 C   0  0  0  0  0  0  0  0  0  0  0  0
    8.1504  -13.6473   13.1019 N   0  0  0  0  0  0  0  0  0  0  0  0
    7.7973  -14.9169   13.3222 C   0  0  0  0  0  0  0  0  0  0  0  0
    7.5200  -15.0824   14.6148 N   0  0  0  0  0  0  0  0  0  0  0  0
    8.4240  -14.0772   18.8682 C   0  0  0  0  0  0  0  0  0  0  0  0
    8.3526  -12.9105   19.2790 O   0  0  0  0  0  0  0  0  0  0  0  0
    5.7970  -14.9118   21.1611 C   0  0  0  0  0  0  0  0  0  0  0  0
    7.0121  -15.6752   21.6558 C   0  0  1  0  0  0  0  0  0  0  0  0
    6.9870  -16.9225   21.0180 O   0  0  0  0  0  0  0  0  0  0  0  0
    8.3003  -14.9889   21.1778 C   0  0  2  0  0  0  0  0  0  0  0  0
    8.3381  -15.1750   19.7511 N   0  0  0  0  0  0  0  0  0  0  0  0
    9.4113  -15.7483   21.7755 C   0  0  0  0  0  0  0  0  0  0  0  0
    9.9881  -16.6298   21.0932 O   0  0  0  0  0  0  0  0  0  0  0  0
   11.3198  -15.8274   24.9777 C   0  0  0  0  0  0  0  0  0  0  0  0
   10.9587  -16.3616   23.5889 C   0  0  2  0  0  0  0  0  0  0  0  0
    9.8743  -15.5354   23.1034 N   0  0  0  0  0  0  0  0  0  0  0  0
   10.5112  -17.7704   23.8036 C   0  0  0  0  0  0  0  0  0  0  0  0
   11.4868  -18.7183   24.0478 O   0  0  0  0  0  0  0  0  0  0  0  0
    9.3270  -18.1222   23.7734 O   0  0  0  0  0  0  0  0  0  0  0  0
  2  1  1  1
  3  2  1  0
  4  3  1  0
  5  4  2  0
  6  5  1  0
  7  6  1  0
  7  8  2  0
  8  4  1  0
  9  2  1  0
 10  9  2  0
 12 11  1  6
 12 13  1  0
 14 15  1  6
 14 12  1  0
 15  9  1  0
 16 14  1  0
 17 16  2  0
 19 18  1  1
 19 20  1  0
 20 16  1  0
 21 22  1  0
 21 19  1  0
 23 21  2  0
M  END
$$$$
