HTA.pdb
     RDKit          3D

 23 23  0  0  1  0  0  0  0  0999 V2000
    8.0009  -16.4939   20.0066 N   0  0  0  0  0  0  0  0  0  0  0  0
    8.1590  -15.4308   20.9428 C   0  0  1  0  0  0  0  0  0  0  0  0
    7.2234  -14.3036   20.5361 C   0  0  0  0  0  0  0  0  0  0  0  0
    7.6523  -13.7928   19.2241 C   0  0  0  0  0  0  0  0  0  0  0  0
    8.4559  -12.7043   18.9943 C   0  0  0  0  0  0  0  0  0  0  0  0
    8.5819  -12.6102   17.6612 N   0  0  0  0  0  0  0  0  0  0  0  0
    7.8874  -13.5964   17.0866 C   0  0  0  0  0  0  0  0  0  0  0  0
    7.3065  -14.3375   18.0291 N   0  0  0  0  0  0  0  0  0  0  0  0
    7.8886  -15.8112   22.3443 C   0  0  0  0  0  0  0  0  0  0  0  0
    6.7246  -16.0452   22.6984 O   0  0  0  0  0  0  0  0  0  0  0  0
    8.7405  -18.7467   23.7825 C   0  0  0  0  0  0  0  0  0  0  0  0
    9.4742  -17.7454   24.6561 C   0  0  1  0  0  0  0  0  0  0  0  0
   10.7343  -17.5553   24.0737 O   0  0  0  0  0  0  0  0  0  0  0  0
    8.7770  -16.3782   24.5959 C   0  0  2  0  0  0  0  0  0  0  0  0
    8.9660  -15.9000   23.2516 N   0  0  0  0  0  0  0  0  0  0  0  0
    9.5245  -15.5001   25.5115 C   0  0  0  0  0  0  0  0  0  0  0  0
   10.6856  -15.1378   25.2015 O   0  0  0  0  0  0  0  0  0  0  0  0
    8.9653  -13.1412   28.1990 C   0  0  0  0  0  0  0  0  0  0  0  0
    9.8529  -14.2337   27.5966 C   0  0  2  0  0  0  0  0  0  0  0  0
    8.9963  -15.0324   26.7465 N   0  0  0  0  0  0  0  0  0  0  0  0
   10.3564  -15.0284   28.7568 C   0  0  0  0  0  0  0  0  0  0  0  0
   11.2948  -14.4324   29.5777 O   0  0  0  0  0  0  0  0  0  0  0  0
    9.9783  -16.1767   29.0128 O   0  0  0  0  0  0  0  0  0  0  0  0
  2  1  1  6
  3  2  1  0
  4  3  1  0
  5  4  2  0
  6  5  1  0
  7  6  1  0
  7  8  2  0
  8  4  1  0
  9  2  1  0
 10  9  2  0
 12 11  1  6
 12 13  1  0
 14 15  1  6
 14 12  1  0
 15  9  1  0
 16 14  1  0
 17 16  2  0
 19 18  1  1
 19 20  1  0
 20 16  1  0
 21 22  1  0
 21 19  1  0
 23 21  2  0
M  END
$$$$
