HTA.pdb
     RDKit          3D

 23 23  0  0  1  0  0  0  0  0999 V2000
    7.3275  -16.3269   20.0245 N   0  0  0  0  0  0  0  0  0  0  0  0
    8.2820  -16.0032   21.0325 C   0  0  1  0  0  0  0  0  0  0  0  0
    9.0504  -14.7739   20.5746 C   0  0  0  0  0  0  0  0  0  0  0  0
    8.4823  -14.3194   19.2953 C   0  0  0  0  0  0  0  0  0  0  0  0
    7.6059  -13.2790   19.1144 C   0  0  0  0  0  0  0  0  0  0  0  0
    7.3591  -13.2258   17.7960 N   0  0  0  0  0  0  0  0  0  0  0  0
    8.0513  -14.1904   17.1833 C   0  0  0  0  0  0  0  0  0  0  0  0
    8.7504  -14.8768   18.0862 N   0  0  0  0  0  0  0  0  0  0  0  0
    7.6954  -15.7475   22.3639 C   0  0  0  0  0  0  0  0  0  0  0  0
    6.6577  -15.0765   22.4538 O   0  0  0  0  0  0  0  0  0  0  0  0
    6.4582  -18.2516   24.4424 C   0  0  0  0  0  0  0  0  0  0  0  0
    7.4995  -17.5723   25.3131 C   0  0  1  0  0  0  0  0  0  0  0  0
    8.7018  -18.2626   25.1098 O   0  0  0  0  0  0  0  0  0  0  0  0
    7.7524  -16.1406   24.8180 C   0  0  2  0  0  0  0  0  0  0  0  0
    8.3323  -16.2750   23.5076 N   0  0  0  0  0  0  0  0  0  0  0  0
    8.7680  -15.5721   25.7200 C   0  0  0  0  0  0  0  0  0  0  0  0
    9.9834  -15.7714   25.4777 O   0  0  0  0  0  0  0  0  0  0  0  0
    8.9149  -13.1533   28.5298 C   0  0  0  0  0  0  0  0  0  0  0  0
    9.5303  -14.2410   27.6452 C   0  0  2  0  0  0  0  0  0  0  0  0
    8.4437  -14.7978   26.8682 N   0  0  0  0  0  0  0  0  0  0  0  0
   10.0962  -15.2531   28.5868 C   0  0  0  0  0  0  0  0  0  0  0  0
    9.5124  -16.5056   28.6016 O   0  0  0  0  0  0  0  0  0  0  0  0
   11.0477  -15.0257   29.3417 O   0  0  0  0  0  0  0  0  0  0  0  0
  2  1  1  6
  3  2  1  0
  4  3  1  0
  5  4  2  0
  6  5  1  0
  7  6  1  0
  7  8  2  0
  8  4  1  0
  9  2  1  0
 10  9  2  0
 12 11  1  6
 12 13  1  0
 14 15  1  6
 14 12  1  0
 15  9  1  0
 16 14  1  0
 17 16  2  0
 19 18  1  1
 19 20  1  0
 20 16  1  0
 21 22  1  0
 21 19  1  0
 23 21  2  0
M  END
$$$$
