HTA.pdb
     RDKit          3D

 23 23  0  0  1  0  0  0  0  0999 V2000
   10.2514  -17.4254   19.8901 N   0  0  0  0  0  0  0  0  0  0  0  0
   11.0835  -17.2038   21.0260 C   0  0  1  0  0  0  0  0  0  0  0  0
   12.5110  -17.0240   20.5348 C   0  0  0  0  0  0  0  0  0  0  0  0
   12.9078  -18.2372   19.8023 C   0  0  0  0  0  0  0  0  0  0  0  0
   13.1365  -19.4786   20.3409 C   0  0  0  0  0  0  0  0  0  0  0  0
   13.4720  -20.2737   19.3128 N   0  0  0  0  0  0  0  0  0  0  0  0
   13.4530  -19.5591   18.1841 C   0  0  0  0  0  0  0  0  0  0  0  0
   13.1083  -18.3022   18.4606 N   0  0  0  0  0  0  0  0  0  0  0  0
   10.6954  -16.0366   21.8440 C   0  0  0  0  0  0  0  0  0  0  0  0
   11.3400  -14.9830   21.7466 O   0  0  0  0  0  0  0  0  0  0  0  0
    7.0147  -14.7609   22.1901 C   0  0  0  0  0  0  0  0  0  0  0  0
    7.6052  -15.1420   23.5354 C   0  0  1  0  0  0  0  0  0  0  0  0
    7.3331  -16.5041   23.7196 O   0  0  0  0  0  0  0  0  0  0  0  0
    9.1361  -15.0249   23.4949 C   0  0  2  0  0  0  0  0  0  0  0  0
    9.5954  -16.1482   22.7211 N   0  0  0  0  0  0  0  0  0  0  0  0
    9.5939  -15.1982   24.8836 C   0  0  0  0  0  0  0  0  0  0  0  0
   10.0893  -16.2973   25.2329 O   0  0  0  0  0  0  0  0  0  0  0  0
    9.6210  -13.2501   28.0619 C   0  0  0  0  0  0  0  0  0  0  0  0
    9.9722  -14.4686   27.2039 C   0  0  2  0  0  0  0  0  0  0  0  0
    9.5048  -14.1738   25.8664 N   0  0  0  0  0  0  0  0  0  0  0  0
    9.2185  -15.6118   27.8007 C   0  0  0  0  0  0  0  0  0  0  0  0
    9.7409  -16.1932   28.9404 O   0  0  0  0  0  0  0  0  0  0  0  0
    8.1655  -16.0549   27.3297 O   0  0  0  0  0  0  0  0  0  0  0  0
  2  1  1  6
  3  2  1  0
  4  3  1  0
  5  4  2  0
  6  5  1  0
  7  6  1  0
  7  8  2  0
  8  4  1  0
  9  2  1  0
 10  9  2  0
 12 11  1  6
 12 13  1  0
 14 15  1  6
 14 12  1  0
 15  9  1  0
 16 14  1  0
 17 16  2  0
 19 18  1  1
 19 20  1  0
 20 16  1  0
 21 22  1  0
 21 19  1  0
 23 21  2  0
M  END
$$$$
