HTA.pdb
     RDKit          3D

 23 23  0  0  1  0  0  0  0  0999 V2000
    8.7492  -15.7199   21.0279 N   0  0  0  0  0  0  0  0  0  0  0  0
    8.1501  -14.5733   21.6263 C   0  0  1  0  0  0  0  0  0  0  0  0
    7.0034  -14.1234   20.7353 C   0  0  0  0  0  0  0  0  0  0  0  0
    7.5212  -13.9315   19.3711 C   0  0  0  0  0  0  0  0  0  0  0  0
    8.1293  -12.8038   18.8792 C   0  0  0  0  0  0  0  0  0  0  0  0
    8.4353  -13.0742   17.6006 N   0  0  0  0  0  0  0  0  0  0  0  0
    8.0354  -14.3153   17.3093 C   0  0  0  0  0  0  0  0  0  0  0  0
    7.4697  -14.8629   18.3840 N   0  0  0  0  0  0  0  0  0  0  0  0
    7.6477  -14.7970   22.9973 C   0  0  0  0  0  0  0  0  0  0  0  0
    6.7558  -14.0636   23.4465 O   0  0  0  0  0  0  0  0  0  0  0  0
    6.4350  -18.0349   24.4054 C   0  0  0  0  0  0  0  0  0  0  0  0
    7.5932  -17.5778   25.2734 C   0  0  1  0  0  0  0  0  0  0  0  0
    8.7479  -18.1664   24.7409 O   0  0  0  0  0  0  0  0  0  0  0  0
    7.7956  -16.0618   25.1324 C   0  0  2  0  0  0  0  0  0  0  0  0
    8.1967  -15.8447   23.7673 N   0  0  0  0  0  0  0  0  0  0  0  0
    8.9274  -15.7195   26.0099 C   0  0  0  0  0  0  0  0  0  0  0  0
   10.0980  -15.9409   25.6147 O   0  0  0  0  0  0  0  0  0  0  0  0
    9.6115  -13.6135   28.9226 C   0  0  0  0  0  0  0  0  0  0  0  0
    9.9556  -14.8331   28.0632 C   0  0  2  0  0  0  0  0  0  0  0  0
    8.7657  -15.1431   27.3001 N   0  0  0  0  0  0  0  0  0  0  0  0
   10.2798  -15.9265   29.0279 C   0  0  0  0  0  0  0  0  0  0  0  0
   11.4708  -15.8308   29.7222 O   0  0  0  0  0  0  0  0  0  0  0  0
    9.5434  -16.8979   29.2307 O   0  0  0  0  0  0  0  0  0  0  0  0
  2  1  1  6
  3  2  1  0
  4  3  1  0
  5  4  2  0
  6  5  1  0
  7  6  1  0
  7  8  2  0
  8  4  1  0
  9  2  1  0
 10  9  2  0
 12 11  1  6
 12 13  1  0
 14 15  1  6
 14 12  1  0
 15  9  1  0
 16 14  1  0
 17 16  2  0
 19 18  1  1
 19 20  1  0
 20 16  1  0
 21 22  1  0
 21 19  1  0
 23 21  2  0
M  END
$$$$
