HTA.pdb
     RDKit          3D

 23 23  0  0  1  0  0  0  0  0999 V2000
    7.5976  -19.6634   16.1450 N   0  0  0  0  0  0  0  0  0  0  0  0
    8.4283  -18.7123   16.8060 C   0  0  1  0  0  0  0  0  0  0  0  0
    7.7612  -17.3504   16.6983 C   0  0  0  0  0  0  0  0  0  0  0  0
    7.8473  -16.8990   15.3001 C   0  0  0  0  0  0  0  0  0  0  0  0
    8.8262  -16.1053   14.7567 C   0  0  0  0  0  0  0  0  0  0  0  0
    8.5036  -15.9506   13.4630 N   0  0  0  0  0  0  0  0  0  0  0  0
    7.3740  -16.6184   13.2120 C   0  0  0  0  0  0  0  0  0  0  0  0
    6.9512  -17.2104   14.3281 N   0  0  0  0  0  0  0  0  0  0  0  0
    8.6902  -19.0192   18.2271 C   0  0  0  0  0  0  0  0  0  0  0  0
    7.7416  -19.2897   18.9768 O   0  0  0  0  0  0  0  0  0  0  0  0
   11.9550  -20.6306   21.4370 C   0  0  0  0  0  0  0  0  0  0  0  0
   11.4961  -20.2981   20.0289 C   0  0  1  0  0  0  0  0  0  0  0  0
   10.9626  -21.4779   19.4936 O   0  0  0  0  0  0  0  0  0  0  0  0
   10.3319  -19.2972   20.0731 C   0  0  2  0  0  0  0  0  0  0  0  0
   10.0196  -18.9975   18.7005 N   0  0  0  0  0  0  0  0  0  0  0  0
   10.8666  -18.0794   20.7051 C   0  0  0  0  0  0  0  0  0  0  0  0
   11.7434  -17.4116   20.1045 O   0  0  0  0  0  0  0  0  0  0  0  0
   10.0493  -15.9161   23.6103 C   0  0  0  0  0  0  0  0  0  0  0  0
   10.9445  -16.3364   22.4414 C   0  0  2  0  0  0  0  0  0  0  0  0
   10.4384  -17.6104   21.9778 N   0  0  0  0  0  0  0  0  0  0  0  0
   12.3165  -16.4756   23.0152 C   0  0  0  0  0  0  0  0  0  0  0  0
   12.7726  -17.7546   23.2721 O   0  0  0  0  0  0  0  0  0  0  0  0
   13.0515  -15.5147   23.2670 O   0  0  0  0  0  0  0  0  0  0  0  0
  2  1  1  1
  3  2  1  0
  4  3  1  0
  5  4  2  0
  6  5  1  0
  7  6  1  0
  7  8  2  0
  8  4  1  0
  9  2  1  0
 10  9  2  0
 12 11  1  1
 12 13  1  0
 14 15  1  6
 14 12  1  0
 15  9  1  0
 16 14  1  0
 17 16  2  0
 19 18  1  1
 19 20  1  0
 20 16  1  0
 21 22  1  0
 21 19  1  0
 23 21  2  0
M  END
$$$$
