HTA.pdb
     RDKit          3D

 23 23  0  0  1  0  0  0  0  0999 V2000
   11.3921  -17.3067   20.0473 N   0  0  0  0  0  0  0  0  0  0  0  0
   11.8330  -17.2561   21.4018 C   0  0  1  0  0  0  0  0  0  0  0  0
   13.3424  -17.0742   21.3982 C   0  0  0  0  0  0  0  0  0  0  0  0
   13.9600  -18.3161   20.9061 C   0  0  0  0  0  0  0  0  0  0  0  0
   13.7303  -19.5848   21.3763 C   0  0  0  0  0  0  0  0  0  0  0  0
   14.5016  -20.3996   20.6396 N   0  0  0  0  0  0  0  0  0  0  0  0
   15.1815  -19.6705   19.7500 C   0  0  0  0  0  0  0  0  0  0  0  0
   14.8644  -18.3847   19.8951 N   0  0  0  0  0  0  0  0  0  0  0  0
   11.2112  -16.1818   22.2027 C   0  0  0  0  0  0  0  0  0  0  0  0
   11.4356  -14.9983   21.9129 O   0  0  0  0  0  0  0  0  0  0  0  0
    7.5223  -15.8674   22.7601 C   0  0  0  0  0  0  0  0  0  0  0  0
    8.2040  -16.0239   24.1072 C   0  0  1  0  0  0  0  0  0  0  0  0
    8.2864  -17.4004   24.3556 O   0  0  0  0  0  0  0  0  0  0  0  0
    9.6553  -15.5274   24.0279 C   0  0  2  0  0  0  0  0  0  0  0  0
   10.3726  -16.5289   23.2835 N   0  0  0  0  0  0  0  0  0  0  0  0
   10.1603  -15.5252   25.4110 C   0  0  0  0  0  0  0  0  0  0  0  0
   10.8675  -16.4837   25.8068 O   0  0  0  0  0  0  0  0  0  0  0  0
    9.9329  -13.3709   28.4479 C   0  0  0  0  0  0  0  0  0  0  0  0
   10.3376  -14.6462   27.7034 C   0  0  2  0  0  0  0  0  0  0  0  0
    9.8873  -14.4816   26.3380 N   0  0  0  0  0  0  0  0  0  0  0  0
    9.6077  -15.7579   28.3835 C   0  0  0  0  0  0  0  0  0  0  0  0
   10.0964  -16.1888   29.6022 O   0  0  0  0  0  0  0  0  0  0  0  0
    8.6024  -16.3018   27.9139 O   0  0  0  0  0  0  0  0  0  0  0  0
  2  1  1  6
  3  2  1  0
  4  3  1  0
  5  4  2  0
  6  5  1  0
  7  6  1  0
  7  8  2  0
  8  4  1  0
  9  2  1  0
 10  9  2  0
 12 11  1  6
 12 13  1  0
 14 15  1  6
 14 12  1  0
 15  9  1  0
 16 14  1  0
 17 16  2  0
 19 18  1  1
 19 20  1  0
 20 16  1  0
 21 22  1  0
 21 19  1  0
 23 21  2  0
M  END
$$$$
