HTA.pdb
     RDKit          3D

 23 23  0  0  1  0  0  0  0  0999 V2000
    8.1100  -16.6587   20.3594 N   0  0  0  0  0  0  0  0  0  0  0  0
    8.3332  -15.6543   21.3459 C   0  0  1  0  0  0  0  0  0  0  0  0
    7.3553  -14.5187   21.0900 C   0  0  0  0  0  0  0  0  0  0  0  0
    7.6965  -13.8915   19.8030 C   0  0  0  0  0  0  0  0  0  0  0  0
    8.5069  -12.7999   19.6157 C   0  0  0  0  0  0  0  0  0  0  0  0
    8.5342  -12.5801   18.2918 N   0  0  0  0  0  0  0  0  0  0  0  0
    7.7745  -13.4943   17.6819 C   0  0  0  0  0  0  0  0  0  0  0  0
    7.2483  -14.3126   18.5921 N   0  0  0  0  0  0  0  0  0  0  0  0
    8.1832  -16.1267   22.7375 C   0  0  0  0  0  0  0  0  0  0  0  0
    7.1118  -16.6350   23.0962 O   0  0  0  0  0  0  0  0  0  0  0  0
    9.3989  -18.8815   24.0763 C   0  0  0  0  0  0  0  0  0  0  0  0
   10.0848  -17.8136   24.9087 C   0  0  1  0  0  0  0  0  0  0  0  0
   11.2499  -17.4556   24.2175 O   0  0  0  0  0  0  0  0  0  0  0  0
    9.2224  -16.5436   24.9571 C   0  0  2  0  0  0  0  0  0  0  0  0
    9.2675  -15.9878   23.6302 N   0  0  0  0  0  0  0  0  0  0  0  0
    9.9116  -15.6189   25.8725 C   0  0  0  0  0  0  0  0  0  0  0  0
   11.0073  -15.1152   25.5245 O   0  0  0  0  0  0  0  0  0  0  0  0
    9.3805  -13.4343   28.6841 C   0  0  0  0  0  0  0  0  0  0  0  0
   10.2558  -14.5167   28.0464 C   0  0  2  0  0  0  0  0  0  0  0  0
    9.3971  -15.2591   27.1488 N   0  0  0  0  0  0  0  0  0  0  0  0
   10.7253  -15.3724   29.1772 C   0  0  0  0  0  0  0  0  0  0  0  0
   11.6869  -14.8451   30.0181 O   0  0  0  0  0  0  0  0  0  0  0  0
   10.3001  -16.5125   29.3922 O   0  0  0  0  0  0  0  0  0  0  0  0
  2  1  1  6
  3  2  1  0
  4  3  1  0
  5  4  2  0
  6  5  1  0
  7  6  1  0
  7  8  2  0
  8  4  1  0
  9  2  1  0
 10  9  2  0
 12 11  1  6
 12 13  1  0
 14 15  1  6
 14 12  1  0
 15  9  1  0
 16 14  1  0
 17 16  2  0
 19 18  1  1
 19 20  1  0
 20 16  1  0
 21 22  1  0
 21 19  1  0
 23 21  2  0
M  END
$$$$
