HTA.pdb
     RDKit          3D

 23 23  0  0  1  0  0  0  0  0999 V2000
    8.9470  -17.1727   15.9678 N   0  0  0  0  0  0  0  0  0  0  0  0
    8.2058  -16.9976   17.1727 C   0  0  1  0  0  0  0  0  0  0  0  0
    7.7605  -18.3692   17.6540 C   0  0  0  0  0  0  0  0  0  0  0  0
    6.6626  -18.8321   16.7901 C   0  0  0  0  0  0  0  0  0  0  0  0
    6.1491  -18.1762   15.6995 C   0  0  0  0  0  0  0  0  0  0  0  0
    5.1701  -18.9602   15.2213 N   0  0  0  0  0  0  0  0  0  0  0  0
    5.0781  -20.0556   15.9806 C   0  0  0  0  0  0  0  0  0  0  0  0
    5.9870  -19.9991   16.9530 N   0  0  0  0  0  0  0  0  0  0  0  0
    8.9522  -16.3177   18.2510 C   0  0  0  0  0  0  0  0  0  0  0  0
   10.1871  -16.2425   18.1834 O   0  0  0  0  0  0  0  0  0  0  0  0
    7.3156  -13.0925   19.8565 C   0  0  0  0  0  0  0  0  0  0  0  0
    7.8157  -14.0507   20.9221 C   0  0  1  0  0  0  0  0  0  0  0  0
    6.7384  -14.8864   21.2451 O   0  0  0  0  0  0  0  0  0  0  0  0
    8.8981  -14.9723   20.3408 C   0  0  2  0  0  0  0  0  0  0  0  0
    8.2396  -15.7670   19.3376 N   0  0  0  0  0  0  0  0  0  0  0  0
    9.3099  -15.8600   21.4411 C   0  0  0  0  0  0  0  0  0  0  0  0
    8.6508  -16.9044   21.6654 O   0  0  0  0  0  0  0  0  0  0  0  0
   12.2693  -16.4543   23.5290 C   0  0  0  0  0  0  0  0  0  0  0  0
   10.7588  -16.5618   23.3032 C   0  0  2  0  0  0  0  0  0  0  0  0
   10.4302  -15.5960   22.2768 N   0  0  0  0  0  0  0  0  0  0  0  0
   10.1299  -16.1992   24.6086 C   0  0  0  0  0  0  0  0  0  0  0  0
   10.3012  -17.0757   25.6632 O   0  0  0  0  0  0  0  0  0  0  0  0
    9.4736  -15.1674   24.7864 O   0  0  0  0  0  0  0  0  0  0  0  0
  2  1  1  6
  3  2  1  0
  4  3  1  0
  5  4  2  0
  6  5  1  0
  7  6  1  0
  7  8  2  0
  8  4  1  0
  9  2  1  0
 10  9  2  0
 12 11  1  6
 12 13  1  0
 14 15  1  6
 14 12  1  0
 15  9  1  0
 16 14  1  0
 17 16  2  0
 19 18  1  1
 19 20  1  0
 20 16  1  0
 21 22  1  0
 21 19  1  0
 23 21  2  0
M  END
$$$$
