HTA.pdb
     RDKit          3D

 23 23  0  0  1  0  0  0  0  0999 V2000
    6.1275  -16.2077   26.0399 N   0  0  0  0  0  0  0  0  0  0  0  0
    6.7982  -15.4475   25.0378 C   0  0  1  0  0  0  0  0  0  0  0  0
    7.8901  -14.6357   25.7160 C   0  0  0  0  0  0  0  0  0  0  0  0
    7.2556  -13.5554   26.4884 C   0  0  0  0  0  0  0  0  0  0  0  0
    5.9142  -13.2718   26.5464 C   0  0  0  0  0  0  0  0  0  0  0  0
    5.7929  -12.2143   27.3641 N   0  0  0  0  0  0  0  0  0  0  0  0
    7.0052  -11.8554   27.7961 C   0  0  0  0  0  0  0  0  0  0  0  0
    7.9217  -12.6668   27.2702 N   0  0  0  0  0  0  0  0  0  0  0  0
    7.3909  -16.2595   23.9555 C   0  0  0  0  0  0  0  0  0  0  0  0
    7.5386  -17.4787   24.1195 O   0  0  0  0  0  0  0  0  0  0  0  0
    6.7023  -14.7272   20.3970 C   0  0  0  0  0  0  0  0  0  0  0  0
    8.0560  -15.4138   20.4067 C   0  0  1  0  0  0  0  0  0  0  0  0
    9.0076  -14.4169   20.6594 O   0  0  0  0  0  0  0  0  0  0  0  0
    8.1482  -16.3874   21.5910 C   0  0  2  0  0  0  0  0  0  0  0  0
    7.7770  -15.6261   22.7548 N   0  0  0  0  0  0  0  0  0  0  0  0
    9.5700  -16.7520   21.7077 C   0  0  0  0  0  0  0  0  0  0  0  0
   10.0937  -17.4686   20.8202 O   0  0  0  0  0  0  0  0  0  0  0  0
   12.5699  -15.5588   23.3900 C   0  0  0  0  0  0  0  0  0  0  0  0
   11.7891  -16.7221   22.7726 C   0  0  2  0  0  0  0  0  0  0  0  0
   10.3958  -16.3311   22.7865 N   0  0  0  0  0  0  0  0  0  0  0  0
   12.0319  -17.8911   23.6702 C   0  0  0  0  0  0  0  0  0  0  0  0
   13.3032  -18.4329   23.6805 O   0  0  0  0  0  0  0  0  0  0  0  0
   11.1618  -18.3885   24.3931 O   0  0  0  0  0  0  0  0  0  0  0  0
  2  1  1  1
  3  2  1  0
  4  3  1  0
  5  4  2  0
  6  5  1  0
  7  6  1  0
  7  8  2  0
  8  4  1  0
  9  2  1  0
 10  9  2  0
 12 11  1  1
 12 13  1  0
 14 15  1  1
 14 12  1  0
 15  9  1  0
 16 14  1  0
 17 16  2  0
 19 18  1  1
 19 20  1  0
 20 16  1  0
 21 22  1  0
 21 19  1  0
 23 21  2  0
M  END
$$$$
