HTA.pdb
     RDKit          3D

 23 23  0  0  1  0  0  0  0  0999 V2000
   10.7036  -18.2062   20.4439 N   0  0  0  0  0  0  0  0  0  0  0  0
   11.2647  -17.3822   21.4627 C   0  0  1  0  0  0  0  0  0  0  0  0
   11.9550  -16.2069   20.7895 C   0  0  0  0  0  0  0  0  0  0  0  0
   13.1425  -16.7086   20.0795 C   0  0  0  0  0  0  0  0  0  0  0  0
   14.3465  -17.0511   20.6420 C   0  0  0  0  0  0  0  0  0  0  0  0
   15.1295  -17.4527   19.6284 N   0  0  0  0  0  0  0  0  0  0  0  0
   14.4434  -17.3641   18.4854 C   0  0  0  0  0  0  0  0  0  0  0  0
   13.2173  -16.9083   18.7382 N   0  0  0  0  0  0  0  0  0  0  0  0
   10.2828  -16.8778   22.4444 C   0  0  0  0  0  0  0  0  0  0  0  0
    9.2500  -16.3234   22.0432 O   0  0  0  0  0  0  0  0  0  0  0  0
    8.0891  -18.6271   24.3313 C   0  0  0  0  0  0  0  0  0  0  0  0
    9.0050  -17.9893   25.3599 C   0  0  1  0  0  0  0  0  0  0  0  0
   10.1044  -18.8463   25.5017 O   0  0  0  0  0  0  0  0  0  0  0  0
    9.5732  -16.6693   24.8179 C   0  0  2  0  0  0  0  0  0  0  0  0
   10.5441  -17.0394   23.8219 N   0  0  0  0  0  0  0  0  0  0  0  0
   10.2803  -16.0380   25.9447 C   0  0  0  0  0  0  0  0  0  0  0  0
   11.4659  -16.3706   26.1880 O   0  0  0  0  0  0  0  0  0  0  0  0
    9.7776  -13.2199   28.3035 C   0  0  0  0  0  0  0  0  0  0  0  0
   10.4834  -14.5038   27.8589 C   0  0  2  0  0  0  0  0  0  0  0  0
    9.6856  -15.0572   26.7859 N   0  0  0  0  0  0  0  0  0  0  0  0
   10.4790  -15.3999   29.0540 C   0  0  0  0  0  0  0  0  0  0  0  0
   11.3595  -15.1020   30.0766 O   0  0  0  0  0  0  0  0  0  0  0  0
    9.7358  -16.3804   29.1688 O   0  0  0  0  0  0  0  0  0  0  0  0
  2  1  1  6
  3  2  1  0
  4  3  1  0
  5  4  2  0
  6  5  1  0
  7  6  1  0
  7  8  2  0
  8  4  1  0
  9  2  1  0
 10  9  2  0
 12 11  1  6
 12 13  1  0
 14 15  1  6
 14 12  1  0
 15  9  1  0
 16 14  1  0
 17 16  2  0
 19 18  1  1
 19 20  1  0
 20 16  1  0
 21 22  1  0
 21 19  1  0
 23 21  2  0
M  END
$$$$
