HTA.pdb
     RDKit          3D

 23 23  0  0  1  0  0  0  0  0999 V2000
   10.4220  -15.3463   18.5051 N   0  0  0  0  0  0  0  0  0  0  0  0
   10.7187  -15.0547   19.8684 C   0  0  1  0  0  0  0  0  0  0  0  0
   11.7438  -13.9323   19.8965 C   0  0  0  0  0  0  0  0  0  0  0  0
   13.0481  -14.4825   19.4939 C   0  0  0  0  0  0  0  0  0  0  0  0
   13.7441  -15.4813   20.1274 C   0  0  0  0  0  0  0  0  0  0  0  0
   14.8705  -15.6565   19.4188 N   0  0  0  0  0  0  0  0  0  0  0  0
   14.8756  -14.8046   18.3896 C   0  0  0  0  0  0  0  0  0  0  0  0
   13.7635  -14.0713   18.4152 N   0  0  0  0  0  0  0  0  0  0  0  0
    9.5439  -14.6666   20.6755 C   0  0  0  0  0  0  0  0  0  0  0  0
    8.7377  -13.8430   20.2209 O   0  0  0  0  0  0  0  0  0  0  0  0
    6.7585  -16.5793   21.6344 C   0  0  0  0  0  0  0  0  0  0  0  0
    7.4361  -16.2097   22.9413 C   0  0  1  0  0  0  0  0  0  0  0  0
    8.3854  -17.2085   23.1954 O   0  0  0  0  0  0  0  0  0  0  0  0
    8.2349  -14.9085   22.7751 C   0  0  2  0  0  0  0  0  0  0  0  0
    9.3657  -15.2447   21.9506 N   0  0  0  0  0  0  0  0  0  0  0  0
    8.7261  -14.5586   24.1184 C   0  0  0  0  0  0  0  0  0  0  0  0
    9.8508  -14.9762   24.4876 O   0  0  0  0  0  0  0  0  0  0  0  0
    7.6312  -12.5539   27.0605 C   0  0  0  0  0  0  0  0  0  0  0  0
    8.4941  -13.6218   26.3828 C   0  0  2  0  0  0  0  0  0  0  0  0
    7.9861  -13.7617   25.0350 N   0  0  0  0  0  0  0  0  0  0  0  0
    8.2824  -14.8715   27.1732 C   0  0  0  0  0  0  0  0  0  0  0  0
    8.8679  -14.9413   28.4230 O   0  0  0  0  0  0  0  0  0  0  0  0
    7.6180  -15.8311   26.7674 O   0  0  0  0  0  0  0  0  0  0  0  0
  2  1  1  6
  3  2  1  0
  4  3  1  0
  5  4  2  0
  6  5  1  0
  7  6  1  0
  7  8  2  0
  8  4  1  0
  9  2  1  0
 10  9  2  0
 12 11  1  6
 12 13  1  0
 14 15  1  6
 14 12  1  0
 15  9  1  0
 16 14  1  0
 17 16  2  0
 19 18  1  1
 19 20  1  0
 20 16  1  0
 21 22  1  0
 21 19  1  0
 23 21  2  0
M  END
$$$$
