HTA.pdb
     RDKit          3D

 23 23  0  0  1  0  0  0  0  0999 V2000
    8.2452  -16.0185   20.6422 N   0  0  0  0  0  0  0  0  0  0  0  0
    8.0473  -14.8206   21.3889 C   0  0  1  0  0  0  0  0  0  0  0  0
    7.0644  -13.9478   20.6251 C   0  0  0  0  0  0  0  0  0  0  0  0
    7.6136  -13.6916   19.2840 C   0  0  0  0  0  0  0  0  0  0  0  0
    8.5809  -12.7739   18.9590 C   0  0  0  0  0  0  0  0  0  0  0  0
    8.7685  -12.8848   17.6345 N   0  0  0  0  0  0  0  0  0  0  0  0
    7.9541  -13.8298   17.1561 C   0  0  0  0  0  0  0  0  0  0  0  0
    7.2333  -14.3407   18.1533 N   0  0  0  0  0  0  0  0  0  0  0  0
    7.5471  -15.0370   22.7619 C   0  0  0  0  0  0  0  0  0  0  0  0
    6.4075  -14.6548   23.0625 O   0  0  0  0  0  0  0  0  0  0  0  0
    6.6484  -17.9541   24.2812 C   0  0  0  0  0  0  0  0  0  0  0  0
    7.7985  -17.4703   25.1454 C   0  0  1  0  0  0  0  0  0  0  0  0
    8.9697  -17.9921   24.5803 O   0  0  0  0  0  0  0  0  0  0  0  0
    7.9318  -15.9435   25.0446 C   0  0  2  0  0  0  0  0  0  0  0  0
    8.3814  -15.6765   23.7037 N   0  0  0  0  0  0  0  0  0  0  0  0
    9.0056  -15.5667   25.9790 C   0  0  0  0  0  0  0  0  0  0  0  0
   10.2020  -15.7179   25.6309 O   0  0  0  0  0  0  0  0  0  0  0  0
    9.4899  -13.5262   28.9722 C   0  0  0  0  0  0  0  0  0  0  0  0
    9.8967  -14.7277   28.1147 C   0  0  2  0  0  0  0  0  0  0  0  0
    8.7589  -15.0326   27.2740 N   0  0  0  0  0  0  0  0  0  0  0  0
   10.1698  -15.8358   29.0784 C   0  0  0  0  0  0  0  0  0  0  0  0
   11.3049  -15.7348   29.8600 O   0  0  0  0  0  0  0  0  0  0  0  0
    9.4386  -16.8237   29.2071 O   0  0  0  0  0  0  0  0  0  0  0  0
  2  1  1  6
  3  2  1  0
  4  3  1  0
  5  4  2  0
  6  5  1  0
  7  6  1  0
  7  8  2  0
  8  4  1  0
  9  2  1  0
 10  9  2  0
 12 11  1  6
 12 13  1  0
 14 15  1  6
 14 12  1  0
 15  9  1  0
 16 14  1  0
 17 16  2  0
 19 18  1  1
 19 20  1  0
 20 16  1  0
 21 22  1  0
 21 19  1  0
 23 21  2  0
M  END
$$$$
