CKM.pdb
     RDKit          3D

 24 23  0  0  1  0  0  0  0  0999 V2000
    7.2222  -19.7255   20.8494 N   0  0  0  0  0  0  0  0  0  0  0  0
    6.7961  -18.7172   21.8126 C   0  0  1  0  0  0  0  0  0  0  0  0
    6.7773  -19.2890   23.2032 C   0  0  0  0  0  0  0  0  0  0  0  0
    6.0724  -18.0193   24.2955 S   0  0  0  0  0  0  0  0  0  0  0  0
    7.7780  -17.5843   21.6914 C   0  0  0  0  0  0  0  0  0  0  0  0
    9.0066  -17.9399   21.6493 O   0  0  0  0  0  0  0  0  0  0  0  0
    7.3872  -16.2424   21.6289 N   0  0  0  0  0  0  0  0  0  0  0  0
    8.4085  -15.2052   21.5738 C   0  0  1  0  0  0  0  0  0  0  0  0
    7.9271  -14.0358   20.7872 C   0  0  0  0  0  0  0  0  0  0  0  0
    8.3589  -14.0954   19.3566 C   0  0  0  0  0  0  0  0  0  0  0  0
    7.7065  -12.9445   18.5750 C   0  0  0  0  0  0  0  0  0  0  0  0
    8.1602  -13.0842   17.1383 C   0  0  0  0  0  0  0  0  0  0  0  0
    7.9200  -14.4577   16.7392 N   0  0  0  0  0  0  0  0  0  0  0  0
    8.8563  -14.8141   22.9022 C   0  0  0  0  0  0  0  0  0  0  0  0
    9.5975  -13.8406   23.0874 O   0  0  0  0  0  0  0  0  0  0  0  0
    7.9616  -10.9539   26.6958 C   0  0  0  0  0  0  0  0  0  0  0  0
    6.6416  -12.1240   27.1608 S   0  0  0  0  0  0  0  0  0  0  0  0
    7.3729  -13.7980   27.1225 C   0  0  0  0  0  0  0  0  0  0  0  0
    7.3446  -14.2782   25.6951 C   0  0  0  0  0  0  0  0  0  0  0  0
    8.5660  -15.0855   25.4096 C   0  0  2  0  0  0  0  0  0  0  0  0
    8.4226  -15.5851   24.0337 N   0  0  0  0  0  0  0  0  0  0  0  0
    8.7700  -16.2546   26.2807 C   0  0  0  0  0  0  0  0  0  0  0  0
    9.2821  -16.2005   27.5553 O   0  0  0  0  0  0  0  0  0  0  0  0
    8.4654  -17.4236   25.8661 O   0  0  0  0  0  0  0  0  0  0  0  0
  2  1  1  6
  3  2  1  0
  4  3  1  0
  5  6  2  0
  5  2  1  0
  7  5  1  0
  8  7  1  0
  8  9  1  1
  9 10  1  0
 11 10  1  0
 12 11  1  0
 12 13  1  0
 14  8  1  0
 15 14  2  0
 17 16  1  0
 18 17  1  0
 19 18  1  0
 20 19  1  1
 20 22  1  0
 20 21  1  0
 21 14  1  0
 22 23  1  0
 24 22  2  0
M  END
$$$$
