CKM.pdb
     RDKit          3D

 24 23  0  0  1  0  0  0  0  0999 V2000
    6.7650  -14.5566   19.0629 N   0  0  0  0  0  0  0  0  0  0  0  0
    8.1468  -14.3942   19.4990 C   0  0  1  0  0  0  0  0  0  0  0  0
    8.4406  -12.9500   19.7979 C   0  0  0  0  0  0  0  0  0  0  0  0
    8.6542  -12.1052   18.2033 S   0  0  0  0  0  0  0  0  0  0  0  0
    8.3019  -15.2568   20.7212 C   0  0  0  0  0  0  0  0  0  0  0  0
    7.3816  -15.1158   21.5992 O   0  0  0  0  0  0  0  0  0  0  0  0
    9.3671  -16.1474   20.8935 N   0  0  0  0  0  0  0  0  0  0  0  0
    9.3801  -17.0257   22.0556 C   0  0  1  0  0  0  0  0  0  0  0  0
    9.7901  -18.4037   21.6675 C   0  0  0  0  0  0  0  0  0  0  0  0
    8.6188  -19.2786   21.3524 C   0  0  0  0  0  0  0  0  0  0  0  0
    9.1152  -20.6110   20.7698 C   0  0  0  0  0  0  0  0  0  0  0  0
    7.8835  -21.4039   20.3904 C   0  0  0  0  0  0  0  0  0  0  0  0
    8.3339  -22.6722   19.8497 N   0  0  0  0  0  0  0  0  0  0  0  0
   10.2126  -16.4965   23.1257 C   0  0  0  0  0  0  0  0  0  0  0  0
   11.3889  -16.1599   22.9399 O   0  0  0  0  0  0  0  0  0  0  0  0
    9.9963  -13.3591   30.3001 C   0  0  0  0  0  0  0  0  0  0  0  0
    9.0903  -13.8610   28.7984 S   0  0  0  0  0  0  0  0  0  0  0  0
   10.2787  -14.7425   27.7264 C   0  0  0  0  0  0  0  0  0  0  0  0
    9.5632  -15.1084   26.4525 C   0  0  0  0  0  0  0  0  0  0  0  0
   10.4594  -15.9297   25.5879 C   0  0  2  0  0  0  0  0  0  0  0  0
    9.6484  -16.3619   24.4396 N   0  0  0  0  0  0  0  0  0  0  0  0
   11.0086  -17.1421   26.2169 C   0  0  0  0  0  0  0  0  0  0  0  0
   12.2167  -17.2060   26.8697 O   0  0  0  0  0  0  0  0  0  0  0  0
   10.3527  -18.2375   26.1781 O   0  0  0  0  0  0  0  0  0  0  0  0
  2  1  1  1
  3  2  1  0
  4  3  1  0
  5  6  2  0
  5  2  1  0
  7  5  1  0
  8  7  1  0
  8  9  1  6
  9 10  1  0
 11 10  1  0
 12 11  1  0
 12 13  1  0
 14  8  1  0
 15 14  2  0
 17 16  1  0
 18 17  1  0
 19 18  1  0
 20 19  1  1
 20 22  1  0
 20 21  1  0
 21 14  1  0
 22 23  1  0
 24 22  2  0
M  END
$$$$
