CKM.pdb
     RDKit          3D

 24 23  0  0  1  0  0  0  0  0999 V2000
    6.6105  -14.9723   18.6196 N   0  0  0  0  0  0  0  0  0  0  0  0
    7.8678  -14.4939   19.1819 C   0  0  1  0  0  0  0  0  0  0  0  0
    7.8421  -12.9984   19.3379 C   0  0  0  0  0  0  0  0  0  0  0  0
    9.3981  -12.5167   20.1434 S   0  0  0  0  0  0  0  0  0  0  0  0
    8.0220  -15.1878   20.5073 C   0  0  0  0  0  0  0  0  0  0  0  0
    6.9870  -15.1473   21.2590 O   0  0  0  0  0  0  0  0  0  0  0  0
    9.2021  -15.8303   20.8969 N   0  0  0  0  0  0  0  0  0  0  0  0
    9.2414  -16.5368   22.1702 C   0  0  1  0  0  0  0  0  0  0  0  0
   10.1737  -17.6959   22.0987 C   0  0  0  0  0  0  0  0  0  0  0  0
   10.1771  -18.5022   23.3582 C   0  0  0  0  0  0  0  0  0  0  0  0
   11.0937  -19.7231   23.1839 C   0  0  0  0  0  0  0  0  0  0  0  0
   11.0757  -20.4701   24.4997 C   0  0  0  0  0  0  0  0  0  0  0  0
   11.8538  -21.6811   24.3214 N   0  0  0  0  0  0  0  0  0  0  0  0
    9.5706  -15.6471   23.2739 C   0  0  0  0  0  0  0  0  0  0  0  0
   10.5573  -14.9006   23.2462 O   0  0  0  0  0  0  0  0  0  0  0  0
    5.2235  -12.4297   26.6502 C   0  0  0  0  0  0  0  0  0  0  0  0
    6.8557  -11.7044   27.0216 S   0  0  0  0  0  0  0  0  0  0  0  0
    8.0593  -13.0789   27.0433 C   0  0  0  0  0  0  0  0  0  0  0  0
    7.9230  -13.8283   25.7439 C   0  0  0  0  0  0  0  0  0  0  0  0
    9.0332  -14.8158   25.6116 C   0  0  2  0  0  0  0  0  0  0  0  0
    8.7214  -15.6372   24.4321 N   0  0  0  0  0  0  0  0  0  0  0  0
    9.2039  -15.7326   26.7507 C   0  0  0  0  0  0  0  0  0  0  0  0
    9.0105  -17.0926   26.6960 O   0  0  0  0  0  0  0  0  0  0  0  0
    9.5545  -15.2786   27.8918 O   0  0  0  0  0  0  0  0  0  0  0  0
  2  1  1  1
  3  2  1  0
  4  3  1  0
  5  6  2  0
  5  2  1  0
  7  5  1  0
  8  7  1  0
  8  9  1  6
  9 10  1  0
 11 10  1  0
 12 11  1  0
 12 13  1  0
 14  8  1  0
 15 14  2  0
 17 16  1  0
 18 17  1  0
 19 18  1  0
 20 19  1  1
 20 22  1  0
 20 21  1  0
 21 14  1  0
 22 23  1  0
 24 22  2  0
M  END
$$$$
