CKM.pdb
     RDKit          3D

 24 23  0  0  1  0  0  0  0  0999 V2000
    7.4852  -14.6292   18.3514 N   0  0  0  0  0  0  0  0  0  0  0  0
    8.4825  -14.2372   19.3402 C   0  0  1  0  0  0  0  0  0  0  0  0
    8.3139  -12.7911   19.7165 C   0  0  0  0  0  0  0  0  0  0  0  0
    9.3011  -11.8138   18.5449 S   0  0  0  0  0  0  0  0  0  0  0  0
    8.2775  -15.1457   20.5212 C   0  0  0  0  0  0  0  0  0  0  0  0
    7.0797  -15.1814   20.9705 O   0  0  0  0  0  0  0  0  0  0  0  0
    9.3107  -15.8973   21.0912 N   0  0  0  0  0  0  0  0  0  0  0  0
    9.0622  -16.6272   22.3271 C   0  0  1  0  0  0  0  0  0  0  0  0
    9.6880  -17.9776   22.2740 C   0  0  0  0  0  0  0  0  0  0  0  0
    8.9633  -18.9049   21.3512 C   0  0  0  0  0  0  0  0  0  0  0  0
    9.7522  -20.2168   21.2180 C   0  0  0  0  0  0  0  0  0  0  0  0
    8.9695  -21.0989   20.2699 C   0  0  0  0  0  0  0  0  0  0  0  0
    9.7406  -22.3108   20.0687 N   0  0  0  0  0  0  0  0  0  0  0  0
    9.4963  -15.8772   23.4963 C   0  0  0  0  0  0  0  0  0  0  0  0
   10.6749  -15.5371   23.6604 O   0  0  0  0  0  0  0  0  0  0  0  0
    5.9403  -11.4151   25.7489 C   0  0  0  0  0  0  0  0  0  0  0  0
    6.6049  -11.8422   27.3932 S   0  0  0  0  0  0  0  0  0  0  0  0
    8.0449  -12.9335   27.1210 C   0  0  0  0  0  0  0  0  0  0  0  0
    7.7439  -13.8004   25.9266 C   0  0  0  0  0  0  0  0  0  0  0  0
    8.8844  -14.7287   25.6761 C   0  0  2  0  0  0  0  0  0  0  0  0
    8.5233  -15.5215   24.4911 N   0  0  0  0  0  0  0  0  0  0  0  0
    9.1798  -15.6763   26.7633 C   0  0  0  0  0  0  0  0  0  0  0  0
    8.7701  -16.9883   26.7901 O   0  0  0  0  0  0  0  0  0  0  0  0
    9.8608  -15.2983   27.7755 O   0  0  0  0  0  0  0  0  0  0  0  0
  2  1  1  6
  3  2  1  0
  4  3  1  0
  5  6  2  0
  5  2  1  0
  7  5  1  0
  8  7  1  0
  8  9  1  6
  9 10  1  0
 11 10  1  0
 12 11  1  0
 12 13  1  0
 14  8  1  0
 15 14  2  0
 17 16  1  0
 18 17  1  0
 19 18  1  0
 20 19  1  1
 20 22  1  0
 20 21  1  0
 21 14  1  0
 22 23  1  0
 24 22  2  0
M  END
$$$$
