CKM.pdb
     RDKit          3D

 24 23  0  0  1  0  0  0  0  0999 V2000
    6.3320  -19.9781   20.9853 N   0  0  0  0  0  0  0  0  0  0  0  0
    6.1084  -18.8701   21.9062 C   0  0  1  0  0  0  0  0  0  0  0  0
    6.1047  -19.3575   23.3288 C   0  0  0  0  0  0  0  0  0  0  0  0
    4.5721  -20.3043   23.5672 S   0  0  0  0  0  0  0  0  0  0  0  0
    7.2225  -17.8908   21.6578 C   0  0  0  0  0  0  0  0  0  0  0  0
    8.3657  -18.4217   21.4369 O   0  0  0  0  0  0  0  0  0  0  0  0
    7.0327  -16.5046   21.6658 N   0  0  0  0  0  0  0  0  0  0  0  0
    8.1679  -15.6290   21.4078 C   0  0  1  0  0  0  0  0  0  0  0  0
    7.7894  -14.5446   20.4599 C   0  0  0  0  0  0  0  0  0  0  0  0
    8.3806  -14.7445   19.1008 C   0  0  0  0  0  0  0  0  0  0  0  0
    7.9033  -13.6243   18.1634 C   0  0  0  0  0  0  0  0  0  0  0  0
    8.4804  -13.9266   16.7977 C   0  0  0  0  0  0  0  0  0  0  0  0
    7.9666  -12.9286   15.8793 N   0  0  0  0  0  0  0  0  0  0  0  0
    8.7326  -15.0964   22.6389 C   0  0  0  0  0  0  0  0  0  0  0  0
    9.6668  -14.2847   22.6378 O   0  0  0  0  0  0  0  0  0  0  0  0
    6.6138  -10.3853   26.5205 C   0  0  0  0  0  0  0  0  0  0  0  0
    6.4493  -12.1911   26.7202 S   0  0  0  0  0  0  0  0  0  0  0  0
    7.8070  -12.9601   25.7694 C   0  0  0  0  0  0  0  0  0  0  0  0
    7.7087  -14.4517   25.9544 C   0  0  0  0  0  0  0  0  0  0  0  0
    8.7865  -15.1290   25.1768 C   0  0  2  0  0  0  0  0  0  0  0  0
    8.1865  -15.5289   23.8949 N   0  0  0  0  0  0  0  0  0  0  0  0
    9.3464  -16.3420   25.7952 C   0  0  0  0  0  0  0  0  0  0  0  0
    9.3031  -17.5968   25.2353 O   0  0  0  0  0  0  0  0  0  0  0  0
    9.9220  -16.2738   26.9334 O   0  0  0  0  0  0  0  0  0  0  0  0
  2  1  1  6
  3  2  1  0
  4  3  1  0
  5  6  2  0
  5  2  1  0
  7  5  1  0
  8  7  1  0
  8  9  1  6
  9 10  1  0
 11 10  1  0
 12 11  1  0
 12 13  1  0
 14  8  1  0
 15 14  2  0
 17 16  1  0
 18 17  1  0
 19 18  1  0
 20 19  1  1
 20 22  1  0
 20 21  1  0
 21 14  1  0
 22 23  1  0
 24 22  2  0
M  END
$$$$
