CKM.pdb
     RDKit          3D

 24 23  0  0  1  0  0  0  0  0999 V2000
    9.6079  -14.7788   18.7307 N   0  0  0  0  0  0  0  0  0  0  0  0
    8.9099  -13.7560   19.5005 C   0  0  1  0  0  0  0  0  0  0  0  0
    7.9448  -13.0034   18.6267 C   0  0  0  0  0  0  0  0  0  0  0  0
    6.7127  -14.2006   18.0342 S   0  0  0  0  0  0  0  0  0  0  0  0
    8.2029  -14.4814   20.6122 C   0  0  0  0  0  0  0  0  0  0  0  0
    7.4803  -13.7396   21.3640 O   0  0  0  0  0  0  0  0  0  0  0  0
    8.3204  -15.8606   20.8161 N   0  0  0  0  0  0  0  0  0  0  0  0
    7.6625  -16.4692   21.9645 C   0  0  1  0  0  0  0  0  0  0  0  0
    7.6052  -17.9496   21.8127 C   0  0  0  0  0  0  0  0  0  0  0  0
    7.0204  -18.6225   23.0134 C   0  0  0  0  0  0  0  0  0  0  0  0
    6.9143  -20.1335   22.7544 C   0  0  0  0  0  0  0  0  0  0  0  0
    6.3388  -20.7494   24.0109 C   0  0  0  0  0  0  0  0  0  0  0  0
    6.0807  -22.1485   23.7291 N   0  0  0  0  0  0  0  0  0  0  0  0
    8.2903  -16.0795   23.2183 C   0  0  0  0  0  0  0  0  0  0  0  0
    9.5047  -16.2126   23.4162 O   0  0  0  0  0  0  0  0  0  0  0  0
    6.5584  -10.5367   26.4769 C   0  0  0  0  0  0  0  0  0  0  0  0
    6.3273  -11.9268   27.6355 S   0  0  0  0  0  0  0  0  0  0  0  0
    7.5390  -13.2143   27.1743 C   0  0  0  0  0  0  0  0  0  0  0  0
    7.0516  -13.8705   25.9092 C   0  0  0  0  0  0  0  0  0  0  0  0
    8.0593  -14.8627   25.4344 C   0  0  2  0  0  0  0  0  0  0  0  0
    7.4716  -15.5228   24.2588 N   0  0  0  0  0  0  0  0  0  0  0  0
    8.4115  -15.9180   26.3985 C   0  0  0  0  0  0  0  0  0  0  0  0
    9.4318  -15.8306   27.3157 O   0  0  0  0  0  0  0  0  0  0  0  0
    7.7515  -17.0113   26.4214 O   0  0  0  0  0  0  0  0  0  0  0  0
  2  1  1  6
  3  2  1  0
  4  3  1  0
  5  6  2  0
  5  2  1  0
  7  5  1  0
  8  7  1  0
  8  9  1  6
  9 10  1  0
 11 10  1  0
 12 11  1  0
 12 13  1  0
 14  8  1  0
 15 14  2  0
 17 16  1  0
 18 17  1  0
 19 18  1  0
 20 19  1  1
 20 22  1  0
 20 21  1  0
 21 14  1  0
 22 23  1  0
 24 22  2  0
M  END
$$$$
