CKM.pdb
     RDKit          3D

 24 23  0  0  1  0  0  0  0  0999 V2000
    7.5603  -14.4958   17.8908 N   0  0  0  0  0  0  0  0  0  0  0  0
    8.5558  -14.1874   18.9105 C   0  0  1  0  0  0  0  0  0  0  0  0
    8.4627  -12.7436   19.3207 C   0  0  0  0  0  0  0  0  0  0  0  0
    9.2661  -11.7635   18.0183 S   0  0  0  0  0  0  0  0  0  0  0  0
    8.2717  -15.1113   20.0628 C   0  0  0  0  0  0  0  0  0  0  0  0
    7.0691  -15.0730   20.4988 O   0  0  0  0  0  0  0  0  0  0  0  0
    9.2413  -15.9512   20.6213 N   0  0  0  0  0  0  0  0  0  0  0  0
    8.9122  -16.7275   21.8091 C   0  0  1  0  0  0  0  0  0  0  0  0
    9.5575  -18.0685   21.7551 C   0  0  0  0  0  0  0  0  0  0  0  0
    8.9550  -18.9484   20.7066 C   0  0  0  0  0  0  0  0  0  0  0  0
    9.7786  -20.2400   20.5849 C   0  0  0  0  0  0  0  0  0  0  0  0
    9.1673  -21.0390   19.4545 C   0  0  0  0  0  0  0  0  0  0  0  0
    9.9920  -22.2161   19.2601 N   0  0  0  0  0  0  0  0  0  0  0  0
    9.2495  -16.0155   23.0328 C   0  0  0  0  0  0  0  0  0  0  0  0
   10.3831  -15.5649   23.2414 O   0  0  0  0  0  0  0  0  0  0  0  0
    6.5731  -10.7301   26.9445 C   0  0  0  0  0  0  0  0  0  0  0  0
    6.0212  -12.4623   27.0958 S   0  0  0  0  0  0  0  0  0  0  0  0
    7.4928  -13.5162   26.8465 C   0  0  0  0  0  0  0  0  0  0  0  0
    7.3117  -14.2569   25.5476 C   0  0  0  0  0  0  0  0  0  0  0  0
    8.5022  -15.1169   25.2864 C   0  0  2  0  0  0  0  0  0  0  0  0
    8.2321  -15.8313   24.0295 N   0  0  0  0  0  0  0  0  0  0  0  0
    8.7876  -16.1318   26.3140 C   0  0  0  0  0  0  0  0  0  0  0  0
    9.3909  -15.8737   27.5220 O   0  0  0  0  0  0  0  0  0  0  0  0
    8.4715  -17.3530   26.1138 O   0  0  0  0  0  0  0  0  0  0  0  0
  2  1  1  6
  3  2  1  0
  4  3  1  0
  5  6  2  0
  5  2  1  0
  7  5  1  0
  8  7  1  0
  8  9  1  6
  9 10  1  0
 11 10  1  0
 12 11  1  0
 12 13  1  0
 14  8  1  0
 15 14  2  0
 17 16  1  0
 18 17  1  0
 19 18  1  0
 20 19  1  1
 20 22  1  0
 20 21  1  0
 21 14  1  0
 22 23  1  0
 24 22  2  0
M  END
$$$$
