CKM.pdb
     RDKit          3D

 24 23  0  0  1  0  0  0  0  0999 V2000
    8.7240  -17.8001   18.0761 N   0  0  0  0  0  0  0  0  0  0  0  0
    9.0742  -18.7098   19.1603 C   0  0  1  0  0  0  0  0  0  0  0  0
   10.5619  -18.7243   19.3787 C   0  0  0  0  0  0  0  0  0  0  0  0
   11.2260  -17.1994   18.6466 S   0  0  0  0  0  0  0  0  0  0  0  0
    8.3396  -18.2124   20.3749 C   0  0  0  0  0  0  0  0  0  0  0  0
    7.7978  -17.0607   20.2413 O   0  0  0  0  0  0  0  0  0  0  0  0
    8.2505  -18.9454   21.5632 N   0  0  0  0  0  0  0  0  0  0  0  0
    7.3777  -18.4711   22.6287 C   0  0  1  0  0  0  0  0  0  0  0  0
    6.8230  -19.6167   23.4018 C   0  0  0  0  0  0  0  0  0  0  0  0
    5.6120  -20.2079   22.7534 C   0  0  0  0  0  0  0  0  0  0  0  0
    5.0572  -21.3374   23.6352 C   0  0  0  0  0  0  0  0  0  0  0  0
    3.9248  -21.9757   22.8606 C   0  0  0  0  0  0  0  0  0  0  0  0
    3.3182  -22.9726   23.7219 N   0  0  0  0  0  0  0  0  0  0  0  0
    8.0493  -17.5119   23.4930 C   0  0  0  0  0  0  0  0  0  0  0  0
    9.2653  -17.5658   23.7171 O   0  0  0  0  0  0  0  0  0  0  0  0
    6.6651  -10.9877   27.7244 C   0  0  0  0  0  0  0  0  0  0  0  0
    6.0142  -12.2104   26.5373 S   0  0  0  0  0  0  0  0  0  0  0  0
    7.3364  -13.4399   26.2568 C   0  0  0  0  0  0  0  0  0  0  0  0
    6.8167  -14.4558   25.2737 C   0  0  0  0  0  0  0  0  0  0  0  0
    7.8984  -15.4230   24.9278 C   0  0  2  0  0  0  0  0  0  0  0  0
    7.2734  -16.4698   24.1051 N   0  0  0  0  0  0  0  0  0  0  0  0
    8.5402  -16.0907   26.0721 C   0  0  0  0  0  0  0  0  0  0  0  0
    8.1986  -17.3361   26.5434 O   0  0  0  0  0  0  0  0  0  0  0  0
    9.4859  -15.5103   26.7048 O   0  0  0  0  0  0  0  0  0  0  0  0
  2  1  1  6
  3  2  1  0
  4  3  1  0
  5  6  2  0
  5  2  1  0
  7  5  1  0
  8  7  1  0
  8  9  1  1
  9 10  1  0
 11 10  1  0
 12 11  1  0
 12 13  1  0
 14  8  1  0
 15 14  2  0
 17 16  1  0
 18 17  1  0
 19 18  1  0
 20 19  1  1
 20 22  1  0
 20 21  1  0
 21 14  1  0
 22 23  1  0
 24 22  2  0
M  END
$$$$
