CKM.pdb
     RDKit          3D

 24 23  0  0  1  0  0  0  0  0999 V2000
    6.9939  -14.8482   18.1374 N   0  0  0  0  0  0  0  0  0  0  0  0
    8.1035  -14.3746   18.9562 C   0  0  1  0  0  0  0  0  0  0  0  0
    7.9681  -12.9020   19.2292 C   0  0  0  0  0  0  0  0  0  0  0  0
    9.3724  -12.4197   20.2767 S   0  0  0  0  0  0  0  0  0  0  0  0
    8.0585  -15.1808   20.2250 C   0  0  0  0  0  0  0  0  0  0  0  0
    6.8978  -15.2879   20.7532 O   0  0  0  0  0  0  0  0  0  0  0  0
    9.1932  -15.7717   20.7914 N   0  0  0  0  0  0  0  0  0  0  0  0
    9.0520  -16.5665   22.0040 C   0  0  1  0  0  0  0  0  0  0  0  0
    9.7825  -17.8576   21.8733 C   0  0  0  0  0  0  0  0  0  0  0  0
    8.8638  -19.0067   21.6049 C   0  0  0  0  0  0  0  0  0  0  0  0
    9.6909  -20.2735   21.3361 C   0  0  0  0  0  0  0  0  0  0  0  0
    8.7120  -21.3510   20.9234 C   0  0  0  0  0  0  0  0  0  0  0  0
    9.4647  -22.5793   20.7550 N   0  0  0  0  0  0  0  0  0  0  0  0
    9.4685  -15.8286   23.1874 C   0  0  0  0  0  0  0  0  0  0  0  0
   10.6498  -15.5191   23.3887 O   0  0  0  0  0  0  0  0  0  0  0  0
    5.1967  -12.2331   26.0996 C   0  0  0  0  0  0  0  0  0  0  0  0
    6.6521  -11.7786   27.1012 S   0  0  0  0  0  0  0  0  0  0  0  0
    7.8136  -13.1871   27.0266 C   0  0  0  0  0  0  0  0  0  0  0  0
    7.5990  -13.8892   25.7114 C   0  0  0  0  0  0  0  0  0  0  0  0
    8.8189  -14.6677   25.3496 C   0  0  2  0  0  0  0  0  0  0  0  0
    8.4744  -15.4485   24.1517 N   0  0  0  0  0  0  0  0  0  0  0  0
    9.2894  -15.6179   26.3709 C   0  0  0  0  0  0  0  0  0  0  0  0
    9.1628  -16.9841   26.2857 O   0  0  0  0  0  0  0  0  0  0  0  0
    9.8609  -15.1896   27.4298 O   0  0  0  0  0  0  0  0  0  0  0  0
  2  1  1  6
  3  2  1  0
  4  3  1  0
  5  6  2  0
  5  2  1  0
  7  5  1  0
  8  7  1  0
  8  9  1  6
  9 10  1  0
 11 10  1  0
 12 11  1  0
 12 13  1  0
 14  8  1  0
 15 14  2  0
 17 16  1  0
 18 17  1  0
 19 18  1  0
 20 19  1  1
 20 22  1  0
 20 21  1  0
 21 14  1  0
 22 23  1  0
 24 22  2  0
M  END
$$$$
