CKM.pdb
     RDKit          3D

 24 23  0  0  1  0  0  0  0  0999 V2000
    7.5480  -15.0428   17.7540 N   0  0  0  0  0  0  0  0  0  0  0  0
    8.4416  -14.4942   18.7670 C   0  0  1  0  0  0  0  0  0  0  0  0
    8.0852  -13.0647   19.0682 C   0  0  0  0  0  0  0  0  0  0  0  0
    8.6248  -12.0671   17.6485 S   0  0  0  0  0  0  0  0  0  0  0  0
    8.2867  -15.3721   19.9784 C   0  0  0  0  0  0  0  0  0  0  0  0
    7.0913  -15.4651   20.4257 O   0  0  0  0  0  0  0  0  0  0  0  0
    9.3611  -16.0393   20.5768 N   0  0  0  0  0  0  0  0  0  0  0  0
    9.1337  -16.8080   21.7930 C   0  0  1  0  0  0  0  0  0  0  0  0
    9.9652  -18.0434   21.7963 C   0  0  0  0  0  0  0  0  0  0  0  0
    9.3946  -19.1159   20.9241 C   0  0  0  0  0  0  0  0  0  0  0  0
   10.3056  -20.3526   20.9685 C   0  0  0  0  0  0  0  0  0  0  0  0
    9.6452  -21.4086   20.1091 C   0  0  0  0  0  0  0  0  0  0  0  0
   10.5228  -22.5631   20.0899 N   0  0  0  0  0  0  0  0  0  0  0  0
    9.3520  -16.0077   22.9889 C   0  0  0  0  0  0  0  0  0  0  0  0
   10.4072  -15.3918   23.1856 O   0  0  0  0  0  0  0  0  0  0  0  0
    6.5537  -11.1567   28.0269 C   0  0  0  0  0  0  0  0  0  0  0  0
    6.4568  -12.0527   26.4408 S   0  0  0  0  0  0  0  0  0  0  0  0
    7.1486  -13.7197   26.7251 C   0  0  0  0  0  0  0  0  0  0  0  0
    7.1353  -14.4523   25.4091 C   0  0  0  0  0  0  0  0  0  0  0  0
    8.4504  -15.1215   25.1904 C   0  0  2  0  0  0  0  0  0  0  0  0
    8.3074  -15.9322   23.9716 N   0  0  0  0  0  0  0  0  0  0  0  0
    8.8880  -16.0243   26.2677 C   0  0  0  0  0  0  0  0  0  0  0  0
    9.4696  -15.6143   27.4440 O   0  0  0  0  0  0  0  0  0  0  0  0
    8.7387  -17.2870   26.1460 O   0  0  0  0  0  0  0  0  0  0  0  0
  2  1  1  6
  3  2  1  0
  4  3  1  0
  5  6  2  0
  5  2  1  0
  7  5  1  0
  8  7  1  0
  8  9  1  1
  9 10  1  0
 11 10  1  0
 12 11  1  0
 12 13  1  0
 14  8  1  0
 15 14  2  0
 17 16  1  0
 18 17  1  0
 19 18  1  0
 20 19  1  1
 20 22  1  0
 20 21  1  0
 21 14  1  0
 22 23  1  0
 24 22  2  0
M  END
$$$$
