CKM.pdb
     RDKit          3D

 24 23  0  0  1  0  0  0  0  0999 V2000
    8.0786  -12.8426   18.7852 N   0  0  0  0  0  0  0  0  0  0  0  0
    8.6442  -14.1799   18.9173 C   0  0  1  0  0  0  0  0  0  0  0  0
   10.1416  -14.1113   19.0374 C   0  0  0  0  0  0  0  0  0  0  0  0
   10.5177  -12.9952   20.4213 S   0  0  0  0  0  0  0  0  0  0  0  0
    8.0156  -14.7784   20.1456 C   0  0  0  0  0  0  0  0  0  0  0  0
    7.2899  -13.9726   20.8252 O   0  0  0  0  0  0  0  0  0  0  0  0
    8.2044  -16.1121   20.5239 N   0  0  0  0  0  0  0  0  0  0  0  0
    7.6032  -16.5936   21.7603 C   0  0  1  0  0  0  0  0  0  0  0  0
    7.5349  -18.0812   21.7661 C   0  0  0  0  0  0  0  0  0  0  0  0
    6.9193  -18.6178   23.0190 C   0  0  0  0  0  0  0  0  0  0  0  0
    6.9578  -20.1538   22.9929 C   0  0  0  0  0  0  0  0  0  0  0  0
    6.2063  -20.6271   24.2179 C   0  0  0  0  0  0  0  0  0  0  0  0
    6.1989  -22.0772   24.1887 N   0  0  0  0  0  0  0  0  0  0  0  0
    8.2937  -16.0808   22.9344 C   0  0  0  0  0  0  0  0  0  0  0  0
    9.5280  -16.0801   23.0246 O   0  0  0  0  0  0  0  0  0  0  0  0
    6.5580  -10.5459   26.3457 C   0  0  0  0  0  0  0  0  0  0  0  0
    6.3935  -11.9960   27.4403 S   0  0  0  0  0  0  0  0  0  0  0  0
    7.6456  -13.2145   26.9054 C   0  0  0  0  0  0  0  0  0  0  0  0
    7.1315  -13.8823   25.6570 C   0  0  0  0  0  0  0  0  0  0  0  0
    8.1410  -14.8588   25.1543 C   0  0  2  0  0  0  0  0  0  0  0  0
    7.5151  -15.5594   24.0227 N   0  0  0  0  0  0  0  0  0  0  0  0
    8.5670  -15.8833   26.1218 C   0  0  0  0  0  0  0  0  0  0  0  0
    9.6191  -15.7445   26.9958 O   0  0  0  0  0  0  0  0  0  0  0  0
    7.9465  -16.9976   26.1902 O   0  0  0  0  0  0  0  0  0  0  0  0
  2  1  1  1
  3  2  1  0
  4  3  1  0
  5  6  2  0
  5  2  1  0
  7  5  1  0
  8  7  1  0
  8  9  1  6
  9 10  1  0
 11 10  1  0
 12 11  1  0
 12 13  1  0
 14  8  1  0
 15 14  2  0
 17 16  1  0
 18 17  1  0
 19 18  1  0
 20 19  1  1
 20 22  1  0
 20 21  1  0
 21 14  1  0
 22 23  1  0
 24 22  2  0
M  END
$$$$
