CKM.pdb
     RDKit          3D

 24 23  0  0  1  0  0  0  0  0999 V2000
    7.6290  -15.0629   17.9310 N   0  0  0  0  0  0  0  0  0  0  0  0
    8.1793  -14.4529   19.1355 C   0  0  1  0  0  0  0  0  0  0  0  0
    7.8104  -12.9968   19.2067 C   0  0  0  0  0  0  0  0  0  0  0  0
    9.1078  -12.0718   18.3330 S   0  0  0  0  0  0  0  0  0  0  0  0
    7.6094  -15.2272   20.2921 C   0  0  0  0  0  0  0  0  0  0  0  0
    6.3589  -15.0466   20.4960 O   0  0  0  0  0  0  0  0  0  0  0  0
    8.3794  -16.0811   21.0891 N   0  0  0  0  0  0  0  0  0  0  0  0
    7.7669  -16.7205   22.2458 C   0  0  1  0  0  0  0  0  0  0  0  0
    7.8721  -18.2025   22.1432 C   0  0  0  0  0  0  0  0  0  0  0  0
    7.2697  -18.8988   23.3217 C   0  0  0  0  0  0  0  0  0  0  0  0
    7.3149  -20.4185   23.0984 C   0  0  0  0  0  0  0  0  0  0  0  0
    6.6617  -21.0538   24.3065 C   0  0  0  0  0  0  0  0  0  0  0  0
    6.8240  -22.4897   24.1823 N   0  0  0  0  0  0  0  0  0  0  0  0
    8.3229  -16.2257   23.4965 C   0  0  0  0  0  0  0  0  0  0  0  0
    9.5427  -16.1654   23.6969 O   0  0  0  0  0  0  0  0  0  0  0  0
    6.4157  -11.3213   28.3260 C   0  0  0  0  0  0  0  0  0  0  0  0
    5.9435  -11.7762   26.6237 S   0  0  0  0  0  0  0  0  0  0  0  0
    7.2574  -12.8696   25.9783 C   0  0  0  0  0  0  0  0  0  0  0  0
    6.8592  -14.2910   26.2775 C   0  0  0  0  0  0  0  0  0  0  0  0
    7.9175  -15.2245   25.7939 C   0  0  2  0  0  0  0  0  0  0  0  0
    7.4246  -15.7940   24.5307 N   0  0  0  0  0  0  0  0  0  0  0  0
    8.2264  -16.3504   26.6906 C   0  0  0  0  0  0  0  0  0  0  0  0
    9.3306  -16.4204   27.5065 O   0  0  0  0  0  0  0  0  0  0  0  0
    7.4428  -17.3574   26.7482 O   0  0  0  0  0  0  0  0  0  0  0  0
  2  1  1  6
  3  2  1  0
  4  3  1  0
  5  6  2  0
  5  2  1  0
  7  5  1  0
  8  7  1  0
  8  9  1  6
  9 10  1  0
 11 10  1  0
 12 11  1  0
 12 13  1  0
 14  8  1  0
 15 14  2  0
 17 16  1  0
 18 17  1  0
 19 18  1  0
 20 19  1  1
 20 22  1  0
 20 21  1  0
 21 14  1  0
 22 23  1  0
 24 22  2  0
M  END
$$$$
