CKM.pdb
     RDKit          3D

 24 23  0  0  1  0  0  0  0  0999 V2000
    6.5853  -14.8717   18.1863 N   0  0  0  0  0  0  0  0  0  0  0  0
    7.8218  -14.4311   18.8207 C   0  0  1  0  0  0  0  0  0  0  0  0
    7.7918  -12.9474   19.0638 C   0  0  0  0  0  0  0  0  0  0  0  0
    9.3169  -12.5191   19.9542 S   0  0  0  0  0  0  0  0  0  0  0  0
    7.9275  -15.2025   20.1076 C   0  0  0  0  0  0  0  0  0  0  0  0
    6.8600  -15.2196   20.8133 O   0  0  0  0  0  0  0  0  0  0  0  0
    9.0984  -15.8539   20.5101 N   0  0  0  0  0  0  0  0  0  0  0  0
    9.1015  -16.6073   21.7568 C   0  0  1  0  0  0  0  0  0  0  0  0
    9.9559  -17.8209   21.6345 C   0  0  0  0  0  0  0  0  0  0  0  0
    9.9444  -18.6527   22.8772 C   0  0  0  0  0  0  0  0  0  0  0  0
   10.9509  -19.8050   22.7332 C   0  0  0  0  0  0  0  0  0  0  0  0
   10.9078  -20.5830   24.0303 C   0  0  0  0  0  0  0  0  0  0  0  0
   11.9287  -21.6103   23.9539 N   0  0  0  0  0  0  0  0  0  0  0  0
    9.4965  -15.7815   22.8883 C   0  0  0  0  0  0  0  0  0  0  0  0
   10.2075  -14.7775   22.7544 O   0  0  0  0  0  0  0  0  0  0  0  0
    6.1713  -11.3572   27.7111 C   0  0  0  0  0  0  0  0  0  0  0  0
    6.2493  -12.4675   26.2658 S   0  0  0  0  0  0  0  0  0  0  0  0
    7.7770  -13.4559   26.4325 C   0  0  0  0  0  0  0  0  0  0  0  0
    7.8764  -14.3533   25.2269 C   0  0  0  0  0  0  0  0  0  0  0  0
    9.1000  -15.2006   25.3275 C   0  0  2  0  0  0  0  0  0  0  0  0
    9.0454  -16.1460   24.2022 N   0  0  0  0  0  0  0  0  0  0  0  0
    9.2200  -15.9950   26.5611 C   0  0  0  0  0  0  0  0  0  0  0  0
    8.9284  -17.3348   26.6601 O   0  0  0  0  0  0  0  0  0  0  0  0
    9.6182  -15.4437   27.6422 O   0  0  0  0  0  0  0  0  0  0  0  0
  2  1  1  1
  3  2  1  0
  4  3  1  0
  5  6  2  0
  5  2  1  0
  7  5  1  0
  8  7  1  0
  8  9  1  6
  9 10  1  0
 11 10  1  0
 12 11  1  0
 12 13  1  0
 14  8  1  0
 15 14  2  0
 17 16  1  0
 18 17  1  0
 19 18  1  0
 20 19  1  1
 20 22  1  0
 20 21  1  0
 21 14  1  0
 22 23  1  0
 24 22  2  0
M  END
$$$$
