CKM.pdb
     RDKit          3D

 24 23  0  0  1  0  0  0  0  0999 V2000
    4.6681  -18.1954   23.7786 N   0  0  0  0  0  0  0  0  0  0  0  0
    5.2841  -18.9365   22.6845 C   0  0  1  0  0  0  0  0  0  0  0  0
    4.2535  -19.3178   21.6579 C   0  0  0  0  0  0  0  0  0  0  0  0
    3.0127  -17.9905   21.6255 S   0  0  0  0  0  0  0  0  0  0  0  0
    6.3345  -18.0288   22.1060 C   0  0  0  0  0  0  0  0  0  0  0  0
    7.1287  -18.5879   21.2727 O   0  0  0  0  0  0  0  0  0  0  0  0
    6.4426  -16.6762   22.4469 N   0  0  0  0  0  0  0  0  0  0  0  0
    7.5504  -15.8940   21.9149 C   0  0  1  0  0  0  0  0  0  0  0  0
    7.0462  -14.7862   21.0568 C   0  0  0  0  0  0  0  0  0  0  0  0
    8.1546  -13.9838   20.4536 C   0  0  0  0  0  0  0  0  0  0  0  0
    7.6537  -13.2974   19.1732 C   0  0  0  0  0  0  0  0  0  0  0  0
    8.8826  -12.8539   18.4099 C   0  0  0  0  0  0  0  0  0  0  0  0
    8.4323  -12.2990   17.1478 N   0  0  0  0  0  0  0  0  0  0  0  0
    8.4241  -15.4037   22.9706 C   0  0  0  0  0  0  0  0  0  0  0  0
    9.0834  -14.3633   22.8497 O   0  0  0  0  0  0  0  0  0  0  0  0
    7.0985  -11.3010   25.7868 C   0  0  0  0  0  0  0  0  0  0  0  0
    6.7906  -12.4463   27.1730 S   0  0  0  0  0  0  0  0  0  0  0  0
    8.0073  -13.8017   27.0271 C   0  0  0  0  0  0  0  0  0  0  0  0
    7.7883  -14.4731   25.6967 C   0  0  0  0  0  0  0  0  0  0  0  0
    8.8415  -15.5054   25.4726 C   0  0  2  0  0  0  0  0  0  0  0  0
    8.5231  -16.1537   24.1914 N   0  0  0  0  0  0  0  0  0  0  0  0
    8.9167  -16.5646   26.4922 C   0  0  0  0  0  0  0  0  0  0  0  0
    8.5134  -17.8648   26.3007 O   0  0  0  0  0  0  0  0  0  0  0  0
    9.3814  -16.3047   27.6532 O   0  0  0  0  0  0  0  0  0  0  0  0
  2  1  1  1
  3  2  1  0
  4  3  1  0
  5  6  2  0
  5  2  1  0
  7  5  1  0
  8  7  1  0
  8  9  1  1
  9 10  1  0
 11 10  1  0
 12 11  1  0
 12 13  1  0
 14  8  1  0
 15 14  2  0
 17 16  1  0
 18 17  1  0
 19 18  1  0
 20 19  1  1
 20 22  1  0
 20 21  1  0
 21 14  1  0
 22 23  1  0
 24 22  2  0
M  END
$$$$
