NEN.pdb
     RDKit          3D

 26 25  0  0  1  0  0  0  0  0999 V2000
    6.8963  -12.3199   17.7247 N   0  0  0  0  0  0  0  0  0  0  0  0
    7.0123  -13.5362   16.9977 C   0  0  0  0  0  0  0  0  0  0  0  0
    6.2451  -13.6781   15.9973 O   0  0  0  0  0  0  0  0  0  0  0  0
    7.9843  -14.5974   17.3852 C   0  0  0  0  0  0  0  0  0  0  0  0
    8.7284  -14.1840   18.6005 C   0  0  2  0  0  0  0  0  0  0  0  0
    9.0619  -12.7610   18.4414 N   0  0  0  0  0  0  0  0  0  0  0  0
    9.9455  -14.9694   18.9086 C   0  0  0  0  0  0  0  0  0  0  0  0
    9.8041  -16.1975   19.1011 O   0  0  0  0  0  0  0  0  0  0  0  0
   11.2371  -14.3959   18.9900 N   0  0  0  0  0  0  0  0  0  0  0  0
   12.4686  -15.0547   19.2886 C   0  0  1  0  0  0  0  0  0  0  0  0
   13.6985  -14.4733   18.6177 C   0  0  0  0  0  0  0  0  0  0  0  0
   14.9691  -15.2023   18.9137 C   0  0  0  0  0  0  0  0  0  0  0  0
   16.0473  -14.5071   18.1584 C   0  0  0  0  0  0  0  0  0  0  0  0
   17.1766  -14.4228   18.7162 O   0  0  0  0  0  0  0  0  0  0  0  0
   12.7066  -15.1811   20.7187 C   0  0  0  0  0  0  0  0  0  0  0  0
   12.9824  -14.1060   21.3556 O   0  0  0  0  0  0  0  0  0  0  0  0
   15.8458  -13.9743   16.9109 O   0  0  0  0  0  0  0  0  0  0  0  0
   12.0077  -16.4569   25.5841 N   0  0  0  0  0  0  0  0  0  0  0  0
   11.7703  -17.5856   24.7764 C   0  0  0  0  0  0  0  0  0  0  0  0
   11.1005  -18.5847   25.1805 O   0  0  0  0  0  0  0  0  0  0  0  0
   12.2954  -17.6484   23.4158 C   0  0  0  0  0  0  0  0  0  0  0  0
   12.9805  -16.4221   22.9133 C   0  0  2  0  0  0  0  0  0  0  0  0
   12.6653  -16.3607   21.4725 N   0  0  0  0  0  0  0  0  0  0  0  0
   14.4468  -16.4348   23.0182 C   0  0  0  0  0  0  0  0  0  0  0  0
   15.0461  -16.0065   24.0196 O   0  0  0  0  0  0  0  0  0  0  0  0
   15.2080  -16.9357   21.9795 O   0  0  0  0  0  0  0  0  0  0  0  0
  2  1  1  0
  2  3  2  0
  4  2  1  0
  5  4  1  0
  5  7  1  0
  5  6  1  6
  7  8  2  0
  9  7  1  0
  9 10  1  0
 10 11  1  6
 11 12  1  0
 12 13  1  0
 13 17  1  0
 14 13  2  0
 15 10  1  0
 15 16  2  0
 18 19  1  0
 19 21  1  0
 20 19  2  0
 22 21  1  6
 22 23  1  0
 23 15  1  0
 24 26  1  0
 24 22  1  0
 25 24  2  0
M  END
$$$$
