NEN.pdb
     RDKit          3D

 26 25  0  0  1  0  0  0  0  0999 V2000
   10.9394  -17.7034   13.8406 N   0  0  0  0  0  0  0  0  0  0  0  0
   11.6248  -16.4612   13.7479 C   0  0  0  0  0  0  0  0  0  0  0  0
   11.6756  -15.9221   12.6006 O   0  0  0  0  0  0  0  0  0  0  0  0
   12.2552  -15.8173   14.9349 C   0  0  0  0  0  0  0  0  0  0  0  0
   11.2475  -15.6375   16.0091 C   0  0  2  0  0  0  0  0  0  0  0  0
   10.1928  -14.7652   15.4724 N   0  0  0  0  0  0  0  0  0  0  0  0
   11.7608  -15.1009   17.2903 C   0  0  0  0  0  0  0  0  0  0  0  0
   12.6291  -14.2022   17.2308 O   0  0  0  0  0  0  0  0  0  0  0  0
   11.3142  -15.5553   18.5544 N   0  0  0  0  0  0  0  0  0  0  0  0
   11.9060  -15.3088   19.8306 C   0  0  1  0  0  0  0  0  0  0  0  0
   11.2297  -15.9896   21.0054 C   0  0  0  0  0  0  0  0  0  0  0  0
   11.7971  -15.6306   22.3406 C   0  0  0  0  0  0  0  0  0  0  0  0
   11.0393  -16.4163   23.3529 C   0  0  0  0  0  0  0  0  0  0  0  0
   11.3245  -16.2160   24.5662 O   0  0  0  0  0  0  0  0  0  0  0  0
   13.3322  -15.5971   19.8546 C   0  0  0  0  0  0  0  0  0  0  0  0
   13.8491  -16.0457   18.7733 O   0  0  0  0  0  0  0  0  0  0  0  0
   10.0702  -17.3226   23.0061 O   0  0  0  0  0  0  0  0  0  0  0  0
   15.9669  -14.6604   17.7958 N   0  0  0  0  0  0  0  0  0  0  0  0
   16.2656  -13.7020   18.7832 C   0  0  0  0  0  0  0  0  0  0  0  0
   17.1189  -12.7804   18.6030 O   0  0  0  0  0  0  0  0  0  0  0  0
   15.5894  -13.7332   20.0765 C   0  0  0  0  0  0  0  0  0  0  0  0
   15.6148  -15.0345   20.8057 C   0  0  2  0  0  0  0  0  0  0  0  0
   14.2003  -15.4343   20.9414 N   0  0  0  0  0  0  0  0  0  0  0  0
   16.1643  -14.9798   22.1681 C   0  0  0  0  0  0  0  0  0  0  0  0
   15.4398  -14.9016   23.1753 O   0  0  0  0  0  0  0  0  0  0  0  0
   17.5320  -15.0153   22.3620 O   0  0  0  0  0  0  0  0  0  0  0  0
  2  1  1  0
  2  3  2  0
  4  2  1  0
  5  4  1  0
  5  7  1  0
  5  6  1  6
  7  8  2  0
  9  7  1  0
  9 10  1  0
 10 11  1  1
 11 12  1  0
 12 13  1  0
 13 17  1  0
 14 13  2  0
 15 10  1  0
 15 16  2  0
 18 19  1  0
 19 21  1  0
 20 19  2  0
 22 21  1  1
 22 23  1  0
 23 15  1  0
 24 26  1  0
 24 22  1  0
 25 24  2  0
M  END
$$$$
