NEN.pdb
     RDKit          3D

 26 25  0  0  1  0  0  0  0  0999 V2000
    6.6245  -13.5893   17.2442 N   0  0  0  0  0  0  0  0  0  0  0  0
    7.6689  -13.7190   18.2002 C   0  0  0  0  0  0  0  0  0  0  0  0
    8.4754  -14.6845   18.0363 O   0  0  0  0  0  0  0  0  0  0  0  0
    7.8160  -12.7720   19.3414 C   0  0  0  0  0  0  0  0  0  0  0  0
    9.0726  -13.0564   20.0774 C   0  0  2  0  0  0  0  0  0  0  0  0
   10.1679  -13.0140   19.0976 N   0  0  0  0  0  0  0  0  0  0  0  0
    9.1025  -14.3300   20.8323 C   0  0  0  0  0  0  0  0  0  0  0  0
    8.1904  -14.5262   21.6659 O   0  0  0  0  0  0  0  0  0  0  0  0
   10.1023  -15.3153   20.6492 N   0  0  0  0  0  0  0  0  0  0  0  0
   10.2265  -16.5696   21.3207 C   0  0  1  0  0  0  0  0  0  0  0  0
   10.8607  -17.6834   20.5095 C   0  0  0  0  0  0  0  0  0  0  0  0
   10.8880  -19.0113   21.1949 C   0  0  0  0  0  0  0  0  0  0  0  0
   11.5578  -19.9600   20.2635 C   0  0  0  0  0  0  0  0  0  0  0  0
   12.6823  -19.6161   19.8041 O   0  0  0  0  0  0  0  0  0  0  0  0
   10.9017  -16.4558   22.6048 C   0  0  0  0  0  0  0  0  0  0  0  0
   11.9305  -15.6963   22.6512 O   0  0  0  0  0  0  0  0  0  0  0  0
   10.9973  -21.1595   19.9062 O   0  0  0  0  0  0  0  0  0  0  0  0
   10.2210  -16.2065   28.5151 N   0  0  0  0  0  0  0  0  0  0  0  0
   10.7335  -17.0470   27.5083 C   0  0  0  0  0  0  0  0  0  0  0  0
   11.6244  -17.9209   27.7377 O   0  0  0  0  0  0  0  0  0  0  0  0
   10.2476  -16.9428   26.1358 C   0  0  0  0  0  0  0  0  0  0  0  0
   11.2857  -16.9406   25.0643 C   0  0  2  0  0  0  0  0  0  0  0  0
   10.5414  -17.0934   23.7986 N   0  0  0  0  0  0  0  0  0  0  0  0
   12.2462  -18.0522   25.1188 C   0  0  0  0  0  0  0  0  0  0  0  0
   13.4112  -17.9056   25.5271 O   0  0  0  0  0  0  0  0  0  0  0  0
   11.8640  -19.3146   24.7069 O   0  0  0  0  0  0  0  0  0  0  0  0
  2  1  1  0
  2  3  2  0
  4  2  1  0
  5  4  1  0
  5  7  1  0
  5  6  1  6
  7  8  2  0
  9  7  1  0
  9 10  1  0
 10 11  1  6
 11 12  1  0
 12 13  1  0
 13 17  1  0
 14 13  2  0
 15 10  1  0
 15 16  2  0
 18 19  1  0
 19 21  1  0
 20 19  2  0
 22 21  1  1
 22 23  1  0
 23 15  1  0
 24 26  1  0
 24 22  1  0
 25 24  2  0
M  END
$$$$
