NEN.pdb
     RDKit          3D

 26 25  0  0  1  0  0  0  0  0999 V2000
    7.4519  -13.5098   14.3241 N   0  0  0  0  0  0  0  0  0  0  0  0
    8.2650  -14.5600   14.8313 C   0  0  0  0  0  0  0  0  0  0  0  0
    8.4763  -15.5425   14.0569 O   0  0  0  0  0  0  0  0  0  0  0  0
    8.8443  -14.5169   16.2037 C   0  0  0  0  0  0  0  0  0  0  0  0
    8.4204  -15.7142   16.9707 C   0  0  2  0  0  0  0  0  0  0  0  0
    6.9581  -15.6466   17.1067 N   0  0  0  0  0  0  0  0  0  0  0  0
    9.0561  -15.8876   18.2969 C   0  0  0  0  0  0  0  0  0  0  0  0
    8.9626  -14.9396   19.1079 O   0  0  0  0  0  0  0  0  0  0  0  0
    9.7498  -17.0620   18.6754 N   0  0  0  0  0  0  0  0  0  0  0  0
   10.3992  -17.3312   19.9186 C   0  0  1  0  0  0  0  0  0  0  0  0
   10.1349  -18.7033   20.5087 C   0  0  0  0  0  0  0  0  0  0  0  0
   10.8117  -18.9564   21.8170 C   0  0  0  0  0  0  0  0  0  0  0  0
   10.5611  -20.3833   22.1594 C   0  0  0  0  0  0  0  0  0  0  0  0
   11.0496  -21.2537   21.3864 O   0  0  0  0  0  0  0  0  0  0  0  0
   11.8334  -17.0898   19.8680 C   0  0  0  0  0  0  0  0  0  0  0  0
   12.4436  -17.4563   18.8045 O   0  0  0  0  0  0  0  0  0  0  0  0
    9.8351  -20.7593   23.2605 O   0  0  0  0  0  0  0  0  0  0  0  0
   16.3103  -13.9566   21.6716 N   0  0  0  0  0  0  0  0  0  0  0  0
   15.5576  -14.2388   20.5154 C   0  0  0  0  0  0  0  0  0  0  0  0
   16.0126  -14.0591   19.3447 O   0  0  0  0  0  0  0  0  0  0  0  0
   14.1987  -14.7608   20.6236 C   0  0  0  0  0  0  0  0  0  0  0  0
   14.0651  -16.2432   20.7251 C   0  0  2  0  0  0  0  0  0  0  0  0
   12.6175  -16.4966   20.8653 N   0  0  0  0  0  0  0  0  0  0  0  0
   14.7095  -16.8526   21.8975 C   0  0  0  0  0  0  0  0  0  0  0  0
   15.9218  -17.1266   21.9232 O   0  0  0  0  0  0  0  0  0  0  0  0
   13.9619  -17.1407   23.0233 O   0  0  0  0  0  0  0  0  0  0  0  0
  2  1  1  0
  2  3  2  0
  4  2  1  0
  5  4  1  0
  5  7  1  0
  5  6  1  1
  7  8  2  0
  9  7  1  0
  9 10  1  0
 10 11  1  6
 11 12  1  0
 12 13  1  0
 13 17  1  0
 14 13  2  0
 15 10  1  0
 15 16  2  0
 18 19  1  0
 19 21  1  0
 20 19  2  0
 22 21  1  1
 22 23  1  0
 23 15  1  0
 24 26  1  0
 24 22  1  0
 25 24  2  0
M  END
$$$$
