NEN.pdb
     RDKit          3D

 26 25  0  0  1  0  0  0  0  0999 V2000
   11.5864  -14.8706   17.2751 N   0  0  0  0  0  0  0  0  0  0  0  0
   12.0755  -14.0494   18.3276 C   0  0  0  0  0  0  0  0  0  0  0  0
   13.2823  -13.6681   18.2397 O   0  0  0  0  0  0  0  0  0  0  0  0
   11.2195  -13.6517   19.4809 C   0  0  0  0  0  0  0  0  0  0  0  0
    9.8120  -14.0469   19.2276 C   0  0  2  0  0  0  0  0  0  0  0  0
    9.2482  -13.0654   18.2893 N   0  0  0  0  0  0  0  0  0  0  0  0
    8.9519  -14.1698   20.4268 C   0  0  0  0  0  0  0  0  0  0  0  0
    8.4304  -13.1226   20.8703 O   0  0  0  0  0  0  0  0  0  0  0  0
    8.7004  -15.4021   21.0764 N   0  0  0  0  0  0  0  0  0  0  0  0
    7.8107  -15.6502   22.1657 C   0  0  1  0  0  0  0  0  0  0  0  0
    7.1441  -17.0127   22.1657 C   0  0  0  0  0  0  0  0  0  0  0  0
    6.2654  -17.2729   23.3463 C   0  0  0  0  0  0  0  0  0  0  0  0
    5.7392  -18.6569   23.1915 C   0  0  0  0  0  0  0  0  0  0  0  0
    4.6619  -18.9318   23.7893 O   0  0  0  0  0  0  0  0  0  0  0  0
    8.4270  -15.4086   23.4617 C   0  0  0  0  0  0  0  0  0  0  0  0
    9.6006  -15.8862   23.6412 O   0  0  0  0  0  0  0  0  0  0  0  0
    6.3792  -19.6073   22.4380 O   0  0  0  0  0  0  0  0  0  0  0  0
    6.1068  -11.8563   27.1637 N   0  0  0  0  0  0  0  0  0  0  0  0
    6.6576  -12.9941   26.5433 C   0  0  0  0  0  0  0  0  0  0  0  0
    5.9658  -14.0203   26.2633 O   0  0  0  0  0  0  0  0  0  0  0  0
    8.0735  -13.0351   26.1906 C   0  0  0  0  0  0  0  0  0  0  0  0
    8.6113  -14.3593   25.7631 C   0  0  2  0  0  0  0  0  0  0  0  0
    7.8674  -14.7057   24.5360 N   0  0  0  0  0  0  0  0  0  0  0  0
    8.3891  -15.4621   26.7095 C   0  0  0  0  0  0  0  0  0  0  0  0
    8.7623  -15.4080   27.8941 O   0  0  0  0  0  0  0  0  0  0  0  0
    7.7445  -16.6105   26.2910 O   0  0  0  0  0  0  0  0  0  0  0  0
  2  1  1  0
  2  3  2  0
  4  2  1  0
  5  4  1  0
  5  7  1  0
  5  6  1  6
  7  8  2  0
  9  7  1  0
  9 10  1  0
 10 11  1  1
 11 12  1  0
 12 13  1  0
 13 17  1  0
 14 13  2  0
 15 10  1  0
 15 16  2  0
 18 19  1  0
 19 21  1  0
 20 19  2  0
 22 21  1  1
 22 23  1  0
 23 15  1  0
 24 26  1  0
 24 22  1  0
 25 24  2  0
M  END
$$$$
