NEN.pdb
     RDKit          3D

 26 25  0  0  1  0  0  0  0  0999 V2000
    7.0604  -12.2566   16.3349 N   0  0  0  0  0  0  0  0  0  0  0  0
    7.4582  -13.5920   16.6175 C   0  0  0  0  0  0  0  0  0  0  0  0
    7.4346  -14.4112   15.6491 O   0  0  0  0  0  0  0  0  0  0  0  0
    7.8831  -14.0168   17.9813 C   0  0  0  0  0  0  0  0  0  0  0  0
    9.3613  -14.1323   18.0388 C   0  0  2  0  0  0  0  0  0  0  0  0
    9.7607  -15.1024   17.0089 N   0  0  0  0  0  0  0  0  0  0  0  0
    9.9269  -14.5113   19.3539 C   0  0  0  0  0  0  0  0  0  0  0  0
   10.3517  -13.5890   20.0847 O   0  0  0  0  0  0  0  0  0  0  0  0
   10.0021  -15.8500   19.8076 N   0  0  0  0  0  0  0  0  0  0  0  0
   10.5615  -16.3278   21.0317 C   0  0  1  0  0  0  0  0  0  0  0  0
    9.9832  -17.6316   21.5479 C   0  0  0  0  0  0  0  0  0  0  0  0
    8.4897  -17.6806   21.5725 C   0  0  0  0  0  0  0  0  0  0  0  0
    8.1138  -19.0435   22.0389 C   0  0  0  0  0  0  0  0  0  0  0  0
    8.4271  -19.3521   23.2223 O   0  0  0  0  0  0  0  0  0  0  0  0
   12.0131  -16.4212   20.9882 C   0  0  0  0  0  0  0  0  0  0  0  0
   12.5171  -17.1626   20.0749 O   0  0  0  0  0  0  0  0  0  0  0  0
    7.4563  -19.9405   21.2366 O   0  0  0  0  0  0  0  0  0  0  0  0
   17.1635  -15.1597   20.8503 N   0  0  0  0  0  0  0  0  0  0  0  0
   16.3590  -14.3712   21.6952 C   0  0  0  0  0  0  0  0  0  0  0  0
   16.8444  -13.5079   22.4883 O   0  0  0  0  0  0  0  0  0  0  0  0
   14.9068  -14.5201   21.6884 C   0  0  0  0  0  0  0  0  0  0  0  0
   14.3843  -15.9167   21.7328 C   0  0  2  0  0  0  0  0  0  0  0  0
   12.9185  -15.7823   21.8446 N   0  0  0  0  0  0  0  0  0  0  0  0
   14.8185  -16.7127   22.8900 C   0  0  0  0  0  0  0  0  0  0  0  0
   15.8337  -17.4296   22.8614 O   0  0  0  0  0  0  0  0  0  0  0  0
   14.0885  -16.6795   24.0628 O   0  0  0  0  0  0  0  0  0  0  0  0
  2  1  1  0
  2  3  2  0
  4  2  1  0
  5  4  1  0
  5  7  1  0
  5  6  1  6
  7  8  2  0
  9  7  1  0
  9 10  1  0
 10 11  1  6
 11 12  1  0
 12 13  1  0
 13 17  1  0
 14 13  2  0
 15 10  1  0
 15 16  2  0
 18 19  1  0
 19 21  1  0
 20 19  2  0
 22 21  1  1
 22 23  1  0
 23 15  1  0
 24 26  1  0
 24 22  1  0
 25 24  2  0
M  END
$$$$
