NEN.pdb
     RDKit          3D

 26 25  0  0  1  0  0  0  0  0999 V2000
    8.0766  -12.0816   18.0340 N   0  0  0  0  0  0  0  0  0  0  0  0
    9.0722  -12.8082   18.7427 C   0  0  0  0  0  0  0  0  0  0  0  0
   10.2360  -12.8219   18.2379 O   0  0  0  0  0  0  0  0  0  0  0  0
    8.7719  -13.5216   20.0163 C   0  0  0  0  0  0  0  0  0  0  0  0
    9.4369  -14.8480   20.0233 C   0  0  2  0  0  0  0  0  0  0  0  0
    8.8586  -15.6287   18.9199 N   0  0  0  0  0  0  0  0  0  0  0  0
    9.3507  -15.6047   21.2934 C   0  0  0  0  0  0  0  0  0  0  0  0
    8.3082  -15.4723   21.9722 O   0  0  0  0  0  0  0  0  0  0  0  0
   10.3811  -16.4566   21.7584 N   0  0  0  0  0  0  0  0  0  0  0  0
   10.3845  -17.2599   22.9393 C   0  0  1  0  0  0  0  0  0  0  0  0
   11.2026  -18.5347   22.8583 C   0  0  0  0  0  0  0  0  0  0  0  0
   11.2472  -19.3242   24.1265 C   0  0  0  0  0  0  0  0  0  0  0  0
   12.1040  -20.5124   23.8610 C   0  0  0  0  0  0  0  0  0  0  0  0
   13.3513  -20.3226   23.8174 O   0  0  0  0  0  0  0  0  0  0  0  0
   10.7643  -16.5111   24.1279 C   0  0  0  0  0  0  0  0  0  0  0  0
   11.8321  -15.8098   24.0521 O   0  0  0  0  0  0  0  0  0  0  0  0
   11.5837  -21.7667   23.6694 O   0  0  0  0  0  0  0  0  0  0  0  0
   10.5636  -13.9974   28.8135 N   0  0  0  0  0  0  0  0  0  0  0  0
    9.4052  -13.9666   28.0135 C   0  0  0  0  0  0  0  0  0  0  0  0
    8.4286  -13.1940   28.2569 O   0  0  0  0  0  0  0  0  0  0  0  0
    9.2836  -14.8394   26.8497 C   0  0  0  0  0  0  0  0  0  0  0  0
   10.4907  -15.6408   26.4942 C   0  0  2  0  0  0  0  0  0  0  0  0
   10.0808  -16.4783   25.3498 N   0  0  0  0  0  0  0  0  0  0  0  0
   10.9611  -16.5635   27.5376 C   0  0  0  0  0  0  0  0  0  0  0  0
   11.3480  -16.1678   28.6507 O   0  0  0  0  0  0  0  0  0  0  0  0
   10.9832  -17.9239   27.2961 O   0  0  0  0  0  0  0  0  0  0  0  0
  2  1  1  0
  2  3  2  0
  4  2  1  0
  5  4  1  0
  5  7  1  0
  5  6  1  6
  7  8  2  0
  9  7  1  0
  9 10  1  0
 10 11  1  6
 11 12  1  0
 12 13  1  0
 13 17  1  0
 14 13  2  0
 15 10  1  0
 15 16  2  0
 18 19  1  0
 19 21  1  0
 20 19  2  0
 22 21  1  1
 22 23  1  0
 23 15  1  0
 24 26  1  0
 24 22  1  0
 25 24  2  0
M  END
$$$$
