NEN.pdb
     RDKit          3D

 26 25  0  0  1  0  0  0  0  0999 V2000
    7.5302  -11.8140   18.8481 N   0  0  0  0  0  0  0  0  0  0  0  0
    7.9884  -13.0858   19.2883 C   0  0  0  0  0  0  0  0  0  0  0  0
    8.6642  -13.7670   18.4585 O   0  0  0  0  0  0  0  0  0  0  0  0
    7.6936  -13.6010   20.6553 C   0  0  0  0  0  0  0  0  0  0  0  0
    8.1768  -14.9978   20.7857 C   0  0  2  0  0  0  0  0  0  0  0  0
    7.3212  -15.8340   19.9313 N   0  0  0  0  0  0  0  0  0  0  0  0
    8.2185  -15.5386   22.1637 C   0  0  0  0  0  0  0  0  0  0  0  0
    7.1257  -15.7056   22.7494 O   0  0  0  0  0  0  0  0  0  0  0  0
    9.4232  -15.8692   22.8295 N   0  0  0  0  0  0  0  0  0  0  0  0
    9.5759  -16.4119   24.1417 C   0  0  1  0  0  0  0  0  0  0  0  0
   10.6737  -17.4473   24.2954 C   0  0  0  0  0  0  0  0  0  0  0  0
   10.4859  -18.6774   23.4677 C   0  0  0  0  0  0  0  0  0  0  0  0
   11.6858  -19.5300   23.6899 C   0  0  0  0  0  0  0  0  0  0  0  0
   12.4130  -19.7708   22.6864 O   0  0  0  0  0  0  0  0  0  0  0  0
    9.7279  -15.3846   25.1612 C   0  0  0  0  0  0  0  0  0  0  0  0
   10.7349  -14.6030   25.0480 O   0  0  0  0  0  0  0  0  0  0  0  0
   12.0070  -20.0421   24.9209 O   0  0  0  0  0  0  0  0  0  0  0  0
    7.7931  -12.2014   25.4122 N   0  0  0  0  0  0  0  0  0  0  0  0
    7.0308  -12.7749   26.4480 C   0  0  0  0  0  0  0  0  0  0  0  0
    5.7708  -12.6440   26.5203 O   0  0  0  0  0  0  0  0  0  0  0  0
    7.6753  -13.5587   27.4974 C   0  0  0  0  0  0  0  0  0  0  0  0
    9.0553  -14.0455   27.2071 C   0  0  2  0  0  0  0  0  0  0  0  0
    8.8842  -15.1619   26.2566 N   0  0  0  0  0  0  0  0  0  0  0  0
    9.7845  -14.5901   28.3617 C   0  0  0  0  0  0  0  0  0  0  0  0
   10.1842  -13.8728   29.2950 O   0  0  0  0  0  0  0  0  0  0  0  0
   10.0469  -15.9448   28.4348 O   0  0  0  0  0  0  0  0  0  0  0  0
  2  1  1  0
  2  3  2  0
  4  2  1  0
  5  4  1  0
  5  7  1  0
  5  6  1  6
  7  8  2  0
  9  7  1  0
  9 10  1  0
 10 11  1  6
 11 12  1  0
 12 13  1  0
 13 17  1  0
 14 13  2  0
 15 10  1  0
 15 16  2  0
 18 19  1  0
 19 21  1  0
 20 19  2  0
 22 21  1  1
 22 23  1  0
 23 15  1  0
 24 26  1  0
 24 22  1  0
 25 24  2  0
M  END
$$$$
