NEN.pdb
     RDKit          3D

 26 25  0  0  1  0  0  0  0  0999 V2000
    9.2462  -14.0207   16.3133 N   0  0  0  0  0  0  0  0  0  0  0  0
    7.8918  -14.3331   16.6118 C   0  0  0  0  0  0  0  0  0  0  0  0
    7.1804  -14.7608   15.6525 O   0  0  0  0  0  0  0  0  0  0  0  0
    7.3275  -14.1691   17.9814 C   0  0  0  0  0  0  0  0  0  0  0  0
    8.3616  -13.6210   18.8934 C   0  0  2  0  0  0  0  0  0  0  0  0
    8.9452  -12.4456   18.2306 N   0  0  0  0  0  0  0  0  0  0  0  0
    9.4259  -14.5662   19.3023 C   0  0  0  0  0  0  0  0  0  0  0  0
    9.0667  -15.6575   19.7974 O   0  0  0  0  0  0  0  0  0  0  0  0
   10.8061  -14.2886   19.1554 N   0  0  0  0  0  0  0  0  0  0  0  0
   11.9087  -15.1046   19.5532 C   0  0  1  0  0  0  0  0  0  0  0  0
   13.2479  -14.7322   18.9459 C   0  0  0  0  0  0  0  0  0  0  0  0
   13.3580  -14.9957   17.4789 C   0  0  0  0  0  0  0  0  0  0  0  0
   14.7249  -14.5714   17.0693 C   0  0  0  0  0  0  0  0  0  0  0  0
   15.1256  -13.4481   17.4831 O   0  0  0  0  0  0  0  0  0  0  0  0
   12.0401  -15.2069   20.9989 C   0  0  0  0  0  0  0  0  0  0  0  0
   12.7146  -14.2901   21.5839 O   0  0  0  0  0  0  0  0  0  0  0  0
   15.5309  -15.3496   16.2784 O   0  0  0  0  0  0  0  0  0  0  0  0
    9.0934  -15.6241   25.8910 N   0  0  0  0  0  0  0  0  0  0  0  0
    9.9880  -16.4700   25.2077 C   0  0  0  0  0  0  0  0  0  0  0  0
   10.6615  -17.3693   25.7973 O   0  0  0  0  0  0  0  0  0  0  0  0
   10.1761  -16.3419   23.7658 C   0  0  0  0  0  0  0  0  0  0  0  0
   11.5825  -16.1869   23.2927 C   0  0  2  0  0  0  0  0  0  0  0  0
   11.5037  -16.2076   21.8188 N   0  0  0  0  0  0  0  0  0  0  0  0
   12.4967  -17.2726   23.6758 C   0  0  0  0  0  0  0  0  0  0  0  0
   13.0742  -17.2992   24.7763 O   0  0  0  0  0  0  0  0  0  0  0  0
   12.7389  -18.3120   22.7980 O   0  0  0  0  0  0  0  0  0  0  0  0
  2  1  1  0
  2  3  2  0
  4  2  1  0
  5  4  1  0
  5  7  1  0
  5  6  1  6
  7  8  2  0
  9  7  1  0
  9 10  1  0
 10 11  1  1
 11 12  1  0
 12 13  1  0
 13 17  1  0
 14 13  2  0
 15 10  1  0
 15 16  2  0
 18 19  1  0
 19 21  1  0
 20 19  2  0
 22 21  1  1
 22 23  1  0
 23 15  1  0
 24 26  1  0
 24 22  1  0
 25 24  2  0
M  END
$$$$
