NEN.pdb
     RDKit          3D

 26 25  0  0  1  0  0  0  0  0999 V2000
    9.0950  -13.7020   17.8325 N   0  0  0  0  0  0  0  0  0  0  0  0
    7.7926  -13.2130   18.1256 C   0  0  0  0  0  0  0  0  0  0  0  0
    7.1438  -12.7046   17.1612 O   0  0  0  0  0  0  0  0  0  0  0  0
    7.2107  -13.2898   19.4955 C   0  0  0  0  0  0  0  0  0  0  0  0
    8.1531  -13.9826   20.4084 C   0  0  2  0  0  0  0  0  0  0  0  0
    8.7636  -15.0828   19.6479 N   0  0  0  0  0  0  0  0  0  0  0  0
    7.5706  -14.4882   21.6726 C   0  0  0  0  0  0  0  0  0  0  0  0
    7.0234  -13.6542   22.4278 O   0  0  0  0  0  0  0  0  0  0  0  0
    7.6066  -15.8517   22.0509 N   0  0  0  0  0  0  0  0  0  0  0  0
    7.2119  -16.4232   23.2989 C   0  0  1  0  0  0  0  0  0  0  0  0
    6.5644  -17.7922   23.2134 C   0  0  0  0  0  0  0  0  0  0  0  0
    6.2004  -18.3893   24.5342 C   0  0  0  0  0  0  0  0  0  0  0  0
    5.7636  -19.7870   24.2662 C   0  0  0  0  0  0  0  0  0  0  0  0
    6.3952  -20.4259   23.3793 O   0  0  0  0  0  0  0  0  0  0  0  0
    8.2949  -16.4554   24.2704 C   0  0  0  0  0  0  0  0  0  0  0  0
    7.9688  -16.6480   25.4928 O   0  0  0  0  0  0  0  0  0  0  0  0
    4.7242  -20.3752   24.9403 O   0  0  0  0  0  0  0  0  0  0  0  0
    9.1019  -19.0793   27.0457 N   0  0  0  0  0  0  0  0  0  0  0  0
    9.9813  -18.0005   26.8323 C   0  0  0  0  0  0  0  0  0  0  0  0
   10.2545  -17.1541   27.7372 O   0  0  0  0  0  0  0  0  0  0  0  0
   10.6256  -17.8134   25.5358 C   0  0  0  0  0  0  0  0  0  0  0  0
   10.7123  -16.4105   25.0358 C   0  0  2  0  0  0  0  0  0  0  0  0
    9.6610  -16.2969   24.0057 N   0  0  0  0  0  0  0  0  0  0  0  0
   11.9786  -16.0554   24.3788 C   0  0  0  0  0  0  0  0  0  0  0  0
   12.0900  -15.9847   23.1427 O   0  0  0  0  0  0  0  0  0  0  0  0
   13.0991  -15.7862   25.1412 O   0  0  0  0  0  0  0  0  0  0  0  0
  2  1  1  0
  2  3  2  0
  4  2  1  0
  5  4  1  0
  5  7  1  0
  5  6  1  6
  7  8  2  0
  9  7  1  0
  9 10  1  0
 10 11  1  6
 11 12  1  0
 12 13  1  0
 13 17  1  0
 14 13  2  0
 15 10  1  0
 15 16  2  0
 18 19  1  0
 19 21  1  0
 20 19  2  0
 22 21  1  6
 22 23  1  0
 23 15  1  0
 24 26  1  0
 24 22  1  0
 25 24  2  0
M  END
$$$$
