NEN.pdb
     RDKit          3D

 26 25  0  0  1  0  0  0  0  0999 V2000
    9.1631  -12.8338   17.6861 N   0  0  0  0  0  0  0  0  0  0  0  0
    7.8922  -13.4558   17.8251 C   0  0  0  0  0  0  0  0  0  0  0  0
    7.1125  -13.3892   16.8266 O   0  0  0  0  0  0  0  0  0  0  0  0
    7.4880  -14.1536   19.0784 C   0  0  0  0  0  0  0  0  0  0  0  0
    8.5787  -14.0678   20.0807 C   0  0  2  0  0  0  0  0  0  0  0  0
    9.8338  -14.3847   19.3838 N   0  0  0  0  0  0  0  0  0  0  0  0
    8.4213  -14.9242   21.2785 C   0  0  0  0  0  0  0  0  0  0  0  0
    7.3950  -14.7571   21.9743 O   0  0  0  0  0  0  0  0  0  0  0  0
    9.3674  -15.9065   21.6577 N   0  0  0  0  0  0  0  0  0  0  0  0
    9.3028  -16.7981   22.7715 C   0  0  1  0  0  0  0  0  0  0  0  0
    9.8586  -18.1881   22.5271 C   0  0  0  0  0  0  0  0  0  0  0  0
   11.2729  -18.2142   22.0446 C   0  0  0  0  0  0  0  0  0  0  0  0
   11.4641  -19.5169   21.3499 C   0  0  0  0  0  0  0  0  0  0  0  0
   11.3367  -20.5627   22.0455 O   0  0  0  0  0  0  0  0  0  0  0  0
    9.8994  -16.2388   23.9753 C   0  0  0  0  0  0  0  0  0  0  0  0
   10.9977  -15.5980   23.8315 O   0  0  0  0  0  0  0  0  0  0  0  0
   11.7655  -19.6016   20.0147 O   0  0  0  0  0  0  0  0  0  0  0  0
    9.0474  -12.6190   28.3818 N   0  0  0  0  0  0  0  0  0  0  0  0
    9.7329  -13.7777   27.9692 C   0  0  0  0  0  0  0  0  0  0  0  0
   10.7495  -14.2238   28.5834 O   0  0  0  0  0  0  0  0  0  0  0  0
    9.2888  -14.5247   26.7962 C   0  0  0  0  0  0  0  0  0  0  0  0
   10.0681  -15.7511   26.4583 C   0  0  2  0  0  0  0  0  0  0  0  0
    9.3949  -16.3294   25.2786 N   0  0  0  0  0  0  0  0  0  0  0  0
   10.0702  -16.7977   27.4907 C   0  0  0  0  0  0  0  0  0  0  0  0
    9.2694  -17.7484   27.4761 O   0  0  0  0  0  0  0  0  0  0  0  0
   10.9855  -16.7446   28.5245 O   0  0  0  0  0  0  0  0  0  0  0  0
  2  1  1  0
  2  3  2  0
  4  2  1  0
  5  4  1  0
  5  7  1  0
  5  6  1  6
  7  8  2  0
  9  7  1  0
  9 10  1  0
 10 11  1  6
 11 12  1  0
 12 13  1  0
 13 17  1  0
 14 13  2  0
 15 10  1  0
 15 16  2  0
 18 19  1  0
 19 21  1  0
 20 19  2  0
 22 21  1  1
 22 23  1  0
 23 15  1  0
 24 26  1  0
 24 22  1  0
 25 24  2  0
M  END
$$$$
