NEN.pdb
     RDKit          3D

 26 25  0  0  1  0  0  0  0  0999 V2000
    6.3882  -12.6514   19.1599 N   0  0  0  0  0  0  0  0  0  0  0  0
    7.5908  -12.8498   18.4281 C   0  0  0  0  0  0  0  0  0  0  0  0
    7.6033  -12.4366   17.2287 O   0  0  0  0  0  0  0  0  0  0  0  0
    8.7826  -13.5097   19.0325 C   0  0  0  0  0  0  0  0  0  0  0  0
    9.5550  -14.2202   17.9836 C   0  0  2  0  0  0  0  0  0  0  0  0
    8.6418  -15.1820   17.3493 N   0  0  0  0  0  0  0  0  0  0  0  0
   10.7875  -14.9015   18.4418 C   0  0  0  0  0  0  0  0  0  0  0  0
   10.6533  -15.9912   19.0415 O   0  0  0  0  0  0  0  0  0  0  0  0
   12.0857  -14.3785   18.2297 N   0  0  0  0  0  0  0  0  0  0  0  0
   13.3350  -14.9660   18.5956 C   0  0  1  0  0  0  0  0  0  0  0  0
   14.5427  -14.4598   17.8299 C   0  0  0  0  0  0  0  0  0  0  0  0
   15.8537  -14.9759   18.3284 C   0  0  0  0  0  0  0  0  0  0  0  0
   16.9040  -14.4025   17.4429 C   0  0  0  0  0  0  0  0  0  0  0  0
   16.6877  -14.4357   16.1996 O   0  0  0  0  0  0  0  0  0  0  0  0
   13.5959  -14.8884   20.0251 C   0  0  0  0  0  0  0  0  0  0  0  0
   13.6063  -13.7204   20.5478 O   0  0  0  0  0  0  0  0  0  0  0  0
   18.0627  -13.8571   17.9333 O   0  0  0  0  0  0  0  0  0  0  0  0
   14.3831  -16.2156   25.1328 N   0  0  0  0  0  0  0  0  0  0  0  0
   13.5032  -17.0607   24.4297 C   0  0  0  0  0  0  0  0  0  0  0  0
   12.8449  -17.9845   24.9982 O   0  0  0  0  0  0  0  0  0  0  0  0
   13.3108  -16.9007   22.9916 C   0  0  0  0  0  0  0  0  0  0  0  0
   14.0865  -15.8070   22.3375 C   0  0  2  0  0  0  0  0  0  0  0  0
   13.8378  -15.9625   20.8908 N   0  0  0  0  0  0  0  0  0  0  0  0
   15.5438  -15.8761   22.5188 C   0  0  0  0  0  0  0  0  0  0  0  0
   16.2876  -16.4623   21.7135 O   0  0  0  0  0  0  0  0  0  0  0  0
   16.1313  -15.2757   23.6160 O   0  0  0  0  0  0  0  0  0  0  0  0
  2  1  1  0
  2  3  2  0
  4  2  1  0
  5  4  1  0
  5  7  1  0
  5  6  1  1
  7  8  2  0
  9  7  1  0
  9 10  1  0
 10 11  1  6
 11 12  1  0
 12 13  1  0
 13 17  1  0
 14 13  2  0
 15 10  1  0
 15 16  2  0
 18 19  1  0
 19 21  1  0
 20 19  2  0
 22 21  1  1
 22 23  1  0
 23 15  1  0
 24 26  1  0
 24 22  1  0
 25 24  2  0
M  END
$$$$
