SMF.pdb
     RDKit          3D

 26 26  0  0  1  0  0  0  0  0999 V2000
   31.6168  -25.1700  -20.1126 O   0  0  0  0  0  0  0  0  0  0  0  0
   32.3591  -24.4655  -19.1981 C   0  0  0  0  0  0  0  0  0  0  0  0
   32.2519  -24.9634  -17.7927 C   0  0  2  0  0  0  0  0  0  0  0  0
   32.7407  -26.2981  -17.6793 N   0  0  0  0  0  0  0  0  0  0  0  0
   30.8721  -24.7805  -17.2921 C   0  0  0  0  0  0  0  0  0  0  0  0
   30.2829  -25.8090  -16.8605 O   0  0  0  0  0  0  0  0  0  0  0  0
   27.2416  -18.9675  -17.4380 C   0  0  0  0  0  0  0  0  0  0  0  0
   27.3108  -19.7666  -15.8054 S   0  0  0  0  0  0  0  0  0  0  0  0
   27.2484  -21.5905  -16.0423 C   0  0  0  0  0  0  0  0  0  0  0  0
   28.6433  -22.0205  -16.3301 C   0  0  0  0  0  0  0  0  0  0  0  0
   28.8105  -23.4760  -16.6954 C   0  0  2  0  0  0  0  0  0  0  0  0
   30.1811  -23.5606  -17.2637 N   0  0  0  0  0  0  0  0  0  0  0  0
   27.8347  -23.8283  -17.7450 C   0  0  0  0  0  0  0  0  0  0  0  0
   27.9480  -23.2710  -18.8773 O   0  0  0  0  0  0  0  0  0  0  0  0
   26.7862  -24.7484  -17.5736 N   0  0  0  0  0  0  0  0  0  0  0  0
   25.9187  -25.0492  -18.6915 C   0  0  1  0  0  0  0  0  0  0  0  0
   26.3967  -26.3933  -19.2424 C   0  0  0  0  0  0  0  0  0  0  0  0
   26.2041  -27.4715  -18.2565 C   0  0  0  0  0  0  0  0  0  0  0  0
   24.9746  -28.0988  -18.0905 C   0  0  0  0  0  0  0  0  0  0  0  0
   24.7828  -29.1205  -17.1810 C   0  0  0  0  0  0  0  0  0  0  0  0
   25.8601  -29.5289  -16.4101 C   0  0  0  0  0  0  0  0  0  0  0  0
   27.0845  -28.9347  -16.5463 C   0  0  0  0  0  0  0  0  0  0  0  0
   27.2352  -27.9166  -17.4670 C   0  0  0  0  0  0  0  0  0  0  0  0
   24.5196  -25.1255  -18.2420 C   0  0  0  0  0  0  0  0  0  0  0  0
   24.1856  -25.0215  -17.0372 O   0  0  0  0  0  0  0  0  0  0  0  0
   23.4755  -25.3208  -19.1664 O   0  0  0  0  0  0  0  0  0  0  0  0
  1  2  1  0
  2  3  1  0
  3  5  1  0
  3  4  1  6
  5  6  2  0
  7  8  1  0
  8  9  1  0
  9 10  1  0
 11 10  1  6
 11 13  1  0
 12 11  1  0
 12  5  1  0
 13 14  2  0
 15 13  1  0
 15 16  1  0
 16 24  1  0
 16 17  1  1
 18 17  1  0
 18 19  2  0
 20 19  1  0
 21 20  2  0
 22 23  2  0
 22 21  1  0
 23 18  1  0
 24 25  2  0
 24 26  1  0
M  END
$$$$
