SMF.pdb
     RDKit          3D

 26 26  0  0  1  0  0  0  0  0999 V2000
   26.7556  -18.8509  -15.5005 O   0  0  0  0  0  0  0  0  0  0  0  0
   27.9815  -19.1106  -14.9406 C   0  0  0  0  0  0  0  0  0  0  0  0
   28.2341  -20.5520  -14.6353 C   0  0  2  0  0  0  0  0  0  0  0  0
   28.3323  -21.3232  -15.8305 N   0  0  0  0  0  0  0  0  0  0  0  0
   27.2272  -21.0524  -13.6743 C   0  0  0  0  0  0  0  0  0  0  0  0
   26.3971  -21.8971  -14.1087 O   0  0  0  0  0  0  0  0  0  0  0  0
   27.4114  -21.2587   -6.9362 C   0  0  0  0  0  0  0  0  0  0  0  0
   26.0037  -20.2424   -7.4785 S   0  0  0  0  0  0  0  0  0  0  0  0
   25.3410  -20.9465   -9.0443 C   0  0  0  0  0  0  0  0  0  0  0  0
   26.3415  -20.6299  -10.0990 C   0  0  0  0  0  0  0  0  0  0  0  0
   25.9913  -21.1057  -11.4885 C   0  0  2  0  0  0  0  0  0  0  0  0
   27.1308  -20.6594  -12.3316 N   0  0  0  0  0  0  0  0  0  0  0  0
   24.7644  -20.4217  -11.9410 C   0  0  0  0  0  0  0  0  0  0  0  0
   24.8769  -19.2648  -12.4453 O   0  0  0  0  0  0  0  0  0  0  0  0
   23.4740  -20.9720  -11.8541 N   0  0  0  0  0  0  0  0  0  0  0  0
   22.4376  -20.4892  -12.7404 C   0  0  1  0  0  0  0  0  0  0  0  0
   22.9142  -20.8122  -14.1571 C   0  0  0  0  0  0  0  0  0  0  0  0
   21.8754  -20.4960  -15.1533 C   0  0  0  0  0  0  0  0  0  0  0  0
   21.6824  -19.2014  -15.6220 C   0  0  0  0  0  0  0  0  0  0  0  0
   20.7227  -18.8925  -16.5662 C   0  0  0  0  0  0  0  0  0  0  0  0
   19.9278  -19.9157  -17.0588 C   0  0  0  0  0  0  0  0  0  0  0  0
   20.0894  -21.2014  -16.6208 C   0  0  0  0  0  0  0  0  0  0  0  0
   21.0602  -21.4691  -15.6759 C   0  0  0  0  0  0  0  0  0  0  0  0
   21.1620  -21.1596  -12.4422 C   0  0  0  0  0  0  0  0  0  0  0  0
   20.0656  -20.5510  -12.4076 O   0  0  0  0  0  0  0  0  0  0  0  0
   21.1191  -22.5424  -12.1796 O   0  0  0  0  0  0  0  0  0  0  0  0
  1  2  1  0
  2  3  1  0
  3  5  1  0
  3  4  1  6
  5  6  2  0
  7  8  1  0
  8  9  1  0
  9 10  1  0
 11 10  1  1
 11 13  1  0
 12 11  1  0
 12  5  1  0
 13 14  2  0
 15 13  1  0
 15 16  1  0
 16 24  1  0
 16 17  1  6
 18 17  1  0
 18 19  2  0
 20 19  1  0
 21 20  2  0
 22 23  2  0
 22 21  1  0
 23 18  1  0
 24 25  2  0
 24 26  1  0
M  END
$$$$
