SMF.pdb
     RDKit          3D

 26 26  0  0  1  0  0  0  0  0999 V2000
   19.9118  -20.8272  -11.9493 O   0  0  0  0  0  0  0  0  0  0  0  0
   21.0034  -20.1369  -12.4137 C   0  0  0  0  0  0  0  0  0  0  0  0
   21.8117  -20.8658  -13.4382 C   0  0  2  0  0  0  0  0  0  0  0  0
   21.0812  -21.9591  -13.9898 N   0  0  0  0  0  0  0  0  0  0  0  0
   23.1274  -21.2405  -12.8758 C   0  0  0  0  0  0  0  0  0  0  0  0
   23.2153  -22.3822  -12.3465 O   0  0  0  0  0  0  0  0  0  0  0  0
   28.4716  -19.3225  -15.2241 C   0  0  0  0  0  0  0  0  0  0  0  0
   29.1052  -19.3239  -13.5191 S   0  0  0  0  0  0  0  0  0  0  0  0
   28.0013  -20.3712  -12.4842 C   0  0  0  0  0  0  0  0  0  0  0  0
   26.6144  -20.1000  -12.9494 C   0  0  0  0  0  0  0  0  0  0  0  0
   25.5297  -20.8749  -12.2404 C   0  0  2  0  0  0  0  0  0  0  0  0
   24.2697  -20.4270  -12.8888 N   0  0  0  0  0  0  0  0  0  0  0  0
   25.5022  -20.4813  -10.8184 C   0  0  0  0  0  0  0  0  0  0  0  0
   24.8346  -19.4539  -10.4956 O   0  0  0  0  0  0  0  0  0  0  0  0
   26.1661  -21.1757   -9.7924 N   0  0  0  0  0  0  0  0  0  0  0  0
   26.0897  -20.6777   -8.4364 C   0  0  1  0  0  0  0  0  0  0  0  0
   26.8988  -21.6568   -7.5846 C   0  0  0  0  0  0  0  0  0  0  0  0
   27.5391  -20.9706   -6.4486 C   0  0  0  0  0  0  0  0  0  0  0  0
   28.8580  -20.5348   -6.5074 C   0  0  0  0  0  0  0  0  0  0  0  0
   29.4670  -19.8774   -5.4562 C   0  0  0  0  0  0  0  0  0  0  0  0
   28.7295  -19.6480   -4.3051 C   0  0  0  0  0  0  0  0  0  0  0  0
   27.4293  -20.0624   -4.2116 C   0  0  0  0  0  0  0  0  0  0  0  0
   26.8569  -20.7163   -5.2848 C   0  0  0  0  0  0  0  0  0  0  0  0
   26.6500  -19.3190   -8.3625 C   0  0  0  0  0  0  0  0  0  0  0  0
   27.6072  -18.9382   -9.0784 O   0  0  0  0  0  0  0  0  0  0  0  0
   26.1219  -18.3697   -7.4666 O   0  0  0  0  0  0  0  0  0  0  0  0
  1  2  1  0
  2  3  1  0
  3  5  1  0
  3  4  1  1
  5  6  2  0
  7  8  1  0
  8  9  1  0
  9 10  1  0
 11 10  1  6
 11 13  1  0
 12 11  1  0
 12  5  1  0
 13 14  2  0
 15 13  1  0
 15 16  1  0
 16 24  1  0
 16 17  1  1
 18 17  1  0
 18 19  2  0
 20 19  1  0
 21 20  2  0
 22 23  2  0
 22 21  1  0
 23 18  1  0
 24 25  2  0
 24 26  1  0
M  END
$$$$
