SMF.pdb
     RDKit          3D

 26 26  0  0  1  0  0  0  0  0999 V2000
   28.5396  -20.9200  -17.9356 O   0  0  0  0  0  0  0  0  0  0  0  0
   28.2380  -20.0943  -18.9897 C   0  0  0  0  0  0  0  0  0  0  0  0
   28.0476  -18.6582  -18.6212 C   0  0  2  0  0  0  0  0  0  0  0  0
   29.2833  -17.9476  -18.6582 N   0  0  0  0  0  0  0  0  0  0  0  0
   27.3293  -18.5546  -17.3324 C   0  0  0  0  0  0  0  0  0  0  0  0
   28.0375  -18.4698  -16.2920 O   0  0  0  0  0  0  0  0  0  0  0  0
   21.4198  -16.4936  -16.3323 C   0  0  0  0  0  0  0  0  0  0  0  0
   22.7089  -15.2779  -16.7433 S   0  0  0  0  0  0  0  0  0  0  0  0
   24.3545  -16.0734  -16.5297 C   0  0  0  0  0  0  0  0  0  0  0  0
   24.0872  -17.4866  -16.1491 C   0  0  0  0  0  0  0  0  0  0  0  0
   25.3106  -18.3216  -15.8563 C   0  0  2  0  0  0  0  0  0  0  0  0
   25.9346  -18.5443  -17.1866 N   0  0  0  0  0  0  0  0  0  0  0  0
   24.8891  -19.6226  -15.3016 C   0  0  0  0  0  0  0  0  0  0  0  0
   24.4855  -20.5131  -16.1075 O   0  0  0  0  0  0  0  0  0  0  0  0
   24.9099  -19.9432  -13.9334 N   0  0  0  0  0  0  0  0  0  0  0  0
   24.3935  -21.2226  -13.4983 C   0  0  1  0  0  0  0  0  0  0  0  0
   25.5351  -21.8982  -12.7376 C   0  0  0  0  0  0  0  0  0  0  0  0
   25.8991  -21.1314  -11.5330 C   0  0  0  0  0  0  0  0  0  0  0  0
   26.7942  -20.0690  -11.5858 C   0  0  0  0  0  0  0  0  0  0  0  0
   27.1336  -19.3320  -10.4680 C   0  0  0  0  0  0  0  0  0  0  0  0
   26.5565  -19.6704   -9.2539 C   0  0  0  0  0  0  0  0  0  0  0  0
   25.6716  -20.7096   -9.1642 C   0  0  0  0  0  0  0  0  0  0  0  0
   25.3584  -21.4218  -10.3050 C   0  0  0  0  0  0  0  0  0  0  0  0
   23.2191  -21.0282  -12.6331 C   0  0  0  0  0  0  0  0  0  0  0  0
   22.9045  -19.9122  -12.1541 O   0  0  0  0  0  0  0  0  0  0  0  0
   22.3813  -22.1104  -12.3018 O   0  0  0  0  0  0  0  0  0  0  0  0
  1  2  1  0
  2  3  1  0
  3  5  1  0
  3  4  1  1
  5  6  2  0
  7  8  1  0
  8  9  1  0
  9 10  1  0
 11 10  1  6
 11 13  1  0
 12 11  1  0
 12  5  1  0
 13 14  2  0
 15 13  1  0
 15 16  1  0
 16 24  1  0
 16 17  1  1
 18 17  1  0
 18 19  2  0
 20 19  1  0
 21 20  2  0
 22 23  2  0
 22 21  1  0
 23 18  1  0
 24 25  2  0
 24 26  1  0
M  END
$$$$
