SMF.pdb
     RDKit          3D

 26 26  0  0  1  0  0  0  0  0999 V2000
   23.7586  -20.4994  -15.3061 O   0  0  0  0  0  0  0  0  0  0  0  0
   24.8045  -21.3775  -15.4436 C   0  0  0  0  0  0  0  0  0  0  0  0
   26.1572  -20.7414  -15.4346 C   0  0  2  0  0  0  0  0  0  0  0  0
   26.9267  -21.1489  -16.5637 N   0  0  0  0  0  0  0  0  0  0  0  0
   26.8212  -20.9764  -14.1340 C   0  0  0  0  0  0  0  0  0  0  0  0
   27.2232  -22.1499  -13.9047 O   0  0  0  0  0  0  0  0  0  0  0  0
   29.2542  -16.5043   -8.8751 C   0  0  0  0  0  0  0  0  0  0  0  0
   30.1250  -17.4576  -10.1563 S   0  0  0  0  0  0  0  0  0  0  0  0
   29.3188  -19.1046  -10.3112 C   0  0  0  0  0  0  0  0  0  0  0  0
   28.5411  -19.0695  -11.5791 C   0  0  0  0  0  0  0  0  0  0  0  0
   27.7684  -20.3262  -11.9006 C   0  0  2  0  0  0  0  0  0  0  0  0
   27.0328  -19.9999  -13.1500 N   0  0  0  0  0  0  0  0  0  0  0  0
   26.7924  -20.5847  -10.8242 C   0  0  0  0  0  0  0  0  0  0  0  0
   25.6284  -20.0985  -10.9439 O   0  0  0  0  0  0  0  0  0  0  0  0
   27.0671  -21.3415   -9.6722 N   0  0  0  0  0  0  0  0  0  0  0  0
   26.0147  -21.5663   -8.7054 C   0  0  1  0  0  0  0  0  0  0  0  0
   26.6928  -22.1932   -7.4865 C   0  0  0  0  0  0  0  0  0  0  0  0
   27.4750  -21.1926   -6.7393 C   0  0  0  0  0  0  0  0  0  0  0  0
   28.8236  -20.9768   -6.9989 C   0  0  0  0  0  0  0  0  0  0  0  0
   29.5659  -20.0324   -6.3170 C   0  0  0  0  0  0  0  0  0  0  0  0
   28.9358  -19.2770   -5.3402 C   0  0  0  0  0  0  0  0  0  0  0  0
   27.6103  -19.4618   -5.0578 C   0  0  0  0  0  0  0  0  0  0  0  0
   26.9031  -20.4161   -5.7622 C   0  0  0  0  0  0  0  0  0  0  0  0
   25.3653  -20.2925   -8.3568 C   0  0  0  0  0  0  0  0  0  0  0  0
   24.1581  -20.2129   -8.0252 O   0  0  0  0  0  0  0  0  0  0  0  0
   26.0891  -19.0849   -8.3802 O   0  0  0  0  0  0  0  0  0  0  0  0
  1  2  1  0
  2  3  1  0
  3  5  1  0
  3  4  1  6
  5  6  2  0
  7  8  1  0
  8  9  1  0
  9 10  1  0
 11 10  1  1
 11 13  1  0
 12 11  1  0
 12  5  1  0
 13 14  2  0
 15 13  1  0
 15 16  1  0
 16 24  1  0
 16 17  1  1
 18 17  1  0
 18 19  2  0
 20 19  1  0
 21 20  2  0
 22 23  2  0
 22 21  1  0
 23 18  1  0
 24 25  2  0
 24 26  1  0
M  END
$$$$
