SMF.pdb
     RDKit          3D

 26 26  0  0  1  0  0  0  0  0999 V2000
   25.4799  -19.5680  -16.6422 O   0  0  0  0  0  0  0  0  0  0  0  0
   26.2518  -20.6205  -17.0668 C   0  0  0  0  0  0  0  0  0  0  0  0
   26.9671  -21.3488  -15.9749 C   0  0  2  0  0  0  0  0  0  0  0  0
   27.7231  -22.4414  -16.4922 N   0  0  0  0  0  0  0  0  0  0  0  0
   26.0161  -21.7242  -14.9060 C   0  0  0  0  0  0  0  0  0  0  0  0
   25.3803  -22.8022  -15.0636 O   0  0  0  0  0  0  0  0  0  0  0  0
   24.7558  -20.5301   -8.2810 C   0  0  0  0  0  0  0  0  0  0  0  0
   26.3609  -20.6138   -9.1324 S   0  0  0  0  0  0  0  0  0  0  0  0
   26.1345  -21.5099  -10.7238 C   0  0  0  0  0  0  0  0  0  0  0  0
   25.1037  -20.7531  -11.4843 C   0  0  0  0  0  0  0  0  0  0  0  0
   24.6922  -21.3639  -12.8024 C   0  0  2  0  0  0  0  0  0  0  0  0
   25.7741  -20.9764  -13.7446 N   0  0  0  0  0  0  0  0  0  0  0  0
   23.4266  -20.7494  -13.2480 C   0  0  0  0  0  0  0  0  0  0  0  0
   23.4865  -19.6669  -13.9039 O   0  0  0  0  0  0  0  0  0  0  0  0
   22.1535  -21.2892  -12.9968 N   0  0  0  0  0  0  0  0  0  0  0  0
   21.0550  -20.9500  -13.8749 C   0  0  1  0  0  0  0  0  0  0  0  0
   21.4497  -21.4680  -15.2585 C   0  0  0  0  0  0  0  0  0  0  0  0
   20.3666  -21.2563  -16.2350 C   0  0  0  0  0  0  0  0  0  0  0  0
   19.6104  -22.3135  -16.7282 C   0  0  0  0  0  0  0  0  0  0  0  0
   18.5828  -22.1288  -17.6325 C   0  0  0  0  0  0  0  0  0  0  0  0
   18.3019  -20.8398  -18.0583 C   0  0  0  0  0  0  0  0  0  0  0  0
   19.0249  -19.7754  -17.5944 C   0  0  0  0  0  0  0  0  0  0  0  0
   20.0444  -20.0021  -16.6909 C   0  0  0  0  0  0  0  0  0  0  0  0
   19.8138  -21.5844  -13.4032 C   0  0  0  0  0  0  0  0  0  0  0  0
   19.7703  -22.7668  -12.9860 O   0  0  0  0  0  0  0  0  0  0  0  0
   18.5981  -20.8740  -13.3992 O   0  0  0  0  0  0  0  0  0  0  0  0
  1  2  1  0
  2  3  1  0
  3  5  1  0
  3  4  1  6
  5  6  2  0
  7  8  1  0
  8  9  1  0
  9 10  1  0
 11 10  1  1
 11 13  1  0
 12 11  1  0
 12  5  1  0
 13 14  2  0
 15 13  1  0
 15 16  1  0
 16 24  1  0
 16 17  1  6
 18 17  1  0
 18 19  2  0
 20 19  1  0
 21 20  2  0
 22 23  2  0
 22 21  1  0
 23 18  1  0
 24 25  2  0
 24 26  1  0
M  END
$$$$
