SMF.pdb
     RDKit          3D

 26 26  0  0  1  0  0  0  0  0999 V2000
   27.2965  -17.6133  -15.5003 O   0  0  0  0  0  0  0  0  0  0  0  0
   26.8792  -18.9127  -15.6457 C   0  0  0  0  0  0  0  0  0  0  0  0
   27.7915  -19.9312  -15.0417 C   0  0  2  0  0  0  0  0  0  0  0  0
   28.3901  -20.7478  -16.0456 N   0  0  0  0  0  0  0  0  0  0  0  0
   27.0811  -20.6903  -13.9896 C   0  0  0  0  0  0  0  0  0  0  0  0
   26.4394  -21.7111  -14.3601 O   0  0  0  0  0  0  0  0  0  0  0  0
   28.0736  -21.0250   -7.5778 C   0  0  0  0  0  0  0  0  0  0  0  0
   26.3977  -20.3245   -7.6729 S   0  0  0  0  0  0  0  0  0  0  0  0
   25.5991  -20.9224   -9.2193 C   0  0  0  0  0  0  0  0  0  0  0  0
   26.4781  -20.4853  -10.3373 C   0  0  0  0  0  0  0  0  0  0  0  0
   26.0475  -20.9330  -11.7135 C   0  0  2  0  0  0  0  0  0  0  0  0
   27.0702  -20.3598  -12.6268 N   0  0  0  0  0  0  0  0  0  0  0  0
   24.7353  -20.3364  -12.0296 C   0  0  0  0  0  0  0  0  0  0  0  0
   24.6551  -19.0740  -12.1031 O   0  0  0  0  0  0  0  0  0  0  0  0
   23.5640  -21.0781  -12.2605 N   0  0  0  0  0  0  0  0  0  0  0  0
   22.3294  -20.3805  -12.5468 C   0  0  1  0  0  0  0  0  0  0  0  0
   22.4747  -19.8391  -13.9696 C   0  0  0  0  0  0  0  0  0  0  0  0
   22.5565  -20.9356  -14.9506 C   0  0  0  0  0  0  0  0  0  0  0  0
   23.7723  -21.3530  -15.4802 C   0  0  0  0  0  0  0  0  0  0  0  0
   23.8661  -22.3888  -16.3892 C   0  0  0  0  0  0  0  0  0  0  0  0
   22.7014  -23.0296  -16.7823 C   0  0  0  0  0  0  0  0  0  0  0  0
   21.4875  -22.6459  -16.2821 C   0  0  0  0  0  0  0  0  0  0  0  0
   21.4363  -21.6058  -15.3751 C   0  0  0  0  0  0  0  0  0  0  0  0
   21.1887  -21.3044  -12.4429 C   0  0  0  0  0  0  0  0  0  0  0  0
   21.3229  -22.5240  -12.1811 O   0  0  0  0  0  0  0  0  0  0  0  0
   19.8711  -20.8467  -12.6356 O   0  0  0  0  0  0  0  0  0  0  0  0
  1  2  1  0
  2  3  1  0
  3  5  1  0
  3  4  1  6
  5  6  2  0
  7  8  1  0
  8  9  1  0
  9 10  1  0
 11 10  1  1
 11 13  1  0
 12 11  1  0
 12  5  1  0
 13 14  2  0
 15 13  1  0
 15 16  1  0
 16 24  1  0
 16 17  1  6
 18 17  1  0
 18 19  2  0
 20 19  1  0
 21 20  2  0
 22 23  2  0
 22 21  1  0
 23 18  1  0
 24 25  2  0
 24 26  1  0
M  END
$$$$
