SMF.pdb
     RDKit          3D

 26 26  0  0  1  0  0  0  0  0999 V2000
   16.4630  -11.0644  -17.3752 O   0  0  0  0  0  0  0  0  0  0  0  0
   16.9397  -11.8062  -18.4271 C   0  0  0  0  0  0  0  0  0  0  0  0
   17.7623  -12.9902  -18.0321 C   0  0  2  0  0  0  0  0  0  0  0  0
   16.9998  -13.9134  -17.2579 N   0  0  0  0  0  0  0  0  0  0  0  0
   19.0143  -12.5456  -17.3819 C   0  0  0  0  0  0  0  0  0  0  0  0
   19.0124  -12.4920  -16.1216 O   0  0  0  0  0  0  0  0  0  0  0  0
   24.1078  -12.5059  -14.9754 C   0  0  0  0  0  0  0  0  0  0  0  0
   24.5385  -12.7997  -16.7180 S   0  0  0  0  0  0  0  0  0  0  0  0
   23.8503  -11.4265  -17.7316 C   0  0  0  0  0  0  0  0  0  0  0  0
   22.5328  -11.9006  -18.2346 C   0  0  0  0  0  0  0  0  0  0  0  0
   21.3607  -11.6523  -17.3158 C   0  0  2  0  0  0  0  0  0  0  0  0
   20.1883  -12.1839  -18.0584 N   0  0  0  0  0  0  0  0  0  0  0  0
   21.1898  -10.1984  -17.1291 C   0  0  0  0  0  0  0  0  0  0  0  0
   20.5931   -9.5456  -18.0364 O   0  0  0  0  0  0  0  0  0  0  0  0
   21.6423   -9.4866  -16.0048 N   0  0  0  0  0  0  0  0  0  0  0  0
   21.4183   -8.0592  -15.9335 C   0  0  1  0  0  0  0  0  0  0  0  0
   21.8097   -7.6443  -14.5147 C   0  0  0  0  0  0  0  0  0  0  0  0
   21.6093   -6.1990  -14.3083 C   0  0  0  0  0  0  0  0  0  0  0  0
   22.6083   -5.2749  -14.5924 C   0  0  0  0  0  0  0  0  0  0  0  0
   22.4299   -3.9163  -14.4180 C   0  0  0  0  0  0  0  0  0  0  0  0
   21.2080   -3.4667  -13.9422 C   0  0  0  0  0  0  0  0  0  0  0  0
   20.2021   -4.3470  -13.6522 C   0  0  0  0  0  0  0  0  0  0  0  0
   20.4202   -5.6975  -13.8403 C   0  0  0  0  0  0  0  0  0  0  0  0
   22.2414   -7.3657  -16.9371 C   0  0  0  0  0  0  0  0  0  0  0  0
   23.4402   -7.6630  -17.1566 O   0  0  0  0  0  0  0  0  0  0  0  0
   21.7045   -6.3181  -17.7099 O   0  0  0  0  0  0  0  0  0  0  0  0
  1  2  1  0
  2  3  1  0
  3  5  1  0
  3  4  1  1
  5  6  2  0
  7  8  1  0
  8  9  1  0
  9 10  1  0
 11 10  1  6
 11 13  1  0
 12 11  1  0
 12  5  1  0
 13 14  2  0
 15 13  1  0
 15 16  1  0
 16 24  1  0
 16 17  1  1
 18 17  1  0
 18 19  2  0
 20 19  1  0
 21 20  2  0
 22 23  2  0
 22 21  1  0
 23 18  1  0
 24 25  2  0
 24 26  1  0
M  END
$$$$
