SMF.pdb
     RDKit          3D

 26 26  0  0  1  0  0  0  0  0999 V2000
   40.7746  -22.2924    4.7006 O   0  0  0  0  0  0  0  0  0  0  0  0
   40.6831  -23.4014    5.5040 C   0  0  0  0  0  0  0  0  0  0  0  0
   40.4757  -24.6869    4.7699 C   0  0  2  0  0  0  0  0  0  0  0  0
   41.2461  -24.7267    3.5707 N   0  0  0  0  0  0  0  0  0  0  0  0
   39.0307  -24.9301    4.5682 C   0  0  0  0  0  0  0  0  0  0  0  0
   38.5570  -24.6350    3.4369 O   0  0  0  0  0  0  0  0  0  0  0  0
   33.5029  -28.5748    2.9759 C   0  0  0  0  0  0  0  0  0  0  0  0
   35.1578  -27.9279    3.3650 S   0  0  0  0  0  0  0  0  0  0  0  0
   35.3876  -27.9652    5.1904 C   0  0  0  0  0  0  0  0  0  0  0  0
   36.7029  -27.3232    5.4574 C   0  0  0  0  0  0  0  0  0  0  0  0
   36.7703  -25.8415    5.1749 C   0  0  2  0  0  0  0  0  0  0  0  0
   38.1608  -25.4585    5.5330 N   0  0  0  0  0  0  0  0  0  0  0  0
   35.8336  -25.1337    6.0691 C   0  0  0  0  0  0  0  0  0  0  0  0
   36.2319  -24.8320    7.2335 O   0  0  0  0  0  0  0  0  0  0  0  0
   34.5248  -24.7658    5.7125 N   0  0  0  0  0  0  0  0  0  0  0  0
   33.6465  -24.2107    6.7191 C   0  0  1  0  0  0  0  0  0  0  0  0
   32.5748  -23.4313    5.9559 C   0  0  0  0  0  0  0  0  0  0  0  0
   33.1205  -22.1800    5.4010 C   0  0  0  0  0  0  0  0  0  0  0  0
   33.5044  -22.0777    4.0687 C   0  0  0  0  0  0  0  0  0  0  0  0
   34.0037  -20.9074    3.5310 C   0  0  0  0  0  0  0  0  0  0  0  0
   34.1230  -19.8000    4.3562 C   0  0  0  0  0  0  0  0  0  0  0  0
   33.7551  -19.8638    5.6721 C   0  0  0  0  0  0  0  0  0  0  0  0
   33.2603  -21.0524    6.1714 C   0  0  0  0  0  0  0  0  0  0  0  0
   33.0494  -25.2895    7.5223 C   0  0  0  0  0  0  0  0  0  0  0  0
   32.3558  -25.0722    8.5448 O   0  0  0  0  0  0  0  0  0  0  0  0
   33.2350  -26.6394    7.1670 O   0  0  0  0  0  0  0  0  0  0  0  0
  1  2  1  0
  2  3  1  0
  3  5  1  0
  3  4  1  6
  5  6  2  0
  7  8  1  0
  8  9  1  0
  9 10  1  0
 11 10  1  1
 11 13  1  0
 12 11  1  0
 12  5  1  0
 13 14  2  0
 15 13  1  0
 15 16  1  0
 16 24  1  0
 16 17  1  6
 18 17  1  0
 18 19  2  0
 20 19  1  0
 21 20  2  0
 22 23  2  0
 22 21  1  0
 23 18  1  0
 24 25  2  0
 24 26  1  0
M  END
$$$$
