SMF.pdb
     RDKit          3D

 26 26  0  0  1  0  0  0  0  0999 V2000
   27.2550  -18.2945  -14.2522 O   0  0  0  0  0  0  0  0  0  0  0  0
   27.8366  -19.2597  -15.0357 C   0  0  0  0  0  0  0  0  0  0  0  0
   28.6379  -20.2730  -14.2836 C   0  0  2  0  0  0  0  0  0  0  0  0
   29.1978  -21.2450  -15.1638 N   0  0  0  0  0  0  0  0  0  0  0  0
   27.8303  -20.8465  -13.1851 C   0  0  0  0  0  0  0  0  0  0  0  0
   27.0427  -21.7842  -13.4880 O   0  0  0  0  0  0  0  0  0  0  0  0
   26.4315  -20.3857   -5.4036 C   0  0  0  0  0  0  0  0  0  0  0  0
   27.2954  -19.8581   -6.9149 S   0  0  0  0  0  0  0  0  0  0  0  0
   26.5348  -20.7155   -8.3547 C   0  0  0  0  0  0  0  0  0  0  0  0
   27.3730  -20.3705   -9.5345 C   0  0  0  0  0  0  0  0  0  0  0  0
   26.9342  -20.9835  -10.8428 C   0  0  2  0  0  0  0  0  0  0  0  0
   27.8773  -20.4273  -11.8477 N   0  0  0  0  0  0  0  0  0  0  0  0
   25.5690  -20.5225  -11.1612 C   0  0  0  0  0  0  0  0  0  0  0  0
   25.4224  -19.3379  -11.5863 O   0  0  0  0  0  0  0  0  0  0  0  0
   24.4155  -21.3145  -11.0285 N   0  0  0  0  0  0  0  0  0  0  0  0
   23.1550  -20.8200  -11.5378 C   0  0  1  0  0  0  0  0  0  0  0  0
   22.9219  -21.5514  -12.8604 C   0  0  0  0  0  0  0  0  0  0  0  0
   21.6012  -21.2224  -13.4250 C   0  0  0  0  0  0  0  0  0  0  0  0
   21.4081  -20.1050  -14.2294 C   0  0  0  0  0  0  0  0  0  0  0  0
   20.1795  -19.7921  -14.7776 C   0  0  0  0  0  0  0  0  0  0  0  0
   19.1058  -20.6274  -14.5112 C   0  0  0  0  0  0  0  0  0  0  0  0
   19.2585  -21.7356  -13.7241 C   0  0  0  0  0  0  0  0  0  0  0  0
   20.5033  -22.0138  -13.1949 C   0  0  0  0  0  0  0  0  0  0  0  0
   22.0752  -21.0992  -10.5777 C   0  0  0  0  0  0  0  0  0  0  0  0
   22.1416  -22.0199   -9.7283 O   0  0  0  0  0  0  0  0  0  0  0  0
   20.8984  -20.3260  -10.5723 O   0  0  0  0  0  0  0  0  0  0  0  0
  1  2  1  0
  2  3  1  0
  3  5  1  0
  3  4  1  6
  5  6  2  0
  7  8  1  0
  8  9  1  0
  9 10  1  0
 11 10  1  1
 11 13  1  0
 12 11  1  0
 12  5  1  0
 13 14  2  0
 15 13  1  0
 15 16  1  0
 16 24  1  0
 16 17  1  6
 18 17  1  0
 18 19  2  0
 20 19  1  0
 21 20  2  0
 22 23  2  0
 22 21  1  0
 23 18  1  0
 24 25  2  0
 24 26  1  0
M  END
$$$$
