SMF.pdb
     RDKit          3D

 26 26  0  0  1  0  0  0  0  0999 V2000
   25.9014  -23.0448  -17.3346 O   0  0  0  0  0  0  0  0  0  0  0  0
   27.1815  -23.3580  -16.9510 C   0  0  0  0  0  0  0  0  0  0  0  0
   28.0485  -22.1777  -16.6518 C   0  0  2  0  0  0  0  0  0  0  0  0
   29.3554  -22.5850  -16.2527 N   0  0  0  0  0  0  0  0  0  0  0  0
   27.3736  -21.2823  -15.6871 C   0  0  0  0  0  0  0  0  0  0  0  0
   27.5611  -21.5210  -14.4627 O   0  0  0  0  0  0  0  0  0  0  0  0
   26.9978  -15.6699  -17.5918 C   0  0  0  0  0  0  0  0  0  0  0  0
   27.2024  -15.5970  -15.7859 S   0  0  0  0  0  0  0  0  0  0  0  0
   27.3168  -17.3160  -15.1390 C   0  0  0  0  0  0  0  0  0  0  0  0
   26.0169  -17.9669  -15.4552 C   0  0  0  0  0  0  0  0  0  0  0  0
   25.8748  -19.3940  -14.9831 C   0  0  2  0  0  0  0  0  0  0  0  0
   26.5505  -20.2008  -16.0324 N   0  0  0  0  0  0  0  0  0  0  0  0
   24.4440  -19.7541  -14.9498 C   0  0  0  0  0  0  0  0  0  0  0  0
   23.9139  -20.1944  -16.0131 O   0  0  0  0  0  0  0  0  0  0  0  0
   23.6272  -19.6455  -13.8112 N   0  0  0  0  0  0  0  0  0  0  0  0
   22.2580  -20.1083  -13.8756 C   0  0  1  0  0  0  0  0  0  0  0  0
   22.0655  -21.0165  -12.6604 C   0  0  0  0  0  0  0  0  0  0  0  0
   22.8997  -22.2268  -12.7630 C   0  0  0  0  0  0  0  0  0  0  0  0
   22.5015  -23.3273  -13.5135 C   0  0  0  0  0  0  0  0  0  0  0  0
   23.2794  -24.4627  -13.6308 C   0  0  0  0  0  0  0  0  0  0  0  0
   24.4993  -24.4979  -12.9736 C   0  0  0  0  0  0  0  0  0  0  0  0
   24.9237  -23.4337  -12.2263 C   0  0  0  0  0  0  0  0  0  0  0  0
   24.1166  -22.3169  -12.1341 C   0  0  0  0  0  0  0  0  0  0  0  0
   21.3334  -18.9641  -13.8368 C   0  0  0  0  0  0  0  0  0  0  0  0
   21.7145  -17.7886  -13.6206 O   0  0  0  0  0  0  0  0  0  0  0  0
   19.9530  -19.1460  -14.0470 O   0  0  0  0  0  0  0  0  0  0  0  0
  1  2  1  0
  2  3  1  0
  3  5  1  0
  3  4  1  1
  5  6  2  0
  7  8  1  0
  8  9  1  0
  9 10  1  0
 11 10  1  6
 11 13  1  0
 12 11  1  0
 12  5  1  0
 13 14  2  0
 15 13  1  0
 15 16  1  0
 16 24  1  0
 16 17  1  1
 18 17  1  0
 18 19  2  0
 20 19  1  0
 21 20  2  0
 22 23  2  0
 22 21  1  0
 23 18  1  0
 24 25  2  0
 24 26  1  0
M  END
$$$$
