SMF.pdb
     RDKit          3D

 26 26  0  0  1  0  0  0  0  0999 V2000
   26.3100  -19.0460  -15.5637 O   0  0  0  0  0  0  0  0  0  0  0  0
   27.6264  -19.1824  -15.1999 C   0  0  0  0  0  0  0  0  0  0  0  0
   28.0218  -20.5675  -14.8002 C   0  0  2  0  0  0  0  0  0  0  0  0
   27.9671  -21.4605  -15.9105 N   0  0  0  0  0  0  0  0  0  0  0  0
   27.2276  -21.0062  -13.6321 C   0  0  0  0  0  0  0  0  0  0  0  0
   26.3824  -21.9213  -13.8305 O   0  0  0  0  0  0  0  0  0  0  0  0
   26.2099  -19.9550   -5.8487 C   0  0  0  0  0  0  0  0  0  0  0  0
   27.0341  -19.5848   -7.4274 S   0  0  0  0  0  0  0  0  0  0  0  0
   26.2032  -20.5423   -8.7613 C   0  0  0  0  0  0  0  0  0  0  0  0
   26.9477  -20.2425  -10.0141 C   0  0  0  0  0  0  0  0  0  0  0  0
   26.3978  -20.8858  -11.2646 C   0  0  2  0  0  0  0  0  0  0  0  0
   27.3458  -20.4836  -12.3361 N   0  0  0  0  0  0  0  0  0  0  0  0
   25.0700  -20.3140  -11.5610 C   0  0  0  0  0  0  0  0  0  0  0  0
   25.0127  -19.2926  -12.3087 O   0  0  0  0  0  0  0  0  0  0  0  0
   23.8586  -20.8316  -11.0712 N   0  0  0  0  0  0  0  0  0  0  0  0
   22.6315  -20.5592  -11.7874 C   0  0  1  0  0  0  0  0  0  0  0  0
   22.8146  -21.1679  -13.1783 C   0  0  0  0  0  0  0  0  0  0  0  0
   21.5992  -21.0040  -13.9952 C   0  0  0  0  0  0  0  0  0  0  0  0
   21.3567  -19.8423  -14.7193 C   0  0  0  0  0  0  0  0  0  0  0  0
   20.2295  -19.6800  -15.5009 C   0  0  0  0  0  0  0  0  0  0  0  0
   19.3121  -20.7176  -15.5598 C   0  0  0  0  0  0  0  0  0  0  0  0
   19.5177  -21.8752  -14.8607 C   0  0  0  0  0  0  0  0  0  0  0  0
   20.6575  -21.9982  -14.0909 C   0  0  0  0  0  0  0  0  0  0  0  0
   21.4893  -21.1672  -11.0865 C   0  0  0  0  0  0  0  0  0  0  0  0
   20.3641  -20.6170  -11.0148 O   0  0  0  0  0  0  0  0  0  0  0  0
   21.6151  -22.4197  -10.4553 O   0  0  0  0  0  0  0  0  0  0  0  0
  1  2  1  0
  2  3  1  0
  3  5  1  0
  3  4  1  6
  5  6  2  0
  7  8  1  0
  8  9  1  0
  9 10  1  0
 11 10  1  1
 11 13  1  0
 12 11  1  0
 12  5  1  0
 13 14  2  0
 15 13  1  0
 15 16  1  0
 16 24  1  0
 16 17  1  6
 18 17  1  0
 18 19  2  0
 20 19  1  0
 21 20  2  0
 22 23  2  0
 22 21  1  0
 23 18  1  0
 24 25  2  0
 24 26  1  0
M  END
$$$$
