TLQ.pdb
     RDKit          3D

 25 24  0  0  1  0  0  0  0  0999 V2000
    6.9429  -17.3219   21.4287 C   0  0  0  0  0  0  0  0  0  0  0  0
    8.1329  -16.6774   20.7965 C   0  0  1  0  0  0  0  0  0  0  0  0
    8.0729  -16.8688   19.4275 O   0  0  0  0  0  0  0  0  0  0  0  0
    8.1836  -15.1681   21.0688 C   0  0  2  0  0  0  0  0  0  0  0  0
    9.1878  -14.6270   20.2006 N   0  0  0  0  0  0  0  0  0  0  0  0
    8.6152  -15.0454   22.5030 C   0  0  0  0  0  0  0  0  0  0  0  0
    9.8119  -15.2631   22.8259 O   0  0  0  0  0  0  0  0  0  0  0  0
    8.0846  -11.7434   26.1638 C   0  0  0  0  0  0  0  0  0  0  0  0
    6.8788  -12.5451   25.7117 C   0  0  2  0  0  0  0  0  0  0  0  0
    5.6707  -11.9548   26.3353 C   0  0  0  0  0  0  0  0  0  0  0  0
    7.0447  -13.9933   25.8008 C   0  0  0  0  0  0  0  0  0  0  0  0
    7.9875  -14.7215   24.9437 C   0  0  2  0  0  0  0  0  0  0  0  0
    7.6805  -14.6798   23.5321 N   0  0  0  0  0  0  0  0  0  0  0  0
    8.3515  -16.0867   25.3924 C   0  0  0  0  0  0  0  0  0  0  0  0
    7.9801  -17.1414   24.8143 O   0  0  0  0  0  0  0  0  0  0  0  0
   11.1711  -19.3617   22.4538 N   0  0  0  0  0  0  0  0  0  0  0  0
   11.7261  -18.6664   23.5562 C   0  0  0  0  0  0  0  0  0  0  0  0
   12.6832  -17.8917   23.3647 O   0  0  0  0  0  0  0  0  0  0  0  0
   11.1627  -18.8675   24.9270 C   0  0  0  0  0  0  0  0  0  0  0  0
   10.9984  -17.5422   25.5815 C   0  0  0  0  0  0  0  0  0  0  0  0
    9.9798  -17.5233   26.6898 C   0  0  2  0  0  0  0  0  0  0  0  0
    9.1693  -16.2914   26.5404 N   0  0  0  0  0  0  0  0  0  0  0  0
   10.6627  -17.4624   27.9962 C   0  0  0  0  0  0  0  0  0  0  0  0
   11.1248  -16.3606   28.4120 O   0  0  0  0  0  0  0  0  0  0  0  0
   10.8042  -18.5914   28.7755 O   0  0  0  0  0  0  0  0  0  0  0  0
  2  1  1  1
  3  2  1  0
  4  6  1  0
  4  2  1  0
  4  5  1  6
  6 13  1  0
  7  6  2  0
  9  8  1  1
 10  9  1  0
 12 11  1  1
 11  9  1  0
 13 12  1  0
 14 12  1  0
 14 15  2  0
 17 16  1  0
 18 17  2  0
 19 17  1  0
 19 20  1  0
 21 20  1  6
 21 22  1  0
 21 23  1  0
 22 14  1  0
 23 24  2  0
 23 25  1  0
M  END
$$$$
