TLQ.pdb
     RDKit          3D

 25 24  0  0  1  0  0  0  0  0999 V2000
    7.5389  -17.3426   19.3744 C   0  0  0  0  0  0  0  0  0  0  0  0
    7.8562  -16.8956   20.7639 C   0  0  1  0  0  0  0  0  0  0  0  0
    8.6759  -17.8363   21.3620 O   0  0  0  0  0  0  0  0  0  0  0  0
    8.5826  -15.5440   20.7828 C   0  0  2  0  0  0  0  0  0  0  0  0
    9.8722  -15.7618   20.1959 N   0  0  0  0  0  0  0  0  0  0  0  0
    8.7253  -15.1991   22.2384 C   0  0  0  0  0  0  0  0  0  0  0  0
    9.7444  -15.5650   22.8799 O   0  0  0  0  0  0  0  0  0  0  0  0
    8.1650  -12.0074   26.6431 C   0  0  0  0  0  0  0  0  0  0  0  0
    6.8345  -12.4542   26.0676 C   0  0  2  0  0  0  0  0  0  0  0  0
    6.1591  -13.3083   27.0731 C   0  0  0  0  0  0  0  0  0  0  0  0
    6.9028  -12.9522   24.6964 C   0  0  0  0  0  0  0  0  0  0  0  0
    7.8275  -14.0220   24.3035 C   0  0  2  0  0  0  0  0  0  0  0  0
    7.7108  -14.4495   22.9279 N   0  0  0  0  0  0  0  0  0  0  0  0
    7.9250  -15.1707   25.2354 C   0  0  0  0  0  0  0  0  0  0  0  0
    6.9990  -16.0007   25.4308 O   0  0  0  0  0  0  0  0  0  0  0  0
   10.5435  -20.1245   24.8792 N   0  0  0  0  0  0  0  0  0  0  0  0
   11.2293  -18.9610   24.4520 C   0  0  0  0  0  0  0  0  0  0  0  0
   12.2529  -19.0833   23.7519 O   0  0  0  0  0  0  0  0  0  0  0  0
   10.7223  -17.6091   24.8421 C   0  0  0  0  0  0  0  0  0  0  0  0
    9.5033  -17.7724   25.6782 C   0  0  0  0  0  0  0  0  0  0  0  0
    9.3113  -16.6906   26.7073 C   0  0  2  0  0  0  0  0  0  0  0  0
    9.1102  -15.4104   25.9880 N   0  0  0  0  0  0  0  0  0  0  0  0
   10.5279  -16.5625   27.5318 C   0  0  0  0  0  0  0  0  0  0  0  0
   10.8483  -17.4933   28.3264 O   0  0  0  0  0  0  0  0  0  0  0  0
   11.3260  -15.4408   27.4487 O   0  0  0  0  0  0  0  0  0  0  0  0
  2  1  1  6
  3  2  1  0
  4  6  1  0
  4  2  1  0
  4  5  1  1
  6 13  1  0
  7  6  2  0
  9  8  1  1
 10  9  1  0
 12 11  1  1
 11  9  1  0
 13 12  1  0
 14 12  1  0
 14 15  2  0
 17 16  1  0
 18 17  2  0
 19 17  1  0
 19 20  1  0
 21 20  1  6
 21 22  1  0
 21 23  1  0
 22 14  1  0
 23 24  2  0
 23 25  1  0
M  END
$$$$
