TLQ.pdb
     RDKit          3D

 25 24  0  0  1  0  0  0  0  0999 V2000
    6.4523  -16.9234   21.1861 C   0  0  0  0  0  0  0  0  0  0  0  0
    7.5759  -16.2234   20.4943 C   0  0  1  0  0  0  0  0  0  0  0  0
    7.3889  -16.3169   19.1266 O   0  0  0  0  0  0  0  0  0  0  0  0
    7.6469  -14.7370   20.8689 C   0  0  2  0  0  0  0  0  0  0  0  0
    8.6027  -14.1355   19.9861 N   0  0  0  0  0  0  0  0  0  0  0  0
    8.1584  -14.7156   22.2818 C   0  0  0  0  0  0  0  0  0  0  0  0
    9.3727  -14.9448   22.5200 O   0  0  0  0  0  0  0  0  0  0  0  0
    8.0244  -11.6123   26.0033 C   0  0  0  0  0  0  0  0  0  0  0  0
    6.7336  -12.3408   25.6804 C   0  0  2  0  0  0  0  0  0  0  0  0
    5.6405  -11.7125   26.4597 C   0  0  0  0  0  0  0  0  0  0  0  0
    6.8341  -13.7973   25.7130 C   0  0  0  0  0  0  0  0  0  0  0  0
    7.6807  -14.5390   24.7711 C   0  0  2  0  0  0  0  0  0  0  0  0
    7.2817  -14.4353   23.3859 N   0  0  0  0  0  0  0  0  0  0  0  0
    8.0074  -15.9339   25.1516 C   0  0  0  0  0  0  0  0  0  0  0  0
    7.1550  -16.8542   25.2570 O   0  0  0  0  0  0  0  0  0  0  0  0
   12.7087  -19.3072   23.3462 N   0  0  0  0  0  0  0  0  0  0  0  0
   12.9537  -18.0468   23.9447 C   0  0  0  0  0  0  0  0  0  0  0  0
   13.9407  -17.3818   23.5753 O   0  0  0  0  0  0  0  0  0  0  0  0
   12.0332  -17.5315   25.0050 C   0  0  0  0  0  0  0  0  0  0  0  0
   10.7279  -18.2358   24.8964 C   0  0  0  0  0  0  0  0  0  0  0  0
    9.6674  -17.7176   25.8308 C   0  0  2  0  0  0  0  0  0  0  0  0
    9.3480  -16.3274   25.4286 N   0  0  0  0  0  0  0  0  0  0  0  0
   10.1892  -17.6833   27.2103 C   0  0  0  0  0  0  0  0  0  0  0  0
   10.4641  -18.7659   27.8043 O   0  0  0  0  0  0  0  0  0  0  0  0
   10.3849  -16.4852   27.8647 O   0  0  0  0  0  0  0  0  0  0  0  0
  2  1  1  1
  3  2  1  0
  4  6  1  0
  4  2  1  0
  4  5  1  6
  6 13  1  0
  7  6  2  0
  9  8  1  1
 10  9  1  0
 12 11  1  1
 11  9  1  0
 13 12  1  0
 14 12  1  0
 14 15  2  0
 17 16  1  0
 18 17  2  0
 19 17  1  0
 19 20  1  0
 21 20  1  6
 21 22  1  0
 21 23  1  0
 22 14  1  0
 23 24  2  0
 23 25  1  0
M  END
$$$$
