TLQ.pdb
     RDKit          3D

 25 24  0  0  1  0  0  0  0  0999 V2000
    7.0981  -17.3756   20.1538 C   0  0  0  0  0  0  0  0  0  0  0  0
    7.7545  -16.8495   21.3882 C   0  0  1  0  0  0  0  0  0  0  0  0
    9.0275  -17.3835   21.4822 O   0  0  0  0  0  0  0  0  0  0  0  0
    7.8754  -15.3199   21.3695 C   0  0  2  0  0  0  0  0  0  0  0  0
    8.8077  -14.9936   20.3307 N   0  0  0  0  0  0  0  0  0  0  0  0
    8.4451  -14.9579   22.7121 C   0  0  0  0  0  0  0  0  0  0  0  0
    9.6909  -14.8755   22.8710 O   0  0  0  0  0  0  0  0  0  0  0  0
    7.9945  -11.4829   26.0111 C   0  0  0  0  0  0  0  0  0  0  0  0
    6.8218  -12.4385   25.8987 C   0  0  2  0  0  0  0  0  0  0  0  0
    5.6984  -11.8874   26.6930 C   0  0  0  0  0  0  0  0  0  0  0  0
    7.1631  -13.8444   26.0983 C   0  0  0  0  0  0  0  0  0  0  0  0
    8.0705  -14.5597   25.1935 C   0  0  2  0  0  0  0  0  0  0  0  0
    7.5894  -14.6993   23.8378 N   0  0  0  0  0  0  0  0  0  0  0  0
    8.6408  -15.8255   25.7130 C   0  0  0  0  0  0  0  0  0  0  0  0
    7.9960  -16.9023   25.8094 O   0  0  0  0  0  0  0  0  0  0  0  0
   14.5927  -17.0824   25.3367 N   0  0  0  0  0  0  0  0  0  0  0  0
   13.6259  -17.0990   24.3015 C   0  0  0  0  0  0  0  0  0  0  0  0
   14.0038  -17.0075   23.1175 O   0  0  0  0  0  0  0  0  0  0  0  0
   12.1738  -17.2250   24.6370 C   0  0  0  0  0  0  0  0  0  0  0  0
   12.0168  -17.2197   26.1158 C   0  0  0  0  0  0  0  0  0  0  0  0
   10.5866  -17.1867   26.5846 C   0  0  2  0  0  0  0  0  0  0  0  0
    9.9953  -15.8999   26.1473 N   0  0  0  0  0  0  0  0  0  0  0  0
   10.5420  -17.2298   28.0586 C   0  0  0  0  0  0  0  0  0  0  0  0
   10.0811  -16.2427   28.7016 O   0  0  0  0  0  0  0  0  0  0  0  0
   10.9944  -18.3342   28.7496 O   0  0  0  0  0  0  0  0  0  0  0  0
  2  1  1  6
  3  2  1  0
  4  6  1  0
  4  2  1  0
  4  5  1  6
  6 13  1  0
  7  6  2  0
  9  8  1  1
 10  9  1  0
 12 11  1  1
 11  9  1  0
 13 12  1  0
 14 12  1  0
 14 15  2  0
 17 16  1  0
 18 17  2  0
 19 17  1  0
 19 20  1  0
 21 20  1  1
 21 22  1  0
 21 23  1  0
 22 14  1  0
 23 24  2  0
 23 25  1  0
M  END
$$$$
