TLQ.pdb
     RDKit          3D

 25 24  0  0  1  0  0  0  0  0999 V2000
    7.0502  -16.4488   21.1495 C   0  0  0  0  0  0  0  0  0  0  0  0
    7.9266  -15.4012   20.5448 C   0  0  1  0  0  0  0  0  0  0  0  0
    7.8357  -15.4806   19.1664 O   0  0  0  0  0  0  0  0  0  0  0  0
    7.5134  -13.9866   20.9727 C   0  0  2  0  0  0  0  0  0  0  0  0
    8.1465  -13.0796   20.0609 N   0  0  0  0  0  0  0  0  0  0  0  0
    8.0809  -13.8163   22.3537 C   0  0  0  0  0  0  0  0  0  0  0  0
    9.2615  -13.4087   22.5083 O   0  0  0  0  0  0  0  0  0  0  0  0
    7.7241  -11.0305   25.8878 C   0  0  0  0  0  0  0  0  0  0  0  0
    6.5481  -11.9793   25.7536 C   0  0  2  0  0  0  0  0  0  0  0  0
    5.4583  -11.4923   26.6322 C   0  0  0  0  0  0  0  0  0  0  0  0
    6.8981  -13.3948   25.8345 C   0  0  0  0  0  0  0  0  0  0  0  0
    7.8070  -14.0268   24.8710 C   0  0  2  0  0  0  0  0  0  0  0  0
    7.2966  -14.1118   23.5216 N   0  0  0  0  0  0  0  0  0  0  0  0
    8.4354  -15.2964   25.3076 C   0  0  0  0  0  0  0  0  0  0  0  0
    8.8308  -15.5203   26.4815 O   0  0  0  0  0  0  0  0  0  0  0  0
    7.2443  -20.7604   26.7236 N   0  0  0  0  0  0  0  0  0  0  0  0
    6.7667  -20.2021   25.5125 C   0  0  0  0  0  0  0  0  0  0  0  0
    6.0623  -20.9013   24.7589 O   0  0  0  0  0  0  0  0  0  0  0  0
    7.1096  -18.7913   25.1535 C   0  0  0  0  0  0  0  0  0  0  0  0
    8.4191  -18.7762   24.4488 C   0  0  0  0  0  0  0  0  0  0  0  0
    9.3084  -17.6207   24.8235 C   0  0  2  0  0  0  0  0  0  0  0  0
    8.6345  -16.3719   24.3953 N   0  0  0  0  0  0  0  0  0  0  0  0
   10.5887  -17.7184   24.0970 C   0  0  0  0  0  0  0  0  0  0  0  0
   11.3853  -18.6669   24.3543 O   0  0  0  0  0  0  0  0  0  0  0  0
   10.9317  -16.7899   23.1367 O   0  0  0  0  0  0  0  0  0  0  0  0
  2  1  1  1
  3  2  1  0
  4  6  1  0
  4  2  1  0
  4  5  1  6
  6 13  1  0
  7  6  2  0
  9  8  1  1
 10  9  1  0
 12 11  1  1
 11  9  1  0
 13 12  1  0
 14 12  1  0
 14 15  2  0
 17 16  1  0
 18 17  2  0
 19 17  1  0
 19 20  1  0
 21 20  1  6
 21 22  1  0
 21 23  1  0
 22 14  1  0
 23 24  2  0
 23 25  1  0
M  END
$$$$
