TLQ.pdb
     RDKit          3D

 25 24  0  0  1  0  0  0  0  0999 V2000
    9.7492  -19.5573   19.6047 C   0  0  0  0  0  0  0  0  0  0  0  0
   10.9536  -19.0892   18.8553 C   0  0  1  0  0  0  0  0  0  0  0  0
   11.2561  -20.0121   17.8699 O   0  0  0  0  0  0  0  0  0  0  0  0
   10.7222  -17.7286   18.1844 C   0  0  2  0  0  0  0  0  0  0  0  0
   11.9159  -17.4228   17.4521 N   0  0  0  0  0  0  0  0  0  0  0  0
   10.5459  -16.7597   19.3196 C   0  0  0  0  0  0  0  0  0  0  0  0
   11.5500  -16.2304   19.8631 O   0  0  0  0  0  0  0  0  0  0  0  0
    8.9835  -12.4559   19.9018 C   0  0  0  0  0  0  0  0  0  0  0  0
    7.8962  -13.4865   19.6632 C   0  0  2  0  0  0  0  0  0  0  0  0
    6.6297  -12.7673   19.3881 C   0  0  0  0  0  0  0  0  0  0  0  0
    7.8586  -14.5674   20.6444 C   0  0  0  0  0  0  0  0  0  0  0  0
    9.0045  -15.4578   20.8638 C   0  0  2  0  0  0  0  0  0  0  0  0
    9.2383  -16.4167   19.8082 N   0  0  0  0  0  0  0  0  0  0  0  0
    9.0971  -16.0776   22.2072 C   0  0  0  0  0  0  0  0  0  0  0  0
    8.1152  -16.5586   22.8310 O   0  0  0  0  0  0  0  0  0  0  0  0
   13.9640  -19.3819   22.7153 N   0  0  0  0  0  0  0  0  0  0  0  0
   13.3723  -19.7915   23.9355 C   0  0  0  0  0  0  0  0  0  0  0  0
   13.9035  -20.7105   24.5884 O   0  0  0  0  0  0  0  0  0  0  0  0
   12.1268  -19.1227   24.4237 C   0  0  0  0  0  0  0  0  0  0  0  0
   11.7893  -18.0009   23.5076 C   0  0  0  0  0  0  0  0  0  0  0  0
   10.5741  -17.2129   23.9183 C   0  0  2  0  0  0  0  0  0  0  0  0
   10.3423  -16.1685   22.8925 N   0  0  0  0  0  0  0  0  0  0  0  0
   10.8271  -16.5376   25.2054 C   0  0  0  0  0  0  0  0  0  0  0  0
   10.9452  -15.2785   25.2409 O   0  0  0  0  0  0  0  0  0  0  0  0
   10.9353  -17.2594   26.3756 O   0  0  0  0  0  0  0  0  0  0  0  0
  2  1  1  6
  3  2  1  0
  4  6  1  0
  4  2  1  0
  4  5  1  1
  6 13  1  0
  7  6  2  0
  9  8  1  1
 10  9  1  0
 12 11  1  6
 11  9  1  0
 13 12  1  0
 14 12  1  0
 14 15  2  0
 17 16  1  0
 18 17  2  0
 19 17  1  0
 19 20  1  0
 21 20  1  6
 21 22  1  0
 21 23  1  0
 22 14  1  0
 23 24  2  0
 23 25  1  0
M  END
$$$$
