TLQ.pdb
     RDKit          3D

 25 24  0  0  1  0  0  0  0  0999 V2000
    7.9810  -18.4499   22.6537 C   0  0  0  0  0  0  0  0  0  0  0  0
    8.5544  -17.7947   21.4400 C   0  0  1  0  0  0  0  0  0  0  0  0
    8.3503  -18.6178   20.3466 O   0  0  0  0  0  0  0  0  0  0  0  0
    7.8952  -16.4395   21.1507 C   0  0  2  0  0  0  0  0  0  0  0  0
    8.3647  -16.0202   19.8629 N   0  0  0  0  0  0  0  0  0  0  0  0
    8.4142  -15.5183   22.2186 C   0  0  0  0  0  0  0  0  0  0  0  0
    9.5724  -15.0338   22.1301 O   0  0  0  0  0  0  0  0  0  0  0  0
    5.9680  -12.2934   27.0098 C   0  0  0  0  0  0  0  0  0  0  0  0
    7.2030  -12.6585   26.2081 C   0  0  2  0  0  0  0  0  0  0  0  0
    7.9658  -11.4157   25.9423 C   0  0  0  0  0  0  0  0  0  0  0  0
    6.9522  -13.5503   25.0792 C   0  0  0  0  0  0  0  0  0  0  0  0
    8.0383  -14.2613   24.3945 C   0  0  2  0  0  0  0  0  0  0  0  0
    7.6083  -15.1709   23.3571 N   0  0  0  0  0  0  0  0  0  0  0  0
    9.0715  -14.8655   25.2691 C   0  0  0  0  0  0  0  0  0  0  0  0
    9.7213  -14.2269   26.1377 O   0  0  0  0  0  0  0  0  0  0  0  0
   10.6652  -20.2893   28.0247 N   0  0  0  0  0  0  0  0  0  0  0  0
    9.7707  -19.3787   28.6389 C   0  0  0  0  0  0  0  0  0  0  0  0
    9.3739  -19.6071   29.7979 O   0  0  0  0  0  0  0  0  0  0  0  0
    9.3155  -18.1627   27.8966 C   0  0  0  0  0  0  0  0  0  0  0  0
    9.9002  -18.1834   26.5294 C   0  0  0  0  0  0  0  0  0  0  0  0
   10.4229  -16.8515   26.0614 C   0  0  2  0  0  0  0  0  0  0  0  0
    9.3996  -16.2483   25.1751 N   0  0  0  0  0  0  0  0  0  0  0  0
   11.6523  -17.0466   25.2694 C   0  0  0  0  0  0  0  0  0  0  0  0
   12.7134  -17.4296   25.8418 O   0  0  0  0  0  0  0  0  0  0  0  0
   11.6629  -16.8193   23.9092 O   0  0  0  0  0  0  0  0  0  0  0  0
  2  1  1  1
  3  2  1  0
  4  6  1  0
  4  2  1  0
  4  5  1  6
  6 13  1  0
  7  6  2  0
  9  8  1  6
 10  9  1  0
 12 11  1  1
 11  9  1  0
 13 12  1  0
 14 12  1  0
 14 15  2  0
 17 16  1  0
 18 17  2  0
 19 17  1  0
 19 20  1  0
 21 20  1  6
 21 22  1  0
 21 23  1  0
 22 14  1  0
 23 24  2  0
 23 25  1  0
M  END
$$$$
