TLQ.pdb
     RDKit          3D

 25 24  0  0  1  0  0  0  0  0999 V2000
    6.6794  -17.5213   21.8030 C   0  0  0  0  0  0  0  0  0  0  0  0
    7.8154  -17.2294   20.8781 C   0  0  1  0  0  0  0  0  0  0  0  0
    7.5524  -17.8056   19.6479 O   0  0  0  0  0  0  0  0  0  0  0  0
    8.0162  -15.7224   20.6695 C   0  0  2  0  0  0  0  0  0  0  0  0
    9.0726  -15.5768   19.7116 N   0  0  0  0  0  0  0  0  0  0  0  0
    8.4529  -15.1988   22.0087 C   0  0  0  0  0  0  0  0  0  0  0  0
    9.6388  -15.3614   22.3972 O   0  0  0  0  0  0  0  0  0  0  0  0
    7.8676  -13.3171   27.0654 C   0  0  0  0  0  0  0  0  0  0  0  0
    7.2717  -12.3770   26.0347 C   0  0  2  0  0  0  0  0  0  0  0  0
    6.1489  -11.6466   26.6693 C   0  0  0  0  0  0  0  0  0  0  0  0
    7.0293  -12.9833   24.7285 C   0  0  0  0  0  0  0  0  0  0  0  0
    7.8678  -14.0699   24.2085 C   0  0  2  0  0  0  0  0  0  0  0  0
    7.5353  -14.5056   22.8713 N   0  0  0  0  0  0  0  0  0  0  0  0
    8.0912  -15.2131   25.1253 C   0  0  0  0  0  0  0  0  0  0  0  0
    7.1752  -15.9626   25.5541 O   0  0  0  0  0  0  0  0  0  0  0  0
   13.0377  -20.5110   25.4329 N   0  0  0  0  0  0  0  0  0  0  0  0
   12.5309  -19.2039   25.2295 C   0  0  0  0  0  0  0  0  0  0  0  0
   13.0475  -18.4828   24.3543 O   0  0  0  0  0  0  0  0  0  0  0  0
   11.3909  -18.7067   26.0602 C   0  0  0  0  0  0  0  0  0  0  0  0
   10.8550  -17.4609   25.4500 C   0  0  0  0  0  0  0  0  0  0  0  0
    9.6840  -16.8671   26.1864 C   0  0  2  0  0  0  0  0  0  0  0  0
    9.3972  -15.5412   25.5892 N   0  0  0  0  0  0  0  0  0  0  0  0
   10.0369  -16.6604   27.6039 C   0  0  0  0  0  0  0  0  0  0  0  0
   10.3057  -15.4965   28.0205 O   0  0  0  0  0  0  0  0  0  0  0  0
   10.0766  -17.7195   28.4864 O   0  0  0  0  0  0  0  0  0  0  0  0
  2  1  1  1
  3  2  1  0
  4  6  1  0
  4  2  1  0
  4  5  1  6
  6 13  1  0
  7  6  2  0
  9  8  1  1
 10  9  1  0
 12 11  1  1
 11  9  1  0
 13 12  1  0
 14 12  1  0
 14 15  2  0
 17 16  1  0
 18 17  2  0
 19 17  1  0
 19 20  1  0
 21 20  1  6
 21 22  1  0
 21 23  1  0
 22 14  1  0
 23 24  2  0
 23 25  1  0
M  END
$$$$
