TLQ.pdb
     RDKit          3D

 25 24  0  0  1  0  0  0  0  0999 V2000
    5.7051  -18.4583   22.0830 C   0  0  0  0  0  0  0  0  0  0  0  0
    6.5515  -17.6129   22.9775 C   0  0  1  0  0  0  0  0  0  0  0  0
    7.7635  -18.2486   23.1813 O   0  0  0  0  0  0  0  0  0  0  0  0
    6.8298  -16.2312   22.3707 C   0  0  2  0  0  0  0  0  0  0  0  0
    7.5339  -16.4556   21.1424 N   0  0  0  0  0  0  0  0  0  0  0  0
    7.7231  -15.5427   23.3638 C   0  0  0  0  0  0  0  0  0  0  0  0
    8.9672  -15.5046   23.1778 O   0  0  0  0  0  0  0  0  0  0  0  0
    7.1886  -11.2032   24.8848 C   0  0  0  0  0  0  0  0  0  0  0  0
    6.4263  -12.1911   25.7474 C   0  0  2  0  0  0  0  0  0  0  0  0
    5.5424  -11.4247   26.6574 C   0  0  0  0  0  0  0  0  0  0  0  0
    7.2491  -13.2446   26.3354 C   0  0  0  0  0  0  0  0  0  0  0  0
    7.9877  -14.2063   25.5086 C   0  0  2  0  0  0  0  0  0  0  0  0
    7.1838  -14.9162   24.5398 N   0  0  0  0  0  0  0  0  0  0  0  0
    8.9108  -15.1115   26.2337 C   0  0  0  0  0  0  0  0  0  0  0  0
    9.8146  -14.7176   27.0164 O   0  0  0  0  0  0  0  0  0  0  0  0
    7.6938  -21.0655   27.9992 N   0  0  0  0  0  0  0  0  0  0  0  0
    8.8957  -20.5138   28.5069 C   0  0  0  0  0  0  0  0  0  0  0  0
    9.1368  -20.6046   29.7262 O   0  0  0  0  0  0  0  0  0  0  0  0
    9.8549  -19.8339   27.5826 C   0  0  0  0  0  0  0  0  0  0  0  0
    9.1194  -18.8167   26.7850 C   0  0  0  0  0  0  0  0  0  0  0  0
    9.6991  -17.4299   26.8681 C   0  0  2  0  0  0  0  0  0  0  0  0
    8.8264  -16.5253   26.0828 N   0  0  0  0  0  0  0  0  0  0  0  0
   11.0414  -17.4110   26.2561 C   0  0  0  0  0  0  0  0  0  0  0  0
   11.1613  -17.2114   25.0127 O   0  0  0  0  0  0  0  0  0  0  0  0
   12.1722  -17.6063   27.0210 O   0  0  0  0  0  0  0  0  0  0  0  0
  2  1  1  6
  3  2  1  0
  4  6  1  0
  4  2  1  0
  4  5  1  6
  6 13  1  0
  7  6  2  0
  9  8  1  1
 10  9  1  0
 12 11  1  1
 11  9  1  0
 13 12  1  0
 14 12  1  0
 14 15  2  0
 17 16  1  0
 18 17  2  0
 19 17  1  0
 19 20  1  0
 21 20  1  6
 21 22  1  0
 21 23  1  0
 22 14  1  0
 23 24  2  0
 23 25  1  0
M  END
$$$$
