TLQ.pdb
     RDKit          3D

 25 24  0  0  1  0  0  0  0  0999 V2000
    7.8658  -18.4926   22.8726 C   0  0  0  0  0  0  0  0  0  0  0  0
    6.8551  -17.9678   21.9060 C   0  0  1  0  0  0  0  0  0  0  0  0
    6.2009  -19.0352   21.3167 O   0  0  0  0  0  0  0  0  0  0  0  0
    5.8071  -17.0816   22.5923 C   0  0  2  0  0  0  0  0  0  0  0  0
    4.7952  -16.8087   21.6143 N   0  0  0  0  0  0  0  0  0  0  0  0
    6.5390  -15.8187   22.9496 C   0  0  0  0  0  0  0  0  0  0  0  0
    6.2340  -14.7306   22.3956 O   0  0  0  0  0  0  0  0  0  0  0  0
    5.8414  -12.2288   26.8195 C   0  0  0  0  0  0  0  0  0  0  0  0
    7.0782  -12.7132   26.0868 C   0  0  2  0  0  0  0  0  0  0  0  0
    7.7380  -11.5395   25.4672 C   0  0  0  0  0  0  0  0  0  0  0  0
    6.8646  -13.8884   25.2465 C   0  0  0  0  0  0  0  0  0  0  0  0
    7.9826  -14.6586   24.6892 C   0  0  2  0  0  0  0  0  0  0  0  0
    7.5958  -15.8220   23.9241 N   0  0  0  0  0  0  0  0  0  0  0  0
    9.0969  -14.9528   25.6215 C   0  0  0  0  0  0  0  0  0  0  0  0
    9.0505  -14.7481   26.8627 O   0  0  0  0  0  0  0  0  0  0  0  0
    8.3325  -19.8663   25.8142 N   0  0  0  0  0  0  0  0  0  0  0  0
    9.5044  -20.0434   26.5899 C   0  0  0  0  0  0  0  0  0  0  0  0
    9.6517  -21.1006   27.2331 O   0  0  0  0  0  0  0  0  0  0  0  0
   10.5443  -18.9691   26.6290 C   0  0  0  0  0  0  0  0  0  0  0  0
   10.0610  -17.7996   25.8478 C   0  0  0  0  0  0  0  0  0  0  0  0
   10.9879  -16.6137   25.8747 C   0  0  2  0  0  0  0  0  0  0  0  0
   10.3244  -15.5024   25.1526 N   0  0  0  0  0  0  0  0  0  0  0  0
   12.2370  -16.9385   25.1600 C   0  0  0  0  0  0  0  0  0  0  0  0
   13.0789  -17.7194   25.6910 O   0  0  0  0  0  0  0  0  0  0  0  0
   12.5020  -16.4042   23.9165 O   0  0  0  0  0  0  0  0  0  0  0  0
  2  1  1  1
  3  2  1  0
  4  6  1  0
  4  2  1  0
  4  5  1  6
  6 13  1  0
  7  6  2  0
  9  8  1  6
 10  9  1  0
 12 11  1  1
 11  9  1  0
 13 12  1  0
 14 12  1  0
 14 15  2  0
 17 16  1  0
 18 17  2  0
 19 17  1  0
 19 20  1  0
 21 20  1  6
 21 22  1  0
 21 23  1  0
 22 14  1  0
 23 24  2  0
 23 25  1  0
M  END
$$$$
