TLQ.pdb
     RDKit          3D

 25 24  0  0  1  0  0  0  0  0999 V2000
    8.4753  -18.7222   22.7179 C   0  0  0  0  0  0  0  0  0  0  0  0
    8.6092  -17.9499   21.4463 C   0  0  1  0  0  0  0  0  0  0  0  0
    8.2233  -18.7549   20.3892 O   0  0  0  0  0  0  0  0  0  0  0  0
    7.7284  -16.6933   21.4397 C   0  0  2  0  0  0  0  0  0  0  0  0
    7.7517  -16.1817   20.1008 N   0  0  0  0  0  0  0  0  0  0  0  0
    8.4105  -15.7348   22.3746 C   0  0  0  0  0  0  0  0  0  0  0  0
    9.5758  -15.3288   22.1274 O   0  0  0  0  0  0  0  0  0  0  0  0
    7.1617  -11.5665   24.9236 C   0  0  0  0  0  0  0  0  0  0  0  0
    6.5504  -12.8774   25.3806 C   0  0  2  0  0  0  0  0  0  0  0  0
    5.5739  -12.5823   26.4559 C   0  0  0  0  0  0  0  0  0  0  0  0
    7.5159  -13.9462   25.6211 C   0  0  0  0  0  0  0  0  0  0  0  0
    8.4031  -14.4444   24.5635 C   0  0  2  0  0  0  0  0  0  0  0  0
    7.7550  -15.2621   23.5635 N   0  0  0  0  0  0  0  0  0  0  0  0
    9.6858  -15.0336   25.0161 C   0  0  0  0  0  0  0  0  0  0  0  0
   10.7863  -14.4226   25.0021 O   0  0  0  0  0  0  0  0  0  0  0  0
   11.2929  -14.5704   29.6824 N   0  0  0  0  0  0  0  0  0  0  0  0
   10.5578  -15.7777   29.7760 C   0  0  0  0  0  0  0  0  0  0  0  0
   10.1813  -16.1729   30.8963 O   0  0  0  0  0  0  0  0  0  0  0  0
   10.2436  -16.5591   28.5401 C   0  0  0  0  0  0  0  0  0  0  0  0
   11.1645  -16.1345   27.4523 C   0  0  0  0  0  0  0  0  0  0  0  0
   10.9788  -16.8829   26.1593 C   0  0  2  0  0  0  0  0  0  0  0  0
    9.7503  -16.3682   25.5093 N   0  0  0  0  0  0  0  0  0  0  0  0
   10.7796  -18.3183   26.4359 C   0  0  0  0  0  0  0  0  0  0  0  0
    9.6339  -18.8332   26.2856 O   0  0  0  0  0  0  0  0  0  0  0  0
   11.8268  -19.1115   26.8555 O   0  0  0  0  0  0  0  0  0  0  0  0
  2  1  1  1
  3  2  1  0
  4  6  1  0
  4  2  1  0
  4  5  1  6
  6 13  1  0
  7  6  2  0
  9  8  1  1
 10  9  1  0
 12 11  1  1
 11  9  1  0
 13 12  1  0
 14 12  1  0
 14 15  2  0
 17 16  1  0
 18 17  2  0
 19 17  1  0
 19 20  1  0
 21 20  1  1
 21 22  1  0
 21 23  1  0
 22 14  1  0
 23 24  2  0
 23 25  1  0
M  END
$$$$
