TLQ.pdb
     RDKit          3D

 25 24  0  0  1  0  0  0  0  0999 V2000
    7.3833  -18.0773   22.3569 C   0  0  0  0  0  0  0  0  0  0  0  0
    8.6160  -17.6888   21.6080 C   0  0  1  0  0  0  0  0  0  0  0  0
    8.6909  -18.4379   20.4471 O   0  0  0  0  0  0  0  0  0  0  0  0
    8.6118  -16.2036   21.2220 C   0  0  2  0  0  0  0  0  0  0  0  0
    9.6859  -16.0176   20.2911 N   0  0  0  0  0  0  0  0  0  0  0  0
    8.8987  -15.4682   22.5007 C   0  0  0  0  0  0  0  0  0  0  0  0
   10.0848  -15.3194   22.8942 O   0  0  0  0  0  0  0  0  0  0  0  0
    8.2788  -12.3941   26.7661 C   0  0  0  0  0  0  0  0  0  0  0  0
    7.0200  -12.2701   25.9287 C   0  0  2  0  0  0  0  0  0  0  0  0
    5.8531  -12.2867   26.8425 C   0  0  0  0  0  0  0  0  0  0  0  0
    6.9769  -13.1498   24.7638 C   0  0  0  0  0  0  0  0  0  0  0  0
    8.0531  -14.1034   24.4700 C   0  0  2  0  0  0  0  0  0  0  0  0
    7.8354  -14.9215   23.2987 N   0  0  0  0  0  0  0  0  0  0  0  0
    8.5469  -14.8993   25.6190 C   0  0  0  0  0  0  0  0  0  0  0  0
    8.9360  -14.4003   26.7071 O   0  0  0  0  0  0  0  0  0  0  0  0
    8.7550  -21.2229   25.9168 N   0  0  0  0  0  0  0  0  0  0  0  0
    9.5647  -20.4793   25.0235 C   0  0  0  0  0  0  0  0  0  0  0  0
   10.1212  -21.0680   24.0766 O   0  0  0  0  0  0  0  0  0  0  0  0
    9.7422  -19.0078   25.2241 C   0  0  0  0  0  0  0  0  0  0  0  0
    8.9082  -18.5727   26.3760 C   0  0  0  0  0  0  0  0  0  0  0  0
    9.0530  -17.1160   26.7274 C   0  0  2  0  0  0  0  0  0  0  0  0
    8.6116  -16.3207   25.5571 N   0  0  0  0  0  0  0  0  0  0  0  0
   10.4717  -16.8012   26.9819 C   0  0  0  0  0  0  0  0  0  0  0  0
   11.0362  -17.2464   28.0228 O   0  0  0  0  0  0  0  0  0  0  0  0
   11.1958  -16.0279   26.0990 O   0  0  0  0  0  0  0  0  0  0  0  0
  2  1  1  6
  3  2  1  0
  4  6  1  0
  4  2  1  0
  4  5  1  6
  6 13  1  0
  7  6  2  0
  9  8  1  1
 10  9  1  0
 12 11  1  1
 11  9  1  0
 13 12  1  0
 14 12  1  0
 14 15  2  0
 17 16  1  0
 18 17  2  0
 19 17  1  0
 19 20  1  0
 21 20  1  6
 21 22  1  0
 21 23  1  0
 22 14  1  0
 23 24  2  0
 23 25  1  0
M  END
$$$$
