TLQ.pdb
     RDKit          3D

 25 24  0  0  1  0  0  0  0  0999 V2000
    6.3172  -17.2331   22.0657 C   0  0  0  0  0  0  0  0  0  0  0  0
    7.4984  -16.7608   21.2828 C   0  0  1  0  0  0  0  0  0  0  0  0
    7.3194  -17.0979   19.9529 O   0  0  0  0  0  0  0  0  0  0  0  0
    7.6786  -15.2395   21.3727 C   0  0  2  0  0  0  0  0  0  0  0  0
    8.6255  -14.8769   20.3595 N   0  0  0  0  0  0  0  0  0  0  0  0
    8.2585  -14.9961   22.7375 C   0  0  0  0  0  0  0  0  0  0  0  0
    9.4899  -15.1577   22.9413 O   0  0  0  0  0  0  0  0  0  0  0  0
    8.0400  -11.3408   25.6637 C   0  0  0  0  0  0  0  0  0  0  0  0
    6.8332  -12.2596   25.6872 C   0  0  2  0  0  0  0  0  0  0  0  0
    5.7354  -11.5631   26.3988 C   0  0  0  0  0  0  0  0  0  0  0  0
    7.1254  -13.6355   26.0800 C   0  0  0  0  0  0  0  0  0  0  0  0
    7.8729  -14.5501   25.2090 C   0  0  2  0  0  0  0  0  0  0  0  0
    7.4289  -14.5766   23.8340 N   0  0  0  0  0  0  0  0  0  0  0  0
    8.1034  -15.9132   25.7442 C   0  0  0  0  0  0  0  0  0  0  0  0
    7.3302  -16.8872   25.5494 O   0  0  0  0  0  0  0  0  0  0  0  0
    6.5808  -19.6284   25.6464 N   0  0  0  0  0  0  0  0  0  0  0  0
    7.6734  -20.4386   26.0417 C   0  0  0  0  0  0  0  0  0  0  0  0
    7.4579  -21.6094   26.4102 O   0  0  0  0  0  0  0  0  0  0  0  0
    9.0627  -19.8855   26.0131 C   0  0  0  0  0  0  0  0  0  0  0  0
    9.0022  -18.4439   25.6529 C   0  0  0  0  0  0  0  0  0  0  0  0
    9.8676  -17.5572   26.5079 C   0  0  2  0  0  0  0  0  0  0  0  0
    9.2500  -16.2101   26.5351 N   0  0  0  0  0  0  0  0  0  0  0  0
   11.2070  -17.4310   25.9024 C   0  0  0  0  0  0  0  0  0  0  0  0
   12.2167  -17.2540   26.6438 O   0  0  0  0  0  0  0  0  0  0  0  0
   11.3773  -17.5053   24.5359 O   0  0  0  0  0  0  0  0  0  0  0  0
  2  1  1  1
  3  2  1  0
  4  6  1  0
  4  2  1  0
  4  5  1  6
  6 13  1  0
  7  6  2  0
  9  8  1  1
 10  9  1  0
 12 11  1  1
 11  9  1  0
 13 12  1  0
 14 12  1  0
 14 15  2  0
 17 16  1  0
 18 17  2  0
 19 17  1  0
 19 20  1  0
 21 20  1  6
 21 22  1  0
 21 23  1  0
 22 14  1  0
 23 24  2  0
 23 25  1  0
M  END
$$$$
