TLQ.pdb
     RDKit          3D

 25 24  0  0  1  0  0  0  0  0999 V2000
    6.9009  -17.5972   21.3670 C   0  0  0  0  0  0  0  0  0  0  0  0
    8.0972  -17.1792   20.5764 C   0  0  1  0  0  0  0  0  0  0  0  0
    7.9347  -17.5898   19.2651 O   0  0  0  0  0  0  0  0  0  0  0  0
    8.2891  -15.6567   20.5827 C   0  0  2  0  0  0  0  0  0  0  0  0
    9.4125  -15.3802   19.7364 N   0  0  0  0  0  0  0  0  0  0  0  0
    8.6147  -15.3112   22.0085 C   0  0  0  0  0  0  0  0  0  0  0  0
    9.7233  -15.6421   22.5039 O   0  0  0  0  0  0  0  0  0  0  0  0
    5.6907  -12.4648   26.7541 C   0  0  0  0  0  0  0  0  0  0  0  0
    7.0225  -12.9570   26.2200 C   0  0  2  0  0  0  0  0  0  0  0  0
    8.0842  -12.0511   26.7189 C   0  0  0  0  0  0  0  0  0  0  0  0
    7.0240  -13.2776   24.7953 C   0  0  0  0  0  0  0  0  0  0  0  0
    7.8998  -14.3122   24.2327 C   0  0  2  0  0  0  0  0  0  0  0  0
    7.6766  -14.6009   22.8343 N   0  0  0  0  0  0  0  0  0  0  0  0
    8.0452  -15.5481   25.0381 C   0  0  0  0  0  0  0  0  0  0  0  0
    7.1055  -16.3527   25.2709 O   0  0  0  0  0  0  0  0  0  0  0  0
   11.7294  -19.6909   23.8925 N   0  0  0  0  0  0  0  0  0  0  0  0
   12.4272  -18.5998   24.4663 C   0  0  0  0  0  0  0  0  0  0  0  0
   13.6284  -18.4308   24.1808 O   0  0  0  0  0  0  0  0  0  0  0  0
   11.7214  -17.6697   25.4009 C   0  0  0  0  0  0  0  0  0  0  0  0
   10.3048  -18.1020   25.5354 C   0  0  0  0  0  0  0  0  0  0  0  0
    9.4535  -17.1778   26.3645 C   0  0  2  0  0  0  0  0  0  0  0  0
    9.2968  -15.9095   25.6139 N   0  0  0  0  0  0  0  0  0  0  0  0
   10.1378  -16.8724   27.6354 C   0  0  0  0  0  0  0  0  0  0  0  0
   10.5534  -15.6984   27.8578 O   0  0  0  0  0  0  0  0  0  0  0  0
   10.3306  -17.8493   28.5894 O   0  0  0  0  0  0  0  0  0  0  0  0
  2  1  1  1
  3  2  1  0
  4  6  1  0
  4  2  1  0
  4  5  1  6
  6 13  1  0
  7  6  2  0
  9  8  1  6
 10  9  1  0
 12 11  1  1
 11  9  1  0
 13 12  1  0
 14 12  1  0
 14 15  2  0
 17 16  1  0
 18 17  2  0
 19 17  1  0
 19 20  1  0
 21 20  1  6
 21 22  1  0
 21 23  1  0
 22 14  1  0
 23 24  2  0
 23 25  1  0
M  END
$$$$
