TLQ.pdb
     RDKit          3D

 25 24  0  0  1  0  0  0  0  0999 V2000
    6.3725  -17.2126   20.0121 C   0  0  0  0  0  0  0  0  0  0  0  0
    7.0312  -16.8680   21.3077 C   0  0  1  0  0  0  0  0  0  0  0  0
    8.0811  -17.7427   21.5243 O   0  0  0  0  0  0  0  0  0  0  0  0
    7.5890  -15.4384   21.3084 C   0  0  2  0  0  0  0  0  0  0  0  0
    8.6253  -15.4008   20.3187 N   0  0  0  0  0  0  0  0  0  0  0  0
    8.1729  -15.2490   22.6801 C   0  0  0  0  0  0  0  0  0  0  0  0
    9.3791  -15.5324   22.9005 O   0  0  0  0  0  0  0  0  0  0  0  0
    8.3831  -11.6677   25.7274 C   0  0  0  0  0  0  0  0  0  0  0  0
    7.0330  -12.3593   25.7320 C   0  0  2  0  0  0  0  0  0  0  0  0
    6.0970  -11.5412   26.5391 C   0  0  0  0  0  0  0  0  0  0  0  0
    7.0861  -13.7924   26.0079 C   0  0  0  0  0  0  0  0  0  0  0  0
    7.8166  -14.7240   25.1405 C   0  0  2  0  0  0  0  0  0  0  0  0
    7.3756  -14.7440   23.7644 N   0  0  0  0  0  0  0  0  0  0  0  0
    8.0175  -16.0905   25.6788 C   0  0  0  0  0  0  0  0  0  0  0  0
    7.3068  -17.0821   25.3685 O   0  0  0  0  0  0  0  0  0  0  0  0
   12.4105  -18.1225   23.9485 N   0  0  0  0  0  0  0  0  0  0  0  0
   12.0545  -19.3623   24.5341 C   0  0  0  0  0  0  0  0  0  0  0  0
   12.7932  -20.3503   24.3579 O   0  0  0  0  0  0  0  0  0  0  0  0
   10.8064  -19.4720   25.3509 C   0  0  0  0  0  0  0  0  0  0  0  0
   10.1245  -18.1506   25.3720 C   0  0  0  0  0  0  0  0  0  0  0  0
    9.6267  -17.7346   26.7305 C   0  0  2  0  0  0  0  0  0  0  0  0
    9.0599  -16.3706   26.6081 N   0  0  0  0  0  0  0  0  0  0  0  0
   10.7543  -17.6747   27.6800 C   0  0  0  0  0  0  0  0  0  0  0  0
   10.8108  -18.4971   28.6396 O   0  0  0  0  0  0  0  0  0  0  0  0
   11.7529  -16.7344   27.5365 O   0  0  0  0  0  0  0  0  0  0  0  0
  2  1  1  6
  3  2  1  0
  4  6  1  0
  4  2  1  0
  4  5  1  6
  6 13  1  0
  7  6  2  0
  9  8  1  1
 10  9  1  0
 12 11  1  1
 11  9  1  0
 13 12  1  0
 14 12  1  0
 14 15  2  0
 17 16  1  0
 18 17  2  0
 19 17  1  0
 19 20  1  0
 21 20  1  6
 21 22  1  0
 21 23  1  0
 22 14  1  0
 23 24  2  0
 23 25  1  0
M  END
$$$$
