TLQ.pdb
     RDKit          3D

 25 24  0  0  1  0  0  0  0  0999 V2000
    9.8246  -18.8034   16.6156 C   0  0  0  0  0  0  0  0  0  0  0  0
    9.9779  -17.6680   17.5741 C   0  0  1  0  0  0  0  0  0  0  0  0
    8.9480  -16.7666   17.3708 O   0  0  0  0  0  0  0  0  0  0  0  0
    9.9256  -18.1358   19.0347 C   0  0  2  0  0  0  0  0  0  0  0  0
    8.6153  -18.6771   19.2466 N   0  0  0  0  0  0  0  0  0  0  0  0
   10.1106  -16.8872   19.8502 C   0  0  0  0  0  0  0  0  0  0  0  0
   11.2405  -16.3374   19.9206 O   0  0  0  0  0  0  0  0  0  0  0  0
    8.9154  -12.6767   19.4036 C   0  0  0  0  0  0  0  0  0  0  0  0
    7.7804  -13.5075   19.9717 C   0  0  2  0  0  0  0  0  0  0  0  0
    6.5307  -12.7178   19.8648 C   0  0  0  0  0  0  0  0  0  0  0  0
    8.0729  -14.1365   21.2568 C   0  0  0  0  0  0  0  0  0  0  0  0
    9.1413  -15.1310   21.4098 C   0  0  2  0  0  0  0  0  0  0  0  0
    9.0118  -16.2953   20.5635 N   0  0  0  0  0  0  0  0  0  0  0  0
    9.4957  -15.4940   22.8026 C   0  0  0  0  0  0  0  0  0  0  0  0
    9.7314  -14.6557   23.7117 O   0  0  0  0  0  0  0  0  0  0  0  0
    7.2860  -20.2981   25.6361 N   0  0  0  0  0  0  0  0  0  0  0  0
    6.6848  -19.1199   25.1290 C   0  0  0  0  0  0  0  0  0  0  0  0
    5.4478  -19.0855   24.9821 O   0  0  0  0  0  0  0  0  0  0  0  0
    7.5334  -17.9394   24.7782 C   0  0  0  0  0  0  0  0  0  0  0  0
    8.9565  -18.2654   25.0614 C   0  0  0  0  0  0  0  0  0  0  0  0
    9.9331  -17.2148   24.6044 C   0  0  2  0  0  0  0  0  0  0  0  0
    9.5932  -16.8563   23.2070 N   0  0  0  0  0  0  0  0  0  0  0  0
   11.3015  -17.7663   24.6122 C   0  0  0  0  0  0  0  0  0  0  0  0
   11.8377  -18.0988   25.7086 O   0  0  0  0  0  0  0  0  0  0  0  0
   12.0075  -17.9278   23.4386 O   0  0  0  0  0  0  0  0  0  0  0  0
  2  1  1  6
  3  2  1  0
  4  6  1  0
  4  2  1  0
  4  5  1  1
  6 13  1  0
  7  6  2  0
  9  8  1  1
 10  9  1  0
 12 11  1  1
 11  9  1  0
 13 12  1  0
 14 12  1  0
 14 15  2  0
 17 16  1  0
 18 17  2  0
 19 17  1  0
 19 20  1  0
 21 20  1  6
 21 22  1  0
 21 23  1  0
 22 14  1  0
 23 24  2  0
 23 25  1  0
M  END
$$$$
