GST.pdb
     RDKit          3D

 18 17  0  0  1  0  0  0  0  0999 V2000
   17.5501  -15.1835  -17.2643 N   0  0  0  0  0  0  0  0  0  0  0  0
   18.2666  -14.1141  -17.9058 C   0  0  0  0  0  0  0  0  0  0  0  0
   18.7769  -13.1397  -16.8832 C   0  0  0  0  0  0  0  0  0  0  0  0
   18.3367  -13.1430  -15.7182 O   0  0  0  0  0  0  0  0  0  0  0  0
   22.3320  -10.2248  -15.4259 O   0  0  0  0  0  0  0  0  0  0  0  0
   21.8002  -11.0211  -16.4203 C   0  0  0  0  0  0  0  0  0  0  0  0
   20.3311  -11.2697  -16.2636 C   0  0  2  0  0  0  0  0  0  0  0  0
   19.7751  -12.1812  -17.1994 N   0  0  0  0  0  0  0  0  0  0  0  0
   19.6458   -9.9415  -16.3773 C   0  0  0  0  0  0  0  0  0  0  0  0
   19.5761   -9.3364  -17.4797 O   0  0  0  0  0  0  0  0  0  0  0  0
   16.1194   -9.0652  -15.0510 C   0  0  0  0  0  0  0  0  0  0  0  0
   17.1066   -8.0552  -14.5108 C   0  0  1  0  0  0  0  0  0  0  0  0
   17.4428   -8.4514  -13.2178 O   0  0  0  0  0  0  0  0  0  0  0  0
   18.3665   -8.0108  -15.3695 C   0  0  2  0  0  0  0  0  0  0  0  0
   19.0479   -9.3086  -15.2557 N   0  0  0  0  0  0  0  0  0  0  0  0
   19.2726   -6.9331  -14.9540 C   0  0  0  0  0  0  0  0  0  0  0  0
   20.4013   -7.1592  -14.4166 O   0  0  0  0  0  0  0  0  0  0  0  0
   18.8808   -5.6227  -15.1561 O   0  0  0  0  0  0  0  0  0  0  0  0
  2  1  1  0
  3  2  1  0
  4  3  2  0
  5  6  1  0
  7  6  1  6
  7  9  1  0
  7  8  1  0
  8  3  1  0
  9 15  1  0
 10  9  2  0
 12 11  1  6
 12 13  1  0
 14 12  1  0
 14 16  1  0
 14 15  1  1
 16 17  2  0
 16 18  1  0
M  END
$$$$
