GST.pdb
     RDKit          3D

 18 17  0  0  1  0  0  0  0  0999 V2000
   17.6252  -15.2756  -15.8499 N   0  0  0  0  0  0  0  0  0  0  0  0
   17.4173  -14.1324  -15.0023 C   0  0  0  0  0  0  0  0  0  0  0  0
   18.0530  -12.9124  -15.6050 C   0  0  0  0  0  0  0  0  0  0  0  0
   19.1967  -12.9610  -16.0956 O   0  0  0  0  0  0  0  0  0  0  0  0
   16.1381   -9.0697  -15.4349 O   0  0  0  0  0  0  0  0  0  0  0  0
   16.9125   -9.4144  -16.5245 C   0  0  0  0  0  0  0  0  0  0  0  0
   17.9171  -10.4854  -16.2274 C   0  0  2  0  0  0  0  0  0  0  0  0
   17.3819  -11.6621  -15.6405 N   0  0  0  0  0  0  0  0  0  0  0  0
   18.9446   -9.8840  -15.3167 C   0  0  0  0  0  0  0  0  0  0  0  0
   18.7865   -9.8816  -14.0672 O   0  0  0  0  0  0  0  0  0  0  0  0
   22.8600  -10.4784  -15.6770 C   0  0  0  0  0  0  0  0  0  0  0  0
   22.5351   -9.0041  -15.5911 C   0  0  1  0  0  0  0  0  0  0  0  0
   22.4919   -8.5103  -16.8935 O   0  0  0  0  0  0  0  0  0  0  0  0
   21.1827   -8.7820  -14.9212 C   0  0  2  0  0  0  0  0  0  0  0  0
   20.1350   -9.2933  -15.8170 N   0  0  0  0  0  0  0  0  0  0  0  0
   20.9434   -7.3627  -14.6322 C   0  0  0  0  0  0  0  0  0  0  0  0
   21.6271   -6.7147  -13.7800 O   0  0  0  0  0  0  0  0  0  0  0  0
   19.9347   -6.7080  -15.3147 O   0  0  0  0  0  0  0  0  0  0  0  0
  2  1  1  0
  3  2  1  0
  4  3  2  0
  5  6  1  0
  7  6  1  1
  7  9  1  0
  7  8  1  0
  8  3  1  0
  9 15  1  0
 10  9  2  0
 12 11  1  6
 12 13  1  0
 14 12  1  0
 14 16  1  0
 14 15  1  6
 16 17  2  0
 16 18  1  0
M  END
$$$$
