GST.pdb
     RDKit          3D

 18 17  0  0  1  0  0  0  0  0999 V2000
   16.8102  -12.0456  -15.6977 N   0  0  0  0  0  0  0  0  0  0  0  0
   17.5366  -11.3002  -14.7051 C   0  0  0  0  0  0  0  0  0  0  0  0
   18.1455  -10.0709  -15.3165 C   0  0  0  0  0  0  0  0  0  0  0  0
   19.0105  -10.1591  -16.2081 O   0  0  0  0  0  0  0  0  0  0  0  0
   17.0428   -6.1538  -13.9698 O   0  0  0  0  0  0  0  0  0  0  0  0
   17.3684   -6.3692  -15.2939 C   0  0  0  0  0  0  0  0  0  0  0  0
   18.2379   -7.5707  -15.5066 C   0  0  2  0  0  0  0  0  0  0  0  0
   17.7632   -8.7667  -14.9068 N   0  0  0  0  0  0  0  0  0  0  0  0
   19.5944   -7.2330  -14.9657 C   0  0  0  0  0  0  0  0  0  0  0  0
   19.8912   -7.4596  -13.7628 O   0  0  0  0  0  0  0  0  0  0  0  0
   24.2129   -5.5640  -15.8841 C   0  0  0  0  0  0  0  0  0  0  0  0
   22.8124   -5.8465  -16.3793 C   0  0  1  0  0  0  0  0  0  0  0  0
   22.8901   -6.9274  -17.2553 O   0  0  0  0  0  0  0  0  0  0  0  0
   21.8854   -6.2005  -15.2207 C   0  0  2  0  0  0  0  0  0  0  0  0
   20.6001   -6.6463  -15.7783 N   0  0  0  0  0  0  0  0  0  0  0  0
   21.6712   -5.0578  -14.3243 C   0  0  0  0  0  0  0  0  0  0  0  0
   20.8485   -4.1269  -14.5894 O   0  0  0  0  0  0  0  0  0  0  0  0
   22.3934   -4.9942  -13.1470 O   0  0  0  0  0  0  0  0  0  0  0  0
  2  1  1  0
  3  2  1  0
  4  3  2  0
  5  6  1  0
  7  6  1  1
  7  9  1  0
  7  8  1  0
  8  3  1  0
  9 15  1  0
 10  9  2  0
 12 11  1  1
 12 13  1  0
 14 12  1  0
 14 16  1  0
 14 15  1  6
 16 17  2  0
 16 18  1  0
M  END
$$$$
