GST.pdb
     RDKit          3D

 18 17  0  0  1  0  0  0  0  0999 V2000
   16.4666  -14.4768  -17.0171 N   0  0  0  0  0  0  0  0  0  0  0  0
   16.2979  -13.1091  -16.6055 C   0  0  0  0  0  0  0  0  0  0  0  0
   17.4911  -12.2910  -17.0088 C   0  0  0  0  0  0  0  0  0  0  0  0
   18.5804  -12.8330  -17.2744 O   0  0  0  0  0  0  0  0  0  0  0  0
   17.4044   -7.9953  -16.8537 O   0  0  0  0  0  0  0  0  0  0  0  0
   18.1913   -8.6393  -17.7873 C   0  0  0  0  0  0  0  0  0  0  0  0
   18.5389  -10.0459  -17.4060 C   0  0  2  0  0  0  0  0  0  0  0  0
   17.4277  -10.8761  -17.1035 N   0  0  0  0  0  0  0  0  0  0  0  0
   19.4534   -9.9670  -16.2211 C   0  0  0  0  0  0  0  0  0  0  0  0
   19.0098  -10.0740  -15.0472 O   0  0  0  0  0  0  0  0  0  0  0  0
   24.1031  -10.0351  -14.4687 C   0  0  0  0  0  0  0  0  0  0  0  0
   23.1639   -9.9698  -15.6520 C   0  0  1  0  0  0  0  0  0  0  0  0
   23.1804  -11.2204  -16.2667 O   0  0  0  0  0  0  0  0  0  0  0  0
   21.7425   -9.6462  -15.2028 C   0  0  2  0  0  0  0  0  0  0  0  0
   20.8520   -9.7695  -16.3661 N   0  0  0  0  0  0  0  0  0  0  0  0
   21.6428   -8.2944  -14.6388 C   0  0  0  0  0  0  0  0  0  0  0  0
   21.5331   -7.2580  -15.3651 O   0  0  0  0  0  0  0  0  0  0  0  0
   21.6694   -8.1459  -13.2645 O   0  0  0  0  0  0  0  0  0  0  0  0
  2  1  1  0
  3  2  1  0
  4  3  2  0
  5  6  1  0
  7  6  1  1
  7  9  1  0
  7  8  1  0
  8  3  1  0
  9 15  1  0
 10  9  2  0
 12 11  1  1
 12 13  1  0
 14 12  1  0
 14 16  1  0
 14 15  1  6
 16 17  2  0
 16 18  1  0
M  END
$$$$
