GST.pdb
     RDKit          3D

 18 17  0  0  1  0  0  0  0  0999 V2000
   19.0619  -22.1915  -12.5177 N   0  0  0  0  0  0  0  0  0  0  0  0
   19.0825  -23.4474  -11.8170 C   0  0  0  0  0  0  0  0  0  0  0  0
   18.0379  -23.4610  -10.7380 C   0  0  0  0  0  0  0  0  0  0  0  0
   17.5228  -22.4029  -10.3304 O   0  0  0  0  0  0  0  0  0  0  0  0
   14.9215  -25.7507  -10.6981 O   0  0  0  0  0  0  0  0  0  0  0  0
   15.5482  -25.8579   -9.4727 C   0  0  0  0  0  0  0  0  0  0  0  0
   16.5319  -24.7594   -9.2076 C   0  0  2  0  0  0  0  0  0  0  0  0
   17.5972  -24.6715  -10.1419 N   0  0  0  0  0  0  0  0  0  0  0  0
   17.0793  -24.9824   -7.8302 C   0  0  0  0  0  0  0  0  0  0  0  0
   18.2477  -25.4193   -7.6561 O   0  0  0  0  0  0  0  0  0  0  0  0
   14.5713  -25.0978   -4.3469 C   0  0  0  0  0  0  0  0  0  0  0  0
   15.8646  -24.3151   -4.3134 C   0  0  1  0  0  0  0  0  0  0  0  0
   16.3859  -24.4265   -3.0258 O   0  0  0  0  0  0  0  0  0  0  0  0
   16.8681  -24.8770   -5.3154 C   0  0  2  0  0  0  0  0  0  0  0  0
   16.3117  -24.7134   -6.6664 N   0  0  0  0  0  0  0  0  0  0  0  0
   17.1567  -26.2941   -5.0626 C   0  0  0  0  0  0  0  0  0  0  0  0
   16.5500  -27.2327   -5.6665 O   0  0  0  0  0  0  0  0  0  0  0  0
   18.1262  -26.6174   -4.1313 O   0  0  0  0  0  0  0  0  0  0  0  0
  2  1  1  0
  3  2  1  0
  4  3  2  0
  5  6  1  0
  7  6  1  6
  7  9  1  0
  7  8  1  0
  8  3  1  0
  9 15  1  0
 10  9  2  0
 12 11  1  1
 12 13  1  0
 14 12  1  0
 14 16  1  0
 14 15  1  6
 16 17  2  0
 16 18  1  0
M  END
$$$$
