GST.pdb
     RDKit          3D

 18 17  0  0  1  0  0  0  0  0999 V2000
   20.2065  -12.8798  -16.7229 N   0  0  0  0  0  0  0  0  0  0  0  0
   20.8078  -11.8725  -17.5550 C   0  0  0  0  0  0  0  0  0  0  0  0
   20.5309  -10.5040  -17.0018 C   0  0  0  0  0  0  0  0  0  0  0  0
   20.8735   -9.4799  -17.6222 O   0  0  0  0  0  0  0  0  0  0  0  0
   17.3321   -9.8941  -14.4693 O   0  0  0  0  0  0  0  0  0  0  0  0
   18.4372   -9.1294  -14.1535 C   0  0  0  0  0  0  0  0  0  0  0  0
   19.4510   -9.0627  -15.2546 C   0  0  2  0  0  0  0  0  0  0  0  0
   19.8719  -10.3217  -15.7578 N   0  0  0  0  0  0  0  0  0  0  0  0
   20.6305   -8.3071  -14.7211 C   0  0  0  0  0  0  0  0  0  0  0  0
   21.4665   -8.8586  -13.9574 O   0  0  0  0  0  0  0  0  0  0  0  0
   23.1366   -6.3329  -16.8530 C   0  0  0  0  0  0  0  0  0  0  0  0
   22.6058   -5.4208  -15.7700 C   0  0  1  0  0  0  0  0  0  0  0  0
   21.5773   -4.6647  -16.3290 O   0  0  0  0  0  0  0  0  0  0  0  0
   22.0594   -6.2280  -14.5967 C   0  0  2  0  0  0  0  0  0  0  0  0
   20.8582   -6.9446  -15.0496 N   0  0  0  0  0  0  0  0  0  0  0  0
   21.7273   -5.3708  -13.4520 C   0  0  0  0  0  0  0  0  0  0  0  0
   20.5316   -5.1722  -13.0719 O   0  0  0  0  0  0  0  0  0  0  0  0
   22.7568   -4.7571  -12.7627 O   0  0  0  0  0  0  0  0  0  0  0  0
  2  1  1  0
  3  2  1  0
  4  3  2  0
  5  6  1  0
  7  6  1  1
  7  9  1  0
  7  8  1  0
  8  3  1  0
  9 15  1  0
 10  9  2  0
 12 11  1  6
 12 13  1  0
 14 12  1  0
 14 16  1  0
 14 15  1  6
 16 17  2  0
 16 18  1  0
M  END
$$$$
