GST.pdb
     RDKit          3D

 18 17  0  0  1  0  0  0  0  0999 V2000
   18.0929  -11.8247  -15.0196 N   0  0  0  0  0  0  0  0  0  0  0  0
   17.9758  -10.8482  -16.0690 C   0  0  0  0  0  0  0  0  0  0  0  0
   18.3550   -9.4868  -15.5607 C   0  0  0  0  0  0  0  0  0  0  0  0
   19.0076   -8.6967  -16.2684 O   0  0  0  0  0  0  0  0  0  0  0  0
   17.4380   -8.2572  -11.5686 O   0  0  0  0  0  0  0  0  0  0  0  0
   17.2406   -7.3787  -12.6150 C   0  0  0  0  0  0  0  0  0  0  0  0
   18.0638   -7.6980  -13.8253 C   0  0  2  0  0  0  0  0  0  0  0  0
   17.9880   -9.0468  -14.2620 N   0  0  0  0  0  0  0  0  0  0  0  0
   19.4837   -7.3482  -13.4961 C   0  0  0  0  0  0  0  0  0  0  0  0
   20.1104   -7.9547  -12.5874 O   0  0  0  0  0  0  0  0  0  0  0  0
   22.2467   -7.6628  -15.8337 C   0  0  0  0  0  0  0  0  0  0  0  0
   22.3217   -6.2376  -15.3341 C   0  0  1  0  0  0  0  0  0  0  0  0
   21.6827   -5.4321  -16.2747 O   0  0  0  0  0  0  0  0  0  0  0  0
   21.6208   -6.0945  -13.9868 C   0  0  2  0  0  0  0  0  0  0  0  0
   20.1827   -6.3244  -14.1884 N   0  0  0  0  0  0  0  0  0  0  0  0
   21.8364   -4.7672  -13.3977 C   0  0  0  0  0  0  0  0  0  0  0  0
   22.9635   -4.3964  -12.9440 O   0  0  0  0  0  0  0  0  0  0  0  0
   20.7706   -3.8886  -13.3351 O   0  0  0  0  0  0  0  0  0  0  0  0
  2  1  1  0
  3  2  1  0
  4  3  2  0
  5  6  1  0
  7  6  1  1
  7  9  1  0
  7  8  1  0
  8  3  1  0
  9 15  1  0
 10  9  2  0
 12 11  1  6
 12 13  1  0
 14 12  1  0
 14 16  1  0
 14 15  1  6
 16 17  2  0
 16 18  1  0
M  END
$$$$
