GST.pdb
     RDKit          3D

 18 17  0  0  1  0  0  0  0  0999 V2000
   18.0273  -13.0494  -16.0332 N   0  0  0  0  0  0  0  0  0  0  0  0
   18.3229  -12.1154  -14.9802 C   0  0  0  0  0  0  0  0  0  0  0  0
   18.7959  -10.8113  -15.5559 C   0  0  0  0  0  0  0  0  0  0  0  0
   19.7901  -10.7636  -16.3044 O   0  0  0  0  0  0  0  0  0  0  0  0
   17.0706   -7.0588  -14.3812 O   0  0  0  0  0  0  0  0  0  0  0  0
   17.4597   -7.2586  -15.6905 C   0  0  0  0  0  0  0  0  0  0  0  0
   18.4857   -8.3388  -15.8497 C   0  0  2  0  0  0  0  0  0  0  0  0
   18.1345   -9.5876  -15.2730 N   0  0  0  0  0  0  0  0  0  0  0  0
   19.7556   -7.8329  -15.2349 C   0  0  0  0  0  0  0  0  0  0  0  0
   20.0632   -8.1176  -14.0472 O   0  0  0  0  0  0  0  0  0  0  0  0
   24.0919   -5.4305  -15.8806 C   0  0  0  0  0  0  0  0  0  0  0  0
   22.7877   -5.9450  -16.4469 C   0  0  1  0  0  0  0  0  0  0  0  0
   23.0955   -6.9792  -17.3288 O   0  0  0  0  0  0  0  0  0  0  0  0
   21.8845   -6.4775  -15.3390 C   0  0  2  0  0  0  0  0  0  0  0  0
   20.6640   -7.0152  -15.9577 N   0  0  0  0  0  0  0  0  0  0  0  0
   21.5340   -5.4315  -14.3704 C   0  0  0  0  0  0  0  0  0  0  0  0
   22.1540   -5.2829  -13.2716 O   0  0  0  0  0  0  0  0  0  0  0  0
   20.4889   -4.5763  -14.6673 O   0  0  0  0  0  0  0  0  0  0  0  0
  2  1  1  0
  3  2  1  0
  4  3  2  0
  5  6  1  0
  7  6  1  1
  7  9  1  0
  7  8  1  0
  8  3  1  0
  9 15  1  0
 10  9  2  0
 12 11  1  1
 12 13  1  0
 14 12  1  0
 14 16  1  0
 14 15  1  6
 16 17  2  0
 16 18  1  0
M  END
$$$$
