GST.pdb
     RDKit          3D

 18 17  0  0  1  0  0  0  0  0999 V2000
   21.9798  -12.2098  -18.6122 N   0  0  0  0  0  0  0  0  0  0  0  0
   22.6907  -11.3695  -17.6864 C   0  0  0  0  0  0  0  0  0  0  0  0
   21.8873  -10.1396  -17.3739 C   0  0  0  0  0  0  0  0  0  0  0  0
   21.6459   -9.2908  -18.2526 O   0  0  0  0  0  0  0  0  0  0  0  0
   19.0756  -10.1678  -14.4222 O   0  0  0  0  0  0  0  0  0  0  0  0
   19.7432   -8.9611  -14.4848 C   0  0  0  0  0  0  0  0  0  0  0  0
   20.5492   -8.7895  -15.7361 C   0  0  2  0  0  0  0  0  0  0  0  0
   21.3734   -9.8951  -16.0735 N   0  0  0  0  0  0  0  0  0  0  0  0
   21.3916   -7.5635  -15.5517 C   0  0  0  0  0  0  0  0  0  0  0  0
   22.5191   -7.6253  -14.9940 O   0  0  0  0  0  0  0  0  0  0  0  0
   22.1204   -2.7630  -16.7072 C   0  0  0  0  0  0  0  0  0  0  0  0
   21.2355   -3.9888  -16.7338 C   0  0  1  0  0  0  0  0  0  0  0  0
   21.1938   -4.4442  -18.0502 O   0  0  0  0  0  0  0  0  0  0  0  0
   21.7980   -5.0869  -15.8367 C   0  0  2  0  0  0  0  0  0  0  0  0
   20.9605   -6.2850  -15.9942 N   0  0  0  0  0  0  0  0  0  0  0  0
   21.8258   -4.6791  -14.4268 C   0  0  0  0  0  0  0  0  0  0  0  0
   20.7919   -4.7017  -13.6889 O   0  0  0  0  0  0  0  0  0  0  0  0
   23.0239   -4.2544  -13.8829 O   0  0  0  0  0  0  0  0  0  0  0  0
  2  1  1  0
  3  2  1  0
  4  3  2  0
  5  6  1  0
  7  6  1  1
  7  9  1  0
  7  8  1  0
  8  3  1  0
  9 15  1  0
 10  9  2  0
 12 11  1  6
 12 13  1  0
 14 12  1  0
 14 16  1  0
 14 15  1  1
 16 17  2  0
 16 18  1  0
M  END
$$$$
