GST.pdb
     RDKit          3D

 18 17  0  0  1  0  0  0  0  0999 V2000
   27.4340  -24.4894    9.9402 N   0  0  0  0  0  0  0  0  0  0  0  0
   27.8513  -23.1288   10.1480 C   0  0  0  0  0  0  0  0  0  0  0  0
   29.1822  -22.8849    9.4962 C   0  0  0  0  0  0  0  0  0  0  0  0
   29.7849  -23.8011    8.9060 O   0  0  0  0  0  0  0  0  0  0  0  0
   30.1927  -19.6361    7.3445 O   0  0  0  0  0  0  0  0  0  0  0  0
   31.1197  -19.9075    8.3307 C   0  0  0  0  0  0  0  0  0  0  0  0
   31.0258  -21.3020    8.8702 C   0  0  2  0  0  0  0  0  0  0  0  0
   29.8044  -21.6094    9.5254 N   0  0  0  0  0  0  0  0  0  0  0  0
   32.1724  -21.4850    9.8181 C   0  0  0  0  0  0  0  0  0  0  0  0
   32.1294  -21.0244   10.9896 O   0  0  0  0  0  0  0  0  0  0  0  0
   34.3633  -24.8984    9.8260 C   0  0  0  0  0  0  0  0  0  0  0  0
   35.2253  -23.6578    9.8923 C   0  0  1  0  0  0  0  0  0  0  0  0
   35.6731  -23.3919    8.5997 O   0  0  0  0  0  0  0  0  0  0  0  0
   34.4252  -22.4647   10.4054 C   0  0  2  0  0  0  0  0  0  0  0  0
   33.3515  -22.1808    9.4419 N   0  0  0  0  0  0  0  0  0  0  0  0
   35.2685  -21.2754   10.5777 C   0  0  0  0  0  0  0  0  0  0  0  0
   35.1523  -20.2440    9.8453 O   0  0  0  0  0  0  0  0  0  0  0  0
   36.2253  -21.2801   11.5758 O   0  0  0  0  0  0  0  0  0  0  0  0
  2  1  1  0
  3  2  1  0
  4  3  2  0
  5  6  1  0
  7  6  1  1
  7  9  1  0
  7  8  1  0
  8  3  1  0
  9 15  1  0
 10  9  2  0
 12 11  1  6
 12 13  1  0
 14 12  1  0
 14 16  1  0
 14 15  1  6
 16 17  2  0
 16 18  1  0
M  END
$$$$
