GST.pdb
     RDKit          3D

 18 17  0  0  1  0  0  0  0  0999 V2000
   18.1461  -12.6747  -16.4806 N   0  0  0  0  0  0  0  0  0  0  0  0
   18.2543  -11.9260  -15.2573 C   0  0  0  0  0  0  0  0  0  0  0  0
   18.7356  -10.5315  -15.5388 C   0  0  0  0  0  0  0  0  0  0  0  0
   19.8118  -10.3320  -16.1329 O   0  0  0  0  0  0  0  0  0  0  0  0
   16.6170   -7.0846  -14.1025 O   0  0  0  0  0  0  0  0  0  0  0  0
   17.2065   -7.0676  -15.3507 C   0  0  0  0  0  0  0  0  0  0  0  0
   18.3220   -8.0570  -15.4971 C   0  0  2  0  0  0  0  0  0  0  0  0
   17.9894   -9.3908  -15.1425 N   0  0  0  0  0  0  0  0  0  0  0  0
   19.4554   -7.5709  -14.6451 C   0  0  0  0  0  0  0  0  0  0  0  0
   19.5109   -7.8435  -13.4167 O   0  0  0  0  0  0  0  0  0  0  0  0
   23.1202   -8.1456  -15.6561 C   0  0  0  0  0  0  0  0  0  0  0  0
   22.9335   -6.6846  -15.3139 C   0  0  1  0  0  0  0  0  0  0  0  0
   22.7282   -5.9993  -16.5098 O   0  0  0  0  0  0  0  0  0  0  0  0
   21.7246   -6.4878  -14.4047 C   0  0  2  0  0  0  0  0  0  0  0  0
   20.5114   -6.7864  -15.1796 N   0  0  0  0  0  0  0  0  0  0  0  0
   21.6556   -5.1196  -13.8768 C   0  0  0  0  0  0  0  0  0  0  0  0
   22.5337   -4.6461  -13.0903 O   0  0  0  0  0  0  0  0  0  0  0  0
   20.5936   -4.3173  -14.2512 O   0  0  0  0  0  0  0  0  0  0  0  0
  2  1  1  0
  3  2  1  0
  4  3  2  0
  5  6  1  0
  7  6  1  1
  7  9  1  0
  7  8  1  0
  8  3  1  0
  9 15  1  0
 10  9  2  0
 12 11  1  6
 12 13  1  0
 14 12  1  0
 14 16  1  0
 14 15  1  6
 16 17  2  0
 16 18  1  0
M  END
$$$$
