GST.pdb
     RDKit          3D

 18 17  0  0  1  0  0  0  0  0999 V2000
   17.5713  -10.3583  -17.4583 N   0  0  0  0  0  0  0  0  0  0  0  0
   18.8938  -10.8554  -17.1892 C   0  0  0  0  0  0  0  0  0  0  0  0
   19.5583  -10.0255  -16.1283 C   0  0  0  0  0  0  0  0  0  0  0  0
   18.8978   -9.5219  -15.2004 O   0  0  0  0  0  0  0  0  0  0  0  0
   23.0629  -10.4961  -13.7661 O   0  0  0  0  0  0  0  0  0  0  0  0
   23.0270   -9.6063  -14.8209 C   0  0  0  0  0  0  0  0  0  0  0  0
   21.6533   -9.0862  -15.1162 C   0  0  2  0  0  0  0  0  0  0  0  0
   20.9568   -9.7823  -16.1388 N   0  0  0  0  0  0  0  0  0  0  0  0
   21.8011   -7.6428  -15.4922 C   0  0  0  0  0  0  0  0  0  0  0  0
   22.3511   -7.3040  -16.5734 O   0  0  0  0  0  0  0  0  0  0  0  0
   19.0933   -5.2623  -16.0538 C   0  0  0  0  0  0  0  0  0  0  0  0
   19.9774   -4.6150  -15.0117 C   0  0  1  0  0  0  0  0  0  0  0  0
   19.4161   -4.8827  -13.7646 O   0  0  0  0  0  0  0  0  0  0  0  0
   21.3903   -5.1877  -15.0635 C   0  0  2  0  0  0  0  0  0  0  0  0
   21.3314   -6.5982  -14.6529 N   0  0  0  0  0  0  0  0  0  0  0  0
   22.3102   -4.4510  -14.1883 C   0  0  0  0  0  0  0  0  0  0  0  0
   22.7842   -4.9505  -13.1207 O   0  0  0  0  0  0  0  0  0  0  0  0
   22.6736   -3.1644  -14.5411 O   0  0  0  0  0  0  0  0  0  0  0  0
  2  1  1  0
  3  2  1  0
  4  3  2  0
  5  6  1  0
  7  6  1  6
  7  9  1  0
  7  8  1  0
  8  3  1  0
  9 15  1  0
 10  9  2  0
 12 11  1  6
 12 13  1  0
 14 12  1  0
 14 16  1  0
 14 15  1  1
 16 17  2  0
 16 18  1  0
M  END
$$$$
