GST.pdb
     RDKit          3D

 18 17  0  0  1  0  0  0  0  0999 V2000
   20.6848   -9.4457  -19.3282 N   0  0  0  0  0  0  0  0  0  0  0  0
   19.3133   -9.0481  -19.1567 C   0  0  0  0  0  0  0  0  0  0  0  0
   19.1612   -8.2176  -17.9146 C   0  0  0  0  0  0  0  0  0  0  0  0
   18.6544   -7.0810  -17.9609 O   0  0  0  0  0  0  0  0  0  0  0  0
   18.4086   -9.7158  -14.0738 O   0  0  0  0  0  0  0  0  0  0  0  0
   19.4617   -8.8311  -14.1918 C   0  0  0  0  0  0  0  0  0  0  0  0
   19.3952   -7.9859  -15.4271 C   0  0  2  0  0  0  0  0  0  0  0  0
   19.5858   -8.6900  -16.6451 N   0  0  0  0  0  0  0  0  0  0  0  0
   20.4388   -6.9192  -15.2866 C   0  0  0  0  0  0  0  0  0  0  0  0
   21.6257   -7.1154  -15.6598 O   0  0  0  0  0  0  0  0  0  0  0  0
   21.3248   -2.0703  -14.4830 C   0  0  0  0  0  0  0  0  0  0  0  0
   20.3886   -3.2548  -14.4008 C   0  0  1  0  0  0  0  0  0  0  0  0
   19.3741   -3.0499  -15.3340 O   0  0  0  0  0  0  0  0  0  0  0  0
   21.1210   -4.5524  -14.7273 C   0  0  2  0  0  0  0  0  0  0  0  0
   20.1399   -5.6474  -14.7305 N   0  0  0  0  0  0  0  0  0  0  0  0
   22.1846   -4.8380  -13.7565 C   0  0  0  0  0  0  0  0  0  0  0  0
   21.9737   -5.4831  -12.6826 O   0  0  0  0  0  0  0  0  0  0  0  0
   23.4641   -4.3867  -14.0230 O   0  0  0  0  0  0  0  0  0  0  0  0
  2  1  1  0
  3  2  1  0
  4  3  2  0
  5  6  1  0
  7  6  1  1
  7  9  1  0
  7  8  1  0
  8  3  1  0
  9 15  1  0
 10  9  2  0
 12 11  1  6
 12 13  1  0
 14 12  1  0
 14 16  1  0
 14 15  1  1
 16 17  2  0
 16 18  1  0
M  END
$$$$
