GIA.pdb
     RDKit          3D

 18 17  0  0  1  0  0  0  0  0999 V2000
    6.7720  -19.0790   23.8316 N   0  0  0  0  0  0  0  0  0  0  0  0
    6.3027  -18.0862   24.7516 C   0  0  0  0  0  0  0  0  0  0  0  0
    7.1694  -16.8752   24.7728 C   0  0  0  0  0  0  0  0  0  0  0  0
    8.2164  -16.8982   24.1279 O   0  0  0  0  0  0  0  0  0  0  0  0
    6.4267  -10.9171   26.3565 C   0  0  0  0  0  0  0  0  0  0  0  0
    7.3081  -12.1502   26.4332 C   0  0  0  0  0  0  0  0  0  0  0  0
    6.7063  -13.2570   25.6417 C   0  0  2  0  0  0  0  0  0  0  0  0
    5.2917  -13.5896   26.0690 C   0  0  0  0  0  0  0  0  0  0  0  0
    7.5189  -14.4787   25.4919 C   0  0  2  0  0  0  0  0  0  0  0  0
    6.7896  -15.7267   25.5211 N   0  0  0  0  0  0  0  0  0  0  0  0
    8.8413  -14.5219   26.1449 C   0  0  0  0  0  0  0  0  0  0  0  0
    9.7280  -13.6454   25.9991 O   0  0  0  0  0  0  0  0  0  0  0  0
   10.3898  -14.3597   28.7459 C   0  0  0  0  0  0  0  0  0  0  0  0
   10.4082  -15.5691   27.8176 C   0  0  2  0  0  0  0  0  0  0  0  0
    9.1971  -15.5985   27.0013 N   0  0  0  0  0  0  0  0  0  0  0  0
   10.6101  -16.8168   28.5539 C   0  0  0  0  0  0  0  0  0  0  0  0
   11.5755  -16.9609   29.3375 O   0  0  0  0  0  0  0  0  0  0  0  0
    9.7245  -17.8650   28.3898 O   0  0  0  0  0  0  0  0  0  0  0  0
  1  2  1  0
  2  3  1  0
  3 10  1  0
  3  4  2  0
  6  7  1  0
  6  5  1  0
  7  8  1  1
  9  7  1  0
  9 10  1  1
 11  9  1  0
 11 15  1  0
 12 11  2  0
 14 13  1  1
 14 15  1  0
 14 16  1  0
 16 18  1  0
 17 16  2  0
M  END
$$$$
