GIA.pdb
     RDKit          3D

 18 17  0  0  1  0  0  0  0  0999 V2000
    9.7203  -18.4794   16.9749 N   0  0  0  0  0  0  0  0  0  0  0  0
    8.8994  -18.2126   18.1182 C   0  0  0  0  0  0  0  0  0  0  0  0
    9.3518  -17.0129   18.8760 C   0  0  0  0  0  0  0  0  0  0  0  0
   10.4864  -16.5868   18.6667 O   0  0  0  0  0  0  0  0  0  0  0  0
    6.6610  -12.2575   19.7969 C   0  0  0  0  0  0  0  0  0  0  0  0
    7.7754  -13.2614   19.5651 C   0  0  0  0  0  0  0  0  0  0  0  0
    7.9000  -14.1650   20.7405 C   0  0  2  0  0  0  0  0  0  0  0  0
    8.0543  -13.4173   22.0488 C   0  0  0  0  0  0  0  0  0  0  0  0
    8.8853  -15.2572   20.6316 C   0  0  2  0  0  0  0  0  0  0  0  0
    8.4892  -16.3825   19.8149 N   0  0  0  0  0  0  0  0  0  0  0  0
    9.6706  -15.6108   21.8295 C   0  0  0  0  0  0  0  0  0  0  0  0
   10.1497  -14.7717   22.6310 O   0  0  0  0  0  0  0  0  0  0  0  0
   10.8326  -16.1277   24.2710 C   0  0  0  0  0  0  0  0  0  0  0  0
   10.6185  -17.3509   23.3864 C   0  0  2  0  0  0  0  0  0  0  0  0
    9.9406  -16.9685   22.1501 N   0  0  0  0  0  0  0  0  0  0  0  0
    9.9150  -18.4190   24.0962 C   0  0  0  0  0  0  0  0  0  0  0  0
   10.4282  -18.9918   25.0837 O   0  0  0  0  0  0  0  0  0  0  0  0
    8.6579  -18.8128   23.6781 O   0  0  0  0  0  0  0  0  0  0  0  0
  1  2  1  0
  2  3  1  0
  3 10  1  0
  3  4  2  0
  6  7  1  0
  6  5  1  0
  7  8  1  1
  9  7  1  0
  9 10  1  1
 11  9  1  0
 11 15  1  0
 12 11  2  0
 14 13  1  1
 14 15  1  0
 14 16  1  0
 16 18  1  0
 17 16  2  0
M  END
$$$$
