GIA.pdb
     RDKit          3D

 18 17  0  0  1  0  0  0  0  0999 V2000
    7.7263  -15.6800   20.1399 N   0  0  0  0  0  0  0  0  0  0  0  0
    7.0161  -15.7480   21.3822 C   0  0  0  0  0  0  0  0  0  0  0  0
    7.7966  -15.1787   22.5157 C   0  0  0  0  0  0  0  0  0  0  0  0
    9.0163  -15.0814   22.3910 O   0  0  0  0  0  0  0  0  0  0  0  0
    7.2562  -11.3858   27.3025 C   0  0  0  0  0  0  0  0  0  0  0  0
    8.0269  -12.5354   26.6799 C   0  0  0  0  0  0  0  0  0  0  0  0
    7.2370  -13.1382   25.5726 C   0  0  2  0  0  0  0  0  0  0  0  0
    5.8007  -13.4259   25.9579 C   0  0  0  0  0  0  0  0  0  0  0  0
    7.8440  -14.2905   24.8803 C   0  0  2  0  0  0  0  0  0  0  0  0
    7.1419  -14.7609   23.7074 N   0  0  0  0  0  0  0  0  0  0  0  0
    8.4566  -15.3536   25.6999 C   0  0  0  0  0  0  0  0  0  0  0  0
    7.8045  -16.2221   26.3293 O   0  0  0  0  0  0  0  0  0  0  0  0
   11.8924  -16.8251   25.9711 C   0  0  0  0  0  0  0  0  0  0  0  0
   10.5034  -16.5592   26.5409 C   0  0  2  0  0  0  0  0  0  0  0  0
    9.8682  -15.4529   25.8292 N   0  0  0  0  0  0  0  0  0  0  0  0
   10.5415  -16.3388   27.9864 C   0  0  0  0  0  0  0  0  0  0  0  0
   10.8685  -17.2536   28.7756 O   0  0  0  0  0  0  0  0  0  0  0  0
   10.2122  -15.1002   28.5037 O   0  0  0  0  0  0  0  0  0  0  0  0
  1  2  1  0
  2  3  1  0
  3 10  1  0
  3  4  2  0
  6  7  1  0
  6  5  1  0
  7  8  1  1
  9  7  1  0
  9 10  1  1
 11  9  1  0
 11 15  1  0
 12 11  2  0
 14 13  1  6
 14 15  1  0
 14 16  1  0
 16 18  1  0
 17 16  2  0
M  END
$$$$
