GIA.pdb
     RDKit          3D

 18 17  0  0  1  0  0  0  0  0999 V2000
    7.8231  -17.9595   16.6216 N   0  0  0  0  0  0  0  0  0  0  0  0
    7.2124  -17.9056   17.9164 C   0  0  0  0  0  0  0  0  0  0  0  0
    8.0449  -17.1693   18.9079 C   0  0  0  0  0  0  0  0  0  0  0  0
    9.2622  -17.3437   18.8887 O   0  0  0  0  0  0  0  0  0  0  0  0
    7.1194  -11.9515   20.3135 C   0  0  0  0  0  0  0  0  0  0  0  0
    7.6906  -13.3014   19.9201 C   0  0  0  0  0  0  0  0  0  0  0  0
    7.7701  -14.1882   21.1121 C   0  0  2  0  0  0  0  0  0  0  0  0
    8.5550  -13.5766   22.2542 C   0  0  0  0  0  0  0  0  0  0  0  0
    8.1816  -15.5838   20.8700 C   0  0  2  0  0  0  0  0  0  0  0  0
    7.4410  -16.2898   19.8486 N   0  0  0  0  0  0  0  0  0  0  0  0
    8.5708  -16.4080   22.0302 C   0  0  0  0  0  0  0  0  0  0  0  0
    7.7633  -16.8473   22.8851 O   0  0  0  0  0  0  0  0  0  0  0  0
   11.3566  -18.6642   22.8291 C   0  0  0  0  0  0  0  0  0  0  0  0
   10.3293  -17.6568   23.3334 C   0  0  2  0  0  0  0  0  0  0  0  0
    9.9297  -16.7581   22.2533 N   0  0  0  0  0  0  0  0  0  0  0  0
   10.8109  -16.9308   24.5084 C   0  0  0  0  0  0  0  0  0  0  0  0
   11.0265  -15.6985   24.4685 O   0  0  0  0  0  0  0  0  0  0  0  0
   11.0364  -17.6074   25.6921 O   0  0  0  0  0  0  0  0  0  0  0  0
  1  2  1  0
  2  3  1  0
  3 10  1  0
  3  4  2  0
  6  7  1  0
  6  5  1  0
  7  8  1  1
  9  7  1  0
  9 10  1  1
 11  9  1  0
 11 15  1  0
 12 11  2  0
 14 13  1  6
 14 15  1  0
 14 16  1  0
 16 18  1  0
 17 16  2  0
M  END
$$$$
