GIA.pdb
     RDKit          3D

 18 17  0  0  1  0  0  0  0  0999 V2000
    8.4747  -19.9481   19.5645 N   0  0  0  0  0  0  0  0  0  0  0  0
    8.0618  -19.3329   20.7907 C   0  0  0  0  0  0  0  0  0  0  0  0
    8.6908  -17.9989   20.9980 C   0  0  0  0  0  0  0  0  0  0  0  0
    9.8923  -17.9566   21.2571 O   0  0  0  0  0  0  0  0  0  0  0  0
    7.4037  -11.9834   20.0374 C   0  0  0  0  0  0  0  0  0  0  0  0
    8.3647  -13.0522   20.5246 C   0  0  0  0  0  0  0  0  0  0  0  0
    7.6717  -14.3669   20.5953 C   0  0  2  0  0  0  0  0  0  0  0  0
    6.2958  -14.2782   21.2225 C   0  0  0  0  0  0  0  0  0  0  0  0
    8.4433  -15.4900   21.1599 C   0  0  2  0  0  0  0  0  0  0  0  0
    7.9161  -16.8103   20.8972 N   0  0  0  0  0  0  0  0  0  0  0  0
    9.0455  -15.3211   22.4963 C   0  0  0  0  0  0  0  0  0  0  0  0
    9.9016  -14.4474   22.7780 O   0  0  0  0  0  0  0  0  0  0  0  0
    8.2746  -14.9931   25.6833 C   0  0  0  0  0  0  0  0  0  0  0  0
    9.1806  -15.9607   24.9299 C   0  0  2  0  0  0  0  0  0  0  0  0
    8.6791  -16.1714   23.5741 N   0  0  0  0  0  0  0  0  0  0  0  0
    9.3575  -17.2178   25.6566 C   0  0  0  0  0  0  0  0  0  0  0  0
    8.9691  -18.3067   25.1770 O   0  0  0  0  0  0  0  0  0  0  0  0
    9.9642  -17.2166   26.8983 O   0  0  0  0  0  0  0  0  0  0  0  0
  1  2  1  0
  2  3  1  0
  3 10  1  0
  3  4  2  0
  6  7  1  0
  6  5  1  0
  7  8  1  1
  9  7  1  0
  9 10  1  1
 11  9  1  0
 11 15  1  0
 12 11  2  0
 14 13  1  1
 14 15  1  0
 14 16  1  0
 16 18  1  0
 17 16  2  0
M  END
$$$$
