GIA.pdb
     RDKit          3D

 18 17  0  0  1  0  0  0  0  0999 V2000
   -2.0124  -27.5263   26.9646 N   0  0  0  0  0  0  0  0  0  0  0  0
   -3.4019  -27.2050   27.1003 C   0  0  0  0  0  0  0  0  0  0  0  0
   -3.6206  -25.9119   27.8061 C   0  0  0  0  0  0  0  0  0  0  0  0
   -3.4538  -25.8788   29.0242 O   0  0  0  0  0  0  0  0  0  0  0  0
   -1.3668  -21.3765   26.3277 C   0  0  0  0  0  0  0  0  0  0  0  0
   -2.0013  -22.5505   27.0506 C   0  0  0  0  0  0  0  0  0  0  0  0
   -3.4685  -22.3387   27.1769 C   0  0  2  0  0  0  0  0  0  0  0  0
   -3.8219  -21.0469   27.8845 C   0  0  0  0  0  0  0  0  0  0  0  0
   -4.2551  -23.4686   27.7061 C   0  0  2  0  0  0  0  0  0  0  0  0
   -4.0118  -24.7507   27.0838 N   0  0  0  0  0  0  0  0  0  0  0  0
   -5.6598  -23.2241   28.0855 C   0  0  0  0  0  0  0  0  0  0  0  0
   -6.5670  -22.9216   27.2722 O   0  0  0  0  0  0  0  0  0  0  0  0
   -7.8488  -23.9877   30.9928 C   0  0  0  0  0  0  0  0  0  0  0  0
   -7.4570  -23.0640   29.8447 C   0  0  2  0  0  0  0  0  0  0  0  0
   -6.0761  -23.3168   29.4410 N   0  0  0  0  0  0  0  0  0  0  0  0
   -7.6892  -21.6580   30.1743 C   0  0  0  0  0  0  0  0  0  0  0  0
   -8.8414  -21.1691   30.1644 O   0  0  0  0  0  0  0  0  0  0  0  0
   -6.6236  -20.8425   30.5050 O   0  0  0  0  0  0  0  0  0  0  0  0
  1  2  1  0
  2  3  1  0
  3 10  1  0
  3  4  2  0
  6  7  1  0
  6  5  1  0
  7  8  1  1
  9  7  1  0
  9 10  1  6
 11  9  1  0
 11 15  1  0
 12 11  2  0
 14 13  1  1
 14 15  1  0
 14 16  1  0
 16 18  1  0
 17 16  2  0
M  END
$$$$
