GIA.pdb
     RDKit          3D

 18 17  0  0  1  0  0  0  0  0999 V2000
    7.2255  -14.7661   20.1536 N   0  0  0  0  0  0  0  0  0  0  0  0
    6.5105  -14.7731   21.3950 C   0  0  0  0  0  0  0  0  0  0  0  0
    7.4114  -14.6222   22.5713 C   0  0  0  0  0  0  0  0  0  0  0  0
    8.6246  -14.7116   22.3898 O   0  0  0  0  0  0  0  0  0  0  0  0
    5.9475  -11.3832   26.7827 C   0  0  0  0  0  0  0  0  0  0  0  0
    6.6541  -12.0883   25.6396 C   0  0  0  0  0  0  0  0  0  0  0  0
    7.2101  -13.3867   26.1073 C   0  0  2  0  0  0  0  0  0  0  0  0
    8.2396  -13.2285   27.2070 C   0  0  0  0  0  0  0  0  0  0  0  0
    7.6831  -14.3161   25.0643 C   0  0  2  0  0  0  0  0  0  0  0  0
    6.8758  -14.3812   23.8667 N   0  0  0  0  0  0  0  0  0  0  0  0
    8.2621  -15.6052   25.4884 C   0  0  0  0  0  0  0  0  0  0  0  0
    7.5916  -16.5611   25.9495 O   0  0  0  0  0  0  0  0  0  0  0  0
   11.4293  -17.4081   24.7533 C   0  0  0  0  0  0  0  0  0  0  0  0
   10.2421  -17.1526   25.6752 C   0  0  2  0  0  0  0  0  0  0  0  0
    9.6604  -15.8414   25.3990 N   0  0  0  0  0  0  0  0  0  0  0  0
   10.6029  -17.3129   27.0837 C   0  0  0  0  0  0  0  0  0  0  0  0
   10.6908  -16.3264   27.8490 O   0  0  0  0  0  0  0  0  0  0  0  0
   10.8540  -18.5733   27.5917 O   0  0  0  0  0  0  0  0  0  0  0  0
  1  2  1  0
  2  3  1  0
  3 10  1  0
  3  4  2  0
  6  7  1  0
  6  5  1  0
  7  8  1  1
  9  7  1  0
  9 10  1  6
 11  9  1  0
 11 15  1  0
 12 11  2  0
 14 13  1  6
 14 15  1  0
 14 16  1  0
 16 18  1  0
 17 16  2  0
M  END
$$$$
