GIA.pdb
     RDKit          3D

 18 17  0  0  1  0  0  0  0  0999 V2000
    4.6019  -19.1633   23.4005 N   0  0  0  0  0  0  0  0  0  0  0  0
    5.1280  -18.5224   24.5687 C   0  0  0  0  0  0  0  0  0  0  0  0
    6.0730  -17.4203   24.2362 C   0  0  0  0  0  0  0  0  0  0  0  0
    6.4789  -17.3319   23.0786 O   0  0  0  0  0  0  0  0  0  0  0  0
    5.8864  -12.6368   26.8230 C   0  0  0  0  0  0  0  0  0  0  0  0
    6.0460  -13.6316   25.6881 C   0  0  0  0  0  0  0  0  0  0  0  0
    7.3969  -14.2527   25.7409 C   0  0  2  0  0  0  0  0  0  0  0  0
    8.5065  -13.2897   25.3723 C   0  0  0  0  0  0  0  0  0  0  0  0
    7.5578  -15.5428   25.0441 C   0  0  2  0  0  0  0  0  0  0  0  0
    6.4903  -16.4987   25.2360 N   0  0  0  0  0  0  0  0  0  0  0  0
    8.9081  -16.1329   24.9709 C   0  0  0  0  0  0  0  0  0  0  0  0
    9.4766  -16.7126   25.9282 O   0  0  0  0  0  0  0  0  0  0  0  0
   11.3406  -16.8423   22.1573 C   0  0  0  0  0  0  0  0  0  0  0  0
   10.9439  -16.7660   23.6275 C   0  0  2  0  0  0  0  0  0  0  0  0
    9.6671  -16.0710   23.7712 N   0  0  0  0  0  0  0  0  0  0  0  0
   11.9972  -16.1640   24.4445 C   0  0  0  0  0  0  0  0  0  0  0  0
   11.8751  -15.0117   24.9176 O   0  0  0  0  0  0  0  0  0  0  0  0
   13.1553  -16.8713   24.7066 O   0  0  0  0  0  0  0  0  0  0  0  0
  1  2  1  0
  2  3  1  0
  3 10  1  0
  3  4  2  0
  6  7  1  0
  6  5  1  0
  7  8  1  6
  9  7  1  0
  9 10  1  1
 11  9  1  0
 11 15  1  0
 12 11  2  0
 14 13  1  6
 14 15  1  0
 14 16  1  0
 16 18  1  0
 17 16  2  0
M  END
$$$$
