GIA.pdb
     RDKit          3D

 18 17  0  0  1  0  0  0  0  0999 V2000
    6.6487  -18.9818   17.7040 N   0  0  0  0  0  0  0  0  0  0  0  0
    6.7430  -19.1039   19.1283 C   0  0  0  0  0  0  0  0  0  0  0  0
    7.6848  -18.1152   19.7230 C   0  0  0  0  0  0  0  0  0  0  0  0
    8.8702  -18.4278   19.8214 O   0  0  0  0  0  0  0  0  0  0  0  0
    8.1298  -12.0089   20.2934 C   0  0  0  0  0  0  0  0  0  0  0  0
    8.6874  -13.3680   20.6741 C   0  0  0  0  0  0  0  0  0  0  0  0
    7.6766  -14.4266   20.4074 C   0  0  2  0  0  0  0  0  0  0  0  0
    6.3237  -14.1207   21.0160 C   0  0  0  0  0  0  0  0  0  0  0  0
    8.0857  -15.8155   20.6889 C   0  0  2  0  0  0  0  0  0  0  0  0
    7.2182  -16.8456   20.1629 N   0  0  0  0  0  0  0  0  0  0  0  0
    8.6705  -16.1169   22.0095 C   0  0  0  0  0  0  0  0  0  0  0  0
    8.0595  -15.9825   23.0979 O   0  0  0  0  0  0  0  0  0  0  0  0
   10.8347  -18.3363   23.6282 C   0  0  0  0  0  0  0  0  0  0  0  0
   10.6269  -16.8397   23.4237 C   0  0  2  0  0  0  0  0  0  0  0  0
   10.0059  -16.5882   22.1256 N   0  0  0  0  0  0  0  0  0  0  0  0
   11.8703  -16.0892   23.5975 C   0  0  0  0  0  0  0  0  0  0  0  0
   12.4494  -15.5553   22.6248 O   0  0  0  0  0  0  0  0  0  0  0  0
   12.4270  -15.9598   24.8558 O   0  0  0  0  0  0  0  0  0  0  0  0
  1  2  1  0
  2  3  1  0
  3 10  1  0
  3  4  2  0
  6  7  1  0
  6  5  1  0
  7  8  1  1
  9  7  1  0
  9 10  1  1
 11  9  1  0
 11 15  1  0
 12 11  2  0
 14 13  1  6
 14 15  1  0
 14 16  1  0
 16 18  1  0
 17 16  2  0
M  END
$$$$
