GIA.pdb
     RDKit          3D

 18 17  0  0  1  0  0  0  0  0999 V2000
    6.8018  -14.7692   20.2454 N   0  0  0  0  0  0  0  0  0  0  0  0
    6.2963  -15.1099   21.5418 C   0  0  0  0  0  0  0  0  0  0  0  0
    7.2719  -14.8162   22.6282 C   0  0  0  0  0  0  0  0  0  0  0  0
    8.4716  -14.8858   22.3666 O   0  0  0  0  0  0  0  0  0  0  0  0
    5.9730  -11.4396   26.7512 C   0  0  0  0  0  0  0  0  0  0  0  0
    6.7352  -12.1242   25.6316 C   0  0  0  0  0  0  0  0  0  0  0  0
    7.3054  -13.4104   26.1153 C   0  0  2  0  0  0  0  0  0  0  0  0
    8.4129  -13.2226   27.1315 C   0  0  0  0  0  0  0  0  0  0  0  0
    7.6901  -14.3913   25.0831 C   0  0  2  0  0  0  0  0  0  0  0  0
    6.8205  -14.4654   23.9306 N   0  0  0  0  0  0  0  0  0  0  0  0
    8.2429  -15.6867   25.5227 C   0  0  0  0  0  0  0  0  0  0  0  0
    7.5618  -16.6024   26.0458 O   0  0  0  0  0  0  0  0  0  0  0  0
   11.2318  -17.6720   24.6359 C   0  0  0  0  0  0  0  0  0  0  0  0
   10.1737  -17.2993   25.6685 C   0  0  2  0  0  0  0  0  0  0  0  0
    9.6262  -15.9768   25.3768 N   0  0  0  0  0  0  0  0  0  0  0  0
   10.6885  -17.3967   27.0341 C   0  0  0  0  0  0  0  0  0  0  0  0
   11.0932  -18.4854   27.5008 O   0  0  0  0  0  0  0  0  0  0  0  0
   10.7344  -16.2716   27.8353 O   0  0  0  0  0  0  0  0  0  0  0  0
  1  2  1  0
  2  3  1  0
  3 10  1  0
  3  4  2  0
  6  7  1  0
  6  5  1  0
  7  8  1  6
  9  7  1  0
  9 10  1  1
 11  9  1  0
 11 15  1  0
 12 11  2  0
 14 13  1  6
 14 15  1  0
 14 16  1  0
 16 18  1  0
 17 16  2  0
M  END
$$$$
