GIA.pdb
     RDKit          3D

 18 17  0  0  1  0  0  0  0  0999 V2000
    6.9449  -14.4719   20.0256 N   0  0  0  0  0  0  0  0  0  0  0  0
    6.2920  -14.3998   21.2987 C   0  0  0  0  0  0  0  0  0  0  0  0
    7.2569  -14.3891   22.4331 C   0  0  0  0  0  0  0  0  0  0  0  0
    8.4527  -14.5268   22.1807 O   0  0  0  0  0  0  0  0  0  0  0  0
    5.9778  -11.4157   26.9180 C   0  0  0  0  0  0  0  0  0  0  0  0
    6.6068  -12.0404   25.6862 C   0  0  0  0  0  0  0  0  0  0  0  0
    7.2373  -13.3408   26.0395 C   0  0  2  0  0  0  0  0  0  0  0  0
    8.3240  -13.2073   27.0863 C   0  0  0  0  0  0  0  0  0  0  0  0
    7.6815  -14.1859   24.9152 C   0  0  2  0  0  0  0  0  0  0  0  0
    6.8001  -14.2234   23.7699 N   0  0  0  0  0  0  0  0  0  0  0  0
    8.3454  -15.4667   25.2246 C   0  0  0  0  0  0  0  0  0  0  0  0
    7.7842  -16.4297   25.8022 O   0  0  0  0  0  0  0  0  0  0  0  0
   11.5245  -17.1257   24.0899 C   0  0  0  0  0  0  0  0  0  0  0  0
   10.3475  -16.9869   25.0491 C   0  0  2  0  0  0  0  0  0  0  0  0
    9.7055  -15.6860   24.8770 N   0  0  0  0  0  0  0  0  0  0  0  0
   10.7445  -17.2294   26.4358 C   0  0  0  0  0  0  0  0  0  0  0  0
   11.1751  -18.3457   26.8035 O   0  0  0  0  0  0  0  0  0  0  0  0
   10.6470  -16.2141   27.3683 O   0  0  0  0  0  0  0  0  0  0  0  0
  1  2  1  0
  2  3  1  0
  3 10  1  0
  3  4  2  0
  6  7  1  0
  6  5  1  0
  7  8  1  1
  9  7  1  0
  9 10  1  6
 11  9  1  0
 11 15  1  0
 12 11  2  0
 14 13  1  6
 14 15  1  0
 14 16  1  0
 16 18  1  0
 17 16  2  0
M  END
$$$$
