NKD.pdb
     RDKit          3D

 26 25  0  0  1  0  0  0  0  0999 V2000
    7.1380  -12.8938   16.2904 N   0  0  0  0  0  0  0  0  0  0  0  0
    8.0403  -13.8473   16.8180 C   0  0  0  0  0  0  0  0  0  0  0  0
    8.6246  -14.6622   16.0248 O   0  0  0  0  0  0  0  0  0  0  0  0
    8.2965  -13.8897   18.2685 C   0  0  0  0  0  0  0  0  0  0  0  0
    8.6478  -15.3163   18.6482 C   0  0  2  0  0  0  0  0  0  0  0  0
    7.5533  -16.1861   18.2528 N   0  0  0  0  0  0  0  0  0  0  0  0
    8.8562  -15.3771   20.1065 C   0  0  0  0  0  0  0  0  0  0  0  0
    9.6646  -14.5907   20.6431 O   0  0  0  0  0  0  0  0  0  0  0  0
    8.1372  -16.3221   20.8694 N   0  0  0  0  0  0  0  0  0  0  0  0
    8.4038  -16.5592   22.2634 C   0  0  1  0  0  0  0  0  0  0  0  0
    7.4099  -17.5182   22.8299 C   0  0  0  0  0  0  0  0  0  0  0  0
    6.5327  -18.1531   21.8075 C   0  0  0  0  0  0  0  0  0  0  0  0
    5.6136  -19.1558   22.4289 C   0  0  0  0  0  0  0  0  0  0  0  0
    4.7277  -19.8466   21.4142 C   0  0  0  0  0  0  0  0  0  0  0  0
    3.8866  -20.8002   22.1245 N   0  0  0  0  0  0  0  0  0  0  0  0
    9.7884  -17.0921   22.4738 C   0  0  0  0  0  0  0  0  0  0  0  0
   10.1750  -18.0028   21.7027 O   0  0  0  0  0  0  0  0  0  0  0  0
   10.6278  -16.6027   23.4854 N   0  0  0  0  0  0  0  0  0  0  0  0
   11.9797  -17.0809   23.6730 C   0  0  1  0  0  0  0  0  0  0  0  0
   12.9819  -15.9486   23.5424 C   0  0  0  0  0  0  0  0  0  0  0  0
   14.3624  -16.4352   23.6945 C   0  0  0  0  0  0  0  0  0  0  0  0
   14.6947  -17.6089   23.9446 O   0  0  0  0  0  0  0  0  0  0  0  0
   12.1345  -17.6465   25.0610 C   0  0  0  0  0  0  0  0  0  0  0  0
   11.1300  -17.5511   26.0121 O   0  0  0  0  0  0  0  0  0  0  0  0
   15.3971  -15.4856   23.5426 O   0  0  0  0  0  0  0  0  0  0  0  0
   13.2031  -18.2233   25.3807 O   0  0  0  0  0  0  0  0  0  0  0  0
  2  3  2  0
  2  1  1  0
  4  2  1  0
  5  4  1  0
  5  7  1  0
  5  6  1  1
  7  8  2  0
  9  7  1  0
  9 10  1  0
 10 11  1  6
 11 12  1  0
 13 12  1  0
 14 15  1  0
 14 13  1  0
 16 10  1  0
 16 17  2  0
 18 16  1  0
 19 18  1  0
 20 21  1  0
 19 20  1  1
 21 22  2  0
 23 19  1  0
 24 23  1  0
 25 21  1  0
 26 23  2  0
M  END
$$$$
