NKD.pdb
     RDKit          3D

 26 25  0  0  1  0  0  0  0  0999 V2000
   15.9520  -14.5053   16.9843 N   0  0  0  0  0  0  0  0  0  0  0  0
   14.5605  -14.2560   17.0421 C   0  0  0  0  0  0  0  0  0  0  0  0
   13.8873  -14.2096   15.9562 O   0  0  0  0  0  0  0  0  0  0  0  0
   13.9056  -14.0550   18.3467 C   0  0  0  0  0  0  0  0  0  0  0  0
   13.4070  -15.4004   18.8411 C   0  0  2  0  0  0  0  0  0  0  0  0
   12.5040  -15.9557   17.8477 N   0  0  0  0  0  0  0  0  0  0  0  0
   12.7064  -15.2002   20.1229 C   0  0  0  0  0  0  0  0  0  0  0  0
   13.3701  -14.9538   21.1518 O   0  0  0  0  0  0  0  0  0  0  0  0
   11.2984  -15.2894   20.1631 N   0  0  0  0  0  0  0  0  0  0  0  0
   10.5414  -15.0815   21.3691 C   0  0  1  0  0  0  0  0  0  0  0  0
    9.1189  -14.7651   21.0453 C   0  0  0  0  0  0  0  0  0  0  0  0
    8.9467  -13.5425   20.2125 C   0  0  0  0  0  0  0  0  0  0  0  0
    7.7893  -13.6829   19.2761 C   0  0  0  0  0  0  0  0  0  0  0  0
    7.5672  -12.4478   18.4295 C   0  0  0  0  0  0  0  0  0  0  0  0
    6.3938  -12.6760   17.5974 N   0  0  0  0  0  0  0  0  0  0  0  0
   10.5950  -16.2823   22.2638 C   0  0  0  0  0  0  0  0  0  0  0  0
   10.5043  -17.4080   21.7178 O   0  0  0  0  0  0  0  0  0  0  0  0
   10.7409  -16.1678   23.6541 N   0  0  0  0  0  0  0  0  0  0  0  0
   11.0496  -17.2999   24.4994 C   0  0  1  0  0  0  0  0  0  0  0  0
   12.5444  -17.5597   24.5389 C   0  0  0  0  0  0  0  0  0  0  0  0
   12.8735  -18.6539   25.4662 C   0  0  0  0  0  0  0  0  0  0  0  0
   12.2746  -19.7427   25.5455 O   0  0  0  0  0  0  0  0  0  0  0  0
   10.6157  -17.0159   25.9141 C   0  0  0  0  0  0  0  0  0  0  0  0
   10.4997  -18.0187   26.8648 O   0  0  0  0  0  0  0  0  0  0  0  0
   13.9640  -18.4474   26.3400 O   0  0  0  0  0  0  0  0  0  0  0  0
   10.3453  -15.8383   26.2560 O   0  0  0  0  0  0  0  0  0  0  0  0
  2  3  2  0
  2  1  1  0
  4  2  1  0
  5  4  1  0
  5  7  1  0
  5  6  1  6
  7  8  2  0
  9  7  1  0
  9 10  1  0
 10 11  1  6
 11 12  1  0
 13 12  1  0
 14 15  1  0
 14 13  1  0
 16 10  1  0
 16 17  2  0
 18 16  1  0
 19 18  1  0
 20 21  1  0
 19 20  1  1
 21 22  2  0
 23 19  1  0
 24 23  1  0
 25 21  1  0
 26 23  2  0
M  END
$$$$
