NKD.pdb
     RDKit          3D

 26 25  0  0  1  0  0  0  0  0999 V2000
    8.5018  -16.4342   15.5544 N   0  0  0  0  0  0  0  0  0  0  0  0
    9.0915  -17.0030   16.7079 C   0  0  0  0  0  0  0  0  0  0  0  0
    9.3821  -18.2480   16.7131 O   0  0  0  0  0  0  0  0  0  0  0  0
    9.3641  -16.1582   17.8840 C   0  0  0  0  0  0  0  0  0  0  0  0
    9.1976  -17.0088   19.1298 C   0  0  2  0  0  0  0  0  0  0  0  0
    7.8136  -17.4425   19.2156 N   0  0  0  0  0  0  0  0  0  0  0  0
    9.5592  -16.1963   20.3058 C   0  0  0  0  0  0  0  0  0  0  0  0
   10.6942  -15.6787   20.3671 O   0  0  0  0  0  0  0  0  0  0  0  0
    8.6154  -16.0175   21.3398 N   0  0  0  0  0  0  0  0  0  0  0  0
    8.9395  -15.3701   22.5834 C   0  0  1  0  0  0  0  0  0  0  0  0
    7.7064  -14.8307   23.2288 C   0  0  0  0  0  0  0  0  0  0  0  0
    7.9522  -14.1636   24.5375 C   0  0  0  0  0  0  0  0  0  0  0  0
    6.6779  -13.6625   25.1385 C   0  0  0  0  0  0  0  0  0  0  0  0
    6.8821  -13.0189   26.4934 C   0  0  0  0  0  0  0  0  0  0  0  0
    5.6215  -12.4131   26.8999 N   0  0  0  0  0  0  0  0  0  0  0  0
    9.6277  -16.3088   23.5271 C   0  0  0  0  0  0  0  0  0  0  0  0
    9.0686  -17.4095   23.7494 O   0  0  0  0  0  0  0  0  0  0  0  0
   10.8457  -15.9843   24.1424 N   0  0  0  0  0  0  0  0  0  0  0  0
   11.5550  -16.9094   24.9984 C   0  0  1  0  0  0  0  0  0  0  0  0
   13.0348  -16.5767   25.0533 C   0  0  0  0  0  0  0  0  0  0  0  0
   13.6580  -16.6865   23.7247 C   0  0  0  0  0  0  0  0  0  0  0  0
   13.5291  -17.6444   22.9397 O   0  0  0  0  0  0  0  0  0  0  0  0
   11.0297  -16.8088   26.4071 C   0  0  0  0  0  0  0  0  0  0  0  0
   10.0636  -15.8823   26.7690 O   0  0  0  0  0  0  0  0  0  0  0  0
   14.4718  -15.6099   23.3075 O   0  0  0  0  0  0  0  0  0  0  0  0
   11.4739  -17.5811   27.2920 O   0  0  0  0  0  0  0  0  0  0  0  0
  2  3  2  0
  2  1  1  0
  4  2  1  0
  5  4  1  0
  5  7  1  0
  5  6  1  1
  7  8  2  0
  9  7  1  0
  9 10  1  0
 10 11  1  1
 11 12  1  0
 13 12  1  0
 14 15  1  0
 14 13  1  0
 16 10  1  0
 16 17  2  0
 18 16  1  0
 19 18  1  0
 20 21  1  0
 19 20  1  1
 21 22  2  0
 23 19  1  0
 24 23  1  0
 25 21  1  0
 26 23  2  0
M  END
$$$$
