NKD.pdb
     RDKit          3D

 26 25  0  0  1  0  0  0  0  0999 V2000
   16.6315  -18.7034   25.6159 N   0  0  0  0  0  0  0  0  0  0  0  0
   16.8609  -19.7106   26.5827 C   0  0  0  0  0  0  0  0  0  0  0  0
   17.2525  -20.8664   26.2017 O   0  0  0  0  0  0  0  0  0  0  0  0
   16.6483  -19.4173   28.0111 C   0  0  0  0  0  0  0  0  0  0  0  0
   15.6067  -20.3832   28.5452 C   0  0  2  0  0  0  0  0  0  0  0  0
   14.2927  -19.9331   28.1190 N   0  0  0  0  0  0  0  0  0  0  0  0
   15.6948  -20.4033   30.0168 C   0  0  0  0  0  0  0  0  0  0  0  0
   16.1493  -19.4067   30.6169 O   0  0  0  0  0  0  0  0  0  0  0  0
   15.2625  -21.5480   30.7202 N   0  0  0  0  0  0  0  0  0  0  0  0
   15.2066  -21.6012   32.1571 C   0  0  1  0  0  0  0  0  0  0  0  0
   14.3661  -22.7505   32.6053 C   0  0  0  0  0  0  0  0  0  0  0  0
   12.9439  -22.6638   32.1719 C   0  0  0  0  0  0  0  0  0  0  0  0
   12.1710  -23.8690   32.6036 C   0  0  0  0  0  0  0  0  0  0  0  0
   10.7018  -23.7809   32.2497 C   0  0  0  0  0  0  0  0  0  0  0  0
   10.0372  -24.9615   32.7843 N   0  0  0  0  0  0  0  0  0  0  0  0
   16.5755  -21.7201   32.7550 C   0  0  0  0  0  0  0  0  0  0  0  0
   17.4224  -22.3910   32.1179 O   0  0  0  0  0  0  0  0  0  0  0  0
   16.9099  -21.1120   33.9739 N   0  0  0  0  0  0  0  0  0  0  0  0
   18.2464  -21.1574   34.5245 C   0  0  1  0  0  0  0  0  0  0  0  0
   18.3362  -20.3494   35.8062 C   0  0  0  0  0  0  0  0  0  0  0  0
   19.0072  -19.0593   35.5801 C   0  0  0  0  0  0  0  0  0  0  0  0
   19.5713  -18.7097   34.5265 O   0  0  0  0  0  0  0  0  0  0  0  0
   18.6078  -22.5776   34.8746 C   0  0  0  0  0  0  0  0  0  0  0  0
   17.6516  -23.5760   34.9838 O   0  0  0  0  0  0  0  0  0  0  0  0
   19.0090  -18.1410   36.6534 O   0  0  0  0  0  0  0  0  0  0  0  0
   19.8093  -22.8803   35.0787 O   0  0  0  0  0  0  0  0  0  0  0  0
  2  3  2  0
  2  1  1  0
  4  2  1  0
  5  4  1  0
  5  7  1  0
  5  6  1  1
  7  8  2  0
  9  7  1  0
  9 10  1  0
 10 11  1  6
 11 12  1  0
 13 12  1  0
 14 15  1  0
 14 13  1  0
 16 10  1  0
 16 17  2  0
 18 16  1  0
 19 18  1  0
 20 21  1  0
 19 20  1  1
 21 22  2  0
 23 19  1  0
 24 23  1  0
 25 21  1  0
 26 23  2  0
M  END
$$$$
