NKD.pdb
     RDKit          3D

 26 25  0  0  1  0  0  0  0  0999 V2000
    8.1477  -14.1725   15.8472 N   0  0  0  0  0  0  0  0  0  0  0  0
    7.9932  -15.0158   16.9727 C   0  0  0  0  0  0  0  0  0  0  0  0
    7.2222  -16.0325   16.8920 O   0  0  0  0  0  0  0  0  0  0  0  0
    8.7200  -14.7154   18.2188 C   0  0  0  0  0  0  0  0  0  0  0  0
    7.7032  -14.3714   19.2916 C   0  0  2  0  0  0  0  0  0  0  0  0
    7.0998  -13.0901   18.9672 N   0  0  0  0  0  0  0  0  0  0  0  0
    8.3957  -14.3030   20.5914 C   0  0  0  0  0  0  0  0  0  0  0  0
    9.6318  -14.1260   20.6184 O   0  0  0  0  0  0  0  0  0  0  0  0
    7.6487  -14.4376   21.7813 N   0  0  0  0  0  0  0  0  0  0  0  0
    8.2512  -14.3814   23.0868 C   0  0  1  0  0  0  0  0  0  0  0  0
    7.2280  -14.0464   24.1208 C   0  0  0  0  0  0  0  0  0  0  0  0
    7.6238  -12.9288   25.0222 C   0  0  0  0  0  0  0  0  0  0  0  0
    6.5630  -12.6506   26.0388 C   0  0  0  0  0  0  0  0  0  0  0  0
    6.9680  -11.5813   27.0309 C   0  0  0  0  0  0  0  0  0  0  0  0
    5.8665  -11.3915   27.9647 N   0  0  0  0  0  0  0  0  0  0  0  0
    8.9137  -15.6779   23.4412 C   0  0  0  0  0  0  0  0  0  0  0  0
    8.2637  -16.7297   23.2300 O   0  0  0  0  0  0  0  0  0  0  0  0
   10.2052  -15.7285   23.9858 N   0  0  0  0  0  0  0  0  0  0  0  0
   10.8609  -16.9742   24.3173 C   0  0  1  0  0  0  0  0  0  0  0  0
   12.3419  -16.9150   23.9904 C   0  0  0  0  0  0  0  0  0  0  0  0
   13.0267  -18.1575   24.3814 C   0  0  0  0  0  0  0  0  0  0  0  0
   12.6117  -19.3122   24.1698 O   0  0  0  0  0  0  0  0  0  0  0  0
   10.7480  -17.2341   25.7972 C   0  0  0  0  0  0  0  0  0  0  0  0
   11.0546  -18.4662   26.3547 O   0  0  0  0  0  0  0  0  0  0  0  0
   14.2614  -18.0243   25.0545 O   0  0  0  0  0  0  0  0  0  0  0  0
   10.3631  -16.3150   26.5614 O   0  0  0  0  0  0  0  0  0  0  0  0
  2  3  2  0
  2  1  1  0
  4  2  1  0
  5  4  1  0
  5  7  1  0
  5  6  1  6
  7  8  2  0
  9  7  1  0
  9 10  1  0
 10 11  1  1
 11 12  1  0
 13 12  1  0
 14 15  1  0
 14 13  1  0
 16 10  1  0
 16 17  2  0
 18 16  1  0
 19 18  1  0
 20 21  1  0
 19 20  1  1
 21 22  2  0
 23 19  1  0
 24 23  1  0
 25 21  1  0
 26 23  2  0
M  END
$$$$
