NKD.pdb
     RDKit          3D

 26 25  0  0  1  0  0  0  0  0999 V2000
    7.2909  -12.5299   18.7621 N   0  0  0  0  0  0  0  0  0  0  0  0
    8.1800  -13.4257   19.4014 C   0  0  0  0  0  0  0  0  0  0  0  0
    9.3674  -13.5601   18.9471 O   0  0  0  0  0  0  0  0  0  0  0  0
    7.7302  -14.1892   20.5788 C   0  0  0  0  0  0  0  0  0  0  0  0
    8.0144  -15.6590   20.3298 C   0  0  2  0  0  0  0  0  0  0  0  0
    7.3260  -16.0671   19.1171 N   0  0  0  0  0  0  0  0  0  0  0  0
    7.5292  -16.4343   21.4862 C   0  0  0  0  0  0  0  0  0  0  0  0
    7.3270  -15.8523   22.5726 O   0  0  0  0  0  0  0  0  0  0  0  0
    7.3008  -17.8198   21.3436 N   0  0  0  0  0  0  0  0  0  0  0  0
    6.9055  -18.6587   22.4438 C   0  0  1  0  0  0  0  0  0  0  0  0
    6.0001  -19.7476   21.9717 C   0  0  0  0  0  0  0  0  0  0  0  0
    5.5871  -20.6965   23.0428 C   0  0  0  0  0  0  0  0  0  0  0  0
    4.6931  -21.7671   22.5036 C   0  0  0  0  0  0  0  0  0  0  0  0
    4.3108  -22.7930   23.5491 C   0  0  0  0  0  0  0  0  0  0  0  0
    3.5171  -23.8264   22.8983 N   0  0  0  0  0  0  0  0  0  0  0  0
    8.0944  -19.2598   23.1298 C   0  0  0  0  0  0  0  0  0  0  0  0
    9.0120  -19.7056   22.4000 O   0  0  0  0  0  0  0  0  0  0  0  0
    8.1911  -19.3272   24.5274 N   0  0  0  0  0  0  0  0  0  0  0  0
    9.4072  -19.7195   25.2046 C   0  0  1  0  0  0  0  0  0  0  0  0
   10.2712  -18.5116   25.5179 C   0  0  0  0  0  0  0  0  0  0  0  0
   11.5403  -18.9097   26.1475 C   0  0  0  0  0  0  0  0  0  0  0  0
   12.4972  -19.4571   25.5684 O   0  0  0  0  0  0  0  0  0  0  0  0
    9.0725  -20.3730   26.5203 C   0  0  0  0  0  0  0  0  0  0  0  0
    9.9551  -21.2264   27.1650 O   0  0  0  0  0  0  0  0  0  0  0  0
   11.6814  -18.6460   27.5280 O   0  0  0  0  0  0  0  0  0  0  0  0
    7.9614  -20.1481   27.0604 O   0  0  0  0  0  0  0  0  0  0  0  0
  2  3  2  0
  2  1  1  0
  4  2  1  0
  5  4  1  0
  5  7  1  0
  5  6  1  6
  7  8  2  0
  9  7  1  0
  9 10  1  0
 10 11  1  6
 11 12  1  0
 13 12  1  0
 14 15  1  0
 14 13  1  0
 16 10  1  0
 16 17  2  0
 18 16  1  0
 19 18  1  0
 20 21  1  0
 19 20  1  1
 21 22  2  0
 23 19  1  0
 24 23  1  0
 25 21  1  0
 26 23  2  0
M  END
$$$$
