NKD.pdb
     RDKit          3D

 26 25  0  0  1  0  0  0  0  0999 V2000
    7.7938  -12.4616   17.7817 N   0  0  0  0  0  0  0  0  0  0  0  0
    7.4389  -13.4850   18.6919 C   0  0  0  0  0  0  0  0  0  0  0  0
    6.6849  -14.4393   18.2979 O   0  0  0  0  0  0  0  0  0  0  0  0
    7.9407  -13.4404   20.0767 C   0  0  0  0  0  0  0  0  0  0  0  0
    8.6145  -14.7656   20.3815 C   0  0  2  0  0  0  0  0  0  0  0  0
    7.5886  -15.7569   20.6568 N   0  0  0  0  0  0  0  0  0  0  0  0
    9.4912  -14.5888   21.5536 C   0  0  0  0  0  0  0  0  0  0  0  0
   10.4998  -13.8581   21.4596 O   0  0  0  0  0  0  0  0  0  0  0  0
    9.1737  -15.2476   22.7608 N   0  0  0  0  0  0  0  0  0  0  0  0
   10.0187  -15.1869   23.9239 C   0  0  1  0  0  0  0  0  0  0  0  0
    9.2020  -14.9555   25.1518 C   0  0  0  0  0  0  0  0  0  0  0  0
   10.0105  -14.7716   26.3890 C   0  0  0  0  0  0  0  0  0  0  0  0
    9.1431  -14.4273   27.5574 C   0  0  0  0  0  0  0  0  0  0  0  0
    9.9323  -14.2204   28.8325 C   0  0  0  0  0  0  0  0  0  0  0  0
    9.0089  -13.7772   29.8680 N   0  0  0  0  0  0  0  0  0  0  0  0
   10.8197  -16.4429   24.0858 C   0  0  0  0  0  0  0  0  0  0  0  0
   10.2037  -17.5314   23.9896 O   0  0  0  0  0  0  0  0  0  0  0  0
   12.1999  -16.4179   24.3340 N   0  0  0  0  0  0  0  0  0  0  0  0
   12.9808  -17.6229   24.5065 C   0  0  1  0  0  0  0  0  0  0  0  0
   14.4447  -17.3738   24.1926 C   0  0  0  0  0  0  0  0  0  0  0  0
   14.5994  -16.4722   23.0398 C   0  0  0  0  0  0  0  0  0  0  0  0
   14.1071  -16.6483   21.9098 O   0  0  0  0  0  0  0  0  0  0  0  0
   12.9105  -18.0774   25.9413 C   0  0  0  0  0  0  0  0  0  0  0  0
   12.2091  -17.3691   26.9053 O   0  0  0  0  0  0  0  0  0  0  0  0
   15.3738  -15.3073   23.2366 O   0  0  0  0  0  0  0  0  0  0  0  0
   13.5032  -19.1283   26.2894 O   0  0  0  0  0  0  0  0  0  0  0  0
  2  3  2  0
  2  1  1  0
  4  2  1  0
  5  4  1  0
  5  7  1  0
  5  6  1  1
  7  8  2  0
  9  7  1  0
  9 10  1  0
 10 11  1  1
 11 12  1  0
 13 12  1  0
 14 15  1  0
 14 13  1  0
 16 10  1  0
 16 17  2  0
 18 16  1  0
 19 18  1  0
 20 21  1  0
 19 20  1  1
 21 22  2  0
 23 19  1  0
 24 23  1  0
 25 21  1  0
 26 23  2  0
M  END
$$$$
