NKD.pdb
     RDKit          3D

 26 25  0  0  1  0  0  0  0  0999 V2000
   12.1559  -20.2641   16.2729 N   0  0  0  0  0  0  0  0  0  0  0  0
   13.4756  -20.0902   16.7524 C   0  0  0  0  0  0  0  0  0  0  0  0
   14.2572  -21.1001   16.8145 O   0  0  0  0  0  0  0  0  0  0  0  0
   13.9329  -18.7536   17.1716 C   0  0  0  0  0  0  0  0  0  0  0  0
   12.7552  -17.8001   17.0886 C   0  0  2  0  0  0  0  0  0  0  0  0
   12.8626  -17.0337   15.8590 N   0  0  0  0  0  0  0  0  0  0  0  0
   12.7905  -16.9060   18.2604 C   0  0  0  0  0  0  0  0  0  0  0  0
   13.8162  -16.2293   18.4839 O   0  0  0  0  0  0  0  0  0  0  0  0
   11.6638  -16.8304   19.1072 N   0  0  0  0  0  0  0  0  0  0  0  0
   11.5968  -15.9357   20.2321 C   0  0  1  0  0  0  0  0  0  0  0  0
   10.1938  -15.4750   20.4507 C   0  0  0  0  0  0  0  0  0  0  0  0
    9.7470  -14.4248   19.4938 C   0  0  0  0  0  0  0  0  0  0  0  0
    8.3341  -14.0141   19.7604 C   0  0  0  0  0  0  0  0  0  0  0  0
    7.8984  -12.8332   18.9194 C   0  0  0  0  0  0  0  0  0  0  0  0
    6.5199  -12.5160   19.2665 N   0  0  0  0  0  0  0  0  0  0  0  0
   12.1095  -16.5858   21.4810 C   0  0  0  0  0  0  0  0  0  0  0  0
   11.6865  -17.7373   21.7425 O   0  0  0  0  0  0  0  0  0  0  0  0
   13.0242  -15.9462   22.3306 N   0  0  0  0  0  0  0  0  0  0  0  0
   13.5886  -16.5938   23.4940 C   0  0  1  0  0  0  0  0  0  0  0  0
   14.7035  -15.7585   24.0963 C   0  0  0  0  0  0  0  0  0  0  0  0
   15.9786  -15.9831   23.3968 C   0  0  0  0  0  0  0  0  0  0  0  0
   16.5541  -17.0802   23.2717 O   0  0  0  0  0  0  0  0  0  0  0  0
   12.5320  -16.7479   24.5571 C   0  0  0  0  0  0  0  0  0  0  0  0
   11.2446  -16.2597   24.3930 O   0  0  0  0  0  0  0  0  0  0  0  0
   16.6000  -14.8541   22.8185 O   0  0  0  0  0  0  0  0  0  0  0  0
   12.8134  -17.3332   25.6319 O   0  0  0  0  0  0  0  0  0  0  0  0
  2  3  2  0
  2  1  1  0
  4  2  1  0
  5  4  1  0
  5  7  1  0
  5  6  1  6
  7  8  2  0
  9  7  1  0
  9 10  1  0
 10 11  1  1
 11 12  1  0
 13 12  1  0
 14 15  1  0
 14 13  1  0
 16 10  1  0
 16 17  2  0
 18 16  1  0
 19 18  1  0
 20 21  1  0
 19 20  1  1
 21 22  2  0
 23 19  1  0
 24 23  1  0
 25 21  1  0
 26 23  2  0
M  END
$$$$
