NKD.pdb
     RDKit          3D

 26 25  0  0  1  0  0  0  0  0999 V2000
   15.5292  -13.1291   16.6317 N   0  0  0  0  0  0  0  0  0  0  0  0
   15.4438  -14.1827   17.5720 C   0  0  0  0  0  0  0  0  0  0  0  0
   16.0954  -15.2626   17.3629 O   0  0  0  0  0  0  0  0  0  0  0  0
   14.6100  -14.0241   18.7766 C   0  0  0  0  0  0  0  0  0  0  0  0
   13.9281  -15.3497   19.0612 C   0  0  2  0  0  0  0  0  0  0  0  0
   13.0336  -15.6590   17.9590 N   0  0  0  0  0  0  0  0  0  0  0  0
   13.1734  -15.2291   20.3221 C   0  0  0  0  0  0  0  0  0  0  0  0
   13.7804  -14.9373   21.3738 O   0  0  0  0  0  0  0  0  0  0  0  0
   11.7785  -15.4443   20.3167 N   0  0  0  0  0  0  0  0  0  0  0  0
   10.9630  -15.2792   21.4907 C   0  0  1  0  0  0  0  0  0  0  0  0
    9.5557  -14.9597   21.1089 C   0  0  0  0  0  0  0  0  0  0  0  0
    9.4349  -13.8535   20.1189 C   0  0  0  0  0  0  0  0  0  0  0  0
    8.0124  -13.6485   19.7059 C   0  0  0  0  0  0  0  0  0  0  0  0
    7.8499  -12.5298   18.6990 C   0  0  0  0  0  0  0  0  0  0  0  0
    6.4645  -12.5250   18.2495 N   0  0  0  0  0  0  0  0  0  0  0  0
   10.9813  -16.5079   22.3483 C   0  0  0  0  0  0  0  0  0  0  0  0
   10.7863  -17.6077   21.7775 O   0  0  0  0  0  0  0  0  0  0  0  0
   11.2064  -16.4460   23.7313 N   0  0  0  0  0  0  0  0  0  0  0  0
   11.1975  -17.6215   24.5738 C   0  0  1  0  0  0  0  0  0  0  0  0
   12.2382  -17.5127   25.6732 C   0  0  0  0  0  0  0  0  0  0  0  0
   13.6031  -17.5524   25.1245 C   0  0  0  0  0  0  0  0  0  0  0  0
   13.8981  -17.6871   23.9223 O   0  0  0  0  0  0  0  0  0  0  0  0
    9.8575  -17.7569   25.2494 C   0  0  0  0  0  0  0  0  0  0  0  0
    9.4906  -18.9049   25.9353 O   0  0  0  0  0  0  0  0  0  0  0  0
   14.6676  -17.4263   26.0444 O   0  0  0  0  0  0  0  0  0  0  0  0
    9.0364  -16.8084   25.1956 O   0  0  0  0  0  0  0  0  0  0  0  0
  2  3  2  0
  2  1  1  0
  4  2  1  0
  5  4  1  0
  5  7  1  0
  5  6  1  6
  7  8  2  0
  9  7  1  0
  9 10  1  0
 10 11  1  6
 11 12  1  0
 13 12  1  0
 14 15  1  0
 14 13  1  0
 16 10  1  0
 16 17  2  0
 18 16  1  0
 19 18  1  0
 20 21  1  0
 19 20  1  1
 21 22  2  0
 23 19  1  0
 24 23  1  0
 25 21  1  0
 26 23  2  0
M  END
$$$$
