NKD.pdb
     RDKit          3D

 26 25  0  0  1  0  0  0  0  0999 V2000
   17.4708  -14.5622   16.3910 N   0  0  0  0  0  0  0  0  0  0  0  0
   16.2220  -13.9716   16.0853 C   0  0  0  0  0  0  0  0  0  0  0  0
   15.9488  -13.6783   14.8713 O   0  0  0  0  0  0  0  0  0  0  0  0
   15.2544  -13.7037   17.1638 C   0  0  0  0  0  0  0  0  0  0  0  0
   14.6388  -15.0239   17.5895 C   0  0  2  0  0  0  0  0  0  0  0  0
   13.8451  -15.5435   16.4890 N   0  0  0  0  0  0  0  0  0  0  0  0
   13.7912  -14.7878   18.7726 C   0  0  0  0  0  0  0  0  0  0  0  0
   14.3025  -14.3096   19.8068 O   0  0  0  0  0  0  0  0  0  0  0  0
   12.4172  -15.1053   18.7138 N   0  0  0  0  0  0  0  0  0  0  0  0
   11.5327  -14.9367   19.8362 C   0  0  1  0  0  0  0  0  0  0  0  0
   10.1112  -15.0980   19.4103 C   0  0  0  0  0  0  0  0  0  0  0  0
    9.1285  -14.9584   20.5208 C   0  0  0  0  0  0  0  0  0  0  0  0
    7.7253  -15.1033   20.0245 C   0  0  0  0  0  0  0  0  0  0  0  0
    6.7068  -15.1235   21.1443 C   0  0  0  0  0  0  0  0  0  0  0  0
    5.6129  -14.2354   20.7754 N   0  0  0  0  0  0  0  0  0  0  0  0
   11.8410  -15.9146   20.9289 C   0  0  0  0  0  0  0  0  0  0  0  0
   11.8248  -17.1325   20.6290 O   0  0  0  0  0  0  0  0  0  0  0  0
   12.1375  -15.5003   22.2358 N   0  0  0  0  0  0  0  0  0  0  0  0
   12.4114  -16.4354   23.3045 C   0  0  1  0  0  0  0  0  0  0  0  0
   13.6775  -16.0558   24.0503 C   0  0  0  0  0  0  0  0  0  0  0  0
   14.8769  -16.3268   23.2419 C   0  0  0  0  0  0  0  0  0  0  0  0
   14.9124  -17.0142   22.2042 O   0  0  0  0  0  0  0  0  0  0  0  0
   11.2869  -16.4104   24.3071 C   0  0  0  0  0  0  0  0  0  0  0  0
   11.2095  -17.3204   25.3506 O   0  0  0  0  0  0  0  0  0  0  0  0
   16.0907  -15.7557   23.6845 O   0  0  0  0  0  0  0  0  0  0  0  0
   10.3832  -15.5446   24.2051 O   0  0  0  0  0  0  0  0  0  0  0  0
  2  3  2  0
  2  1  1  0
  4  2  1  0
  5  4  1  0
  5  7  1  0
  5  6  1  6
  7  8  2  0
  9  7  1  0
  9 10  1  0
 10 11  1  6
 11 12  1  0
 13 12  1  0
 14 15  1  0
 14 13  1  0
 16 10  1  0
 16 17  2  0
 18 16  1  0
 19 18  1  0
 20 21  1  0
 19 20  1  1
 21 22  2  0
 23 19  1  0
 24 23  1  0
 25 21  1  0
 26 23  2  0
M  END
$$$$
