NKD.pdb
     RDKit          3D

 26 25  0  0  1  0  0  0  0  0999 V2000
   15.7512  -16.4229   15.6611 N   0  0  0  0  0  0  0  0  0  0  0  0
   15.2002  -15.1467   15.3977 C   0  0  0  0  0  0  0  0  0  0  0  0
   15.8421  -14.3293   14.6532 O   0  0  0  0  0  0  0  0  0  0  0  0
   13.8985  -14.7760   15.9804 C   0  0  0  0  0  0  0  0  0  0  0  0
   13.4408  -15.9082   16.8813 C   0  0  2  0  0  0  0  0  0  0  0  0
   12.2014  -16.4516   16.3525 N   0  0  0  0  0  0  0  0  0  0  0  0
   13.2336  -15.3739   18.2397 C   0  0  0  0  0  0  0  0  0  0  0  0
   14.2061  -14.9074   18.8694 O   0  0  0  0  0  0  0  0  0  0  0  0
   11.9397  -15.3983   18.8029 N   0  0  0  0  0  0  0  0  0  0  0  0
   11.6671  -14.9468   20.1417 C   0  0  1  0  0  0  0  0  0  0  0  0
   10.2129  -14.6535   20.3085 C   0  0  0  0  0  0  0  0  0  0  0  0
    9.6899  -13.6329   19.3582 C   0  0  0  0  0  0  0  0  0  0  0  0
    8.2170  -13.4383   19.5282 C   0  0  0  0  0  0  0  0  0  0  0  0
    7.6337  -12.4700   18.5214 C   0  0  0  0  0  0  0  0  0  0  0  0
    6.1984  -12.3867   18.7544 N   0  0  0  0  0  0  0  0  0  0  0  0
   12.0921  -15.9610   21.1596 C   0  0  0  0  0  0  0  0  0  0  0  0
   11.7968  -17.1588   20.9326 O   0  0  0  0  0  0  0  0  0  0  0  0
   12.7915  -15.6011   22.3209 N   0  0  0  0  0  0  0  0  0  0  0  0
   13.1601  -16.5629   23.3360 C   0  0  1  0  0  0  0  0  0  0  0  0
   14.5432  -16.2703   23.8882 C   0  0  0  0  0  0  0  0  0  0  0  0
   15.5349  -16.1424   22.8084 C   0  0  0  0  0  0  0  0  0  0  0  0
   15.7236  -16.9674   21.8951 O   0  0  0  0  0  0  0  0  0  0  0  0
   12.1987  -16.4797   24.4932 C   0  0  0  0  0  0  0  0  0  0  0  0
   12.2617  -17.3535   25.5681 O   0  0  0  0  0  0  0  0  0  0  0  0
   16.3400  -14.9817   22.8119 O   0  0  0  0  0  0  0  0  0  0  0  0
   11.3055  -15.5971   24.4961 O   0  0  0  0  0  0  0  0  0  0  0  0
  2  3  2  0
  2  1  1  0
  4  2  1  0
  5  4  1  0
  5  7  1  0
  5  6  1  6
  7  8  2  0
  9  7  1  0
  9 10  1  0
 10 11  1  6
 11 12  1  0
 13 12  1  0
 14 15  1  0
 14 13  1  0
 16 10  1  0
 16 17  2  0
 18 16  1  0
 19 18  1  0
 20 21  1  0
 19 20  1  1
 21 22  2  0
 23 19  1  0
 24 23  1  0
 25 21  1  0
 26 23  2  0
M  END
$$$$
