NKD.pdb
     RDKit          3D

 26 25  0  0  1  0  0  0  0  0999 V2000
    9.0463  -18.4391   16.4260 N   0  0  0  0  0  0  0  0  0  0  0  0
   10.2993  -17.7836   16.4703 C   0  0  0  0  0  0  0  0  0  0  0  0
   10.9569  -17.6164   15.3867 O   0  0  0  0  0  0  0  0  0  0  0  0
   10.8293  -17.3021   17.7582 C   0  0  0  0  0  0  0  0  0  0  0  0
    9.6716  -16.7610   18.5767 C   0  0  2  0  0  0  0  0  0  0  0  0
    9.1466  -15.5787   17.9154 N   0  0  0  0  0  0  0  0  0  0  0  0
   10.1656  -16.4238   19.9243 C   0  0  0  0  0  0  0  0  0  0  0  0
   11.1142  -15.6205   20.0458 O   0  0  0  0  0  0  0  0  0  0  0  0
    9.5563  -17.0140   21.0523 N   0  0  0  0  0  0  0  0  0  0  0  0
    9.9850  -16.7405   22.3984 C   0  0  1  0  0  0  0  0  0  0  0  0
    9.0272  -17.3277   23.3815 C   0  0  0  0  0  0  0  0  0  0  0  0
    9.4629  -17.1988   24.7998 C   0  0  0  0  0  0  0  0  0  0  0  0
    8.4768  -17.8312   25.7294 C   0  0  0  0  0  0  0  0  0  0  0  0
    8.8607  -17.6752   27.1854 C   0  0  0  0  0  0  0  0  0  0  0  0
    7.8378  -18.3245   27.9939 N   0  0  0  0  0  0  0  0  0  0  0  0
   11.3591  -17.2796   22.6564 C   0  0  0  0  0  0  0  0  0  0  0  0
   11.5684  -18.4802   22.3594 O   0  0  0  0  0  0  0  0  0  0  0  0
   12.3778  -16.4871   23.2055 N   0  0  0  0  0  0  0  0  0  0  0  0
   13.6537  -17.0330   23.6123 C   0  0  1  0  0  0  0  0  0  0  0  0
   14.7765  -16.0443   23.3570 C   0  0  0  0  0  0  0  0  0  0  0  0
   15.1134  -15.9743   21.9261 C   0  0  0  0  0  0  0  0  0  0  0  0
   15.3533  -16.9485   21.1887 O   0  0  0  0  0  0  0  0  0  0  0  0
   13.6425  -17.3119   25.0930 C   0  0  0  0  0  0  0  0  0  0  0  0
   12.5635  -16.9785   25.8976 O   0  0  0  0  0  0  0  0  0  0  0  0
   15.1678  -14.6891   21.3426 O   0  0  0  0  0  0  0  0  0  0  0  0
   14.6363  -17.8615   25.6288 O   0  0  0  0  0  0  0  0  0  0  0  0
  2  3  2  0
  2  1  1  0
  4  2  1  0
  5  4  1  0
  5  7  1  0
  5  6  1  6
  7  8  2  0
  9  7  1  0
  9 10  1  0
 10 11  1  1
 11 12  1  0
 13 12  1  0
 14 15  1  0
 14 13  1  0
 16 10  1  0
 16 17  2  0
 18 16  1  0
 19 18  1  0
 20 21  1  0
 19 20  1  1
 21 22  2  0
 23 19  1  0
 24 23  1  0
 25 21  1  0
 26 23  2  0
M  END
$$$$
