NKD.pdb
     RDKit          3D

 26 25  0  0  1  0  0  0  0  0999 V2000
    8.1835  -13.4889   15.7488 N   0  0  0  0  0  0  0  0  0  0  0  0
    7.4005  -13.8704   16.8637 C   0  0  0  0  0  0  0  0  0  0  0  0
    6.3409  -14.5610   16.6775 O   0  0  0  0  0  0  0  0  0  0  0  0
    7.8135  -13.4705   18.2205 C   0  0  0  0  0  0  0  0  0  0  0  0
    8.2249  -14.7184   18.9798 C   0  0  2  0  0  0  0  0  0  0  0  0
    7.0698  -15.5912   19.1015 N   0  0  0  0  0  0  0  0  0  0  0  0
    8.7141  -14.3186   20.3119 C   0  0  0  0  0  0  0  0  0  0  0  0
    9.8644  -13.8456   20.4255 O   0  0  0  0  0  0  0  0  0  0  0  0
    7.8727  -14.4764   21.4340 N   0  0  0  0  0  0  0  0  0  0  0  0
    8.3089  -14.1982   22.7768 C   0  0  1  0  0  0  0  0  0  0  0  0
    7.2150  -13.5487   23.5577 C   0  0  0  0  0  0  0  0  0  0  0  0
    7.6321  -13.0840   24.9098 C   0  0  0  0  0  0  0  0  0  0  0  0
    6.4462  -12.8069   25.7776 C   0  0  0  0  0  0  0  0  0  0  0  0
    6.8230  -12.1750   27.1006 C   0  0  0  0  0  0  0  0  0  0  0  0
    5.5941  -11.8419   27.8080 N   0  0  0  0  0  0  0  0  0  0  0  0
    8.7513  -15.4458   23.4791 C   0  0  0  0  0  0  0  0  0  0  0  0
    7.9519  -16.4124   23.4875 O   0  0  0  0  0  0  0  0  0  0  0  0
   10.0032  -15.5431   24.1041 N   0  0  0  0  0  0  0  0  0  0  0  0
   10.5203  -16.7920   24.6184 C   0  0  1  0  0  0  0  0  0  0  0  0
   11.9548  -17.0126   24.1744 C   0  0  0  0  0  0  0  0  0  0  0  0
   12.5175  -18.2354   24.7691 C   0  0  0  0  0  0  0  0  0  0  0  0
   11.8805  -19.2711   25.0375 O   0  0  0  0  0  0  0  0  0  0  0  0
   10.5267  -16.7616   26.1249 C   0  0  0  0  0  0  0  0  0  0  0  0
   10.6489  -17.9151   26.8847 O   0  0  0  0  0  0  0  0  0  0  0  0
   13.9000  -18.2298   25.0585 O   0  0  0  0  0  0  0  0  0  0  0  0
   10.4165  -15.6637   26.7243 O   0  0  0  0  0  0  0  0  0  0  0  0
  2  3  2  0
  2  1  1  0
  4  2  1  0
  5  4  1  0
  5  7  1  0
  5  6  1  1
  7  8  2  0
  9  7  1  0
  9 10  1  0
 10 11  1  1
 11 12  1  0
 13 12  1  0
 14 15  1  0
 14 13  1  0
 16 10  1  0
 16 17  2  0
 18 16  1  0
 19 18  1  0
 20 21  1  0
 19 20  1  6
 21 22  2  0
 23 19  1  0
 24 23  1  0
 25 21  1  0
 26 23  2  0
M  END
$$$$
