SCM.pdb
     RDKit          3D

 21 20  0  0  1  0  0  0  0  0999 V2000
   14.8128  -12.2721   -9.9952 O   0  0  0  0  0  0  0  0  0  0  0  0
   15.1482  -11.0948  -10.6818 C   0  0  0  0  0  0  0  0  0  0  0  0
   14.7234   -9.8761   -9.8862 C   0  0  2  0  0  0  0  0  0  0  0  0
   13.2719   -9.8919   -9.8632 N   0  0  0  0  0  0  0  0  0  0  0  0
   15.2018   -8.6249  -10.5027 C   0  0  0  0  0  0  0  0  0  0  0  0
   14.6346   -8.1062  -11.5247 O   0  0  0  0  0  0  0  0  0  0  0  0
   16.3242   -7.9132  -10.0018 N   0  0  0  0  0  0  0  0  0  0  0  0
   16.8626   -6.7370  -10.6374 C   0  0  1  0  0  0  0  0  0  0  0  0
   16.4791   -5.5563   -9.7671 C   0  0  0  0  0  0  0  0  0  0  0  0
   16.8730   -5.8638   -8.0307 S   0  0  0  0  0  0  0  0  0  0  0  0
   18.3397   -6.7796  -10.7481 C   0  0  0  0  0  0  0  0  0  0  0  0
   18.9502   -7.6560  -10.0446 O   0  0  0  0  0  0  0  0  0  0  0  0
   23.5054  -10.0763  -14.1951 C   0  0  0  0  0  0  0  0  0  0  0  0
   21.7942   -9.6868  -13.7860 S   0  0  0  0  0  0  0  0  0  0  0  0
   21.7532   -7.9941  -13.1017 C   0  0  0  0  0  0  0  0  0  0  0  0
   20.3733   -7.6265  -12.6471 C   0  0  0  0  0  0  0  0  0  0  0  0
   20.3751   -6.2744  -12.0281 C   0  0  2  0  0  0  0  0  0  0  0  0
   19.0334   -5.8880  -11.5949 N   0  0  0  0  0  0  0  0  0  0  0  0
   20.8056   -5.2156  -12.9600 C   0  0  0  0  0  0  0  0  0  0  0  0
   22.1049   -4.7586  -13.0092 O   0  0  0  0  0  0  0  0  0  0  0  0
   19.9518   -4.6924  -13.7531 O   0  0  0  0  0  0  0  0  0  0  0  0
  2  1  1  0
  3  2  1  0
  3  4  1  6
  5  6  2  0
  5  3  1  0
  7  5  1  0
  8 11  1  0
  8  7  1  0
  8  9  1  1
 10  9  1  0
 11 12  2  0
 13 14  1  0
 15 14  1  0
 16 15  1  0
 17 16  1  6
 18 17  1  0
 18 11  1  0
 19 17  1  0
 20 19  1  0
 21 19  2  0
M  END
$$$$
