SCM.pdb
     RDKit          3D

 21 20  0  0  1  0  0  0  0  0999 V2000
   21.4387  -13.2943  -19.1789 O   0  0  0  0  0  0  0  0  0  0  0  0
   21.0042  -12.0229  -18.7729 C   0  0  0  0  0  0  0  0  0  0  0  0
   19.9240  -12.1429  -17.7158 C   0  0  2  0  0  0  0  0  0  0  0  0
   18.7353  -12.6162  -18.4018 N   0  0  0  0  0  0  0  0  0  0  0  0
   19.6465  -10.8484  -17.0663 C   0  0  0  0  0  0  0  0  0  0  0  0
   19.2559   -9.8236  -17.7241 O   0  0  0  0  0  0  0  0  0  0  0  0
   19.7947  -10.6545  -15.6672 N   0  0  0  0  0  0  0  0  0  0  0  0
   19.5366   -9.3972  -15.0115 C   0  0  1  0  0  0  0  0  0  0  0  0
   18.9144   -9.7250  -13.6683 C   0  0  0  0  0  0  0  0  0  0  0  0
   18.7330   -8.2444  -12.6488 S   0  0  0  0  0  0  0  0  0  0  0  0
   20.7741   -8.6160  -14.7784 C   0  0  0  0  0  0  0  0  0  0  0  0
   21.8494   -9.2779  -14.5750 O   0  0  0  0  0  0  0  0  0  0  0  0
   26.4654   -4.8798  -17.2979 C   0  0  0  0  0  0  0  0  0  0  0  0
   24.8835   -5.7092  -17.5367 S   0  0  0  0  0  0  0  0  0  0  0  0
   24.0169   -5.7361  -15.9295 C   0  0  0  0  0  0  0  0  0  0  0  0
   22.7351   -6.5076  -16.0176 C   0  0  0  0  0  0  0  0  0  0  0  0
   22.0427   -6.5133  -14.7017 C   0  0  2  0  0  0  0  0  0  0  0  0
   20.7569   -7.2044  -14.7822 N   0  0  0  0  0  0  0  0  0  0  0  0
   21.7287   -5.1586  -14.2108 C   0  0  0  0  0  0  0  0  0  0  0  0
   22.6334   -4.4043  -13.4952 O   0  0  0  0  0  0  0  0  0  0  0  0
   20.5786   -4.6560  -14.4478 O   0  0  0  0  0  0  0  0  0  0  0  0
  2  1  1  0
  3  2  1  0
  3  4  1  6
  5  6  2  0
  5  3  1  0
  7  5  1  0
  8 11  1  0
  8  7  1  0
  8  9  1  1
 10  9  1  0
 11 12  2  0
 13 14  1  0
 15 14  1  0
 16 15  1  0
 17 16  1  6
 18 17  1  0
 18 11  1  0
 19 17  1  0
 20 19  1  0
 21 19  2  0
M  END
$$$$
