SCM.pdb
     RDKit          3D

 21 20  0  0  1  0  0  0  0  0999 V2000
   15.9217  -10.7884  -16.5495 O   0  0  0  0  0  0  0  0  0  0  0  0
   16.1920  -10.2882  -15.2663 C   0  0  0  0  0  0  0  0  0  0  0  0
   17.6360  -10.5514  -14.8864 C   0  0  2  0  0  0  0  0  0  0  0  0
   17.7560  -11.9883  -14.7175 N   0  0  0  0  0  0  0  0  0  0  0  0
   18.0071   -9.8663  -13.6344 C   0  0  0  0  0  0  0  0  0  0  0  0
   17.7625  -10.3667  -12.4832 O   0  0  0  0  0  0  0  0  0  0  0  0
   18.6609   -8.6055  -13.6246 N   0  0  0  0  0  0  0  0  0  0  0  0
   19.0292   -7.9153  -12.4141 C   0  0  1  0  0  0  0  0  0  0  0  0
   20.2626   -7.0950  -12.7374 C   0  0  0  0  0  0  0  0  0  0  0  0
   20.9105   -6.2733  -11.2644 S   0  0  0  0  0  0  0  0  0  0  0  0
   17.9660   -6.9988  -11.9394 C   0  0  0  0  0  0  0  0  0  0  0  0
   17.3889   -6.2727  -12.8200 O   0  0  0  0  0  0  0  0  0  0  0  0
   12.6640   -7.4520   -7.6559 C   0  0  0  0  0  0  0  0  0  0  0  0
   14.1461   -8.4707   -7.7688 S   0  0  0  0  0  0  0  0  0  0  0  0
   15.0898   -7.9262   -9.2344 C   0  0  0  0  0  0  0  0  0  0  0  0
   15.8074   -6.6377   -8.9689 C   0  0  0  0  0  0  0  0  0  0  0  0
   16.4451   -6.1340  -10.2144 C   0  0  2  0  0  0  0  0  0  0  0  0
   17.6130   -6.9366  -10.5739 N   0  0  0  0  0  0  0  0  0  0  0  0
   16.9440   -4.7521  -10.0872 C   0  0  0  0  0  0  0  0  0  0  0  0
   18.2675   -4.4236  -10.2864 O   0  0  0  0  0  0  0  0  0  0  0  0
   16.1305   -3.8171   -9.7782 O   0  0  0  0  0  0  0  0  0  0  0  0
  2  1  1  0
  3  2  1  0
  3  4  1  1
  5  6  2  0
  5  3  1  0
  7  5  1  0
  8 11  1  0
  8  7  1  0
  8  9  1  6
 10  9  1  0
 11 12  2  0
 13 14  1  0
 15 14  1  0
 16 15  1  0
 17 16  1  1
 18 17  1  0
 18 11  1  0
 19 17  1  0
 20 19  1  0
 21 19  2  0
M  END
$$$$
