SCM.pdb
     RDKit          3D

 21 20  0  0  1  0  0  0  0  0999 V2000
   15.7464  -11.6777  -10.2283 O   0  0  0  0  0  0  0  0  0  0  0  0
   15.8467  -10.3640  -10.7122 C   0  0  0  0  0  0  0  0  0  0  0  0
   15.0267   -9.4184   -9.8566 C   0  0  2  0  0  0  0  0  0  0  0  0
   13.6348   -9.7323  -10.1241 N   0  0  0  0  0  0  0  0  0  0  0  0
   15.2953   -8.0068  -10.1880 C   0  0  0  0  0  0  0  0  0  0  0  0
   14.8182   -7.4478  -11.2346 O   0  0  0  0  0  0  0  0  0  0  0  0
   16.1014   -7.1748   -9.3664 N   0  0  0  0  0  0  0  0  0  0  0  0
   16.4524   -5.8211   -9.7149 C   0  0  1  0  0  0  0  0  0  0  0  0
   16.0709   -4.9528   -8.5320 C   0  0  0  0  0  0  0  0  0  0  0  0
   14.2785   -4.8917   -8.3121 S   0  0  0  0  0  0  0  0  0  0  0  0
   17.9036   -5.6599   -9.9678 C   0  0  0  0  0  0  0  0  0  0  0  0
   18.7029   -6.2470   -9.1601 O   0  0  0  0  0  0  0  0  0  0  0  0
   20.7809   -8.7595  -14.5402 C   0  0  0  0  0  0  0  0  0  0  0  0
   21.5980   -8.4648  -12.9613 S   0  0  0  0  0  0  0  0  0  0  0  0
   21.3102   -6.7219  -12.4984 C   0  0  0  0  0  0  0  0  0  0  0  0
   19.9670   -6.5459  -11.8576 C   0  0  0  0  0  0  0  0  0  0  0  0
   19.7469   -5.1194  -11.4997 C   0  0  2  0  0  0  0  0  0  0  0  0
   18.3734   -4.8905  -11.0542 N   0  0  0  0  0  0  0  0  0  0  0  0
   19.9470   -4.2031  -12.6378 C   0  0  0  0  0  0  0  0  0  0  0  0
   21.1911   -3.7295  -12.9945 O   0  0  0  0  0  0  0  0  0  0  0  0
   18.9381   -3.8245  -13.3236 O   0  0  0  0  0  0  0  0  0  0  0  0
  2  1  1  0
  3  2  1  0
  3  4  1  6
  5  6  2  0
  5  3  1  0
  7  5  1  0
  8 11  1  0
  8  7  1  0
  8  9  1  1
 10  9  1  0
 11 12  2  0
 13 14  1  0
 15 14  1  0
 16 15  1  0
 17 16  1  6
 18 17  1  0
 18 11  1  0
 19 17  1  0
 20 19  1  0
 21 19  2  0
M  END
$$$$
