SCM.pdb
     RDKit          3D

 21 20  0  0  1  0  0  0  0  0999 V2000
   23.1716  -32.3671   -6.9184 O   0  0  0  0  0  0  0  0  0  0  0  0
   24.4254  -31.8142   -7.2223 C   0  0  0  0  0  0  0  0  0  0  0  0
   25.4737  -32.9038   -7.3343 C   0  0  2  0  0  0  0  0  0  0  0  0
   25.0847  -33.7268   -8.4652 N   0  0  0  0  0  0  0  0  0  0  0  0
   25.5403  -33.7280   -6.1133 C   0  0  0  0  0  0  0  0  0  0  0  0
   25.0108  -34.8900   -6.0435 O   0  0  0  0  0  0  0  0  0  0  0  0
   26.1971  -33.2857   -4.9343 N   0  0  0  0  0  0  0  0  0  0  0  0
   26.2809  -34.0760   -3.7320 C   0  0  1  0  0  0  0  0  0  0  0  0
   27.7409  -34.4429   -3.5516 C   0  0  0  0  0  0  0  0  0  0  0  0
   28.8025  -32.9841   -3.6500 S   0  0  0  0  0  0  0  0  0  0  0  0
   25.8316  -33.3309   -2.5325 C   0  0  0  0  0  0  0  0  0  0  0  0
   25.8943  -32.0545   -2.5840 O   0  0  0  0  0  0  0  0  0  0  0  0
   20.2523  -31.1846    1.8018 C   0  0  0  0  0  0  0  0  0  0  0  0
   20.9038  -32.0553    0.3649 S   0  0  0  0  0  0  0  0  0  0  0  0
   22.7024  -32.2627    0.6035 C   0  0  0  0  0  0  0  0  0  0  0  0
   23.3359  -32.9129   -0.5889 C   0  0  0  0  0  0  0  0  0  0  0  0
   24.7699  -33.2011   -0.3206 C   0  0  2  0  0  0  0  0  0  0  0  0
   25.3572  -34.0086   -1.3885 N   0  0  0  0  0  0  0  0  0  0  0  0
   24.9794  -33.9761    0.9164 C   0  0  0  0  0  0  0  0  0  0  0  0
   25.2155  -33.3745    2.1337 O   0  0  0  0  0  0  0  0  0  0  0  0
   24.9467  -35.2522    0.8706 O   0  0  0  0  0  0  0  0  0  0  0  0
  2  1  1  0
  3  2  1  0
  3  4  1  6
  5  6  2  0
  5  3  1  0
  7  5  1  0
  8 11  1  0
  8  7  1  0
  8  9  1  1
 10  9  1  0
 11 12  2  0
 13 14  1  0
 15 14  1  0
 16 15  1  0
 17 16  1  6
 18 17  1  0
 18 11  1  0
 19 17  1  0
 20 19  1  0
 21 19  2  0
M  END
$$$$
