SCM.pdb
     RDKit          3D

 21 20  0  0  1  0  0  0  0  0999 V2000
   16.2340  -11.1231  -17.0413 O   0  0  0  0  0  0  0  0  0  0  0  0
   16.6484  -11.0508  -15.7022 C   0  0  0  0  0  0  0  0  0  0  0  0
   18.1599  -10.9686  -15.6173 C   0  0  2  0  0  0  0  0  0  0  0  0
   18.6501  -12.3256  -15.7777 N   0  0  0  0  0  0  0  0  0  0  0  0
   18.6073  -10.4234  -14.3222 C   0  0  0  0  0  0  0  0  0  0  0  0
   18.5670  -11.1072  -13.2423 O   0  0  0  0  0  0  0  0  0  0  0  0
   19.1125   -9.1027  -14.1888 N   0  0  0  0  0  0  0  0  0  0  0  0
   19.4214   -8.4990  -12.9171 C   0  0  1  0  0  0  0  0  0  0  0  0
   20.5011   -7.4663  -13.1749 C   0  0  0  0  0  0  0  0  0  0  0  0
   20.9659   -6.6074  -11.6548 S   0  0  0  0  0  0  0  0  0  0  0  0
   18.2517   -7.8163  -12.3157 C   0  0  0  0  0  0  0  0  0  0  0  0
   17.5338   -7.0992  -13.0943 O   0  0  0  0  0  0  0  0  0  0  0  0
   11.9966   -7.8608   -7.9691 C   0  0  0  0  0  0  0  0  0  0  0  0
   13.4354   -8.7828   -8.5408 S   0  0  0  0  0  0  0  0  0  0  0  0
   14.6152   -7.5897   -9.2615 C   0  0  0  0  0  0  0  0  0  0  0  0
   15.7982   -8.2902   -9.8581 C   0  0  0  0  0  0  0  0  0  0  0  0
   16.7419   -7.3031  -10.4466 C   0  0  2  0  0  0  0  0  0  0  0  0
   17.9514   -7.9570  -10.9434 N   0  0  0  0  0  0  0  0  0  0  0  0
   17.2110   -6.3025   -9.4700 C   0  0  0  0  0  0  0  0  0  0  0  0
   16.3636   -5.3841   -8.8888 O   0  0  0  0  0  0  0  0  0  0  0  0
   18.4460   -6.2736   -9.1453 O   0  0  0  0  0  0  0  0  0  0  0  0
  2  1  1  0
  3  2  1  0
  3  4  1  1
  5  6  2  0
  5  3  1  0
  7  5  1  0
  8 11  1  0
  8  7  1  0
  8  9  1  6
 10  9  1  0
 11 12  2  0
 13 14  1  0
 15 14  1  0
 16 15  1  0
 17 16  1  1
 18 17  1  0
 18 11  1  0
 19 17  1  0
 20 19  1  0
 21 19  2  0
M  END
$$$$
