SCM.pdb
     RDKit          3D

 21 20  0  0  1  0  0  0  0  0999 V2000
   15.5854  -12.1423  -17.1318 O   0  0  0  0  0  0  0  0  0  0  0  0
   16.5095  -11.6117  -16.2182 C   0  0  0  0  0  0  0  0  0  0  0  0
   17.0481  -10.2851  -16.7168 C   0  0  2  0  0  0  0  0  0  0  0  0
   17.6765  -10.5573  -17.9969 N   0  0  0  0  0  0  0  0  0  0  0  0
   18.0358   -9.7095  -15.7853 C   0  0  0  0  0  0  0  0  0  0  0  0
   17.7276   -9.3548  -14.5959 O   0  0  0  0  0  0  0  0  0  0  0  0
   19.3946   -9.5111  -16.1477 N   0  0  0  0  0  0  0  0  0  0  0  0
   20.3808   -8.9652  -15.2496 C   0  0  1  0  0  0  0  0  0  0  0  0
   21.6780   -9.6993  -15.5274 C   0  0  0  0  0  0  0  0  0  0  0  0
   23.0436   -9.0074  -14.5677 S   0  0  0  0  0  0  0  0  0  0  0  0
   20.6043   -7.5166  -15.4674 C   0  0  0  0  0  0  0  0  0  0  0  0
   20.8013   -7.1336  -16.6716 O   0  0  0  0  0  0  0  0  0  0  0  0
   18.9076   -0.1778  -14.7044 C   0  0  0  0  0  0  0  0  0  0  0  0
   18.4244   -1.9056  -14.5363 S   0  0  0  0  0  0  0  0  0  0  0  0
   19.9354   -2.9241  -14.6565 C   0  0  0  0  0  0  0  0  0  0  0  0
   19.6213   -4.3808  -14.4976 C   0  0  0  0  0  0  0  0  0  0  0  0
   20.8482   -5.1989  -14.6891 C   0  0  2  0  0  0  0  0  0  0  0  0
   20.5986   -6.6075  -14.3873 N   0  0  0  0  0  0  0  0  0  0  0  0
   21.9524   -4.7975  -13.7977 C   0  0  0  0  0  0  0  0  0  0  0  0
   22.7335   -3.6889  -14.0430 O   0  0  0  0  0  0  0  0  0  0  0  0
   22.2064   -5.4965  -12.7592 O   0  0  0  0  0  0  0  0  0  0  0  0
  2  1  1  0
  3  2  1  0
  3  4  1  6
  5  6  2  0
  5  3  1  0
  7  5  1  0
  8 11  1  0
  8  7  1  0
  8  9  1  6
 10  9  1  0
 11 12  2  0
 13 14  1  0
 15 14  1  0
 16 15  1  0
 17 16  1  1
 18 17  1  0
 18 11  1  0
 19 17  1  0
 20 19  1  0
 21 19  2  0
M  END
$$$$
