SCM.pdb
     RDKit          3D

 21 20  0  0  1  0  0  0  0  0999 V2000
   30.4125  -34.4585   -3.1890 O   0  0  0  0  0  0  0  0  0  0  0  0
   29.5162  -35.5058   -3.4535 C   0  0  0  0  0  0  0  0  0  0  0  0
   28.1675  -34.9571   -3.8761 C   0  0  2  0  0  0  0  0  0  0  0  0
   28.3968  -34.2172   -5.1040 N   0  0  0  0  0  0  0  0  0  0  0  0
   27.5936  -34.0644   -2.8522 C   0  0  0  0  0  0  0  0  0  0  0  0
   27.6048  -32.7912   -2.9717 O   0  0  0  0  0  0  0  0  0  0  0  0
   26.9904  -34.5600   -1.6657 N   0  0  0  0  0  0  0  0  0  0  0  0
   26.4517  -33.7066   -0.6368 C   0  0  1  0  0  0  0  0  0  0  0  0
   24.9635  -33.9883   -0.5708 C   0  0  0  0  0  0  0  0  0  0  0  0
   24.1631  -32.9991    0.7119 S   0  0  0  0  0  0  0  0  0  0  0  0
   27.0421  -33.9829    0.6941 C   0  0  0  0  0  0  0  0  0  0  0  0
   27.3423  -35.1983    0.9556 O   0  0  0  0  0  0  0  0  0  0  0  0
   31.6446  -31.3288    5.1518 C   0  0  0  0  0  0  0  0  0  0  0  0
   29.9342  -31.1903    5.7016 S   0  0  0  0  0  0  0  0  0  0  0  0
   28.9877  -32.5516    4.9362 C   0  0  0  0  0  0  0  0  0  0  0  0
   28.4675  -32.1584    3.5869 C   0  0  0  0  0  0  0  0  0  0  0  0
   27.7937  -33.3128    2.9352 C   0  0  2  0  0  0  0  0  0  0  0  0
   27.2593  -32.9442    1.6253 N   0  0  0  0  0  0  0  0  0  0  0  0
   26.6379  -33.8127    3.7027 C   0  0  0  0  0  0  0  0  0  0  0  0
   26.7346  -34.8753    4.5750 O   0  0  0  0  0  0  0  0  0  0  0  0
   25.4995  -33.2511    3.5601 O   0  0  0  0  0  0  0  0  0  0  0  0
  2  1  1  0
  3  2  1  0
  3  4  1  6
  5  6  2  0
  5  3  1  0
  7  5  1  0
  8 11  1  0
  8  7  1  0
  8  9  1  1
 10  9  1  0
 11 12  2  0
 13 14  1  0
 15 14  1  0
 16 15  1  0
 17 16  1  1
 18 17  1  0
 18 11  1  0
 19 17  1  0
 20 19  1  0
 21 19  2  0
M  END
$$$$
