SCM.pdb
     RDKit          3D

 21 20  0  0  1  0  0  0  0  0999 V2000
   25.6292  -19.5601  -10.0415 O   0  0  0  0  0  0  0  0  0  0  0  0
   25.4221  -20.9419   -9.9073 C   0  0  0  0  0  0  0  0  0  0  0  0
   25.6807  -21.6483  -11.2237 C   0  0  2  0  0  0  0  0  0  0  0  0
   26.9716  -21.1764  -11.6910 N   0  0  0  0  0  0  0  0  0  0  0  0
   24.6419  -21.3408  -12.2241 C   0  0  0  0  0  0  0  0  0  0  0  0
   24.9055  -21.2278  -13.4704 O   0  0  0  0  0  0  0  0  0  0  0  0
   23.2799  -21.1501  -11.8695 N   0  0  0  0  0  0  0  0  0  0  0  0
   22.2514  -20.8281  -12.8264 C   0  0  1  0  0  0  0  0  0  0  0  0
   20.9760  -20.6043  -12.0377 C   0  0  0  0  0  0  0  0  0  0  0  0
   19.5989  -20.1700  -13.1238 S   0  0  0  0  0  0  0  0  0  0  0  0
   22.5547  -19.5948  -13.5898 C   0  0  0  0  0  0  0  0  0  0  0  0
   22.9463  -18.5782  -12.9198 O   0  0  0  0  0  0  0  0  0  0  0  0
   27.3723  -17.4452  -15.6704 C   0  0  0  0  0  0  0  0  0  0  0  0
   26.4621  -17.1895  -17.2044 S   0  0  0  0  0  0  0  0  0  0  0  0
   24.6810  -17.1671  -16.8019 C   0  0  0  0  0  0  0  0  0  0  0  0
   24.2803  -18.3982  -16.0472 C   0  0  0  0  0  0  0  0  0  0  0  0
   22.8408  -18.3346  -15.6795 C   0  0  2  0  0  0  0  0  0  0  0  0
   22.4144  -19.5535  -14.9941 N   0  0  0  0  0  0  0  0  0  0  0  0
   21.9527  -18.2130  -16.8505 C   0  0  0  0  0  0  0  0  0  0  0  0
   21.9596  -17.1055  -17.6707 O   0  0  0  0  0  0  0  0  0  0  0  0
   21.1404  -19.1604  -17.1231 O   0  0  0  0  0  0  0  0  0  0  0  0
  2  1  1  0
  3  2  1  0
  3  4  1  6
  5  6  2  0
  5  3  1  0
  7  5  1  0
  8 11  1  0
  8  7  1  0
  8  9  1  1
 10  9  1  0
 11 12  2  0
 13 14  1  0
 15 14  1  0
 16 15  1  0
 17 16  1  6
 18 17  1  0
 18 11  1  0
 19 17  1  0
 20 19  1  0
 21 19  2  0
M  END
$$$$
