SCM.pdb
     RDKit          3D

 21 20  0  0  1  0  0  0  0  0999 V2000
   19.8915  -15.4284  -15.7511 O   0  0  0  0  0  0  0  0  0  0  0  0
   20.2885  -14.4266  -16.6504 C   0  0  0  0  0  0  0  0  0  0  0  0
   19.1159  -13.5315  -17.0004 C   0  0  2  0  0  0  0  0  0  0  0  0
   18.4601  -14.1481  -18.1393 N   0  0  0  0  0  0  0  0  0  0  0  0
   19.5530  -12.1674  -17.3510 C   0  0  0  0  0  0  0  0  0  0  0  0
   20.1001  -11.8926  -18.4738 O   0  0  0  0  0  0  0  0  0  0  0  0
   19.3952  -11.0689  -16.4648 N   0  0  0  0  0  0  0  0  0  0  0  0
   19.8210   -9.7292  -16.7826 C   0  0  1  0  0  0  0  0  0  0  0  0
   18.5679   -8.8790  -16.8575 C   0  0  0  0  0  0  0  0  0  0  0  0
   17.5356   -9.0986  -15.3910 S   0  0  0  0  0  0  0  0  0  0  0  0
   20.7150   -9.1590  -15.7474 C   0  0  0  0  0  0  0  0  0  0  0  0
   20.5141   -9.5274  -14.5392 O   0  0  0  0  0  0  0  0  0  0  0  0
   26.5162  -11.4070  -15.1834 C   0  0  0  0  0  0  0  0  0  0  0  0
   26.1541   -9.6707  -15.5014 S   0  0  0  0  0  0  0  0  0  0  0  0
   24.4136   -9.3676  -15.0391 C   0  0  0  0  0  0  0  0  0  0  0  0
   24.0228   -7.9449  -15.3020 C   0  0  0  0  0  0  0  0  0  0  0  0
   22.5798   -7.7412  -15.0062 C   0  0  2  0  0  0  0  0  0  0  0  0
   21.7398   -8.2500  -16.0892 N   0  0  0  0  0  0  0  0  0  0  0  0
   22.2166   -6.3190  -14.8645 C   0  0  0  0  0  0  0  0  0  0  0  0
   21.3365   -5.6927  -15.7204 O   0  0  0  0  0  0  0  0  0  0  0  0
   22.7323   -5.6306  -13.9201 O   0  0  0  0  0  0  0  0  0  0  0  0
  2  1  1  0
  3  2  1  0
  3  4  1  6
  5  6  2  0
  5  3  1  0
  7  5  1  0
  8 11  1  0
  8  7  1  0
  8  9  1  1
 10  9  1  0
 11 12  2  0
 13 14  1  0
 15 14  1  0
 16 15  1  0
 17 16  1  6
 18 17  1  0
 18 11  1  0
 19 17  1  0
 20 19  1  0
 21 19  2  0
M  END
$$$$
