SCM.pdb
     RDKit          3D

 21 20  0  0  1  0  0  0  0  0999 V2000
   22.9050  -18.1768  -15.7003 O   0  0  0  0  0  0  0  0  0  0  0  0
   23.4960  -19.3107  -15.1214 C   0  0  0  0  0  0  0  0  0  0  0  0
   24.9363  -19.4491  -15.5741 C   0  0  2  0  0  0  0  0  0  0  0  0
   24.8919  -20.0697  -16.8857 N   0  0  0  0  0  0  0  0  0  0  0  0
   25.7235  -20.2858  -14.6495 C   0  0  0  0  0  0  0  0  0  0  0  0
   25.7270  -21.5628  -14.7182 O   0  0  0  0  0  0  0  0  0  0  0  0
   26.5300  -19.7285  -13.6218 N   0  0  0  0  0  0  0  0  0  0  0  0
   27.2605  -20.5265  -12.6697 C   0  0  1  0  0  0  0  0  0  0  0  0
   28.6710  -19.9722  -12.6265 C   0  0  0  0  0  0  0  0  0  0  0  0
   29.6910  -20.8622  -11.4299 S   0  0  0  0  0  0  0  0  0  0  0  0
   26.6835  -20.4507  -11.3069 C   0  0  0  0  0  0  0  0  0  0  0  0
   26.2760  -19.3047  -10.9113 O   0  0  0  0  0  0  0  0  0  0  0  0
   27.9504  -19.4310   -4.3552 C   0  0  0  0  0  0  0  0  0  0  0  0
   28.2054  -19.2990   -6.1341 S   0  0  0  0  0  0  0  0  0  0  0  0
   26.9960  -20.3930   -6.9561 C   0  0  0  0  0  0  0  0  0  0  0  0
   27.2782  -20.5073   -8.4234 C   0  0  0  0  0  0  0  0  0  0  0  0
   26.2793  -21.3955   -9.0751 C   0  0  2  0  0  0  0  0  0  0  0  0
   26.5923  -21.5977  -10.4888 N   0  0  0  0  0  0  0  0  0  0  0  0
   24.9136  -20.8397   -9.0523 C   0  0  0  0  0  0  0  0  0  0  0  0
   24.4319  -20.0229  -10.0525 O   0  0  0  0  0  0  0  0  0  0  0  0
   24.1402  -21.1150   -8.0737 O   0  0  0  0  0  0  0  0  0  0  0  0
  2  1  1  0
  3  2  1  0
  3  4  1  6
  5  6  2  0
  5  3  1  0
  7  5  1  0
  8 11  1  0
  8  7  1  0
  8  9  1  1
 10  9  1  0
 11 12  2  0
 13 14  1  0
 15 14  1  0
 16 15  1  0
 17 16  1  6
 18 17  1  0
 18 11  1  0
 19 17  1  0
 20 19  1  0
 21 19  2  0
M  END
$$$$
