SCM.pdb
     RDKit          3D

 21 20  0  0  1  0  0  0  0  0999 V2000
   17.8594  -10.1866  -18.2518 O   0  0  0  0  0  0  0  0  0  0  0  0
   17.8054   -9.5255  -17.0149 C   0  0  0  0  0  0  0  0  0  0  0  0
   19.1143   -9.6887  -16.2673 C   0  0  2  0  0  0  0  0  0  0  0  0
   18.9726  -10.8849  -15.4570 N   0  0  0  0  0  0  0  0  0  0  0  0
   19.4005   -8.5284  -15.4034 C   0  0  0  0  0  0  0  0  0  0  0  0
   18.5681   -8.1050  -14.5298 O   0  0  0  0  0  0  0  0  0  0  0  0
   20.6198   -7.8046  -15.4846 N   0  0  0  0  0  0  0  0  0  0  0  0
   20.8495   -6.5622  -14.7911 C   0  0  1  0  0  0  0  0  0  0  0  0
   22.2416   -6.6451  -14.1963 C   0  0  0  0  0  0  0  0  0  0  0  0
   22.6921   -5.1080  -13.3603 S   0  0  0  0  0  0  0  0  0  0  0  0
   20.7938   -5.3902  -15.6963 C   0  0  0  0  0  0  0  0  0  0  0  0
   21.1645   -5.5727  -16.9067 O   0  0  0  0  0  0  0  0  0  0  0  0
   17.8321   -0.8880  -20.4732 C   0  0  0  0  0  0  0  0  0  0  0  0
   17.9273   -2.3795  -19.4665 S   0  0  0  0  0  0  0  0  0  0  0  0
   19.1432   -2.0812  -18.1369 C   0  0  0  0  0  0  0  0  0  0  0  0
   19.2508   -3.2657  -17.2252 C   0  0  0  0  0  0  0  0  0  0  0  0
   20.3033   -3.0360  -16.2000 C   0  0  2  0  0  0  0  0  0  0  0  0
   20.3503   -4.1322  -15.2338 N   0  0  0  0  0  0  0  0  0  0  0  0
   20.0715   -1.8190  -15.4001 C   0  0  0  0  0  0  0  0  0  0  0  0
   20.1688   -0.5532  -15.9364 O   0  0  0  0  0  0  0  0  0  0  0  0
   19.7724   -1.9285  -14.1631 O   0  0  0  0  0  0  0  0  0  0  0  0
  2  1  1  0
  3  2  1  0
  3  4  1  1
  5  6  2  0
  5  3  1  0
  7  5  1  0
  8 11  1  0
  8  7  1  0
  8  9  1  6
 10  9  1  0
 11 12  2  0
 13 14  1  0
 15 14  1  0
 16 15  1  0
 17 16  1  6
 18 17  1  0
 18 11  1  0
 19 17  1  0
 20 19  1  0
 21 19  2  0
M  END
$$$$
