SCM.pdb
     RDKit          3D

 21 20  0  0  1  0  0  0  0  0999 V2000
   16.9091  -13.3453  -13.7196 O   0  0  0  0  0  0  0  0  0  0  0  0
   17.6093  -12.2588  -14.2668 C   0  0  0  0  0  0  0  0  0  0  0  0
   16.7525  -11.5329  -15.2854 C   0  0  2  0  0  0  0  0  0  0  0  0
   16.5883  -12.4458  -16.4022 N   0  0  0  0  0  0  0  0  0  0  0  0
   17.3884  -10.2850  -15.7468 C   0  0  0  0  0  0  0  0  0  0  0  0
   18.1439  -10.2436  -16.7778 O   0  0  0  0  0  0  0  0  0  0  0  0
   17.2036   -9.0465  -15.0765 N   0  0  0  0  0  0  0  0  0  0  0  0
   17.7164   -7.7945  -15.5731 C   0  0  1  0  0  0  0  0  0  0  0  0
   16.5818   -6.7926  -15.4859 C   0  0  0  0  0  0  0  0  0  0  0  0
   15.2837   -7.1630  -16.6868 S   0  0  0  0  0  0  0  0  0  0  0  0
   18.8529   -7.2892  -14.7676 C   0  0  0  0  0  0  0  0  0  0  0  0
   18.6996   -7.2638  -13.4981 O   0  0  0  0  0  0  0  0  0  0  0  0
   23.5520  -11.2315  -14.4486 C   0  0  0  0  0  0  0  0  0  0  0  0
   23.7780   -9.5155  -14.9501 S   0  0  0  0  0  0  0  0  0  0  0  0
   22.2871   -8.5855  -14.4530 C   0  0  0  0  0  0  0  0  0  0  0  0
   22.4007   -7.1389  -14.8274 C   0  0  0  0  0  0  0  0  0  0  0  0
   21.1372   -6.4214  -14.5110 C   0  0  2  0  0  0  0  0  0  0  0  0
   20.0477   -6.8568  -15.3831 N   0  0  0  0  0  0  0  0  0  0  0  0
   21.2382   -4.9635  -14.7091 C   0  0  0  0  0  0  0  0  0  0  0  0
   20.5165   -4.2980  -15.6763 O   0  0  0  0  0  0  0  0  0  0  0  0
   22.0223   -4.2820  -13.9659 O   0  0  0  0  0  0  0  0  0  0  0  0
  2  1  1  0
  3  2  1  0
  3  4  1  6
  5  6  2  0
  5  3  1  0
  7  5  1  0
  8 11  1  0
  8  7  1  0
  8  9  1  1
 10  9  1  0
 11 12  2  0
 13 14  1  0
 15 14  1  0
 16 15  1  0
 17 16  1  6
 18 17  1  0
 18 11  1  0
 19 17  1  0
 20 19  1  0
 21 19  2  0
M  END
$$$$
