SCM.pdb
     RDKit          3D

 21 20  0  0  1  0  0  0  0  0999 V2000
   24.4272  -16.8021  -16.9047 O   0  0  0  0  0  0  0  0  0  0  0  0
   24.2084  -18.0801  -16.3672 C   0  0  0  0  0  0  0  0  0  0  0  0
   25.2955  -19.0378  -16.8138 C   0  0  2  0  0  0  0  0  0  0  0  0
   24.7100  -19.8579  -17.8588 N   0  0  0  0  0  0  0  0  0  0  0  0
   25.7614  -19.8932  -15.7066 C   0  0  0  0  0  0  0  0  0  0  0  0
   25.0784  -20.8844  -15.2748 O   0  0  0  0  0  0  0  0  0  0  0  0
   26.9995  -19.6726  -15.0467 N   0  0  0  0  0  0  0  0  0  0  0  0
   27.3898  -20.3664  -13.8453 C   0  0  1  0  0  0  0  0  0  0  0  0
   28.8526  -20.0442  -13.6107 C   0  0  0  0  0  0  0  0  0  0  0  0
   29.4264  -20.7056  -12.0302 S   0  0  0  0  0  0  0  0  0  0  0  0
   26.6156  -19.9264  -12.6608 C   0  0  0  0  0  0  0  0  0  0  0  0
   26.3548  -18.6777  -12.5682 O   0  0  0  0  0  0  0  0  0  0  0  0
   21.0552  -20.4976  -11.2680 C   0  0  0  0  0  0  0  0  0  0  0  0
   21.4977  -20.4552   -9.5217 S   0  0  0  0  0  0  0  0  0  0  0  0
   23.2921  -20.1361   -9.4060 C   0  0  0  0  0  0  0  0  0  0  0  0
   24.0033  -20.5839  -10.6468 C   0  0  0  0  0  0  0  0  0  0  0  0
   25.4631  -20.3269  -10.5282 C   0  0  2  0  0  0  0  0  0  0  0  0
   26.1894  -20.8517  -11.6834 N   0  0  0  0  0  0  0  0  0  0  0  0
   26.0692  -20.9822   -9.3542 C   0  0  0  0  0  0  0  0  0  0  0  0
   26.2446  -20.3298   -8.1530 O   0  0  0  0  0  0  0  0  0  0  0  0
   26.4529  -22.1974   -9.4422 O   0  0  0  0  0  0  0  0  0  0  0  0
  2  1  1  0
  3  2  1  0
  3  4  1  6
  5  6  2  0
  5  3  1  0
  7  5  1  0
  8 11  1  0
  8  7  1  0
  8  9  1  1
 10  9  1  0
 11 12  2  0
 13 14  1  0
 15 14  1  0
 16 15  1  0
 17 16  1  6
 18 17  1  0
 18 11  1  0
 19 17  1  0
 20 19  1  0
 21 19  2  0
M  END
$$$$
