AFH.pdb
     RDKit          3D

 27 28  0  0  1  0  0  0  0  0999 V2000
   38.2039  -38.2228   -2.3703 C   0  0  0  0  0  0  0  0  0  0  0  0
   37.9059  -36.9764   -3.1517 C   0  0  2  0  0  0  0  0  0  0  0  0
   38.9440  -36.0221   -2.9195 N   0  0  0  0  0  0  0  0  0  0  0  0
   36.5476  -36.4497   -2.8962 C   0  0  0  0  0  0  0  0  0  0  0  0
   36.3850  -35.5962   -1.9864 O   0  0  0  0  0  0  0  0  0  0  0  0
   35.3900  -36.8433   -3.6153 N   0  0  0  0  0  0  0  0  0  0  0  0
   34.0842  -36.2557   -3.4038 C   0  0  1  0  0  0  0  0  0  0  0  0
   33.1637  -36.4734   -4.5818 C   0  0  0  0  0  0  0  0  0  0  0  0
   32.8543  -35.2089   -5.2860 C   0  0  0  0  0  0  0  0  0  0  0  0
   33.5670  -34.8960   -6.4194 C   0  0  0  0  0  0  0  0  0  0  0  0
   33.3118  -33.7293   -7.1059 C   0  0  0  0  0  0  0  0  0  0  0  0
   32.3427  -32.8685   -6.6635 C   0  0  0  0  0  0  0  0  0  0  0  0
   31.6174  -33.1609   -5.5323 C   0  0  0  0  0  0  0  0  0  0  0  0
   31.8771  -34.3242   -4.8542 C   0  0  0  0  0  0  0  0  0  0  0  0
   33.4734  -36.9255   -2.2366 C   0  0  0  0  0  0  0  0  0  0  0  0
   33.9360  -38.0323   -1.8687 O   0  0  0  0  0  0  0  0  0  0  0  0
   32.3924  -36.3224   -1.5581 N   0  0  0  0  0  0  0  0  0  0  0  0
   31.8725  -36.9024   -0.3027 C   0  0  1  0  0  0  0  0  0  0  0  0
   32.6069  -36.3713    0.8761 C   0  0  0  0  0  0  0  0  0  0  0  0
   33.7731  -37.2158    1.1959 C   0  0  0  0  0  0  0  0  0  0  0  0
   34.3255  -38.3141    0.6038 C   0  0  0  0  0  0  0  0  0  0  0  0
   35.4672  -38.6944    1.2520 N   0  0  0  0  0  0  0  0  0  0  0  0
   35.6077  -37.8206    2.2407 C   0  0  0  0  0  0  0  0  0  0  0  0
   34.6151  -36.9279    2.2332 N   0  0  0  0  0  0  0  0  0  0  0  0
   30.4518  -36.3766   -0.1652 C   0  0  0  0  0  0  0  0  0  0  0  0
   30.0295  -35.3347   -0.6318 O   0  0  0  0  0  0  0  0  0  0  0  0
   29.5283  -37.1547    0.5662 O   0  0  0  0  0  0  0  0  0  0  0  0
  2  1  1  1
  2  3  1  0
  4  2  1  0
  5  4  2  0
  6  4  1  0
  7  6  1  0
  7  8  1  6
  9  8  1  0
 10  9  2  0
 11 10  1  0
 12 11  2  0
 12 13  1  0
 13 14  2  0
 14  9  1  0
 15 17  1  0
 15  7  1  0
 16 15  2  0
 18 25  1  0
 18 17  1  0
 18 19  1  1
 20 21  2  0
 20 19  1  0
 22 21  1  0
 23 24  2  0
 23 22  1  0
 24 20  1  0
 25 27  1  0
 26 25  2  0
M  END
$$$$
