AFH.pdb
     RDKit          3D

 27 28  0  0  1  0  0  0  0  0999 V2000
   27.0708  -22.3875  -18.3690 C   0  0  0  0  0  0  0  0  0  0  0  0
   27.7424  -22.8002  -17.0917 C   0  0  2  0  0  0  0  0  0  0  0  0
   28.3139  -24.0986  -17.2647 N   0  0  0  0  0  0  0  0  0  0  0  0
   26.8520  -22.6957  -15.9153 C   0  0  0  0  0  0  0  0  0  0  0  0
   26.1658  -23.6948  -15.5785 O   0  0  0  0  0  0  0  0  0  0  0  0
   26.7110  -21.5285  -15.1216 N   0  0  0  0  0  0  0  0  0  0  0  0
   25.8622  -21.4604  -13.9511 C   0  0  1  0  0  0  0  0  0  0  0  0
   26.3440  -20.4299  -12.9570 C   0  0  0  0  0  0  0  0  0  0  0  0
   25.5458  -20.4448  -11.7106 C   0  0  0  0  0  0  0  0  0  0  0  0
   24.3579  -19.7529  -11.6823 C   0  0  0  0  0  0  0  0  0  0  0  0
   23.5834  -19.7399  -10.5431 C   0  0  0  0  0  0  0  0  0  0  0  0
   23.9918  -20.4184   -9.4257 C   0  0  0  0  0  0  0  0  0  0  0  0
   25.1762  -21.1172   -9.4311 C   0  0  0  0  0  0  0  0  0  0  0  0
   25.9418  -21.1254  -10.5688 C   0  0  0  0  0  0  0  0  0  0  0  0
   24.5146  -21.0482  -14.3960 C   0  0  0  0  0  0  0  0  0  0  0  0
   24.3872  -19.9493  -14.9881 O   0  0  0  0  0  0  0  0  0  0  0  0
   23.4017  -21.8822  -14.1540 N   0  0  0  0  0  0  0  0  0  0  0  0
   22.0390  -21.4466  -14.5228 C   0  0  1  0  0  0  0  0  0  0  0  0
   21.2478  -22.5771  -15.0769 C   0  0  0  0  0  0  0  0  0  0  0  0
   19.9474  -22.1089  -15.5919 C   0  0  0  0  0  0  0  0  0  0  0  0
   19.5761  -21.4114  -16.7043 C   0  0  0  0  0  0  0  0  0  0  0  0
   18.2164  -21.2886  -16.7709 N   0  0  0  0  0  0  0  0  0  0  0  0
   17.7621  -21.9167  -15.6939 C   0  0  0  0  0  0  0  0  0  0  0  0
   18.7684  -22.4159  -14.9726 N   0  0  0  0  0  0  0  0  0  0  0  0
   21.3574  -21.0787  -13.2137 C   0  0  0  0  0  0  0  0  0  0  0  0
   20.5986  -20.1421  -13.0442 O   0  0  0  0  0  0  0  0  0  0  0  0
   21.6178  -21.8856  -12.0848 O   0  0  0  0  0  0  0  0  0  0  0  0
  2  1  1  6
  2  3  1  0
  4  2  1  0
  5  4  2  0
  6  4  1  0
  7  6  1  0
  7  8  1  1
  9  8  1  0
 10  9  2  0
 11 10  1  0
 12 11  2  0
 12 13  1  0
 13 14  2  0
 14  9  1  0
 15 17  1  0
 15  7  1  0
 16 15  2  0
 18 25  1  0
 18 17  1  0
 18 19  1  1
 20 21  2  0
 20 19  1  0
 22 21  1  0
 23 24  2  0
 23 22  1  0
 24 20  1  0
 25 27  1  0
 26 25  2  0
M  END
$$$$
