AFH.pdb
     RDKit          3D

 27 28  0  0  1  0  0  0  0  0999 V2000
   27.9783  -19.9979  -13.9616 C   0  0  0  0  0  0  0  0  0  0  0  0
   28.5473  -21.0300  -13.0320 C   0  0  2  0  0  0  0  0  0  0  0  0
   28.6236  -22.2819  -13.7171 N   0  0  0  0  0  0  0  0  0  0  0  0
   27.8254  -21.1019  -11.7431 C   0  0  0  0  0  0  0  0  0  0  0  0
   26.8574  -21.8971  -11.6292 O   0  0  0  0  0  0  0  0  0  0  0  0
   28.1498  -20.3248  -10.6016 N   0  0  0  0  0  0  0  0  0  0  0  0
   27.2881  -20.2138   -9.4439 C   0  0  1  0  0  0  0  0  0  0  0  0
   27.8103  -19.2144   -8.4385 C   0  0  0  0  0  0  0  0  0  0  0  0
   27.7094  -19.7185   -7.0505 C   0  0  0  0  0  0  0  0  0  0  0  0
   28.4885  -19.1335   -6.0802 C   0  0  0  0  0  0  0  0  0  0  0  0
   28.4263  -19.5713   -4.7755 C   0  0  0  0  0  0  0  0  0  0  0  0
   27.5849  -20.5964   -4.4332 C   0  0  0  0  0  0  0  0  0  0  0  0
   26.7965  -21.1963   -5.3870 C   0  0  0  0  0  0  0  0  0  0  0  0
   26.8640  -20.7550   -6.6836 C   0  0  0  0  0  0  0  0  0  0  0  0
   25.9721  -19.7268   -9.9077 C   0  0  0  0  0  0  0  0  0  0  0  0
   25.8876  -18.5575  -10.3549 O   0  0  0  0  0  0  0  0  0  0  0  0
   24.8413  -20.5692   -9.8437 N   0  0  0  0  0  0  0  0  0  0  0  0
   23.6389  -20.2794  -10.6518 C   0  0  1  0  0  0  0  0  0  0  0  0
   23.5231  -21.2227  -11.7954 C   0  0  0  0  0  0  0  0  0  0  0  0
   22.3358  -20.9157  -12.6148 C   0  0  0  0  0  0  0  0  0  0  0  0
   21.3748  -19.9493  -12.5474 C   0  0  0  0  0  0  0  0  0  0  0  0
   20.5117  -20.0461  -13.6029 N   0  0  0  0  0  0  0  0  0  0  0  0
   20.9536  -21.0756  -14.3140 C   0  0  0  0  0  0  0  0  0  0  0  0
   22.0382  -21.6137  -13.7516 N   0  0  0  0  0  0  0  0  0  0  0  0
   22.4538  -20.5891   -9.7499 C   0  0  0  0  0  0  0  0  0  0  0  0
   22.5092  -21.1340   -8.6628 O   0  0  0  0  0  0  0  0  0  0  0  0
   21.1680  -20.2179  -10.1993 O   0  0  0  0  0  0  0  0  0  0  0  0
  2  1  1  6
  2  3  1  0
  4  2  1  0
  5  4  2  0
  6  4  1  0
  7  6  1  0
  7  8  1  1
  9  8  1  0
 10  9  2  0
 11 10  1  0
 12 11  2  0
 12 13  1  0
 13 14  2  0
 14  9  1  0
 15 17  1  0
 15  7  1  0
 16 15  2  0
 18 25  1  0
 18 17  1  0
 18 19  1  6
 20 21  2  0
 20 19  1  0
 22 21  1  0
 23 24  2  0
 23 22  1  0
 24 20  1  0
 25 27  1  0
 26 25  2  0
M  END
$$$$
