AFH.pdb
     RDKit          3D

 27 28  0  0  1  0  0  0  0  0999 V2000
   23.6246  -11.0686  -21.3108 C   0  0  0  0  0  0  0  0  0  0  0  0
   24.5004  -11.7056  -20.2715 C   0  0  2  0  0  0  0  0  0  0  0  0
   24.5739  -13.1106  -20.5223 N   0  0  0  0  0  0  0  0  0  0  0  0
   24.0899  -11.3698  -18.8908 C   0  0  0  0  0  0  0  0  0  0  0  0
   23.2490  -12.1024  -18.3088 O   0  0  0  0  0  0  0  0  0  0  0  0
   24.5838  -10.2601  -18.1582 N   0  0  0  0  0  0  0  0  0  0  0  0
   24.2349   -9.9993  -16.7778 C   0  0  1  0  0  0  0  0  0  0  0  0
   25.4552   -9.8223  -15.9052 C   0  0  0  0  0  0  0  0  0  0  0  0
   26.2320  -11.0756  -15.7756 C   0  0  0  0  0  0  0  0  0  0  0  0
   27.4423  -11.1688  -16.4214 C   0  0  0  0  0  0  0  0  0  0  0  0
   28.1980  -12.3168  -16.3279 C   0  0  0  0  0  0  0  0  0  0  0  0
   27.7482  -13.3783  -15.5885 C   0  0  0  0  0  0  0  0  0  0  0  0
   26.5407  -13.3075  -14.9341 C   0  0  0  0  0  0  0  0  0  0  0  0
   25.7941  -12.1614  -15.0319 C   0  0  0  0  0  0  0  0  0  0  0  0
   23.4758   -8.7320  -16.7376 C   0  0  0  0  0  0  0  0  0  0  0  0
   23.8461   -7.7860  -17.4740 O   0  0  0  0  0  0  0  0  0  0  0  0
   22.3592   -8.6007  -15.8840 N   0  0  0  0  0  0  0  0  0  0  0  0
   21.5743   -7.3493  -15.8566 C   0  0  1  0  0  0  0  0  0  0  0  0
   20.1424   -7.6093  -16.1616 C   0  0  0  0  0  0  0  0  0  0  0  0
   19.9532   -7.9060  -17.5939 C   0  0  0  0  0  0  0  0  0  0  0  0
   20.0047   -7.1429  -18.7239 C   0  0  0  0  0  0  0  0  0  0  0  0
   19.8290   -7.9124  -19.8398 N   0  0  0  0  0  0  0  0  0  0  0  0
   19.6718   -9.1483  -19.3830 C   0  0  0  0  0  0  0  0  0  0  0  0
   19.7412   -9.1768  -18.0501 N   0  0  0  0  0  0  0  0  0  0  0  0
   21.6014   -6.8795  -14.4102 C   0  0  0  0  0  0  0  0  0  0  0  0
   22.0515   -7.5034  -13.4668 O   0  0  0  0  0  0  0  0  0  0  0  0
   21.0599   -5.6087  -14.1190 O   0  0  0  0  0  0  0  0  0  0  0  0
  2  1  1  6
  2  3  1  0
  4  2  1  0
  5  4  2  0
  6  4  1  0
  7  6  1  0
  7  8  1  1
  9  8  1  0
 10  9  2  0
 11 10  1  0
 12 11  2  0
 12 13  1  0
 13 14  2  0
 14  9  1  0
 15 17  1  0
 15  7  1  0
 16 15  2  0
 18 25  1  0
 18 17  1  0
 18 19  1  1
 20 21  2  0
 20 19  1  0
 22 21  1  0
 23 24  2  0
 23 22  1  0
 24 20  1  0
 25 27  1  0
 26 25  2  0
M  END
$$$$
