AFH.pdb
     RDKit          3D

 27 28  0  0  1  0  0  0  0  0999 V2000
   11.6450  -15.8296    5.6408 C   0  0  0  0  0  0  0  0  0  0  0  0
   12.4719  -15.5622    4.4171 C   0  0  2  0  0  0  0  0  0  0  0  0
   11.6670  -15.7757    3.2556 N   0  0  0  0  0  0  0  0  0  0  0  0
   13.7424  -16.3194    4.4061 C   0  0  0  0  0  0  0  0  0  0  0  0
   13.8938  -17.2454    3.5682 O   0  0  0  0  0  0  0  0  0  0  0  0
   14.8258  -16.0744    5.2884 N   0  0  0  0  0  0  0  0  0  0  0  0
   16.0324  -16.8738    5.3074 C   0  0  1  0  0  0  0  0  0  0  0  0
   17.2360  -16.0783    5.7555 C   0  0  0  0  0  0  0  0  0  0  0  0
   17.7592  -15.2084    4.6784 C   0  0  0  0  0  0  0  0  0  0  0  0
   17.7752  -13.8485    4.8809 C   0  0  0  0  0  0  0  0  0  0  0  0
   18.2536  -13.0019    3.9051 C   0  0  0  0  0  0  0  0  0  0  0  0
   18.7186  -13.5098    2.7212 C   0  0  0  0  0  0  0  0  0  0  0  0
   18.7121  -14.8665    2.4967 C   0  0  0  0  0  0  0  0  0  0  0  0
   18.2344  -15.7029    3.4728 C   0  0  0  0  0  0  0  0  0  0  0  0
   15.8344  -17.9637    6.2857 C   0  0  0  0  0  0  0  0  0  0  0  0
   15.0431  -17.7770    7.2414 O   0  0  0  0  0  0  0  0  0  0  0  0
   16.5270  -19.1847    6.1372 N   0  0  0  0  0  0  0  0  0  0  0  0
   16.3267  -20.2869    7.1005 C   0  0  1  0  0  0  0  0  0  0  0  0
   15.5650  -21.4048    6.4831 C   0  0  0  0  0  0  0  0  0  0  0  0
   14.1371  -21.3343    6.8459 C   0  0  0  0  0  0  0  0  0  0  0  0
   13.4090  -20.4833    7.6253 C   0  0  0  0  0  0  0  0  0  0  0  0
   12.0804  -20.8017    7.5845 N   0  0  0  0  0  0  0  0  0  0  0  0
   12.0035  -21.8500    6.7746 C   0  0  0  0  0  0  0  0  0  0  0  0
   13.2113  -22.1903    6.3187 N   0  0  0  0  0  0  0  0  0  0  0  0
   17.7136  -20.8465    7.3779 C   0  0  0  0  0  0  0  0  0  0  0  0
   18.2053  -21.0191    8.4780 O   0  0  0  0  0  0  0  0  0  0  0  0
   18.5149  -21.2024    6.2713 O   0  0  0  0  0  0  0  0  0  0  0  0
  2  1  1  1
  2  3  1  0
  4  2  1  0
  5  4  2  0
  6  4  1  0
  7  6  1  0
  7  8  1  1
  9  8  1  0
 10  9  2  0
 11 10  1  0
 12 11  2  0
 12 13  1  0
 13 14  2  0
 14  9  1  0
 15 17  1  0
 15  7  1  0
 16 15  2  0
 18 25  1  0
 18 17  1  0
 18 19  1  6
 20 21  2  0
 20 19  1  0
 22 21  1  0
 23 24  2  0
 23 22  1  0
 24 20  1  0
 25 27  1  0
 26 25  2  0
M  END
$$$$
