AFH.pdb
     RDKit          3D

 27 28  0  0  1  0  0  0  0  0999 V2000
   40.2459   -4.4855   -3.7958 C   0  0  0  0  0  0  0  0  0  0  0  0
   40.2395   -2.9878   -3.6978 C   0  0  2  0  0  0  0  0  0  0  0  0
   41.3673   -2.5668   -2.9276 N   0  0  0  0  0  0  0  0  0  0  0  0
   38.9518   -2.4502   -3.2073 C   0  0  0  0  0  0  0  0  0  0  0  0
   37.8966   -2.7268   -3.8338 O   0  0  0  0  0  0  0  0  0  0  0  0
   38.8148   -1.6288   -2.0590 N   0  0  0  0  0  0  0  0  0  0  0  0
   37.5518   -1.0678   -1.6285 C   0  0  1  0  0  0  0  0  0  0  0  0
   37.5630   -0.6961   -0.1642 C   0  0  0  0  0  0  0  0  0  0  0  0
   37.5910   -1.8891    0.7115 C   0  0  0  0  0  0  0  0  0  0  0  0
   38.1499   -1.7735    1.9624 C   0  0  0  0  0  0  0  0  0  0  0  0
   38.1969   -2.8584    2.8100 C   0  0  0  0  0  0  0  0  0  0  0  0
   37.6856   -4.0651    2.4121 C   0  0  0  0  0  0  0  0  0  0  0  0
   37.1218   -4.2039    1.1654 C   0  0  0  0  0  0  0  0  0  0  0  0
   37.0786   -3.1194    0.3273 C   0  0  0  0  0  0  0  0  0  0  0  0
   37.3258    0.1739   -2.3974 C   0  0  0  0  0  0  0  0  0  0  0  0
   38.3060    0.9201   -2.6356 O   0  0  0  0  0  0  0  0  0  0  0  0
   36.0293    0.5025   -2.8490 N   0  0  0  0  0  0  0  0  0  0  0  0
   35.7878    1.7487   -3.6048 C   0  0  1  0  0  0  0  0  0  0  0  0
   36.3609    1.6631   -4.9743 C   0  0  0  0  0  0  0  0  0  0  0  0
   36.1559    2.9237   -5.7120 C   0  0  0  0  0  0  0  0  0  0  0  0
   36.6542    4.1858   -5.5677 C   0  0  0  0  0  0  0  0  0  0  0  0
   36.2079    5.0029   -6.5684 N   0  0  0  0  0  0  0  0  0  0  0  0
   35.4366    4.2310   -7.3235 C   0  0  0  0  0  0  0  0  0  0  0  0
   35.3863    2.9878   -6.8396 N   0  0  0  0  0  0  0  0  0  0  0  0
   34.2813    1.8246   -3.8004 C   0  0  0  0  0  0  0  0  0  0  0  0
   33.4846    0.9395   -3.5479 O   0  0  0  0  0  0  0  0  0  0  0  0
   33.7430    3.0217   -4.3204 O   0  0  0  0  0  0  0  0  0  0  0  0
  2  1  1  1
  2  3  1  0
  4  2  1  0
  5  4  2  0
  6  4  1  0
  7  6  1  0
  7  8  1  1
  9  8  1  0
 10  9  2  0
 11 10  1  0
 12 11  2  0
 12 13  1  0
 13 14  2  0
 14  9  1  0
 15 17  1  0
 15  7  1  0
 16 15  2  0
 18 25  1  0
 18 17  1  0
 18 19  1  6
 20 21  2  0
 20 19  1  0
 22 21  1  0
 23 24  2  0
 23 22  1  0
 24 20  1  0
 25 27  1  0
 26 25  2  0
M  END
$$$$
