AFH.pdb
     RDKit          3D

 27 28  0  0  1  0  0  0  0  0999 V2000
   27.0754  -21.4879  -18.2820 C   0  0  0  0  0  0  0  0  0  0  0  0
   27.8317  -22.0869  -17.1321 C   0  0  2  0  0  0  0  0  0  0  0  0
   28.2739  -23.3959  -17.4972 N   0  0  0  0  0  0  0  0  0  0  0  0
   27.0720  -22.0494  -15.8637 C   0  0  0  0  0  0  0  0  0  0  0  0
   26.1088  -22.8430  -15.7053 O   0  0  0  0  0  0  0  0  0  0  0  0
   27.3540  -21.1670  -14.7895 N   0  0  0  0  0  0  0  0  0  0  0  0
   26.6438  -21.1963  -13.5285 C   0  0  1  0  0  0  0  0  0  0  0  0
   27.4288  -20.5402  -12.4170 C   0  0  0  0  0  0  0  0  0  0  0  0
   26.7086  -20.5888  -11.1248 C   0  0  0  0  0  0  0  0  0  0  0  0
   26.2128  -19.4168  -10.6039 C   0  0  0  0  0  0  0  0  0  0  0  0
   25.5361  -19.4163   -9.4039 C   0  0  0  0  0  0  0  0  0  0  0  0
   25.3510  -20.5871   -8.7178 C   0  0  0  0  0  0  0  0  0  0  0  0
   25.8382  -21.7711   -9.2197 C   0  0  0  0  0  0  0  0  0  0  0  0
   26.5107  -21.7638  -10.4148 C   0  0  0  0  0  0  0  0  0  0  0  0
   25.3931  -20.4277  -13.6989 C   0  0  0  0  0  0  0  0  0  0  0  0
   25.4644  -19.2521  -14.1316 O   0  0  0  0  0  0  0  0  0  0  0  0
   24.1503  -21.0150  -13.3778 N   0  0  0  0  0  0  0  0  0  0  0  0
   22.8972  -20.2420  -13.5003 C   0  0  1  0  0  0  0  0  0  0  0  0
   22.0500  -20.7680  -14.6032 C   0  0  0  0  0  0  0  0  0  0  0  0
   22.5749  -20.3510  -15.9170 C   0  0  0  0  0  0  0  0  0  0  0  0
   22.8025  -19.1348  -16.4923 C   0  0  0  0  0  0  0  0  0  0  0  0
   23.3796  -19.2784  -17.7229 N   0  0  0  0  0  0  0  0  0  0  0  0
   23.5037  -20.5886  -17.8929 C   0  0  0  0  0  0  0  0  0  0  0  0
   23.0339  -21.2536  -16.8349 N   0  0  0  0  0  0  0  0  0  0  0  0
   22.1178  -20.5188  -12.2237 C   0  0  0  0  0  0  0  0  0  0  0  0
   22.4007  -21.3523  -11.3829 O   0  0  0  0  0  0  0  0  0  0  0  0
   20.9604  -19.7489  -11.9773 O   0  0  0  0  0  0  0  0  0  0  0  0
  2  1  1  6
  2  3  1  0
  4  2  1  0
  5  4  2  0
  6  4  1  0
  7  6  1  0
  7  8  1  1
  9  8  1  0
 10  9  2  0
 11 10  1  0
 12 11  2  0
 12 13  1  0
 13 14  2  0
 14  9  1  0
 15 17  1  0
 15  7  1  0
 16 15  2  0
 18 25  1  0
 18 17  1  0
 18 19  1  6
 20 21  2  0
 20 19  1  0
 22 21  1  0
 23 24  2  0
 23 22  1  0
 24 20  1  0
 25 27  1  0
 26 25  2  0
M  END
$$$$
