AFH.pdb
     RDKit          3D

 27 28  0  0  1  0  0  0  0  0999 V2000
   22.1989  -11.0262  -20.4167 C   0  0  0  0  0  0  0  0  0  0  0  0
   23.3464  -10.5553  -19.5715 C   0  0  2  0  0  0  0  0  0  0  0  0
   24.2235  -11.6557  -19.3224 N   0  0  0  0  0  0  0  0  0  0  0  0
   22.9065   -9.8573  -18.3439 C   0  0  0  0  0  0  0  0  0  0  0  0
   22.2206  -10.4857  -17.4970 O   0  0  0  0  0  0  0  0  0  0  0  0
   23.2064   -8.5038  -18.0437 N   0  0  0  0  0  0  0  0  0  0  0  0
   22.7933   -7.8501  -16.8201 C   0  0  1  0  0  0  0  0  0  0  0  0
   23.9538   -7.2068  -16.0978 C   0  0  0  0  0  0  0  0  0  0  0  0
   24.9703   -8.2002  -15.6847 C   0  0  0  0  0  0  0  0  0  0  0  0
   24.6922   -9.0203  -14.6167 C   0  0  0  0  0  0  0  0  0  0  0  0
   25.6099   -9.9588  -14.1984 C   0  0  0  0  0  0  0  0  0  0  0  0
   26.8107  -10.0830  -14.8453 C   0  0  0  0  0  0  0  0  0  0  0  0
   27.1103   -9.2734  -15.9159 C   0  0  0  0  0  0  0  0  0  0  0  0
   26.1918   -8.3415  -16.3264 C   0  0  0  0  0  0  0  0  0  0  0  0
   21.8475   -6.7739  -17.1823 C   0  0  0  0  0  0  0  0  0  0  0  0
   22.1740   -5.9655  -18.0848 O   0  0  0  0  0  0  0  0  0  0  0  0
   20.6057   -6.6680  -16.5195 N   0  0  0  0  0  0  0  0  0  0  0  0
   19.6580   -5.5877  -16.8624 C   0  0  1  0  0  0  0  0  0  0  0  0
   18.2547   -6.0788  -16.8350 C   0  0  0  0  0  0  0  0  0  0  0  0
   17.3063   -4.9822  -17.1056 C   0  0  0  0  0  0  0  0  0  0  0  0
   16.2173   -4.8642  -17.9194 C   0  0  0  0  0  0  0  0  0  0  0  0
   15.6162   -3.6476  -17.7554 N   0  0  0  0  0  0  0  0  0  0  0  0
   16.3442   -3.0264  -16.8362 C   0  0  0  0  0  0  0  0  0  0  0  0
   17.3571   -3.7953  -16.4298 N   0  0  0  0  0  0  0  0  0  0  0  0
   19.7564   -4.5798  -15.7275 C   0  0  0  0  0  0  0  0  0  0  0  0
   19.6730   -4.8338  -14.5399 O   0  0  0  0  0  0  0  0  0  0  0  0
   19.9628   -3.2246  -16.0647 O   0  0  0  0  0  0  0  0  0  0  0  0
  2  1  1  1
  2  3  1  0
  4  2  1  0
  5  4  2  0
  6  4  1  0
  7  6  1  0
  7  8  1  6
  9  8  1  0
 10  9  2  0
 11 10  1  0
 12 11  2  0
 12 13  1  0
 13 14  2  0
 14  9  1  0
 15 17  1  0
 15  7  1  0
 16 15  2  0
 18 25  1  0
 18 17  1  0
 18 19  1  1
 20 21  2  0
 20 19  1  0
 22 21  1  0
 23 24  2  0
 23 22  1  0
 24 20  1  0
 25 27  1  0
 26 25  2  0
M  END
$$$$
