AFH.pdb
     RDKit          3D

 27 28  0  0  1  0  0  0  0  0999 V2000
   28.9544  -22.2280  -14.3398 C   0  0  0  0  0  0  0  0  0  0  0  0
   28.2642  -21.0960  -13.6363 C   0  0  2  0  0  0  0  0  0  0  0  0
   28.9955  -19.8899  -13.8662 N   0  0  0  0  0  0  0  0  0  0  0  0
   28.0157  -21.3757  -12.2054 C   0  0  0  0  0  0  0  0  0  0  0  0
   27.2826  -22.3488  -11.8920 O   0  0  0  0  0  0  0  0  0  0  0  0
   28.5536  -20.6129  -11.1373 N   0  0  0  0  0  0  0  0  0  0  0  0
   28.1600  -20.7906   -9.7557 C   0  0  1  0  0  0  0  0  0  0  0  0
   29.0525  -20.0265   -8.8060 C   0  0  0  0  0  0  0  0  0  0  0  0
   28.5783  -20.1138   -7.4066 C   0  0  0  0  0  0  0  0  0  0  0  0
   27.7386  -19.1326   -6.9346 C   0  0  0  0  0  0  0  0  0  0  0  0
   27.2733  -19.1746   -5.6386 C   0  0  0  0  0  0  0  0  0  0  0  0
   27.6448  -20.1976   -4.8070 C   0  0  0  0  0  0  0  0  0  0  0  0
   28.4838  -21.1897   -5.2577 C   0  0  0  0  0  0  0  0  0  0  0  0
   28.9428  -21.1411   -6.5490 C   0  0  0  0  0  0  0  0  0  0  0  0
   26.7919  -20.2526   -9.6051 C   0  0  0  0  0  0  0  0  0  0  0  0
   26.5877  -19.0449   -9.8773 O   0  0  0  0  0  0  0  0  0  0  0  0
   25.7450  -21.0901   -9.1631 N   0  0  0  0  0  0  0  0  0  0  0  0
   24.3460  -20.6153   -9.1700 C   0  0  1  0  0  0  0  0  0  0  0  0
   23.5311  -21.3668  -10.1611 C   0  0  0  0  0  0  0  0  0  0  0  0
   23.5734  -20.7140  -11.4829 C   0  0  0  0  0  0  0  0  0  0  0  0
   24.2053  -19.6024  -11.9595 C   0  0  0  0  0  0  0  0  0  0  0  0
   23.9852  -19.4542  -13.3003 N   0  0  0  0  0  0  0  0  0  0  0  0
   23.2172  -20.4825  -13.6377 C   0  0  0  0  0  0  0  0  0  0  0  0
   22.9553  -21.2505  -12.5775 N   0  0  0  0  0  0  0  0  0  0  0  0
   23.7781  -20.9919   -7.8101 C   0  0  0  0  0  0  0  0  0  0  0  0
   24.3421  -21.6595   -6.9626 O   0  0  0  0  0  0  0  0  0  0  0  0
   22.4824  -20.5343   -7.4865 O   0  0  0  0  0  0  0  0  0  0  0  0
  2  1  1  1
  2  3  1  0
  4  2  1  0
  5  4  2  0
  6  4  1  0
  7  6  1  0
  7  8  1  1
  9  8  1  0
 10  9  2  0
 11 10  1  0
 12 11  2  0
 12 13  1  0
 13 14  2  0
 14  9  1  0
 15 17  1  0
 15  7  1  0
 16 15  2  0
 18 25  1  0
 18 17  1  0
 18 19  1  6
 20 21  2  0
 20 19  1  0
 22 21  1  0
 23 24  2  0
 23 22  1  0
 24 20  1  0
 25 27  1  0
 26 25  2  0
M  END
$$$$
