AFH.pdb
     RDKit          3D

 27 28  0  0  1  0  0  0  0  0999 V2000
   16.0334   -6.0456  -15.5111 C   0  0  0  0  0  0  0  0  0  0  0  0
   17.1394   -5.3281  -14.7935 C   0  0  2  0  0  0  0  0  0  0  0  0
   16.8452   -3.9299  -14.7642 N   0  0  0  0  0  0  0  0  0  0  0  0
   18.4770   -5.6417  -15.3411 C   0  0  0  0  0  0  0  0  0  0  0  0
   18.8064   -5.1655  -16.4580 O   0  0  0  0  0  0  0  0  0  0  0  0
   19.4367   -6.4565  -14.6875 N   0  0  0  0  0  0  0  0  0  0  0  0
   20.7801   -6.6598  -15.1870 C   0  0  1  0  0  0  0  0  0  0  0  0
   21.8295   -6.1865  -14.2087 C   0  0  0  0  0  0  0  0  0  0  0  0
   22.0778   -4.7317  -14.3211 C   0  0  0  0  0  0  0  0  0  0  0  0
   21.3942   -3.8814  -13.4843 C   0  0  0  0  0  0  0  0  0  0  0  0
   21.5947   -2.5203  -13.5548 C   0  0  0  0  0  0  0  0  0  0  0  0
   22.4796   -2.0013  -14.4622 C   0  0  0  0  0  0  0  0  0  0  0  0
   23.1744   -2.8328  -15.3092 C   0  0  0  0  0  0  0  0  0  0  0  0
   22.9695   -4.1865  -15.2330 C   0  0  0  0  0  0  0  0  0  0  0  0
   20.9750   -8.1125  -15.3750 C   0  0  0  0  0  0  0  0  0  0  0  0
   20.7543   -8.8789  -14.4063 O   0  0  0  0  0  0  0  0  0  0  0  0
   21.4010   -8.6154  -16.6233 N   0  0  0  0  0  0  0  0  0  0  0  0
   21.4738  -10.0712  -16.8644 C   0  0  1  0  0  0  0  0  0  0  0  0
   20.2236  -10.5721  -17.4945 C   0  0  0  0  0  0  0  0  0  0  0  0
   19.1077  -10.5673  -16.5300 C   0  0  0  0  0  0  0  0  0  0  0  0
   17.9878   -9.7993  -16.3962 C   0  0  0  0  0  0  0  0  0  0  0  0
   17.2104  -10.2473  -15.3651 N   0  0  0  0  0  0  0  0  0  0  0  0
   17.8623  -11.2931  -14.8731 C   0  0  0  0  0  0  0  0  0  0  0  0
   18.9952  -11.5087  -15.5457 N   0  0  0  0  0  0  0  0  0  0  0  0
   22.5593  -10.2597  -17.9131 C   0  0  0  0  0  0  0  0  0  0  0  0
   22.8658   -9.4553  -18.7738 O   0  0  0  0  0  0  0  0  0  0  0  0
   23.2855  -11.4703  -17.9007 O   0  0  0  0  0  0  0  0  0  0  0  0
  2  1  1  6
  2  3  1  0
  4  2  1  0
  5  4  2  0
  6  4  1  0
  7  6  1  0
  7  8  1  1
  9  8  1  0
 10  9  2  0
 11 10  1  0
 12 11  2  0
 12 13  1  0
 13 14  2  0
 14  9  1  0
 15 17  1  0
 15  7  1  0
 16 15  2  0
 18 25  1  0
 18 17  1  0
 18 19  1  6
 20 21  2  0
 20 19  1  0
 22 21  1  0
 23 24  2  0
 23 22  1  0
 24 20  1  0
 25 27  1  0
 26 25  2  0
M  END
$$$$
