AFH.pdb
     RDKit          3D

 27 28  0  0  1  0  0  0  0  0999 V2000
   26.7683  -19.8628  -13.6264 C   0  0  0  0  0  0  0  0  0  0  0  0
   27.7171  -20.8620  -13.0313 C   0  0  2  0  0  0  0  0  0  0  0  0
   27.6987  -22.0509  -13.8242 N   0  0  0  0  0  0  0  0  0  0  0  0
   27.4688  -21.1037  -11.5935 C   0  0  0  0  0  0  0  0  0  0  0  0
   26.7186  -22.0552  -11.2551 O   0  0  0  0  0  0  0  0  0  0  0  0
   28.0249  -20.3266  -10.5452 N   0  0  0  0  0  0  0  0  0  0  0  0
   27.7065  -20.5314   -9.1481 C   0  0  1  0  0  0  0  0  0  0  0  0
   28.5888  -19.7113   -8.2363 C   0  0  0  0  0  0  0  0  0  0  0  0
   28.2888  -19.9540   -6.8074 C   0  0  0  0  0  0  0  0  0  0  0  0
   27.5943  -18.9945   -6.1091 C   0  0  0  0  0  0  0  0  0  0  0  0
   27.2937  -19.1793   -4.7775 C   0  0  0  0  0  0  0  0  0  0  0  0
   27.6856  -20.3243   -4.1362 C   0  0  0  0  0  0  0  0  0  0  0  0
   28.3812  -21.2975   -4.8146 C   0  0  0  0  0  0  0  0  0  0  0  0
   28.6767  -21.1063   -6.1400 C   0  0  0  0  0  0  0  0  0  0  0  0
   26.3142  -20.0847   -8.9340 C   0  0  0  0  0  0  0  0  0  0  0  0
   25.9834  -18.9396   -9.3260 O   0  0  0  0  0  0  0  0  0  0  0  0
   25.3850  -20.9378   -8.3003 N   0  0  0  0  0  0  0  0  0  0  0  0
   23.9614  -20.5568   -8.1957 C   0  0  1  0  0  0  0  0  0  0  0  0
   23.1124  -21.4183   -9.0606 C   0  0  0  0  0  0  0  0  0  0  0  0
   22.9374  -20.8166  -10.3957 C   0  0  0  0  0  0  0  0  0  0  0  0
   23.3944  -19.6679  -10.9733 C   0  0  0  0  0  0  0  0  0  0  0  0
   23.0093  -19.5946  -12.2827 N   0  0  0  0  0  0  0  0  0  0  0  0
   22.3169  -20.7056  -12.4995 C   0  0  0  0  0  0  0  0  0  0  0  0
   22.2569  -21.4535  -11.3953 N   0  0  0  0  0  0  0  0  0  0  0  0
   23.5520  -20.8872   -6.7685 C   0  0  0  0  0  0  0  0  0  0  0  0
   22.4906  -20.5987   -6.2470 O   0  0  0  0  0  0  0  0  0  0  0  0
   24.4741  -21.5909   -5.9637 O   0  0  0  0  0  0  0  0  0  0  0  0
  2  1  1  6
  2  3  1  0
  4  2  1  0
  5  4  2  0
  6  4  1  0
  7  6  1  0
  7  8  1  1
  9  8  1  0
 10  9  2  0
 11 10  1  0
 12 11  2  0
 12 13  1  0
 13 14  2  0
 14  9  1  0
 15 17  1  0
 15  7  1  0
 16 15  2  0
 18 25  1  0
 18 17  1  0
 18 19  1  6
 20 21  2  0
 20 19  1  0
 22 21  1  0
 23 24  2  0
 23 22  1  0
 24 20  1  0
 25 27  1  0
 26 25  2  0
M  END
$$$$
