AFH.pdb
     RDKit          3D

 27 28  0  0  1  0  0  0  0  0999 V2000
   27.8213  -20.0591  -17.9109 C   0  0  0  0  0  0  0  0  0  0  0  0
   28.3817  -21.1311  -17.0223 C   0  0  2  0  0  0  0  0  0  0  0  0
   28.6087  -22.3086  -17.7997 N   0  0  0  0  0  0  0  0  0  0  0  0
   27.5580  -21.3658  -15.8164 C   0  0  0  0  0  0  0  0  0  0  0  0
   26.6002  -22.1788  -15.8802 O   0  0  0  0  0  0  0  0  0  0  0  0
   27.7717  -20.7292  -14.5670 N   0  0  0  0  0  0  0  0  0  0  0  0
   26.9024  -20.9091  -13.4236 C   0  0  1  0  0  0  0  0  0  0  0  0
   27.5172  -20.3759  -12.1508 C   0  0  0  0  0  0  0  0  0  0  0  0
   26.6142  -20.5347  -10.9889 C   0  0  0  0  0  0  0  0  0  0  0  0
   26.8141  -19.7369   -9.8870 C   0  0  0  0  0  0  0  0  0  0  0  0
   25.9971  -19.8513   -8.7836 C   0  0  0  0  0  0  0  0  0  0  0  0
   24.9757  -20.7636   -8.7754 C   0  0  0  0  0  0  0  0  0  0  0  0
   24.7571  -21.5720   -9.8664 C   0  0  0  0  0  0  0  0  0  0  0  0
   25.5745  -21.4523  -10.9609 C   0  0  0  0  0  0  0  0  0  0  0  0
   25.6661  -20.1388  -13.6730 C   0  0  0  0  0  0  0  0  0  0  0  0
   25.7568  -18.9019  -13.8637 O   0  0  0  0  0  0  0  0  0  0  0  0
   24.4151  -20.7924  -13.6938 N   0  0  0  0  0  0  0  0  0  0  0  0
   23.1753  -20.0385  -13.9716 C   0  0  1  0  0  0  0  0  0  0  0  0
   22.5633  -20.4703  -15.2561 C   0  0  0  0  0  0  0  0  0  0  0  0
   21.3738  -19.6580  -15.5736 C   0  0  0  0  0  0  0  0  0  0  0  0
   21.2043  -18.3895  -16.0469 C   0  0  0  0  0  0  0  0  0  0  0  0
   19.8799  -18.1179  -16.2487 N   0  0  0  0  0  0  0  0  0  0  0  0
   19.2445  -19.2286  -15.8973 C   0  0  0  0  0  0  0  0  0  0  0  0
   20.1067  -20.1635  -15.4914 N   0  0  0  0  0  0  0  0  0  0  0  0
   22.1893  -20.4582  -12.8921 C   0  0  0  0  0  0  0  0  0  0  0  0
   22.0455  -21.5864  -12.4582 O   0  0  0  0  0  0  0  0  0  0  0  0
   21.3593  -19.4621  -12.3334 O   0  0  0  0  0  0  0  0  0  0  0  0
  2  1  1  6
  2  3  1  0
  4  2  1  0
  5  4  2  0
  6  4  1  0
  7  6  1  0
  7  8  1  1
  9  8  1  0
 10  9  2  0
 11 10  1  0
 12 11  2  0
 12 13  1  0
 13 14  2  0
 14  9  1  0
 15 17  1  0
 15  7  1  0
 16 15  2  0
 18 25  1  0
 18 17  1  0
 18 19  1  6
 20 21  2  0
 20 19  1  0
 22 21  1  0
 23 24  2  0
 23 22  1  0
 24 20  1  0
 25 27  1  0
 26 25  2  0
M  END
$$$$
