AFH.pdb
     RDKit          3D

 27 28  0  0  1  0  0  0  0  0999 V2000
   23.1319  -17.7973  -19.5345 C   0  0  0  0  0  0  0  0  0  0  0  0
   23.7710  -17.3963  -18.2370 C   0  0  2  0  0  0  0  0  0  0  0  0
   25.0637  -16.8488  -18.5044 N   0  0  0  0  0  0  0  0  0  0  0  0
   23.7841  -18.4900  -17.2414 C   0  0  0  0  0  0  0  0  0  0  0  0
   23.7601  -19.6817  -17.6435 O   0  0  0  0  0  0  0  0  0  0  0  0
   23.8226  -18.2916  -15.8374 N   0  0  0  0  0  0  0  0  0  0  0  0
   23.8872  -19.3772  -14.8821 C   0  0  1  0  0  0  0  0  0  0  0  0
   24.9382  -19.1422  -13.8226 C   0  0  0  0  0  0  0  0  0  0  0  0
   26.3050  -19.1241  -14.3905 C   0  0  0  0  0  0  0  0  0  0  0  0
   26.9524  -20.3215  -14.5843 C   0  0  0  0  0  0  0  0  0  0  0  0
   28.2253  -20.3509  -15.1102 C   0  0  0  0  0  0  0  0  0  0  0  0
   28.8583  -19.1836  -15.4454 C   0  0  0  0  0  0  0  0  0  0  0  0
   28.2301  -17.9744  -15.2603 C   0  0  0  0  0  0  0  0  0  0  0  0
   26.9630  -17.9531  -14.7363 C   0  0  0  0  0  0  0  0  0  0  0  0
   22.5796  -19.4525  -14.1977 C   0  0  0  0  0  0  0  0  0  0  0  0
   22.2574  -18.5273  -13.4138 O   0  0  0  0  0  0  0  0  0  0  0  0
   21.7197  -20.5478  -14.4294 N   0  0  0  0  0  0  0  0  0  0  0  0
   20.2529  -20.3763  -14.3882 C   0  0  1  0  0  0  0  0  0  0  0  0
   19.7929  -19.4474  -15.4544 C   0  0  0  0  0  0  0  0  0  0  0  0
   18.3206  -19.3665  -15.4849 C   0  0  0  0  0  0  0  0  0  0  0  0
   17.3754  -19.1218  -14.5316 C   0  0  0  0  0  0  0  0  0  0  0  0
   16.1261  -19.0777  -15.0845 N   0  0  0  0  0  0  0  0  0  0  0  0
   16.3162  -19.2951  -16.3797 C   0  0  0  0  0  0  0  0  0  0  0  0
   17.6120  -19.4703  -16.6489 N   0  0  0  0  0  0  0  0  0  0  0  0
   19.6707  -21.7330  -14.7544 C   0  0  0  0  0  0  0  0  0  0  0  0
   20.1646  -22.5357  -15.5248 O   0  0  0  0  0  0  0  0  0  0  0  0
   18.4488  -22.1099  -14.1561 O   0  0  0  0  0  0  0  0  0  0  0  0
  2  1  1  6
  2  3  1  0
  4  2  1  0
  5  4  2  0
  6  4  1  0
  7  6  1  0
  7  8  1  1
  9  8  1  0
 10  9  2  0
 11 10  1  0
 12 11  2  0
 12 13  1  0
 13 14  2  0
 14  9  1  0
 15 17  1  0
 15  7  1  0
 16 15  2  0
 18 25  1  0
 18 17  1  0
 18 19  1  6
 20 21  2  0
 20 19  1  0
 22 21  1  0
 23 24  2  0
 23 22  1  0
 24 20  1  0
 25 27  1  0
 26 25  2  0
M  END
$$$$
