AFH.pdb
     RDKit          3D

 27 28  0  0  1  0  0  0  0  0999 V2000
   28.6174  -23.1275  -17.2083 C   0  0  0  0  0  0  0  0  0  0  0  0
   27.7381  -21.9530  -16.8917 C   0  0  2  0  0  0  0  0  0  0  0  0
   28.4396  -20.7482  -17.2062 N   0  0  0  0  0  0  0  0  0  0  0  0
   27.2083  -21.9881  -15.5113 C   0  0  0  0  0  0  0  0  0  0  0  0
   26.5579  -22.9961  -15.1326 O   0  0  0  0  0  0  0  0  0  0  0  0
   27.3822  -20.9483  -14.5623 N   0  0  0  0  0  0  0  0  0  0  0  0
   26.8184  -20.9851  -13.2297 C   0  0  1  0  0  0  0  0  0  0  0  0
   27.5658  -20.0896  -12.2697 C   0  0  0  0  0  0  0  0  0  0  0  0
   27.0106  -20.1581  -10.8993 C   0  0  0  0  0  0  0  0  0  0  0  0
   26.1782  -19.1489  -10.4759 C   0  0  0  0  0  0  0  0  0  0  0  0
   25.6393  -19.1727   -9.2084 C   0  0  0  0  0  0  0  0  0  0  0  0
   25.9291  -20.2055   -8.3568 C   0  0  0  0  0  0  0  0  0  0  0  0
   26.7591  -21.2256   -8.7589 C   0  0  0  0  0  0  0  0  0  0  0  0
   27.2918  -21.1950  -10.0221 C   0  0  0  0  0  0  0  0  0  0  0  0
   25.4315  -20.4817  -13.3141 C   0  0  0  0  0  0  0  0  0  0  0  0
   25.2299  -19.3612  -13.8415 O   0  0  0  0  0  0  0  0  0  0  0  0
   24.3642  -21.2548  -12.8082 N   0  0  0  0  0  0  0  0  0  0  0  0
   22.9736  -20.7619  -12.8853 C   0  0  1  0  0  0  0  0  0  0  0  0
   22.0998  -21.7350  -13.5927 C   0  0  0  0  0  0  0  0  0  0  0  0
   22.1056  -21.4897  -15.0471 C   0  0  0  0  0  0  0  0  0  0  0  0
   22.7060  -20.5531  -15.8372 C   0  0  0  0  0  0  0  0  0  0  0  0
   22.4596  -20.8004  -17.1587 N   0  0  0  0  0  0  0  0  0  0  0  0
   21.7074  -21.8935  -17.1688 C   0  0  0  0  0  0  0  0  0  0  0  0
   21.4799  -22.3276  -15.9270 N   0  0  0  0  0  0  0  0  0  0  0  0
   22.4685  -20.7324  -11.4509 C   0  0  0  0  0  0  0  0  0  0  0  0
   22.9575  -21.3317  -10.5109 O   0  0  0  0  0  0  0  0  0  0  0  0
   21.3318  -19.9444  -11.1677 O   0  0  0  0  0  0  0  0  0  0  0  0
  2  1  1  1
  2  3  1  0
  4  2  1  0
  5  4  2  0
  6  4  1  0
  7  6  1  0
  7  8  1  1
  9  8  1  0
 10  9  2  0
 11 10  1  0
 12 11  2  0
 12 13  1  0
 13 14  2  0
 14  9  1  0
 15 17  1  0
 15  7  1  0
 16 15  2  0
 18 25  1  0
 18 17  1  0
 18 19  1  6
 20 21  2  0
 20 19  1  0
 22 21  1  0
 23 24  2  0
 23 22  1  0
 24 20  1  0
 25 27  1  0
 26 25  2  0
M  END
$$$$
