AFH.pdb
     RDKit          3D

 27 28  0  0  1  0  0  0  0  0999 V2000
   30.5734  -20.4042  -11.7258 C   0  0  0  0  0  0  0  0  0  0  0  0
   30.4893  -20.9860  -10.3448 C   0  0  2  0  0  0  0  0  0  0  0  0
   31.2848  -22.1720  -10.2902 N   0  0  0  0  0  0  0  0  0  0  0  0
   29.0962  -21.1843   -9.8893 C   0  0  0  0  0  0  0  0  0  0  0  0
   28.5500  -22.3038  -10.0651 O   0  0  0  0  0  0  0  0  0  0  0  0
   28.3133  -20.1855   -9.2556 N   0  0  0  0  0  0  0  0  0  0  0  0
   26.9699  -20.4175   -8.7691 C   0  0  1  0  0  0  0  0  0  0  0  0
   26.6102  -19.4960   -7.6273 C   0  0  0  0  0  0  0  0  0  0  0  0
   27.3995  -19.7865   -6.4093 C   0  0  0  0  0  0  0  0  0  0  0  0
   27.9736  -18.7367   -5.7319 C   0  0  0  0  0  0  0  0  0  0  0  0
   28.7163  -18.9616   -4.5937 C   0  0  0  0  0  0  0  0  0  0  0  0
   28.8896  -20.2372   -4.1261 C   0  0  0  0  0  0  0  0  0  0  0  0
   28.3247  -21.3025   -4.7874 C   0  0  0  0  0  0  0  0  0  0  0  0
   27.5866  -21.0707   -5.9197 C   0  0  0  0  0  0  0  0  0  0  0  0
   26.0347  -20.1330   -9.8774 C   0  0  0  0  0  0  0  0  0  0  0  0
   26.0349  -18.9851  -10.3842 O   0  0  0  0  0  0  0  0  0  0  0  0
   25.1642  -21.1400  -10.3472 N   0  0  0  0  0  0  0  0  0  0  0  0
   24.3098  -20.9064  -11.5297 C   0  0  1  0  0  0  0  0  0  0  0  0
   24.1479  -22.1511  -12.3268 C   0  0  0  0  0  0  0  0  0  0  0  0
   23.2119  -21.9423  -13.4474 C   0  0  0  0  0  0  0  0  0  0  0  0
   22.5330  -20.8533  -13.9110 C   0  0  0  0  0  0  0  0  0  0  0  0
   21.8371  -21.1604  -15.0467 N   0  0  0  0  0  0  0  0  0  0  0  0
   22.0975  -22.4417  -15.2727 C   0  0  0  0  0  0  0  0  0  0  0  0
   22.9133  -22.9349  -14.3381 N   0  0  0  0  0  0  0  0  0  0  0  0
   22.9260  -20.5942  -10.9808 C   0  0  0  0  0  0  0  0  0  0  0  0
   22.4580  -21.0235   -9.9423 O   0  0  0  0  0  0  0  0  0  0  0  0
   22.0980  -19.7312  -11.7310 O   0  0  0  0  0  0  0  0  0  0  0  0
  2  1  1  6
  2  3  1  0
  4  2  1  0
  5  4  2  0
  6  4  1  0
  7  6  1  0
  7  8  1  1
  9  8  1  0
 10  9  2  0
 11 10  1  0
 12 11  2  0
 12 13  1  0
 13 14  2  0
 14  9  1  0
 15 17  1  0
 15  7  1  0
 16 15  2  0
 18 25  1  0
 18 17  1  0
 18 19  1  6
 20 21  2  0
 20 19  1  0
 22 21  1  0
 23 24  2  0
 23 22  1  0
 24 20  1  0
 25 27  1  0
 26 25  2  0
M  END
$$$$
