AFH.pdb
     RDKit          3D

 27 28  0  0  1  0  0  0  0  0999 V2000
   27.4785  -17.3850  -14.0959 C   0  0  0  0  0  0  0  0  0  0  0  0
   28.0666  -18.7618  -14.2020 C   0  0  2  0  0  0  0  0  0  0  0  0
   28.7387  -18.8854  -15.4572 N   0  0  0  0  0  0  0  0  0  0  0  0
   27.0751  -19.8304  -13.9520 C   0  0  0  0  0  0  0  0  0  0  0  0
   26.3915  -20.2660  -14.9140 O   0  0  0  0  0  0  0  0  0  0  0  0
   26.8320  -20.4131  -12.6817 N   0  0  0  0  0  0  0  0  0  0  0  0
   25.8433  -21.4460  -12.4565 C   0  0  1  0  0  0  0  0  0  0  0  0
   26.0717  -22.1797  -11.1558 C   0  0  0  0  0  0  0  0  0  0  0  0
   26.2225  -21.2509  -10.0133 C   0  0  0  0  0  0  0  0  0  0  0  0
   27.4824  -21.0262   -9.5104 C   0  0  0  0  0  0  0  0  0  0  0  0
   27.6684  -20.1695   -8.4478 C   0  0  0  0  0  0  0  0  0  0  0  0
   26.5963  -19.5325   -7.8817 C   0  0  0  0  0  0  0  0  0  0  0  0
   25.3272  -19.7421   -8.3682 C   0  0  0  0  0  0  0  0  0  0  0  0
   25.1499  -20.5963   -9.4262 C   0  0  0  0  0  0  0  0  0  0  0  0
   24.5213  -20.7914  -12.3678 C   0  0  0  0  0  0  0  0  0  0  0  0
   24.4566  -19.6286  -11.9006 O   0  0  0  0  0  0  0  0  0  0  0  0
   23.3628  -21.4706  -12.8028 N   0  0  0  0  0  0  0  0  0  0  0  0
   22.2181  -20.7246  -13.3648 C   0  0  1  0  0  0  0  0  0  0  0  0
   22.2069  -20.8015  -14.8497 C   0  0  0  0  0  0  0  0  0  0  0  0
   21.0005  -20.1580  -15.4026 C   0  0  0  0  0  0  0  0  0  0  0  0
   19.8975  -19.5896  -14.8347 C   0  0  0  0  0  0  0  0  0  0  0  0
   19.0793  -19.0540  -15.7896 N   0  0  0  0  0  0  0  0  0  0  0  0
   19.6909  -19.2979  -16.9416 C   0  0  0  0  0  0  0  0  0  0  0  0
   20.8371  -19.9533  -16.7440 N   0  0  0  0  0  0  0  0  0  0  0  0
   20.9759  -21.4762  -12.9111 C   0  0  0  0  0  0  0  0  0  0  0  0
   19.9944  -20.9806  -12.3889 O   0  0  0  0  0  0  0  0  0  0  0  0
   20.9427  -22.8741  -13.1060 O   0  0  0  0  0  0  0  0  0  0  0  0
  2  1  1  6
  2  3  1  0
  4  2  1  0
  5  4  2  0
  6  4  1  0
  7  6  1  0
  7  8  1  1
  9  8  1  0
 10  9  2  0
 11 10  1  0
 12 11  2  0
 12 13  1  0
 13 14  2  0
 14  9  1  0
 15 17  1  0
 15  7  1  0
 16 15  2  0
 18 25  1  0
 18 17  1  0
 18 19  1  6
 20 21  2  0
 20 19  1  0
 22 21  1  0
 23 24  2  0
 23 22  1  0
 24 20  1  0
 25 27  1  0
 26 25  2  0
M  END
$$$$
