CDN.pdb
     RDKit          3D

 23 22  0  0  1  0  0  0  0  0999 V2000
    9.9200  -18.7788   17.2203 N   0  0  0  0  0  0  0  0  0  0  0  0
   10.6154  -17.5728   17.5853 C   0  0  1  0  0  0  0  0  0  0  0  0
    9.7906  -16.6495   18.4297 C   0  0  0  0  0  0  0  0  0  0  0  0
    8.9287  -17.5316   19.7602 S   0  0  0  0  0  0  0  0  0  0  0  0
   11.8817  -17.9032   18.2978 C   0  0  0  0  0  0  0  0  0  0  0  0
   12.2196  -19.1293   18.4098 O   0  0  0  0  0  0  0  0  0  0  0  0
   12.6798  -16.8700   18.8315 N   0  0  0  0  0  0  0  0  0  0  0  0
   13.9148  -17.2371   19.5425 C   0  0  1  0  0  0  0  0  0  0  0  0
   15.0410  -16.3485   19.0441 C   0  0  0  0  0  0  0  0  0  0  0  0
   16.3442  -16.6287   19.6612 C   0  0  0  0  0  0  0  0  0  0  0  0
   16.9065  -15.7273   20.3454 O   0  0  0  0  0  0  0  0  0  0  0  0
   13.6222  -17.0921   20.9706 C   0  0  0  0  0  0  0  0  0  0  0  0
   14.4710  -17.3864   21.8867 O   0  0  0  0  0  0  0  0  0  0  0  0
   16.9614  -17.8592   19.5039 O   0  0  0  0  0  0  0  0  0  0  0  0
    8.5802  -16.8484   23.3359 N   0  0  0  0  0  0  0  0  0  0  0  0
    9.6483  -16.3861   22.5073 C   0  0  0  0  0  0  0  0  0  0  0  0
    9.5350  -16.5916   21.2776 O   0  0  0  0  0  0  0  0  0  0  0  0
   10.8221  -15.7061   23.0738 C   0  0  0  0  0  0  0  0  0  0  0  0
   12.0954  -16.5316   22.9058 C   0  0  2  0  0  0  0  0  0  0  0  0
   12.3849  -16.6138   21.5184 N   0  0  0  0  0  0  0  0  0  0  0  0
   12.0744  -17.7700   23.6445 C   0  0  0  0  0  0  0  0  0  0  0  0
   12.0528  -17.7949   24.8851 O   0  0  0  0  0  0  0  0  0  0  0  0
   12.0777  -18.9764   22.9858 O   0  0  0  0  0  0  0  0  0  0  0  0
  2  1  1  1
  2  5  1  0
  3  2  1  0
  4  3  1  0
  5  6  2  0
  7  8  1  0
  7  5  1  0
  8 12  1  0
  8  9  1  6
 10  9  1  0
 11 10  2  0
 12 20  1  0
 12 13  2  0
 14 10  1  0
 15 16  1  0
 16 17  2  0
 16 18  1  0
 19 18  1  6
 19 21  1  0
 20 19  1  0
 21 22  2  0
 21 23  1  0
M  END
$$$$
