CDN.pdb
     RDKit          3D

 23 22  0  0  1  0  0  0  0  0999 V2000
    7.2977  -15.5757   19.0572 N   0  0  0  0  0  0  0  0  0  0  0  0
    8.0337  -14.9113   20.1003 C   0  0  1  0  0  0  0  0  0  0  0  0
    7.2104  -13.9159   20.8601 C   0  0  0  0  0  0  0  0  0  0  0  0
    8.1268  -13.1936   22.2492 S   0  0  0  0  0  0  0  0  0  0  0  0
    8.6052  -15.9114   21.0456 C   0  0  0  0  0  0  0  0  0  0  0  0
    7.8233  -16.7713   21.5740 O   0  0  0  0  0  0  0  0  0  0  0  0
    9.9846  -15.8949   21.3392 N   0  0  0  0  0  0  0  0  0  0  0  0
   10.4969  -16.8414   22.3429 C   0  0  1  0  0  0  0  0  0  0  0  0
   11.9584  -17.1219   22.0402 C   0  0  0  0  0  0  0  0  0  0  0  0
   12.1870  -17.7864   20.7503 C   0  0  0  0  0  0  0  0  0  0  0  0
   12.7159  -17.1321   19.8074 O   0  0  0  0  0  0  0  0  0  0  0  0
   10.2624  -16.2189   23.6482 C   0  0  0  0  0  0  0  0  0  0  0  0
   10.8132  -15.1148   23.9999 O   0  0  0  0  0  0  0  0  0  0  0  0
   11.8327  -19.1114   20.5545 O   0  0  0  0  0  0  0  0  0  0  0  0
    7.0927  -13.6293   25.4288 N   0  0  0  0  0  0  0  0  0  0  0  0
    8.1282  -14.2713   26.1749 C   0  0  0  0  0  0  0  0  0  0  0  0
    9.0389  -13.5363   26.6195 O   0  0  0  0  0  0  0  0  0  0  0  0
    8.1235  -15.7233   26.4046 C   0  0  0  0  0  0  0  0  0  0  0  0
    9.4618  -16.3624   26.0416 C   0  0  2  0  0  0  0  0  0  0  0  0
    9.4090  -16.7446   24.6754 N   0  0  0  0  0  0  0  0  0  0  0  0
    9.8902  -17.3648   26.9857 C   0  0  0  0  0  0  0  0  0  0  0  0
   10.0532  -18.5502   26.6568 O   0  0  0  0  0  0  0  0  0  0  0  0
   10.1338  -17.0309   28.2966 O   0  0  0  0  0  0  0  0  0  0  0  0
  2  1  1  6
  2  5  1  0
  3  2  1  0
  4  3  1  0
  5  6  2  0
  7  8  1  0
  7  5  1  0
  8 12  1  0
  8  9  1  6
 10  9  1  0
 11 10  2  0
 12 20  1  0
 12 13  2  0
 14 10  1  0
 15 16  1  0
 16 17  2  0
 16 18  1  0
 19 18  1  1
 19 21  1  0
 20 19  1  0
 21 22  2  0
 21 23  1  0
M  END
$$$$
