CDN.pdb
     RDKit          3D

 23 22  0  0  1  0  0  0  0  0999 V2000
    7.4601  -13.4672   27.0678 N   0  0  0  0  0  0  0  0  0  0  0  0
    6.5280  -13.4086   25.9729 C   0  0  1  0  0  0  0  0  0  0  0  0
    6.2824  -12.0141   25.4820 C   0  0  0  0  0  0  0  0  0  0  0  0
    6.2988  -10.8040   26.8334 S   0  0  0  0  0  0  0  0  0  0  0  0
    7.0034  -14.2582   24.8448 C   0  0  0  0  0  0  0  0  0  0  0  0
    6.2530  -14.3927   23.8207 O   0  0  0  0  0  0  0  0  0  0  0  0
    8.2602  -14.8936   24.9227 N   0  0  0  0  0  0  0  0  0  0  0  0
    8.7322  -15.6547   23.7550 C   0  0  1  0  0  0  0  0  0  0  0  0
    8.6526  -14.7594   22.5310 C   0  0  0  0  0  0  0  0  0  0  0  0
    9.2132  -15.3579   21.3124 C   0  0  0  0  0  0  0  0  0  0  0  0
   10.3802  -15.0355   20.9503 O   0  0  0  0  0  0  0  0  0  0  0  0
   10.0871  -16.1059   24.0823 C   0  0  0  0  0  0  0  0  0  0  0  0
   11.0737  -15.2975   24.2204 O   0  0  0  0  0  0  0  0  0  0  0  0
    8.4848  -16.2645   20.5593 O   0  0  0  0  0  0  0  0  0  0  0  0
    8.4658  -19.4518   28.0424 N   0  0  0  0  0  0  0  0  0  0  0  0
    9.3303  -18.3712   27.6878 C   0  0  0  0  0  0  0  0  0  0  0  0
   10.1035  -17.9541   28.5797 O   0  0  0  0  0  0  0  0  0  0  0  0
    9.3084  -17.7783   26.3427 C   0  0  0  0  0  0  0  0  0  0  0  0
   10.5777  -18.0993   25.5573 C   0  0  2  0  0  0  0  0  0  0  0  0
   10.4785  -17.4713   24.2880 N   0  0  0  0  0  0  0  0  0  0  0  0
   10.9172  -19.5009   25.5694 C   0  0  0  0  0  0  0  0  0  0  0  0
   11.9131  -19.9306   26.1722 O   0  0  0  0  0  0  0  0  0  0  0  0
   10.1356  -20.4146   24.9035 O   0  0  0  0  0  0  0  0  0  0  0  0
  2  1  1  1
  2  5  1  0
  3  2  1  0
  4  3  1  0
  5  6  2  0
  7  8  1  0
  7  5  1  0
  8 12  1  0
  8  9  1  6
 10  9  1  0
 11 10  2  0
 12 20  1  0
 12 13  2  0
 14 10  1  0
 15 16  1  0
 16 17  2  0
 16 18  1  0
 19 18  1  6
 19 21  1  0
 20 19  1  0
 21 22  2  0
 21 23  1  0
M  END
$$$$
