CDN.pdb
     RDKit          3D

 23 22  0  0  1  0  0  0  0  0999 V2000
    9.8645  -14.1716   17.2010 N   0  0  0  0  0  0  0  0  0  0  0  0
    9.0849  -13.7461   18.3335 C   0  0  1  0  0  0  0  0  0  0  0  0
    7.7583  -13.1638   17.9503 C   0  0  0  0  0  0  0  0  0  0  0  0
    6.8024  -12.6366   19.3993 S   0  0  0  0  0  0  0  0  0  0  0  0
    8.8779  -14.8835   19.2736 C   0  0  0  0  0  0  0  0  0  0  0  0
    8.4320  -14.6371   20.4443 O   0  0  0  0  0  0  0  0  0  0  0  0
    9.1730  -16.1999   18.8622 N   0  0  0  0  0  0  0  0  0  0  0  0
    9.1027  -17.2771   19.8625 C   0  0  1  0  0  0  0  0  0  0  0  0
    8.5691  -18.5284   19.1876 C   0  0  0  0  0  0  0  0  0  0  0  0
    8.4982  -19.7015   20.0688 C   0  0  0  0  0  0  0  0  0  0  0  0
    7.8722  -19.6112   21.1628 O   0  0  0  0  0  0  0  0  0  0  0  0
   10.4558  -17.4181   20.4061 C   0  0  0  0  0  0  0  0  0  0  0  0
   10.7475  -18.2548   21.3341 O   0  0  0  0  0  0  0  0  0  0  0  0
    9.1047  -20.8973   19.7197 O   0  0  0  0  0  0  0  0  0  0  0  0
   13.3505  -13.7054   19.5916 N   0  0  0  0  0  0  0  0  0  0  0  0
   13.3855  -14.9672   18.9227 C   0  0  0  0  0  0  0  0  0  0  0  0
   12.9536  -14.9927   17.7479 O   0  0  0  0  0  0  0  0  0  0  0  0
   13.9005  -16.1746   19.5847 C   0  0  0  0  0  0  0  0  0  0  0  0
   12.8909  -16.7597   20.5693 C   0  0  2  0  0  0  0  0  0  0  0  0
   11.6012  -16.6633   19.9840 N   0  0  0  0  0  0  0  0  0  0  0  0
   13.0409  -16.2507   21.9103 C   0  0  0  0  0  0  0  0  0  0  0  0
   14.1337  -16.2596   22.4982 O   0  0  0  0  0  0  0  0  0  0  0  0
   11.9613  -15.7337   22.5859 O   0  0  0  0  0  0  0  0  0  0  0  0
  2  1  1  6
  2  5  1  0
  3  2  1  0
  4  3  1  0
  5  6  2  0
  7  8  1  0
  7  5  1  0
  8 12  1  0
  8  9  1  6
 10  9  1  0
 11 10  2  0
 12 20  1  0
 12 13  2  0
 14 10  1  0
 15 16  1  0
 16 17  2  0
 16 18  1  0
 19 18  1  6
 19 21  1  0
 20 19  1  0
 21 22  2  0
 21 23  1  0
M  END
$$$$
