CDN.pdb
     RDKit          3D

 23 22  0  0  1  0  0  0  0  0999 V2000
    5.4500  -14.1059   25.9441 N   0  0  0  0  0  0  0  0  0  0  0  0
    6.6393  -13.6224   25.2936 C   0  0  1  0  0  0  0  0  0  0  0  0
    7.5062  -12.7928   26.1914 C   0  0  0  0  0  0  0  0  0  0  0  0
    6.6199  -11.3560   26.8557 S   0  0  0  0  0  0  0  0  0  0  0  0
    7.4300  -14.7627   24.7508 C   0  0  0  0  0  0  0  0  0  0  0  0
    7.1588  -15.9433   25.1544 O   0  0  0  0  0  0  0  0  0  0  0  0
    8.4538  -14.5254   23.8101 N   0  0  0  0  0  0  0  0  0  0  0  0
    9.2151  -15.6769   23.3002 C   0  0  1  0  0  0  0  0  0  0  0  0
    9.6616  -15.3704   21.8815 C   0  0  0  0  0  0  0  0  0  0  0  0
   10.5262  -16.3995   21.2891 C   0  0  0  0  0  0  0  0  0  0  0  0
   10.4415  -17.5887   21.7080 O   0  0  0  0  0  0  0  0  0  0  0  0
   10.3155  -15.8888   24.2439 C   0  0  0  0  0  0  0  0  0  0  0  0
   11.2175  -15.0045   24.4687 O   0  0  0  0  0  0  0  0  0  0  0  0
   11.4276  -16.0863   20.2846 O   0  0  0  0  0  0  0  0  0  0  0  0
   11.7391  -16.8752   29.0429 N   0  0  0  0  0  0  0  0  0  0  0  0
   10.7888  -15.9394   28.5309 C   0  0  0  0  0  0  0  0  0  0  0  0
   10.3813  -15.0611   29.3246 O   0  0  0  0  0  0  0  0  0  0  0  0
   10.3126  -16.0089   27.1419 C   0  0  0  0  0  0  0  0  0  0  0  0
   11.0311  -17.0961   26.3464 C   0  0  2  0  0  0  0  0  0  0  0  0
   10.5234  -17.0775   25.0208 N   0  0  0  0  0  0  0  0  0  0  0  0
   11.0587  -18.3714   27.0190 C   0  0  0  0  0  0  0  0  0  0  0  0
   11.8569  -18.6126   27.9381 O   0  0  0  0  0  0  0  0  0  0  0  0
   10.1885  -19.3716   26.6558 O   0  0  0  0  0  0  0  0  0  0  0  0
  2  1  1  1
  2  5  1  0
  3  2  1  0
  4  3  1  0
  5  6  2  0
  7  8  1  0
  7  5  1  0
  8 12  1  0
  8  9  1  6
 10  9  1  0
 11 10  2  0
 12 20  1  0
 12 13  2  0
 14 10  1  0
 15 16  1  0
 16 17  2  0
 16 18  1  0
 19 18  1  1
 19 21  1  0
 20 19  1  0
 21 22  2  0
 21 23  1  0
M  END
$$$$
