CDN.pdb
     RDKit          3D

 23 22  0  0  1  0  0  0  0  0999 V2000
    6.4951  -14.1338   18.1299 N   0  0  0  0  0  0  0  0  0  0  0  0
    7.9063  -14.0185   18.3880 C   0  0  1  0  0  0  0  0  0  0  0  0
    8.2489  -12.8701   19.2878 C   0  0  0  0  0  0  0  0  0  0  0  0
    7.7489  -11.2770   18.5785 S   0  0  0  0  0  0  0  0  0  0  0  0
    8.4284  -15.2849   18.9745 C   0  0  0  0  0  0  0  0  0  0  0  0
    7.6300  -16.0266   19.6399 O   0  0  0  0  0  0  0  0  0  0  0  0
    9.7799  -15.6427   18.7884 N   0  0  0  0  0  0  0  0  0  0  0  0
   10.2601  -16.8971   19.3896 C   0  0  1  0  0  0  0  0  0  0  0  0
   10.9022  -17.7392   18.3012 C   0  0  0  0  0  0  0  0  0  0  0  0
   12.1771  -17.2057   17.8035 C   0  0  0  0  0  0  0  0  0  0  0  0
   12.2020  -16.0500   17.2930 O   0  0  0  0  0  0  0  0  0  0  0  0
   11.1737  -16.5098   20.4673 C   0  0  0  0  0  0  0  0  0  0  0  0
   11.3394  -15.2911   20.8327 O   0  0  0  0  0  0  0  0  0  0  0  0
   13.3445  -17.9474   17.8849 O   0  0  0  0  0  0  0  0  0  0  0  0
   12.1404  -17.0266   25.4193 N   0  0  0  0  0  0  0  0  0  0  0  0
   10.8788  -17.0562   24.7497 C   0  0  0  0  0  0  0  0  0  0  0  0
    9.8586  -16.9578   25.4685 O   0  0  0  0  0  0  0  0  0  0  0  0
   10.7864  -17.1986   23.2894 C   0  0  0  0  0  0  0  0  0  0  0  0
   12.1621  -17.3372   22.6418 C   0  0  2  0  0  0  0  0  0  0  0  0
   11.9791  -17.4153   21.2362 N   0  0  0  0  0  0  0  0  0  0  0  0
   12.9806  -18.3552   23.2529 C   0  0  0  0  0  0  0  0  0  0  0  0
   14.1296  -18.1193   23.6578 O   0  0  0  0  0  0  0  0  0  0  0  0
   12.5043  -19.6354   23.4065 O   0  0  0  0  0  0  0  0  0  0  0  0
  2  1  1  1
  2  5  1  0
  3  2  1  0
  4  3  1  0
  5  6  2  0
  7  8  1  0
  7  5  1  0
  8 12  1  0
  8  9  1  6
 10  9  1  0
 11 10  2  0
 12 20  1  0
 12 13  2  0
 14 10  1  0
 15 16  1  0
 16 17  2  0
 16 18  1  0
 19 18  1  1
 19 21  1  0
 20 19  1  0
 21 22  2  0
 21 23  1  0
M  END
$$$$
