CDN.pdb
     RDKit          3D

 23 22  0  0  1  0  0  0  0  0999 V2000
    7.4598  -13.6194   18.5447 N   0  0  0  0  0  0  0  0  0  0  0  0
    8.5741  -13.6447   19.4552 C   0  0  1  0  0  0  0  0  0  0  0  0
    8.4370  -12.6658   20.5817 C   0  0  0  0  0  0  0  0  0  0  0  0
    7.1093  -13.1288   21.7280 S   0  0  0  0  0  0  0  0  0  0  0  0
    8.7587  -15.0168   20.0062 C   0  0  0  0  0  0  0  0  0  0  0  0
    8.5561  -16.0173   19.2392 O   0  0  0  0  0  0  0  0  0  0  0  0
    9.1502  -15.1893   21.3502 N   0  0  0  0  0  0  0  0  0  0  0  0
    9.5122  -16.5414   21.8047 C   0  0  1  0  0  0  0  0  0  0  0  0
   10.7881  -16.9630   21.0972 C   0  0  0  0  0  0  0  0  0  0  0  0
   11.2781  -18.2922   21.4853 C   0  0  0  0  0  0  0  0  0  0  0  0
   10.5894  -18.9930   22.2800 O   0  0  0  0  0  0  0  0  0  0  0  0
    9.6312  -16.4637   23.2628 C   0  0  0  0  0  0  0  0  0  0  0  0
   10.4195  -15.6408   23.8522 O   0  0  0  0  0  0  0  0  0  0  0  0
   12.4772  -18.7846   20.9959 O   0  0  0  0  0  0  0  0  0  0  0  0
    6.5169  -19.2952   26.2950 N   0  0  0  0  0  0  0  0  0  0  0  0
    6.6080  -18.0814   25.5471 C   0  0  0  0  0  0  0  0  0  0  0  0
    5.9783  -18.0389   24.4659 O   0  0  0  0  0  0  0  0  0  0  0  0
    7.4051  -16.9420   26.0243 C   0  0  0  0  0  0  0  0  0  0  0  0
    8.8676  -17.0516   25.5997 C   0  0  2  0  0  0  0  0  0  0  0  0
    8.9018  -17.2722   24.1978 N   0  0  0  0  0  0  0  0  0  0  0  0
    9.6349  -17.9532   26.4232 C   0  0  0  0  0  0  0  0  0  0  0  0
   10.2640  -18.9084   25.9418 O   0  0  0  0  0  0  0  0  0  0  0  0
    9.6919  -17.7779   27.7853 O   0  0  0  0  0  0  0  0  0  0  0  0
  2  1  1  6
  2  5  1  0
  3  2  1  0
  4  3  1  0
  5  6  2  0
  7  8  1  0
  7  5  1  0
  8 12  1  0
  8  9  1  6
 10  9  1  0
 11 10  2  0
 12 20  1  0
 12 13  2  0
 14 10  1  0
 15 16  1  0
 16 17  2  0
 16 18  1  0
 19 18  1  1
 19 21  1  0
 20 19  1  0
 21 22  2  0
 21 23  1  0
M  END
$$$$
