CDN.pdb
     RDKit          3D

 23 22  0  0  1  0  0  0  0  0999 V2000
    6.4051  -14.5994   20.0178 N   0  0  0  0  0  0  0  0  0  0  0  0
    7.8065  -14.6069   19.6906 C   0  0  1  0  0  0  0  0  0  0  0  0
    8.5718  -13.5005   20.3511 C   0  0  0  0  0  0  0  0  0  0  0  0
    7.8987  -11.8671   19.9391 S   0  0  0  0  0  0  0  0  0  0  0  0
    8.4136  -15.9187   20.0524 C   0  0  0  0  0  0  0  0  0  0  0  0
    7.7274  -16.7399   20.7487 O   0  0  0  0  0  0  0  0  0  0  0  0
    9.7210  -16.2315   19.6255 N   0  0  0  0  0  0  0  0  0  0  0  0
   10.2464  -17.5762   19.9107 C   0  0  1  0  0  0  0  0  0  0  0  0
   11.0260  -18.0567   18.6993 C   0  0  0  0  0  0  0  0  0  0  0  0
   10.2494  -18.9018   17.7826 C   0  0  0  0  0  0  0  0  0  0  0  0
    9.3716  -19.6773   18.2569 O   0  0  0  0  0  0  0  0  0  0  0  0
   11.0483  -17.4510   21.1304 C   0  0  0  0  0  0  0  0  0  0  0  0
   11.6395  -18.4492   21.6781 O   0  0  0  0  0  0  0  0  0  0  0  0
   10.4652  -18.8612   16.4146 O   0  0  0  0  0  0  0  0  0  0  0  0
   12.8457  -16.1908   25.7519 N   0  0  0  0  0  0  0  0  0  0  0  0
   11.7260  -17.0203   25.4373 C   0  0  0  0  0  0  0  0  0  0  0  0
   11.2423  -17.6916   26.3769 O   0  0  0  0  0  0  0  0  0  0  0  0
   11.1735  -17.0830   24.0764 C   0  0  0  0  0  0  0  0  0  0  0  0
   11.9094  -16.1491   23.1187 C   0  0  2  0  0  0  0  0  0  0  0  0
   11.2742  -16.2310   21.8517 N   0  0  0  0  0  0  0  0  0  0  0  0
   13.3414  -16.3174   23.1450 C   0  0  0  0  0  0  0  0  0  0  0  0
   14.0090  -16.1079   24.1699 O   0  0  0  0  0  0  0  0  0  0  0  0
   14.0181  -16.7208   22.0187 O   0  0  0  0  0  0  0  0  0  0  0  0
  2  1  1  1
  2  5  1  0
  3  2  1  0
  4  3  1  0
  5  6  2  0
  7  8  1  0
  7  5  1  0
  8 12  1  0
  8  9  1  6
 10  9  1  0
 11 10  2  0
 12 20  1  0
 12 13  2  0
 14 10  1  0
 15 16  1  0
 16 17  2  0
 16 18  1  0
 19 18  1  1
 19 21  1  0
 20 19  1  0
 21 22  2  0
 21 23  1  0
M  END
$$$$
