CDN.pdb
     RDKit          3D

 23 22  0  0  1  0  0  0  0  0999 V2000
    9.4404  -13.0400   18.1486 N   0  0  0  0  0  0  0  0  0  0  0  0
    8.5752  -13.8362   18.9785 C   0  0  1  0  0  0  0  0  0  0  0  0
    7.1409  -13.7933   18.5462 C   0  0  0  0  0  0  0  0  0  0  0  0
    6.3873  -12.1710   18.8484 S   0  0  0  0  0  0  0  0  0  0  0  0
    9.0457  -15.2498   19.0071 C   0  0  0  0  0  0  0  0  0  0  0  0
    8.3992  -16.0964   19.7109 O   0  0  0  0  0  0  0  0  0  0  0  0
   10.1838  -15.6284   18.2651 N   0  0  0  0  0  0  0  0  0  0  0  0
   10.6915  -17.0014   18.4159 C   0  0  1  0  0  0  0  0  0  0  0  0
   10.9656  -17.5692   17.0344 C   0  0  0  0  0  0  0  0  0  0  0  0
    9.7593  -17.7867   16.2250 C   0  0  0  0  0  0  0  0  0  0  0  0
    8.7217  -18.2470   16.7802 O   0  0  0  0  0  0  0  0  0  0  0  0
   11.8763  -16.9068   19.2725 C   0  0  0  0  0  0  0  0  0  0  0  0
   12.6168  -17.9177   19.5475 O   0  0  0  0  0  0  0  0  0  0  0  0
    9.7438  -17.4966   14.8703 O   0  0  0  0  0  0  0  0  0  0  0  0
   15.6687  -15.8160   18.6890 N   0  0  0  0  0  0  0  0  0  0  0  0
   14.9220  -14.6409   19.0089 C   0  0  0  0  0  0  0  0  0  0  0  0
   14.8019  -13.7869   18.1014 O   0  0  0  0  0  0  0  0  0  0  0  0
   14.3282  -14.4455   20.3395 C   0  0  0  0  0  0  0  0  0  0  0  0
   13.4754  -15.6386   20.7641 C   0  0  2  0  0  0  0  0  0  0  0  0
   12.3530  -15.7059   19.8974 N   0  0  0  0  0  0  0  0  0  0  0  0
   13.2111  -15.6757   22.1814 C   0  0  0  0  0  0  0  0  0  0  0  0
   12.0559  -15.6880   22.6343 O   0  0  0  0  0  0  0  0  0  0  0  0
   14.2470  -15.6987   23.0846 O   0  0  0  0  0  0  0  0  0  0  0  0
  2  1  1  6
  2  5  1  0
  3  2  1  0
  4  3  1  0
  5  6  2  0
  7  8  1  0
  7  5  1  0
  8 12  1  0
  8  9  1  6
 10  9  1  0
 11 10  2  0
 12 20  1  0
 12 13  2  0
 14 10  1  0
 15 16  1  0
 16 17  2  0
 16 18  1  0
 19 18  1  1
 19 21  1  0
 20 19  1  0
 21 22  2  0
 21 23  1  0
M  END
$$$$
