CDN.pdb
     RDKit          3D

 23 22  0  0  1  0  0  0  0  0999 V2000
    5.3364  -14.3090   26.0084 N   0  0  0  0  0  0  0  0  0  0  0  0
    6.5934  -13.8499   25.4788 C   0  0  1  0  0  0  0  0  0  0  0  0
    7.3921  -13.0523   26.4647 C   0  0  0  0  0  0  0  0  0  0  0  0
    6.4922  -11.5871   27.0429 S   0  0  0  0  0  0  0  0  0  0  0  0
    7.4033  -15.0047   24.9984 C   0  0  0  0  0  0  0  0  0  0  0  0
    7.0308  -16.1856   25.3095 O   0  0  0  0  0  0  0  0  0  0  0  0
    8.5551  -14.7802   24.2160 N   0  0  0  0  0  0  0  0  0  0  0  0
    9.2450  -15.9443   23.6377 C   0  0  1  0  0  0  0  0  0  0  0  0
    9.8582  -15.5321   22.3110 C   0  0  0  0  0  0  0  0  0  0  0  0
   10.6119  -16.6000   21.6408 C   0  0  0  0  0  0  0  0  0  0  0  0
   11.8556  -16.4585   21.4675 O   0  0  0  0  0  0  0  0  0  0  0  0
   10.2199  -16.3808   24.6404 C   0  0  0  0  0  0  0  0  0  0  0  0
   11.1114  -17.2717   24.4004 O   0  0  0  0  0  0  0  0  0  0  0  0
    9.9821  -17.7521   21.1985 O   0  0  0  0  0  0  0  0  0  0  0  0
    9.4067  -13.6648   28.6860 N   0  0  0  0  0  0  0  0  0  0  0  0
   10.5657  -14.3115   28.1575 C   0  0  0  0  0  0  0  0  0  0  0  0
   11.3862  -13.5865   27.5504 O   0  0  0  0  0  0  0  0  0  0  0  0
   10.7799  -15.7571   28.3172 C   0  0  0  0  0  0  0  0  0  0  0  0
   11.1393  -16.4299   26.9947 C   0  0  2  0  0  0  0  0  0  0  0  0
   10.3062  -15.8829   25.9837 N   0  0  0  0  0  0  0  0  0  0  0  0
   11.2016  -17.8680   27.0843 C   0  0  0  0  0  0  0  0  0  0  0  0
   12.2808  -18.4751   27.1668 O   0  0  0  0  0  0  0  0  0  0  0  0
   10.0501  -18.6185   27.0807 O   0  0  0  0  0  0  0  0  0  0  0  0
  2  1  1  1
  2  5  1  0
  3  2  1  0
  4  3  1  0
  5  6  2  0
  7  8  1  0
  7  5  1  0
  8 12  1  0
  8  9  1  6
 10  9  1  0
 11 10  2  0
 12 20  1  0
 12 13  2  0
 14 10  1  0
 15 16  1  0
 16 17  2  0
 16 18  1  0
 19 18  1  1
 19 21  1  0
 20 19  1  0
 21 22  2  0
 21 23  1  0
M  END
$$$$
