CDN.pdb
     RDKit          3D

 23 22  0  0  1  0  0  0  0  0999 V2000
    5.8646  -14.1286   26.2156 N   0  0  0  0  0  0  0  0  0  0  0  0
    6.8748  -13.6188   25.3262 C   0  0  1  0  0  0  0  0  0  0  0  0
    7.8637  -12.7236   26.0092 C   0  0  0  0  0  0  0  0  0  0  0  0
    7.0497  -11.4541   27.0175 S   0  0  0  0  0  0  0  0  0  0  0  0
    7.5939  -14.7432   24.6638 C   0  0  0  0  0  0  0  0  0  0  0  0
    7.4454  -15.9233   25.1280 O   0  0  0  0  0  0  0  0  0  0  0  0
    8.4178  -14.4918   23.5470 N   0  0  0  0  0  0  0  0  0  0  0  0
    8.9674  -15.6414   22.8109 C   0  0  1  0  0  0  0  0  0  0  0  0
    8.6959  -15.4410   21.3303 C   0  0  0  0  0  0  0  0  0  0  0  0
    9.2587  -16.4900   20.4698 C   0  0  0  0  0  0  0  0  0  0  0  0
    9.7334  -17.5328   21.0028 O   0  0  0  0  0  0  0  0  0  0  0  0
   10.3893  -15.7063   23.1577 C   0  0  0  0  0  0  0  0  0  0  0  0
   11.2239  -16.4510   22.5293 O   0  0  0  0  0  0  0  0  0  0  0  0
    9.2768  -16.3524   19.0912 O   0  0  0  0  0  0  0  0  0  0  0  0
   12.9769  -16.7816   27.4625 N   0  0  0  0  0  0  0  0  0  0  0  0
   11.5499  -16.7275   27.4229 C   0  0  0  0  0  0  0  0  0  0  0  0
   10.9404  -17.2659   28.3747 O   0  0  0  0  0  0  0  0  0  0  0  0
   10.8355  -16.0743   26.3165 C   0  0  0  0  0  0  0  0  0  0  0  0
   11.7940  -15.5439   25.2530 C   0  0  2  0  0  0  0  0  0  0  0  0
   11.0192  -14.9657   24.2135 N   0  0  0  0  0  0  0  0  0  0  0  0
   12.8011  -16.5003   24.8644 C   0  0  0  0  0  0  0  0  0  0  0  0
   14.0128  -16.2392   24.9232 O   0  0  0  0  0  0  0  0  0  0  0  0
   12.4421  -17.7471   24.4107 O   0  0  0  0  0  0  0  0  0  0  0  0
  2  1  1  1
  2  5  1  0
  3  2  1  0
  4  3  1  0
  5  6  2  0
  7  8  1  0
  7  5  1  0
  8 12  1  0
  8  9  1  6
 10  9  1  0
 11 10  2  0
 12 20  1  0
 12 13  2  0
 14 10  1  0
 15 16  1  0
 16 17  2  0
 16 18  1  0
 19 18  1  1
 19 21  1  0
 20 19  1  0
 21 22  2  0
 21 23  1  0
M  END
$$$$
