CKD.pdb
     RDKit          3D

 24 23  0  0  1  0  0  0  0  0999 V2000
    8.9782  -16.1813   18.3644 N   0  0  0  0  0  0  0  0  0  0  0  0
    7.8953  -16.1295   19.3178 C   0  0  1  0  0  0  0  0  0  0  0  0
    7.2263  -17.4747   19.4077 C   0  0  0  0  0  0  0  0  0  0  0  0
    8.2183  -18.7263   20.2139 S   0  0  0  0  0  0  0  0  0  0  0  0
    8.3831  -15.6173   20.5961 C   0  0  0  0  0  0  0  0  0  0  0  0
    9.6154  -15.6783   20.8424 O   0  0  0  0  0  0  0  0  0  0  0  0
    7.5845  -15.0455   21.6082 N   0  0  0  0  0  0  0  0  0  0  0  0
    8.0518  -14.6354   22.9176 C   0  0  1  0  0  0  0  0  0  0  0  0
    6.9527  -13.9840   23.7233 C   0  0  0  0  0  0  0  0  0  0  0  0
    7.4644  -13.4579   25.0476 C   0  0  0  0  0  0  0  0  0  0  0  0
    6.4132  -12.7364   25.8256 C   0  0  0  0  0  0  0  0  0  0  0  0
    6.9354  -12.1077   27.0914 C   0  0  0  0  0  0  0  0  0  0  0  0
    5.8042  -11.5304   27.7934 N   0  0  0  0  0  0  0  0  0  0  0  0
    8.6325  -15.7230   23.6910 C   0  0  0  0  0  0  0  0  0  0  0  0
    8.0861  -16.8421   23.8042 O   0  0  0  0  0  0  0  0  0  0  0  0
    9.8680  -15.5295   24.3516 N   0  0  0  0  0  0  0  0  0  0  0  0
   10.5474  -16.6517   24.9513 C   0  0  1  0  0  0  0  0  0  0  0  0
   11.9418  -16.7277   24.4151 C   0  0  0  0  0  0  0  0  0  0  0  0
   12.7033  -17.8077   25.0374 C   0  0  0  0  0  0  0  0  0  0  0  0
   12.2216  -18.7283   25.7273 O   0  0  0  0  0  0  0  0  0  0  0  0
   10.5156  -16.5849   26.4319 C   0  0  0  0  0  0  0  0  0  0  0  0
   11.0145  -17.6203   27.1902 O   0  0  0  0  0  0  0  0  0  0  0  0
   14.1014  -17.7842   24.8246 O   0  0  0  0  0  0  0  0  0  0  0  0
   10.0262  -15.5684   26.9785 O   0  0  0  0  0  0  0  0  0  0  0  0
  2  1  1  6
  2  5  1  0
  3  2  1  0
  3  4  1  0
  5  6  2  0
  7  5  1  0
  7  8  1  0
  8  9  1  1
 10  9  1  0
 11 10  1  0
 12 11  1  0
 13 12  1  0
 14  8  1  0
 14 15  2  0
 16 14  1  0
 17 16  1  0
 17 18  1  6
 19 18  1  0
 19 20  2  0
 21 22  1  0
 21 17  1  0
 23 19  1  0
 24 21  2  0
M  END
$$$$
