CKD.pdb
     RDKit          3D

 24 23  0  0  1  0  0  0  0  0999 V2000
    5.7569  -15.1603   26.8731 N   0  0  0  0  0  0  0  0  0  0  0  0
    6.4167  -14.1310   26.1053 C   0  0  1  0  0  0  0  0  0  0  0  0
    7.3777  -13.3739   26.9818 C   0  0  0  0  0  0  0  0  0  0  0  0
    6.8410  -11.7154   27.3842 S   0  0  0  0  0  0  0  0  0  0  0  0
    7.0269  -14.7149   24.9132 C   0  0  0  0  0  0  0  0  0  0  0  0
    7.4769  -15.8882   24.9760 O   0  0  0  0  0  0  0  0  0  0  0  0
    7.1641  -14.0731   23.6649 N   0  0  0  0  0  0  0  0  0  0  0  0
    7.8071  -14.6376   22.4948 C   0  0  1  0  0  0  0  0  0  0  0  0
    7.6879  -13.7242   21.2978 C   0  0  0  0  0  0  0  0  0  0  0  0
    8.2250  -14.3745   20.0404 C   0  0  0  0  0  0  0  0  0  0  0  0
    8.0703  -13.5089   18.8330 C   0  0  0  0  0  0  0  0  0  0  0  0
    8.5542  -14.1632   17.5651 C   0  0  0  0  0  0  0  0  0  0  0  0
    8.3701  -13.2136   16.4835 N   0  0  0  0  0  0  0  0  0  0  0  0
    9.2085  -14.9676   22.7079 C   0  0  0  0  0  0  0  0  0  0  0  0
   10.0049  -14.2005   23.2920 O   0  0  0  0  0  0  0  0  0  0  0  0
    9.7143  -16.2040   22.2435 N   0  0  0  0  0  0  0  0  0  0  0  0
   11.0763  -16.5797   22.5343 C   0  0  1  0  0  0  0  0  0  0  0  0
   11.0792  -17.8487   23.3263 C   0  0  0  0  0  0  0  0  0  0  0  0
   12.4365  -18.3216   23.5865 C   0  0  0  0  0  0  0  0  0  0  0  0
   13.2001  -18.8295   22.7413 O   0  0  0  0  0  0  0  0  0  0  0  0
   11.8920  -16.6832   21.3008 C   0  0  0  0  0  0  0  0  0  0  0  0
   11.2885  -16.8491   20.0743 O   0  0  0  0  0  0  0  0  0  0  0  0
   12.8991  -18.1802   24.9156 O   0  0  0  0  0  0  0  0  0  0  0  0
   13.1401  -16.6166   21.3968 O   0  0  0  0  0  0  0  0  0  0  0  0
  2  1  1  1
  2  5  1  0
  3  2  1  0
  3  4  1  0
  5  6  2  0
  7  5  1  0
  7  8  1  0
  8  9  1  6
 10  9  1  0
 11 10  1  0
 12 11  1  0
 13 12  1  0
 14  8  1  0
 14 15  2  0
 16 14  1  0
 17 16  1  0
 17 18  1  6
 19 18  1  0
 19 20  2  0
 21 22  1  0
 21 17  1  0
 23 19  1  0
 24 21  2  0
M  END
$$$$
