CKD.pdb
     RDKit          3D

 24 23  0  0  1  0  0  0  0  0999 V2000
    6.4534  -19.2355   25.3664 N   0  0  0  0  0  0  0  0  0  0  0  0
    6.5309  -17.8168   25.1104 C   0  0  1  0  0  0  0  0  0  0  0  0
    6.7066  -17.0708   26.4057 C   0  0  0  0  0  0  0  0  0  0  0  0
    8.1202  -17.6032   27.3642 S   0  0  0  0  0  0  0  0  0  0  0  0
    7.5696  -17.5471   24.1191 C   0  0  0  0  0  0  0  0  0  0  0  0
    8.3510  -18.4774   23.7921 O   0  0  0  0  0  0  0  0  0  0  0  0
    7.7870  -16.3111   23.4756 N   0  0  0  0  0  0  0  0  0  0  0  0
    8.8610  -16.0243   22.5453 C   0  0  1  0  0  0  0  0  0  0  0  0
    8.6261  -14.7293   21.8042 C   0  0  0  0  0  0  0  0  0  0  0  0
    8.3371  -14.9673   20.3371 C   0  0  0  0  0  0  0  0  0  0  0  0
    8.0946  -13.6998   19.5849 C   0  0  0  0  0  0  0  0  0  0  0  0
    7.7629  -13.9235   18.1323 C   0  0  0  0  0  0  0  0  0  0  0  0
    7.5026  -12.6260   17.5369 N   0  0  0  0  0  0  0  0  0  0  0  0
   10.1740  -15.9861   23.1721 C   0  0  0  0  0  0  0  0  0  0  0  0
   10.3735  -15.4818   24.2988 O   0  0  0  0  0  0  0  0  0  0  0  0
   11.2877  -16.5375   22.4969 N   0  0  0  0  0  0  0  0  0  0  0  0
   12.5791  -16.5624   23.1389 C   0  0  1  0  0  0  0  0  0  0  0  0
   12.8959  -17.9639   23.5550 C   0  0  0  0  0  0  0  0  0  0  0  0
   14.2557  -18.0801   24.0755 C   0  0  0  0  0  0  0  0  0  0  0  0
   15.2263  -18.5664   23.4615 O   0  0  0  0  0  0  0  0  0  0  0  0
   13.6328  -15.9793   22.2744 C   0  0  0  0  0  0  0  0  0  0  0  0
   13.3740  -15.6913   20.9530 O   0  0  0  0  0  0  0  0  0  0  0  0
   14.4621  -17.5932   25.3873 O   0  0  0  0  0  0  0  0  0  0  0  0
   14.7620  -15.7541   22.7699 O   0  0  0  0  0  0  0  0  0  0  0  0
  2  1  1  1
  2  5  1  0
  3  2  1  0
  3  4  1  0
  5  6  2  0
  7  5  1  0
  7  8  1  0
  8  9  1  1
 10  9  1  0
 11 10  1  0
 12 11  1  0
 13 12  1  0
 14  8  1  0
 14 15  2  0
 16 14  1  0
 17 16  1  0
 17 18  1  6
 19 18  1  0
 19 20  2  0
 21 22  1  0
 21 17  1  0
 23 19  1  0
 24 21  2  0
M  END
$$$$
