CKD.pdb
     RDKit          3D

 24 23  0  0  1  0  0  0  0  0999 V2000
   14.4193  -15.8010   16.1769 N   0  0  0  0  0  0  0  0  0  0  0  0
   13.9901  -17.0438   16.7733 C   0  0  1  0  0  0  0  0  0  0  0  0
   15.1459  -18.0051   16.8437 C   0  0  0  0  0  0  0  0  0  0  0  0
   15.7818  -18.4943   15.2447 S   0  0  0  0  0  0  0  0  0  0  0  0
   13.3503  -16.7820   18.0604 C   0  0  0  0  0  0  0  0  0  0  0  0
   13.8582  -15.9220   18.8254 O   0  0  0  0  0  0  0  0  0  0  0  0
   12.1867  -17.4175   18.5412 N   0  0  0  0  0  0  0  0  0  0  0  0
   11.5889  -17.2039   19.8444 C   0  0  1  0  0  0  0  0  0  0  0  0
   10.2097  -17.8135   19.9320 C   0  0  0  0  0  0  0  0  0  0  0  0
    9.4055  -17.5645   18.6735 C   0  0  0  0  0  0  0  0  0  0  0  0
    8.0623  -18.2169   18.7099 C   0  0  0  0  0  0  0  0  0  0  0  0
    7.3096  -18.1032   17.4097 C   0  0  0  0  0  0  0  0  0  0  0  0
    6.0628  -18.8304   17.5595 N   0  0  0  0  0  0  0  0  0  0  0  0
   12.4034  -17.7019   20.9428 C   0  0  0  0  0  0  0  0  0  0  0  0
   13.2627  -18.5988   20.7979 O   0  0  0  0  0  0  0  0  0  0  0  0
   12.2342  -17.1630   22.2394 N   0  0  0  0  0  0  0  0  0  0  0  0
   13.3665  -17.0501   23.1258 C   0  0  1  0  0  0  0  0  0  0  0  0
   14.3978  -16.1669   22.4981 C   0  0  0  0  0  0  0  0  0  0  0  0
   15.5949  -16.0576   23.3279 C   0  0  0  0  0  0  0  0  0  0  0  0
   15.6663  -15.4583   24.4193 O   0  0  0  0  0  0  0  0  0  0  0  0
   12.9642  -16.5781   24.4723 C   0  0  0  0  0  0  0  0  0  0  0  0
   13.5318  -17.1216   25.6030 O   0  0  0  0  0  0  0  0  0  0  0  0
   16.7560  -16.6930   22.8294 O   0  0  0  0  0  0  0  0  0  0  0  0
   12.0984  -15.6759   24.5604 O   0  0  0  0  0  0  0  0  0  0  0  0
  2  1  1  1
  2  5  1  0
  3  2  1  0
  3  4  1  0
  5  6  2  0
  7  5  1  0
  7  8  1  0
  8  9  1  6
 10  9  1  0
 11 10  1  0
 12 11  1  0
 13 12  1  0
 14  8  1  0
 14 15  2  0
 16 14  1  0
 17 16  1  0
 17 18  1  6
 19 18  1  0
 19 20  2  0
 21 22  1  0
 21 17  1  0
 23 19  1  0
 24 21  2  0
M  END
$$$$
