CKD.pdb
     RDKit          3D

 24 23  0  0  1  0  0  0  0  0999 V2000
    6.1272  -18.2253   25.6122 N   0  0  0  0  0  0  0  0  0  0  0  0
    6.4560  -16.8534   25.3054 C   0  0  1  0  0  0  0  0  0  0  0  0
    7.1140  -16.2056   26.4939 C   0  0  0  0  0  0  0  0  0  0  0  0
    7.7759  -14.5775   26.1593 S   0  0  0  0  0  0  0  0  0  0  0  0
    7.2463  -16.7947   24.0781 C   0  0  0  0  0  0  0  0  0  0  0  0
    8.0336  -17.7412   23.8188 O   0  0  0  0  0  0  0  0  0  0  0  0
    7.2111  -15.7511   23.1301 N   0  0  0  0  0  0  0  0  0  0  0  0
    8.0478  -15.6579   21.9500 C   0  0  1  0  0  0  0  0  0  0  0  0
    7.6147  -14.5271   21.0472 C   0  0  0  0  0  0  0  0  0  0  0  0
    8.3903  -14.5191   19.7468 C   0  0  0  0  0  0  0  0  0  0  0  0
    7.9227  -13.4593   18.8038 C   0  0  0  0  0  0  0  0  0  0  0  0
    8.5953  -13.5216   17.4571 C   0  0  0  0  0  0  0  0  0  0  0  0
    8.1111  -12.4010   16.6726 N   0  0  0  0  0  0  0  0  0  0  0  0
    9.4634  -15.5121   22.2550 C   0  0  0  0  0  0  0  0  0  0  0  0
    9.8935  -14.7103   23.1128 O   0  0  0  0  0  0  0  0  0  0  0  0
   10.4125  -16.3012   21.5645 N   0  0  0  0  0  0  0  0  0  0  0  0
   11.7970  -16.2801   21.9685 C   0  0  1  0  0  0  0  0  0  0  0  0
   11.9984  -17.2505   23.0889 C   0  0  0  0  0  0  0  0  0  0  0  0
   13.1828  -16.9265   23.8798 C   0  0  0  0  0  0  0  0  0  0  0  0
   13.9950  -16.0146   23.6260 O   0  0  0  0  0  0  0  0  0  0  0  0
   12.7057  -16.5410   20.8266 C   0  0  0  0  0  0  0  0  0  0  0  0
   14.0657  -16.3732   20.9618 O   0  0  0  0  0  0  0  0  0  0  0  0
   13.4042  -17.7286   25.0236 O   0  0  0  0  0  0  0  0  0  0  0  0
   12.2117  -16.9168   19.7375 O   0  0  0  0  0  0  0  0  0  0  0  0
  2  1  1  1
  2  5  1  0
  3  2  1  0
  3  4  1  0
  5  6  2  0
  7  5  1  0
  7  8  1  0
  8  9  1  1
 10  9  1  0
 11 10  1  0
 12 11  1  0
 13 12  1  0
 14  8  1  0
 14 15  2  0
 16 14  1  0
 17 16  1  0
 17 18  1  1
 19 18  1  0
 19 20  2  0
 21 22  1  0
 21 17  1  0
 23 19  1  0
 24 21  2  0
M  END
$$$$
