CKD.pdb
     RDKit          3D

 24 23  0  0  1  0  0  0  0  0999 V2000
    7.5989  -16.3119   20.0952 N   0  0  0  0  0  0  0  0  0  0  0  0
    8.8578  -15.6181   20.2297 C   0  0  1  0  0  0  0  0  0  0  0  0
    8.8335  -14.3497   19.4199 C   0  0  0  0  0  0  0  0  0  0  0  0
    7.6463  -13.1424   19.9973 S   0  0  0  0  0  0  0  0  0  0  0  0
    9.1667  -15.4193   21.6438 C   0  0  0  0  0  0  0  0  0  0  0  0
   10.2832  -14.9314   21.9570 O   0  0  0  0  0  0  0  0  0  0  0  0
    8.3108  -15.7300   22.7209 N   0  0  0  0  0  0  0  0  0  0  0  0
    8.6173  -15.5304   24.1235 C   0  0  1  0  0  0  0  0  0  0  0  0
    7.4049  -15.0730   24.8997 C   0  0  0  0  0  0  0  0  0  0  0  0
    7.4776  -13.5984   25.2356 C   0  0  0  0  0  0  0  0  0  0  0  0
    6.2901  -13.1244   26.0078 C   0  0  0  0  0  0  0  0  0  0  0  0
    6.3540  -11.6608   26.3595 C   0  0  0  0  0  0  0  0  0  0  0  0
    5.1604  -11.3399   27.1199 N   0  0  0  0  0  0  0  0  0  0  0  0
    9.1807  -16.7087   24.7657 C   0  0  0  0  0  0  0  0  0  0  0  0
    8.5777  -17.8026   24.8250 O   0  0  0  0  0  0  0  0  0  0  0  0
   10.4646  -16.6378   25.3545 N   0  0  0  0  0  0  0  0  0  0  0  0
   11.0097  -17.7876   26.0338 C   0  0  1  0  0  0  0  0  0  0  0  0
   12.4952  -17.8049   25.8594 C   0  0  0  0  0  0  0  0  0  0  0  0
   12.8742  -17.9302   24.4543 C   0  0  0  0  0  0  0  0  0  0  0  0
   12.2441  -18.5709   23.5894 O   0  0  0  0  0  0  0  0  0  0  0  0
   10.6092  -17.8226   27.4608 C   0  0  0  0  0  0  0  0  0  0  0  0
    9.9660  -16.7484   28.0338 O   0  0  0  0  0  0  0  0  0  0  0  0
   14.0582  -17.2595   24.0684 O   0  0  0  0  0  0  0  0  0  0  0  0
   10.8677  -18.8480   28.1339 O   0  0  0  0  0  0  0  0  0  0  0  0
  2  1  1  1
  2  5  1  0
  3  2  1  0
  3  4  1  0
  5  6  2  0
  7  5  1  0
  7  8  1  0
  8  9  1  1
 10  9  1  0
 11 10  1  0
 12 11  1  0
 13 12  1  0
 14  8  1  0
 14 15  2  0
 16 14  1  0
 17 16  1  0
 17 18  1  1
 19 18  1  0
 19 20  2  0
 21 22  1  0
 21 17  1  0
 23 19  1  0
 24 21  2  0
M  END
$$$$
