CKD.pdb
     RDKit          3D

 24 23  0  0  1  0  0  0  0  0999 V2000
    7.8827  -12.9925   17.4701 N   0  0  0  0  0  0  0  0  0  0  0  0
    8.4357  -14.3250   17.5240 C   0  0  1  0  0  0  0  0  0  0  0  0
    9.3593  -14.5446   16.3562 C   0  0  0  0  0  0  0  0  0  0  0  0
    8.8833  -15.9082   15.3004 S   0  0  0  0  0  0  0  0  0  0  0  0
    9.0546  -14.5535   18.8275 C   0  0  0  0  0  0  0  0  0  0  0  0
    9.7625  -13.6426   19.3298 O   0  0  0  0  0  0  0  0  0  0  0  0
    8.9320  -15.7282   19.5981 N   0  0  0  0  0  0  0  0  0  0  0  0
    9.6776  -16.0240   20.8055 C   0  0  1  0  0  0  0  0  0  0  0  0
    9.1195  -17.2295   21.5244 C   0  0  0  0  0  0  0  0  0  0  0  0
    9.9192  -17.5617   22.7665 C   0  0  0  0  0  0  0  0  0  0  0  0
    9.4154  -18.7812   23.4666 C   0  0  0  0  0  0  0  0  0  0  0  0
   10.2552  -19.1759   24.6536 C   0  0  0  0  0  0  0  0  0  0  0  0
    9.6228  -20.3241   25.2761 N   0  0  0  0  0  0  0  0  0  0  0  0
   11.1006  -16.2215   20.5726 C   0  0  0  0  0  0  0  0  0  0  0  0
   11.5451  -16.8761   19.6042 O   0  0  0  0  0  0  0  0  0  0  0  0
   12.0405  -15.6576   21.4662 N   0  0  0  0  0  0  0  0  0  0  0  0
   13.4516  -15.8704   21.2560 C   0  0  1  0  0  0  0  0  0  0  0  0
   14.0962  -14.5723   20.8857 C   0  0  0  0  0  0  0  0  0  0  0  0
   15.5098  -14.7430   20.5600 C   0  0  0  0  0  0  0  0  0  0  0  0
   15.9543  -15.3071   19.5403 O   0  0  0  0  0  0  0  0  0  0  0  0
   14.0925  -16.5022   22.4340 C   0  0  0  0  0  0  0  0  0  0  0  0
   15.1297  -17.3934   22.2726 O   0  0  0  0  0  0  0  0  0  0  0  0
   16.4305  -14.2156   21.4953 O   0  0  0  0  0  0  0  0  0  0  0  0
   13.6718  -16.2091   23.5780 O   0  0  0  0  0  0  0  0  0  0  0  0
  2  1  1  1
  2  5  1  0
  3  2  1  0
  3  4  1  0
  5  6  2  0
  7  5  1  0
  7  8  1  0
  8  9  1  6
 10  9  1  0
 11 10  1  0
 12 11  1  0
 13 12  1  0
 14  8  1  0
 14 15  2  0
 16 14  1  0
 17 16  1  0
 17 18  1  1
 19 18  1  0
 19 20  2  0
 21 22  1  0
 21 17  1  0
 23 19  1  0
 24 21  2  0
M  END
$$$$
