CKD.pdb
     RDKit          3D

 24 23  0  0  1  0  0  0  0  0999 V2000
    9.9287  -18.2546   15.2862 N   0  0  0  0  0  0  0  0  0  0  0  0
   10.6786  -19.3979   15.7495 C   0  0  1  0  0  0  0  0  0  0  0  0
   12.1327  -19.2346   15.3972 C   0  0  0  0  0  0  0  0  0  0  0  0
   12.9608  -17.9404   16.3136 S   0  0  0  0  0  0  0  0  0  0  0  0
   10.4283  -19.6124   17.1728 C   0  0  0  0  0  0  0  0  0  0  0  0
   10.1463  -18.6210   17.8942 O   0  0  0  0  0  0  0  0  0  0  0  0
   10.4733  -20.8573   17.8341 N   0  0  0  0  0  0  0  0  0  0  0  0
   10.3107  -21.0585   19.2604 C   0  0  1  0  0  0  0  0  0  0  0  0
    9.8165  -22.4509   19.5744 C   0  0  0  0  0  0  0  0  0  0  0  0
    9.4601  -22.6027   21.0381 C   0  0  0  0  0  0  0  0  0  0  0  0
    8.9594  -23.9702   21.3700 C   0  0  0  0  0  0  0  0  0  0  0  0
    8.4510  -24.0915   22.7832 C   0  0  0  0  0  0  0  0  0  0  0  0
    8.0593  -25.4731   22.9914 N   0  0  0  0  0  0  0  0  0  0  0  0
   11.5224  -20.7969   20.0231 C   0  0  0  0  0  0  0  0  0  0  0  0
   12.6639  -21.0893   19.6045 O   0  0  0  0  0  0  0  0  0  0  0  0
   11.4299  -20.1858   21.2951 N   0  0  0  0  0  0  0  0  0  0  0  0
   12.6237  -19.9515   22.0700 C   0  0  1  0  0  0  0  0  0  0  0  0
   12.6310  -18.5340   22.5479 C   0  0  0  0  0  0  0  0  0  0  0  0
   12.9754  -17.6029   21.4765 C   0  0  0  0  0  0  0  0  0  0  0  0
   13.8732  -17.7762   20.6283 O   0  0  0  0  0  0  0  0  0  0  0  0
   12.7548  -20.9222   23.1827 C   0  0  0  0  0  0  0  0  0  0  0  0
   13.9683  -21.1149   23.8042 O   0  0  0  0  0  0  0  0  0  0  0  0
   12.2121  -16.4135   21.4184 O   0  0  0  0  0  0  0  0  0  0  0  0
   11.7403  -21.5629   23.5456 O   0  0  0  0  0  0  0  0  0  0  0  0
  2  1  1  1
  2  5  1  0
  3  2  1  0
  3  4  1  0
  5  6  2  0
  7  5  1  0
  7  8  1  0
  8  9  1  6
 10  9  1  0
 11 10  1  0
 12 11  1  0
 13 12  1  0
 14  8  1  0
 14 15  2  0
 16 14  1  0
 17 16  1  0
 17 18  1  1
 19 18  1  0
 19 20  2  0
 21 22  1  0
 21 17  1  0
 23 19  1  0
 24 21  2  0
M  END
$$$$
