CKD.pdb
     RDKit          3D

 24 23  0  0  1  0  0  0  0  0999 V2000
   10.0177  -16.0706   18.2859 N   0  0  0  0  0  0  0  0  0  0  0  0
    8.9289  -16.2680   19.2130 C   0  0  1  0  0  0  0  0  0  0  0  0
    8.5432  -17.7223   19.2492 C   0  0  0  0  0  0  0  0  0  0  0  0
    7.7651  -18.3047   17.7472 S   0  0  0  0  0  0  0  0  0  0  0  0
    9.2793  -15.7094   20.5167 C   0  0  0  0  0  0  0  0  0  0  0  0
   10.4936  -15.6367   20.8379 O   0  0  0  0  0  0  0  0  0  0  0  0
    8.3630  -15.2307   21.4761 N   0  0  0  0  0  0  0  0  0  0  0  0
    8.6945  -14.8277   22.8284 C   0  0  1  0  0  0  0  0  0  0  0  0
    7.5463  -14.1051   23.4924 C   0  0  0  0  0  0  0  0  0  0  0  0
    7.8995  -13.6616   24.8963 C   0  0  0  0  0  0  0  0  0  0  0  0
    6.7597  -12.9935   25.5931 C   0  0  0  0  0  0  0  0  0  0  0  0
    7.1296  -12.4412   26.9452 C   0  0  0  0  0  0  0  0  0  0  0  0
    5.9321  -11.8618   27.5250 N   0  0  0  0  0  0  0  0  0  0  0  0
    9.1175  -15.9340   23.6742 C   0  0  0  0  0  0  0  0  0  0  0  0
    8.4763  -17.0040   23.7626 O   0  0  0  0  0  0  0  0  0  0  0  0
   10.3021  -15.8174   24.4379 N   0  0  0  0  0  0  0  0  0  0  0  0
   10.7389  -16.9178   25.2619 C   0  0  1  0  0  0  0  0  0  0  0  0
   12.2315  -17.0058   25.2162 C   0  0  0  0  0  0  0  0  0  0  0  0
   12.7198  -17.2244   23.8570 C   0  0  0  0  0  0  0  0  0  0  0  0
   12.3605  -18.1472   23.0988 O   0  0  0  0  0  0  0  0  0  0  0  0
   10.2231  -16.8042   26.6471 C   0  0  0  0  0  0  0  0  0  0  0  0
   10.4556  -17.8041   27.5648 O   0  0  0  0  0  0  0  0  0  0  0  0
   13.6793  -16.2983   23.3856 O   0  0  0  0  0  0  0  0  0  0  0  0
    9.5722  -15.7812   26.9654 O   0  0  0  0  0  0  0  0  0  0  0  0
  2  1  1  6
  2  5  1  0
  3  2  1  0
  3  4  1  0
  5  6  2  0
  7  5  1  0
  7  8  1  0
  8  9  1  1
 10  9  1  0
 11 10  1  0
 12 11  1  0
 13 12  1  0
 14  8  1  0
 14 15  2  0
 16 14  1  0
 17 16  1  0
 17 18  1  1
 19 18  1  0
 19 20  2  0
 21 22  1  0
 21 17  1  0
 23 19  1  0
 24 21  2  0
M  END
$$$$
