CKD.pdb
     RDKit          3D

 24 23  0  0  1  0  0  0  0  0999 V2000
    5.4625  -15.8254   12.3607 N   0  0  0  0  0  0  0  0  0  0  0  0
    5.2972  -17.2512   12.5162 C   0  0  1  0  0  0  0  0  0  0  0  0
    6.1043  -17.9777   11.4742 C   0  0  0  0  0  0  0  0  0  0  0  0
    5.5689  -17.6686    9.7954 S   0  0  0  0  0  0  0  0  0  0  0  0
    5.6057  -17.6399   13.8903 C   0  0  0  0  0  0  0  0  0  0  0  0
    6.3713  -16.9081   14.5694 O   0  0  0  0  0  0  0  0  0  0  0  0
    5.1148  -18.7875   14.5470 N   0  0  0  0  0  0  0  0  0  0  0  0
    5.3503  -19.1271   15.9364 C   0  0  1  0  0  0  0  0  0  0  0  0
    4.4138  -20.2128   16.4115 C   0  0  0  0  0  0  0  0  0  0  0  0
    3.0295  -19.6722   16.7013 C   0  0  0  0  0  0  0  0  0  0  0  0
    2.0746  -20.7363   17.1337 C   0  0  0  0  0  0  0  0  0  0  0  0
    0.6803  -20.2210   17.3794 C   0  0  0  0  0  0  0  0  0  0  0  0
   -0.1576  -21.3605   17.7039 N   0  0  0  0  0  0  0  0  0  0  0  0
    6.7232  -19.5253   16.2096 C   0  0  0  0  0  0  0  0  0  0  0  0
    7.4518  -20.0780   15.3567 O   0  0  0  0  0  0  0  0  0  0  0  0
    7.2796  -19.2864   17.4877 N   0  0  0  0  0  0  0  0  0  0  0  0
    8.6421  -19.6713   17.7634 C   0  0  1  0  0  0  0  0  0  0  0  0
    9.2120  -18.7577   18.8018 C   0  0  0  0  0  0  0  0  0  0  0  0
   10.6145  -19.0587   19.0771 C   0  0  0  0  0  0  0  0  0  0  0  0
   11.2825  -19.9581   18.5290 O   0  0  0  0  0  0  0  0  0  0  0  0
    8.7409  -21.0984   18.1526 C   0  0  0  0  0  0  0  0  0  0  0  0
    9.7482  -21.8923   17.6518 O   0  0  0  0  0  0  0  0  0  0  0  0
   11.2440  -18.2482   20.0504 O   0  0  0  0  0  0  0  0  0  0  0  0
    7.8902  -21.5666   18.9454 O   0  0  0  0  0  0  0  0  0  0  0  0
  2  1  1  1
  2  5  1  0
  3  2  1  0
  3  4  1  0
  5  6  2  0
  7  5  1  0
  7  8  1  0
  8  9  1  6
 10  9  1  0
 11 10  1  0
 12 11  1  0
 13 12  1  0
 14  8  1  0
 14 15  2  0
 16 14  1  0
 17 16  1  0
 17 18  1  1
 19 18  1  0
 19 20  2  0
 21 22  1  0
 21 17  1  0
 23 19  1  0
 24 21  2  0
M  END
$$$$
