CKD.pdb
     RDKit          3D

 24 23  0  0  1  0  0  0  0  0999 V2000
    8.3962  -13.1655   18.0694 N   0  0  0  0  0  0  0  0  0  0  0  0
    7.5211  -13.8954   18.9557 C   0  0  1  0  0  0  0  0  0  0  0  0
    7.2715  -15.2751   18.4086 C   0  0  0  0  0  0  0  0  0  0  0  0
    8.4839  -16.4882   18.9176 S   0  0  0  0  0  0  0  0  0  0  0  0
    8.0624  -13.8788   20.3126 C   0  0  0  0  0  0  0  0  0  0  0  0
    9.3029  -13.7378   20.4682 O   0  0  0  0  0  0  0  0  0  0  0  0
    7.3082  -14.0090   21.4973 N   0  0  0  0  0  0  0  0  0  0  0  0
    7.8396  -13.9438   22.8443 C   0  0  1  0  0  0  0  0  0  0  0  0
    6.8155  -13.4193   23.8230 C   0  0  0  0  0  0  0  0  0  0  0  0
    7.4291  -13.1335   25.1774 C   0  0  0  0  0  0  0  0  0  0  0  0
    6.4721  -12.4737   26.1155 C   0  0  0  0  0  0  0  0  0  0  0  0
    7.1096  -12.0428   27.4109 C   0  0  0  0  0  0  0  0  0  0  0  0
    6.0682  -11.4686   28.2425 N   0  0  0  0  0  0  0  0  0  0  0  0
    8.3536  -15.2175   23.3255 C   0  0  0  0  0  0  0  0  0  0  0  0
    7.7050  -16.2838   23.2475 O   0  0  0  0  0  0  0  0  0  0  0  0
    9.6401  -15.2767   23.9099 N   0  0  0  0  0  0  0  0  0  0  0  0
   10.1568  -16.5359   24.3875 C   0  0  1  0  0  0  0  0  0  0  0  0
   11.6511  -16.5116   24.3239 C   0  0  0  0  0  0  0  0  0  0  0  0
   12.1335  -16.4374   22.9473 C   0  0  0  0  0  0  0  0  0  0  0  0
   11.5710  -16.9425   21.9553 O   0  0  0  0  0  0  0  0  0  0  0  0
    9.6555  -16.8548   25.7457 C   0  0  0  0  0  0  0  0  0  0  0  0
    8.9961  -15.9022   26.4900 O   0  0  0  0  0  0  0  0  0  0  0  0
   13.3412  -15.7279   22.7500 O   0  0  0  0  0  0  0  0  0  0  0  0
    9.8437  -18.0071   26.2020 O   0  0  0  0  0  0  0  0  0  0  0  0
  2  1  1  6
  2  5  1  0
  3  2  1  0
  3  4  1  0
  5  6  2  0
  7  5  1  0
  7  8  1  0
  8  9  1  1
 10  9  1  0
 11 10  1  0
 12 11  1  0
 13 12  1  0
 14  8  1  0
 14 15  2  0
 16 14  1  0
 17 16  1  0
 17 18  1  1
 19 18  1  0
 19 20  2  0
 21 22  1  0
 21 17  1  0
 23 19  1  0
 24 21  2  0
M  END
$$$$
