CKD.pdb
     RDKit          3D

 24 23  0  0  1  0  0  0  0  0999 V2000
    6.6601  -13.0970   18.1518 N   0  0  0  0  0  0  0  0  0  0  0  0
    8.0315  -13.4090   18.4778 C   0  0  1  0  0  0  0  0  0  0  0  0
    8.7243  -12.1828   19.0083 C   0  0  0  0  0  0  0  0  0  0  0  0
    9.1181  -10.9709   17.7526 S   0  0  0  0  0  0  0  0  0  0  0  0
    8.0787  -14.5592   19.3774 C   0  0  0  0  0  0  0  0  0  0  0  0
    7.2454  -14.6274   20.3175 O   0  0  0  0  0  0  0  0  0  0  0  0
    8.9930  -15.6296   19.2914 N   0  0  0  0  0  0  0  0  0  0  0  0
    9.0396  -16.7701   20.1849 C   0  0  1  0  0  0  0  0  0  0  0  0
    8.8578  -18.0708   19.4388 C   0  0  0  0  0  0  0  0  0  0  0  0
    7.4648  -18.1945   18.8586 C   0  0  0  0  0  0  0  0  0  0  0  0
    7.2755  -19.4544   18.0789 C   0  0  0  0  0  0  0  0  0  0  0  0
    5.9382  -19.5328   17.3893 C   0  0  0  0  0  0  0  0  0  0  0  0
    5.8427  -20.8389   16.7644 N   0  0  0  0  0  0  0  0  0  0  0  0
   10.2607  -16.8370   20.9739 C   0  0  0  0  0  0  0  0  0  0  0  0
   11.3955  -16.6431   20.4855 O   0  0  0  0  0  0  0  0  0  0  0  0
   10.1858  -17.1320   22.3550 N   0  0  0  0  0  0  0  0  0  0  0  0
   11.3946  -17.2465   23.1335 C   0  0  1  0  0  0  0  0  0  0  0  0
   11.0606  -17.1122   24.5854 C   0  0  0  0  0  0  0  0  0  0  0  0
   12.2498  -17.2182   25.4269 C   0  0  0  0  0  0  0  0  0  0  0  0
   12.3199  -17.8412   26.5051 O   0  0  0  0  0  0  0  0  0  0  0  0
   12.1214  -18.5040   22.8363 C   0  0  0  0  0  0  0  0  0  0  0  0
   11.5068  -19.5193   22.1380 O   0  0  0  0  0  0  0  0  0  0  0  0
   13.4044  -16.5499   24.9571 O   0  0  0  0  0  0  0  0  0  0  0  0
   13.3045  -18.6240   23.2329 O   0  0  0  0  0  0  0  0  0  0  0  0
  2  1  1  1
  2  5  1  0
  3  2  1  0
  3  4  1  0
  5  6  2  0
  7  5  1  0
  7  8  1  0
  8  9  1  6
 10  9  1  0
 11 10  1  0
 12 11  1  0
 13 12  1  0
 14  8  1  0
 14 15  2  0
 16 14  1  0
 17 16  1  0
 17 18  1  1
 19 18  1  0
 19 20  2  0
 21 22  1  0
 21 17  1  0
 23 19  1  0
 24 21  2  0
M  END
$$$$
