CKD.pdb
     RDKit          3D

 24 23  0  0  1  0  0  0  0  0999 V2000
    7.7241  -13.7063   19.5858 N   0  0  0  0  0  0  0  0  0  0  0  0
    7.3293  -14.6336   20.6195 C   0  0  1  0  0  0  0  0  0  0  0  0
    7.0156  -15.9747   20.0130 C   0  0  0  0  0  0  0  0  0  0  0  0
    5.3380  -16.1242   19.4097 S   0  0  0  0  0  0  0  0  0  0  0  0
    8.3481  -14.6738   21.6660 C   0  0  0  0  0  0  0  0  0  0  0  0
    9.5591  -14.5884   21.3359 O   0  0  0  0  0  0  0  0  0  0  0  0
    8.0983  -14.8025   23.0480 N   0  0  0  0  0  0  0  0  0  0  0  0
    9.1106  -14.9335   24.0773 C   0  0  1  0  0  0  0  0  0  0  0  0
    8.5526  -14.6373   25.4493 C   0  0  0  0  0  0  0  0  0  0  0  0
    9.6258  -14.6950   26.5157 C   0  0  0  0  0  0  0  0  0  0  0  0
    9.0859  -14.4653   27.8892 C   0  0  0  0  0  0  0  0  0  0  0  0
   10.1405  -14.5347   28.9630 C   0  0  0  0  0  0  0  0  0  0  0  0
    9.4725  -14.3947   30.2436 N   0  0  0  0  0  0  0  0  0  0  0  0
    9.7534  -16.2391   24.0932 C   0  0  0  0  0  0  0  0  0  0  0  0
    9.1136  -17.3112   24.0217 O   0  0  0  0  0  0  0  0  0  0  0  0
   11.1616  -16.3242   24.1926 N   0  0  0  0  0  0  0  0  0  0  0  0
   11.8129  -17.6087   24.1114 C   0  0  1  0  0  0  0  0  0  0  0  0
   12.9755  -17.5136   23.1750 C   0  0  0  0  0  0  0  0  0  0  0  0
   13.6966  -18.7800   23.0763 C   0  0  0  0  0  0  0  0  0  0  0  0
   13.2316  -19.9014   23.3624 O   0  0  0  0  0  0  0  0  0  0  0  0
   12.2067  -18.1096   25.4500 C   0  0  0  0  0  0  0  0  0  0  0  0
   12.2133  -17.2666   26.5387 O   0  0  0  0  0  0  0  0  0  0  0  0
   15.0314  -18.7003   22.6155 O   0  0  0  0  0  0  0  0  0  0  0  0
   12.5329  -19.3140   25.5702 O   0  0  0  0  0  0  0  0  0  0  0  0
  2  1  1  6
  2  5  1  0
  3  2  1  0
  3  4  1  0
  5  6  2  0
  7  5  1  0
  7  8  1  0
  8  9  1  1
 10  9  1  0
 11 10  1  0
 12 11  1  0
 13 12  1  0
 14  8  1  0
 14 15  2  0
 16 14  1  0
 17 16  1  0
 17 18  1  6
 19 18  1  0
 19 20  2  0
 21 22  1  0
 21 17  1  0
 23 19  1  0
 24 21  2  0
M  END
$$$$
