DWR.pdb
     RDKit          3D

 34 35  0  0  1  0  0  0  0  0999 V2000
   10.0718  -19.3091   18.7329 N   0  0  0  0  0  0  0  0  0  0  0  0
   10.8536  -18.1588   18.3933 C   0  0  1  0  0  0  0  0  0  0  0  0
   10.3565  -17.4949   17.1574 C   0  0  0  0  0  0  0  0  0  0  0  0
   11.0742  -17.8720   15.9344 C   0  0  0  0  0  0  0  0  0  0  0  0
   11.8517  -18.8676   15.8345 O   0  0  0  0  0  0  0  0  0  0  0  0
   10.8686  -17.1692   19.5299 C   0  0  0  0  0  0  0  0  0  0  0  0
   11.4821  -16.0785   19.4445 O   0  0  0  0  0  0  0  0  0  0  0  0
   10.9027  -17.0958   14.7975 O   0  0  0  0  0  0  0  0  0  0  0  0
   10.1814  -17.4454   20.7433 N   0  0  0  0  0  0  0  0  0  0  0  0
   10.2177  -16.6606   21.9337 C   0  0  1  0  0  0  0  0  0  0  0  0
    8.9045  -16.4031   22.5796 C   0  0  0  0  0  0  0  0  0  0  0  0
    7.9286  -15.6627   21.7572 C   0  0  0  0  0  0  0  0  0  0  0  0
    6.7471  -16.1498   21.2404 C   0  0  0  0  0  0  0  0  0  0  0  0
    6.1222  -15.1782   20.5604 N   0  0  0  0  0  0  0  0  0  0  0  0
    6.8534  -14.0535   20.6078 C   0  0  0  0  0  0  0  0  0  0  0  0
    6.6191  -12.8080   20.0555 C   0  0  0  0  0  0  0  0  0  0  0  0
    7.5446  -11.8068   20.2487 C   0  0  0  0  0  0  0  0  0  0  0  0
    8.6741  -12.0867   20.9894 C   0  0  0  0  0  0  0  0  0  0  0  0
    8.9061  -13.3252   21.5378 C   0  0  0  0  0  0  0  0  0  0  0  0
    7.9812  -14.3425   21.3494 C   0  0  0  0  0  0  0  0  0  0  0  0
   11.1835  -17.2535   22.9339 C   0  0  0  0  0  0  0  0  0  0  0  0
   10.9711  -18.4342   23.3002 O   0  0  0  0  0  0  0  0  0  0  0  0
   20.7762  -17.2138   24.1151 N   0  0  0  0  0  0  0  0  0  0  0  0
   19.6157  -16.4561   23.8349 C   0  0  0  0  0  0  0  0  0  0  0  0
   19.6546  -15.2693   23.3182 N   0  0  0  0  0  0  0  0  0  0  0  0
   18.3476  -17.0368   24.1380 N   0  0  0  0  0  0  0  0  0  0  0  0
   17.0980  -16.3561   23.8184 C   0  0  0  0  0  0  0  0  0  0  0  0
   15.9294  -17.2659   24.0981 C   0  0  0  0  0  0  0  0  0  0  0  0
   14.6583  -16.5529   23.7265 C   0  0  0  0  0  0  0  0  0  0  0  0
   13.4058  -17.3319   23.9976 C   0  0  2  0  0  0  0  0  0  0  0  0
   12.2813  -16.5542   23.4572 N   0  0  0  0  0  0  0  0  0  0  0  0
   13.1855  -17.5907   25.4501 C   0  0  0  0  0  0  0  0  0  0  0  0
   12.1403  -17.0630   26.1794 O   0  0  0  0  0  0  0  0  0  0  0  0
   13.9956  -18.3440   26.0889 O   0  0  0  0  0  0  0  0  0  0  0  0
  2  1  1  1
  2  3  1  0
  4  3  1  0
  4  8  1  0
  5  4  2  0
  6  7  2  0
  6  2  1  0
  9  6  1  0
 10  9  1  0
 11 12  1  0
 10 11  1  1
 12 13  2  0
 12 20  1  0
 13 14  1  0
 14 15  1  0
 15 16  2  0
 16 17  1  0
 18 17  2  0
 19 18  1  0
 20 19  2  0
 20 15  1  0
 21 10  1  0
 22 21  2  0
 23 24  1  0
 24 25  2  0
 26 24  1  0
 26 27  1  0
 27 28  1  0
 28 29  1  0
 30 29  1  1
 30 31  1  0
 31 21  1  0
 32 30  1  0
 33 32  1  0
 34 32  2  0
M  END
$$$$
