DWR.pdb
     RDKit          3D

 34 35  0  0  1  0  0  0  0  0999 V2000
    9.1089  -16.1515   18.3410 N   0  0  0  0  0  0  0  0  0  0  0  0
   10.1374  -16.5037   19.2724 C   0  0  1  0  0  0  0  0  0  0  0  0
   11.4930  -16.1758   18.7527 C   0  0  0  0  0  0  0  0  0  0  0  0
   11.7961  -16.7536   17.4384 C   0  0  0  0  0  0  0  0  0  0  0  0
   11.7475  -17.9905   17.1678 O   0  0  0  0  0  0  0  0  0  0  0  0
    9.9199  -15.8128   20.5941 C   0  0  0  0  0  0  0  0  0  0  0  0
   10.7039  -14.9262   21.0099 O   0  0  0  0  0  0  0  0  0  0  0  0
   12.1645  -15.9018   16.4072 O   0  0  0  0  0  0  0  0  0  0  0  0
    8.8094  -16.1484   21.4156 N   0  0  0  0  0  0  0  0  0  0  0  0
    8.5537  -15.6629   22.7322 C   0  0  1  0  0  0  0  0  0  0  0  0
    7.1281  -15.6481   23.1511 C   0  0  0  0  0  0  0  0  0  0  0  0
    6.8867  -15.2945   24.5631 C   0  0  0  0  0  0  0  0  0  0  0  0
    6.7151  -16.1688   25.6149 C   0  0  0  0  0  0  0  0  0  0  0  0
    6.5343  -15.4755   26.7479 N   0  0  0  0  0  0  0  0  0  0  0  0
    6.5803  -14.1603   26.4831 C   0  0  0  0  0  0  0  0  0  0  0  0
    6.4428  -13.0713   27.3237 C   0  0  0  0  0  0  0  0  0  0  0  0
    6.5259  -11.8033   26.7931 C   0  0  0  0  0  0  0  0  0  0  0  0
    6.7445  -11.6685   25.4378 C   0  0  0  0  0  0  0  0  0  0  0  0
    6.8809  -12.7517   24.6032 C   0  0  0  0  0  0  0  0  0  0  0  0
    6.7982  -14.0346   25.1259 C   0  0  0  0  0  0  0  0  0  0  0  0
    9.3877  -16.4101   23.7474 C   0  0  0  0  0  0  0  0  0  0  0  0
    9.3095  -17.6620   23.7385 O   0  0  0  0  0  0  0  0  0  0  0  0
   15.2578  -14.9939   21.3284 N   0  0  0  0  0  0  0  0  0  0  0  0
   14.6600  -16.2476   21.0628 C   0  0  0  0  0  0  0  0  0  0  0  0
   14.9728  -16.9766   20.0393 N   0  0  0  0  0  0  0  0  0  0  0  0
   13.6683  -16.7225   21.9726 N   0  0  0  0  0  0  0  0  0  0  0  0
   14.0156  -17.1801   23.3131 C   0  0  0  0  0  0  0  0  0  0  0  0
   12.7727  -17.6110   24.0489 C   0  0  0  0  0  0  0  0  0  0  0  0
   12.4413  -16.5777   25.0903 C   0  0  0  0  0  0  0  0  0  0  0  0
   11.0241  -16.6191   25.5790 C   0  0  2  0  0  0  0  0  0  0  0  0
   10.2255  -15.7764   24.6771 N   0  0  0  0  0  0  0  0  0  0  0  0
   10.8788  -16.1322   26.9815 C   0  0  0  0  0  0  0  0  0  0  0  0
   11.0258  -16.9312   28.0963 O   0  0  0  0  0  0  0  0  0  0  0  0
   10.6020  -14.9044   27.1999 O   0  0  0  0  0  0  0  0  0  0  0  0
  2  1  1  6
  2  3  1  0
  4  3  1  0
  4  8  1  0
  5  4  2  0
  6  7  2  0
  6  2  1  0
  9  6  1  0
 10  9  1  0
 11 12  1  0
 10 11  1  1
 12 13  2  0
 12 20  1  0
 13 14  1  0
 14 15  1  0
 15 16  2  0
 16 17  1  0
 18 17  2  0
 19 18  1  0
 20 19  2  0
 20 15  1  0
 21 10  1  0
 22 21  2  0
 23 24  1  0
 24 25  2  0
 26 24  1  0
 26 27  1  0
 27 28  1  0
 28 29  1  0
 30 29  1  6
 30 31  1  0
 31 21  1  0
 32 30  1  0
 33 32  1  0
 34 32  2  0
M  END
$$$$
