DWR.pdb
     RDKit          3D

 34 35  0  0  1  0  0  0  0  0999 V2000
   10.4441  -16.3848   18.7915 N   0  0  0  0  0  0  0  0  0  0  0  0
   10.8922  -17.2487   19.8414 C   0  0  1  0  0  0  0  0  0  0  0  0
   12.3341  -17.5904   19.7018 C   0  0  0  0  0  0  0  0  0  0  0  0
   12.7087  -18.1187   18.3851 C   0  0  0  0  0  0  0  0  0  0  0  0
   12.0112  -18.9353   17.7126 O   0  0  0  0  0  0  0  0  0  0  0  0
   10.6477  -16.6214   21.1898 C   0  0  0  0  0  0  0  0  0  0  0  0
   11.5674  -16.0570   21.8294 O   0  0  0  0  0  0  0  0  0  0  0  0
   13.9076  -17.7076   17.8210 O   0  0  0  0  0  0  0  0  0  0  0  0
    9.3554  -16.6507   21.7815 N   0  0  0  0  0  0  0  0  0  0  0  0
    8.9760  -16.0440   23.0153 C   0  0  1  0  0  0  0  0  0  0  0  0
    7.5421  -15.6748   23.1411 C   0  0  0  0  0  0  0  0  0  0  0  0
    7.1609  -15.0419   24.4182 C   0  0  0  0  0  0  0  0  0  0  0  0
    6.5593  -15.6556   25.4961 C   0  0  0  0  0  0  0  0  0  0  0  0
    6.3827  -14.7611   26.4788 N   0  0  0  0  0  0  0  0  0  0  0  0
    6.8499  -13.5649   26.0881 C   0  0  0  0  0  0  0  0  0  0  0  0
    6.8800  -12.3534   26.7535 C   0  0  0  0  0  0  0  0  0  0  0  0
    7.4167  -11.2557   26.1185 C   0  0  0  0  0  0  0  0  0  0  0  0
    7.9059  -11.4084   24.8378 C   0  0  0  0  0  0  0  0  0  0  0  0
    7.8753  -12.6131   24.1772 C   0  0  0  0  0  0  0  0  0  0  0  0
    7.3362  -13.7264   24.8064 C   0  0  0  0  0  0  0  0  0  0  0  0
    9.3974  -16.9043   24.1844 C   0  0  0  0  0  0  0  0  0  0  0  0
    9.0390  -18.1062   24.1657 O   0  0  0  0  0  0  0  0  0  0  0  0
   16.7781  -18.3018   28.0592 N   0  0  0  0  0  0  0  0  0  0  0  0
   15.8955  -19.0857   28.8377 C   0  0  0  0  0  0  0  0  0  0  0  0
   16.2956  -20.0525   29.6008 N   0  0  0  0  0  0  0  0  0  0  0  0
   14.5013  -18.7878   28.7731 N   0  0  0  0  0  0  0  0  0  0  0  0
   13.9490  -17.9321   27.7292 C   0  0  0  0  0  0  0  0  0  0  0  0
   12.4640  -17.7688   27.9285 C   0  0  0  0  0  0  0  0  0  0  0  0
   11.9113  -16.9348   26.8056 C   0  0  0  0  0  0  0  0  0  0  0  0
   10.5741  -17.3839   26.2967 C   0  0  2  0  0  0  0  0  0  0  0  0
   10.1546  -16.4254   25.2638 N   0  0  0  0  0  0  0  0  0  0  0  0
    9.5382  -17.4534   27.3679 C   0  0  0  0  0  0  0  0  0  0  0  0
    8.4001  -16.6745   27.3943 O   0  0  0  0  0  0  0  0  0  0  0  0
    9.6822  -18.2750   28.3353 O   0  0  0  0  0  0  0  0  0  0  0  0
  2  1  1  6
  2  3  1  0
  4  3  1  0
  4  8  1  0
  5  4  2  0
  6  7  2  0
  6  2  1  0
  9  6  1  0
 10  9  1  0
 11 12  1  0
 10 11  1  6
 12 13  2  0
 12 20  1  0
 13 14  1  0
 14 15  1  0
 15 16  2  0
 16 17  1  0
 18 17  2  0
 19 18  1  0
 20 19  2  0
 20 15  1  0
 21 10  1  0
 22 21  2  0
 23 24  1  0
 24 25  2  0
 26 24  1  0
 26 27  1  0
 27 28  1  0
 28 29  1  0
 30 29  1  1
 30 31  1  0
 31 21  1  0
 32 30  1  0
 33 32  1  0
 34 32  2  0
M  END
$$$$
