DWR.pdb
     RDKit          3D

 34 35  0  0  1  0  0  0  0  0999 V2000
    5.6921  -16.5827   21.2615 N   0  0  0  0  0  0  0  0  0  0  0  0
    7.0033  -17.1210   21.0601 C   0  0  1  0  0  0  0  0  0  0  0  0
    7.4294  -17.0273   19.6371 C   0  0  0  0  0  0  0  0  0  0  0  0
    8.6771  -17.7351   19.3285 C   0  0  0  0  0  0  0  0  0  0  0  0
    8.9650  -18.8984   19.7403 O   0  0  0  0  0  0  0  0  0  0  0  0
    8.0084  -16.4205   21.9380 C   0  0  0  0  0  0  0  0  0  0  0  0
    8.6048  -15.3845   21.5579 O   0  0  0  0  0  0  0  0  0  0  0  0
    9.6204  -17.1023   18.5321 O   0  0  0  0  0  0  0  0  0  0  0  0
    8.3125  -16.9177   23.2346 N   0  0  0  0  0  0  0  0  0  0  0  0
    9.1956  -16.3224   24.1833 C   0  0  1  0  0  0  0  0  0  0  0  0
    8.6665  -16.1891   25.5654 C   0  0  0  0  0  0  0  0  0  0  0  0
    7.5434  -15.2455   25.7251 C   0  0  0  0  0  0  0  0  0  0  0  0
    6.1998  -15.5536   25.7202 C   0  0  0  0  0  0  0  0  0  0  0  0
    5.4840  -14.4359   25.9082 N   0  0  0  0  0  0  0  0  0  0  0  0
    6.3121  -13.3875   26.0390 C   0  0  0  0  0  0  0  0  0  0  0  0
    6.0372  -12.0479   26.2418 C   0  0  0  0  0  0  0  0  0  0  0  0
    7.0840  -11.1582   26.3368 C   0  0  0  0  0  0  0  0  0  0  0  0
    8.3716  -11.6404   26.2258 C   0  0  0  0  0  0  0  0  0  0  0  0
    8.6437  -12.9722   26.0240 C   0  0  0  0  0  0  0  0  0  0  0  0
    7.5972  -13.8785   25.9259 C   0  0  0  0  0  0  0  0  0  0  0  0
   10.5239  -17.0436   24.2008 C   0  0  0  0  0  0  0  0  0  0  0  0
   10.4942  -18.2890   24.3467 O   0  0  0  0  0  0  0  0  0  0  0  0
   15.6826  -14.6222   21.4791 N   0  0  0  0  0  0  0  0  0  0  0  0
   16.8869  -15.3317   21.6927 C   0  0  0  0  0  0  0  0  0  0  0  0
   18.0040  -14.7516   21.9972 N   0  0  0  0  0  0  0  0  0  0  0  0
   16.8582  -16.7529   21.5659 N   0  0  0  0  0  0  0  0  0  0  0  0
   15.7634  -17.5480   22.1102 C   0  0  0  0  0  0  0  0  0  0  0  0
   15.4273  -17.0777   23.5022 C   0  0  0  0  0  0  0  0  0  0  0  0
   14.0784  -16.4129   23.4785 C   0  0  0  0  0  0  0  0  0  0  0  0
   12.9824  -17.2060   24.1255 C   0  0  2  0  0  0  0  0  0  0  0  0
   11.7591  -16.3929   24.0641 N   0  0  0  0  0  0  0  0  0  0  0  0
   13.2803  -17.5590   25.5440 C   0  0  0  0  0  0  0  0  0  0  0  0
   12.5559  -17.0981   26.6237 O   0  0  0  0  0  0  0  0  0  0  0  0
   14.2594  -18.3346   25.8111 O   0  0  0  0  0  0  0  0  0  0  0  0
  2  1  1  6
  2  3  1  0
  4  3  1  0
  4  8  1  0
  5  4  2  0
  6  7  2  0
  6  2  1  0
  9  6  1  0
 10  9  1  0
 11 12  1  0
 10 11  1  1
 12 13  2  0
 12 20  1  0
 13 14  1  0
 14 15  1  0
 15 16  2  0
 16 17  1  0
 18 17  2  0
 19 18  1  0
 20 19  2  0
 20 15  1  0
 21 10  1  0
 22 21  2  0
 23 24  1  0
 24 25  2  0
 26 24  1  0
 26 27  1  0
 27 28  1  0
 28 29  1  0
 30 29  1  1
 30 31  1  0
 31 21  1  0
 32 30  1  0
 33 32  1  0
 34 32  2  0
M  END
$$$$
