DWR.pdb
     RDKit          3D

 34 35  0  0  1  0  0  0  0  0999 V2000
    5.6085  -16.9236   20.8180 N   0  0  0  0  0  0  0  0  0  0  0  0
    6.9282  -17.4649   20.6960 C   0  0  1  0  0  0  0  0  0  0  0  0
    7.3164  -17.6660   19.2733 C   0  0  0  0  0  0  0  0  0  0  0  0
    6.5502  -18.7046   18.5753 C   0  0  0  0  0  0  0  0  0  0  0  0
    5.7047  -19.4691   19.1287 O   0  0  0  0  0  0  0  0  0  0  0  0
    7.9355  -16.5734   21.3757 C   0  0  0  0  0  0  0  0  0  0  0  0
    8.4548  -15.5967   20.7841 O   0  0  0  0  0  0  0  0  0  0  0  0
    6.7526  -18.8774   17.2138 O   0  0  0  0  0  0  0  0  0  0  0  0
    8.3302  -16.8154   22.7198 N   0  0  0  0  0  0  0  0  0  0  0  0
    9.2914  -16.0715   23.4662 C   0  0  1  0  0  0  0  0  0  0  0  0
    9.1148  -16.0825   24.9416 C   0  0  0  0  0  0  0  0  0  0  0  0
    7.9378  -15.3480   25.4439 C   0  0  0  0  0  0  0  0  0  0  0  0
    6.6885  -15.8698   25.7034 C   0  0  0  0  0  0  0  0  0  0  0  0
    5.8850  -14.8996   26.1615 N   0  0  0  0  0  0  0  0  0  0  0  0
    6.5625  -13.7420   26.2159 C   0  0  0  0  0  0  0  0  0  0  0  0
    6.1547  -12.4825   26.6143 C   0  0  0  0  0  0  0  0  0  0  0  0
    7.0567  -11.4430   26.5689 C   0  0  0  0  0  0  0  0  0  0  0  0
    8.3376  -11.7000   26.1262 C   0  0  0  0  0  0  0  0  0  0  0  0
    8.7418  -12.9523   25.7302 C   0  0  0  0  0  0  0  0  0  0  0  0
    7.8417  -14.0079   25.7706 C   0  0  0  0  0  0  0  0  0  0  0  0
   10.6950  -16.5014   23.1059 C   0  0  0  0  0  0  0  0  0  0  0  0
   10.9224  -17.7345   23.0728 O   0  0  0  0  0  0  0  0  0  0  0  0
   16.6557  -12.3119   18.2077 N   0  0  0  0  0  0  0  0  0  0  0  0
   17.0361  -13.6701   18.1073 C   0  0  0  0  0  0  0  0  0  0  0  0
   18.0057  -14.0782   17.3522 N   0  0  0  0  0  0  0  0  0  0  0  0
   16.3119  -14.6270   18.8798 N   0  0  0  0  0  0  0  0  0  0  0  0
   15.2058  -14.2331   19.7449 C   0  0  0  0  0  0  0  0  0  0  0  0
   14.7764  -15.4003   20.5964 C   0  0  0  0  0  0  0  0  0  0  0  0
   13.5121  -15.0328   21.3234 C   0  0  0  0  0  0  0  0  0  0  0  0
   12.9502  -16.1239   22.1852 C   0  0  2  0  0  0  0  0  0  0  0  0
   11.7292  -15.5997   22.8143 N   0  0  0  0  0  0  0  0  0  0  0  0
   13.9022  -16.5802   23.2392 C   0  0  0  0  0  0  0  0  0  0  0  0
   13.6511  -16.5030   24.5933 O   0  0  0  0  0  0  0  0  0  0  0  0
   15.0286  -17.0791   22.9017 O   0  0  0  0  0  0  0  0  0  0  0  0
  2  1  1  6
  2  3  1  0
  4  3  1  0
  4  8  1  0
  5  4  2  0
  6  7  2  0
  6  2  1  0
  9  6  1  0
 10  9  1  0
 11 12  1  0
 10 11  1  1
 12 13  2  0
 12 20  1  0
 13 14  1  0
 14 15  1  0
 15 16  2  0
 16 17  1  0
 18 17  2  0
 19 18  1  0
 20 19  2  0
 20 15  1  0
 21 10  1  0
 22 21  2  0
 23 24  1  0
 24 25  2  0
 26 24  1  0
 26 27  1  0
 27 28  1  0
 28 29  1  0
 30 29  1  1
 30 31  1  0
 31 21  1  0
 32 30  1  0
 33 32  1  0
 34 32  2  0
M  END
$$$$
