DWR.pdb
     RDKit          3D

 34 35  0  0  1  0  0  0  0  0999 V2000
   10.1337  -18.2024   20.7833 N   0  0  0  0  0  0  0  0  0  0  0  0
   11.2771  -17.5989   21.3980 C   0  0  1  0  0  0  0  0  0  0  0  0
   11.9119  -16.5839   20.5137 C   0  0  0  0  0  0  0  0  0  0  0  0
   12.3591  -17.1030   19.2162 C   0  0  0  0  0  0  0  0  0  0  0  0
   12.6651  -18.3120   18.9918 O   0  0  0  0  0  0  0  0  0  0  0  0
   10.9033  -16.9637   22.7127 C   0  0  0  0  0  0  0  0  0  0  0  0
   11.7111  -16.2464   23.3501 O   0  0  0  0  0  0  0  0  0  0  0  0
   12.4610  -16.2235   18.1482 O   0  0  0  0  0  0  0  0  0  0  0  0
    9.6121  -17.1604   23.2739 N   0  0  0  0  0  0  0  0  0  0  0  0
    9.1661  -16.7057   24.5501 C   0  0  1  0  0  0  0  0  0  0  0  0
    7.7395  -16.2974   24.6295 C   0  0  0  0  0  0  0  0  0  0  0  0
    7.4808  -14.8585   24.4303 C   0  0  0  0  0  0  0  0  0  0  0  0
    7.3714  -14.1990   23.2246 C   0  0  0  0  0  0  0  0  0  0  0  0
    7.1188  -12.9012   23.4461 N   0  0  0  0  0  0  0  0  0  0  0  0
    7.0559  -12.6739   24.7676 C   0  0  0  0  0  0  0  0  0  0  0  0
    6.8256  -11.5031   25.4658 C   0  0  0  0  0  0  0  0  0  0  0  0
    6.8177  -11.5368   26.8424 C   0  0  0  0  0  0  0  0  0  0  0  0
    7.0403  -12.7429   27.4738 C   0  0  0  0  0  0  0  0  0  0  0  0
    7.2694  -13.9060   26.7788 C   0  0  0  0  0  0  0  0  0  0  0  0
    7.2806  -13.8846   25.3912 C   0  0  0  0  0  0  0  0  0  0  0  0
    9.4759  -17.7287   25.6188 C   0  0  0  0  0  0  0  0  0  0  0  0
    9.0058  -18.8805   25.4583 O   0  0  0  0  0  0  0  0  0  0  0  0
   15.7347  -21.3331   30.7306 N   0  0  0  0  0  0  0  0  0  0  0  0
   14.4154  -21.1492   31.2050 C   0  0  0  0  0  0  0  0  0  0  0  0
   14.0974  -21.2301   32.4577 N   0  0  0  0  0  0  0  0  0  0  0  0
   13.3949  -20.8596   30.2502 N   0  0  0  0  0  0  0  0  0  0  0  0
   13.2840  -19.5480   29.6223 C   0  0  0  0  0  0  0  0  0  0  0  0
   11.8791  -19.0226   29.7705 C   0  0  0  0  0  0  0  0  0  0  0  0
   11.5893  -18.0817   28.6336 C   0  0  0  0  0  0  0  0  0  0  0  0
   10.5040  -18.5417   27.7064 C   0  0  2  0  0  0  0  0  0  0  0  0
   10.2488  -17.4497   26.7557 N   0  0  0  0  0  0  0  0  0  0  0  0
    9.2413  -18.8928   28.4189 C   0  0  0  0  0  0  0  0  0  0  0  0
    9.0317  -20.0867   29.0773 O   0  0  0  0  0  0  0  0  0  0  0  0
    8.2741  -18.0588   28.4410 O   0  0  0  0  0  0  0  0  0  0  0  0
  2  1  1  6
  2  3  1  0
  4  3  1  0
  4  8  1  0
  5  4  2  0
  6  7  2  0
  6  2  1  0
  9  6  1  0
 10  9  1  0
 11 12  1  0
 10 11  1  6
 12 13  2  0
 12 20  1  0
 13 14  1  0
 14 15  1  0
 15 16  2  0
 16 17  1  0
 18 17  2  0
 19 18  1  0
 20 19  2  0
 20 15  1  0
 21 10  1  0
 22 21  2  0
 23 24  1  0
 24 25  2  0
 26 24  1  0
 26 27  1  0
 27 28  1  0
 28 29  1  0
 30 29  1  1
 30 31  1  0
 31 21  1  0
 32 30  1  0
 33 32  1  0
 34 32  2  0
M  END
$$$$
