DWR.pdb
     RDKit          3D

 34 35  0  0  1  0  0  0  0  0999 V2000
    7.2997  -17.5907   20.9112 N   0  0  0  0  0  0  0  0  0  0  0  0
    8.4852  -16.9248   20.4631 C   0  0  1  0  0  0  0  0  0  0  0  0
    8.1991  -15.9594   19.3670 C   0  0  0  0  0  0  0  0  0  0  0  0
    7.6341  -16.5651   18.1559 C   0  0  0  0  0  0  0  0  0  0  0  0
    6.6784  -16.0737   17.4844 O   0  0  0  0  0  0  0  0  0  0  0  0
    9.1599  -16.2100   21.6056 C   0  0  0  0  0  0  0  0  0  0  0  0
    9.8036  -15.1480   21.4289 O   0  0  0  0  0  0  0  0  0  0  0  0
    8.1702  -17.7602   17.6987 O   0  0  0  0  0  0  0  0  0  0  0  0
    9.0858  -16.7231   22.9293 N   0  0  0  0  0  0  0  0  0  0  0  0
    9.8213  -16.2580   24.0593 C   0  0  1  0  0  0  0  0  0  0  0  0
    9.1018  -16.2927   25.3590 C   0  0  0  0  0  0  0  0  0  0  0  0
    7.8917  -15.4519   25.4355 C   0  0  0  0  0  0  0  0  0  0  0  0
    6.5862  -15.8692   25.2877 C   0  0  0  0  0  0  0  0  0  0  0  0
    5.7624  -14.8225   25.4382 N   0  0  0  0  0  0  0  0  0  0  0  0
    6.4810  -13.7154   25.6827 C   0  0  0  0  0  0  0  0  0  0  0  0
    6.0738  -12.4119   25.8985 C   0  0  0  0  0  0  0  0  0  0  0  0
    7.0263  -11.4434   26.1243 C   0  0  0  0  0  0  0  0  0  0  0  0
    8.3552  -11.8132   26.1269 C   0  0  0  0  0  0  0  0  0  0  0  0
    8.7588  -13.1091   25.9121 C   0  0  0  0  0  0  0  0  0  0  0  0
    7.8084  -14.0940   25.6827 C   0  0  0  0  0  0  0  0  0  0  0  0
   11.1403  -16.9873   24.1740 C   0  0  0  0  0  0  0  0  0  0  0  0
   11.1169  -18.2331   24.0297 O   0  0  0  0  0  0  0  0  0  0  0  0
   18.7308  -16.1487   26.1465 N   0  0  0  0  0  0  0  0  0  0  0  0
   19.1116  -15.8363   24.8211 C   0  0  0  0  0  0  0  0  0  0  0  0
   20.0636  -15.0056   24.5367 N   0  0  0  0  0  0  0  0  0  0  0  0
   18.4085  -16.4730   23.7547 N   0  0  0  0  0  0  0  0  0  0  0  0
   17.0663  -16.0555   23.3659 C   0  0  0  0  0  0  0  0  0  0  0  0
   16.0447  -17.0010   23.9439 C   0  0  0  0  0  0  0  0  0  0  0  0
   14.7133  -16.3036   23.9994 C   0  0  0  0  0  0  0  0  0  0  0  0
   13.5804  -17.1625   24.4766 C   0  0  2  0  0  0  0  0  0  0  0  0
   12.3603  -16.3436   24.4291 N   0  0  0  0  0  0  0  0  0  0  0  0
   13.7855  -17.6784   25.8612 C   0  0  0  0  0  0  0  0  0  0  0  0
   13.3802  -17.0155   27.0010 O   0  0  0  0  0  0  0  0  0  0  0  0
   14.3686  -18.8010   26.0386 O   0  0  0  0  0  0  0  0  0  0  0  0
  2  1  1  1
  2  3  1  0
  4  3  1  0
  4  8  1  0
  5  4  2  0
  6  7  2  0
  6  2  1  0
  9  6  1  0
 10  9  1  0
 11 12  1  0
 10 11  1  1
 12 13  2  0
 12 20  1  0
 13 14  1  0
 14 15  1  0
 15 16  2  0
 16 17  1  0
 18 17  2  0
 19 18  1  0
 20 19  2  0
 20 15  1  0
 21 10  1  0
 22 21  2  0
 23 24  1  0
 24 25  2  0
 26 24  1  0
 26 27  1  0
 27 28  1  0
 28 29  1  0
 30 29  1  1
 30 31  1  0
 31 21  1  0
 32 30  1  0
 33 32  1  0
 34 32  2  0
M  END
$$$$
