DWR.pdb
     RDKit          3D

 34 35  0  0  1  0  0  0  0  0999 V2000
    7.0924  -17.8214   21.2370 N   0  0  0  0  0  0  0  0  0  0  0  0
    8.1356  -16.9960   20.7080 C   0  0  1  0  0  0  0  0  0  0  0  0
    7.6039  -15.9430   19.8003 C   0  0  0  0  0  0  0  0  0  0  0  0
    6.9063  -16.4569   18.6163 C   0  0  0  0  0  0  0  0  0  0  0  0
    6.7063  -17.6848   18.3756 O   0  0  0  0  0  0  0  0  0  0  0  0
    8.9254  -16.3555   21.8205 C   0  0  0  0  0  0  0  0  0  0  0  0
    9.6903  -15.3840   21.6095 O   0  0  0  0  0  0  0  0  0  0  0  0
    6.4253  -15.5502   17.6829 O   0  0  0  0  0  0  0  0  0  0  0  0
    8.8254  -16.8380   23.1539 N   0  0  0  0  0  0  0  0  0  0  0  0
    9.6308  -16.4379   24.2610 C   0  0  1  0  0  0  0  0  0  0  0  0
    8.9301  -16.3338   25.5672 C   0  0  0  0  0  0  0  0  0  0  0  0
    7.7374  -15.4652   25.5785 C   0  0  0  0  0  0  0  0  0  0  0  0
    6.4424  -15.8379   25.2876 C   0  0  0  0  0  0  0  0  0  0  0  0
    5.6318  -14.7785   25.4196 N   0  0  0  0  0  0  0  0  0  0  0  0
    6.3490  -13.7063   25.7911 C   0  0  0  0  0  0  0  0  0  0  0  0
    5.9528  -12.4055   26.0409 C   0  0  0  0  0  0  0  0  0  0  0  0
    6.9014  -11.4771   26.4076 C   0  0  0  0  0  0  0  0  0  0  0  0
    8.2156  -11.8830   26.5123 C   0  0  0  0  0  0  0  0  0  0  0  0
    8.6083  -13.1762   26.2635 C   0  0  0  0  0  0  0  0  0  0  0  0
    7.6617  -14.1208   25.8925 C   0  0  0  0  0  0  0  0  0  0  0  0
   10.8429  -17.3319   24.3893 C   0  0  0  0  0  0  0  0  0  0  0  0
   10.6348  -18.5379   24.6642 O   0  0  0  0  0  0  0  0  0  0  0  0
   14.3839  -13.3307   20.1335 N   0  0  0  0  0  0  0  0  0  0  0  0
   15.2750  -14.4265   20.0645 C   0  0  0  0  0  0  0  0  0  0  0  0
   16.0470  -14.6462   19.0483 N   0  0  0  0  0  0  0  0  0  0  0  0
   15.3185  -15.3248   21.1727 N   0  0  0  0  0  0  0  0  0  0  0  0
   14.4809  -15.1286   22.3504 C   0  0  0  0  0  0  0  0  0  0  0  0
   14.8727  -16.1047   23.4299 C   0  0  0  0  0  0  0  0  0  0  0  0
   14.2247  -17.4315   23.1443 C   0  0  0  0  0  0  0  0  0  0  0  0
   13.2376  -17.8780   24.1813 C   0  0  2  0  0  0  0  0  0  0  0  0
   12.1595  -16.8791   24.2178 N   0  0  0  0  0  0  0  0  0  0  0  0
   13.8421  -18.0145   25.5382 C   0  0  0  0  0  0  0  0  0  0  0  0
   14.8352  -18.9180   25.8546 O   0  0  0  0  0  0  0  0  0  0  0  0
   13.4390  -17.2631   26.4893 O   0  0  0  0  0  0  0  0  0  0  0  0
  2  1  1  1
  2  3  1  0
  4  3  1  0
  4  8  1  0
  5  4  2  0
  6  7  2  0
  6  2  1  0
  9  6  1  0
 10  9  1  0
 11 12  1  0
 10 11  1  1
 12 13  2  0
 12 20  1  0
 13 14  1  0
 14 15  1  0
 15 16  2  0
 16 17  1  0
 18 17  2  0
 19 18  1  0
 20 19  2  0
 20 15  1  0
 21 10  1  0
 22 21  2  0
 23 24  1  0
 24 25  2  0
 26 24  1  0
 26 27  1  0
 27 28  1  0
 28 29  1  0
 30 29  1  6
 30 31  1  0
 31 21  1  0
 32 30  1  0
 33 32  1  0
 34 32  2  0
M  END
$$$$
