DWR.pdb
     RDKit          3D

 34 35  0  0  1  0  0  0  0  0999 V2000
    9.8389  -17.9398   19.8955 N   0  0  0  0  0  0  0  0  0  0  0  0
   10.9829  -17.1655   20.2708 C   0  0  1  0  0  0  0  0  0  0  0  0
   11.5138  -16.3704   19.1301 C   0  0  0  0  0  0  0  0  0  0  0  0
   11.4915  -17.0690   17.8400 C   0  0  0  0  0  0  0  0  0  0  0  0
   11.1920  -18.2909   17.6886 O   0  0  0  0  0  0  0  0  0  0  0  0
   10.6523  -16.2470   21.4192 C   0  0  0  0  0  0  0  0  0  0  0  0
   11.4808  -15.4108   21.8524 O   0  0  0  0  0  0  0  0  0  0  0  0
   11.8191  -16.3587   16.6942 O   0  0  0  0  0  0  0  0  0  0  0  0
    9.3798  -16.3018   22.0506 N   0  0  0  0  0  0  0  0  0  0  0  0
    8.9743  -15.5640   23.2019 C   0  0  1  0  0  0  0  0  0  0  0  0
    7.5116  -15.3486   23.3506 C   0  0  0  0  0  0  0  0  0  0  0  0
    7.0896  -14.7197   24.6169 C   0  0  0  0  0  0  0  0  0  0  0  0
    6.4231  -15.3287   25.6587 C   0  0  0  0  0  0  0  0  0  0  0  0
    6.2260  -14.4407   26.6433 N   0  0  0  0  0  0  0  0  0  0  0  0
    6.7426  -13.2535   26.2891 C   0  0  0  0  0  0  0  0  0  0  0  0
    6.7749  -12.0508   26.9702 C   0  0  0  0  0  0  0  0  0  0  0  0
    7.3694  -10.9612   26.3738 C   0  0  0  0  0  0  0  0  0  0  0  0
    7.9123  -11.1130   25.1148 C   0  0  0  0  0  0  0  0  0  0  0  0
    7.8795  -12.3089   24.4386 C   0  0  0  0  0  0  0  0  0  0  0  0
    7.2824  -13.4139   25.0289 C   0  0  0  0  0  0  0  0  0  0  0  0
    9.5405  -16.1837   24.4590 C   0  0  0  0  0  0  0  0  0  0  0  0
    9.7468  -15.4163   25.4294 O   0  0  0  0  0  0  0  0  0  0  0  0
    6.1632  -21.6538   23.7761 N   0  0  0  0  0  0  0  0  0  0  0  0
    7.3479  -22.1543   23.1885 C   0  0  0  0  0  0  0  0  0  0  0  0
    7.3819  -22.6817   22.0062 N   0  0  0  0  0  0  0  0  0  0  0  0
    8.5571  -22.0676   23.9416 N   0  0  0  0  0  0  0  0  0  0  0  0
    8.6140  -21.3687   25.2204 C   0  0  0  0  0  0  0  0  0  0  0  0
    8.9110  -19.9080   24.9967 C   0  0  0  0  0  0  0  0  0  0  0  0
    9.8941  -19.4468   26.0373 C   0  0  0  0  0  0  0  0  0  0  0  0
   10.3619  -18.0321   25.8678 C   0  0  2  0  0  0  0  0  0  0  0  0
    9.8378  -17.5491   24.5819 N   0  0  0  0  0  0  0  0  0  0  0  0
   11.8482  -17.9057   25.8838 C   0  0  0  0  0  0  0  0  0  0  0  0
   12.6317  -18.1372   26.9952 O   0  0  0  0  0  0  0  0  0  0  0  0
   12.4659  -17.5645   24.8191 O   0  0  0  0  0  0  0  0  0  0  0  0
  2  1  1  6
  2  3  1  0
  4  3  1  0
  4  8  1  0
  5  4  2  0
  6  7  2  0
  6  2  1  0
  9  6  1  0
 10  9  1  0
 11 12  1  0
 10 11  1  1
 12 13  2  0
 12 20  1  0
 13 14  1  0
 14 15  1  0
 15 16  2  0
 16 17  1  0
 18 17  2  0
 19 18  1  0
 20 19  2  0
 20 15  1  0
 21 10  1  0
 22 21  2  0
 23 24  1  0
 24 25  2  0
 26 24  1  0
 26 27  1  0
 27 28  1  0
 28 29  1  0
 30 29  1  6
 30 31  1  0
 31 21  1  0
 32 30  1  0
 33 32  1  0
 34 32  2  0
M  END
$$$$
