DWR.pdb
     RDKit          3D

 34 35  0  0  1  0  0  0  0  0999 V2000
    7.2458  -17.4048   21.1283 N   0  0  0  0  0  0  0  0  0  0  0  0
    8.4773  -16.8455   20.6592 C   0  0  1  0  0  0  0  0  0  0  0  0
    8.2565  -15.8402   19.5840 C   0  0  0  0  0  0  0  0  0  0  0  0
    7.8189  -16.4065   18.3031 C   0  0  0  0  0  0  0  0  0  0  0  0
    7.6363  -17.6417   18.0876 O   0  0  0  0  0  0  0  0  0  0  0  0
    9.2436  -16.2152   21.7937 C   0  0  0  0  0  0  0  0  0  0  0  0
   10.1719  -15.3974   21.5864 O   0  0  0  0  0  0  0  0  0  0  0  0
    7.5844  -15.5449   17.2414 O   0  0  0  0  0  0  0  0  0  0  0  0
    8.9336  -16.5316   23.1445 N   0  0  0  0  0  0  0  0  0  0  0  0
    9.7461  -16.2599   24.2848 C   0  0  1  0  0  0  0  0  0  0  0  0
    9.0204  -16.0834   25.5695 C   0  0  0  0  0  0  0  0  0  0  0  0
    7.8114  -15.2401   25.5031 C   0  0  0  0  0  0  0  0  0  0  0  0
    6.5276  -15.6587   25.2257 C   0  0  0  0  0  0  0  0  0  0  0  0
    5.6955  -14.6087   25.2700 N   0  0  0  0  0  0  0  0  0  0  0  0
    6.3874  -13.4982   25.5696 C   0  0  0  0  0  0  0  0  0  0  0  0
    5.9636  -12.1906   25.7184 C   0  0  0  0  0  0  0  0  0  0  0  0
    6.8897  -11.2192   26.0264 C   0  0  0  0  0  0  0  0  0  0  0  0
    8.2099  -11.5902   26.1758 C   0  0  0  0  0  0  0  0  0  0  0  0
    8.6301  -12.8901   26.0275 C   0  0  0  0  0  0  0  0  0  0  0  0
    7.7064  -13.8780   25.7163 C   0  0  0  0  0  0  0  0  0  0  0  0
   10.8233  -17.3097   24.4344 C   0  0  0  0  0  0  0  0  0  0  0  0
   10.4542  -18.4613   24.7673 O   0  0  0  0  0  0  0  0  0  0  0  0
   14.5362  -13.9787   21.4546 N   0  0  0  0  0  0  0  0  0  0  0  0
   14.7674  -14.8262   20.3465 C   0  0  0  0  0  0  0  0  0  0  0  0
   14.8220  -14.3951   19.1266 N   0  0  0  0  0  0  0  0  0  0  0  0
   14.9495  -16.2196   20.5959 N   0  0  0  0  0  0  0  0  0  0  0  0
   15.5537  -16.7034   21.8320 C   0  0  0  0  0  0  0  0  0  0  0  0
   14.5459  -16.6551   22.9517 C   0  0  0  0  0  0  0  0  0  0  0  0
   14.1601  -18.0615   23.3196 C   0  0  0  0  0  0  0  0  0  0  0  0
   13.1366  -18.1606   24.4112 C   0  0  2  0  0  0  0  0  0  0  0  0
   12.1862  -17.0550   24.2217 N   0  0  0  0  0  0  0  0  0  0  0  0
   13.7334  -18.0815   25.7761 C   0  0  0  0  0  0  0  0  0  0  0  0
   14.6227  -19.0047   26.2855 O   0  0  0  0  0  0  0  0  0  0  0  0
   13.4239  -17.1112   26.5470 O   0  0  0  0  0  0  0  0  0  0  0  0
  2  1  1  1
  2  3  1  0
  4  3  1  0
  4  8  1  0
  5  4  2  0
  6  7  2  0
  6  2  1  0
  9  6  1  0
 10  9  1  0
 11 12  1  0
 10 11  1  1
 12 13  2  0
 12 20  1  0
 13 14  1  0
 14 15  1  0
 15 16  2  0
 16 17  1  0
 18 17  2  0
 19 18  1  0
 20 19  2  0
 20 15  1  0
 21 10  1  0
 22 21  2  0
 23 24  1  0
 24 25  2  0
 26 24  1  0
 26 27  1  0
 27 28  1  0
 28 29  1  0
 30 29  1  6
 30 31  1  0
 31 21  1  0
 32 30  1  0
 33 32  1  0
 34 32  2  0
M  END
$$$$
