DWR.pdb
     RDKit          3D

 34 35  0  0  1  0  0  0  0  0999 V2000
    8.1795  -17.7158   20.0454 N   0  0  0  0  0  0  0  0  0  0  0  0
    9.2566  -16.7728   20.0536 C   0  0  1  0  0  0  0  0  0  0  0  0
    9.0336  -15.6670   19.0826 C   0  0  0  0  0  0  0  0  0  0  0  0
    9.0014  -16.0892   17.6777 C   0  0  0  0  0  0  0  0  0  0  0  0
    8.8376  -15.3064   16.6948 O   0  0  0  0  0  0  0  0  0  0  0  0
    9.4565  -16.2029   21.4344 C   0  0  0  0  0  0  0  0  0  0  0  0
   10.0294  -15.1017   21.6152 O   0  0  0  0  0  0  0  0  0  0  0  0
    9.1588  -17.4361   17.3851 O   0  0  0  0  0  0  0  0  0  0  0  0
    8.9971  -16.9030   22.5832 N   0  0  0  0  0  0  0  0  0  0  0  0
    9.1353  -16.4853   23.9399 C   0  0  1  0  0  0  0  0  0  0  0  0
    7.8668  -16.2596   24.6802 C   0  0  0  0  0  0  0  0  0  0  0  0
    7.2755  -14.9162   24.5285 C   0  0  0  0  0  0  0  0  0  0  0  0
    6.6276  -14.4206   23.4172 C   0  0  0  0  0  0  0  0  0  0  0  0
    6.2155  -13.1685   23.6612 N   0  0  0  0  0  0  0  0  0  0  0  0
    6.5700  -12.8123   24.9059 C   0  0  0  0  0  0  0  0  0  0  0  0
    6.3684  -11.6287   25.5913 C   0  0  0  0  0  0  0  0  0  0  0  0
    6.8441  -11.5129   26.8784 C   0  0  0  0  0  0  0  0  0  0  0  0
    7.5055  -12.5871   27.4362 C   0  0  0  0  0  0  0  0  0  0  0  0
    7.7055  -13.7631   26.7540 C   0  0  0  0  0  0  0  0  0  0  0  0
    7.2315  -13.8917   25.4560 C   0  0  0  0  0  0  0  0  0  0  0  0
   10.0221  -17.4412   24.7045 C   0  0  0  0  0  0  0  0  0  0  0  0
    9.6652  -18.6431   24.7421 O   0  0  0  0  0  0  0  0  0  0  0  0
   15.6730  -14.5981   23.0506 N   0  0  0  0  0  0  0  0  0  0  0  0
   15.3992  -15.5230   22.0166 C   0  0  0  0  0  0  0  0  0  0  0  0
   15.3764  -15.1958   20.7639 N   0  0  0  0  0  0  0  0  0  0  0  0
   15.1390  -16.8779   22.3820 N   0  0  0  0  0  0  0  0  0  0  0  0
   14.9936  -17.2803   23.7763 C   0  0  0  0  0  0  0  0  0  0  0  0
   13.5331  -17.4067   24.1266 C   0  0  0  0  0  0  0  0  0  0  0  0
   13.4136  -17.9388   25.5283 C   0  0  0  0  0  0  0  0  0  0  0  0
   12.0045  -18.0861   26.0199 C   0  0  2  0  0  0  0  0  0  0  0  0
   11.1996  -17.0489   25.3583 N   0  0  0  0  0  0  0  0  0  0  0  0
   11.8878  -17.9442   27.5003 C   0  0  0  0  0  0  0  0  0  0  0  0
   11.1718  -16.9456   28.1271 O   0  0  0  0  0  0  0  0  0  0  0  0
   12.4743  -18.7829   28.2647 O   0  0  0  0  0  0  0  0  0  0  0  0
  2  1  1  1
  2  3  1  0
  4  3  1  0
  4  8  1  0
  5  4  2  0
  6  7  2  0
  6  2  1  0
  9  6  1  0
 10  9  1  0
 11 12  1  0
 10 11  1  1
 12 13  2  0
 12 20  1  0
 13 14  1  0
 14 15  1  0
 15 16  2  0
 16 17  1  0
 18 17  2  0
 19 18  1  0
 20 19  2  0
 20 15  1  0
 21 10  1  0
 22 21  2  0
 23 24  1  0
 24 25  2  0
 26 24  1  0
 26 27  1  0
 27 28  1  0
 28 29  1  0
 30 29  1  1
 30 31  1  0
 31 21  1  0
 32 30  1  0
 33 32  1  0
 34 32  2  0
M  END
$$$$
