DWR.pdb
     RDKit          3D

 34 35  0  0  1  0  0  0  0  0999 V2000
    6.5157  -15.2978   20.2646 N   0  0  0  0  0  0  0  0  0  0  0  0
    7.6802  -16.1008   20.4849 C   0  0  1  0  0  0  0  0  0  0  0  0
    8.6297  -16.0275   19.3411 C   0  0  0  0  0  0  0  0  0  0  0  0
    8.2977  -16.9117   18.2182 C   0  0  0  0  0  0  0  0  0  0  0  0
    7.2342  -17.5950   18.1306 O   0  0  0  0  0  0  0  0  0  0  0  0
    8.3812  -15.6876   21.7536 C   0  0  0  0  0  0  0  0  0  0  0  0
    8.8877  -14.5474   21.8840 O   0  0  0  0  0  0  0  0  0  0  0  0
    9.1995  -17.0210   17.1696 O   0  0  0  0  0  0  0  0  0  0  0  0
    8.4895  -16.5861   22.8499 N   0  0  0  0  0  0  0  0  0  0  0  0
    9.1363  -16.3278   24.0946 C   0  0  1  0  0  0  0  0  0  0  0  0
    8.3128  -16.5525   25.3109 C   0  0  0  0  0  0  0  0  0  0  0  0
    7.2405  -15.5654   25.5408 C   0  0  0  0  0  0  0  0  0  0  0  0
    5.8889  -15.7548   25.3461 C   0  0  0  0  0  0  0  0  0  0  0  0
    5.2284  -14.6362   25.6768 N   0  0  0  0  0  0  0  0  0  0  0  0
    6.1011  -13.7028   26.0878 C   0  0  0  0  0  0  0  0  0  0  0  0
    5.8901  -12.4062   26.5187 C   0  0  0  0  0  0  0  0  0  0  0  0
    6.9737  -11.6395   26.8853 C   0  0  0  0  0  0  0  0  0  0  0  0
    8.2328  -12.1977   26.8083 C   0  0  0  0  0  0  0  0  0  0  0  0
    8.4414  -13.4865   26.3797 C   0  0  0  0  0  0  0  0  0  0  0  0
    7.3574  -14.2688   26.0068 C   0  0  0  0  0  0  0  0  0  0  0  0
   10.4322  -17.0996   24.1924 C   0  0  0  0  0  0  0  0  0  0  0  0
   10.3819  -18.3300   23.9538 O   0  0  0  0  0  0  0  0  0  0  0  0
   15.9716  -13.8639   20.3005 N   0  0  0  0  0  0  0  0  0  0  0  0
   15.2039  -14.8358   19.6182 C   0  0  0  0  0  0  0  0  0  0  0  0
   14.9373  -14.7647   18.3529 N   0  0  0  0  0  0  0  0  0  0  0  0
   14.7062  -15.9433   20.3683 N   0  0  0  0  0  0  0  0  0  0  0  0
   14.9154  -16.0487   21.8078 C   0  0  0  0  0  0  0  0  0  0  0  0
   13.6909  -16.6320   22.4652 C   0  0  0  0  0  0  0  0  0  0  0  0
   13.9592  -16.7936   23.9363 C   0  0  0  0  0  0  0  0  0  0  0  0
   12.8239  -17.3895   24.7140 C   0  0  2  0  0  0  0  0  0  0  0  0
   11.6595  -16.5107   24.5312 N   0  0  0  0  0  0  0  0  0  0  0  0
   13.1254  -17.5278   26.1684 C   0  0  0  0  0  0  0  0  0  0  0  0
   12.4565  -16.8474   27.1646 O   0  0  0  0  0  0  0  0  0  0  0  0
   14.0540  -18.3176   26.5501 O   0  0  0  0  0  0  0  0  0  0  0  0
  2  1  1  6
  2  3  1  0
  4  3  1  0
  4  8  1  0
  5  4  2  0
  6  7  2  0
  6  2  1  0
  9  6  1  0
 10  9  1  0
 11 12  1  0
 10 11  1  1
 12 13  2  0
 12 20  1  0
 13 14  1  0
 14 15  1  0
 15 16  2  0
 16 17  1  0
 18 17  2  0
 19 18  1  0
 20 19  2  0
 20 15  1  0
 21 10  1  0
 22 21  2  0
 23 24  1  0
 24 25  2  0
 26 24  1  0
 26 27  1  0
 27 28  1  0
 28 29  1  0
 30 29  1  6
 30 31  1  0
 31 21  1  0
 32 30  1  0
 33 32  1  0
 34 32  2  0
M  END
$$$$
