ARF.pdb
     RDKit          3D

 28 28  0  0  1  0  0  0  0  0999 V2000
   12.6095  -19.7336   21.6213 C   0  0  0  0  0  0  0  0  0  0  0  0
   11.6915  -18.9105   20.7180 C   0  0  2  0  0  0  0  0  0  0  0  0
   12.5078  -18.3776   19.6661 N   0  0  0  0  0  0  0  0  0  0  0  0
   11.0423  -17.8141   21.5125 C   0  0  0  0  0  0  0  0  0  0  0  0
   11.7786  -16.8828   21.9247 O   0  0  0  0  0  0  0  0  0  0  0  0
    6.8212  -14.3874   17.9935 N   0  0  0  0  0  0  0  0  0  0  0  0
    7.6220  -13.2829   18.4331 C   0  0  0  0  0  0  0  0  0  0  0  0
    7.5759  -12.1514   17.8236 N   0  0  0  0  0  0  0  0  0  0  0  0
    8.4557  -13.4832   19.5513 N   0  0  0  0  0  0  0  0  0  0  0  0
    7.9244  -14.1313   20.7209 C   0  0  0  0  0  0  0  0  0  0  0  0
    7.9012  -15.6373   20.4360 C   0  0  0  0  0  0  0  0  0  0  0  0
    7.7163  -16.4120   21.7031 C   0  0  0  0  0  0  0  0  0  0  0  0
    8.9863  -16.7056   22.4559 C   0  0  2  0  0  0  0  0  0  0  0  0
    9.6653  -17.8127   21.7941 N   0  0  0  0  0  0  0  0  0  0  0  0
    8.7868  -16.9946   23.8973 C   0  0  0  0  0  0  0  0  0  0  0  0
    8.5898  -18.1885   24.2234 O   0  0  0  0  0  0  0  0  0  0  0  0
    8.2035  -11.3737   18.0699 N   0  0  0  0  0  0  0  0  0  0  0  0
    8.8141  -15.9759   24.8834 C   0  0  2  0  0  0  0  0  0  0  0  0
    8.6199  -16.3418   26.2784 C   0  0  0  0  0  0  0  0  0  0  0  0
    8.8066  -15.1647   27.1833 C   0  0  0  0  0  0  0  0  0  0  0  0
    7.9606  -14.0470   26.7758 C   0  0  0  0  0  0  0  0  0  0  0  0
    6.8360  -13.6449   27.4811 C   0  0  0  0  0  0  0  0  0  0  0  0
    6.0629  -12.5754   27.1007 C   0  0  0  0  0  0  0  0  0  0  0  0
    6.3802  -11.8441   25.9801 C   0  0  0  0  0  0  0  0  0  0  0  0
    7.4900  -12.2151   25.2561 C   0  0  0  0  0  0  0  0  0  0  0  0
    8.2630  -13.2880   25.6408 C   0  0  0  0  0  0  0  0  0  0  0  0
    7.2619  -16.8925   26.4311 O   0  0  0  0  0  0  0  0  0  0  0  0
    6.9426  -17.6233   27.5900 O   0  0  0  0  0  0  0  0  0  0  0  0
  2  1  1  1
  3  2  1  0
  4  5  2  0
  4  2  1  0
  7  6  1  0
  8  7  2  0
  9  7  1  0
 10  9  1  0
 10 11  1  0
 11 12  1  0
 13 12  1  6
 13 14  1  0
 14  4  1  0
 15 13  1  0
 16 15  2  0
 17 15  1  0
 18 17  1  0
 18 26  1  0
 18 19  1  1
 20 25  2  0
 20 19  1  0
 21 20  1  0
 22 23  1  0
 22 21  2  0
 23 24  2  0
 24 25  1  0
 26 27  1  0
 28 26  2  0
M  END
$$$$
