ARF.pdb
     RDKit          3D

 28 28  0  0  1  0  0  0  0  0999 V2000
    7.9439  -11.7622   20.3949 C   0  0  0  0  0  0  0  0  0  0  0  0
    8.3200  -13.0408   19.6466 C   0  0  2  0  0  0  0  0  0  0  0  0
    7.4075  -13.1657   18.5472 N   0  0  0  0  0  0  0  0  0  0  0  0
    8.2244  -14.2204   20.5707 C   0  0  0  0  0  0  0  0  0  0  0  0
    7.1390  -14.8536   20.5924 O   0  0  0  0  0  0  0  0  0  0  0  0
   12.6805  -15.4606   18.1926 N   0  0  0  0  0  0  0  0  0  0  0  0
   13.8377  -15.5027   19.0373 C   0  0  0  0  0  0  0  0  0  0  0  0
   14.8624  -14.7662   18.7890 N   0  0  0  0  0  0  0  0  0  0  0  0
   13.8093  -16.3759   20.1429 N   0  0  0  0  0  0  0  0  0  0  0  0
   12.5992  -17.0932   20.4451 C   0  0  0  0  0  0  0  0  0  0  0  0
   11.6264  -16.0958   21.0844 C   0  0  0  0  0  0  0  0  0  0  0  0
   10.3481  -16.7747   21.4651 C   0  0  0  0  0  0  0  0  0  0  0  0
    9.3255  -15.8802   22.1131 C   0  0  2  0  0  0  0  0  0  0  0  0
    9.2975  -14.6162   21.3876 N   0  0  0  0  0  0  0  0  0  0  0  0
    9.5466  -15.6522   23.5622 C   0  0  0  0  0  0  0  0  0  0  0  0
   10.4787  -14.8805   23.8881 O   0  0  0  0  0  0  0  0  0  0  0  0
   15.6657  -14.7161   19.4303 N   0  0  0  0  0  0  0  0  0  0  0  0
    8.7471  -16.2725   24.5557 C   0  0  1  0  0  0  0  0  0  0  0  0
    9.0243  -15.9939   25.9568 C   0  0  0  0  0  0  0  0  0  0  0  0
    7.7868  -15.5736   26.6857 C   0  0  0  0  0  0  0  0  0  0  0  0
    7.3732  -14.2303   26.2911 C   0  0  0  0  0  0  0  0  0  0  0  0
    6.2299  -13.9712   25.5498 C   0  0  0  0  0  0  0  0  0  0  0  0
    5.8383  -12.7002   25.2069 C   0  0  0  0  0  0  0  0  0  0  0  0
    6.5810  -11.6093   25.5936 C   0  0  0  0  0  0  0  0  0  0  0  0
    7.7220  -11.8296   26.3306 C   0  0  0  0  0  0  0  0  0  0  0  0
    8.1112  -13.1055   26.6728 C   0  0  0  0  0  0  0  0  0  0  0  0
    9.5905  -17.2078   26.5704 O   0  0  0  0  0  0  0  0  0  0  0  0
   10.0407  -17.1591   27.9023 O   0  0  0  0  0  0  0  0  0  0  0  0
  2  1  1  1
  3  2  1  0
  4  5  2  0
  4  2  1  0
  7  6  1  0
  8  7  2  0
  9  7  1  0
 10  9  1  0
 10 11  1  0
 11 12  1  0
 13 12  1  6
 13 14  1  0
 14  4  1  0
 15 13  1  0
 16 15  2  0
 17 15  1  0
 18 17  1  0
 18 26  1  0
 18 19  1  1
 20 25  2  0
 20 19  1  0
 21 20  1  0
 22 23  1  0
 22 21  2  0
 23 24  2  0
 24 25  1  0
 26 27  1  0
 28 26  2  0
M  END
$$$$
