ARF.pdb
     RDKit          3D

 28 28  0  0  1  0  0  0  0  0999 V2000
    8.6249  -12.2375   19.4873 C   0  0  0  0  0  0  0  0  0  0  0  0
    8.1177  -13.6299   19.1129 C   0  0  2  0  0  0  0  0  0  0  0  0
    6.9535  -13.4452   18.2959 N   0  0  0  0  0  0  0  0  0  0  0  0
    7.7931  -14.4067   20.3562 C   0  0  0  0  0  0  0  0  0  0  0  0
    6.6825  -14.1889   20.9026 O   0  0  0  0  0  0  0  0  0  0  0  0
    6.4800  -21.3027   22.2174 N   0  0  0  0  0  0  0  0  0  0  0  0
    7.6798  -21.6850   21.5328 C   0  0  0  0  0  0  0  0  0  0  0  0
    7.8680  -22.9020   21.1619 N   0  0  0  0  0  0  0  0  0  0  0  0
    8.6385  -20.6829   21.2834 N   0  0  0  0  0  0  0  0  0  0  0  0
    9.1048  -19.8654   22.3718 C   0  0  0  0  0  0  0  0  0  0  0  0
    8.1166  -18.7036   22.5244 C   0  0  0  0  0  0  0  0  0  0  0  0
    8.3714  -17.6538   21.4886 C   0  0  0  0  0  0  0  0  0  0  0  0
    8.3322  -16.2384   21.9994 C   0  0  2  0  0  0  0  0  0  0  0  0
    8.6849  -15.3458   20.9024 N   0  0  0  0  0  0  0  0  0  0  0  0
    9.1975  -15.9925   23.1791 C   0  0  0  0  0  0  0  0  0  0  0  0
   10.4144  -15.7813   22.9666 O   0  0  0  0  0  0  0  0  0  0  0  0
    8.7275  -23.1980   20.6793 N   0  0  0  0  0  0  0  0  0  0  0  0
    8.6888  -15.9919   24.5028 C   0  0  1  0  0  0  0  0  0  0  0  0
    9.5952  -15.7053   25.6046 C   0  0  0  0  0  0  0  0  0  0  0  0
    9.7869  -14.2323   25.7856 C   0  0  0  0  0  0  0  0  0  0  0  0
    8.5143  -13.5617   26.0344 C   0  0  0  0  0  0  0  0  0  0  0  0
    8.0151  -13.3202   27.3058 C   0  0  0  0  0  0  0  0  0  0  0  0
    6.8281  -12.6655   27.5265 C   0  0  0  0  0  0  0  0  0  0  0  0
    6.0702  -12.2130   26.4720 C   0  0  0  0  0  0  0  0  0  0  0  0
    6.5355  -12.4354   25.1962 C   0  0  0  0  0  0  0  0  0  0  0  0
    7.7263  -13.0921   24.9788 C   0  0  0  0  0  0  0  0  0  0  0  0
    9.0404  -16.3024   26.8320 O   0  0  0  0  0  0  0  0  0  0  0  0
    9.7844  -16.2394   28.0242 O   0  0  0  0  0  0  0  0  0  0  0  0
  2  1  1  1
  3  2  1  0
  4  5  2  0
  4  2  1  0
  7  6  1  0
  8  7  2  0
  9  7  1  0
 10  9  1  0
 10 11  1  0
 11 12  1  0
 13 12  1  6
 13 14  1  0
 14  4  1  0
 15 13  1  0
 16 15  2  0
 17 15  1  0
 18 17  1  0
 18 26  1  0
 18 19  1  6
 20 25  2  0
 20 19  1  0
 21 20  1  0
 22 23  1  0
 22 21  2  0
 23 24  2  0
 24 25  1  0
 26 27  1  0
 28 26  2  0
M  END
$$$$
