ARF.pdb
     RDKit          3D

 28 28  0  0  1  0  0  0  0  0999 V2000
    8.2486  -19.6320   20.1671 C   0  0  0  0  0  0  0  0  0  0  0  0
    8.7953  -19.3897   21.5737 C   0  0  2  0  0  0  0  0  0  0  0  0
    7.7409  -19.7070   22.4927 N   0  0  0  0  0  0  0  0  0  0  0  0
    9.2282  -17.9588   21.7140 C   0  0  0  0  0  0  0  0  0  0  0  0
   10.4086  -17.6756   21.3885 O   0  0  0  0  0  0  0  0  0  0  0  0
    8.0016  -14.8682   17.5793 N   0  0  0  0  0  0  0  0  0  0  0  0
    7.9973  -13.4365   17.5108 C   0  0  0  0  0  0  0  0  0  0  0  0
    8.4940  -12.8236   16.4951 N   0  0  0  0  0  0  0  0  0  0  0  0
    7.4316  -12.7313   18.5916 N   0  0  0  0  0  0  0  0  0  0  0  0
    6.9202  -13.4617   19.7209 C   0  0  0  0  0  0  0  0  0  0  0  0
    8.1211  -13.8653   20.5838 C   0  0  0  0  0  0  0  0  0  0  0  0
    7.6805  -14.7003   21.7450 C   0  0  0  0  0  0  0  0  0  0  0  0
    8.7554  -15.5664   22.3453 C   0  0  2  0  0  0  0  0  0  0  0  0
    8.3603  -16.9607   22.1892 N   0  0  0  0  0  0  0  0  0  0  0  0
    9.0624  -15.2604   23.7641 C   0  0  0  0  0  0  0  0  0  0  0  0
    8.7586  -14.1201   24.1861 O   0  0  0  0  0  0  0  0  0  0  0  0
    8.6113  -11.8013   16.4792 N   0  0  0  0  0  0  0  0  0  0  0  0
    9.6747  -16.2056   24.6259 C   0  0  1  0  0  0  0  0  0  0  0  0
    9.7499  -15.9142   26.0497 C   0  0  0  0  0  0  0  0  0  0  0  0
    8.3869  -15.7908   26.6551 C   0  0  0  0  0  0  0  0  0  0  0  0
    7.8836  -14.4248   26.5467 C   0  0  0  0  0  0  0  0  0  0  0  0
    6.6686  -14.1040   25.9595 C   0  0  0  0  0  0  0  0  0  0  0  0
    6.1950  -12.8169   25.8866 C   0  0  0  0  0  0  0  0  0  0  0  0
    6.9228  -11.7714   26.4047 C   0  0  0  0  0  0  0  0  0  0  0  0
    8.1335  -12.0535   26.9949 C   0  0  0  0  0  0  0  0  0  0  0  0
    8.6050  -13.3454   27.0663 C   0  0  0  0  0  0  0  0  0  0  0  0
   10.5045  -16.9952   26.7075 O   0  0  0  0  0  0  0  0  0  0  0  0
   10.7728  -16.9064   28.0856 O   0  0  0  0  0  0  0  0  0  0  0  0
  2  1  1  6
  3  2  1  0
  4  5  2  0
  4  2  1  0
  7  6  1  0
  8  7  2  0
  9  7  1  0
 10  9  1  0
 10 11  1  0
 11 12  1  0
 13 12  1  1
 13 14  1  0
 14  4  1  0
 15 13  1  0
 16 15  2  0
 17 15  1  0
 18 17  1  0
 18 26  1  0
 18 19  1  1
 20 25  2  0
 20 19  1  0
 21 20  1  0
 22 23  1  0
 22 21  2  0
 23 24  2  0
 24 25  1  0
 26 27  1  0
 28 26  2  0
M  END
$$$$
