ARF.pdb
     RDKit          3D

 28 28  0  0  1  0  0  0  0  0999 V2000
    9.1308  -13.0849   19.3114 C   0  0  0  0  0  0  0  0  0  0  0  0
    7.9553  -14.0525   19.1770 C   0  0  2  0  0  0  0  0  0  0  0  0
    6.8739  -13.3177   18.5873 N   0  0  0  0  0  0  0  0  0  0  0  0
    7.5774  -14.5880   20.5279 C   0  0  0  0  0  0  0  0  0  0  0  0
    7.0289  -13.7945   21.3335 O   0  0  0  0  0  0  0  0  0  0  0  0
    6.4218  -21.6462   24.8466 N   0  0  0  0  0  0  0  0  0  0  0  0
    6.2025  -21.8205   23.4409 C   0  0  0  0  0  0  0  0  0  0  0  0
    6.3085  -22.9806   22.8960 N   0  0  0  0  0  0  0  0  0  0  0  0
    5.8684  -20.6796   22.6844 N   0  0  0  0  0  0  0  0  0  0  0  0
    5.6858  -19.4183   23.3522 C   0  0  0  0  0  0  0  0  0  0  0  0
    7.0347  -18.6906   23.3276 C   0  0  0  0  0  0  0  0  0  0  0  0
    7.2075  -17.9416   22.0435 C   0  0  0  0  0  0  0  0  0  0  0  0
    7.4717  -16.4681   22.2013 C   0  0  2  0  0  0  0  0  0  0  0  0
    7.8199  -15.9229   20.8951 N   0  0  0  0  0  0  0  0  0  0  0  0
    8.5139  -16.1403   23.2049 C   0  0  0  0  0  0  0  0  0  0  0  0
    9.6841  -15.9763   22.7875 O   0  0  0  0  0  0  0  0  0  0  0  0
    6.0943  -23.1373   21.9016 N   0  0  0  0  0  0  0  0  0  0  0  0
    8.2197  -16.0128   24.5863 C   0  0  2  0  0  0  0  0  0  0  0  0
    9.2890  -15.6452   25.5023 C   0  0  0  0  0  0  0  0  0  0  0  0
    9.5196  -14.1666   25.5080 C   0  0  0  0  0  0  0  0  0  0  0  0
    8.3076  -13.4456   25.8854 C   0  0  0  0  0  0  0  0  0  0  0  0
    7.2457  -13.2327   25.0189 C   0  0  0  0  0  0  0  0  0  0  0  0
    6.1001  -12.5746   25.3944 C   0  0  0  0  0  0  0  0  0  0  0  0
    5.9572  -12.0896   26.6732 C   0  0  0  0  0  0  0  0  0  0  0  0
    6.9916  -12.2831   27.5598 C   0  0  0  0  0  0  0  0  0  0  0  0
    8.1387  -12.9437   27.1797 C   0  0  0  0  0  0  0  0  0  0  0  0
    8.9267  -16.1104   26.8525 O   0  0  0  0  0  0  0  0  0  0  0  0
    7.7155  -16.8010   27.0398 O   0  0  0  0  0  0  0  0  0  0  0  0
  2  1  1  1
  3  2  1  0
  4  5  2  0
  4  2  1  0
  7  6  1  0
  8  7  2  0
  9  7  1  0
 10  9  1  0
 10 11  1  0
 11 12  1  0
 13 12  1  6
 13 14  1  0
 14  4  1  0
 15 13  1  0
 16 15  2  0
 17 15  1  0
 18 17  1  0
 18 26  1  0
 18 19  1  6
 20 25  2  0
 20 19  1  0
 21 20  1  0
 22 23  1  0
 22 21  2  0
 23 24  2  0
 24 25  1  0
 26 27  1  0
 28 26  2  0
M  END
$$$$
