ARF.pdb
     RDKit          3D

 28 28  0  0  1  0  0  0  0  0999 V2000
    8.7392  -20.2629   23.1972 C   0  0  0  0  0  0  0  0  0  0  0  0
    9.0213  -19.5098   21.8974 C   0  0  2  0  0  0  0  0  0  0  0  0
    9.9578  -20.2991   21.1514 N   0  0  0  0  0  0  0  0  0  0  0  0
    9.5785  -18.1500   22.2057 C   0  0  0  0  0  0  0  0  0  0  0  0
   10.8212  -18.0558   22.3684 O   0  0  0  0  0  0  0  0  0  0  0  0
    8.4921  -13.4207   16.3182 N   0  0  0  0  0  0  0  0  0  0  0  0
    8.4486  -13.2074   17.7349 C   0  0  0  0  0  0  0  0  0  0  0  0
    9.3572  -12.5149   18.3255 N   0  0  0  0  0  0  0  0  0  0  0  0
    7.3792  -13.7817   18.4506 N   0  0  0  0  0  0  0  0  0  0  0  0
    7.3504  -13.6725   19.8850 C   0  0  0  0  0  0  0  0  0  0  0  0
    8.3737  -14.6708   20.4382 C   0  0  0  0  0  0  0  0  0  0  0  0
    8.3494  -14.6777   21.9346 C   0  0  0  0  0  0  0  0  0  0  0  0
    9.2731  -15.6772   22.5777 C   0  0  2  0  0  0  0  0  0  0  0  0
    8.7572  -17.0144   22.3119 N   0  0  0  0  0  0  0  0  0  0  0  0
    9.4773  -15.4698   24.0323 C   0  0  0  0  0  0  0  0  0  0  0  0
   10.1367  -14.4636   24.3836 O   0  0  0  0  0  0  0  0  0  0  0  0
    9.3533  -12.3662   19.3439 N   0  0  0  0  0  0  0  0  0  0  0  0
    8.9561  -16.3619   25.0037 C   0  0  1  0  0  0  0  0  0  0  0  0
    9.1630  -16.0660   26.4134 C   0  0  0  0  0  0  0  0  0  0  0  0
    7.8675  -15.7899   27.1097 C   0  0  0  0  0  0  0  0  0  0  0  0
    7.3802  -14.4482   26.8039 C   0  0  0  0  0  0  0  0  0  0  0  0
    6.1598  -14.2008   26.1928 C   0  0  0  0  0  0  0  0  0  0  0  0
    5.7017  -12.9323   25.9337 C   0  0  0  0  0  0  0  0  0  0  0  0
    6.4515  -11.8320   26.2775 C   0  0  0  0  0  0  0  0  0  0  0  0
    7.6682  -12.0405   26.8859 C   0  0  0  0  0  0  0  0  0  0  0  0
    8.1241  -13.3140   27.1443 C   0  0  0  0  0  0  0  0  0  0  0  0
    9.8422  -17.2156   27.0362 O   0  0  0  0  0  0  0  0  0  0  0  0
   10.1133  -18.3571   26.2600 O   0  0  0  0  0  0  0  0  0  0  0  0
  2  1  1  1
  3  2  1  0
  4  5  2  0
  4  2  1  0
  7  6  1  0
  8  7  2  0
  9  7  1  0
 10  9  1  0
 10 11  1  0
 11 12  1  0
 13 12  1  1
 13 14  1  0
 14  4  1  0
 15 13  1  0
 16 15  2  0
 17 15  1  0
 18 17  1  0
 18 26  1  0
 18 19  1  1
 20 25  2  0
 20 19  1  0
 21 20  1  0
 22 23  1  0
 22 21  2  0
 23 24  2  0
 24 25  1  0
 26 27  1  0
 28 26  2  0
M  END
$$$$
