ARF.pdb
     RDKit          3D

 28 28  0  0  1  0  0  0  0  0999 V2000
    8.4560  -12.1298   19.2229 C   0  0  0  0  0  0  0  0  0  0  0  0
    8.6030  -13.4800   18.5219 C   0  0  2  0  0  0  0  0  0  0  0  0
    7.4856  -13.6136   17.6328 N   0  0  0  0  0  0  0  0  0  0  0  0
    8.6248  -14.5841   19.5392 C   0  0  0  0  0  0  0  0  0  0  0  0
    7.5184  -15.0135   19.9527 O   0  0  0  0  0  0  0  0  0  0  0  0
   12.5377  -17.7627   16.2971 N   0  0  0  0  0  0  0  0  0  0  0  0
   12.1163  -19.0286   16.8209 C   0  0  0  0  0  0  0  0  0  0  0  0
   11.7430  -19.9759   16.0352 N   0  0  0  0  0  0  0  0  0  0  0  0
   12.1269  -19.1941   18.2202 N   0  0  0  0  0  0  0  0  0  0  0  0
   12.5934  -18.1188   19.0548 C   0  0  0  0  0  0  0  0  0  0  0  0
   11.4152  -17.1609   19.2640 C   0  0  0  0  0  0  0  0  0  0  0  0
   11.0580  -17.0718   20.7147 C   0  0  0  0  0  0  0  0  0  0  0  0
    9.8792  -16.1878   21.0227 C   0  0  2  0  0  0  0  0  0  0  0  0
    9.8270  -15.1291   20.0221 N   0  0  0  0  0  0  0  0  0  0  0  0
    9.8861  -15.6191   22.3929 C   0  0  0  0  0  0  0  0  0  0  0  0
   10.7484  -14.7470   22.6502 O   0  0  0  0  0  0  0  0  0  0  0  0
   11.4711  -20.9030   16.3900 N   0  0  0  0  0  0  0  0  0  0  0  0
    8.9628  -16.0316   23.3872 C   0  0  1  0  0  0  0  0  0  0  0  0
    8.6871  -15.1405   24.5041 C   0  0  0  0  0  0  0  0  0  0  0  0
    7.5622  -14.2043   24.1916 C   0  0  0  0  0  0  0  0  0  0  0  0
    7.2448  -13.3600   25.3394 C   0  0  0  0  0  0  0  0  0  0  0  0
    7.8655  -12.1446   25.5872 C   0  0  0  0  0  0  0  0  0  0  0  0
    7.5395  -11.3477   26.6572 C   0  0  0  0  0  0  0  0  0  0  0  0
    6.5625  -11.7318   27.5456 C   0  0  0  0  0  0  0  0  0  0  0  0
    5.9255  -12.9324   27.3303 C   0  0  0  0  0  0  0  0  0  0  0  0
    6.2550  -13.7286   26.2560 C   0  0  0  0  0  0  0  0  0  0  0  0
    8.3566  -15.9597   25.6833 O   0  0  0  0  0  0  0  0  0  0  0  0
    8.8534  -15.5818   26.9441 O   0  0  0  0  0  0  0  0  0  0  0  0
  2  1  1  1
  3  2  1  0
  4  5  2  0
  4  2  1  0
  7  6  1  0
  8  7  2  0
  9  7  1  0
 10  9  1  0
 10 11  1  0
 11 12  1  0
 13 12  1  6
 13 14  1  0
 14  4  1  0
 15 13  1  0
 16 15  2  0
 17 15  1  0
 18 17  1  0
 18 26  1  0
 18 19  1  6
 20 25  2  0
 20 19  1  0
 21 20  1  0
 22 23  1  0
 22 21  2  0
 23 24  2  0
 24 25  1  0
 26 27  1  0
 28 26  2  0
M  END
$$$$
