ARF.pdb
     RDKit          3D

 28 28  0  0  1  0  0  0  0  0999 V2000
    8.1875  -11.8832   20.3867 C   0  0  0  0  0  0  0  0  0  0  0  0
    8.3742  -13.1866   19.6106 C   0  0  2  0  0  0  0  0  0  0  0  0
    7.4356  -13.1661   18.5265 N   0  0  0  0  0  0  0  0  0  0  0  0
    8.1342  -14.3595   20.5169 C   0  0  0  0  0  0  0  0  0  0  0  0
    6.9409  -14.6773   20.7504 O   0  0  0  0  0  0  0  0  0  0  0  0
   12.0730  -16.7527   17.6746 N   0  0  0  0  0  0  0  0  0  0  0  0
   10.9280  -17.5264   17.2943 C   0  0  0  0  0  0  0  0  0  0  0  0
   10.1786  -17.1580   16.3163 N   0  0  0  0  0  0  0  0  0  0  0  0
   10.6571  -18.6984   18.0283 N   0  0  0  0  0  0  0  0  0  0  0  0
   10.7037  -18.6578   19.4658 C   0  0  0  0  0  0  0  0  0  0  0  0
    9.8364  -17.4768   19.9163 C   0  0  0  0  0  0  0  0  0  0  0  0
    9.7991  -17.3881   21.4097 C   0  0  0  0  0  0  0  0  0  0  0  0
    8.9892  -16.2426   21.9554 C   0  0  2  0  0  0  0  0  0  0  0  0
    9.1914  -15.0863   21.0911 N   0  0  0  0  0  0  0  0  0  0  0  0
    9.2882  -15.9040   23.3684 C   0  0  0  0  0  0  0  0  0  0  0  0
   10.3245  -15.2365   23.5938 O   0  0  0  0  0  0  0  0  0  0  0  0
    9.3325  -17.6805   16.0511 N   0  0  0  0  0  0  0  0  0  0  0  0
    8.4484  -16.3094   24.4369 C   0  0  1  0  0  0  0  0  0  0  0  0
    8.8511  -16.0064   25.8020 C   0  0  0  0  0  0  0  0  0  0  0  0
    7.6823  -15.5846   26.6358 C   0  0  0  0  0  0  0  0  0  0  0  0
    7.2588  -14.2280   26.3021 C   0  0  0  0  0  0  0  0  0  0  0  0
    6.1120  -13.9440   25.5754 C   0  0  0  0  0  0  0  0  0  0  0  0
    5.7112  -12.6618   25.2899 C   0  0  0  0  0  0  0  0  0  0  0  0
    6.4476  -11.5841   25.7230 C   0  0  0  0  0  0  0  0  0  0  0  0
    7.5918  -11.8291   26.4471 C   0  0  0  0  0  0  0  0  0  0  0  0
    7.9904  -13.1163   26.7316 C   0  0  0  0  0  0  0  0  0  0  0  0
    9.4830  -17.2059   26.3787 O   0  0  0  0  0  0  0  0  0  0  0  0
   10.1271  -17.1115   27.6258 O   0  0  0  0  0  0  0  0  0  0  0  0
  2  1  1  1
  3  2  1  0
  4  5  2  0
  4  2  1  0
  7  6  1  0
  8  7  2  0
  9  7  1  0
 10  9  1  0
 10 11  1  0
 11 12  1  0
 13 12  1  6
 13 14  1  0
 14  4  1  0
 15 13  1  0
 16 15  2  0
 17 15  1  0
 18 17  1  0
 18 26  1  0
 18 19  1  1
 20 25  2  0
 20 19  1  0
 21 20  1  0
 22 23  1  0
 22 21  2  0
 23 24  2  0
 24 25  1  0
 26 27  1  0
 28 26  2  0
M  END
$$$$
