ARF.pdb
     RDKit          3D

 28 28  0  0  1  0  0  0  0  0999 V2000
    6.7581  -20.5120   21.5706 C   0  0  0  0  0  0  0  0  0  0  0  0
    7.1840  -19.8231   22.8669 C   0  0  2  0  0  0  0  0  0  0  0  0
    5.9920  -19.3154   23.4819 N   0  0  0  0  0  0  0  0  0  0  0  0
    8.1537  -18.7176   22.5630 C   0  0  0  0  0  0  0  0  0  0  0  0
    9.2843  -19.0431   22.1214 O   0  0  0  0  0  0  0  0  0  0  0  0
    9.0659  -12.1954   18.5386 N   0  0  0  0  0  0  0  0  0  0  0  0
    8.4483  -13.2578   17.8009 C   0  0  0  0  0  0  0  0  0  0  0  0
    8.8729  -13.5817   16.6309 N   0  0  0  0  0  0  0  0  0  0  0  0
    7.3656  -13.9293   18.4030 N   0  0  0  0  0  0  0  0  0  0  0  0
    7.2325  -13.9116   19.8356 C   0  0  0  0  0  0  0  0  0  0  0  0
    8.1737  -14.9851   20.3936 C   0  0  0  0  0  0  0  0  0  0  0  0
    7.9835  -15.1388   21.8701 C   0  0  0  0  0  0  0  0  0  0  0  0
    8.7542  -16.2721   22.4926 C   0  0  2  0  0  0  0  0  0  0  0  0
    7.8267  -17.3647   22.7586 N   0  0  0  0  0  0  0  0  0  0  0  0
    9.4981  -15.9003   23.7211 C   0  0  0  0  0  0  0  0  0  0  0  0
   10.6270  -15.3763   23.5743 O   0  0  0  0  0  0  0  0  0  0  0  0
    8.5199  -14.4104   16.1332 N   0  0  0  0  0  0  0  0  0  0  0  0
    8.9716  -16.1201   25.0193 C   0  0  1  0  0  0  0  0  0  0  0  0
    9.8473  -15.9584   26.1702 C   0  0  0  0  0  0  0  0  0  0  0  0
    9.7835  -14.5659   26.7143 C   0  0  0  0  0  0  0  0  0  0  0  0
    8.4248  -14.0360   26.6486 C   0  0  0  0  0  0  0  0  0  0  0  0
    7.3007  -14.8352   26.5016 C   0  0  0  0  0  0  0  0  0  0  0  0
    6.0257  -14.3259   26.4668 C   0  0  0  0  0  0  0  0  0  0  0  0
    5.8079  -12.9727   26.5789 C   0  0  0  0  0  0  0  0  0  0  0  0
    6.9009  -12.1497   26.7262 C   0  0  0  0  0  0  0  0  0  0  0  0
    8.1779  -12.6641   26.7609 C   0  0  0  0  0  0  0  0  0  0  0  0
    9.4438  -16.9287   27.2030 O   0  0  0  0  0  0  0  0  0  0  0  0
   10.1399  -16.9616   28.4250 O   0  0  0  0  0  0  0  0  0  0  0  0
  2  1  1  6
  3  2  1  0
  4  5  2  0
  4  2  1  0
  7  6  1  0
  8  7  2  0
  9  7  1  0
 10  9  1  0
 10 11  1  0
 11 12  1  0
 13 12  1  1
 13 14  1  0
 14  4  1  0
 15 13  1  0
 16 15  2  0
 17 15  1  0
 18 17  1  0
 18 26  1  0
 18 19  1  6
 20 25  2  0
 20 19  1  0
 21 20  1  0
 22 23  1  0
 22 21  2  0
 23 24  2  0
 24 25  1  0
 26 27  1  0
 28 26  2  0
M  END
$$$$
