ARF.pdb
     RDKit          3D

 28 28  0  0  1  0  0  0  0  0999 V2000
    8.6344  -12.7510   19.6197 C   0  0  0  0  0  0  0  0  0  0  0  0
    7.8732  -14.0326   19.2815 C   0  0  2  0  0  0  0  0  0  0  0  0
    6.8264  -13.6695   18.3708 N   0  0  0  0  0  0  0  0  0  0  0  0
    7.3169  -14.6423   20.5359 C   0  0  0  0  0  0  0  0  0  0  0  0
    6.1875  -14.2478   20.9208 O   0  0  0  0  0  0  0  0  0  0  0  0
    7.1260  -20.7982   25.1946 N   0  0  0  0  0  0  0  0  0  0  0  0
    6.6954  -21.4652   24.0012 C   0  0  0  0  0  0  0  0  0  0  0  0
    6.3672  -22.7085   24.0227 N   0  0  0  0  0  0  0  0  0  0  0  0
    6.6457  -20.7113   22.8118 N   0  0  0  0  0  0  0  0  0  0  0  0
    5.6683  -19.6635   22.6804 C   0  0  0  0  0  0  0  0  0  0  0  0
    6.3122  -18.3726   23.1986 C   0  0  0  0  0  0  0  0  0  0  0  0
    6.9068  -17.5891   22.0706 C   0  0  0  0  0  0  0  0  0  0  0  0
    7.4864  -16.2564   22.4626 C   0  0  2  0  0  0  0  0  0  0  0  0
    8.0182  -15.6182   21.2647 N   0  0  0  0  0  0  0  0  0  0  0  0
    8.5199  -16.3302   23.5243 C   0  0  0  0  0  0  0  0  0  0  0  0
    9.6615  -16.7249   23.1903 O   0  0  0  0  0  0  0  0  0  0  0  0
    6.0544  -23.2043   23.1768 N   0  0  0  0  0  0  0  0  0  0  0  0
    8.2485  -15.9734   24.8696 C   0  0  2  0  0  0  0  0  0  0  0  0
    9.3612  -15.8186   25.7946 C   0  0  0  0  0  0  0  0  0  0  0  0
    9.7176  -14.3776   25.9845 C   0  0  0  0  0  0  0  0  0  0  0  0
    8.5399  -13.5831   26.3202 C   0  0  0  0  0  0  0  0  0  0  0  0
    8.1782  -13.2677   27.6216 C   0  0  0  0  0  0  0  0  0  0  0  0
    7.0815  -12.4978   27.9227 C   0  0  0  0  0  0  0  0  0  0  0  0
    6.2802  -11.9975   26.9232 C   0  0  0  0  0  0  0  0  0  0  0  0
    6.6097  -12.2906   25.6197 C   0  0  0  0  0  0  0  0  0  0  0  0
    7.7103  -13.0629   25.3218 C   0  0  0  0  0  0  0  0  0  0  0  0
    8.9840  -16.4250   27.0833 O   0  0  0  0  0  0  0  0  0  0  0  0
    7.7378  -17.0667   27.2026 O   0  0  0  0  0  0  0  0  0  0  0  0
  2  1  1  1
  3  2  1  0
  4  5  2  0
  4  2  1  0
  7  6  1  0
  8  7  2  0
  9  7  1  0
 10  9  1  0
 10 11  1  0
 11 12  1  0
 13 12  1  6
 13 14  1  0
 14  4  1  0
 15 13  1  0
 16 15  2  0
 17 15  1  0
 18 17  1  0
 18 26  1  0
 18 19  1  6
 20 25  2  0
 20 19  1  0
 21 20  1  0
 22 23  1  0
 22 21  2  0
 23 24  2  0
 24 25  1  0
 26 27  1  0
 28 26  2  0
M  END
$$$$
