ARF.pdb
     RDKit          3D

 28 28  0  0  1  0  0  0  0  0999 V2000
    6.5199  -19.2953   25.0621 C   0  0  0  0  0  0  0  0  0  0  0  0
    6.3493  -19.3923   23.5463 C   0  0  2  0  0  0  0  0  0  0  0  0
    6.5499  -20.7670   23.1899 N   0  0  0  0  0  0  0  0  0  0  0  0
    7.3453  -18.5011   22.8621 C   0  0  0  0  0  0  0  0  0  0  0  0
    8.4476  -19.0079   22.5342 O   0  0  0  0  0  0  0  0  0  0  0  0
    8.5655  -12.9640   17.5017 N   0  0  0  0  0  0  0  0  0  0  0  0
    9.0563  -12.5012   18.7664 C   0  0  0  0  0  0  0  0  0  0  0  0
   10.2978  -12.6265   19.0776 N   0  0  0  0  0  0  0  0  0  0  0  0
    8.1324  -11.9076   19.6493 N   0  0  0  0  0  0  0  0  0  0  0  0
    7.3082  -12.7470   20.4779 C   0  0  0  0  0  0  0  0  0  0  0  0
    8.1454  -13.9733   20.8589 C   0  0  0  0  0  0  0  0  0  0  0  0
    7.2929  -15.0099   21.5210 C   0  0  0  0  0  0  0  0  0  0  0  0
    8.0239  -16.2579   21.9382 C   0  0  2  0  0  0  0  0  0  0  0  0
    7.0727  -17.1493   22.5904 N   0  0  0  0  0  0  0  0  0  0  0  0
    9.1998  -16.0126   22.8089 C   0  0  0  0  0  0  0  0  0  0  0  0
    9.9310  -15.0346   22.5271 O   0  0  0  0  0  0  0  0  0  0  0  0
   10.6588  -12.3502   20.0009 N   0  0  0  0  0  0  0  0  0  0  0  0
    9.5028  -16.8392   23.9206 C   0  0  1  0  0  0  0  0  0  0  0  0
    9.9270  -16.2162   25.1654 C   0  0  0  0  0  0  0  0  0  0  0  0
    8.9499  -15.1767   25.6171 C   0  0  0  0  0  0  0  0  0  0  0  0
    9.3361  -14.6159   26.9084 C   0  0  0  0  0  0  0  0  0  0  0  0
    8.5865  -13.6620   27.5806 C   0  0  0  0  0  0  0  0  0  0  0  0
    8.9481  -13.1611   28.8072 C   0  0  0  0  0  0  0  0  0  0  0  0
   10.0938  -13.5952   29.4319 C   0  0  0  0  0  0  0  0  0  0  0  0
   10.8619  -14.5417   28.7933 C   0  0  0  0  0  0  0  0  0  0  0  0
   10.4959  -15.0418   27.5635 C   0  0  0  0  0  0  0  0  0  0  0  0
   10.0641  -17.2668   26.1893 O   0  0  0  0  0  0  0  0  0  0  0  0
    9.0562  -18.2402   26.3149 O   0  0  0  0  0  0  0  0  0  0  0  0
  2  1  1  1
  3  2  1  0
  4  5  2  0
  4  2  1  0
  7  6  1  0
  8  7  2  0
  9  7  1  0
 10  9  1  0
 10 11  1  0
 11 12  1  0
 13 12  1  1
 13 14  1  0
 14  4  1  0
 15 13  1  0
 16 15  2  0
 17 15  1  0
 18 17  1  0
 18 26  1  0
 18 19  1  6
 20 25  2  0
 20 19  1  0
 21 20  1  0
 22 23  1  0
 22 21  2  0
 23 24  2  0
 24 25  1  0
 26 27  1  0
 28 26  2  0
M  END
$$$$
