ARF.pdb
     RDKit          3D

 28 28  0  0  1  0  0  0  0  0999 V2000
    7.9667  -11.7397   20.0264 C   0  0  0  0  0  0  0  0  0  0  0  0
    8.0849  -13.0634   19.2714 C   0  0  2  0  0  0  0  0  0  0  0  0
    7.0599  -13.0658   18.2682 N   0  0  0  0  0  0  0  0  0  0  0  0
    7.9173  -14.2117   20.2243 C   0  0  0  0  0  0  0  0  0  0  0  0
    6.7488  -14.6221   20.4377 O   0  0  0  0  0  0  0  0  0  0  0  0
   11.0550  -21.5790   20.2559 N   0  0  0  0  0  0  0  0  0  0  0  0
   10.1203  -21.7945   21.3209 C   0  0  0  0  0  0  0  0  0  0  0  0
   10.0066  -22.9497   21.8746 N   0  0  0  0  0  0  0  0  0  0  0  0
    9.3362  -20.6994   21.7350 N   0  0  0  0  0  0  0  0  0  0  0  0
    9.3070  -19.5074   20.9296 C   0  0  0  0  0  0  0  0  0  0  0  0
    9.8879  -18.3704   21.7780 C   0  0  0  0  0  0  0  0  0  0  0  0
    9.8224  -17.0718   21.0370 C   0  0  0  0  0  0  0  0  0  0  0  0
    8.9064  -16.0428   21.6436 C   0  0  2  0  0  0  0  0  0  0  0  0
    9.0136  -14.8169   20.8623 N   0  0  0  0  0  0  0  0  0  0  0  0
    9.1573  -15.7761   23.0812 C   0  0  0  0  0  0  0  0  0  0  0  0
   10.2140  -15.1716   23.3789 O   0  0  0  0  0  0  0  0  0  0  0  0
    9.3139  -23.1343   22.6130 N   0  0  0  0  0  0  0  0  0  0  0  0
    8.2512  -16.1802   24.0944 C   0  0  2  0  0  0  0  0  0  0  0  0
    8.6231  -15.9882   25.4881 C   0  0  0  0  0  0  0  0  0  0  0  0
    7.4262  -15.6987   26.3384 C   0  0  0  0  0  0  0  0  0  0  0  0
    7.0803  -14.2811   26.2965 C   0  0  0  0  0  0  0  0  0  0  0  0
    5.8441  -13.8096   25.8800 C   0  0  0  0  0  0  0  0  0  0  0  0
    5.5227  -12.4744   25.8695 C   0  0  0  0  0  0  0  0  0  0  0  0
    6.4342  -11.5304   26.2809 C   0  0  0  0  0  0  0  0  0  0  0  0
    7.6712  -11.9629   26.7010 C   0  0  0  0  0  0  0  0  0  0  0  0
    7.9897  -13.3027   26.7104 C   0  0  0  0  0  0  0  0  0  0  0  0
    9.3025  -17.2069   25.9614 O   0  0  0  0  0  0  0  0  0  0  0  0
   10.1006  -17.1440   27.1182 O   0  0  0  0  0  0  0  0  0  0  0  0
  2  1  1  1
  3  2  1  0
  4  5  2  0
  4  2  1  0
  7  6  1  0
  8  7  2  0
  9  7  1  0
 10  9  1  0
 10 11  1  0
 11 12  1  0
 13 12  1  6
 13 14  1  0
 14  4  1  0
 15 13  1  0
 16 15  2  0
 17 15  1  0
 18 17  1  0
 18 26  1  0
 18 19  1  1
 20 25  2  0
 20 19  1  0
 21 20  1  0
 22 23  1  0
 22 21  2  0
 23 24  2  0
 24 25  1  0
 26 27  1  0
 28 26  2  0
M  END
$$$$
