ARF.pdb
     RDKit          3D

 28 28  0  0  1  0  0  0  0  0999 V2000
    9.4229  -19.8764   20.3126 C   0  0  0  0  0  0  0  0  0  0  0  0
    9.7840  -19.5598   21.7637 C   0  0  2  0  0  0  0  0  0  0  0  0
    8.6437  -19.9030   22.5629 N   0  0  0  0  0  0  0  0  0  0  0  0
   10.1261  -18.1040   21.8990 C   0  0  0  0  0  0  0  0  0  0  0  0
   11.1964  -17.7085   21.3723 O   0  0  0  0  0  0  0  0  0  0  0  0
    8.5217  -11.6575   18.6357 N   0  0  0  0  0  0  0  0  0  0  0  0
    7.9788  -12.9688   18.4349 C   0  0  0  0  0  0  0  0  0  0  0  0
    8.3679  -13.6999   17.4510 N   0  0  0  0  0  0  0  0  0  0  0  0
    7.0092  -13.4228   19.3510 N   0  0  0  0  0  0  0  0  0  0  0  0
    7.1387  -14.7369   19.9227 C   0  0  0  0  0  0  0  0  0  0  0  0
    8.5256  -14.8168   20.5707 C   0  0  0  0  0  0  0  0  0  0  0  0
    8.4074  -15.0366   22.0463 C   0  0  0  0  0  0  0  0  0  0  0  0
    9.5621  -15.7733   22.6707 C   0  0  2  0  0  0  0  0  0  0  0  0
    9.2931  -17.2033   22.5847 N   0  0  0  0  0  0  0  0  0  0  0  0
    9.8543  -15.3743   24.0693 C   0  0  0  0  0  0  0  0  0  0  0  0
    9.8758  -14.1478   24.3258 O   0  0  0  0  0  0  0  0  0  0  0  0
    8.0720  -14.6805   17.3503 N   0  0  0  0  0  0  0  0  0  0  0  0
   10.1025  -16.3261   25.0908 C   0  0  2  0  0  0  0  0  0  0  0  0
    9.6268  -16.0519   26.4384 C   0  0  0  0  0  0  0  0  0  0  0  0
    8.1323  -15.9929   26.4892 C   0  0  0  0  0  0  0  0  0  0  0  0
    7.6575  -14.6132   26.4465 C   0  0  0  0  0  0  0  0  0  0  0  0
    6.3638  -14.2624   26.0896 C   0  0  0  0  0  0  0  0  0  0  0  0
    5.9224  -12.9619   26.0781 C   0  0  0  0  0  0  0  0  0  0  0  0
    6.7645  -11.9325   26.4280 C   0  0  0  0  0  0  0  0  0  0  0  0
    8.0556  -12.2442   26.7879 C   0  0  0  0  0  0  0  0  0  0  0  0
    8.4945  -13.5496   26.7985 C   0  0  0  0  0  0  0  0  0  0  0  0
   10.1264  -17.1102   27.3335 O   0  0  0  0  0  0  0  0  0  0  0  0
   10.0112  -16.9444   28.7257 O   0  0  0  0  0  0  0  0  0  0  0  0
  2  1  1  6
  3  2  1  0
  4  5  2  0
  4  2  1  0
  7  6  1  0
  8  7  2  0
  9  7  1  0
 10  9  1  0
 10 11  1  0
 11 12  1  0
 13 12  1  1
 13 14  1  0
 14  4  1  0
 15 13  1  0
 16 15  2  0
 17 15  1  0
 18 17  1  0
 18 26  1  0
 18 19  1  6
 20 25  2  0
 20 19  1  0
 21 20  1  0
 22 23  1  0
 22 21  2  0
 23 24  2  0
 24 25  1  0
 26 27  1  0
 28 26  2  0
M  END
$$$$
