FKY.pdb
     RDKit          3D

 33 34  0  0  1  0  0  0  0  0999 V2000
   26.0586  -17.4259  -17.4447 N   0  0  0  0  0  0  0  0  0  0  0  0
   26.7820  -18.2391  -16.5128 C   0  0  1  0  0  0  0  0  0  0  0  0
   27.6728  -17.4339  -15.6053 C   0  0  0  0  0  0  0  0  0  0  0  0
   28.7535  -16.8396  -16.4322 C   0  0  0  0  0  0  0  0  0  0  0  0
   29.7950  -17.6245  -16.8221 C   0  0  0  0  0  0  0  0  0  0  0  0
   30.8035  -17.0958  -17.5859 C   0  0  0  0  0  0  0  0  0  0  0  0
   30.7677  -15.7859  -17.9572 C   0  0  0  0  0  0  0  0  0  0  0  0
   29.7207  -14.9912  -17.5669 C   0  0  0  0  0  0  0  0  0  0  0  0
   28.7170  -15.5273  -16.8037 C   0  0  0  0  0  0  0  0  0  0  0  0
   25.9001  -19.1262  -15.7103 C   0  0  0  0  0  0  0  0  0  0  0  0
   25.0439  -18.6222  -14.9703 O   0  0  0  0  0  0  0  0  0  0  0  0
   26.0306  -20.5571  -15.7842 N   0  0  0  0  0  0  0  0  0  0  0  0
   25.1825  -21.4345  -15.0047 C   0  0  1  0  0  0  0  0  0  0  0  0
   25.3134  -22.8672  -15.5314 C   0  0  0  0  0  0  0  0  0  0  0  0
   24.5787  -23.8381  -14.6736 C   0  0  0  0  0  0  0  0  0  0  0  0
   24.7416  -25.2322  -15.2111 C   0  0  0  0  0  0  0  0  0  0  0  0
   23.9760  -26.2439  -14.4292 C   0  0  0  0  0  0  0  0  0  0  0  0
   22.5593  -25.9122  -14.4774 N   0  0  0  0  0  0  0  0  0  0  0  0
   25.6831  -21.4540  -13.6190 C   0  0  0  0  0  0  0  0  0  0  0  0
   26.8679  -21.7763  -13.3988 O   0  0  0  0  0  0  0  0  0  0  0  0
   28.2981  -19.9632   -5.5781 O   0  0  0  0  0  0  0  0  0  0  0  0
   27.8670  -20.0763   -6.9105 C   0  0  0  0  0  0  0  0  0  0  0  0
   27.0460  -19.1392   -7.4907 C   0  0  0  0  0  0  0  0  0  0  0  0
   26.6003  -19.2105   -8.7910 C   0  0  0  0  0  0  0  0  0  0  0  0
   26.9895  -20.2772   -9.5723 C   0  0  0  0  0  0  0  0  0  0  0  0
   26.5206  -20.3786  -10.9657 C   0  0  0  0  0  0  0  0  0  0  0  0
   25.3361  -21.3014  -11.1458 C   0  0  2  0  0  0  0  0  0  0  0  0
   24.8529  -21.1153  -12.5228 N   0  0  0  0  0  0  0  0  0  0  0  0
   24.2412  -20.9257  -10.2317 C   0  0  0  0  0  0  0  0  0  0  0  0
   24.1445  -21.3915   -8.9265 O   0  0  0  0  0  0  0  0  0  0  0  0
   27.8208  -21.2354   -9.0010 C   0  0  0  0  0  0  0  0  0  0  0  0
   28.2563  -21.1428   -7.6921 C   0  0  0  0  0  0  0  0  0  0  0  0
   23.3380  -20.1509  -10.6211 O   0  0  0  0  0  0  0  0  0  0  0  0
  2  1  1  1
  3  2  1  0
  3  4  1  0
  4  9  2  0
  5  6  2  0
  5  4  1  0
  6  7  1  0
  7  8  2  0
  9  8  1  0
 10 12  1  0
 10  2  1  0
 11 10  2  0
 13 12  1  0
 13 19  1  0
 13 14  1  6
 15 14  1  0
 16 15  1  0
 17 16  1  0
 18 17  1  0
 19 28  1  0
 20 19  2  0
 22 23  2  0
 22 21  1  0
 24 23  1  0
 25 24  2  0
 26 25  1  0
 27 26  1  1
 27 29  1  0
 28 27  1  0
 29 30  1  0
 31 25  1  0
 31 32  2  0
 32 22  1  0
 33 29  2  0
M  END
$$$$
