FKY.pdb
     RDKit          3D

 33 34  0  0  1  0  0  0  0  0999 V2000
   23.1370   -8.8817  -18.3099 N   0  0  0  0  0  0  0  0  0  0  0  0
   22.4572   -8.5430  -17.0949 C   0  0  1  0  0  0  0  0  0  0  0  0
   23.3685   -7.9210  -16.0710 C   0  0  0  0  0  0  0  0  0  0  0  0
   24.3949   -8.9271  -15.6986 C   0  0  0  0  0  0  0  0  0  0  0  0
   25.6709   -8.7658  -16.1444 C   0  0  0  0  0  0  0  0  0  0  0  0
   26.6343   -9.6832  -15.8122 C   0  0  0  0  0  0  0  0  0  0  0  0
   26.3196  -10.7575  -15.0366 C   0  0  0  0  0  0  0  0  0  0  0  0
   25.0357  -10.9244  -14.5851 C   0  0  0  0  0  0  0  0  0  0  0  0
   24.0789  -10.0032  -14.9215 C   0  0  0  0  0  0  0  0  0  0  0  0
   21.2690   -7.6782  -17.3164 C   0  0  0  0  0  0  0  0  0  0  0  0
   21.3227   -6.7799  -18.1679 O   0  0  0  0  0  0  0  0  0  0  0  0
   20.0637   -7.8732  -16.5556 N   0  0  0  0  0  0  0  0  0  0  0  0
   18.8852   -7.0642  -16.7864 C   0  0  1  0  0  0  0  0  0  0  0  0
   17.6345   -7.8773  -16.4371 C   0  0  0  0  0  0  0  0  0  0  0  0
   16.3861   -7.1404  -16.7784 C   0  0  0  0  0  0  0  0  0  0  0  0
   15.1819   -7.9544  -16.3954 C   0  0  0  0  0  0  0  0  0  0  0  0
   13.8981   -7.2598  -16.6959 C   0  0  0  0  0  0  0  0  0  0  0  0
   12.7902   -8.0836  -16.2342 N   0  0  0  0  0  0  0  0  0  0  0  0
   18.9138   -5.9246  -15.8528 C   0  0  0  0  0  0  0  0  0  0  0  0
   19.0642   -6.1346  -14.6324 O   0  0  0  0  0  0  0  0  0  0  0  0
   25.0064   -5.2303  -15.2574 O   0  0  0  0  0  0  0  0  0  0  0  0
   23.7677   -4.5793  -15.3836 C   0  0  0  0  0  0  0  0  0  0  0  0
   22.9781   -4.3018  -14.2935 C   0  0  0  0  0  0  0  0  0  0  0  0
   21.7595   -3.6668  -14.3712 C   0  0  0  0  0  0  0  0  0  0  0  0
   21.2866   -3.2792  -15.6065 C   0  0  0  0  0  0  0  0  0  0  0  0
   19.9819   -2.6028  -15.7160 C   0  0  0  0  0  0  0  0  0  0  0  0
   18.8071   -3.4779  -15.3403 C   0  0  2  0  0  0  0  0  0  0  0  0
   18.7748   -4.5893  -16.3036 N   0  0  0  0  0  0  0  0  0  0  0  0
   17.5411   -2.7328  -15.4727 C   0  0  0  0  0  0  0  0  0  0  0  0
   16.5813   -3.0261  -16.4332 O   0  0  0  0  0  0  0  0  0  0  0  0
   22.0731   -3.5521  -16.7213 C   0  0  0  0  0  0  0  0  0  0  0  0
   23.2947   -4.1914  -16.6189 C   0  0  0  0  0  0  0  0  0  0  0  0
   17.2891   -1.7829  -14.6969 O   0  0  0  0  0  0  0  0  0  0  0  0
  2  1  1  6
  3  2  1  0
  3  4  1  0
  4  9  2  0
  5  6  2  0
  5  4  1  0
  6  7  1  0
  7  8  2  0
  9  8  1  0
 10 12  1  0
 10  2  1  0
 11 10  2  0
 13 12  1  0
 13 19  1  0
 13 14  1  1
 15 14  1  0
 16 15  1  0
 17 16  1  0
 18 17  1  0
 19 28  1  0
 20 19  2  0
 22 23  2  0
 22 21  1  0
 24 23  1  0
 25 24  2  0
 26 25  1  0
 27 26  1  6
 27 29  1  0
 28 27  1  0
 29 30  1  0
 31 25  1  0
 31 32  2  0
 32 22  1  0
 33 29  2  0
M  END
$$$$
