FKY.pdb
     RDKit          3D

 33 34  0  0  1  0  0  0  0  0999 V2000
   24.6629  -24.1305  -18.8589 N   0  0  0  0  0  0  0  0  0  0  0  0
   23.9468  -22.9452  -19.2265 C   0  0  1  0  0  0  0  0  0  0  0  0
   22.5578  -23.2353  -19.7286 C   0  0  0  0  0  0  0  0  0  0  0  0
   22.6781  -23.9369  -21.0317 C   0  0  0  0  0  0  0  0  0  0  0  0
   22.4249  -25.2731  -21.0887 C   0  0  0  0  0  0  0  0  0  0  0  0
   22.5301  -25.9404  -22.2819 C   0  0  0  0  0  0  0  0  0  0  0  0
   22.8875  -25.2708  -23.4128 C   0  0  0  0  0  0  0  0  0  0  0  0
   23.1435  -23.9248  -23.3604 C   0  0  0  0  0  0  0  0  0  0  0  0
   23.0361  -23.2654  -22.1642 C   0  0  0  0  0  0  0  0  0  0  0  0
   23.8976  -21.9357  -18.1369 C   0  0  0  0  0  0  0  0  0  0  0  0
   24.2327  -22.2637  -16.9903 O   0  0  0  0  0  0  0  0  0  0  0  0
   23.4669  -20.5883  -18.3998 N   0  0  0  0  0  0  0  0  0  0  0  0
   23.5512  -19.5569  -17.3870 C   0  0  1  0  0  0  0  0  0  0  0  0
   23.6877  -18.1896  -18.0647 C   0  0  0  0  0  0  0  0  0  0  0  0
   25.0906  -17.9223  -18.4868 C   0  0  0  0  0  0  0  0  0  0  0  0
   25.1597  -16.6477  -19.2805 C   0  0  0  0  0  0  0  0  0  0  0  0
   26.5290  -16.3637  -19.7956 C   0  0  0  0  0  0  0  0  0  0  0  0
   26.4759  -15.2101  -20.6820 N   0  0  0  0  0  0  0  0  0  0  0  0
   22.2779  -19.5281  -16.6461 C   0  0  0  0  0  0  0  0  0  0  0  0
   21.2108  -19.7562  -17.2505 O   0  0  0  0  0  0  0  0  0  0  0  0
   16.6209  -19.1914   -9.7659 O   0  0  0  0  0  0  0  0  0  0  0  0
   17.7638  -19.2273  -10.5823 C   0  0  0  0  0  0  0  0  0  0  0  0
   18.4694  -18.0901  -10.8952 C   0  0  0  0  0  0  0  0  0  0  0  0
   19.5929  -18.0794  -11.6902 C   0  0  0  0  0  0  0  0  0  0  0  0
   20.0521  -19.2694  -12.2125 C   0  0  0  0  0  0  0  0  0  0  0  0
   21.2497  -19.2828  -13.0712 C   0  0  0  0  0  0  0  0  0  0  0  0
   20.9405  -19.2415  -14.5510 C   0  0  2  0  0  0  0  0  0  0  0  0
   22.2301  -19.2471  -15.2589 N   0  0  0  0  0  0  0  0  0  0  0  0
   20.2422  -17.9905  -14.9010 C   0  0  0  0  0  0  0  0  0  0  0  0
   18.8599  -17.8904  -14.9965 O   0  0  0  0  0  0  0  0  0  0  0  0
   19.3499  -20.4307  -11.9059 C   0  0  0  0  0  0  0  0  0  0  0  0
   18.2234  -20.4172  -11.1046 C   0  0  0  0  0  0  0  0  0  0  0  0
   20.8990  -16.9494  -15.1304 O   0  0  0  0  0  0  0  0  0  0  0  0
  2  1  1  1
  3  2  1  0
  3  4  1  0
  4  9  2  0
  5  6  2  0
  5  4  1  0
  6  7  1  0
  7  8  2  0
  9  8  1  0
 10 12  1  0
 10  2  1  0
 11 10  2  0
 13 12  1  0
 13 19  1  0
 13 14  1  6
 15 14  1  0
 16 15  1  0
 17 16  1  0
 18 17  1  0
 19 28  1  0
 20 19  2  0
 22 23  2  0
 22 21  1  0
 24 23  1  0
 25 24  2  0
 26 25  1  0
 27 26  1  1
 27 29  1  0
 28 27  1  0
 29 30  1  0
 31 25  1  0
 31 32  2  0
 32 22  1  0
 33 29  2  0
M  END
$$$$
