FKY.pdb
     RDKit          3D

 33 34  0  0  1  0  0  0  0  0999 V2000
   22.0397  -17.2426  -19.1791 N   0  0  0  0  0  0  0  0  0  0  0  0
   22.3635  -17.1389  -17.7872 C   0  0  1  0  0  0  0  0  0  0  0  0
   21.5823  -16.0603  -17.0858 C   0  0  0  0  0  0  0  0  0  0  0  0
   21.9530  -14.7568  -17.6925 C   0  0  0  0  0  0  0  0  0  0  0  0
   21.0445  -14.1080  -18.4714 C   0  0  0  0  0  0  0  0  0  0  0  0
   21.3663  -12.9032  -19.0412 C   0  0  0  0  0  0  0  0  0  0  0  0
   22.5936  -12.3513  -18.8310 C   0  0  0  0  0  0  0  0  0  0  0  0
   23.5121  -13.0009  -18.0472 C   0  0  0  0  0  0  0  0  0  0  0  0
   23.1827  -14.2045  -17.4814 C   0  0  0  0  0  0  0  0  0  0  0  0
   22.2233  -18.4280  -17.0612 C   0  0  0  0  0  0  0  0  0  0  0  0
   21.2583  -19.1635  -17.3115 O   0  0  0  0  0  0  0  0  0  0  0  0
   23.1923  -18.8278  -16.0757 N   0  0  0  0  0  0  0  0  0  0  0  0
   23.1321  -20.1277  -15.4407 C   0  0  1  0  0  0  0  0  0  0  0  0
   24.5234  -20.5043  -14.9214 C   0  0  0  0  0  0  0  0  0  0  0  0
   24.5277  -21.8515  -14.2865 C   0  0  0  0  0  0  0  0  0  0  0  0
   24.9690  -22.8911  -15.2784 C   0  0  0  0  0  0  0  0  0  0  0  0
   24.9008  -24.2753  -14.7304 C   0  0  0  0  0  0  0  0  0  0  0  0
   25.3579  -25.2136  -15.7453 N   0  0  0  0  0  0  0  0  0  0  0  0
   22.2603  -20.0266  -14.2570 C   0  0  0  0  0  0  0  0  0  0  0  0
   22.6049  -19.3031  -13.3010 O   0  0  0  0  0  0  0  0  0  0  0  0
   19.2638  -14.4262  -13.8858 O   0  0  0  0  0  0  0  0  0  0  0  0
   19.1778  -15.8207  -13.7373 C   0  0  0  0  0  0  0  0  0  0  0  0
   19.3440  -16.4332  -12.5182 C   0  0  0  0  0  0  0  0  0  0  0  0
   19.2682  -17.7942  -12.3274 C   0  0  0  0  0  0  0  0  0  0  0  0
   19.0116  -18.6066  -13.4109 C   0  0  0  0  0  0  0  0  0  0  0  0
   18.9314  -20.0673  -13.2329 C   0  0  0  0  0  0  0  0  0  0  0  0
   20.2605  -20.7183  -12.9219 C   0  0  2  0  0  0  0  0  0  0  0  0
   21.0348  -20.7313  -14.1727 N   0  0  0  0  0  0  0  0  0  0  0  0
   20.0670  -22.1182  -12.4998 C   0  0  0  0  0  0  0  0  0  0  0  0
   20.5169  -23.2058  -13.2380 O   0  0  0  0  0  0  0  0  0  0  0  0
   18.8405  -18.0033  -14.6529 C   0  0  0  0  0  0  0  0  0  0  0  0
   18.9210  -16.6333  -14.8206 C   0  0  0  0  0  0  0  0  0  0  0  0
   19.4710  -22.3731  -11.4286 O   0  0  0  0  0  0  0  0  0  0  0  0
  2  1  1  6
  3  2  1  0
  3  4  1  0
  4  9  2  0
  5  6  2  0
  5  4  1  0
  6  7  1  0
  7  8  2  0
  9  8  1  0
 10 12  1  0
 10  2  1  0
 11 10  2  0
 13 12  1  0
 13 19  1  0
 13 14  1  1
 15 14  1  0
 16 15  1  0
 17 16  1  0
 18 17  1  0
 19 28  1  0
 20 19  2  0
 22 23  2  0
 22 21  1  0
 24 23  1  0
 25 24  2  0
 26 25  1  0
 27 26  1  6
 27 29  1  0
 28 27  1  0
 29 30  1  0
 31 25  1  0
 31 32  2  0
 32 22  1  0
 33 29  2  0
M  END
$$$$
