FKY.pdb
     RDKit          3D

 33 34  0  0  1  0  0  0  0  0999 V2000
   29.1858  -21.2695   -9.8710 N   0  0  0  0  0  0  0  0  0  0  0  0
   27.8041  -20.9504   -9.6662 C   0  0  1  0  0  0  0  0  0  0  0  0
   27.6087  -19.6613   -8.9142 C   0  0  0  0  0  0  0  0  0  0  0  0
   28.0388  -19.8795   -7.5098 C   0  0  0  0  0  0  0  0  0  0  0  0
   27.1073  -19.8321   -6.5184 C   0  0  0  0  0  0  0  0  0  0  0  0
   27.4830  -20.0307   -5.2147 C   0  0  0  0  0  0  0  0  0  0  0  0
   28.7868  -20.2758   -4.9067 C   0  0  0  0  0  0  0  0  0  0  0  0
   29.7288  -20.3245   -5.9019 C   0  0  0  0  0  0  0  0  0  0  0  0
   29.3451  -20.1250   -7.2020 C   0  0  0  0  0  0  0  0  0  0  0  0
   27.0197  -20.9316  -10.9284 C   0  0  0  0  0  0  0  0  0  0  0  0
   27.4576  -20.3087  -11.9056 O   0  0  0  0  0  0  0  0  0  0  0  0
   25.7635  -21.6261  -11.0256 N   0  0  0  0  0  0  0  0  0  0  0  0
   25.0399  -21.7074  -12.2772 C   0  0  1  0  0  0  0  0  0  0  0  0
   25.0947  -23.1453  -12.8031 C   0  0  0  0  0  0  0  0  0  0  0  0
   24.3305  -23.2965  -14.0724 C   0  0  0  0  0  0  0  0  0  0  0  0
   24.4804  -24.6940  -14.6051 C   0  0  0  0  0  0  0  0  0  0  0  0
   23.7736  -24.8949  -15.9016 C   0  0  0  0  0  0  0  0  0  0  0  0
   23.9610  -26.2706  -16.3393 N   0  0  0  0  0  0  0  0  0  0  0  0
   23.6200  -21.4157  -12.0127 C   0  0  0  0  0  0  0  0  0  0  0  0
   23.0706  -21.9036  -11.0046 O   0  0  0  0  0  0  0  0  0  0  0  0
   15.4867  -17.8910  -12.8473 O   0  0  0  0  0  0  0  0  0  0  0  0
   16.8639  -18.1671  -12.8813 C   0  0  0  0  0  0  0  0  0  0  0  0
   17.5590  -18.2519  -14.0639 C   0  0  0  0  0  0  0  0  0  0  0  0
   18.9066  -18.5199  -14.1434 C   0  0  0  0  0  0  0  0  0  0  0  0
   19.6175  -18.7180  -12.9793 C   0  0  0  0  0  0  0  0  0  0  0  0
   21.0603  -19.0121  -13.0389 C   0  0  0  0  0  0  0  0  0  0  0  0
   21.4105  -20.4320  -12.6536 C   0  0  2  0  0  0  0  0  0  0  0  0
   22.8560  -20.5924  -12.8752 N   0  0  0  0  0  0  0  0  0  0  0  0
   20.7134  -21.3943  -13.5273 C   0  0  0  0  0  0  0  0  0  0  0  0
   21.1117  -21.6682  -14.8297 O   0  0  0  0  0  0  0  0  0  0  0  0
   18.9296  -18.6357  -11.7727 C   0  0  0  0  0  0  0  0  0  0  0  0
   17.5750  -18.3650  -11.7172 C   0  0  0  0  0  0  0  0  0  0  0  0
   19.7089  -22.0108  -13.1046 O   0  0  0  0  0  0  0  0  0  0  0  0
  2  1  1  6
  3  2  1  0
  3  4  1  0
  4  9  2  0
  5  6  2  0
  5  4  1  0
  6  7  1  0
  7  8  2  0
  9  8  1  0
 10 12  1  0
 10  2  1  0
 11 10  2  0
 13 12  1  0
 13 19  1  0
 13 14  1  1
 15 14  1  0
 16 15  1  0
 17 16  1  0
 18 17  1  0
 19 28  1  0
 20 19  2  0
 22 23  2  0
 22 21  1  0
 24 23  1  0
 25 24  2  0
 26 25  1  0
 27 26  1  6
 27 29  1  0
 28 27  1  0
 29 30  1  0
 31 25  1  0
 31 32  2  0
 32 22  1  0
 33 29  2  0
M  END
$$$$
