FKY.pdb
     RDKit          3D

 33 34  0  0  1  0  0  0  0  0999 V2000
   18.0177  -17.0010    3.4951 N   0  0  0  0  0  0  0  0  0  0  0  0
   18.4231  -16.5470    4.7922 C   0  0  1  0  0  0  0  0  0  0  0  0
   17.4127  -15.6332    5.4321 C   0  0  0  0  0  0  0  0  0  0  0  0
   17.7065  -14.2453    4.9938 C   0  0  0  0  0  0  0  0  0  0  0  0
   16.9739  -13.7022    3.9833 C   0  0  0  0  0  0  0  0  0  0  0  0
   17.2287  -12.4222    3.5630 C   0  0  0  0  0  0  0  0  0  0  0  0
   18.2139  -11.6901    4.1533 C   0  0  0  0  0  0  0  0  0  0  0  0
   18.9546  -12.2328    5.1716 C   0  0  0  0  0  0  0  0  0  0  0  0
   18.6936  -13.5125    5.5857 C   0  0  0  0  0  0  0  0  0  0  0  0
   18.7652  -17.6600    5.7158 C   0  0  0  0  0  0  0  0  0  0  0  0
   19.0871  -18.7605    5.2467 O   0  0  0  0  0  0  0  0  0  0  0  0
   18.7262  -17.4725    7.1417 N   0  0  0  0  0  0  0  0  0  0  0  0
   19.2883  -18.4517    8.0482 C   0  0  1  0  0  0  0  0  0  0  0  0
   19.2923  -17.8834    9.4710 C   0  0  0  0  0  0  0  0  0  0  0  0
   19.8572  -18.8537   10.4495 C   0  0  0  0  0  0  0  0  0  0  0  0
   19.8631  -18.2559   11.8286 C   0  0  0  0  0  0  0  0  0  0  0  0
   20.4201  -19.1817   12.8550 C   0  0  0  0  0  0  0  0  0  0  0  0
   20.5660  -18.4661   14.1144 N   0  0  0  0  0  0  0  0  0  0  0  0
   18.3991  -19.6265    8.0727 C   0  0  0  0  0  0  0  0  0  0  0  0
   17.1637  -19.4602    8.1192 O   0  0  0  0  0  0  0  0  0  0  0  0
   16.3083  -24.9855    2.5226 O   0  0  0  0  0  0  0  0  0  0  0  0
   16.8931  -24.5444    3.7215 C   0  0  0  0  0  0  0  0  0  0  0  0
   18.0333  -25.1202    4.2287 C   0  0  0  0  0  0  0  0  0  0  0  0
   18.6392  -24.7202    5.3981 C   0  0  0  0  0  0  0  0  0  0  0  0
   18.0841  -23.6830    6.1164 C   0  0  0  0  0  0  0  0  0  0  0  0
   18.7112  -23.2405    7.3743 C   0  0  0  0  0  0  0  0  0  0  0  0
   17.9889  -22.0946    8.0467 C   0  0  2  0  0  0  0  0  0  0  0  0
   18.9096  -20.9471    8.0449 N   0  0  0  0  0  0  0  0  0  0  0  0
   17.6862  -22.4243    9.4520 C   0  0  0  0  0  0  0  0  0  0  0  0
   16.5226  -23.0712    9.8493 O   0  0  0  0  0  0  0  0  0  0  0  0
   16.9295  -23.0883    5.6174 C   0  0  0  0  0  0  0  0  0  0  0  0
   16.3383  -23.5071    4.4399 C   0  0  0  0  0  0  0  0  0  0  0  0
   18.4970  -22.1189   10.3559 O   0  0  0  0  0  0  0  0  0  0  0  0
  2  1  1  6
  3  2  1  0
  3  4  1  0
  4  9  2  0
  5  6  2  0
  5  4  1  0
  6  7  1  0
  7  8  2  0
  9  8  1  0
 10 12  1  0
 10  2  1  0
 11 10  2  0
 13 12  1  0
 13 19  1  0
 13 14  1  1
 15 14  1  0
 16 15  1  0
 17 16  1  0
 18 17  1  0
 19 28  1  0
 20 19  2  0
 22 23  2  0
 22 21  1  0
 24 23  1  0
 25 24  2  0
 26 25  1  0
 27 26  1  1
 27 29  1  0
 28 27  1  0
 29 30  1  0
 31 25  1  0
 31 32  2  0
 32 22  1  0
 33 29  2  0
M  END
$$$$
