FKY.pdb
     RDKit          3D

 33 34  0  0  1  0  0  0  0  0999 V2000
   25.2509  -14.4188  -17.6258 N   0  0  0  0  0  0  0  0  0  0  0  0
   25.9163  -15.6250  -17.2318 C   0  0  1  0  0  0  0  0  0  0  0  0
   26.6256  -15.4946  -15.9106 C   0  0  0  0  0  0  0  0  0  0  0  0
   27.7155  -14.4991  -16.0710 C   0  0  0  0  0  0  0  0  0  0  0  0
   27.6731  -13.3496  -15.3431 C   0  0  0  0  0  0  0  0  0  0  0  0
   28.6694  -12.4169  -15.4760 C   0  0  0  0  0  0  0  0  0  0  0  0
   29.7034  -12.6359  -16.3349 C   0  0  0  0  0  0  0  0  0  0  0  0
   29.7505  -13.7922  -17.0703 C   0  0  0  0  0  0  0  0  0  0  0  0
   28.7511  -14.7191  -16.9317 C   0  0  0  0  0  0  0  0  0  0  0  0
   25.0147  -16.8063  -17.2153 C   0  0  0  0  0  0  0  0  0  0  0  0
   23.9451  -16.7446  -16.5932 O   0  0  0  0  0  0  0  0  0  0  0  0
   25.3703  -18.0143  -17.9111 N   0  0  0  0  0  0  0  0  0  0  0  0
   24.5354  -19.1958  -17.8489 C   0  0  1  0  0  0  0  0  0  0  0  0
   24.9626  -20.1778  -18.9445 C   0  0  0  0  0  0  0  0  0  0  0  0
   26.3405  -20.6939  -18.7141 C   0  0  0  0  0  0  0  0  0  0  0  0
   26.7379  -21.6260  -19.8244 C   0  0  0  0  0  0  0  0  0  0  0  0
   28.0518  -22.2853  -19.5800 C   0  0  0  0  0  0  0  0  0  0  0  0
   28.3550  -23.1727  -20.6936 N   0  0  0  0  0  0  0  0  0  0  0  0
   24.7839  -19.8731  -16.5641 C   0  0  0  0  0  0  0  0  0  0  0  0
   25.9566  -20.0240  -16.1665 O   0  0  0  0  0  0  0  0  0  0  0  0
   25.3738  -21.7893   -8.2266 O   0  0  0  0  0  0  0  0  0  0  0  0
   25.1882  -21.3422   -9.5456 C   0  0  0  0  0  0  0  0  0  0  0  0
   24.0370  -20.7044   -9.9415 C   0  0  0  0  0  0  0  0  0  0  0  0
   23.8134  -20.2505  -11.2215 C   0  0  0  0  0  0  0  0  0  0  0  0
   24.7899  -20.4379  -12.1761 C   0  0  0  0  0  0  0  0  0  0  0  0
   24.5715  -19.9659  -13.5549 C   0  0  0  0  0  0  0  0  0  0  0  0
   24.0111  -21.0226  -14.4804 C   0  0  2  0  0  0  0  0  0  0  0  0
   23.7233  -20.3608  -15.7624 N   0  0  0  0  0  0  0  0  0  0  0  0
   22.7394  -21.5527  -13.9540 C   0  0  0  0  0  0  0  0  0  0  0  0
   22.6677  -22.6180  -13.0652 O   0  0  0  0  0  0  0  0  0  0  0  0
   25.9621  -21.0819  -11.7926 C   0  0  0  0  0  0  0  0  0  0  0  0
   26.1647  -21.5293  -10.5003 C   0  0  0  0  0  0  0  0  0  0  0  0
   21.6529  -21.0399  -14.3067 O   0  0  0  0  0  0  0  0  0  0  0  0
  2  1  1  1
  3  2  1  0
  3  4  1  0
  4  9  2  0
  5  6  2  0
  5  4  1  0
  6  7  1  0
  7  8  2  0
  9  8  1  0
 10 12  1  0
 10  2  1  0
 11 10  2  0
 13 12  1  0
 13 19  1  0
 13 14  1  6
 15 14  1  0
 16 15  1  0
 17 16  1  0
 18 17  1  0
 19 28  1  0
 20 19  2  0
 22 23  2  0
 22 21  1  0
 24 23  1  0
 25 24  2  0
 26 25  1  0
 27 26  1  1
 27 29  1  0
 28 27  1  0
 29 30  1  0
 31 25  1  0
 31 32  2  0
 32 22  1  0
 33 29  2  0
M  END
$$$$
