FKY.pdb
     RDKit          3D

 33 34  0  0  1  0  0  0  0  0999 V2000
   23.3385   -0.0019  -19.2227 N   0  0  0  0  0  0  0  0  0  0  0  0
   23.3121   -1.4137  -19.4662 C   0  0  1  0  0  0  0  0  0  0  0  0
   24.6573   -2.0626  -19.2797 C   0  0  0  0  0  0  0  0  0  0  0  0
   25.5717   -1.5312  -20.3220 C   0  0  0  0  0  0  0  0  0  0  0  0
   26.4587   -0.5544  -19.9874 C   0  0  0  0  0  0  0  0  0  0  0  0
   27.3121   -0.0497  -20.9345 C   0  0  0  0  0  0  0  0  0  0  0  0
   27.2761   -0.5222  -22.2113 C   0  0  0  0  0  0  0  0  0  0  0  0
   26.3844   -1.5061  -22.5532 C   0  0  0  0  0  0  0  0  0  0  0  0
   25.5351   -2.0051  -21.6009 C   0  0  0  0  0  0  0  0  0  0  0  0
   22.2847   -2.1225  -18.6594 C   0  0  0  0  0  0  0  0  0  0  0  0
   22.2505   -1.9494  -17.4332 O   0  0  0  0  0  0  0  0  0  0  0  0
   21.3347   -3.0030  -19.2856 N   0  0  0  0  0  0  0  0  0  0  0  0
   20.2759   -3.6350  -18.5267 C   0  0  1  0  0  0  0  0  0  0  0  0
   19.2236   -4.1931  -19.4903 C   0  0  0  0  0  0  0  0  0  0  0  0
   18.0927   -4.8310  -18.7608 C   0  0  0  0  0  0  0  0  0  0  0  0
   17.0784   -5.3593  -19.7360 C   0  0  0  0  0  0  0  0  0  0  0  0
   15.8884   -5.9536  -19.0638 C   0  0  0  0  0  0  0  0  0  0  0  0
   15.0114   -6.5336  -20.0707 N   0  0  0  0  0  0  0  0  0  0  0  0
   20.8428   -4.7937  -17.8144 C   0  0  0  0  0  0  0  0  0  0  0  0
   21.6063   -5.5727  -18.4196 O   0  0  0  0  0  0  0  0  0  0  0  0
   22.6737  -10.3639  -11.1147 O   0  0  0  0  0  0  0  0  0  0  0  0
   22.4554   -9.2771  -11.9780 C   0  0  0  0  0  0  0  0  0  0  0  0
   21.4052   -8.4083  -11.8015 C   0  0  0  0  0  0  0  0  0  0  0  0
   21.1544   -7.3321  -12.6220 C   0  0  0  0  0  0  0  0  0  0  0  0
   21.9948   -7.0960  -13.6887 C   0  0  0  0  0  0  0  0  0  0  0  0
   21.7435   -5.9534  -14.5848 C   0  0  0  0  0  0  0  0  0  0  0  0
   20.9668   -6.3142  -15.8312 C   0  0  2  0  0  0  0  0  0  0  0  0
   20.5441   -5.0502  -16.4540 N   0  0  0  0  0  0  0  0  0  0  0  0
   19.7499   -7.0718  -15.4839 C   0  0  0  0  0  0  0  0  0  0  0  0
   18.5403   -6.4668  -15.1662 O   0  0  0  0  0  0  0  0  0  0  0  0
   23.0634   -7.9658  -13.8824 C   0  0  0  0  0  0  0  0  0  0  0  0
   23.2959   -9.0407  -13.0447 C   0  0  0  0  0  0  0  0  0  0  0  0
   19.7753   -8.3235  -15.4644 O   0  0  0  0  0  0  0  0  0  0  0  0
  2  1  1  1
  3  2  1  0
  3  4  1  0
  4  9  2  0
  5  6  2  0
  5  4  1  0
  6  7  1  0
  7  8  2  0
  9  8  1  0
 10 12  1  0
 10  2  1  0
 11 10  2  0
 13 12  1  0
 13 19  1  0
 13 14  1  6
 15 14  1  0
 16 15  1  0
 17 16  1  0
 18 17  1  0
 19 28  1  0
 20 19  2  0
 22 23  2  0
 22 21  1  0
 24 23  1  0
 25 24  2  0
 26 25  1  0
 27 26  1  1
 27 29  1  0
 28 27  1  0
 29 30  1  0
 31 25  1  0
 31 32  2  0
 32 22  1  0
 33 29  2  0
M  END
$$$$
