FKY.pdb
     RDKit          3D

 33 34  0  0  1  0  0  0  0  0999 V2000
   21.5705  -18.2402  -18.6727 N   0  0  0  0  0  0  0  0  0  0  0  0
   22.4646  -17.6164  -17.7430 C   0  0  1  0  0  0  0  0  0  0  0  0
   21.7975  -17.2612  -16.4413 C   0  0  0  0  0  0  0  0  0  0  0  0
   20.6676  -16.3452  -16.7396 C   0  0  0  0  0  0  0  0  0  0  0  0
   20.9303  -15.0360  -17.0038 C   0  0  0  0  0  0  0  0  0  0  0  0
   19.9017  -14.1729  -17.2816 C   0  0  0  0  0  0  0  0  0  0  0  0
   18.6155  -14.6207  -17.2945 C   0  0  0  0  0  0  0  0  0  0  0  0
   18.3459  -15.9386  -17.0290 C   0  0  0  0  0  0  0  0  0  0  0  0
   19.3794  -16.7945  -16.7523 C   0  0  0  0  0  0  0  0  0  0  0  0
   23.6899  -18.4182  -17.4891 C   0  0  0  0  0  0  0  0  0  0  0  0
   23.6130  -19.6545  -17.4708 O   0  0  0  0  0  0  0  0  0  0  0  0
   24.9576  -17.7757  -17.2656 N   0  0  0  0  0  0  0  0  0  0  0  0
   26.1765  -18.5421  -17.1122 C   0  0  1  0  0  0  0  0  0  0  0  0
   27.3293  -17.8067  -17.8033 C   0  0  0  0  0  0  0  0  0  0  0  0
   26.9511  -17.3522  -19.1702 C   0  0  0  0  0  0  0  0  0  0  0  0
   28.1003  -16.6266  -19.8121 C   0  0  0  0  0  0  0  0  0  0  0  0
   29.0544  -17.5472  -20.4927 C   0  0  0  0  0  0  0  0  0  0  0  0
   30.0707  -16.7608  -21.1770 N   0  0  0  0  0  0  0  0  0  0  0  0
   26.5160  -18.5931  -15.6792 C   0  0  0  0  0  0  0  0  0  0  0  0
   26.3337  -17.5839  -14.9690 O   0  0  0  0  0  0  0  0  0  0  0  0
   26.1169  -20.2939   -7.3078 O   0  0  0  0  0  0  0  0  0  0  0  0
   26.0741  -20.1273   -8.7023 C   0  0  0  0  0  0  0  0  0  0  0  0
   25.7132  -21.1507   -9.5456 C   0  0  0  0  0  0  0  0  0  0  0  0
   25.6579  -21.0317  -10.9157 C   0  0  0  0  0  0  0  0  0  0  0  0
   25.9801  -19.8227  -11.4940 C   0  0  0  0  0  0  0  0  0  0  0  0
   25.9339  -19.6722  -12.9592 C   0  0  0  0  0  0  0  0  0  0  0  0
   27.2829  -19.8062  -13.6297 C   0  0  2  0  0  0  0  0  0  0  0  0
   27.0467  -19.7619  -15.0811 N   0  0  0  0  0  0  0  0  0  0  0  0
   27.8923  -21.1117  -13.3142 C   0  0  0  0  0  0  0  0  0  0  0  0
   27.4600  -22.3089  -13.8708 O   0  0  0  0  0  0  0  0  0  0  0  0
   26.3477  -18.7755  -10.6551 C   0  0  0  0  0  0  0  0  0  0  0  0
   26.3961  -18.9184   -9.2808 C   0  0  0  0  0  0  0  0  0  0  0  0
   28.8480  -21.1787  -12.5080 O   0  0  0  0  0  0  0  0  0  0  0  0
  2  1  1  6
  3  2  1  0
  3  4  1  0
  4  9  2  0
  5  6  2  0
  5  4  1  0
  6  7  1  0
  7  8  2  0
  9  8  1  0
 10 12  1  0
 10  2  1  0
 11 10  2  0
 13 12  1  0
 13 19  1  0
 13 14  1  6
 15 14  1  0
 16 15  1  0
 17 16  1  0
 18 17  1  0
 19 28  1  0
 20 19  2  0
 22 23  2  0
 22 21  1  0
 24 23  1  0
 25 24  2  0
 26 25  1  0
 27 26  1  1
 27 29  1  0
 28 27  1  0
 29 30  1  0
 31 25  1  0
 31 32  2  0
 32 22  1  0
 33 29  2  0
M  END
$$$$
