FKY.pdb
     RDKit          3D

 33 34  0  0  1  0  0  0  0  0999 V2000
   22.6305  -16.7896  -18.6730 N   0  0  0  0  0  0  0  0  0  0  0  0
   23.7867  -17.0745  -17.8762 C   0  0  1  0  0  0  0  0  0  0  0  0
   24.4847  -15.8304  -17.3959 C   0  0  0  0  0  0  0  0  0  0  0  0
   25.3592  -15.3425  -18.4923 C   0  0  0  0  0  0  0  0  0  0  0  0
   26.5127  -16.0118  -18.7651 C   0  0  0  0  0  0  0  0  0  0  0  0
   27.3348  -15.5783  -19.7732 C   0  0  0  0  0  0  0  0  0  0  0  0
   27.0017  -14.4786  -20.5044 C   0  0  0  0  0  0  0  0  0  0  0  0
   25.8409  -13.8011  -20.2334 C   0  0  0  0  0  0  0  0  0  0  0  0
   25.0249  -14.2408  -19.2244 C   0  0  0  0  0  0  0  0  0  0  0  0
   23.4939  -17.9732  -16.7293 C   0  0  0  0  0  0  0  0  0  0  0  0
   22.5725  -17.6854  -15.9528 O   0  0  0  0  0  0  0  0  0  0  0  0
   24.2661  -19.1677  -16.5134 N   0  0  0  0  0  0  0  0  0  0  0  0
   23.9166  -20.1164  -15.4768 C   0  0  1  0  0  0  0  0  0  0  0  0
   23.7739  -21.5120  -16.0927 C   0  0  0  0  0  0  0  0  0  0  0  0
   22.5152  -21.6406  -16.8783 C   0  0  0  0  0  0  0  0  0  0  0  0
   22.4833  -22.9617  -17.5944 C   0  0  0  0  0  0  0  0  0  0  0  0
   21.2579  -23.1374  -18.4242 C   0  0  0  0  0  0  0  0  0  0  0  0
   21.3782  -24.3637  -19.1996 N   0  0  0  0  0  0  0  0  0  0  0  0
   25.0368  -20.1959  -14.5229 C   0  0  0  0  0  0  0  0  0  0  0  0
   26.2079  -20.2200  -14.9521 O   0  0  0  0  0  0  0  0  0  0  0  0
   20.5530  -20.1401   -8.7136 O   0  0  0  0  0  0  0  0  0  0  0  0
   21.8278  -19.9673   -9.2785 C   0  0  0  0  0  0  0  0  0  0  0  0
   22.0030  -19.3927  -10.5146 C   0  0  0  0  0  0  0  0  0  0  0  0
   23.2319  -19.2043  -11.1052 C   0  0  0  0  0  0  0  0  0  0  0  0
   24.3646  -19.6096  -10.4326 C   0  0  0  0  0  0  0  0  0  0  0  0
   25.6913  -19.4238  -11.0468 C   0  0  0  0  0  0  0  0  0  0  0  0
   25.9643  -20.3575  -12.2047 C   0  0  2  0  0  0  0  0  0  0  0  0
   24.8212  -20.2462  -13.1241 N   0  0  0  0  0  0  0  0  0  0  0  0
   26.0313  -21.7557  -11.7399 C   0  0  0  0  0  0  0  0  0  0  0  0
   27.0583  -22.2452  -10.9426 O   0  0  0  0  0  0  0  0  0  0  0  0
   24.2058  -20.1934   -9.1798 C   0  0  0  0  0  0  0  0  0  0  0  0
   22.9607  -20.3724   -8.6060 C   0  0  0  0  0  0  0  0  0  0  0  0
   25.1343  -22.5671  -12.0632 O   0  0  0  0  0  0  0  0  0  0  0  0
  2  1  1  1
  3  2  1  0
  3  4  1  0
  4  9  2  0
  5  6  2  0
  5  4  1  0
  6  7  1  0
  7  8  2  0
  9  8  1  0
 10 12  1  0
 10  2  1  0
 11 10  2  0
 13 12  1  0
 13 19  1  0
 13 14  1  6
 15 14  1  0
 16 15  1  0
 17 16  1  0
 18 17  1  0
 19 28  1  0
 20 19  2  0
 22 23  2  0
 22 21  1  0
 24 23  1  0
 25 24  2  0
 26 25  1  0
 27 26  1  1
 27 29  1  0
 28 27  1  0
 29 30  1  0
 31 25  1  0
 31 32  2  0
 32 22  1  0
 33 29  2  0
M  END
$$$$
