QTM.pdb
     RDKit          3D

 25 24  0  0  1  0  0  0  0  0999 V2000
   20.4631  -17.5309  -13.8950 N   0  0  0  0  0  0  0  0  0  0  0  0
   19.3458  -17.3667  -14.7584 C   0  0  0  0  0  0  0  0  0  0  0  0
   18.3081  -18.0108  -14.4819 O   0  0  0  0  0  0  0  0  0  0  0  0
   19.4224  -16.4506  -15.9550 C   0  0  0  0  0  0  0  0  0  0  0  0
   18.7678  -15.1817  -15.5605 C   0  0  0  0  0  0  0  0  0  0  0  0
   18.0957  -14.4146  -16.6742 C   0  0  2  0  0  0  0  0  0  0  0  0
   18.1703  -15.2652  -17.8852 N   0  0  0  0  0  0  0  0  0  0  0  0
   18.7198  -13.1341  -17.0081 C   0  0  0  0  0  0  0  0  0  0  0  0
   19.6362  -13.0980  -17.8723 O   0  0  0  0  0  0  0  0  0  0  0  0
   16.8094   -9.8631  -17.8463 C   0  0  0  0  0  0  0  0  0  0  0  0
   17.8735   -9.5909  -16.8338 C   0  0  1  0  0  0  0  0  0  0  0  0
   17.2680   -9.7445  -15.5641 O   0  0  0  0  0  0  0  0  0  0  0  0
   18.9855  -10.6169  -16.8692 C   0  0  2  0  0  0  0  0  0  0  0  0
   18.3865  -11.8747  -16.4383 N   0  0  0  0  0  0  0  0  0  0  0  0
   20.0749  -10.1930  -15.9598 C   0  0  0  0  0  0  0  0  0  0  0  0
   20.0471  -10.3549  -14.7204 O   0  0  0  0  0  0  0  0  0  0  0  0
   26.5797  -10.5072  -14.7673 C   0  0  0  0  0  0  0  0  0  0  0  0
   26.1958   -9.4727  -16.2189 S   0  0  0  0  0  0  0  0  0  0  0  0
   24.7251   -8.4715  -15.8337 C   0  0  0  0  0  0  0  0  0  0  0  0
   23.5041   -8.9804  -16.5200 C   0  0  0  0  0  0  0  0  0  0  0  0
   22.2990   -9.1483  -15.6299 C   0  0  2  0  0  0  0  0  0  0  0  0
   21.2158   -9.5688  -16.5171 N   0  0  0  0  0  0  0  0  0  0  0  0
   22.0021   -7.8756  -14.9695 C   0  0  0  0  0  0  0  0  0  0  0  0
   21.3488   -6.8907  -15.7129 O   0  0  0  0  0  0  0  0  0  0  0  0
   22.3337   -7.6972  -13.7716 O   0  0  0  0  0  0  0  0  0  0  0  0
  1  2  1  0
  2  4  1  0
  3  2  2  0
  4  5  1  0
  6  8  1  0
  6  7  1  6
  6  5  1  0
  8  9  2  0
 11 10  1  6
 11 12  1  0
 11 13  1  0
 13 15  1  0
 13 14  1  1
 14  8  1  0
 15 22  1  0
 15 16  2  0
 17 18  1  0
 19 18  1  0
 20 19  1  0
 21 20  1  6
 21 23  1  0
 22 21  1  0
 23 25  2  0
 23 24  1  0
M  END
$$$$
