QTM.pdb
     RDKit          3D

 25 24  0  0  1  0  0  0  0  0999 V2000
   28.7509  -20.6587  -16.1235 N   0  0  0  0  0  0  0  0  0  0  0  0
   28.9229  -19.5318  -16.9727 C   0  0  0  0  0  0  0  0  0  0  0  0
   29.4549  -19.7309  -18.0887 O   0  0  0  0  0  0  0  0  0  0  0  0
   28.4779  -18.1585  -16.5335 C   0  0  0  0  0  0  0  0  0  0  0  0
   27.9200  -18.3092  -15.1695 C   0  0  0  0  0  0  0  0  0  0  0  0
   26.6388  -19.1020  -15.0672 C   0  0  2  0  0  0  0  0  0  0  0  0
   25.7000  -18.5278  -16.0595 N   0  0  0  0  0  0  0  0  0  0  0  0
   25.9770  -19.0429  -13.7637 C   0  0  0  0  0  0  0  0  0  0  0  0
   25.6441  -17.9247  -13.2878 O   0  0  0  0  0  0  0  0  0  0  0  0
   22.7901  -19.9964  -12.8331 C   0  0  0  0  0  0  0  0  0  0  0  0
   23.6357  -20.6873  -11.8137 C   0  0  1  0  0  0  0  0  0  0  0  0
   23.9003  -21.9811  -12.3219 O   0  0  0  0  0  0  0  0  0  0  0  0
   24.9941  -20.0403  -11.6504 C   0  0  2  0  0  0  0  0  0  0  0  0
   25.6551  -20.1600  -12.9449 N   0  0  0  0  0  0  0  0  0  0  0  0
   25.7487  -20.7424  -10.5869 C   0  0  0  0  0  0  0  0  0  0  0  0
   26.2625  -21.8730  -10.7310 O   0  0  0  0  0  0  0  0  0  0  0  0
   28.2753  -17.6416   -5.7028 C   0  0  0  0  0  0  0  0  0  0  0  0
   28.7048  -19.3244   -5.1476 S   0  0  0  0  0  0  0  0  0  0  0  0
   27.6725  -20.5096   -6.0661 C   0  0  0  0  0  0  0  0  0  0  0  0
   27.2044  -19.9552   -7.3678 C   0  0  0  0  0  0  0  0  0  0  0  0
   26.3527  -20.8913   -8.1869 C   0  0  2  0  0  0  0  0  0  0  0  0
   25.9018  -20.1042   -9.3334 N   0  0  0  0  0  0  0  0  0  0  0  0
   25.2310  -21.3645   -7.3734 C   0  0  0  0  0  0  0  0  0  0  0  0
   25.4662  -22.4151   -6.4843 O   0  0  0  0  0  0  0  0  0  0  0  0
   24.1015  -20.8278   -7.4879 O   0  0  0  0  0  0  0  0  0  0  0  0
  1  2  1  0
  2  4  1  0
  3  2  2  0
  4  5  1  0
  6  8  1  0
  6  7  1  6
  6  5  1  0
  8  9  2  0
 11 10  1  6
 11 12  1  0
 11 13  1  0
 13 15  1  0
 13 14  1  6
 14  8  1  0
 15 22  1  0
 15 16  2  0
 17 18  1  0
 19 18  1  0
 20 19  1  0
 21 20  1  1
 21 23  1  0
 22 21  1  0
 23 25  2  0
 23 24  1  0
M  END
$$$$
