QTM.pdb
     RDKit          3D

 25 24  0  0  1  0  0  0  0  0999 V2000
   26.0260  -19.3933   -8.3370 N   0  0  0  0  0  0  0  0  0  0  0  0
   25.2173  -20.4967   -7.9508 C   0  0  0  0  0  0  0  0  0  0  0  0
   25.3417  -20.9156   -6.7772 O   0  0  0  0  0  0  0  0  0  0  0  0
   24.2534  -21.1268   -8.9259 C   0  0  0  0  0  0  0  0  0  0  0  0
   24.3467  -20.3444  -10.1803 C   0  0  0  0  0  0  0  0  0  0  0  0
   24.7857  -21.1132  -11.4037 C   0  0  2  0  0  0  0  0  0  0  0  0
   26.2339  -21.3824  -11.2429 N   0  0  0  0  0  0  0  0  0  0  0  0
   24.6174  -20.4052  -12.6729 C   0  0  0  0  0  0  0  0  0  0  0  0
   24.9185  -19.1838  -12.7459 O   0  0  0  0  0  0  0  0  0  0  0  0
   24.1879  -22.3215  -16.4826 C   0  0  0  0  0  0  0  0  0  0  0  0
   24.8065  -21.0010  -16.1583 C   0  0  1  0  0  0  0  0  0  0  0  0
   24.7384  -20.2251  -17.3397 O   0  0  0  0  0  0  0  0  0  0  0  0
   24.0139  -20.2252  -15.1285 C   0  0  2  0  0  0  0  0  0  0  0  0
   24.1319  -20.9737  -13.8824 N   0  0  0  0  0  0  0  0  0  0  0  0
   22.6039  -20.1209  -15.5694 C   0  0  0  0  0  0  0  0  0  0  0  0
   21.7457  -21.0071  -15.3667 O   0  0  0  0  0  0  0  0  0  0  0  0
   17.2435  -14.8769  -17.9744 C   0  0  0  0  0  0  0  0  0  0  0  0
   18.9155  -15.2004  -17.3229 S   0  0  0  0  0  0  0  0  0  0  0  0
   19.1826  -17.0009  -17.3043 C   0  0  0  0  0  0  0  0  0  0  0  0
   20.5517  -17.3605  -16.8383 C   0  0  0  0  0  0  0  0  0  0  0  0
   20.8067  -18.8397  -16.6987 C   0  0  2  0  0  0  0  0  0  0  0  0
   22.1964  -18.9551  -16.2598 N   0  0  0  0  0  0  0  0  0  0  0  0
   20.5847  -19.4946  -17.9894 C   0  0  0  0  0  0  0  0  0  0  0  0
   19.2945  -19.9410  -18.2822 O   0  0  0  0  0  0  0  0  0  0  0  0
   21.5391  -19.6396  -18.7925 O   0  0  0  0  0  0  0  0  0  0  0  0
  1  2  1  0
  2  4  1  0
  3  2  2  0
  4  5  1  0
  6  8  1  0
  6  7  1  1
  6  5  1  0
  8  9  2  0
 11 10  1  6
 11 12  1  0
 11 13  1  0
 13 15  1  0
 13 14  1  1
 14  8  1  0
 15 22  1  0
 15 16  2  0
 17 18  1  0
 19 18  1  0
 20 19  1  0
 21 20  1  6
 21 23  1  0
 22 21  1  0
 23 25  2  0
 23 24  1  0
M  END
$$$$
