QTM.pdb
     RDKit          3D

 25 24  0  0  1  0  0  0  0  0999 V2000
   22.3248  -24.1040  -16.0675 N   0  0  0  0  0  0  0  0  0  0  0  0
   22.7989  -25.2471  -16.7670 C   0  0  0  0  0  0  0  0  0  0  0  0
   22.0129  -25.7909  -17.5761 O   0  0  0  0  0  0  0  0  0  0  0  0
   24.1943  -25.7719  -16.5334 C   0  0  0  0  0  0  0  0  0  0  0  0
   24.8149  -24.8898  -15.5179 C   0  0  0  0  0  0  0  0  0  0  0  0
   25.3930  -23.5949  -16.0369 C   0  0  2  0  0  0  0  0  0  0  0  0
   26.3107  -23.9497  -17.1448 N   0  0  0  0  0  0  0  0  0  0  0  0
   26.1702  -22.8295  -15.0620 C   0  0  0  0  0  0  0  0  0  0  0  0
   27.4062  -23.0463  -14.9470 O   0  0  0  0  0  0  0  0  0  0  0  0
   27.0375  -19.3153  -14.8429 C   0  0  0  0  0  0  0  0  0  0  0  0
   26.3686  -19.6536  -13.5508 C   0  0  1  0  0  0  0  0  0  0  0  0
   24.9869  -19.4135  -13.7394 O   0  0  0  0  0  0  0  0  0  0  0  0
   26.4724  -21.1246  -13.2103 C   0  0  2  0  0  0  0  0  0  0  0  0
   25.6574  -21.8244  -14.1966 N   0  0  0  0  0  0  0  0  0  0  0  0
   25.9724  -21.3474  -11.8342 C   0  0  0  0  0  0  0  0  0  0  0  0
   24.9504  -22.0159  -11.5666 O   0  0  0  0  0  0  0  0  0  0  0  0
   27.3751  -19.2142   -4.3383 C   0  0  0  0  0  0  0  0  0  0  0  0
   27.8464  -19.0677   -6.0936 S   0  0  0  0  0  0  0  0  0  0  0  0
   26.7080  -20.0918   -7.0779 C   0  0  0  0  0  0  0  0  0  0  0  0
   27.0878  -20.1270   -8.5186 C   0  0  0  0  0  0  0  0  0  0  0  0
   26.1734  -20.9432   -9.3963 C   0  0  2  0  0  0  0  0  0  0  0  0
   26.6861  -20.7748  -10.7550 N   0  0  0  0  0  0  0  0  0  0  0  0
   24.8024  -20.4464   -9.2638 C   0  0  0  0  0  0  0  0  0  0  0  0
   24.0241  -20.9475   -8.2185 O   0  0  0  0  0  0  0  0  0  0  0  0
   24.3610  -19.5964  -10.0759 O   0  0  0  0  0  0  0  0  0  0  0  0
  1  2  1  0
  2  4  1  0
  3  2  2  0
  4  5  1  0
  6  8  1  0
  6  7  1  6
  6  5  1  0
  8  9  2  0
 11 10  1  6
 11 12  1  0
 11 13  1  0
 13 15  1  0
 13 14  1  6
 14  8  1  0
 15 22  1  0
 15 16  2  0
 17 18  1  0
 19 18  1  0
 20 19  1  0
 21 20  1  1
 21 23  1  0
 22 21  1  0
 23 25  2  0
 23 24  1  0
M  END
$$$$
