QTM.pdb
     RDKit          3D

 25 24  0  0  1  0  0  0  0  0999 V2000
   20.0559  -30.4488   -3.8914 N   0  0  0  0  0  0  0  0  0  0  0  0
   19.4386  -29.7576   -2.8135 C   0  0  0  0  0  0  0  0  0  0  0  0
   20.1799  -29.0724   -2.0724 O   0  0  0  0  0  0  0  0  0  0  0  0
   17.9503  -29.8553   -2.5843 C   0  0  0  0  0  0  0  0  0  0  0  0
   17.2997  -29.1621   -3.7203 C   0  0  0  0  0  0  0  0  0  0  0  0
   17.3311  -27.6530   -3.6747 C   0  0  2  0  0  0  0  0  0  0  0  0
   16.3733  -27.2367   -2.6236 N   0  0  0  0  0  0  0  0  0  0  0  0
   16.9269  -26.9879   -4.9136 C   0  0  0  0  0  0  0  0  0  0  0  0
   15.7012  -26.8483   -5.1707 O   0  0  0  0  0  0  0  0  0  0  0  0
   17.4251  -23.5422   -5.7377 C   0  0  0  0  0  0  0  0  0  0  0  0
   17.9864  -24.3102   -6.8895 C   0  0  1  0  0  0  0  0  0  0  0  0
   19.3437  -24.5632   -6.5798 O   0  0  0  0  0  0  0  0  0  0  0  0
   17.3531  -25.6764   -7.0408 C   0  0  2  0  0  0  0  0  0  0  0  0
   17.8072  -26.4593   -5.8972 N   0  0  0  0  0  0  0  0  0  0  0  0
   17.7874  -26.2808   -8.3212 C   0  0  0  0  0  0  0  0  0  0  0  0
   18.9041  -26.8161   -8.4928 O   0  0  0  0  0  0  0  0  0  0  0  0
   16.1883  -30.5957  -12.1304 C   0  0  0  0  0  0  0  0  0  0  0  0
   15.3509  -29.2671  -13.0568 S   0  0  0  0  0  0  0  0  0  0  0  0
   16.2795  -27.7219  -12.8039 C   0  0  0  0  0  0  0  0  0  0  0  0
   16.0707  -27.1583  -11.4402 C   0  0  0  0  0  0  0  0  0  0  0  0
   17.3344  -26.7911  -10.7048 C   0  0  2  0  0  0  0  0  0  0  0  0
   16.8937  -26.2555   -9.4178 N   0  0  0  0  0  0  0  0  0  0  0  0
   18.0787  -25.7996  -11.4837 C   0  0  0  0  0  0  0  0  0  0  0  0
   18.9981  -26.2651  -12.4258 O   0  0  0  0  0  0  0  0  0  0  0  0
   17.8807  -24.5742  -11.2939 O   0  0  0  0  0  0  0  0  0  0  0  0
  1  2  1  0
  2  4  1  0
  3  2  2  0
  4  5  1  0
  6  8  1  0
  6  7  1  1
  6  5  1  0
  8  9  2  0
 11 10  1  1
 11 12  1  0
 11 13  1  0
 13 15  1  0
 13 14  1  1
 14  8  1  0
 15 22  1  0
 15 16  2  0
 17 18  1  0
 19 18  1  0
 20 19  1  0
 21 20  1  6
 21 23  1  0
 22 21  1  0
 23 25  2  0
 23 24  1  0
M  END
$$$$
