QTM.pdb
     RDKit          3D

 25 24  0  0  1  0  0  0  0  0999 V2000
   21.4081  -17.2802  -14.4763 N   0  0  0  0  0  0  0  0  0  0  0  0
   20.1629  -17.9615  -14.3975 C   0  0  0  0  0  0  0  0  0  0  0  0
   19.3611  -17.8019  -15.3460 O   0  0  0  0  0  0  0  0  0  0  0  0
   19.8352  -18.8374  -13.2131 C   0  0  0  0  0  0  0  0  0  0  0  0
   21.0952  -19.0139  -12.4545 C   0  0  0  0  0  0  0  0  0  0  0  0
   22.0368  -20.0708  -12.9805 C   0  0  2  0  0  0  0  0  0  0  0  0
   21.1946  -21.1556  -13.5368 N   0  0  0  0  0  0  0  0  0  0  0  0
   22.9110  -20.6764  -11.9757 C   0  0  0  0  0  0  0  0  0  0  0  0
   22.4090  -21.3911  -11.0674 O   0  0  0  0  0  0  0  0  0  0  0  0
   25.5819  -23.0427  -12.5274 C   0  0  0  0  0  0  0  0  0  0  0  0
   26.1887  -21.9878  -11.6611 C   0  0  1  0  0  0  0  0  0  0  0  0
   26.8060  -21.0592  -12.5323 O   0  0  0  0  0  0  0  0  0  0  0  0
   25.1498  -21.1898  -10.9031 C   0  0  2  0  0  0  0  0  0  0  0  0
   24.3250  -20.5394  -11.9148 N   0  0  0  0  0  0  0  0  0  0  0  0
   25.8274  -20.2000  -10.0345 C   0  0  0  0  0  0  0  0  0  0  0  0
   25.8721  -18.9752  -10.2812 O   0  0  0  0  0  0  0  0  0  0  0  0
   26.9639  -20.5323   -3.9680 C   0  0  0  0  0  0  0  0  0  0  0  0
   28.4675  -19.5559   -4.3005 S   0  0  0  0  0  0  0  0  0  0  0  0
   28.6605  -19.4010   -6.1039 C   0  0  0  0  0  0  0  0  0  0  0  0
   27.5201  -20.0102   -6.8449 C   0  0  0  0  0  0  0  0  0  0  0  0
   27.6234  -19.9298   -8.3468 C   0  0  2  0  0  0  0  0  0  0  0  0
   26.4626  -20.6581   -8.8560 N   0  0  0  0  0  0  0  0  0  0  0  0
   28.8833  -20.5374   -8.7799 C   0  0  0  0  0  0  0  0  0  0  0  0
   28.8395  -21.8336   -9.2972 O   0  0  0  0  0  0  0  0  0  0  0  0
   29.9575  -19.8950   -8.6802 O   0  0  0  0  0  0  0  0  0  0  0  0
  1  2  1  0
  2  4  1  0
  3  2  2  0
  4  5  1  0
  6  8  1  0
  6  7  1  1
  6  5  1  0
  8  9  2  0
 11 10  1  6
 11 12  1  0
 11 13  1  0
 13 15  1  0
 13 14  1  6
 14  8  1  0
 15 22  1  0
 15 16  2  0
 17 18  1  0
 19 18  1  0
 20 19  1  0
 21 20  1  1
 21 23  1  0
 22 21  1  0
 23 25  2  0
 23 24  1  0
M  END
$$$$
