QTM.pdb
     RDKit          3D

 25 24  0  0  1  0  0  0  0  0999 V2000
   28.0323  -22.5661  -16.5044 N   0  0  0  0  0  0  0  0  0  0  0  0
   27.7165  -22.0180  -17.7774 C   0  0  0  0  0  0  0  0  0  0  0  0
   27.0852  -22.7481  -18.5753 O   0  0  0  0  0  0  0  0  0  0  0  0
   28.1317  -20.6128  -18.1380 C   0  0  0  0  0  0  0  0  0  0  0  0
   27.2855  -19.7008  -17.3340 C   0  0  0  0  0  0  0  0  0  0  0  0
   25.8057  -19.7429  -17.6324 C   0  0  2  0  0  0  0  0  0  0  0  0
   25.5938  -18.9409  -18.8602 N   0  0  0  0  0  0  0  0  0  0  0  0
   24.9483  -19.1735  -16.5926 C   0  0  0  0  0  0  0  0  0  0  0  0
   24.8370  -17.9219  -16.4978 O   0  0  0  0  0  0  0  0  0  0  0  0
   22.6334  -17.6379  -16.4252 C   0  0  0  0  0  0  0  0  0  0  0  0
   22.1660  -18.6928  -15.4764 C   0  0  1  0  0  0  0  0  0  0  0  0
   21.6706  -19.7548  -16.2695 O   0  0  0  0  0  0  0  0  0  0  0  0
   23.2982  -19.2938  -14.6718 C   0  0  2  0  0  0  0  0  0  0  0  0
   24.1953  -19.9137  -15.6403 N   0  0  0  0  0  0  0  0  0  0  0  0
   22.7517  -20.2892  -13.7212 C   0  0  0  0  0  0  0  0  0  0  0  0
   22.3864  -21.4381  -14.0525 O   0  0  0  0  0  0  0  0  0  0  0  0
   26.8210  -20.6737   -8.5386 C   0  0  0  0  0  0  0  0  0  0  0  0
   25.0215  -20.3951   -8.4441 S   0  0  0  0  0  0  0  0  0  0  0  0
   24.2859  -20.8670  -10.0409 C   0  0  0  0  0  0  0  0  0  0  0  0
   22.8254  -20.5752  -10.0942 C   0  0  0  0  0  0  0  0  0  0  0  0
   22.1559  -20.9228  -11.3994 C   0  0  2  0  0  0  0  0  0  0  0  0
   22.6330  -19.9278  -12.3583 N   0  0  0  0  0  0  0  0  0  0  0  0
   20.7026  -20.8657  -11.2298 C   0  0  0  0  0  0  0  0  0  0  0  0
   20.0410  -22.0394  -10.8633 O   0  0  0  0  0  0  0  0  0  0  0  0
   20.0907  -19.7846  -11.4132 O   0  0  0  0  0  0  0  0  0  0  0  0
  1  2  1  0
  2  4  1  0
  3  2  2  0
  4  5  1  0
  6  8  1  0
  6  7  1  6
  6  5  1  0
  8  9  2  0
 11 10  1  6
 11 12  1  0
 11 13  1  0
 13 15  1  0
 13 14  1  6
 14  8  1  0
 15 22  1  0
 15 16  2  0
 17 18  1  0
 19 18  1  0
 20 19  1  0
 21 20  1  1
 21 23  1  0
 22 21  1  0
 23 25  2  0
 23 24  1  0
M  END
$$$$
