QTM.pdb
     RDKit          3D

 25 24  0  0  1  0  0  0  0  0999 V2000
   16.4746  -12.2122  -17.4272 N   0  0  0  0  0  0  0  0  0  0  0  0
   17.2935  -12.2807  -18.5871 C   0  0  0  0  0  0  0  0  0  0  0  0
   16.8837  -11.6921  -19.6137 O   0  0  0  0  0  0  0  0  0  0  0  0
   18.6001  -13.0353  -18.5669 C   0  0  0  0  0  0  0  0  0  0  0  0
   19.6406  -12.0707  -18.1414 C   0  0  0  0  0  0  0  0  0  0  0  0
   20.1042  -11.0954  -19.1971 C   0  0  2  0  0  0  0  0  0  0  0  0
   20.9830  -11.8505  -20.1207 N   0  0  0  0  0  0  0  0  0  0  0  0
   20.8804   -9.9618  -18.6941 C   0  0  0  0  0  0  0  0  0  0  0  0
   22.1005  -10.1185  -18.4212 O   0  0  0  0  0  0  0  0  0  0  0  0
   21.3109   -6.5692  -20.2305 C   0  0  0  0  0  0  0  0  0  0  0  0
   20.9111   -6.3576  -18.8068 C   0  0  1  0  0  0  0  0  0  0  0  0
   19.5026   -6.2225  -18.8014 O   0  0  0  0  0  0  0  0  0  0  0  0
   21.1970   -7.5631  -17.9376 C   0  0  2  0  0  0  0  0  0  0  0  0
   20.3832   -8.6480  -18.4738 N   0  0  0  0  0  0  0  0  0  0  0  0
   20.8365   -7.2544  -16.5347 C   0  0  0  0  0  0  0  0  0  0  0  0
   19.6591   -7.1636  -16.1242 O   0  0  0  0  0  0  0  0  0  0  0  0
   22.6465   -9.1179   -9.3384 C   0  0  0  0  0  0  0  0  0  0  0  0
   22.8765   -9.3017  -11.1378 S   0  0  0  0  0  0  0  0  0  0  0  0
   22.0893   -7.8823  -11.9620 C   0  0  0  0  0  0  0  0  0  0  0  0
   22.1695   -7.9802  -13.4469 C   0  0  0  0  0  0  0  0  0  0  0  0
   21.5368   -6.8338  -14.1938 C   0  0  2  0  0  0  0  0  0  0  0  0
   21.8779   -7.0495  -15.5989 N   0  0  0  0  0  0  0  0  0  0  0  0
   22.0749   -5.5692  -13.6884 C   0  0  0  0  0  0  0  0  0  0  0  0
   23.1616   -5.0065  -14.3608 O   0  0  0  0  0  0  0  0  0  0  0  0
   21.5598   -5.0254  -12.6806 O   0  0  0  0  0  0  0  0  0  0  0  0
  1  2  1  0
  2  4  1  0
  3  2  2  0
  4  5  1  0
  6  8  1  0
  6  7  1  6
  6  5  1  0
  8  9  2  0
 11 10  1  6
 11 12  1  0
 11 13  1  0
 13 15  1  0
 13 14  1  6
 14  8  1  0
 15 22  1  0
 15 16  2  0
 17 18  1  0
 19 18  1  0
 20 19  1  0
 21 20  1  1
 21 23  1  0
 22 21  1  0
 23 25  2  0
 23 24  1  0
M  END
$$$$
