QTM.pdb
     RDKit          3D

 25 24  0  0  1  0  0  0  0  0999 V2000
   24.3422  -21.5818   -7.6495 N   0  0  0  0  0  0  0  0  0  0  0  0
   24.7633  -20.5943   -8.5813 C   0  0  0  0  0  0  0  0  0  0  0  0
   23.8708  -19.9886   -9.2174 O   0  0  0  0  0  0  0  0  0  0  0  0
   26.2292  -20.2993   -8.7846 C   0  0  0  0  0  0  0  0  0  0  0  0
   26.3925  -19.9210  -10.2074 C   0  0  0  0  0  0  0  0  0  0  0  0
   26.6735  -21.0572  -11.1617 C   0  0  2  0  0  0  0  0  0  0  0  0
   28.1314  -21.3151  -11.1025 N   0  0  0  0  0  0  0  0  0  0  0  0
   26.3402  -20.7873  -12.5605 C   0  0  0  0  0  0  0  0  0  0  0  0
   27.0637  -20.0019  -13.2295 O   0  0  0  0  0  0  0  0  0  0  0  0
   24.6483  -21.8236  -16.9274 C   0  0  0  0  0  0  0  0  0  0  0  0
   25.0053  -22.1142  -15.5063 C   0  0  1  0  0  0  0  0  0  0  0  0
   26.3884  -22.4127  -15.4929 O   0  0  0  0  0  0  0  0  0  0  0  0
   24.8522  -20.9046  -14.6096 C   0  0  2  0  0  0  0  0  0  0  0  0
   25.2424  -21.3418  -13.2741 N   0  0  0  0  0  0  0  0  0  0  0  0
   23.4453  -20.4432  -14.6420 C   0  0  0  0  0  0  0  0  0  0  0  0
   22.5495  -20.8937  -13.8952 O   0  0  0  0  0  0  0  0  0  0  0  0
   18.7261  -15.1129  -18.0986 C   0  0  0  0  0  0  0  0  0  0  0  0
   20.4163  -15.7628  -17.8856 S   0  0  0  0  0  0  0  0  0  0  0  0
   20.3313  -17.2375  -16.8218 C   0  0  0  0  0  0  0  0  0  0  0  0
   21.6731  -17.8456  -16.5970 C   0  0  0  0  0  0  0  0  0  0  0  0
   21.6828  -19.0397  -15.6767 C   0  0  2  0  0  0  0  0  0  0  0  0
   23.0860  -19.4352  -15.5676 N   0  0  0  0  0  0  0  0  0  0  0  0
   20.8581  -20.1035  -16.2531 C   0  0  0  0  0  0  0  0  0  0  0  0
   19.5604  -20.2624  -15.7628 O   0  0  0  0  0  0  0  0  0  0  0  0
   21.3236  -20.8381  -17.1589 O   0  0  0  0  0  0  0  0  0  0  0  0
  1  2  1  0
  2  4  1  0
  3  2  2  0
  4  5  1  0
  6  8  1  0
  6  7  1  6
  6  5  1  0
  8  9  2  0
 11 10  1  6
 11 12  1  0
 11 13  1  0
 13 15  1  0
 13 14  1  1
 14  8  1  0
 15 22  1  0
 15 16  2  0
 17 18  1  0
 19 18  1  0
 20 19  1  0
 21 20  1  6
 21 23  1  0
 22 21  1  0
 23 25  2  0
 23 24  1  0
M  END
$$$$
