QTM.pdb
     RDKit          3D

 25 24  0  0  1  0  0  0  0  0999 V2000
   16.3761  -10.6043  -20.2416 N   0  0  0  0  0  0  0  0  0  0  0  0
   16.2518  -10.1538  -18.8991 C   0  0  0  0  0  0  0  0  0  0  0  0
   16.0219   -8.9356  -18.7221 O   0  0  0  0  0  0  0  0  0  0  0  0
   16.3937  -11.1158  -17.7452 C   0  0  0  0  0  0  0  0  0  0  0  0
   17.2510  -10.4478  -16.7387 C   0  0  0  0  0  0  0  0  0  0  0  0
   18.6340  -11.0283  -16.5637 C   0  0  2  0  0  0  0  0  0  0  0  0
   18.4593  -12.3873  -15.9996 N   0  0  0  0  0  0  0  0  0  0  0  0
   19.5037  -10.2900  -15.6476 C   0  0  0  0  0  0  0  0  0  0  0  0
   19.2432  -10.2848  -14.4148 O   0  0  0  0  0  0  0  0  0  0  0  0
   22.9595  -10.8020  -14.8128 C   0  0  0  0  0  0  0  0  0  0  0  0
   22.8762   -9.3583  -15.1876 C   0  0  1  0  0  0  0  0  0  0  0  0
   23.1814   -9.2837  -16.5673 O   0  0  0  0  0  0  0  0  0  0  0  0
   21.4731   -8.8053  -15.0616 C   0  0  2  0  0  0  0  0  0  0  0  0
   20.6599   -9.5493  -16.0167 N   0  0  0  0  0  0  0  0  0  0  0  0
   21.4859   -7.3567  -15.3698 C   0  0  0  0  0  0  0  0  0  0  0  0
   21.4023   -6.8925  -16.5276 O   0  0  0  0  0  0  0  0  0  0  0  0
   18.0299   -0.9056  -15.1499 C   0  0  0  0  0  0  0  0  0  0  0  0
   18.1799   -2.6953  -14.8353 S   0  0  0  0  0  0  0  0  0  0  0  0
   19.9494   -3.1178  -14.7726 C   0  0  0  0  0  0  0  0  0  0  0  0
   20.1715   -4.5835  -14.6199 C   0  0  0  0  0  0  0  0  0  0  0  0
   21.6181   -5.0067  -14.5908 C   0  0  2  0  0  0  0  0  0  0  0  0
   21.5985   -6.4391  -14.2988 N   0  0  0  0  0  0  0  0  0  0  0  0
   22.3252   -4.2476  -13.5574 C   0  0  0  0  0  0  0  0  0  0  0  0
   22.7874   -2.9715  -13.8854 O   0  0  0  0  0  0  0  0  0  0  0  0
   22.4994   -4.7480  -12.4190 O   0  0  0  0  0  0  0  0  0  0  0  0
  1  2  1  0
  2  4  1  0
  3  2  2  0
  4  5  1  0
  6  8  1  0
  6  7  1  1
  6  5  1  0
  8  9  2  0
 11 10  1  6
 11 12  1  0
 11 13  1  0
 13 15  1  0
 13 14  1  6
 14  8  1  0
 15 22  1  0
 15 16  2  0
 17 18  1  0
 19 18  1  0
 20 19  1  0
 21 20  1  1
 21 23  1  0
 22 21  1  0
 23 25  2  0
 23 24  1  0
M  END
$$$$
