QTM.pdb
     RDKit          3D

 25 24  0  0  1  0  0  0  0  0999 V2000
   19.8025  -14.6144  -14.6579 N   0  0  0  0  0  0  0  0  0  0  0  0
   19.0854  -15.6071  -15.3797 C   0  0  0  0  0  0  0  0  0  0  0  0
   18.8681  -16.6944  -14.7976 O   0  0  0  0  0  0  0  0  0  0  0  0
   18.6120  -15.3469  -16.7887 C   0  0  0  0  0  0  0  0  0  0  0  0
   18.9534  -13.9389  -17.0977 C   0  0  0  0  0  0  0  0  0  0  0  0
   17.8291  -12.9418  -16.9488 C   0  0  2  0  0  0  0  0  0  0  0  0
   16.7933  -13.3137  -17.9411 N   0  0  0  0  0  0  0  0  0  0  0  0
   18.1972  -11.5504  -17.2112 C   0  0  0  0  0  0  0  0  0  0  0  0
   18.5756  -11.2166  -18.3659 O   0  0  0  0  0  0  0  0  0  0  0  0
   16.0639   -8.5338  -16.8807 C   0  0  0  0  0  0  0  0  0  0  0  0
   17.3139   -8.2832  -16.1021 C   0  0  1  0  0  0  0  0  0  0  0  0
   17.0670   -8.7443  -14.7873 O   0  0  0  0  0  0  0  0  0  0  0  0
   18.4825   -9.1072  -16.5981 C   0  0  2  0  0  0  0  0  0  0  0  0
   18.1699  -10.4916  -16.2625 N   0  0  0  0  0  0  0  0  0  0  0  0
   19.7237   -8.6521  -15.9305 C   0  0  0  0  0  0  0  0  0  0  0  0
   20.1708   -9.1568  -14.8777 O   0  0  0  0  0  0  0  0  0  0  0  0
   26.2043   -4.3424  -17.1846 C   0  0  0  0  0  0  0  0  0  0  0  0
   24.5784   -4.8866  -17.8051 S   0  0  0  0  0  0  0  0  0  0  0  0
   23.7259   -5.7787  -16.4669 C   0  0  0  0  0  0  0  0  0  0  0  0
   22.4325   -6.3652  -16.9184 C   0  0  0  0  0  0  0  0  0  0  0  0
   21.6762   -7.1258  -15.8590 C   0  0  2  0  0  0  0  0  0  0  0  0
   20.4512   -7.5863  -16.5107 N   0  0  0  0  0  0  0  0  0  0  0  0
   21.3940   -6.2361  -14.7308 C   0  0  0  0  0  0  0  0  0  0  0  0
   22.2909   -6.2334  -13.6607 O   0  0  0  0  0  0  0  0  0  0  0  0
   20.3717   -5.5070  -14.7462 O   0  0  0  0  0  0  0  0  0  0  0  0
  1  2  1  0
  2  4  1  0
  3  2  2  0
  4  5  1  0
  6  8  1  0
  6  7  1  6
  6  5  1  0
  8  9  2  0
 11 10  1  6
 11 12  1  0
 11 13  1  0
 13 15  1  0
 13 14  1  1
 14  8  1  0
 15 22  1  0
 15 16  2  0
 17 18  1  0
 19 18  1  0
 20 19  1  0
 21 20  1  6
 21 23  1  0
 22 21  1  0
 23 25  2  0
 23 24  1  0
M  END
$$$$
