QTM.pdb
     RDKit          3D

 25 24  0  0  1  0  0  0  0  0999 V2000
   21.2446  -22.8992  -15.9739 N   0  0  0  0  0  0  0  0  0  0  0  0
   21.8391  -23.8216  -16.8775 C   0  0  0  0  0  0  0  0  0  0  0  0
   21.0942  -24.3400  -17.7403 O   0  0  0  0  0  0  0  0  0  0  0  0
   23.3087  -24.1526  -16.7881 C   0  0  0  0  0  0  0  0  0  0  0  0
   23.8382  -23.4192  -15.6150 C   0  0  0  0  0  0  0  0  0  0  0  0
   24.7834  -22.2822  -15.9221 C   0  0  2  0  0  0  0  0  0  0  0  0
   25.5408  -22.6713  -17.1348 N   0  0  0  0  0  0  0  0  0  0  0  0
   25.7643  -21.9932  -14.8758 C   0  0  0  0  0  0  0  0  0  0  0  0
   26.8884  -22.5617  -14.9060 O   0  0  0  0  0  0  0  0  0  0  0  0
   27.7605  -19.1551  -14.1280 C   0  0  0  0  0  0  0  0  0  0  0  0
   26.9923  -19.4264  -12.8760 C   0  0  1  0  0  0  0  0  0  0  0  0
   25.7804  -18.7039  -12.9842 O   0  0  0  0  0  0  0  0  0  0  0  0
   26.5790  -20.8769  -12.7505 C   0  0  2  0  0  0  0  0  0  0  0  0
   25.5758  -21.1005  -13.7852 N   0  0  0  0  0  0  0  0  0  0  0  0
   26.0275  -21.1159  -11.3969 C   0  0  0  0  0  0  0  0  0  0  0  0
   24.8543  -21.4902  -11.1814 O   0  0  0  0  0  0  0  0  0  0  0  0
   28.9568  -20.5343   -4.6212 C   0  0  0  0  0  0  0  0  0  0  0  0
   28.1463  -19.2506   -5.6310 S   0  0  0  0  0  0  0  0  0  0  0  0
   26.8566  -20.0469   -6.6391 C   0  0  0  0  0  0  0  0  0  0  0  0
   27.2586  -20.1713   -8.0687 C   0  0  0  0  0  0  0  0  0  0  0  0
   26.2856  -20.9259   -8.9384 C   0  0  2  0  0  0  0  0  0  0  0  0
   26.8698  -20.9117  -10.2785 N   0  0  0  0  0  0  0  0  0  0  0  0
   24.9832  -20.2576   -8.9026 C   0  0  0  0  0  0  0  0  0  0  0  0
   24.0056  -20.7768   -8.0515 O   0  0  0  0  0  0  0  0  0  0  0  0
   24.7739  -19.2506   -9.6231 O   0  0  0  0  0  0  0  0  0  0  0  0
  1  2  1  0
  2  4  1  0
  3  2  2  0
  4  5  1  0
  6  8  1  0
  6  7  1  6
  6  5  1  0
  8  9  2  0
 11 10  1  6
 11 12  1  0
 11 13  1  0
 13 15  1  0
 13 14  1  6
 14  8  1  0
 15 22  1  0
 15 16  2  0
 17 18  1  0
 19 18  1  0
 20 19  1  0
 21 20  1  1
 21 23  1  0
 22 21  1  0
 23 25  2  0
 23 24  1  0
M  END
$$$$
