QTM.pdb
     RDKit          3D

 25 24  0  0  1  0  0  0  0  0999 V2000
   16.9611  -14.9425  -15.2383 N   0  0  0  0  0  0  0  0  0  0  0  0
   17.0299  -15.2194  -16.6309 C   0  0  0  0  0  0  0  0  0  0  0  0
   16.4355  -16.2420  -17.0421 O   0  0  0  0  0  0  0  0  0  0  0  0
   17.7919  -14.3093  -17.5627 C   0  0  0  0  0  0  0  0  0  0  0  0
   18.2683  -13.1688  -16.7463 C   0  0  0  0  0  0  0  0  0  0  0  0
   19.7369  -12.8397  -16.8701 C   0  0  2  0  0  0  0  0  0  0  0  0
   20.4807  -13.9655  -16.2577 N   0  0  0  0  0  0  0  0  0  0  0  0
   20.1580  -11.6197  -16.1810 C   0  0  0  0  0  0  0  0  0  0  0  0
   19.6946  -11.3623  -15.0378 O   0  0  0  0  0  0  0  0  0  0  0  0
   23.5579  -10.6027  -15.1422 C   0  0  0  0  0  0  0  0  0  0  0  0
   22.9899   -9.4716  -15.9356 C   0  0  1  0  0  0  0  0  0  0  0  0
   23.3645   -9.6976  -17.2813 O   0  0  0  0  0  0  0  0  0  0  0  0
   21.4764   -9.4679  -15.9409 C   0  0  2  0  0  0  0  0  0  0  0  0
   21.0736  -10.6557  -16.6851 N   0  0  0  0  0  0  0  0  0  0  0  0
   20.9900   -8.2284  -16.5894 C   0  0  0  0  0  0  0  0  0  0  0  0
   20.6242   -8.1669  -17.7833 O   0  0  0  0  0  0  0  0  0  0  0  0
   16.2647   -6.6963  -18.0508 C   0  0  0  0  0  0  0  0  0  0  0  0
   16.4944   -5.0363  -17.3321 S   0  0  0  0  0  0  0  0  0  0  0  0
   18.2790   -4.7488  -17.1177 C   0  0  0  0  0  0  0  0  0  0  0  0
   18.9823   -5.9528  -16.5918 C   0  0  0  0  0  0  0  0  0  0  0  0
   20.4766   -5.8065  -16.4563 C   0  0  2  0  0  0  0  0  0  0  0  0
   20.9324   -7.0417  -15.8209 N   0  0  0  0  0  0  0  0  0  0  0  0
   20.7770   -4.6286  -15.6399 C   0  0  0  0  0  0  0  0  0  0  0  0
   20.7827   -3.3820  -16.2689 O   0  0  0  0  0  0  0  0  0  0  0  0
   21.0189   -4.7586  -14.4146 O   0  0  0  0  0  0  0  0  0  0  0  0
  1  2  1  0
  2  4  1  0
  3  2  2  0
  4  5  1  0
  6  8  1  0
  6  7  1  1
  6  5  1  0
  8  9  2  0
 11 10  1  1
 11 12  1  0
 11 13  1  0
 13 15  1  0
 13 14  1  6
 14  8  1  0
 15 22  1  0
 15 16  2  0
 17 18  1  0
 19 18  1  0
 20 19  1  0
 21 20  1  1
 21 23  1  0
 22 21  1  0
 23 25  2  0
 23 24  1  0
M  END
$$$$
