KVP.pdb
     RDKit          3D

 24 24  0  0  1  0  0  0  0  0999 V2000
    9.3361  -17.9822   20.0847 N   0  0  0  0  0  0  0  0  0  0  0  0
   10.0321  -17.7677   21.3010 C   0  0  1  0  0  0  0  0  0  0  0  0
   11.4612  -17.3543   21.2075 C   0  0  0  0  0  0  0  0  0  0  0  0
   12.4233  -18.3726   20.7437 C   0  0  0  0  0  0  0  0  0  0  0  0
   13.8334  -17.9895   20.5642 C   0  0  0  0  0  0  0  0  0  0  0  0
   14.7430  -19.0194   20.0011 C   0  0  0  0  0  0  0  0  0  0  0  0
   16.0608  -18.5279   19.7026 N   0  0  0  0  0  0  0  0  0  0  0  0
    9.2335  -16.8002   22.1334 C   0  0  0  0  0  0  0  0  0  0  0  0
    8.3882  -16.0686   21.5884 O   0  0  0  0  0  0  0  0  0  0  0  0
    7.4677  -17.9529   25.0302 C   0  0  0  0  0  0  0  0  0  0  0  0
    7.2106  -16.6078   24.3869 C   0  0  2  0  0  0  0  0  0  0  0  0
    6.7329  -16.9168   22.9746 C   0  0  0  0  0  0  0  0  0  0  0  0
    8.5214  -15.8437   24.3571 C   0  0  2  0  0  0  0  0  0  0  0  0
    9.4071  -16.6872   23.5279 N   0  0  0  0  0  0  0  0  0  0  0  0
    9.0917  -15.8487   25.7310 C   0  0  0  0  0  0  0  0  0  0  0  0
    9.4688  -16.9363   26.2598 O   0  0  0  0  0  0  0  0  0  0  0  0
    9.2473  -14.6700   26.5160 N   0  0  0  0  0  0  0  0  0  0  0  0
    8.9110  -13.3372   25.9565 C   0  0  0  0  0  0  0  0  0  0  0  0
    8.3008  -12.6423   27.1385 C   0  0  0  0  0  0  0  0  0  0  0  0
    8.8731  -13.2926   28.3561 C   0  0  0  0  0  0  0  0  0  0  0  0
    9.7759  -14.3867   27.8003 C   0  0  1  0  0  0  0  0  0  0  0  0
    9.8244  -15.5115   28.7646 C   0  0  0  0  0  0  0  0  0  0  0  0
   10.6762  -15.4586   29.8357 O   0  0  0  0  0  0  0  0  0  0  0  0
    9.0842  -16.5398   28.6115 O   0  0  0  0  0  0  0  0  0  0  0  0
  2  1  1  6
  2  3  1  0
  4  3  1  0
  4  5  1  0
  5  6  1  0
  7  6  1  0
  8  2  1  0
  8  9  2  0
 11 10  1  1
 11 13  1  0
 12 11  1  0
 13 14  1  6
 14  8  1  0
 15 13  1  0
 16 15  2  0
 17 15  1  0
 17 21  1  0
 18 19  1  0
 18 17  1  0
 19 20  1  0
 20 21  1  0
 21 22  1  1
 22 24  2  0
 22 23  1  0
M  END
$$$$
