KVP.pdb
     RDKit          3D

 24 24  0  0  1  0  0  0  0  0999 V2000
   10.1747  -15.9979   20.2090 N   0  0  0  0  0  0  0  0  0  0  0  0
   10.2891  -16.5873   21.4932 C   0  0  1  0  0  0  0  0  0  0  0  0
   11.5776  -17.2595   21.8249 C   0  0  0  0  0  0  0  0  0  0  0  0
   11.8597  -18.5382   21.1442 C   0  0  0  0  0  0  0  0  0  0  0  0
   13.0750  -19.2850   21.5086 C   0  0  0  0  0  0  0  0  0  0  0  0
   13.2732  -20.6047   20.8572 C   0  0  0  0  0  0  0  0  0  0  0  0
   12.2121  -21.5413   21.1106 N   0  0  0  0  0  0  0  0  0  0  0  0
    9.9326  -15.5457   22.5202 C   0  0  0  0  0  0  0  0  0  0  0  0
    9.7212  -14.3734   22.1627 O   0  0  0  0  0  0  0  0  0  0  0  0
    7.4636  -14.2984   23.1299 C   0  0  0  0  0  0  0  0  0  0  0  0
    7.6473  -15.0992   24.4004 C   0  0  2  0  0  0  0  0  0  0  0  0
    6.7209  -14.4570   25.4238 C   0  0  0  0  0  0  0  0  0  0  0  0
    9.0970  -14.9706   24.8306 C   0  0  2  0  0  0  0  0  0  0  0  0
    9.8265  -15.8491   23.8929 N   0  0  0  0  0  0  0  0  0  0  0  0
    9.2352  -15.5796   26.1806 C   0  0  0  0  0  0  0  0  0  0  0  0
    8.7944  -16.7467   26.4008 O   0  0  0  0  0  0  0  0  0  0  0  0
    9.8529  -14.9135   27.2782 N   0  0  0  0  0  0  0  0  0  0  0  0
   10.0205  -13.4389   27.2724 C   0  0  0  0  0  0  0  0  0  0  0  0
    9.7628  -13.0852   28.7080 C   0  0  0  0  0  0  0  0  0  0  0  0
   10.0959  -14.3002   29.5116 C   0  0  0  0  0  0  0  0  0  0  0  0
   10.4990  -15.3340   28.4676 C   0  0  1  0  0  0  0  0  0  0  0  0
   10.1590  -16.6870   28.9688 C   0  0  0  0  0  0  0  0  0  0  0  0
    8.9501  -17.2493   28.6552 O   0  0  0  0  0  0  0  0  0  0  0  0
   10.9768  -17.3419   29.6974 O   0  0  0  0  0  0  0  0  0  0  0  0
  2  1  1  6
  2  3  1  0
  4  3  1  0
  4  5  1  0
  5  6  1  0
  7  6  1  0
  8  2  1  0
  8  9  2  0
 11 10  1  6
 11 13  1  0
 12 11  1  0
 13 14  1  6
 14  8  1  0
 15 13  1  0
 16 15  2  0
 17 15  1  0
 17 21  1  0
 18 19  1  0
 18 17  1  0
 19 20  1  0
 20 21  1  0
 21 22  1  1
 22 24  2  0
 22 23  1  0
M  END
$$$$
