KVP.pdb
     RDKit          3D

 24 24  0  0  1  0  0  0  0  0999 V2000
    8.7634  -15.6029   20.9589 N   0  0  0  0  0  0  0  0  0  0  0  0
    8.1558  -16.2154   22.0838 C   0  0  1  0  0  0  0  0  0  0  0  0
    8.4475  -17.6584   22.3175 C   0  0  0  0  0  0  0  0  0  0  0  0
    7.3226  -18.5053   22.7594 C   0  0  0  0  0  0  0  0  0  0  0  0
    6.9232  -19.6501   21.9244 C   0  0  0  0  0  0  0  0  0  0  0  0
    5.6974  -20.3831   22.3310 C   0  0  0  0  0  0  0  0  0  0  0  0
    5.2022  -21.2858   21.3274 N   0  0  0  0  0  0  0  0  0  0  0  0
    8.4765  -15.3862   23.2989 C   0  0  0  0  0  0  0  0  0  0  0  0
    9.6195  -14.9172   23.4420 O   0  0  0  0  0  0  0  0  0  0  0  0
    5.9543  -12.7793   24.8880 C   0  0  0  0  0  0  0  0  0  0  0  0
    6.4688  -13.7598   25.9191 C   0  0  2  0  0  0  0  0  0  0  0  0
    6.5928  -12.9641   27.2112 C   0  0  0  0  0  0  0  0  0  0  0  0
    7.8276  -14.2547   25.4588 C   0  0  2  0  0  0  0  0  0  0  0  0
    7.5192  -15.1150   24.2976 N   0  0  0  0  0  0  0  0  0  0  0  0
    8.3781  -15.1457   26.5151 C   0  0  0  0  0  0  0  0  0  0  0  0
    7.7939  -16.2333   26.7989 O   0  0  0  0  0  0  0  0  0  0  0  0
    9.5600  -14.8453   27.2519 N   0  0  0  0  0  0  0  0  0  0  0  0
   10.3230  -13.6005   26.9857 C   0  0  0  0  0  0  0  0  0  0  0  0
   10.7589  -13.1954   28.3635 C   0  0  0  0  0  0  0  0  0  0  0  0
   10.8030  -14.4459   29.1803 C   0  0  0  0  0  0  0  0  0  0  0  0
   10.3371  -15.5316   28.2184 C   0  0  1  0  0  0  0  0  0  0  0  0
    9.6545  -16.5998   28.9869 C   0  0  0  0  0  0  0  0  0  0  0  0
    8.2920  -16.7236   28.9249 O   0  0  0  0  0  0  0  0  0  0  0  0
   10.3181  -17.4105   29.7156 O   0  0  0  0  0  0  0  0  0  0  0  0
  2  1  1  6
  2  3  1  0
  4  3  1  0
  4  5  1  0
  5  6  1  0
  7  6  1  0
  8  2  1  0
  8  9  2  0
 11 10  1  6
 11 13  1  0
 12 11  1  0
 13 14  1  6
 14  8  1  0
 15 13  1  0
 16 15  2  0
 17 15  1  0
 17 21  1  0
 18 19  1  0
 18 17  1  0
 19 20  1  0
 20 21  1  0
 21 22  1  1
 22 24  2  0
 22 23  1  0
M  END
$$$$
