KVP.pdb
     RDKit          3D

 24 24  0  0  1  0  0  0  0  0999 V2000
    9.3517  -15.2326   20.7110 N   0  0  0  0  0  0  0  0  0  0  0  0
    8.5868  -15.8116   21.7547 C   0  0  1  0  0  0  0  0  0  0  0  0
    8.7209  -17.2810   21.9667 C   0  0  0  0  0  0  0  0  0  0  0  0
    9.0838  -18.0962   20.7913 C   0  0  0  0  0  0  0  0  0  0  0  0
   10.2727  -18.9613   20.8652 C   0  0  0  0  0  0  0  0  0  0  0  0
   10.5311  -19.8489   19.7030 C   0  0  0  0  0  0  0  0  0  0  0  0
    9.5967  -20.9352   19.5845 N   0  0  0  0  0  0  0  0  0  0  0  0
    8.8662  -15.0461   23.0206 C   0  0  0  0  0  0  0  0  0  0  0  0
    9.9972  -14.5666   23.2151 O   0  0  0  0  0  0  0  0  0  0  0  0
    6.3192  -12.6087   24.8225 C   0  0  0  0  0  0  0  0  0  0  0  0
    6.8211  -13.6799   25.7659 C   0  0  2  0  0  0  0  0  0  0  0  0
    6.9388  -13.0029   27.1246 C   0  0  0  0  0  0  0  0  0  0  0  0
    8.1810  -14.1392   25.2733 C   0  0  2  0  0  0  0  0  0  0  0  0
    7.8828  -14.8468   24.0109 N   0  0  0  0  0  0  0  0  0  0  0  0
    8.6967  -15.1611   26.2233 C   0  0  0  0  0  0  0  0  0  0  0  0
    8.1131  -16.2801   26.3333 O   0  0  0  0  0  0  0  0  0  0  0  0
    9.8433  -14.9563   27.0438 N   0  0  0  0  0  0  0  0  0  0  0  0
   10.6354  -13.7055   26.9403 C   0  0  0  0  0  0  0  0  0  0  0  0
   11.0057  -13.4458   28.3714 C   0  0  0  0  0  0  0  0  0  0  0  0
   10.9914  -14.7711   29.0614 C   0  0  0  0  0  0  0  0  0  0  0  0
   10.5609  -15.7484   27.9749 C   0  0  1  0  0  0  0  0  0  0  0  0
    9.8258  -16.8742   28.5990 C   0  0  0  0  0  0  0  0  0  0  0  0
   10.5115  -17.8495   29.2731 O   0  0  0  0  0  0  0  0  0  0  0  0
    8.5549  -16.9551   28.5153 O   0  0  0  0  0  0  0  0  0  0  0  0
  2  1  1  6
  2  3  1  0
  4  3  1  0
  4  5  1  0
  5  6  1  0
  7  6  1  0
  8  2  1  0
  8  9  2  0
 11 10  1  6
 11 13  1  0
 12 11  1  0
 13 14  1  6
 14  8  1  0
 15 13  1  0
 16 15  2  0
 17 15  1  0
 17 21  1  0
 18 19  1  0
 18 17  1  0
 19 20  1  0
 20 21  1  0
 21 22  1  1
 22 24  2  0
 22 23  1  0
M  END
$$$$
