KVP.pdb
     RDKit          3D

 24 24  0  0  1  0  0  0  0  0999 V2000
   10.3183  -14.0291   18.5520 N   0  0  0  0  0  0  0  0  0  0  0  0
   10.6577  -14.5604   19.8217 C   0  0  1  0  0  0  0  0  0  0  0  0
   11.9975  -14.2106   20.3735 C   0  0  0  0  0  0  0  0  0  0  0  0
   13.1739  -14.7643   19.6752 C   0  0  0  0  0  0  0  0  0  0  0  0
   14.3472  -13.9006   19.4637 C   0  0  0  0  0  0  0  0  0  0  0  0
   15.6802  -14.5042   19.7168 C   0  0  0  0  0  0  0  0  0  0  0  0
   15.9050  -15.7325   19.0040 N   0  0  0  0  0  0  0  0  0  0  0  0
    9.5570  -14.2079   20.7866 C   0  0  0  0  0  0  0  0  0  0  0  0
    9.0134  -13.0912   20.7215 O   0  0  0  0  0  0  0  0  0  0  0  0
    6.4090  -15.7012   21.0383 C   0  0  0  0  0  0  0  0  0  0  0  0
    6.9803  -15.8883   22.4268 C   0  0  2  0  0  0  0  0  0  0  0  0
    5.7947  -15.7679   23.3744 C   0  0  0  0  0  0  0  0  0  0  0  0
    7.9834  -14.7769   22.6751 C   0  0  2  0  0  0  0  0  0  0  0  0
    9.1098  -15.1058   21.7771 N   0  0  0  0  0  0  0  0  0  0  0  0
    8.4926  -14.9148   24.0659 C   0  0  0  0  0  0  0  0  0  0  0  0
    9.0420  -15.9937   24.4387 O   0  0  0  0  0  0  0  0  0  0  0  0
    8.4002  -13.8770   25.0377 N   0  0  0  0  0  0  0  0  0  0  0  0
    8.1692  -12.4705   24.6245 C   0  0  0  0  0  0  0  0  0  0  0  0
    7.2532  -11.9699   25.7029 C   0  0  0  0  0  0  0  0  0  0  0  0
    7.5199  -12.8087   26.9104 C   0  0  0  0  0  0  0  0  0  0  0  0
    8.5737  -13.8046   26.4426 C   0  0  1  0  0  0  0  0  0  0  0  0
    8.4159  -15.0690   27.2002 C   0  0  0  0  0  0  0  0  0  0  0  0
    9.0755  -15.2422   28.3879 O   0  0  0  0  0  0  0  0  0  0  0  0
    7.6740  -16.0096   26.7603 O   0  0  0  0  0  0  0  0  0  0  0  0
  2  1  1  6
  2  3  1  0
  4  3  1  0
  4  5  1  0
  5  6  1  0
  7  6  1  0
  8  2  1  0
  8  9  2  0
 11 10  1  6
 11 13  1  0
 12 11  1  0
 13 14  1  6
 14  8  1  0
 15 13  1  0
 16 15  2  0
 17 15  1  0
 17 21  1  0
 18 19  1  0
 18 17  1  0
 19 20  1  0
 20 21  1  0
 21 22  1  1
 22 24  2  0
 22 23  1  0
M  END
$$$$
