KVP.pdb
     RDKit          3D

 24 24  0  0  1  0  0  0  0  0999 V2000
    8.1316  -14.8593   20.5849 N   0  0  0  0  0  0  0  0  0  0  0  0
    8.4944  -15.7746   21.6049 C   0  0  1  0  0  0  0  0  0  0  0  0
    9.6137  -16.7150   21.3135 C   0  0  0  0  0  0  0  0  0  0  0  0
    9.3489  -17.7874   20.3349 C   0  0  0  0  0  0  0  0  0  0  0  0
   10.1335  -17.8239   19.0898 C   0  0  0  0  0  0  0  0  0  0  0  0
    9.8273  -18.9189   18.1345 C   0  0  0  0  0  0  0  0  0  0  0  0
   10.5444  -18.8214   16.8920 N   0  0  0  0  0  0  0  0  0  0  0  0
    8.7474  -14.9936   22.8669 C   0  0  0  0  0  0  0  0  0  0  0  0
    9.6393  -14.1270   22.8882 O   0  0  0  0  0  0  0  0  0  0  0  0
    6.3809  -12.9429   24.8102 C   0  0  0  0  0  0  0  0  0  0  0  0
    6.8836  -14.0182   25.7485 C   0  0  2  0  0  0  0  0  0  0  0  0
    6.9552  -13.3607   27.1198 C   0  0  0  0  0  0  0  0  0  0  0  0
    8.2642  -14.4408   25.2810 C   0  0  2  0  0  0  0  0  0  0  0  0
    8.0031  -15.2072   24.0450 N   0  0  0  0  0  0  0  0  0  0  0  0
    8.8139  -15.4043   26.2720 C   0  0  0  0  0  0  0  0  0  0  0  0
    8.2971  -16.5542   26.3963 O   0  0  0  0  0  0  0  0  0  0  0  0
    9.9216  -15.1079   27.1176 N   0  0  0  0  0  0  0  0  0  0  0  0
   10.6598  -13.8280   26.9786 C   0  0  0  0  0  0  0  0  0  0  0  0
   10.9693  -13.4841   28.4063 C   0  0  0  0  0  0  0  0  0  0  0  0
   10.9910  -14.7746   29.1593 C   0  0  0  0  0  0  0  0  0  0  0  0
   10.6419  -15.8210   28.1085 C   0  0  1  0  0  0  0  0  0  0  0  0
    9.9373  -16.9490   28.7630 C   0  0  0  0  0  0  0  0  0  0  0  0
   10.6555  -17.9571   29.3492 O   0  0  0  0  0  0  0  0  0  0  0  0
    8.6624  -17.0015   28.7867 O   0  0  0  0  0  0  0  0  0  0  0  0
  2  1  1  6
  2  3  1  0
  4  3  1  0
  4  5  1  0
  5  6  1  0
  7  6  1  0
  8  2  1  0
  8  9  2  0
 11 10  1  6
 11 13  1  0
 12 11  1  0
 13 14  1  6
 14  8  1  0
 15 13  1  0
 16 15  2  0
 17 15  1  0
 17 21  1  0
 18 19  1  0
 18 17  1  0
 19 20  1  0
 20 21  1  0
 21 22  1  1
 22 24  2  0
 22 23  1  0
M  END
$$$$
