KVP.pdb
     RDKit          3D

 24 24  0  0  1  0  0  0  0  0999 V2000
    7.3455  -16.5942   21.9454 N   0  0  0  0  0  0  0  0  0  0  0  0
    7.7048  -15.2644   21.6105 C   0  0  1  0  0  0  0  0  0  0  0  0
    6.7350  -14.4784   20.7958 C   0  0  0  0  0  0  0  0  0  0  0  0
    7.2906  -13.4163   19.9349 C   0  0  0  0  0  0  0  0  0  0  0  0
    7.7983  -13.7751   18.6005 C   0  0  0  0  0  0  0  0  0  0  0  0
    8.3098  -12.6660   17.7556 C   0  0  0  0  0  0  0  0  0  0  0  0
    8.7918  -13.0919   16.4697 N   0  0  0  0  0  0  0  0  0  0  0  0
    8.0667  -14.5426   22.8812 C   0  0  0  0  0  0  0  0  0  0  0  0
    8.8541  -13.5807   22.8420 O   0  0  0  0  0  0  0  0  0  0  0  0
    5.9600  -12.8751   25.4329 C   0  0  0  0  0  0  0  0  0  0  0  0
    6.6820  -14.0052   26.1337 C   0  0  2  0  0  0  0  0  0  0  0  0
    6.9625  -13.4978   27.5415 C   0  0  0  0  0  0  0  0  0  0  0  0
    7.9773  -14.2683   25.3879 C   0  0  2  0  0  0  0  0  0  0  0  0
    7.5414  -14.9181   24.1345 N   0  0  0  0  0  0  0  0  0  0  0  0
    8.7513  -15.2855   26.1487 C   0  0  0  0  0  0  0  0  0  0  0  0
    8.4818  -16.5168   26.0215 O   0  0  0  0  0  0  0  0  0  0  0  0
    9.8121  -14.9535   27.0399 N   0  0  0  0  0  0  0  0  0  0  0  0
   10.4370  -13.6078   27.0060 C   0  0  0  0  0  0  0  0  0  0  0  0
   10.6876  -13.3380   28.4610 C   0  0  0  0  0  0  0  0  0  0  0  0
   10.8086  -14.6708   29.1257 C   0  0  0  0  0  0  0  0  0  0  0  0
   10.5734  -15.6683   27.9984 C   0  0  1  0  0  0  0  0  0  0  0  0
    9.9587  -16.8958   28.5576 C   0  0  0  0  0  0  0  0  0  0  0  0
   10.7449  -17.8419   29.1595 O   0  0  0  0  0  0  0  0  0  0  0  0
    8.6998  -17.0916   28.4839 O   0  0  0  0  0  0  0  0  0  0  0  0
  2  1  1  1
  2  3  1  0
  4  3  1  0
  4  5  1  0
  5  6  1  0
  7  6  1  0
  8  2  1  0
  8  9  2  0
 11 10  1  6
 11 13  1  0
 12 11  1  0
 13 14  1  6
 14  8  1  0
 15 13  1  0
 16 15  2  0
 17 15  1  0
 17 21  1  0
 18 19  1  0
 18 17  1  0
 19 20  1  0
 20 21  1  0
 21 22  1  1
 22 24  2  0
 22 23  1  0
M  END
$$$$
