KVP.pdb
     RDKit          3D

 24 24  0  0  1  0  0  0  0  0999 V2000
   10.1028  -15.6234   20.4661 N   0  0  0  0  0  0  0  0  0  0  0  0
    9.6978  -16.3762   21.5970 C   0  0  1  0  0  0  0  0  0  0  0  0
   10.4610  -17.6203   21.8995 C   0  0  0  0  0  0  0  0  0  0  0  0
   10.0292  -18.4010   23.0751 C   0  0  0  0  0  0  0  0  0  0  0  0
   10.7236  -19.6613   23.3862 C   0  0  0  0  0  0  0  0  0  0  0  0
   11.3726  -19.7597   24.7183 C   0  0  0  0  0  0  0  0  0  0  0  0
   12.0733  -20.9970   24.9316 N   0  0  0  0  0  0  0  0  0  0  0  0
    9.6594  -15.4525   22.7854 C   0  0  0  0  0  0  0  0  0  0  0  0
   10.5789  -14.6335   22.9605 O   0  0  0  0  0  0  0  0  0  0  0  0
    6.8751  -13.1372   24.0129 C   0  0  0  0  0  0  0  0  0  0  0  0
    7.1619  -14.1840   25.0671 C   0  0  2  0  0  0  0  0  0  0  0  0
    6.9361  -13.4890   26.4027 C   0  0  0  0  0  0  0  0  0  0  0  0
    8.6104  -14.6124   24.9209 C   0  0  2  0  0  0  0  0  0  0  0  0
    8.6072  -15.4780   23.7233 N   0  0  0  0  0  0  0  0  0  0  0  0
    8.9543  -15.4842   26.0761 C   0  0  0  0  0  0  0  0  0  0  0  0
    8.4187  -16.6262   26.1935 O   0  0  0  0  0  0  0  0  0  0  0  0
    9.8787  -15.1057   27.0919 N   0  0  0  0  0  0  0  0  0  0  0  0
   10.5664  -13.7916   27.0391 C   0  0  0  0  0  0  0  0  0  0  0  0
   10.6007  -13.3936   28.4858 C   0  0  0  0  0  0  0  0  0  0  0  0
   10.5517  -14.6606   29.2765 C   0  0  0  0  0  0  0  0  0  0  0  0
   10.4459  -15.7519   28.2188 C   0  0  1  0  0  0  0  0  0  0  0  0
    9.6924  -16.8988   28.7793 C   0  0  0  0  0  0  0  0  0  0  0  0
   10.2840  -17.7223   29.7000 O   0  0  0  0  0  0  0  0  0  0  0  0
    8.4936  -17.1385   28.4133 O   0  0  0  0  0  0  0  0  0  0  0  0
  2  1  1  6
  2  3  1  0
  4  3  1  0
  4  5  1  0
  5  6  1  0
  7  6  1  0
  8  2  1  0
  8  9  2  0
 11 10  1  6
 11 13  1  0
 12 11  1  0
 13 14  1  6
 14  8  1  0
 15 13  1  0
 16 15  2  0
 17 15  1  0
 17 21  1  0
 18 19  1  0
 18 17  1  0
 19 20  1  0
 20 21  1  0
 21 22  1  1
 22 24  2  0
 22 23  1  0
M  END
$$$$
