KVP.pdb
     RDKit          3D

 24 24  0  0  1  0  0  0  0  0999 V2000
    8.4464  -15.0158   20.6326 N   0  0  0  0  0  0  0  0  0  0  0  0
    7.9934  -15.6160   21.8343 C   0  0  1  0  0  0  0  0  0  0  0  0
    8.2212  -17.0802   21.9958 C   0  0  0  0  0  0  0  0  0  0  0  0
    8.1461  -17.9075   20.7760 C   0  0  0  0  0  0  0  0  0  0  0  0
    9.3645  -18.5808   20.2970 C   0  0  0  0  0  0  0  0  0  0  0  0
    9.4785  -20.0364   20.5681 C   0  0  0  0  0  0  0  0  0  0  0  0
    8.5734  -20.8426   19.7948 N   0  0  0  0  0  0  0  0  0  0  0  0
    8.5661  -14.8400   22.9904 C   0  0  0  0  0  0  0  0  0  0  0  0
    9.7047  -14.3479   22.8998 O   0  0  0  0  0  0  0  0  0  0  0  0
    6.1545  -14.2535   26.1338 C   0  0  0  0  0  0  0  0  0  0  0  0
    7.3006  -13.2713   26.0286 C   0  0  2  0  0  0  0  0  0  0  0  0
    6.7846  -12.1359   25.1554 C   0  0  0  0  0  0  0  0  0  0  0  0
    8.4648  -13.9788   25.3600 C   0  0  2  0  0  0  0  0  0  0  0  0
    7.8536  -14.6450   24.1912 N   0  0  0  0  0  0  0  0  0  0  0  0
    8.9343  -15.0586   26.2689 C   0  0  0  0  0  0  0  0  0  0  0  0
    8.3718  -16.1936   26.2531 O   0  0  0  0  0  0  0  0  0  0  0  0
   10.0124  -14.8937   27.1858 N   0  0  0  0  0  0  0  0  0  0  0  0
   10.8271  -13.6533   27.1820 C   0  0  0  0  0  0  0  0  0  0  0  0
   11.0822  -13.4374   28.6452 C   0  0  0  0  0  0  0  0  0  0  0  0
   10.9933  -14.7801   29.2948 C   0  0  0  0  0  0  0  0  0  0  0  0
   10.6402  -15.7213   28.1501 C   0  0  1  0  0  0  0  0  0  0  0  0
    9.8412  -16.8516   28.6807 C   0  0  0  0  0  0  0  0  0  0  0  0
   10.4391  -17.8067   29.4590 O   0  0  0  0  0  0  0  0  0  0  0  0
    8.5962  -16.9549   28.4196 O   0  0  0  0  0  0  0  0  0  0  0  0
  2  1  1  6
  2  3  1  0
  4  3  1  0
  4  5  1  0
  5  6  1  0
  7  6  1  0
  8  2  1  0
  8  9  2  0
 11 10  1  6
 11 13  1  0
 12 11  1  0
 13 14  1  6
 14  8  1  0
 15 13  1  0
 16 15  2  0
 17 15  1  0
 17 21  1  0
 18 19  1  0
 18 17  1  0
 19 20  1  0
 20 21  1  0
 21 22  1  1
 22 24  2  0
 22 23  1  0
M  END
$$$$
