HHD.pdb
     RDKit          3D

 29 30  0  0  1  0  0  0  0  0999 V2000
   14.0645  -20.8866   19.4629 N   0  0  0  0  0  0  0  0  0  0  0  0
   12.6294  -20.8321   19.7060 C   0  0  1  0  0  0  0  0  0  0  0  0
   11.9376  -21.3655   18.4730 C   0  0  0  0  0  0  0  0  0  0  0  0
   12.4779  -20.6230   17.3037 C   0  0  0  0  0  0  0  0  0  0  0  0
   13.2722  -19.4708   17.3333 C   0  0  0  0  0  0  0  0  0  0  0  0
   13.5605  -19.0965   16.0823 N   0  0  0  0  0  0  0  0  0  0  0  0
   12.9740  -19.9754   15.2622 C   0  0  0  0  0  0  0  0  0  0  0  0
   12.3234  -20.8928   15.9948 N   0  0  0  0  0  0  0  0  0  0  0  0
   12.3071  -21.6208   20.9142 C   0  0  0  0  0  0  0  0  0  0  0  0
   11.0890  -21.6379   21.2970 O   0  0  0  0  0  0  0  0  0  0  0  0
   13.2966  -22.3349   21.6312 N   0  0  0  0  0  0  0  0  0  0  0  0
   12.9624  -23.0424   22.8276 C   0  0  1  0  0  0  0  0  0  0  0  0
   13.5935  -24.3995   22.9655 C   0  0  0  0  0  0  0  0  0  0  0  0
   13.1510  -25.4005   21.9842 C   0  0  0  0  0  0  0  0  0  0  0  0
   11.8571  -25.8339   21.8569 C   0  0  0  0  0  0  0  0  0  0  0  0
   11.8387  -26.7385   20.8671 N   0  0  0  0  0  0  0  0  0  0  0  0
   13.0862  -26.8601   20.3968 C   0  0  0  0  0  0  0  0  0  0  0  0
   13.8904  -26.0395   21.0821 N   0  0  0  0  0  0  0  0  0  0  0  0
   13.2298  -22.2640   24.0575 C   0  0  0  0  0  0  0  0  0  0  0  0
   14.2131  -21.4832   24.0688 O   0  0  0  0  0  0  0  0  0  0  0  0
   12.4404  -22.3526   25.2279 N   0  0  0  0  0  0  0  0  0  0  0  0
   12.6415  -21.5837   26.4412 C   0  0  1  0  0  0  0  0  0  0  0  0
   11.7423  -20.3974   26.5549 C   0  0  0  0  0  0  0  0  0  0  0  0
   11.9141  -19.5801   27.7533 C   0  0  0  0  0  0  0  0  0  0  0  0
   12.6810  -19.8487   28.7058 O   0  0  0  0  0  0  0  0  0  0  0  0
   12.3300  -22.4843   27.5815 C   0  0  0  0  0  0  0  0  0  0  0  0
   11.7281  -23.5492   27.3590 O   0  0  0  0  0  0  0  0  0  0  0  0
   11.1767  -18.4056   27.8656 O   0  0  0  0  0  0  0  0  0  0  0  0
   12.6985  -22.1487   28.8541 O   0  0  0  0  0  0  0  0  0  0  0  0
  2  1  1  6
  2  9  1  0
  3  2  1  0
  4  8  1  0
  4  3  1  0
  5  4  2  0
  6  5  1  0
  6  7  1  0
  7  8  2  0
  9 10  2  0
 11  9  1  0
 11 12  1  0
 12 13  1  1
 13 14  1  0
 14 15  2  0
 16 15  1  0
 17 16  1  0
 18 17  2  0
 18 14  1  0
 19 12  1  0
 19 20  2  0
 21 19  1  0
 22 21  1  0
 22 26  1  0
 22 23  1  6
 24 23  1  0
 24 28  1  0
 25 24  2  0
 26 29  1  0
 27 26  2  0
M  END
$$$$
