HHD.pdb
     RDKit          3D

 29 30  0  0  1  0  0  0  0  0999 V2000
   14.0104  -13.7830   17.4102 N   0  0  0  0  0  0  0  0  0  0  0  0
   13.1901  -14.9416   17.7362 C   0  0  1  0  0  0  0  0  0  0  0  0
   14.0768  -16.1631   17.6636 C   0  0  0  0  0  0  0  0  0  0  0  0
   14.4277  -16.3734   16.2342 C   0  0  0  0  0  0  0  0  0  0  0  0
   13.5649  -16.2881   15.1353 C   0  0  0  0  0  0  0  0  0  0  0  0
   14.2466  -16.5418   14.0132 N   0  0  0  0  0  0  0  0  0  0  0  0
   15.5133  -16.7850   14.3673 C   0  0  0  0  0  0  0  0  0  0  0  0
   15.6232  -16.6841   15.7012 N   0  0  0  0  0  0  0  0  0  0  0  0
   12.5967  -14.7596   19.0780 C   0  0  0  0  0  0  0  0  0  0  0  0
   13.2125  -13.9943   19.8939 O   0  0  0  0  0  0  0  0  0  0  0  0
   11.3940  -15.4003   19.4607 N   0  0  0  0  0  0  0  0  0  0  0  0
   10.8357  -15.1877   20.7594 C   0  0  1  0  0  0  0  0  0  0  0  0
    9.3377  -15.0721   20.8003 C   0  0  0  0  0  0  0  0  0  0  0  0
    8.7549  -14.1195   19.8445 C   0  0  0  0  0  0  0  0  0  0  0  0
    8.2707  -12.8841   20.1874 C   0  0  0  0  0  0  0  0  0  0  0  0
    7.8242  -12.3080   19.0618 N   0  0  0  0  0  0  0  0  0  0  0  0
    8.0272  -13.1638   18.0524 C   0  0  0  0  0  0  0  0  0  0  0  0
    8.5979  -14.2743   18.5330 N   0  0  0  0  0  0  0  0  0  0  0  0
   11.2640  -16.2007   21.7496 C   0  0  0  0  0  0  0  0  0  0  0  0
   11.0631  -17.4126   21.4898 O   0  0  0  0  0  0  0  0  0  0  0  0
   11.8855  -15.8806   22.9792 N   0  0  0  0  0  0  0  0  0  0  0  0
   12.3887  -16.8388   23.9448 C   0  0  1  0  0  0  0  0  0  0  0  0
   13.6171  -16.3813   24.6591 C   0  0  0  0  0  0  0  0  0  0  0  0
   14.7915  -16.1488   23.8223 C   0  0  0  0  0  0  0  0  0  0  0  0
   15.1084  -16.8277   22.8191 O   0  0  0  0  0  0  0  0  0  0  0  0
   11.3261  -17.0221   24.9674 C   0  0  0  0  0  0  0  0  0  0  0  0
   10.3016  -16.3209   24.9017 O   0  0  0  0  0  0  0  0  0  0  0  0
   15.6389  -15.0944   24.1478 O   0  0  0  0  0  0  0  0  0  0  0  0
   11.4715  -17.9459   25.9642 O   0  0  0  0  0  0  0  0  0  0  0  0
  2  1  1  1
  2  9  1  0
  3  2  1  0
  4  8  1  0
  4  3  1  0
  5  4  2  0
  6  5  1  0
  6  7  1  0
  7  8  2  0
  9 10  2  0
 11  9  1  0
 11 12  1  0
 12 13  1  6
 13 14  1  0
 14 15  2  0
 16 15  1  0
 17 16  1  0
 18 17  2  0
 18 14  1  0
 19 12  1  0
 19 20  2  0
 21 19  1  0
 22 21  1  0
 22 26  1  0
 22 23  1  1
 24 23  1  0
 24 28  1  0
 25 24  2  0
 26 29  1  0
 27 26  2  0
M  END
$$$$
