HHD.pdb
     RDKit          3D

 29 30  0  0  1  0  0  0  0  0999 V2000
    8.2696  -21.2572   14.7127 N   0  0  0  0  0  0  0  0  0  0  0  0
    8.8454  -22.4745   15.2677 C   0  0  1  0  0  0  0  0  0  0  0  0
   10.3227  -22.4662   14.9496 C   0  0  0  0  0  0  0  0  0  0  0  0
   10.4697  -22.8134   13.5114 C   0  0  0  0  0  0  0  0  0  0  0  0
   11.0334  -22.0171   12.5076 C   0  0  0  0  0  0  0  0  0  0  0  0
   10.9872  -22.6711   11.3421 N   0  0  0  0  0  0  0  0  0  0  0  0
   10.4123  -23.8558   11.5767 C   0  0  0  0  0  0  0  0  0  0  0  0
   10.1011  -23.9423   12.8794 N   0  0  0  0  0  0  0  0  0  0  0  0
    8.5863  -22.5198   16.7225 C   0  0  0  0  0  0  0  0  0  0  0  0
    8.7955  -21.4515   17.3902 O   0  0  0  0  0  0  0  0  0  0  0  0
    8.1242  -23.6921   17.3671 N   0  0  0  0  0  0  0  0  0  0  0  0
    7.8285  -23.6871   18.7657 C   0  0  1  0  0  0  0  0  0  0  0  0
    6.4710  -24.2169   19.1341 C   0  0  0  0  0  0  0  0  0  0  0  0
    5.3334  -23.4350   18.6290 C   0  0  0  0  0  0  0  0  0  0  0  0
    5.0869  -22.1295   18.9653 C   0  0  0  0  0  0  0  0  0  0  0  0
    3.9736  -21.7576   18.3167 N   0  0  0  0  0  0  0  0  0  0  0  0
    3.5451  -22.8041   17.6002 C   0  0  0  0  0  0  0  0  0  0  0  0
    4.3792  -23.8324   17.7920 N   0  0  0  0  0  0  0  0  0  0  0  0
    8.8501  -24.3839   19.5787 C   0  0  0  0  0  0  0  0  0  0  0  0
    9.5777  -25.2402   19.0184 O   0  0  0  0  0  0  0  0  0  0  0  0
    9.0519  -24.1429   20.9578 N   0  0  0  0  0  0  0  0  0  0  0  0
   10.0746  -24.7593   21.7811 C   0  0  1  0  0  0  0  0  0  0  0  0
   10.6842  -23.8287   22.7766 C   0  0  0  0  0  0  0  0  0  0  0  0
   11.6902  -24.4114   23.6609 C   0  0  0  0  0  0  0  0  0  0  0  0
   11.5752  -24.5354   24.9015 O   0  0  0  0  0  0  0  0  0  0  0  0
    9.4164  -25.8518   22.5438 C   0  0  0  0  0  0  0  0  0  0  0  0
    8.1767  -25.8573   22.6370 O   0  0  0  0  0  0  0  0  0  0  0  0
   12.8779  -24.8715   23.1011 O   0  0  0  0  0  0  0  0  0  0  0  0
   10.1606  -26.8350   23.1336 O   0  0  0  0  0  0  0  0  0  0  0  0
  2  1  1  1
  2  9  1  0
  3  2  1  0
  4  8  1  0
  4  3  1  0
  5  4  2  0
  6  5  1  0
  6  7  1  0
  7  8  2  0
  9 10  2  0
 11  9  1  0
 11 12  1  0
 12 13  1  6
 13 14  1  0
 14 15  2  0
 16 15  1  0
 17 16  1  0
 18 17  2  0
 18 14  1  0
 19 12  1  0
 19 20  2  0
 21 19  1  0
 22 21  1  0
 22 26  1  0
 22 23  1  1
 24 23  1  0
 24 28  1  0
 25 24  2  0
 26 29  1  0
 27 26  2  0
M  END
$$$$
