HHD.pdb
     RDKit          3D

 29 30  0  0  1  0  0  0  0  0999 V2000
    9.4981  -18.3565   18.1138 N   0  0  0  0  0  0  0  0  0  0  0  0
   10.2902  -17.1703   17.8187 C   0  0  1  0  0  0  0  0  0  0  0  0
    9.5094  -16.3348   16.8309 C   0  0  0  0  0  0  0  0  0  0  0  0
    9.3104  -17.1600   15.6102 C   0  0  0  0  0  0  0  0  0  0  0  0
    9.5930  -18.5229   15.4613 C   0  0  0  0  0  0  0  0  0  0  0  0
    9.2805  -18.9093   14.2198 N   0  0  0  0  0  0  0  0  0  0  0  0
    8.8093  -17.8342   13.5786 C   0  0  0  0  0  0  0  0  0  0  0  0
    8.8268  -16.7830   14.4128 N   0  0  0  0  0  0  0  0  0  0  0  0
   10.5657  -16.4405   19.0746 C   0  0  0  0  0  0  0  0  0  0  0  0
   11.1689  -15.3189   18.9822 O   0  0  0  0  0  0  0  0  0  0  0  0
   10.1831  -16.9497   20.3386 N   0  0  0  0  0  0  0  0  0  0  0  0
   10.5282  -16.2551   21.5395 C   0  0  1  0  0  0  0  0  0  0  0  0
    9.4034  -16.0758   22.5202 C   0  0  0  0  0  0  0  0  0  0  0  0
    8.2359  -15.3429   22.0097 C   0  0  0  0  0  0  0  0  0  0  0  0
    8.0430  -13.9955   22.1691 C   0  0  0  0  0  0  0  0  0  0  0  0
    6.8798  -13.6897   21.5762 N   0  0  0  0  0  0  0  0  0  0  0  0
    6.3690  -14.8168   21.0652 C   0  0  0  0  0  0  0  0  0  0  0  0
    7.2009  -15.8301   21.3313 N   0  0  0  0  0  0  0  0  0  0  0  0
   11.6857  -16.8505   22.2436 C   0  0  0  0  0  0  0  0  0  0  0  0
   11.8090  -18.1000   22.2405 O   0  0  0  0  0  0  0  0  0  0  0  0
   12.6631  -16.0898   22.9268 N   0  0  0  0  0  0  0  0  0  0  0  0
   13.8732  -16.6164   23.5286 C   0  0  1  0  0  0  0  0  0  0  0  0
   14.9092  -15.5764   23.8000 C   0  0  0  0  0  0  0  0  0  0  0  0
   16.1877  -16.0677   24.3076 C   0  0  0  0  0  0  0  0  0  0  0  0
   16.3402  -16.7276   25.3606 O   0  0  0  0  0  0  0  0  0  0  0  0
   13.4856  -17.2052   24.8368 C   0  0  0  0  0  0  0  0  0  0  0  0
   12.3852  -16.9021   25.3298 O   0  0  0  0  0  0  0  0  0  0  0  0
   17.3401  -15.7918   23.5785 O   0  0  0  0  0  0  0  0  0  0  0  0
   14.3241  -18.0657   25.4884 O   0  0  0  0  0  0  0  0  0  0  0  0
  2  1  1  1
  2  9  1  0
  3  2  1  0
  4  8  1  0
  4  3  1  0
  5  4  2  0
  6  5  1  0
  6  7  1  0
  7  8  2  0
  9 10  2  0
 11  9  1  0
 11 12  1  0
 12 13  1  1
 13 14  1  0
 14 15  2  0
 16 15  1  0
 17 16  1  0
 18 17  2  0
 18 14  1  0
 19 12  1  0
 19 20  2  0
 21 19  1  0
 22 21  1  0
 22 26  1  0
 22 23  1  1
 24 23  1  0
 24 28  1  0
 25 24  2  0
 26 29  1  0
 27 26  2  0
M  END
$$$$
