HHD.pdb
     RDKit          3D

 29 30  0  0  1  0  0  0  0  0999 V2000
   10.8505  -16.3008   15.1938 N   0  0  0  0  0  0  0  0  0  0  0  0
   10.7488  -17.2626   16.2829 C   0  0  1  0  0  0  0  0  0  0  0  0
   11.7020  -18.3956   15.9811 C   0  0  0  0  0  0  0  0  0  0  0  0
   11.1505  -19.1433   14.8203 C   0  0  0  0  0  0  0  0  0  0  0  0
    9.8186  -19.5259   14.6227 C   0  0  0  0  0  0  0  0  0  0  0  0
    9.7113  -20.1818   13.4622 N   0  0  0  0  0  0  0  0  0  0  0  0
   10.9330  -20.2262   12.9195 C   0  0  0  0  0  0  0  0  0  0  0  0
   11.7982  -19.6027   13.7344 N   0  0  0  0  0  0  0  0  0  0  0  0
   11.0652  -16.5902   17.5611 C   0  0  0  0  0  0  0  0  0  0  0  0
   12.1893  -15.9904   17.6470 O   0  0  0  0  0  0  0  0  0  0  0  0
   10.1697  -16.6006   18.6571 N   0  0  0  0  0  0  0  0  0  0  0  0
   10.5104  -15.9500   19.8835 C   0  0  1  0  0  0  0  0  0  0  0  0
    9.3666  -15.2784   20.5904 C   0  0  0  0  0  0  0  0  0  0  0  0
    8.5719  -14.3575   19.7650 C   0  0  0  0  0  0  0  0  0  0  0  0
    8.7818  -13.0047   19.7015 C   0  0  0  0  0  0  0  0  0  0  0  0
    7.8719  -12.5028   18.8539 N   0  0  0  0  0  0  0  0  0  0  0  0
    7.1216  -13.5173   18.4067 C   0  0  0  0  0  0  0  0  0  0  0  0
    7.5512  -14.6543   18.9657 N   0  0  0  0  0  0  0  0  0  0  0  0
   11.2070  -16.8391   20.8396 C   0  0  0  0  0  0  0  0  0  0  0  0
   10.9485  -18.0675   20.8107 O   0  0  0  0  0  0  0  0  0  0  0  0
   12.1484  -16.3822   21.7915 N   0  0  0  0  0  0  0  0  0  0  0  0
   13.0664  -17.2198   22.5393 C   0  0  1  0  0  0  0  0  0  0  0  0
   14.0586  -17.9347   21.6831 C   0  0  0  0  0  0  0  0  0  0  0  0
   15.0118  -18.7875   22.3886 C   0  0  0  0  0  0  0  0  0  0  0  0
   16.1909  -18.4734   22.6689 O   0  0  0  0  0  0  0  0  0  0  0  0
   13.8303  -16.3235   23.4456 C   0  0  0  0  0  0  0  0  0  0  0  0
   13.7402  -15.0933   23.2902 O   0  0  0  0  0  0  0  0  0  0  0  0
   14.5972  -20.0535   22.7901 O   0  0  0  0  0  0  0  0  0  0  0  0
   14.6193  -16.8417   24.4341 O   0  0  0  0  0  0  0  0  0  0  0  0
  2  1  1  6
  2  9  1  0
  3  2  1  0
  4  8  1  0
  4  3  1  0
  5  4  2  0
  6  5  1  0
  6  7  1  0
  7  8  2  0
  9 10  2  0
 11  9  1  0
 11 12  1  0
 12 13  1  1
 13 14  1  0
 14 15  2  0
 16 15  1  0
 17 16  1  0
 18 17  2  0
 18 14  1  0
 19 12  1  0
 19 20  2  0
 21 19  1  0
 22 21  1  0
 22 26  1  0
 22 23  1  6
 24 23  1  0
 24 28  1  0
 25 24  2  0
 26 29  1  0
 27 26  2  0
M  END
$$$$
