HHD.pdb
     RDKit          3D

 29 30  0  0  1  0  0  0  0  0999 V2000
   11.8699  -17.6941   15.8902 N   0  0  0  0  0  0  0  0  0  0  0  0
   10.8106  -16.9240   16.5275 C   0  0  1  0  0  0  0  0  0  0  0  0
    9.6321  -17.8484   16.7277 C   0  0  0  0  0  0  0  0  0  0  0  0
    8.8071  -17.7910   15.4921 C   0  0  0  0  0  0  0  0  0  0  0  0
    9.0665  -17.0362   14.3422 C   0  0  0  0  0  0  0  0  0  0  0  0
    8.0983  -17.2462   13.4440 N   0  0  0  0  0  0  0  0  0  0  0  0
    7.2347  -18.1099   13.9891 C   0  0  0  0  0  0  0  0  0  0  0  0
    7.6595  -18.4378   15.2193 N   0  0  0  0  0  0  0  0  0  0  0  0
   11.3090  -16.3679   17.8035 C   0  0  0  0  0  0  0  0  0  0  0  0
   12.3844  -16.8645   18.2806 O   0  0  0  0  0  0  0  0  0  0  0  0
   10.6340  -15.3262   18.4835 N   0  0  0  0  0  0  0  0  0  0  0  0
   11.0832  -14.8811   19.7655 C   0  0  1  0  0  0  0  0  0  0  0  0
   10.5204  -13.5629   20.2181 C   0  0  0  0  0  0  0  0  0  0  0  0
    9.0584  -13.4402   20.1281 C   0  0  0  0  0  0  0  0  0  0  0  0
    8.4068  -12.6556   19.2127 C   0  0  0  0  0  0  0  0  0  0  0  0
    7.0920  -12.7978   19.4347 N   0  0  0  0  0  0  0  0  0  0  0  0
    6.9364  -13.6464   20.4584 C   0  0  0  0  0  0  0  0  0  0  0  0
    8.1424  -14.0400   20.8832 N   0  0  0  0  0  0  0  0  0  0  0  0
   10.8740  -15.8824   20.8350 C   0  0  0  0  0  0  0  0  0  0  0  0
   10.0088  -16.7748   20.6573 O   0  0  0  0  0  0  0  0  0  0  0  0
   11.5929  -15.8894   22.0532 N   0  0  0  0  0  0  0  0  0  0  0  0
   11.4037  -16.8323   23.1389 C   0  0  1  0  0  0  0  0  0  0  0  0
   11.6165  -18.2553   22.7409 C   0  0  0  0  0  0  0  0  0  0  0  0
   11.5064  -19.2404   23.8137 C   0  0  0  0  0  0  0  0  0  0  0  0
   10.5788  -19.2924   24.6530 O   0  0  0  0  0  0  0  0  0  0  0  0
   12.4174  -16.5080   24.1760 C   0  0  0  0  0  0  0  0  0  0  0  0
   13.2732  -15.6405   23.9292 O   0  0  0  0  0  0  0  0  0  0  0  0
   12.5005  -20.2069   23.9304 O   0  0  0  0  0  0  0  0  0  0  0  0
   12.4102  -17.1518   25.3816 O   0  0  0  0  0  0  0  0  0  0  0  0
  2  1  1  1
  2  9  1  0
  3  2  1  0
  4  8  1  0
  4  3  1  0
  5  4  2  0
  6  5  1  0
  6  7  1  0
  7  8  2  0
  9 10  2  0
 11  9  1  0
 11 12  1  0
 12 13  1  1
 13 14  1  0
 14 15  2  0
 16 15  1  0
 17 16  1  0
 18 17  2  0
 18 14  1  0
 19 12  1  0
 19 20  2  0
 21 19  1  0
 22 21  1  0
 22 26  1  0
 22 23  1  6
 24 23  1  0
 24 28  1  0
 25 24  2  0
 26 29  1  0
 27 26  2  0
M  END
$$$$
