HHD.pdb
     RDKit          3D

 29 30  0  0  1  0  0  0  0  0999 V2000
    9.3298  -18.5825   15.7610 N   0  0  0  0  0  0  0  0  0  0  0  0
    8.4095  -18.5545   16.8896 C   0  0  1  0  0  0  0  0  0  0  0  0
    7.9052  -19.9631   17.1017 C   0  0  0  0  0  0  0  0  0  0  0  0
    9.0943  -20.8469   17.2266 C   0  0  0  0  0  0  0  0  0  0  0  0
   10.1933  -20.9050   16.3617 C   0  0  0  0  0  0  0  0  0  0  0  0
   11.0604  -21.8217   16.8045 N   0  0  0  0  0  0  0  0  0  0  0  0
   10.5449  -22.3453   17.9221 C   0  0  0  0  0  0  0  0  0  0  0  0
    9.3639  -21.7606   18.1766 N   0  0  0  0  0  0  0  0  0  0  0  0
    9.1097  -18.0255   18.0794 C   0  0  0  0  0  0  0  0  0  0  0  0
   10.3865  -18.0383   18.0639 O   0  0  0  0  0  0  0  0  0  0  0  0
    8.4088  -17.5207   19.2007 N   0  0  0  0  0  0  0  0  0  0  0  0
    9.1156  -16.9864   20.3225 C   0  0  1  0  0  0  0  0  0  0  0  0
    8.3481  -15.9914   21.1471 C   0  0  0  0  0  0  0  0  0  0  0  0
    8.0317  -14.7256   20.4699 C   0  0  0  0  0  0  0  0  0  0  0  0
    8.4229  -14.4170   19.1933 C   0  0  0  0  0  0  0  0  0  0  0  0
    7.9542  -13.1903   18.9217 N   0  0  0  0  0  0  0  0  0  0  0  0
    7.2922  -12.7540   20.0005 C   0  0  0  0  0  0  0  0  0  0  0  0
    7.3400  -13.6958   20.9495 N   0  0  0  0  0  0  0  0  0  0  0  0
    9.6595  -18.0311   21.2186 C   0  0  0  0  0  0  0  0  0  0  0  0
    9.3374  -19.2262   21.0078 O   0  0  0  0  0  0  0  0  0  0  0  0
   10.5218  -17.7590   22.3064 N   0  0  0  0  0  0  0  0  0  0  0  0
   11.3297  -18.7382   23.0078 C   0  0  1  0  0  0  0  0  0  0  0  0
   12.4251  -19.3182   22.1758 C   0  0  0  0  0  0  0  0  0  0  0  0
   13.3086  -20.2631   22.8542 C   0  0  0  0  0  0  0  0  0  0  0  0
   14.5393  -20.3730   22.6515 O   0  0  0  0  0  0  0  0  0  0  0  0
   11.9686  -18.0345   24.1502 C   0  0  0  0  0  0  0  0  0  0  0  0
   12.4940  -16.9248   23.9544 O   0  0  0  0  0  0  0  0  0  0  0  0
   12.7598  -21.1180   23.8048 O   0  0  0  0  0  0  0  0  0  0  0  0
   11.9792  -18.5967   25.3959 O   0  0  0  0  0  0  0  0  0  0  0  0
  2  1  1  6
  2  9  1  0
  3  2  1  0
  4  8  1  0
  4  3  1  0
  5  4  2  0
  6  5  1  0
  6  7  1  0
  7  8  2  0
  9 10  2  0
 11  9  1  0
 11 12  1  0
 12 13  1  1
 13 14  1  0
 14 15  2  0
 16 15  1  0
 17 16  1  0
 18 17  2  0
 18 14  1  0
 19 12  1  0
 19 20  2  0
 21 19  1  0
 22 21  1  0
 22 26  1  0
 22 23  1  6
 24 23  1  0
 24 28  1  0
 25 24  2  0
 26 29  1  0
 27 26  2  0
M  END
$$$$
