HHD.pdb
     RDKit          3D

 29 30  0  0  1  0  0  0  0  0999 V2000
   11.0484  -13.8369   19.7549 N   0  0  0  0  0  0  0  0  0  0  0  0
    9.7845  -14.3680   20.2467 C   0  0  1  0  0  0  0  0  0  0  0  0
    9.3492  -15.4608   19.2982 C   0  0  0  0  0  0  0  0  0  0  0  0
    8.7125  -14.8043   18.1259 C   0  0  0  0  0  0  0  0  0  0  0  0
    8.6492  -13.4309   17.8629 C   0  0  0  0  0  0  0  0  0  0  0  0
    7.9965  -13.2273   16.7136 N   0  0  0  0  0  0  0  0  0  0  0  0
    7.6449  -14.4281   16.2412 C   0  0  0  0  0  0  0  0  0  0  0  0
    8.0744  -15.3761   17.0887 N   0  0  0  0  0  0  0  0  0  0  0  0
    9.9661  -14.8646   21.6273 C   0  0  0  0  0  0  0  0  0  0  0  0
   11.1570  -14.9013   22.0867 O   0  0  0  0  0  0  0  0  0  0  0  0
    8.8746  -15.2871   22.4233 N   0  0  0  0  0  0  0  0  0  0  0  0
    9.0604  -15.6104   23.8033 C   0  0  1  0  0  0  0  0  0  0  0  0
    7.8112  -15.5888   24.6390 C   0  0  0  0  0  0  0  0  0  0  0  0
    7.3864  -14.2589   25.0990 C   0  0  0  0  0  0  0  0  0  0  0  0
    8.1225  -13.1151   24.9314 C   0  0  0  0  0  0  0  0  0  0  0  0
    7.4201  -12.1099   25.4741 N   0  0  0  0  0  0  0  0  0  0  0  0
    6.2825  -12.6189   25.9630 C   0  0  0  0  0  0  0  0  0  0  0  0
    6.2624  -13.9367   25.7327 N   0  0  0  0  0  0  0  0  0  0  0  0
    9.7511  -16.9029   24.0100 C   0  0  0  0  0  0  0  0  0  0  0  0
    9.6533  -17.7820   23.1188 O   0  0  0  0  0  0  0  0  0  0  0  0
   10.5149  -17.2078   25.1608 N   0  0  0  0  0  0  0  0  0  0  0  0
   11.2269  -18.4493   25.3962 C   0  0  1  0  0  0  0  0  0  0  0  0
   12.7123  -18.3043   25.3613 C   0  0  0  0  0  0  0  0  0  0  0  0
   13.3372  -18.4605   24.0504 C   0  0  0  0  0  0  0  0  0  0  0  0
   14.3654  -19.1359   23.8173 O   0  0  0  0  0  0  0  0  0  0  0  0
   10.8601  -18.9068   26.7617 C   0  0  0  0  0  0  0  0  0  0  0  0
   10.6348  -20.1149   26.9503 O   0  0  0  0  0  0  0  0  0  0  0  0
   12.7605  -17.8162   22.9604 O   0  0  0  0  0  0  0  0  0  0  0  0
   10.7717  -18.0154   27.7940 O   0  0  0  0  0  0  0  0  0  0  0  0
  2  1  1  6
  2  9  1  0
  3  2  1  0
  4  8  1  0
  4  3  1  0
  5  4  2  0
  6  5  1  0
  6  7  1  0
  7  8  2  0
  9 10  2  0
 11  9  1  0
 11 12  1  0
 12 13  1  1
 13 14  1  0
 14 15  2  0
 16 15  1  0
 17 16  1  0
 18 17  2  0
 18 14  1  0
 19 12  1  0
 19 20  2  0
 21 19  1  0
 22 21  1  0
 22 26  1  0
 22 23  1  1
 24 23  1  0
 24 28  1  0
 25 24  2  0
 26 29  1  0
 27 26  2  0
M  END
$$$$
