HHD.pdb
     RDKit          3D

 29 30  0  0  1  0  0  0  0  0999 V2000
    8.4016  -16.8833   20.4024 N   0  0  0  0  0  0  0  0  0  0  0  0
    9.2834  -16.4788   21.4888 C   0  0  1  0  0  0  0  0  0  0  0  0
    8.5879  -15.3773   22.2546 C   0  0  0  0  0  0  0  0  0  0  0  0
    8.4528  -14.2150   21.3372 C   0  0  0  0  0  0  0  0  0  0  0  0
    8.8832  -14.1390   20.0074 C   0  0  0  0  0  0  0  0  0  0  0  0
    8.5855  -12.9334   19.5113 N   0  0  0  0  0  0  0  0  0  0  0  0
    7.9805  -12.2443   20.4850 C   0  0  0  0  0  0  0  0  0  0  0  0
    7.9002  -13.0132   21.5822 N   0  0  0  0  0  0  0  0  0  0  0  0
    9.5810  -17.6505   22.3400 C   0  0  0  0  0  0  0  0  0  0  0  0
    8.5948  -18.2309   22.9066 O   0  0  0  0  0  0  0  0  0  0  0  0
   10.9010  -18.1244   22.5308 N   0  0  0  0  0  0  0  0  0  0  0  0
   11.1524  -19.2778   23.3370 C   0  0  1  0  0  0  0  0  0  0  0  0
   11.9222  -20.3764   22.6590 C   0  0  0  0  0  0  0  0  0  0  0  0
   11.1882  -21.1055   21.6148 C   0  0  0  0  0  0  0  0  0  0  0  0
    9.9019  -20.8211   21.2370 C   0  0  0  0  0  0  0  0  0  0  0  0
    9.5738  -21.6878   20.2676 N   0  0  0  0  0  0  0  0  0  0  0  0
   10.6279  -22.4847   20.0532 C   0  0  0  0  0  0  0  0  0  0  0  0
   11.6176  -22.1272   20.8795 N   0  0  0  0  0  0  0  0  0  0  0  0
   11.8108  -18.9564   24.6228 C   0  0  0  0  0  0  0  0  0  0  0  0
   12.5042  -17.9121   24.6947 O   0  0  0  0  0  0  0  0  0  0  0  0
   11.7069  -19.7639   25.7796 N   0  0  0  0  0  0  0  0  0  0  0  0
   12.3187  -19.4808   27.0638 C   0  0  1  0  0  0  0  0  0  0  0  0
   11.7295  -20.2594   28.1931 C   0  0  0  0  0  0  0  0  0  0  0  0
   10.3701  -19.8911   28.5802 C   0  0  0  0  0  0  0  0  0  0  0  0
    9.7434  -18.8948   28.1534 O   0  0  0  0  0  0  0  0  0  0  0  0
   13.7487  -19.8707   26.9577 C   0  0  0  0  0  0  0  0  0  0  0  0
   14.5372  -19.5114   27.8493 O   0  0  0  0  0  0  0  0  0  0  0  0
    9.6999  -20.6978   29.4945 O   0  0  0  0  0  0  0  0  0  0  0  0
   14.1912  -20.6121   25.8981 O   0  0  0  0  0  0  0  0  0  0  0  0
  2  1  1  6
  2  9  1  0
  3  2  1  0
  4  8  1  0
  4  3  1  0
  5  4  2  0
  6  5  1  0
  6  7  1  0
  7  8  2  0
  9 10  2  0
 11  9  1  0
 11 12  1  0
 12 13  1  6
 13 14  1  0
 14 15  2  0
 16 15  1  0
 17 16  1  0
 18 17  2  0
 18 14  1  0
 19 12  1  0
 19 20  2  0
 21 19  1  0
 22 21  1  0
 22 26  1  0
 22 23  1  1
 24 23  1  0
 24 28  1  0
 25 24  2  0
 26 29  1  0
 27 26  2  0
M  END
$$$$
