HHD.pdb
     RDKit          3D

 29 30  0  0  1  0  0  0  0  0999 V2000
   10.3163  -17.3062   16.7756 N   0  0  0  0  0  0  0  0  0  0  0  0
   11.3601  -16.3103   16.9754 C   0  0  1  0  0  0  0  0  0  0  0  0
   11.1420  -15.2114   15.9613 C   0  0  0  0  0  0  0  0  0  0  0  0
   10.5562  -15.8373   14.7465 C   0  0  0  0  0  0  0  0  0  0  0  0
   10.3796  -17.2051   14.5074 C   0  0  0  0  0  0  0  0  0  0  0  0
    9.8215  -17.3784   13.3046 N   0  0  0  0  0  0  0  0  0  0  0  0
    9.6395  -16.1637   12.7752 C   0  0  0  0  0  0  0  0  0  0  0  0
   10.0804  -15.2373   13.6405 N   0  0  0  0  0  0  0  0  0  0  0  0
   11.2996  -15.8096   18.3651 C   0  0  0  0  0  0  0  0  0  0  0  0
   12.1514  -14.9219   18.7075 O   0  0  0  0  0  0  0  0  0  0  0  0
   10.3422  -16.2838   19.2934 N   0  0  0  0  0  0  0  0  0  0  0  0
   10.3515  -15.8276   20.6481 C   0  0  1  0  0  0  0  0  0  0  0  0
    9.0391  -15.2970   21.1532 C   0  0  0  0  0  0  0  0  0  0  0  0
    8.4851  -14.1662   20.3948 C   0  0  0  0  0  0  0  0  0  0  0  0
    9.1238  -13.5555   19.3473 C   0  0  0  0  0  0  0  0  0  0  0  0
    8.3191  -12.5755   18.9108 N   0  0  0  0  0  0  0  0  0  0  0  0
    7.2149  -12.5812   19.6676 C   0  0  0  0  0  0  0  0  0  0  0  0
    7.3172  -13.5568   20.5774 N   0  0  0  0  0  0  0  0  0  0  0  0
   10.8547  -16.8426   21.6003 C   0  0  0  0  0  0  0  0  0  0  0  0
   10.8794  -18.0439   21.2356 O   0  0  0  0  0  0  0  0  0  0  0  0
   11.3073  -16.5367   22.9050 N   0  0  0  0  0  0  0  0  0  0  0  0
   12.5193  -17.0453   23.5184 C   0  0  1  0  0  0  0  0  0  0  0  0
   13.7687  -16.4415   22.9678 C   0  0  0  0  0  0  0  0  0  0  0  0
   15.0137  -16.8591   23.6072 C   0  0  0  0  0  0  0  0  0  0  0  0
   15.3879  -18.0452   23.7517 O   0  0  0  0  0  0  0  0  0  0  0  0
   12.4565  -16.6914   24.9603 C   0  0  0  0  0  0  0  0  0  0  0  0
   11.6139  -15.8591   25.3387 O   0  0  0  0  0  0  0  0  0  0  0  0
   15.8664  -15.8773   24.1019 O   0  0  0  0  0  0  0  0  0  0  0  0
   13.3102  -17.2707   25.8568 O   0  0  0  0  0  0  0  0  0  0  0  0
  2  1  1  1
  2  9  1  0
  3  2  1  0
  4  8  1  0
  4  3  1  0
  5  4  2  0
  6  5  1  0
  6  7  1  0
  7  8  2  0
  9 10  2  0
 11  9  1  0
 11 12  1  0
 12 13  1  1
 13 14  1  0
 14 15  2  0
 16 15  1  0
 17 16  1  0
 18 17  2  0
 18 14  1  0
 19 12  1  0
 19 20  2  0
 21 19  1  0
 22 21  1  0
 22 26  1  0
 22 23  1  6
 24 23  1  0
 24 28  1  0
 25 24  2  0
 26 29  1  0
 27 26  2  0
M  END
$$$$
