HHD.pdb
     RDKit          3D

 29 30  0  0  1  0  0  0  0  0999 V2000
    8.1624  -12.7576   16.7485 N   0  0  0  0  0  0  0  0  0  0  0  0
    8.7210  -14.0958   16.8850 C   0  0  1  0  0  0  0  0  0  0  0  0
    9.4087  -14.4379   15.5837 C   0  0  0  0  0  0  0  0  0  0  0  0
    8.3487  -14.6454   14.5619 C   0  0  0  0  0  0  0  0  0  0  0  0
    7.7656  -15.8625   14.1905 C   0  0  0  0  0  0  0  0  0  0  0  0
    6.8503  -15.6460   13.2398 N   0  0  0  0  0  0  0  0  0  0  0  0
    6.8360  -14.3307   12.9980 C   0  0  0  0  0  0  0  0  0  0  0  0
    7.7356  -13.7286   13.7915 N   0  0  0  0  0  0  0  0  0  0  0  0
    9.6512  -14.1234   18.0339 C   0  0  0  0  0  0  0  0  0  0  0  0
   10.3951  -13.1010   18.2122 O   0  0  0  0  0  0  0  0  0  0  0  0
    9.7278  -15.2309   18.9119 N   0  0  0  0  0  0  0  0  0  0  0  0
   10.7104  -15.2725   19.9493 C   0  0  1  0  0  0  0  0  0  0  0  0
   10.3904  -16.1889   21.0968 C   0  0  0  0  0  0  0  0  0  0  0  0
   11.4750  -16.3779   22.0709 C   0  0  0  0  0  0  0  0  0  0  0  0
   12.2182  -17.5239   22.1826 C   0  0  0  0  0  0  0  0  0  0  0  0
   13.1035  -17.3263   23.1702 N   0  0  0  0  0  0  0  0  0  0  0  0
   12.9122  -16.0930   23.6545 C   0  0  0  0  0  0  0  0  0  0  0  0
   11.9135  -15.5119   22.9801 N   0  0  0  0  0  0  0  0  0  0  0  0
   12.0685  -15.5862   19.4518 C   0  0  0  0  0  0  0  0  0  0  0  0
   12.1883  -16.4408   18.5397 O   0  0  0  0  0  0  0  0  0  0  0  0
   13.2450  -14.9790   19.9499 N   0  0  0  0  0  0  0  0  0  0  0  0
   14.5753  -15.1353   19.3937 C   0  0  1  0  0  0  0  0  0  0  0  0
   15.0947  -13.9046   18.7271 C   0  0  0  0  0  0  0  0  0  0  0  0
   16.4230  -14.0156   18.1297 C   0  0  0  0  0  0  0  0  0  0  0  0
   17.1313  -15.0480   18.1327 O   0  0  0  0  0  0  0  0  0  0  0  0
   15.4859  -15.4406   20.5277 C   0  0  0  0  0  0  0  0  0  0  0  0
   15.1539  -15.0947   21.6748 O   0  0  0  0  0  0  0  0  0  0  0  0
   16.9629  -12.8973   17.5023 O   0  0  0  0  0  0  0  0  0  0  0  0
   16.6691  -16.0908   20.3145 O   0  0  0  0  0  0  0  0  0  0  0  0
  2  1  1  6
  2  9  1  0
  3  2  1  0
  4  8  1  0
  4  3  1  0
  5  4  2  0
  6  5  1  0
  6  7  1  0
  7  8  2  0
  9 10  2  0
 11  9  1  0
 11 12  1  0
 12 13  1  1
 13 14  1  0
 14 15  2  0
 16 15  1  0
 17 16  1  0
 18 17  2  0
 18 14  1  0
 19 12  1  0
 19 20  2  0
 21 19  1  0
 22 21  1  0
 22 26  1  0
 22 23  1  1
 24 23  1  0
 24 28  1  0
 25 24  2  0
 26 29  1  0
 27 26  2  0
M  END
$$$$
