HHD.pdb
     RDKit          3D

 29 30  0  0  1  0  0  0  0  0999 V2000
   13.0778  -13.8860   16.6837 N   0  0  0  0  0  0  0  0  0  0  0  0
   12.3885  -15.0821   17.1482 C   0  0  1  0  0  0  0  0  0  0  0  0
   13.3035  -16.2596   16.9040 C   0  0  0  0  0  0  0  0  0  0  0  0
   13.3776  -16.4676   15.4337 C   0  0  0  0  0  0  0  0  0  0  0  0
   12.7746  -15.6847   14.4423 C   0  0  0  0  0  0  0  0  0  0  0  0
   13.0694  -16.1863   13.2382 N   0  0  0  0  0  0  0  0  0  0  0  0
   13.8398  -17.2616   13.4364 C   0  0  0  0  0  0  0  0  0  0  0  0
   14.0255  -17.4315   14.7548 N   0  0  0  0  0  0  0  0  0  0  0  0
   12.0465  -14.9260   18.5781 C   0  0  0  0  0  0  0  0  0  0  0  0
   12.7672  -14.1320   19.2714 O   0  0  0  0  0  0  0  0  0  0  0  0
   10.9662  -15.6213   19.1722 N   0  0  0  0  0  0  0  0  0  0  0  0
   10.6528  -15.4375   20.5548 C   0  0  1  0  0  0  0  0  0  0  0  0
    9.2008  -15.1898   20.8539 C   0  0  0  0  0  0  0  0  0  0  0  0
    8.6200  -14.0038   20.2081 C   0  0  0  0  0  0  0  0  0  0  0  0
    7.8839  -14.0396   19.0527 C   0  0  0  0  0  0  0  0  0  0  0  0
    7.5268  -12.7778   18.7722 N   0  0  0  0  0  0  0  0  0  0  0  0
    8.0285  -11.9855   19.7276 C   0  0  0  0  0  0  0  0  0  0  0  0
    8.6987  -12.7378   20.6078 N   0  0  0  0  0  0  0  0  0  0  0  0
   11.1355  -16.5427   21.4125 C   0  0  0  0  0  0  0  0  0  0  0  0
   10.9023  -17.7232   21.0538 O   0  0  0  0  0  0  0  0  0  0  0  0
   11.8437  -16.3447   22.6208 N   0  0  0  0  0  0  0  0  0  0  0  0
   12.3074  -17.3939   23.5084 C   0  0  1  0  0  0  0  0  0  0  0  0
   13.7899  -17.5697   23.5057 C   0  0  0  0  0  0  0  0  0  0  0  0
   14.5770  -16.3422   23.4200 C   0  0  0  0  0  0  0  0  0  0  0  0
   14.1089  -15.1814   23.4526 O   0  0  0  0  0  0  0  0  0  0  0  0
   11.9120  -17.0019   24.8862 C   0  0  0  0  0  0  0  0  0  0  0  0
   11.4063  -15.8811   25.0703 O   0  0  0  0  0  0  0  0  0  0  0  0
   15.9583  -16.4485   23.2915 O   0  0  0  0  0  0  0  0  0  0  0  0
   12.1008  -17.8583   25.9347 O   0  0  0  0  0  0  0  0  0  0  0  0
  2  1  1  1
  2  9  1  0
  3  2  1  0
  4  8  1  0
  4  3  1  0
  5  4  2  0
  6  5  1  0
  6  7  1  0
  7  8  2  0
  9 10  2  0
 11  9  1  0
 11 12  1  0
 12 13  1  6
 13 14  1  0
 14 15  2  0
 16 15  1  0
 17 16  1  0
 18 17  2  0
 18 14  1  0
 19 12  1  0
 19 20  2  0
 21 19  1  0
 22 21  1  0
 22 26  1  0
 22 23  1  1
 24 23  1  0
 24 28  1  0
 25 24  2  0
 26 29  1  0
 27 26  2  0
M  END
$$$$
