CVG.pdb
     RDKit          3D

 18 17  0  0  1  0  0  0  0  0999 V2000
    5.8603  -17.8247   23.3353 N   0  0  0  0  0  0  0  0  0  0  0  0
    5.8619  -17.1556   24.5931 C   0  0  1  0  0  0  0  0  0  0  0  0
    6.1539  -18.0681   25.7636 C   0  0  0  0  0  0  0  0  0  0  0  0
    7.7797  -18.8670   25.5774 S   0  0  0  0  0  0  0  0  0  0  0  0
    6.7887  -16.0098   24.6592 C   0  0  0  0  0  0  0  0  0  0  0  0
    7.7455  -15.9950   23.8347 O   0  0  0  0  0  0  0  0  0  0  0  0
    6.0522  -12.1438   25.5125 C   0  0  0  0  0  0  0  0  0  0  0  0
    7.1905  -12.6853   26.3526 C   0  0  1  0  0  0  0  0  0  0  0  0
    6.5738  -13.1328   27.6795 C   0  0  0  0  0  0  0  0  0  0  0  0
    7.7077  -13.9292   25.6734 C   0  0  2  0  0  0  0  0  0  0  0  0
    6.6613  -14.9384   25.5895 N   0  0  0  0  0  0  0  0  0  0  0  0
    8.8986  -14.4909   26.3401 C   0  0  0  0  0  0  0  0  0  0  0  0
    8.8947  -14.5902   27.6002 O   0  0  0  0  0  0  0  0  0  0  0  0
   10.0067  -14.9023   25.5732 N   0  0  0  0  0  0  0  0  0  0  0  0
   11.2116  -15.4071   26.1711 C   0  0  0  0  0  0  0  0  0  0  0  0
   12.2366  -15.7815   25.1635 C   0  0  0  0  0  0  0  0  0  0  0  0
   13.4751  -16.2846   25.4618 O   0  0  0  0  0  0  0  0  0  0  0  0
   11.9301  -15.6190   23.9539 O   0  0  0  0  0  0  0  0  0  0  0  0
  2  1  1  6
  3  2  1  0
  4  3  1  0
  5  2  1  0
  6  5  2  0
  8  7  1  6
  8  9  1  0
  8 10  1  0
 10 12  1  0
 10 11  1  1
 11  5  1  0
 12 14  1  0
 13 12  2  0
 14 15  1  0
 16 15  1  0
 16 17  1  0
 18 16  2  0
M  END
$$$$
