CVG.pdb
     RDKit          3D

 18 17  0  0  1  0  0  0  0  0999 V2000
    8.7770  -14.9072   20.8936 N   0  0  0  0  0  0  0  0  0  0  0  0
    7.6867  -15.1723   21.7716 C   0  0  1  0  0  0  0  0  0  0  0  0
    7.1725  -16.5922   21.6864 C   0  0  0  0  0  0  0  0  0  0  0  0
    6.2803  -16.8696   20.1233 S   0  0  0  0  0  0  0  0  0  0  0  0
    7.9719  -14.8694   23.1869 C   0  0  0  0  0  0  0  0  0  0  0  0
    9.1544  -15.0582   23.5890 O   0  0  0  0  0  0  0  0  0  0  0  0
    7.0517  -12.7836   27.4883 C   0  0  0  0  0  0  0  0  0  0  0  0
    6.5082  -13.0784   26.1053 C   0  0  1  0  0  0  0  0  0  0  0  0
    6.7318  -11.8134   25.2741 C   0  0  0  0  0  0  0  0  0  0  0  0
    7.3705  -14.1558   25.4958 C   0  0  2  0  0  0  0  0  0  0  0  0
    6.9985  -14.3833   24.1065 N   0  0  0  0  0  0  0  0  0  0  0  0
    7.3158  -15.4247   26.2475 C   0  0  0  0  0  0  0  0  0  0  0  0
    6.1961  -15.9937   26.3911 O   0  0  0  0  0  0  0  0  0  0  0  0
    8.4953  -15.9756   26.7863 N   0  0  0  0  0  0  0  0  0  0  0  0
    8.4942  -17.1794   27.5705 C   0  0  0  0  0  0  0  0  0  0  0  0
    9.8399  -17.5184   28.0998 C   0  0  0  0  0  0  0  0  0  0  0  0
   10.0974  -18.5358   28.9799 O   0  0  0  0  0  0  0  0  0  0  0  0
   10.8017  -16.8112   27.7018 O   0  0  0  0  0  0  0  0  0  0  0  0
  2  1  1  6
  3  2  1  0
  4  3  1  0
  5  2  1  0
  6  5  2  0
  8  7  1  1
  8  9  1  0
  8 10  1  0
 10 12  1  0
 10 11  1  6
 11  5  1  0
 12 14  1  0
 13 12  2  0
 14 15  1  0
 16 15  1  0
 16 17  1  0
 18 16  2  0
M  END
$$$$
