CVG.pdb
     RDKit          3D

 18 17  0  0  1  0  0  0  0  0999 V2000
    6.3407  -17.0336   22.2184 N   0  0  0  0  0  0  0  0  0  0  0  0
    6.2347  -16.9499   23.6367 C   0  0  1  0  0  0  0  0  0  0  0  0
    6.3238  -18.2910   24.3305 C   0  0  0  0  0  0  0  0  0  0  0  0
    4.8020  -19.2585   24.0766 S   0  0  0  0  0  0  0  0  0  0  0  0
    7.2196  -16.0436   24.2570 C   0  0  0  0  0  0  0  0  0  0  0  0
    8.3953  -16.0684   23.7956 O   0  0  0  0  0  0  0  0  0  0  0  0
    6.9149  -12.3536   24.7607 C   0  0  0  0  0  0  0  0  0  0  0  0
    7.3979  -12.8929   26.0914 C   0  0  1  0  0  0  0  0  0  0  0  0
    6.1538  -13.0649   26.9654 C   0  0  0  0  0  0  0  0  0  0  0  0
    7.9525  -14.2749   25.8498 C   0  0  2  0  0  0  0  0  0  0  0  0
    6.9172  -15.1577   25.3310 N   0  0  0  0  0  0  0  0  0  0  0  0
    8.5610  -14.8655   27.0577 C   0  0  0  0  0  0  0  0  0  0  0  0
    7.9080  -14.8342   28.1397 O   0  0  0  0  0  0  0  0  0  0  0  0
    9.8424  -15.4471   26.9884 N   0  0  0  0  0  0  0  0  0  0  0  0
   10.5095  -15.9792   28.1442 C   0  0  0  0  0  0  0  0  0  0  0  0
   11.8524  -16.5287   27.8269 C   0  0  0  0  0  0  0  0  0  0  0  0
   12.4214  -16.5251   26.5809 O   0  0  0  0  0  0  0  0  0  0  0  0
   12.5013  -17.0299   28.7816 O   0  0  0  0  0  0  0  0  0  0  0  0
  2  1  1  6
  3  2  1  0
  4  3  1  0
  5  2  1  0
  6  5  2  0
  8  7  1  6
  8  9  1  0
  8 10  1  0
 10 12  1  0
 10 11  1  1
 11  5  1  0
 12 14  1  0
 13 12  2  0
 14 15  1  0
 16 15  1  0
 16 17  1  0
 18 16  2  0
M  END
$$$$
