CVG.pdb
     RDKit          3D

 18 17  0  0  1  0  0  0  0  0999 V2000
    5.1010  -17.0009   21.5074 N   0  0  0  0  0  0  0  0  0  0  0  0
    5.6355  -17.1792   22.8159 C   0  0  1  0  0  0  0  0  0  0  0  0
    6.1570  -18.5759   23.0715 C   0  0  0  0  0  0  0  0  0  0  0  0
    5.0691  -19.4778   24.2200 S   0  0  0  0  0  0  0  0  0  0  0  0
    6.7003  -16.2189   23.1625 C   0  0  0  0  0  0  0  0  0  0  0  0
    7.6282  -16.0595   22.3203 O   0  0  0  0  0  0  0  0  0  0  0  0
    6.3619  -12.7322   24.9589 C   0  0  0  0  0  0  0  0  0  0  0  0
    7.4846  -13.5125   25.6112 C   0  0  1  0  0  0  0  0  0  0  0  0
    6.8840  -14.1808   26.8497 C   0  0  0  0  0  0  0  0  0  0  0  0
    7.8779  -14.6221   24.6677 C   0  0  2  0  0  0  0  0  0  0  0  0
    6.7343  -15.4755   24.3773 N   0  0  0  0  0  0  0  0  0  0  0  0
    8.9984  -15.4356   25.1780 C   0  0  0  0  0  0  0  0  0  0  0  0
    8.8005  -16.1706   26.1872 O   0  0  0  0  0  0  0  0  0  0  0  0
   10.2546  -15.3821   24.5421 N   0  0  0  0  0  0  0  0  0  0  0  0
   11.3924  -16.1159   25.0227 C   0  0  0  0  0  0  0  0  0  0  0  0
   12.5642  -16.0125   24.1159 C   0  0  0  0  0  0  0  0  0  0  0  0
   12.4900  -15.7490   22.7738 O   0  0  0  0  0  0  0  0  0  0  0  0
   13.6991  -16.1815   24.6326 O   0  0  0  0  0  0  0  0  0  0  0  0
  2  1  1  6
  3  2  1  0
  4  3  1  0
  5  2  1  0
  6  5  2  0
  8  7  1  6
  8  9  1  0
  8 10  1  0
 10 12  1  0
 10 11  1  1
 11  5  1  0
 12 14  1  0
 13 12  2  0
 14 15  1  0
 16 15  1  0
 16 17  1  0
 18 16  2  0
M  END
$$$$
