CVG.pdb
     RDKit          3D

 18 17  0  0  1  0  0  0  0  0999 V2000
    5.8871  -19.0679   25.9033 N   0  0  0  0  0  0  0  0  0  0  0  0
    6.6017  -18.0228   26.5566 C   0  0  1  0  0  0  0  0  0  0  0  0
    7.8292  -18.5015   27.2997 C   0  0  0  0  0  0  0  0  0  0  0  0
    7.5027  -18.6237   29.0870 S   0  0  0  0  0  0  0  0  0  0  0  0
    7.0053  -16.9234   25.6597 C   0  0  0  0  0  0  0  0  0  0  0  0
    7.3443  -17.2351   24.4834 O   0  0  0  0  0  0  0  0  0  0  0  0
    5.8142  -13.2193   25.9225 C   0  0  0  0  0  0  0  0  0  0  0  0
    7.2859  -13.1769   25.5656 C   0  0  1  0  0  0  0  0  0  0  0  0
    8.0322  -12.8134   26.8509 C   0  0  0  0  0  0  0  0  0  0  0  0
    7.7079  -14.5786   25.2008 C   0  0  2  0  0  0  0  0  0  0  0  0
    7.0316  -15.5524   26.0461 N   0  0  0  0  0  0  0  0  0  0  0  0
    9.1689  -14.7731   25.2758 C   0  0  0  0  0  0  0  0  0  0  0  0
    9.7368  -14.6559   26.3990 O   0  0  0  0  0  0  0  0  0  0  0  0
    9.8990  -15.0823   24.1111 N   0  0  0  0  0  0  0  0  0  0  0  0
   11.3190  -15.3004   24.1281 C   0  0  0  0  0  0  0  0  0  0  0  0
   11.8734  -15.5633   22.7756 C   0  0  0  0  0  0  0  0  0  0  0  0
   13.2058  -15.5299   22.4596 O   0  0  0  0  0  0  0  0  0  0  0  0
   11.0474  -15.8347   21.8658 O   0  0  0  0  0  0  0  0  0  0  0  0
  2  1  1  6
  3  2  1  0
  4  3  1  0
  5  2  1  0
  6  5  2  0
  8  7  1  1
  8  9  1  0
  8 10  1  0
 10 12  1  0
 10 11  1  1
 11  5  1  0
 12 14  1  0
 13 12  2  0
 14 15  1  0
 16 15  1  0
 16 17  1  0
 18 16  2  0
M  END
$$$$
