CVG.pdb
     RDKit          3D

 18 17  0  0  1  0  0  0  0  0999 V2000
    6.1010  -19.1099   25.1941 N   0  0  0  0  0  0  0  0  0  0  0  0
    6.2628  -18.0634   26.1472 C   0  0  1  0  0  0  0  0  0  0  0  0
    7.1834  -18.4242   27.2919 C   0  0  0  0  0  0  0  0  0  0  0  0
    8.9011  -18.6044   26.7148 S   0  0  0  0  0  0  0  0  0  0  0  0
    6.7289  -16.7910   25.5642 C   0  0  0  0  0  0  0  0  0  0  0  0
    7.0498  -16.8010   24.3425 O   0  0  0  0  0  0  0  0  0  0  0  0
    7.7067  -11.9872   25.6696 C   0  0  0  0  0  0  0  0  0  0  0  0
    7.0850  -13.1522   26.4120 C   0  0  1  0  0  0  0  0  0  0  0  0
    5.5698  -13.0005   26.2638 C   0  0  0  0  0  0  0  0  0  0  0  0
    7.4678  -14.4157   25.6817 C   0  0  2  0  0  0  0  0  0  0  0  0
    6.8335  -15.5734   26.2963 N   0  0  0  0  0  0  0  0  0  0  0  0
    8.9283  -14.6165   25.6144 C   0  0  0  0  0  0  0  0  0  0  0  0
    9.6195  -14.3720   26.6442 O   0  0  0  0  0  0  0  0  0  0  0  0
    9.5225  -15.0713   24.4206 N   0  0  0  0  0  0  0  0  0  0  0  0
   10.9411  -15.2562   24.2888 C   0  0  0  0  0  0  0  0  0  0  0  0
   11.3355  -15.7044   22.9288 C   0  0  0  0  0  0  0  0  0  0  0  0
   12.1442  -14.9972   22.0792 O   0  0  0  0  0  0  0  0  0  0  0  0
   10.8864  -16.8153   22.5442 O   0  0  0  0  0  0  0  0  0  0  0  0
  2  1  1  6
  3  2  1  0
  4  3  1  0
  5  2  1  0
  6  5  2  0
  8  7  1  6
  8  9  1  0
  8 10  1  0
 10 12  1  0
 10 11  1  1
 11  5  1  0
 12 14  1  0
 13 12  2  0
 14 15  1  0
 16 15  1  0
 16 17  1  0
 18 16  2  0
M  END
$$$$
