CVG.pdb
     RDKit          3D

 18 17  0  0  1  0  0  0  0  0999 V2000
    4.9398  -13.1098   26.1936 N   0  0  0  0  0  0  0  0  0  0  0  0
    6.3136  -12.8870   25.8889 C   0  0  1  0  0  0  0  0  0  0  0  0
    7.1612  -12.5813   27.1038 C   0  0  0  0  0  0  0  0  0  0  0  0
    8.2686  -11.1707   26.7877 S   0  0  0  0  0  0  0  0  0  0  0  0
    6.9490  -13.9947   25.1503 C   0  0  0  0  0  0  0  0  0  0  0  0
    6.7867  -15.1604   25.6091 O   0  0  0  0  0  0  0  0  0  0  0  0
    8.7119  -16.0348   21.1226 C   0  0  0  0  0  0  0  0  0  0  0  0
    8.3567  -14.7247   21.7951 C   0  0  1  0  0  0  0  0  0  0  0  0
    6.9484  -14.3622   21.3191 C   0  0  0  0  0  0  0  0  0  0  0  0
    8.2597  -14.9843   23.2781 C   0  0  2  0  0  0  0  0  0  0  0  0
    7.7226  -13.8192   23.9669 N   0  0  0  0  0  0  0  0  0  0  0  0
    9.5519  -15.3729   23.8758 C   0  0  0  0  0  0  0  0  0  0  0  0
   10.4417  -14.4866   24.0193 O   0  0  0  0  0  0  0  0  0  0  0  0
    9.7718  -16.7070   24.2720 N   0  0  0  0  0  0  0  0  0  0  0  0
   11.0103  -17.1422   24.8558 C   0  0  0  0  0  0  0  0  0  0  0  0
   12.0092  -17.5543   23.8368 C   0  0  0  0  0  0  0  0  0  0  0  0
   13.2547  -18.0482   24.1217 O   0  0  0  0  0  0  0  0  0  0  0  0
   11.6723  -17.4352   22.6302 O   0  0  0  0  0  0  0  0  0  0  0  0
  2  1  1  1
  3  2  1  0
  4  3  1  0
  5  2  1  0
  6  5  2  0
  8  7  1  6
  8  9  1  0
  8 10  1  0
 10 12  1  0
 10 11  1  1
 11  5  1  0
 12 14  1  0
 13 12  2  0
 14 15  1  0
 16 15  1  0
 16 17  1  0
 18 16  2  0
M  END
$$$$
