CVG.pdb
     RDKit          3D

 18 17  0  0  1  0  0  0  0  0999 V2000
    8.0706  -13.6251   20.3778 N   0  0  0  0  0  0  0  0  0  0  0  0
    7.2643  -14.3067   21.3344 C   0  0  1  0  0  0  0  0  0  0  0  0
    7.1052  -15.7836   21.0494 C   0  0  0  0  0  0  0  0  0  0  0  0
    6.0772  -16.5857   22.3207 S   0  0  0  0  0  0  0  0  0  0  0  0
    7.7296  -14.1531   22.7259 C   0  0  0  0  0  0  0  0  0  0  0  0
    8.9740  -14.2300   22.9285 O   0  0  0  0  0  0  0  0  0  0  0  0
    7.2590  -12.6264   27.3197 C   0  0  0  0  0  0  0  0  0  0  0  0
    6.5524  -12.8545   25.9992 C   0  0  1  0  0  0  0  0  0  0  0  0
    6.5200  -11.5009   25.2867 C   0  0  0  0  0  0  0  0  0  0  0  0
    7.4232  -13.7622   25.1662 C   0  0  2  0  0  0  0  0  0  0  0  0
    6.8618  -13.9265   23.8327 N   0  0  0  0  0  0  0  0  0  0  0  0
    7.6347  -15.0823   25.7912 C   0  0  0  0  0  0  0  0  0  0  0  0
    6.6229  -15.7828   26.0801 O   0  0  0  0  0  0  0  0  0  0  0  0
    8.9426  -15.5362   26.0531 N   0  0  0  0  0  0  0  0  0  0  0  0
    9.2087  -16.8223   26.6355 C   0  0  0  0  0  0  0  0  0  0  0  0
   10.6601  -17.0757   26.8235 C   0  0  0  0  0  0  0  0  0  0  0  0
   11.2500  -17.3738   28.0232 O   0  0  0  0  0  0  0  0  0  0  0  0
   11.3862  -17.0079   25.7980 O   0  0  0  0  0  0  0  0  0  0  0  0
  2  1  1  6
  3  2  1  0
  4  3  1  0
  5  2  1  0
  6  5  2  0
  8  7  1  1
  8  9  1  0
  8 10  1  0
 10 12  1  0
 10 11  1  6
 11  5  1  0
 12 14  1  0
 13 12  2  0
 14 15  1  0
 16 15  1  0
 16 17  1  0
 18 16  2  0
M  END
$$$$
