CVG.pdb
     RDKit          3D

 18 17  0  0  1  0  0  0  0  0999 V2000
    7.0644  -16.1945   21.9090 N   0  0  0  0  0  0  0  0  0  0  0  0
    6.7074  -16.2461   23.2873 C   0  0  1  0  0  0  0  0  0  0  0  0
    6.7076  -17.6459   23.8605 C   0  0  0  0  0  0  0  0  0  0  0  0
    6.1044  -17.6465   25.5788 S   0  0  0  0  0  0  0  0  0  0  0  0
    7.5431  -15.3931   24.1534 C   0  0  0  0  0  0  0  0  0  0  0  0
    8.7941  -15.4586   23.9913 O   0  0  0  0  0  0  0  0  0  0  0  0
    6.9986  -11.6974   24.9618 C   0  0  0  0  0  0  0  0  0  0  0  0
    7.3228  -12.3774   26.2761 C   0  0  1  0  0  0  0  0  0  0  0  0
    5.9833  -12.6530   26.9624 C   0  0  0  0  0  0  0  0  0  0  0  0
    7.9312  -13.7207   25.9574 C   0  0  2  0  0  0  0  0  0  0  0  0
    7.0198  -14.5149   25.1456 N   0  0  0  0  0  0  0  0  0  0  0  0
    8.3177  -14.4740   27.1662 C   0  0  0  0  0  0  0  0  0  0  0  0
    7.4790  -14.5793   28.1060 O   0  0  0  0  0  0  0  0  0  0  0  0
    9.5977  -15.0565   27.2538 N   0  0  0  0  0  0  0  0  0  0  0  0
   10.0480  -15.7518   28.4276 C   0  0  0  0  0  0  0  0  0  0  0  0
   11.4155  -16.3101   28.2721 C   0  0  0  0  0  0  0  0  0  0  0  0
   12.0965  -16.9872   29.2489 O   0  0  0  0  0  0  0  0  0  0  0  0
   11.9750  -16.1409   27.1577 O   0  0  0  0  0  0  0  0  0  0  0  0
  2  1  1  6
  3  2  1  0
  4  3  1  0
  5  2  1  0
  6  5  2  0
  8  7  1  6
  8  9  1  0
  8 10  1  0
 10 12  1  0
 10 11  1  1
 11  5  1  0
 12 14  1  0
 13 12  2  0
 14 15  1  0
 16 15  1  0
 16 17  1  0
 18 16  2  0
M  END
$$$$
