CVG.pdb
     RDKit          3D

 18 17  0  0  1  0  0  0  0  0999 V2000
    6.1072  -16.8576   22.1433 N   0  0  0  0  0  0  0  0  0  0  0  0
    6.2974  -16.9248   23.5536 C   0  0  1  0  0  0  0  0  0  0  0  0
    6.9749  -18.1968   24.0130 C   0  0  0  0  0  0  0  0  0  0  0  0
    7.1294  -18.2344   25.8271 S   0  0  0  0  0  0  0  0  0  0  0  0
    7.0406  -15.7792   24.1116 C   0  0  0  0  0  0  0  0  0  0  0  0
    8.1007  -15.4359   23.5167 O   0  0  0  0  0  0  0  0  0  0  0  0
    7.7223  -12.0467   27.2132 C   0  0  0  0  0  0  0  0  0  0  0  0
    6.7328  -13.0174   26.6020 C   0  0  1  0  0  0  0  0  0  0  0  0
    5.9377  -12.2263   25.5612 C   0  0  0  0  0  0  0  0  0  0  0  0
    7.5214  -14.0579   25.8460 C   0  0  2  0  0  0  0  0  0  0  0  0
    6.6305  -15.0535   25.2669 N   0  0  0  0  0  0  0  0  0  0  0  0
    8.5425  -14.7192   26.6814 C   0  0  0  0  0  0  0  0  0  0  0  0
    8.2012  -15.1616   27.8153 O   0  0  0  0  0  0  0  0  0  0  0  0
    9.8642  -14.8461   26.2098 N   0  0  0  0  0  0  0  0  0  0  0  0
   10.9061  -15.4504   26.9930 C   0  0  0  0  0  0  0  0  0  0  0  0
   10.8750  -16.9343   26.9384 C   0  0  0  0  0  0  0  0  0  0  0  0
   11.5953  -17.6969   26.0577 O   0  0  0  0  0  0  0  0  0  0  0  0
   10.1288  -17.5178   27.7668 O   0  0  0  0  0  0  0  0  0  0  0  0
  2  1  1  6
  3  2  1  0
  4  3  1  0
  5  2  1  0
  6  5  2  0
  8  7  1  6
  8  9  1  0
  8 10  1  0
 10 12  1  0
 10 11  1  1
 11  5  1  0
 12 14  1  0
 13 12  2  0
 14 15  1  0
 16 15  1  0
 16 17  1  0
 18 16  2  0
M  END
$$$$
