CVG.pdb
     RDKit          3D

 18 17  0  0  1  0  0  0  0  0999 V2000
    7.0997  -16.9771   22.3858 N   0  0  0  0  0  0  0  0  0  0  0  0
    6.8507  -16.9271   23.7876 C   0  0  1  0  0  0  0  0  0  0  0  0
    7.2957  -18.1700   24.5260 C   0  0  0  0  0  0  0  0  0  0  0  0
    6.8989  -18.0517   26.2994 S   0  0  0  0  0  0  0  0  0  0  0  0
    7.4442  -15.7550   24.4585 C   0  0  0  0  0  0  0  0  0  0  0  0
    8.6441  -15.4772   24.1776 O   0  0  0  0  0  0  0  0  0  0  0  0
    7.2347  -11.6635   27.1423 C   0  0  0  0  0  0  0  0  0  0  0  0
    6.4684  -12.7264   26.3820 C   0  0  1  0  0  0  0  0  0  0  0  0
    6.0426  -12.0886   25.0580 C   0  0  0  0  0  0  0  0  0  0  0  0
    7.4374  -13.8308   26.0395 C   0  0  2  0  0  0  0  0  0  0  0  0
    6.7450  -14.9353   25.3906 N   0  0  0  0  0  0  0  0  0  0  0  0
    8.1819  -14.3225   27.2150 C   0  0  0  0  0  0  0  0  0  0  0  0
    7.5343  -14.8579   28.1594 O   0  0  0  0  0  0  0  0  0  0  0  0
    9.5837  -14.1900   27.2670 N   0  0  0  0  0  0  0  0  0  0  0  0
   10.3411  -14.4836   28.4519 C   0  0  0  0  0  0  0  0  0  0  0  0
   10.8946  -15.8619   28.4499 C   0  0  0  0  0  0  0  0  0  0  0  0
   10.7525  -16.7571   27.4230 O   0  0  0  0  0  0  0  0  0  0  0  0
   11.5373  -16.2175   29.4717 O   0  0  0  0  0  0  0  0  0  0  0  0
  2  1  1  6
  3  2  1  0
  4  3  1  0
  5  2  1  0
  6  5  2  0
  8  7  1  1
  8  9  1  0
  8 10  1  0
 10 12  1  0
 10 11  1  1
 11  5  1  0
 12 14  1  0
 13 12  2  0
 14 15  1  0
 16 15  1  0
 16 17  1  0
 18 16  2  0
M  END
$$$$
