CVG.pdb
     RDKit          3D

 18 17  0  0  1  0  0  0  0  0999 V2000
    4.7116  -18.1713   19.6778 N   0  0  0  0  0  0  0  0  0  0  0  0
    5.0885  -17.4426   20.8425 C   0  0  1  0  0  0  0  0  0  0  0  0
    5.0023  -18.2523   22.1173 C   0  0  0  0  0  0  0  0  0  0  0  0
    3.3022  -18.2617   22.7697 S   0  0  0  0  0  0  0  0  0  0  0  0
    6.4359  -16.8470   20.7648 C   0  0  0  0  0  0  0  0  0  0  0  0
    7.3740  -17.5951   20.3701 O   0  0  0  0  0  0  0  0  0  0  0  0
    7.2446  -13.2003   19.6706 C   0  0  0  0  0  0  0  0  0  0  0  0
    8.1378  -13.5243   20.8505 C   0  0  1  0  0  0  0  0  0  0  0  0
    7.4753  -12.8980   22.0793 C   0  0  0  0  0  0  0  0  0  0  0  0
    8.1022  -15.0189   21.0533 C   0  0  2  0  0  0  0  0  0  0  0  0
    6.7271  -15.4949   21.1063 N   0  0  0  0  0  0  0  0  0  0  0  0
    8.8324  -15.4490   22.2615 C   0  0  0  0  0  0  0  0  0  0  0  0
    8.1822  -15.6158   23.3326 O   0  0  0  0  0  0  0  0  0  0  0  0
   10.2237  -15.6644   22.2044 N   0  0  0  0  0  0  0  0  0  0  0  0
   10.9822  -16.1012   23.3436 C   0  0  0  0  0  0  0  0  0  0  0  0
   12.4300  -16.2460   23.0453 C   0  0  0  0  0  0  0  0  0  0  0  0
   12.9932  -16.0624   21.8103 O   0  0  0  0  0  0  0  0  0  0  0  0
   13.1794  -16.5602   24.0061 O   0  0  0  0  0  0  0  0  0  0  0  0
  2  1  1  6
  3  2  1  0
  4  3  1  0
  5  2  1  0
  6  5  2  0
  8  7  1  6
  8  9  1  0
  8 10  1  0
 10 12  1  0
 10 11  1  1
 11  5  1  0
 12 14  1  0
 13 12  2  0
 14 15  1  0
 16 15  1  0
 16 17  1  0
 18 16  2  0
M  END
$$$$
