CVG.pdb
     RDKit          3D

 18 17  0  0  1  0  0  0  0  0999 V2000
    8.0187  -14.8856   20.7811 N   0  0  0  0  0  0  0  0  0  0  0  0
    7.0893  -15.2380   21.8018 C   0  0  1  0  0  0  0  0  0  0  0  0
    6.6797  -16.6938   21.7709 C   0  0  0  0  0  0  0  0  0  0  0  0
    5.5159  -17.0146   20.4075 S   0  0  0  0  0  0  0  0  0  0  0  0
    7.5501  -14.9176   23.1661 C   0  0  0  0  0  0  0  0  0  0  0  0
    8.7578  -15.1674   23.4393 O   0  0  0  0  0  0  0  0  0  0  0  0
    7.2507  -12.7288   27.4999 C   0  0  0  0  0  0  0  0  0  0  0  0
    6.5254  -13.0126   26.2006 C   0  0  1  0  0  0  0  0  0  0  0  0
    6.7154  -11.7758   25.3201 C   0  0  0  0  0  0  0  0  0  0  0  0
    7.2445  -14.1478   25.5147 C   0  0  2  0  0  0  0  0  0  0  0  0
    6.7166  -14.3508   24.1729 N   0  0  0  0  0  0  0  0  0  0  0  0
    7.1807  -15.4089   26.2785 C   0  0  0  0  0  0  0  0  0  0  0  0
    6.0487  -15.9300   26.4904 O   0  0  0  0  0  0  0  0  0  0  0  0
    8.3655  -16.0053   26.7537 N   0  0  0  0  0  0  0  0  0  0  0  0
    8.3640  -17.2360   27.4950 C   0  0  0  0  0  0  0  0  0  0  0  0
    9.7193  -17.6231   27.9635 C   0  0  0  0  0  0  0  0  0  0  0  0
    9.9886  -18.7021   28.7630 O   0  0  0  0  0  0  0  0  0  0  0  0
   10.6779  -16.8981   27.5906 O   0  0  0  0  0  0  0  0  0  0  0  0
  2  1  1  6
  3  2  1  0
  4  3  1  0
  5  2  1  0
  6  5  2  0
  8  7  1  1
  8  9  1  0
  8 10  1  0
 10 12  1  0
 10 11  1  6
 11  5  1  0
 12 14  1  0
 13 12  2  0
 14 15  1  0
 16 15  1  0
 16 17  1  0
 18 16  2  0
M  END
$$$$
