CVG.pdb
     RDKit          3D

 18 17  0  0  1  0  0  0  0  0999 V2000
    7.0861  -16.2374   21.3095 N   0  0  0  0  0  0  0  0  0  0  0  0
    6.8230  -16.4231   22.6973 C   0  0  1  0  0  0  0  0  0  0  0  0
    6.9336  -17.8631   23.1469 C   0  0  0  0  0  0  0  0  0  0  0  0
    5.2969  -18.5424   23.5662 S   0  0  0  0  0  0  0  0  0  0  0  0
    7.6680  -15.5979   23.5812 C   0  0  0  0  0  0  0  0  0  0  0  0
    8.9017  -15.5466   23.3147 O   0  0  0  0  0  0  0  0  0  0  0  0
    6.9036  -12.1097   24.9261 C   0  0  0  0  0  0  0  0  0  0  0  0
    7.4497  -12.8945   26.1012 C   0  0  1  0  0  0  0  0  0  0  0  0
    6.2384  -13.3509   26.9169 C   0  0  0  0  0  0  0  0  0  0  0  0
    8.0995  -14.1417   25.5549 C   0  0  2  0  0  0  0  0  0  0  0  0
    7.1717  -14.8690   24.7001 N   0  0  0  0  0  0  0  0  0  0  0  0
    8.6113  -15.0308   26.6159 C   0  0  0  0  0  0  0  0  0  0  0  0
    7.8103  -15.8412   27.1632 O   0  0  0  0  0  0  0  0  0  0  0  0
    9.9659  -14.9643   26.9978 N   0  0  0  0  0  0  0  0  0  0  0  0
   10.5720  -15.9429   27.8576 C   0  0  0  0  0  0  0  0  0  0  0  0
   10.5358  -15.5474   29.2888 C   0  0  0  0  0  0  0  0  0  0  0  0
   11.0676  -16.2835   30.3143 O   0  0  0  0  0  0  0  0  0  0  0  0
    9.9729  -14.4557   29.5625 O   0  0  0  0  0  0  0  0  0  0  0  0
  2  1  1  6
  3  2  1  0
  4  3  1  0
  5  2  1  0
  6  5  2  0
  8  7  1  6
  8  9  1  0
  8 10  1  0
 10 12  1  0
 10 11  1  1
 11  5  1  0
 12 14  1  0
 13 12  2  0
 14 15  1  0
 16 15  1  0
 16 17  1  0
 18 16  2  0
M  END
$$$$
