LHS.pdb
     RDKit          3D

 25 25  0  0  1  0  0  0  0  0999 V2000
   16.6662  -22.5495    4.5472 C   0  0  0  0  0  0  0  0  0  0  0  0
   17.4937  -22.4445    3.2701 C   0  0  2  0  0  0  0  0  0  0  0  0
   18.2892  -23.7191    3.1314 C   0  0  0  0  0  0  0  0  0  0  0  0
   18.3543  -21.2107    3.2787 C   0  0  0  0  0  0  0  0  0  0  0  0
   17.5002  -19.9865    3.4469 C   0  0  2  0  0  0  0  0  0  0  0  0
   16.9048  -19.6153    2.1894 N   0  0  0  0  0  0  0  0  0  0  0  0
   18.2886  -18.8474    3.9563 C   0  0  0  0  0  0  0  0  0  0  0  0
   19.1032  -18.2626    3.2439 O   0  0  0  0  0  0  0  0  0  0  0  0
   18.0938  -18.4244    5.3041 N   0  0  0  0  0  0  0  0  0  0  0  0
   18.7604  -17.3003    5.8772 C   0  0  1  0  0  0  0  0  0  0  0  0
   17.8681  -16.1390    6.0715 C   0  0  0  0  0  0  0  0  0  0  0  0
   17.7459  -15.1825    4.9602 C   0  0  0  0  0  0  0  0  0  0  0  0
   18.3715  -15.1830    3.7506 C   0  0  0  0  0  0  0  0  0  0  0  0
   17.9347  -14.1320    3.0013 N   0  0  0  0  0  0  0  0  0  0  0  0
   17.0417  -13.4857    3.7463 C   0  0  0  0  0  0  0  0  0  0  0  0
   16.9204  -14.1002    4.9128 N   0  0  0  0  0  0  0  0  0  0  0  0
   19.4972  -17.6402    7.1233 C   0  0  0  0  0  0  0  0  0  0  0  0
   19.0482  -18.4914    7.9319 O   0  0  0  0  0  0  0  0  0  0  0  0
   23.6865  -17.2562    9.5510 O   0  0  0  0  0  0  0  0  0  0  0  0
   22.9046  -17.0109    8.4460 C   0  0  0  0  0  0  0  0  0  0  0  0
   21.4227  -17.3022    8.7124 C   0  0  2  0  0  0  0  0  0  0  0  0
   20.7342  -17.0302    7.4661 N   0  0  0  0  0  0  0  0  0  0  0  0
   20.9739  -16.4297    9.8048 C   0  0  0  0  0  0  0  0  0  0  0  0
   20.6353  -15.1176    9.5272 O   0  0  0  0  0  0  0  0  0  0  0  0
   20.8821  -16.8226   10.9914 O   0  0  0  0  0  0  0  0  0  0  0  0
  2  1  1  1
  3  2  1  0
  4  5  1  0
  4  2  1  0
  5  6  1  6
  7  5  1  0
  7  8  2  0
  9  7  1  0
 10  9  1  0
 10 11  1  1
 12 16  1  0
 12 11  1  0
 13 12  2  0
 14 13  1  0
 14 15  1  0
 15 16  2  0
 17 10  1  0
 18 17  2  0
 20 19  1  0
 21 22  1  0
 21 20  1  6
 22 17  1  0
 23 21  1  0
 24 23  1  0
 25 23  2  0
M  END
$$$$
