LHS.pdb
     RDKit          3D

 25 25  0  0  1  0  0  0  0  0999 V2000
   16.6538  -13.3045  -16.4285 C   0  0  0  0  0  0  0  0  0  0  0  0
   18.1589  -13.5402  -16.3524 C   0  0  2  0  0  0  0  0  0  0  0  0
   18.3841  -14.8455  -15.6299 C   0  0  0  0  0  0  0  0  0  0  0  0
   18.8598  -12.3784  -15.7026 C   0  0  0  0  0  0  0  0  0  0  0  0
   18.5516  -11.1091  -16.4443 C   0  0  2  0  0  0  0  0  0  0  0  0
   18.9402  -11.2298  -17.8257 N   0  0  0  0  0  0  0  0  0  0  0  0
   19.2549   -9.9554  -15.8499 C   0  0  0  0  0  0  0  0  0  0  0  0
   19.1559   -9.6925  -14.6524 O   0  0  0  0  0  0  0  0  0  0  0  0
   20.0633   -9.1353  -16.6909 N   0  0  0  0  0  0  0  0  0  0  0  0
   20.8244   -8.0284  -16.2093 C   0  0  1  0  0  0  0  0  0  0  0  0
   22.2690   -8.1562  -16.4917 C   0  0  0  0  0  0  0  0  0  0  0  0
   22.9974   -9.2478  -15.8263 C   0  0  0  0  0  0  0  0  0  0  0  0
   22.5551  -10.1347  -14.8924 C   0  0  0  0  0  0  0  0  0  0  0  0
   23.5500  -11.0100  -14.5751 N   0  0  0  0  0  0  0  0  0  0  0  0
   24.6027  -10.6645  -15.3118 C   0  0  0  0  0  0  0  0  0  0  0  0
   24.2869   -9.6186  -16.0598 N   0  0  0  0  0  0  0  0  0  0  0  0
   20.2901   -6.7183  -16.6666 C   0  0  0  0  0  0  0  0  0  0  0  0
   20.1123   -6.4798  -17.8879 O   0  0  0  0  0  0  0  0  0  0  0  0
   17.7842   -4.6544  -14.4699 O   0  0  0  0  0  0  0  0  0  0  0  0
   17.9668   -4.3651  -15.8024 C   0  0  0  0  0  0  0  0  0  0  0  0
   19.4477   -4.3903  -16.1999 C   0  0  2  0  0  0  0  0  0  0  0  0
   19.9548   -5.6755  -15.7612 N   0  0  0  0  0  0  0  0  0  0  0  0
   20.1188   -3.2650  -15.5371 C   0  0  0  0  0  0  0  0  0  0  0  0
   19.8052   -1.9721  -15.9158 O   0  0  0  0  0  0  0  0  0  0  0  0
   20.9727   -3.4226  -14.6333 O   0  0  0  0  0  0  0  0  0  0  0  0
  2  1  1  1
  3  2  1  0
  4  5  1  0
  4  2  1  0
  5  6  1  6
  7  5  1  0
  7  8  2  0
  9  7  1  0
 10  9  1  0
 10 11  1  6
 12 16  1  0
 12 11  1  0
 13 12  2  0
 14 13  1  0
 14 15  1  0
 15 16  2  0
 17 10  1  0
 18 17  2  0
 20 19  1  0
 21 22  1  0
 21 20  1  1
 22 17  1  0
 23 21  1  0
 24 23  1  0
 25 23  2  0
M  END
$$$$
