LHS.pdb
     RDKit          3D

 25 25  0  0  1  0  0  0  0  0999 V2000
   21.6750   -4.7600  -14.4219 C   0  0  0  0  0  0  0  0  0  0  0  0
   22.4141   -5.7971  -15.2616 C   0  0  2  0  0  0  0  0  0  0  0  0
   23.3431   -5.0577  -16.1927 C   0  0  0  0  0  0  0  0  0  0  0  0
   21.4513   -6.6995  -15.9839 C   0  0  0  0  0  0  0  0  0  0  0  0
   20.5317   -7.3660  -15.0007 C   0  0  2  0  0  0  0  0  0  0  0  0
   21.2647   -8.2954  -14.1807 N   0  0  0  0  0  0  0  0  0  0  0  0
   19.4446   -8.0904  -15.6880 C   0  0  0  0  0  0  0  0  0  0  0  0
   18.7362   -7.5364  -16.5272 O   0  0  0  0  0  0  0  0  0  0  0  0
   19.2200   -9.4609  -15.3646 N   0  0  0  0  0  0  0  0  0  0  0  0
   18.2328  -10.2665  -16.0072 C   0  0  1  0  0  0  0  0  0  0  0  0
   18.7518  -11.5822  -16.4343 C   0  0  0  0  0  0  0  0  0  0  0  0
   19.6843  -11.6079  -17.5721 C   0  0  0  0  0  0  0  0  0  0  0  0
   19.4988  -11.1694  -18.8479 C   0  0  0  0  0  0  0  0  0  0  0  0
   20.6405  -11.3460  -19.5705 N   0  0  0  0  0  0  0  0  0  0  0  0
   21.5279  -11.8911  -18.7424 C   0  0  0  0  0  0  0  0  0  0  0  0
   20.9718  -12.0517  -17.5516 N   0  0  0  0  0  0  0  0  0  0  0  0
   16.9877  -10.4022  -15.2056 C   0  0  0  0  0  0  0  0  0  0  0  0
   17.0319  -10.5808  -13.9621 O   0  0  0  0  0  0  0  0  0  0  0  0
   12.1310   -9.9093  -15.3121 O   0  0  0  0  0  0  0  0  0  0  0  0
   13.3546   -9.9227  -15.9408 C   0  0  0  0  0  0  0  0  0  0  0  0
   14.4760  -10.3981  -15.0091 C   0  0  2  0  0  0  0  0  0  0  0  0
   15.6947  -10.3385  -15.7919 N   0  0  0  0  0  0  0  0  0  0  0  0
   14.1573  -11.7618  -14.5678 C   0  0  0  0  0  0  0  0  0  0  0  0
   13.5359  -11.9498  -13.3464 O   0  0  0  0  0  0  0  0  0  0  0  0
   14.4249  -12.7758  -15.2541 O   0  0  0  0  0  0  0  0  0  0  0  0
  2  1  1  6
  3  2  1  0
  4  5  1  0
  4  2  1  0
  5  6  1  6
  7  5  1  0
  7  8  2  0
  9  7  1  0
 10  9  1  0
 10 11  1  1
 12 16  1  0
 12 11  1  0
 13 12  2  0
 14 13  1  0
 14 15  1  0
 15 16  2  0
 17 10  1  0
 18 17  2  0
 20 19  1  0
 21 22  1  0
 21 20  1  6
 22 17  1  0
 23 21  1  0
 24 23  1  0
 25 23  2  0
M  END
$$$$
