LHS.pdb
     RDKit          3D

 25 25  0  0  1  0  0  0  0  0999 V2000
   17.3480  -10.1262  -20.7580 C   0  0  0  0  0  0  0  0  0  0  0  0
   17.6347  -11.3791  -19.9365 C   0  0  2  0  0  0  0  0  0  0  0  0
   16.3433  -12.1482  -19.8046 C   0  0  0  0  0  0  0  0  0  0  0  0
   18.2512  -11.0307  -18.6092 C   0  0  0  0  0  0  0  0  0  0  0  0
   19.4436  -10.1398  -18.8117 C   0  0  2  0  0  0  0  0  0  0  0  0
   20.4993  -10.8600  -19.4753 N   0  0  0  0  0  0  0  0  0  0  0  0
   19.9529   -9.6237  -17.5259 C   0  0  0  0  0  0  0  0  0  0  0  0
   19.1887   -9.2397  -16.6419 O   0  0  0  0  0  0  0  0  0  0  0  0
   21.3623   -9.5739  -17.3151 N   0  0  0  0  0  0  0  0  0  0  0  0
   21.9585   -9.0873  -16.1133 C   0  0  1  0  0  0  0  0  0  0  0  0
   23.2666   -9.7111  -15.8257 C   0  0  0  0  0  0  0  0  0  0  0  0
   23.2838  -11.1555  -15.5466 C   0  0  0  0  0  0  0  0  0  0  0  0
   22.2412  -12.0256  -15.4445 C   0  0  0  0  0  0  0  0  0  0  0  0
   22.7081  -13.2855  -15.2174 N   0  0  0  0  0  0  0  0  0  0  0  0
   24.0348  -13.1928  -15.1804 C   0  0  0  0  0  0  0  0  0  0  0  0
   24.3895  -11.9321  -15.3749 N   0  0  0  0  0  0  0  0  0  0  0  0
   22.0371   -7.6031  -16.0682 C   0  0  0  0  0  0  0  0  0  0  0  0
   22.6012   -6.9541  -16.9851 O   0  0  0  0  0  0  0  0  0  0  0  0
   20.0766   -3.5103  -14.8949 O   0  0  0  0  0  0  0  0  0  0  0  0
   20.1375   -4.8816  -14.9870 C   0  0  0  0  0  0  0  0  0  0  0  0
   21.5802   -5.3990  -14.9365 C   0  0  2  0  0  0  0  0  0  0  0  0
   21.4863   -6.8442  -15.0003 N   0  0  0  0  0  0  0  0  0  0  0  0
   22.1913   -4.9298  -13.6865 C   0  0  0  0  0  0  0  0  0  0  0  0
   22.8102   -3.6930  -13.6586 O   0  0  0  0  0  0  0  0  0  0  0  0
   22.1784   -5.6052  -12.6309 O   0  0  0  0  0  0  0  0  0  0  0  0
  2  1  1  1
  3  2  1  0
  4  5  1  0
  4  2  1  0
  5  6  1  1
  7  5  1  0
  7  8  2  0
  9  7  1  0
 10  9  1  0
 10 11  1  6
 12 16  1  0
 12 11  1  0
 13 12  2  0
 14 13  1  0
 14 15  1  0
 15 16  2  0
 17 10  1  0
 18 17  2  0
 20 19  1  0
 21 22  1  0
 21 20  1  1
 22 17  1  0
 23 21  1  0
 24 23  1  0
 25 23  2  0
M  END
$$$$
