LHS.pdb
     RDKit          3D

 25 25  0  0  1  0  0  0  0  0999 V2000
   26.7590  -12.0355  -14.9486 C   0  0  0  0  0  0  0  0  0  0  0  0
   26.5976  -11.9552  -16.4633 C   0  0  2  0  0  0  0  0  0  0  0  0
   27.9449  -11.6168  -17.0522 C   0  0  0  0  0  0  0  0  0  0  0  0
   25.5241  -10.9729  -16.8452 C   0  0  0  0  0  0  0  0  0  0  0  0
   24.2333  -11.3280  -16.1639 C   0  0  2  0  0  0  0  0  0  0  0  0
   23.7173  -12.5675  -16.6844 N   0  0  0  0  0  0  0  0  0  0  0  0
   23.2188  -10.2724  -16.3517 C   0  0  0  0  0  0  0  0  0  0  0  0
   22.9065   -9.8765  -17.4736 O   0  0  0  0  0  0  0  0  0  0  0  0
   22.5941   -9.7068  -15.2014 N   0  0  0  0  0  0  0  0  0  0  0  0
   21.6109   -8.6747  -15.2708 C   0  0  1  0  0  0  0  0  0  0  0  0
   20.2614   -9.1382  -14.8878 C   0  0  0  0  0  0  0  0  0  0  0  0
   19.6405  -10.1822  -15.7180 C   0  0  0  0  0  0  0  0  0  0  0  0
   19.2923  -11.4554  -15.3830 C   0  0  0  0  0  0  0  0  0  0  0  0
   18.7036  -12.0711  -16.4466 N   0  0  0  0  0  0  0  0  0  0  0  0
   18.6880  -11.1799  -17.4344 C   0  0  0  0  0  0  0  0  0  0  0  0
   19.2418  -10.0531  -17.0139 N   0  0  0  0  0  0  0  0  0  0  0  0
   22.0041   -7.4521  -14.5213 C   0  0  0  0  0  0  0  0  0  0  0  0
   22.4178   -7.5214  -13.3363 O   0  0  0  0  0  0  0  0  0  0  0  0
   22.1168   -3.8528  -16.5461 O   0  0  0  0  0  0  0  0  0  0  0  0
   23.0475   -4.1007  -15.5639 C   0  0  0  0  0  0  0  0  0  0  0  0
   22.4812   -4.9796  -14.4420 C   0  0  2  0  0  0  0  0  0  0  0  0
   21.9353   -6.1534  -15.0943 N   0  0  0  0  0  0  0  0  0  0  0  0
   21.4580   -4.2064  -13.7271 C   0  0  0  0  0  0  0  0  0  0  0  0
   21.8377   -3.0963  -12.9946 O   0  0  0  0  0  0  0  0  0  0  0  0
   20.2418   -4.5086  -13.7497 O   0  0  0  0  0  0  0  0  0  0  0  0
  2  1  1  1
  3  2  1  0
  4  5  1  0
  4  2  1  0
  5  6  1  6
  7  5  1  0
  7  8  2  0
  9  7  1  0
 10  9  1  0
 10 11  1  1
 12 16  1  0
 12 11  1  0
 13 12  2  0
 14 13  1  0
 14 15  1  0
 15 16  2  0
 17 10  1  0
 18 17  2  0
 20 19  1  0
 21 22  1  0
 21 20  1  6
 22 17  1  0
 23 21  1  0
 24 23  1  0
 25 23  2  0
M  END
$$$$
