LHS.pdb
     RDKit          3D

 25 25  0  0  1  0  0  0  0  0999 V2000
   27.8447  -13.7836  -15.6559 C   0  0  0  0  0  0  0  0  0  0  0  0
   28.4700  -12.7558  -16.5938 C   0  0  2  0  0  0  0  0  0  0  0  0
   29.9685  -12.9129  -16.5150 C   0  0  0  0  0  0  0  0  0  0  0  0
   28.0053  -11.3636  -16.2637 C   0  0  0  0  0  0  0  0  0  0  0  0
   26.5043  -11.3046  -16.2728 C   0  0  2  0  0  0  0  0  0  0  0  0
   25.9805  -12.0624  -17.3796 N   0  0  0  0  0  0  0  0  0  0  0  0
   26.0222   -9.9133  -16.3764 C   0  0  0  0  0  0  0  0  0  0  0  0
   26.3213   -9.0674  -15.5350 O   0  0  0  0  0  0  0  0  0  0  0  0
   25.1929   -9.5534  -17.4792 N   0  0  0  0  0  0  0  0  0  0  0  0
   24.7758   -8.2143  -17.7423 C   0  0  1  0  0  0  0  0  0  0  0  0
   24.5974   -7.9391  -19.1829 C   0  0  0  0  0  0  0  0  0  0  0  0
   24.1892   -6.5795  -19.5695 C   0  0  0  0  0  0  0  0  0  0  0  0
   22.9594   -6.1192  -19.9306 C   0  0  0  0  0  0  0  0  0  0  0  0
   23.0166   -4.7789  -20.1689 N   0  0  0  0  0  0  0  0  0  0  0  0
   24.2778   -4.4133  -19.9547 C   0  0  0  0  0  0  0  0  0  0  0  0
   24.9847   -5.4744  -19.5976 N   0  0  0  0  0  0  0  0  0  0  0  0
   23.5774   -7.8182  -16.9560 C   0  0  0  0  0  0  0  0  0  0  0  0
   22.6184   -8.6134  -16.7883 O   0  0  0  0  0  0  0  0  0  0  0  0
   21.9976   -5.0392  -13.3967 O   0  0  0  0  0  0  0  0  0  0  0  0
   22.9527   -5.4427  -14.3009 C   0  0  0  0  0  0  0  0  0  0  0  0
   22.3387   -6.1794  -15.4976 C   0  0  2  0  0  0  0  0  0  0  0  0
   23.4501   -6.5356  -16.3575 N   0  0  0  0  0  0  0  0  0  0  0  0
   21.3877   -5.2734  -16.1539 C   0  0  0  0  0  0  0  0  0  0  0  0
   20.0336   -5.4266  -15.9170 O   0  0  0  0  0  0  0  0  0  0  0  0
   21.7495   -4.3566  -16.9282 O   0  0  0  0  0  0  0  0  0  0  0  0
  2  1  1  1
  3  2  1  0
  4  5  1  0
  4  2  1  0
  5  6  1  6
  7  5  1  0
  7  8  2  0
  9  7  1  0
 10  9  1  0
 10 11  1  6
 12 16  1  0
 12 11  1  0
 13 12  2  0
 14 13  1  0
 14 15  1  0
 15 16  2  0
 17 10  1  0
 18 17  2  0
 20 19  1  0
 21 22  1  0
 21 20  1  1
 22 17  1  0
 23 21  1  0
 24 23  1  0
 25 23  2  0
M  END
$$$$
