LHS.pdb
     RDKit          3D

 25 25  0  0  1  0  0  0  0  0999 V2000
   22.4846  -13.4902  -19.8062 C   0  0  0  0  0  0  0  0  0  0  0  0
   21.0155  -13.5234  -19.3967 C   0  0  2  0  0  0  0  0  0  0  0  0
   20.2416  -14.1804  -20.5130 C   0  0  0  0  0  0  0  0  0  0  0  0
   20.5123  -12.1457  -19.0622 C   0  0  0  0  0  0  0  0  0  0  0  0
   21.3338  -11.5510  -17.9541 C   0  0  2  0  0  0  0  0  0  0  0  0
   21.3742  -12.4450  -16.8260 N   0  0  0  0  0  0  0  0  0  0  0  0
   20.7841  -10.2533  -17.5150 C   0  0  0  0  0  0  0  0  0  0  0  0
   20.4855   -9.3771  -18.3251 O   0  0  0  0  0  0  0  0  0  0  0  0
   20.5995  -10.0214  -16.1202 N   0  0  0  0  0  0  0  0  0  0  0  0
   20.0392   -8.8197  -15.5926 C   0  0  1  0  0  0  0  0  0  0  0  0
   18.9807   -9.0684  -14.5924 C   0  0  0  0  0  0  0  0  0  0  0  0
   17.7127   -9.6396  -15.0726 C   0  0  0  0  0  0  0  0  0  0  0  0
   16.6574   -9.0164  -15.6664 C   0  0  0  0  0  0  0  0  0  0  0  0
   15.7011   -9.9309  -15.9919 N   0  0  0  0  0  0  0  0  0  0  0  0
   16.1655  -11.1147  -15.6007 C   0  0  0  0  0  0  0  0  0  0  0  0
   17.3603  -10.9550  -15.0530 N   0  0  0  0  0  0  0  0  0  0  0  0
   21.0702   -7.8799  -15.0778 C   0  0  0  0  0  0  0  0  0  0  0  0
   21.9709   -8.2701  -14.2926 O   0  0  0  0  0  0  0  0  0  0  0  0
   22.7873   -3.3049  -15.3682 O   0  0  0  0  0  0  0  0  0  0  0  0
   21.8532   -4.2621  -15.6904 C   0  0  0  0  0  0  0  0  0  0  0  0
   22.1230   -5.5932  -14.9783 C   0  0  2  0  0  0  0  0  0  0  0  0
   21.0954   -6.5057  -15.4394 N   0  0  0  0  0  0  0  0  0  0  0  0
   22.0585   -5.3590  -13.5302 C   0  0  0  0  0  0  0  0  0  0  0  0
   23.1789   -4.8864  -12.8707 O   0  0  0  0  0  0  0  0  0  0  0  0
   21.0236   -5.5695  -12.8553 O   0  0  0  0  0  0  0  0  0  0  0  0
  2  1  1  6
  3  2  1  0
  4  5  1  0
  4  2  1  0
  5  6  1  1
  7  5  1  0
  7  8  2  0
  9  7  1  0
 10  9  1  0
 10 11  1  1
 12 16  1  0
 12 11  1  0
 13 12  2  0
 14 13  1  0
 14 15  1  0
 15 16  2  0
 17 10  1  0
 18 17  2  0
 20 19  1  0
 21 22  1  0
 21 20  1  6
 22 17  1  0
 23 21  1  0
 24 23  1  0
 25 23  2  0
M  END
$$$$
