LHS.pdb
     RDKit          3D

 25 25  0  0  1  0  0  0  0  0999 V2000
   25.8282  -12.7336  -20.4882 C   0  0  0  0  0  0  0  0  0  0  0  0
   24.9399  -13.8575  -19.9642 C   0  0  2  0  0  0  0  0  0  0  0  0
   25.0188  -15.0014  -20.9449 C   0  0  0  0  0  0  0  0  0  0  0  0
   23.5335  -13.3766  -19.7317 C   0  0  0  0  0  0  0  0  0  0  0  0
   23.5416  -12.1710  -18.8357 C   0  0  2  0  0  0  0  0  0  0  0  0
   24.1188  -12.5009  -17.5583 N   0  0  0  0  0  0  0  0  0  0  0  0
   22.1766  -11.6510  -18.6226 C   0  0  0  0  0  0  0  0  0  0  0  0
   21.4233  -11.4229  -19.5678 O   0  0  0  0  0  0  0  0  0  0  0  0
   21.7326  -11.4119  -17.2888 N   0  0  0  0  0  0  0  0  0  0  0  0
   20.4459  -10.8807  -16.9742 C   0  0  1  0  0  0  0  0  0  0  0  0
   19.6706  -11.7499  -16.0652 C   0  0  0  0  0  0  0  0  0  0  0  0
   19.0561  -12.9572  -16.6394 C   0  0  0  0  0  0  0  0  0  0  0  0
   19.1133  -13.4291  -17.9155 C   0  0  0  0  0  0  0  0  0  0  0  0
   18.4344  -14.6072  -18.0059 N   0  0  0  0  0  0  0  0  0  0  0  0
   17.9607  -14.8614  -16.7889 C   0  0  0  0  0  0  0  0  0  0  0  0
   18.3235  -13.8883  -15.9677 N   0  0  0  0  0  0  0  0  0  0  0  0
   20.5057   -9.4809  -16.4761 C   0  0  0  0  0  0  0  0  0  0  0  0
   21.3230   -9.1436  -15.5826 O   0  0  0  0  0  0  0  0  0  0  0  0
   19.5508   -6.2555  -18.7444 O   0  0  0  0  0  0  0  0  0  0  0  0
   18.9323   -6.2546  -17.5156 C   0  0  0  0  0  0  0  0  0  0  0  0
   19.6964   -7.0951  -16.4853 C   0  0  2  0  0  0  0  0  0  0  0  0
   19.6536   -8.4588  -16.9750 N   0  0  0  0  0  0  0  0  0  0  0  0
   19.0299   -6.9431  -15.1857 C   0  0  0  0  0  0  0  0  0  0  0  0
   19.0356   -5.7081  -14.5628 O   0  0  0  0  0  0  0  0  0  0  0  0
   18.4491   -7.8912  -14.6073 O   0  0  0  0  0  0  0  0  0  0  0  0
  2  1  1  6
  3  2  1  0
  4  5  1  0
  4  2  1  0
  5  6  1  1
  7  5  1  0
  7  8  2  0
  9  7  1  0
 10  9  1  0
 10 11  1  1
 12 16  1  0
 12 11  1  0
 13 12  2  0
 14 13  1  0
 14 15  1  0
 15 16  2  0
 17 10  1  0
 18 17  2  0
 20 19  1  0
 21 22  1  0
 21 20  1  6
 22 17  1  0
 23 21  1  0
 24 23  1  0
 25 23  2  0
M  END
$$$$
