LHS.pdb
     RDKit          3D

 25 25  0  0  1  0  0  0  0  0999 V2000
   26.2636  -17.0497  -19.6094 C   0  0  0  0  0  0  0  0  0  0  0  0
   27.3679  -17.5630  -18.6908 C   0  0  2  0  0  0  0  0  0  0  0  0
   28.5666  -17.8858  -19.5484 C   0  0  0  0  0  0  0  0  0  0  0  0
   26.8956  -18.7342  -17.8732 C   0  0  0  0  0  0  0  0  0  0  0  0
   25.6028  -18.3968  -17.1867 C   0  0  2  0  0  0  0  0  0  0  0  0
   25.7897  -17.2911  -16.2833 N   0  0  0  0  0  0  0  0  0  0  0  0
   25.0809  -19.5502  -16.4277 C   0  0  0  0  0  0  0  0  0  0  0  0
   24.9877  -20.6647  -16.9397 O   0  0  0  0  0  0  0  0  0  0  0  0
   24.6792  -19.3568  -15.0732 N   0  0  0  0  0  0  0  0  0  0  0  0
   24.2487  -20.4196  -14.2237 C   0  0  1  0  0  0  0  0  0  0  0  0
   24.8688  -20.3731  -12.8836 C   0  0  0  0  0  0  0  0  0  0  0  0
   26.2909  -20.7359  -12.7800 C   0  0  0  0  0  0  0  0  0  0  0  0
   27.1586  -21.1081  -13.7613 C   0  0  0  0  0  0  0  0  0  0  0  0
   28.3972  -21.3150  -13.2323 N   0  0  0  0  0  0  0  0  0  0  0  0
   28.2939  -21.0703  -11.9286 C   0  0  0  0  0  0  0  0  0  0  0  0
   27.0470  -20.7250  -11.6472 N   0  0  0  0  0  0  0  0  0  0  0  0
   22.7679  -20.5269  -14.1393 C   0  0  0  0  0  0  0  0  0  0  0  0
   22.0555  -19.5173  -13.9089 O   0  0  0  0  0  0  0  0  0  0  0  0
   18.9400  -23.4363  -14.9574 O   0  0  0  0  0  0  0  0  0  0  0  0
   20.2979  -23.2359  -14.8649 C   0  0  0  0  0  0  0  0  0  0  0  0
   20.6388  -21.8683  -14.2606 C   0  0  2  0  0  0  0  0  0  0  0  0
   22.0835  -21.7604  -14.3120 N   0  0  0  0  0  0  0  0  0  0  0  0
   20.1207  -21.8327  -12.8872 C   0  0  0  0  0  0  0  0  0  0  0  0
   18.8730  -21.2852  -12.6487 O   0  0  0  0  0  0  0  0  0  0  0  0
   20.7634  -22.2805  -11.9088 O   0  0  0  0  0  0  0  0  0  0  0  0
  2  1  1  6
  3  2  1  0
  4  5  1  0
  4  2  1  0
  5  6  1  1
  7  5  1  0
  7  8  2  0
  9  7  1  0
 10  9  1  0
 10 11  1  1
 12 16  1  0
 12 11  1  0
 13 12  2  0
 14 13  1  0
 14 15  1  0
 15 16  2  0
 17 10  1  0
 18 17  2  0
 20 19  1  0
 21 22  1  0
 21 20  1  1
 22 17  1  0
 23 21  1  0
 24 23  1  0
 25 23  2  0
M  END
$$$$
