LHS.pdb
     RDKit          3D

 25 25  0  0  1  0  0  0  0  0999 V2000
   19.9959  -18.3080  -16.8610 C   0  0  0  0  0  0  0  0  0  0  0  0
   20.1485  -16.9671  -17.5720 C   0  0  2  0  0  0  0  0  0  0  0  0
   20.8725  -17.2156  -18.8722 C   0  0  0  0  0  0  0  0  0  0  0  0
   20.8420  -15.9612  -16.6943 C   0  0  0  0  0  0  0  0  0  0  0  0
   20.7869  -14.5996  -17.3263 C   0  0  2  0  0  0  0  0  0  0  0  0
   21.6580  -14.5441  -18.4716 N   0  0  0  0  0  0  0  0  0  0  0  0
   21.1868  -13.5476  -16.3712 C   0  0  0  0  0  0  0  0  0  0  0  0
   20.7777  -13.5465  -15.2112 O   0  0  0  0  0  0  0  0  0  0  0  0
   22.0660  -12.5157  -16.8135 N   0  0  0  0  0  0  0  0  0  0  0  0
   22.5271  -11.4627  -15.9678 C   0  0  1  0  0  0  0  0  0  0  0  0
   23.9870  -11.2528  -16.0533 C   0  0  0  0  0  0  0  0  0  0  0  0
   24.8583  -12.3784  -15.6810 C   0  0  0  0  0  0  0  0  0  0  0  0
   24.5186  -13.6233  -15.2456 C   0  0  0  0  0  0  0  0  0  0  0  0
   25.6416  -14.3710  -15.0544 N   0  0  0  0  0  0  0  0  0  0  0  0
   26.6708  -13.5899  -15.3718 C   0  0  0  0  0  0  0  0  0  0  0  0
   26.2185  -12.4031  -15.7459 N   0  0  0  0  0  0  0  0  0  0  0  0
   21.7781  -10.1935  -16.1663 C   0  0  0  0  0  0  0  0  0  0  0  0
   21.5762   -9.7316  -17.3178 O   0  0  0  0  0  0  0  0  0  0  0  0
   18.4265   -9.2826  -14.6810 O   0  0  0  0  0  0  0  0  0  0  0  0
   19.3129   -8.2975  -14.3113 C   0  0  0  0  0  0  0  0  0  0  0  0
   20.5100   -8.2116  -15.2659 C   0  0  2  0  0  0  0  0  0  0  0  0
   21.2552   -9.4410  -15.0801 N   0  0  0  0  0  0  0  0  0  0  0  0
   21.2927   -7.0206  -14.9124 C   0  0  0  0  0  0  0  0  0  0  0  0
   20.7571   -5.7662  -15.1424 O   0  0  0  0  0  0  0  0  0  0  0  0
   22.4372   -7.0879  -14.4060 O   0  0  0  0  0  0  0  0  0  0  0  0
  2  1  1  1
  3  2  1  0
  4  5  1  0
  4  2  1  0
  5  6  1  6
  7  5  1  0
  7  8  2  0
  9  7  1  0
 10  9  1  0
 10 11  1  6
 12 16  1  0
 12 11  1  0
 13 12  2  0
 14 13  1  0
 14 15  1  0
 15 16  2  0
 17 10  1  0
 18 17  2  0
 20 19  1  0
 21 22  1  0
 21 20  1  1
 22 17  1  0
 23 21  1  0
 24 23  1  0
 25 23  2  0
M  END
$$$$
