LHS.pdb
     RDKit          3D

 25 25  0  0  1  0  0  0  0  0999 V2000
   25.1833  -18.7249  -16.5959 C   0  0  0  0  0  0  0  0  0  0  0  0
   23.7477  -18.6431  -17.1049 C   0  0  2  0  0  0  0  0  0  0  0  0
   23.7464  -17.7777  -18.3409 C   0  0  0  0  0  0  0  0  0  0  0  0
   22.8179  -18.1418  -16.0336 C   0  0  0  0  0  0  0  0  0  0  0  0
   22.5100  -19.2437  -15.0603 C   0  0  2  0  0  0  0  0  0  0  0  0
   22.7451  -20.5280  -15.6676 N   0  0  0  0  0  0  0  0  0  0  0  0
   21.1075  -19.1811  -14.6043 C   0  0  0  0  0  0  0  0  0  0  0  0
   20.6569  -18.1773  -14.0543 O   0  0  0  0  0  0  0  0  0  0  0  0
   20.2662  -20.3138  -14.8108 N   0  0  0  0  0  0  0  0  0  0  0  0
   18.8879  -20.3443  -14.4426 C   0  0  1  0  0  0  0  0  0  0  0  0
   17.9823  -20.0697  -15.5772 C   0  0  0  0  0  0  0  0  0  0  0  0
   16.5557  -19.8732  -15.2758 C   0  0  0  0  0  0  0  0  0  0  0  0
   15.9673  -18.9669  -14.4469 C   0  0  0  0  0  0  0  0  0  0  0  0
   14.6125  -19.1045  -14.4951 N   0  0  0  0  0  0  0  0  0  0  0  0
   14.3659  -20.0921  -15.3518 C   0  0  0  0  0  0  0  0  0  0  0  0
   15.5127  -20.5572  -15.8228 N   0  0  0  0  0  0  0  0  0  0  0  0
   18.5090  -21.5923  -13.7283 C   0  0  0  0  0  0  0  0  0  0  0  0
   19.0592  -22.6892  -14.0005 O   0  0  0  0  0  0  0  0  0  0  0  0
   17.0045  -22.0231   -9.6987 O   0  0  0  0  0  0  0  0  0  0  0  0
   16.2794  -22.3610  -10.8179 C   0  0  0  0  0  0  0  0  0  0  0  0
   17.1802  -22.8164  -11.9724 C   0  0  2  0  0  0  0  0  0  0  0  0
   17.5168  -21.6154  -12.7111 N   0  0  0  0  0  0  0  0  0  0  0  0
   16.4307  -23.7840  -12.7836 C   0  0  0  0  0  0  0  0  0  0  0  0
   16.6266  -25.1374  -12.5749 O   0  0  0  0  0  0  0  0  0  0  0  0
   15.6119  -23.4374  -13.6668 O   0  0  0  0  0  0  0  0  0  0  0  0
  2  1  1  1
  3  2  1  0
  4  5  1  0
  4  2  1  0
  5  6  1  6
  7  5  1  0
  7  8  2  0
  9  7  1  0
 10  9  1  0
 10 11  1  6
 12 16  1  0
 12 11  1  0
 13 12  2  0
 14 13  1  0
 14 15  1  0
 15 16  2  0
 17 10  1  0
 18 17  2  0
 20 19  1  0
 21 22  1  0
 21 20  1  1
 22 17  1  0
 23 21  1  0
 24 23  1  0
 25 23  2  0
M  END
$$$$
