LHS.pdb
     RDKit          3D

 25 25  0  0  1  0  0  0  0  0999 V2000
   27.0679  -19.0404   -5.4833 C   0  0  0  0  0  0  0  0  0  0  0  0
   27.5992  -20.4018   -5.9202 C   0  0  2  0  0  0  0  0  0  0  0  0
   28.9190  -20.6256   -5.2240 C   0  0  0  0  0  0  0  0  0  0  0  0
   27.7007  -20.4915   -7.4185 C   0  0  0  0  0  0  0  0  0  0  0  0
   26.3590  -20.2346   -8.0432 C   0  0  2  0  0  0  0  0  0  0  0  0
   25.4502  -21.3084   -7.7358 N   0  0  0  0  0  0  0  0  0  0  0  0
   26.4654  -20.1045   -9.5097 C   0  0  0  0  0  0  0  0  0  0  0  0
   27.2053  -19.2688  -10.0266 O   0  0  0  0  0  0  0  0  0  0  0  0
   25.6897  -20.9710  -10.3348 N   0  0  0  0  0  0  0  0  0  0  0  0
   25.6749  -20.8913  -11.7595 C   0  0  1  0  0  0  0  0  0  0  0  0
   26.3710  -22.0222  -12.4070 C   0  0  0  0  0  0  0  0  0  0  0  0
   26.7993  -21.8467  -13.8036 C   0  0  0  0  0  0  0  0  0  0  0  0
   26.6615  -20.7633  -14.6171 C   0  0  0  0  0  0  0  0  0  0  0  0
   27.2401  -21.0130  -15.8252 N   0  0  0  0  0  0  0  0  0  0  0  0
   27.7339  -22.2466  -15.7568 C   0  0  0  0  0  0  0  0  0  0  0  0
   27.4786  -22.7527  -14.5603 N   0  0  0  0  0  0  0  0  0  0  0  0
   24.3078  -20.6999  -12.3124 C   0  0  0  0  0  0  0  0  0  0  0  0
   23.3257  -21.3347  -11.8512 O   0  0  0  0  0  0  0  0  0  0  0  0
   21.6699  -18.3420  -15.6983 O   0  0  0  0  0  0  0  0  0  0  0  0
   22.8744  -18.6484  -15.1084 C   0  0  0  0  0  0  0  0  0  0  0  0
   22.7088  -19.6122  -13.9271 C   0  0  2  0  0  0  0  0  0  0  0  0
   24.0376  -19.8007  -13.3792 N   0  0  0  0  0  0  0  0  0  0  0  0
   22.1269  -20.8615  -14.4337 C   0  0  0  0  0  0  0  0  0  0  0  0
   22.9186  -21.7293  -15.1640 O   0  0  0  0  0  0  0  0  0  0  0  0
   20.9321  -21.1825  -14.2330 O   0  0  0  0  0  0  0  0  0  0  0  0
  2  1  1  6
  3  2  1  0
  4  5  1  0
  4  2  1  0
  5  6  1  6
  7  5  1  0
  7  8  2  0
  9  7  1  0
 10  9  1  0
 10 11  1  6
 12 16  1  0
 12 11  1  0
 13 12  2  0
 14 13  1  0
 14 15  1  0
 15 16  2  0
 17 10  1  0
 18 17  2  0
 20 19  1  0
 21 22  1  0
 21 20  1  6
 22 17  1  0
 23 21  1  0
 24 23  1  0
 25 23  2  0
M  END
$$$$
