LHS.pdb
     RDKit          3D

 25 25  0  0  1  0  0  0  0  0999 V2000
   27.1334  -18.4899   -5.8108 C   0  0  0  0  0  0  0  0  0  0  0  0
   27.2092  -20.0110   -5.7246 C   0  0  2  0  0  0  0  0  0  0  0  0
   28.4491  -20.3661   -4.9415 C   0  0  0  0  0  0  0  0  0  0  0  0
   27.1770  -20.6362   -7.0925 C   0  0  0  0  0  0  0  0  0  0  0  0
   25.9798  -20.1461   -7.8561 C   0  0  2  0  0  0  0  0  0  0  0  0
   24.9072  -21.1033   -7.7731 N   0  0  0  0  0  0  0  0  0  0  0  0
   26.3062  -19.9173   -9.2774 C   0  0  0  0  0  0  0  0  0  0  0  0
   27.1456  -19.0843   -9.6158 O   0  0  0  0  0  0  0  0  0  0  0  0
   25.6281  -20.6837  -10.2705 N   0  0  0  0  0  0  0  0  0  0  0  0
   25.8974  -20.5707  -11.6673 C   0  0  1  0  0  0  0  0  0  0  0  0
   26.6627  -21.7164  -12.2008 C   0  0  0  0  0  0  0  0  0  0  0  0
   27.1071  -21.6434  -13.6015 C   0  0  0  0  0  0  0  0  0  0  0  0
   28.1635  -20.9705  -14.1361 C   0  0  0  0  0  0  0  0  0  0  0  0
   28.2376  -21.2107  -15.4754 N   0  0  0  0  0  0  0  0  0  0  0  0
   27.2303  -22.0300  -15.7658 C   0  0  0  0  0  0  0  0  0  0  0  0
   26.5511  -22.2948  -14.6605 N   0  0  0  0  0  0  0  0  0  0  0  0
   24.6746  -20.3061  -12.4711 C   0  0  0  0  0  0  0  0  0  0  0  0
   23.5917  -20.8923  -12.2186 O   0  0  0  0  0  0  0  0  0  0  0  0
   25.1049  -17.8121  -15.5569 O   0  0  0  0  0  0  0  0  0  0  0  0
   23.7810  -17.8998  -15.1934 C   0  0  0  0  0  0  0  0  0  0  0  0
   23.4895  -19.1668  -14.3801 C   0  0  2  0  0  0  0  0  0  0  0  0
   24.6611  -19.3879  -13.5557 N   0  0  0  0  0  0  0  0  0  0  0  0
   23.2473  -20.2685  -15.3202 C   0  0  0  0  0  0  0  0  0  0  0  0
   22.0815  -20.2787  -16.0646 O   0  0  0  0  0  0  0  0  0  0  0  0
   24.0569  -21.2115  -15.4818 O   0  0  0  0  0  0  0  0  0  0  0  0
  2  1  1  6
  3  2  1  0
  4  5  1  0
  4  2  1  0
  5  6  1  6
  7  5  1  0
  7  8  2  0
  9  7  1  0
 10  9  1  0
 10 11  1  6
 12 16  1  0
 12 11  1  0
 13 12  2  0
 14 13  1  0
 14 15  1  0
 15 16  2  0
 17 10  1  0
 18 17  2  0
 20 19  1  0
 21 22  1  0
 21 20  1  6
 22 17  1  0
 23 21  1  0
 24 23  1  0
 25 23  2  0
M  END
$$$$
