WCM.pdb
     RDKit          3D

 29 30  0  0  1  0  0  0  0  0999 V2000
   23.6092  -21.5998  -16.5165 N   0  0  0  0  0  0  0  0  0  0  0  0
   23.6609  -21.3467  -15.0931 C   0  0  1  0  0  0  0  0  0  0  0  0
   22.5401  -21.8309  -14.2852 C   0  0  0  0  0  0  0  0  0  0  0  0
   21.3671  -21.0500  -14.0700 C   0  0  0  0  0  0  0  0  0  0  0  0
   20.3990  -20.7856  -15.0270 C   0  0  0  0  0  0  0  0  0  0  0  0
   19.4555  -20.0222  -14.5039 N   0  0  0  0  0  0  0  0  0  0  0  0
   19.7297  -19.7426  -13.2126 C   0  0  0  0  0  0  0  0  0  0  0  0
   19.1028  -19.0151  -12.2237 C   0  0  0  0  0  0  0  0  0  0  0  0
   19.6708  -18.9326  -10.9689 C   0  0  0  0  0  0  0  0  0  0  0  0
   20.8648  -19.5792  -10.7082 C   0  0  0  0  0  0  0  0  0  0  0  0
   21.5041  -20.3123  -11.6908 C   0  0  0  0  0  0  0  0  0  0  0  0
   20.9390  -20.3957  -12.9453 C   0  0  0  0  0  0  0  0  0  0  0  0
   25.0054  -21.5799  -14.5142 C   0  0  0  0  0  0  0  0  0  0  0  0
   25.4377  -22.7680  -14.5538 O   0  0  0  0  0  0  0  0  0  0  0  0
   25.8426  -20.6144  -13.9290 N   0  0  0  0  0  0  0  0  0  0  0  0
   26.9352  -20.9079  -13.0398 C   0  0  1  0  0  0  0  0  0  0  0  0
   27.9719  -19.8086  -13.2515 C   0  0  0  0  0  0  0  0  0  0  0  0
   27.0916  -18.2362  -12.9111 S   0  0  0  0  0  0  0  0  0  0  0  0
   26.5184  -21.0214  -11.6284 C   0  0  0  0  0  0  0  0  0  0  0  0
   25.3028  -20.8296  -11.3683 O   0  0  0  0  0  0  0  0  0  0  0  0
   29.2399  -18.4392   -5.2420 C   0  0  0  0  0  0  0  0  0  0  0  0
   29.4994  -19.9833   -6.1236 S   0  0  0  0  0  0  0  0  0  0  0  0
   28.0429  -20.5669   -6.9573 C   0  0  0  0  0  0  0  0  0  0  0  0
   28.1257  -20.8612   -8.3926 C   0  0  0  0  0  0  0  0  0  0  0  0
   26.9400  -21.3466   -9.1372 C   0  0  2  0  0  0  0  0  0  0  0  0
   27.3792  -21.3263  -10.5634 N   0  0  0  0  0  0  0  0  0  0  0  0
   25.7859  -20.4448   -8.9862 C   0  0  0  0  0  0  0  0  0  0  0  0
   25.6429  -19.3261   -9.5159 O   0  0  0  0  0  0  0  0  0  0  0  0
   24.6980  -20.8357   -8.1686 O   0  0  0  0  0  0  0  0  0  0  0  0
  2  3  1  0
  2  1  1  6
  2 13  1  0
  4  3  1  0
  4 12  1  0
  5  6  1  0
  5  4  2  0
  6  7  1  0
  7 12  2  0
  7  8  1  0
  8  9  2  0
  9 10  1  0
 11 10  2  0
 12 11  1  0
 13 14  2  0
 15 13  1  0
 15 16  1  0
 16 17  1  1
 18 17  1  0
 19 16  1  0
 19 20  2  0
 22 21  1  0
 23 22  1  0
 23 24  1  0
 25 24  1  1
 25 26  1  0
 25 27  1  0
 26 19  1  0
 27 29  1  0
 28 27  2  0
M  END
$$$$
