WCM.pdb
     RDKit          3D

 29 30  0  0  1  0  0  0  0  0999 V2000
   23.0224  -20.6122  -13.8055 N   0  0  0  0  0  0  0  0  0  0  0  0
   21.9146  -20.2216  -12.9613 C   0  0  1  0  0  0  0  0  0  0  0  0
   20.6603  -19.8618  -13.6253 C   0  0  0  0  0  0  0  0  0  0  0  0
   20.5056  -18.6403  -14.3437 C   0  0  0  0  0  0  0  0  0  0  0  0
   20.8681  -18.4429  -15.6675 C   0  0  0  0  0  0  0  0  0  0  0  0
   20.6039  -17.1964  -16.0182 N   0  0  0  0  0  0  0  0  0  0  0  0
   20.0684  -16.5135  -14.9849 C   0  0  0  0  0  0  0  0  0  0  0  0
   19.6193  -15.2229  -14.8043 C   0  0  0  0  0  0  0  0  0  0  0  0
   19.1105  -14.8393  -13.5804 C   0  0  0  0  0  0  0  0  0  0  0  0
   19.0528  -15.7494  -12.5412 C   0  0  0  0  0  0  0  0  0  0  0  0
   19.4998  -17.0470  -12.7087 C   0  0  0  0  0  0  0  0  0  0  0  0
   20.0091  -17.4325  -13.9302 C   0  0  0  0  0  0  0  0  0  0  0  0
   21.7717  -21.0814  -11.7623 C   0  0  0  0  0  0  0  0  0  0  0  0
   22.0557  -22.3052  -11.9094 O   0  0  0  0  0  0  0  0  0  0  0  0
   21.3540  -20.6713  -10.4844 N   0  0  0  0  0  0  0  0  0  0  0  0
   21.2421  -21.5385   -9.3415 C   0  0  1  0  0  0  0  0  0  0  0  0
   21.5736  -20.6873   -8.1193 C   0  0  0  0  0  0  0  0  0  0  0  0
   21.5324  -21.8421   -6.6952 S   0  0  0  0  0  0  0  0  0  0  0  0
   19.9198  -22.1851   -9.2328 C   0  0  0  0  0  0  0  0  0  0  0  0
   18.9077  -21.4681   -9.4419 O   0  0  0  0  0  0  0  0  0  0  0  0
   17.7501  -28.3250  -12.3668 C   0  0  0  0  0  0  0  0  0  0  0  0
   18.3581  -27.8423  -10.7462 S   0  0  0  0  0  0  0  0  0  0  0  0
   17.9537  -26.1661  -10.3176 C   0  0  0  0  0  0  0  0  0  0  0  0
   18.5812  -25.5739   -9.1305 C   0  0  0  0  0  0  0  0  0  0  0  0
   18.3606  -24.1495   -8.7864 C   0  0  2  0  0  0  0  0  0  0  0  0
   19.7150  -23.5358   -8.9140 N   0  0  0  0  0  0  0  0  0  0  0  0
   17.8956  -23.9820   -7.3994 C   0  0  0  0  0  0  0  0  0  0  0  0
   16.7317  -24.1369   -6.9822 O   0  0  0  0  0  0  0  0  0  0  0  0
   18.8203  -23.6081   -6.3944 O   0  0  0  0  0  0  0  0  0  0  0  0
  2  3  1  0
  2  1  1  6
  2 13  1  0
  4  3  1  0
  4 12  1  0
  5  6  1  0
  5  4  2  0
  6  7  1  0
  7 12  2  0
  7  8  1  0
  8  9  2  0
  9 10  1  0
 11 10  2  0
 12 11  1  0
 13 14  2  0
 15 13  1  0
 15 16  1  0
 16 17  1  1
 18 17  1  0
 19 16  1  0
 19 20  2  0
 22 21  1  0
 23 22  1  0
 23 24  1  0
 25 24  1  1
 25 26  1  0
 25 27  1  0
 26 19  1  0
 27 29  1  0
 28 27  2  0
M  END
$$$$
