WCM.pdb
     RDKit          3D

 29 30  0  0  1  0  0  0  0  0999 V2000
   21.2039  -17.5759  -15.8144 N   0  0  0  0  0  0  0  0  0  0  0  0
   22.6309  -17.4974  -15.5910 C   0  0  1  0  0  0  0  0  0  0  0  0
   23.1818  -16.1900  -15.2296 C   0  0  0  0  0  0  0  0  0  0  0  0
   23.9062  -15.3886  -16.1597 C   0  0  0  0  0  0  0  0  0  0  0  0
   23.3559  -14.3910  -16.9502 C   0  0  0  0  0  0  0  0  0  0  0  0
   24.2973  -13.8560  -17.7079 N   0  0  0  0  0  0  0  0  0  0  0  0
   25.4889  -14.4448  -17.4750 C   0  0  0  0  0  0  0  0  0  0  0  0
   26.7647  -14.2811  -17.9704 C   0  0  0  0  0  0  0  0  0  0  0  0
   27.7905  -15.0736  -17.4975 C   0  0  0  0  0  0  0  0  0  0  0  0
   27.5355  -16.0275  -16.5296 C   0  0  0  0  0  0  0  0  0  0  0  0
   26.2606  -16.2022  -16.0240 C   0  0  0  0  0  0  0  0  0  0  0  0
   25.2340  -15.4122  -16.4953 C   0  0  0  0  0  0  0  0  0  0  0  0
   23.1566  -18.6430  -14.8110 C   0  0  0  0  0  0  0  0  0  0  0  0
   22.3647  -19.1662  -13.9748 O   0  0  0  0  0  0  0  0  0  0  0  0
   24.4425  -19.2019  -14.9098 N   0  0  0  0  0  0  0  0  0  0  0  0
   24.9005  -20.3413  -14.1595 C   0  0  1  0  0  0  0  0  0  0  0  0
   25.7681  -21.1630  -15.1083 C   0  0  0  0  0  0  0  0  0  0  0  0
   26.4041  -22.5583  -14.1025 S   0  0  0  0  0  0  0  0  0  0  0  0
   25.6171  -19.9703  -12.9236 C   0  0  0  0  0  0  0  0  0  0  0  0
   26.4866  -19.0655  -13.0099 O   0  0  0  0  0  0  0  0  0  0  0  0
   26.5073  -18.7042   -5.9439 C   0  0  0  0  0  0  0  0  0  0  0  0
   27.2793  -19.5675   -7.3178 S   0  0  0  0  0  0  0  0  0  0  0  0
   26.2380  -20.8166   -8.0336 C   0  0  0  0  0  0  0  0  0  0  0  0
   25.6139  -20.5495   -9.3347 C   0  0  0  0  0  0  0  0  0  0  0  0
   26.4185  -20.5623  -10.5791 C   0  0  2  0  0  0  0  0  0  0  0  0
   25.3969  -20.5538  -11.6670 N   0  0  0  0  0  0  0  0  0  0  0  0
   27.2274  -21.7866  -10.7011 C   0  0  0  0  0  0  0  0  0  0  0  0
   26.8049  -22.9362  -10.9305 O   0  0  0  0  0  0  0  0  0  0  0  0
   28.6334  -21.7111  -10.5526 O   0  0  0  0  0  0  0  0  0  0  0  0
  2  3  1  0
  2  1  1  1
  2 13  1  0
  4  3  1  0
  4 12  1  0
  5  6  1  0
  5  4  2  0
  6  7  1  0
  7 12  2  0
  7  8  1  0
  8  9  2  0
  9 10  1  0
 11 10  2  0
 12 11  1  0
 13 14  2  0
 15 13  1  0
 15 16  1  0
 16 17  1  6
 18 17  1  0
 19 16  1  0
 19 20  2  0
 22 21  1  0
 23 22  1  0
 23 24  1  0
 25 24  1  1
 25 26  1  0
 25 27  1  0
 26 19  1  0
 27 29  1  0
 28 27  2  0
M  END
$$$$
