WCM.pdb
     RDKit          3D

 29 30  0  0  1  0  0  0  0  0999 V2000
   27.9017  -20.0879  -12.5750 N   0  0  0  0  0  0  0  0  0  0  0  0
   26.9457  -21.0599  -12.0912 C   0  0  1  0  0  0  0  0  0  0  0  0
   26.4237  -20.8698  -10.7367 C   0  0  0  0  0  0  0  0  0  0  0  0
   27.2808  -20.6974   -9.6107 C   0  0  0  0  0  0  0  0  0  0  0  0
   26.9572  -19.9879   -8.4641 C   0  0  0  0  0  0  0  0  0  0  0  0
   27.9781  -20.0120   -7.6251 N   0  0  0  0  0  0  0  0  0  0  0  0
   29.0061  -20.7145   -8.1450 C   0  0  0  0  0  0  0  0  0  0  0  0
   30.2711  -21.0475   -7.7103 C   0  0  0  0  0  0  0  0  0  0  0  0
   31.0949  -21.8068   -8.5158 C   0  0  0  0  0  0  0  0  0  0  0  0
   30.6492  -22.2305   -9.7541 C   0  0  0  0  0  0  0  0  0  0  0  0
   29.3827  -21.9037  -10.2024 C   0  0  0  0  0  0  0  0  0  0  0  0
   28.5581  -21.1447   -9.3998 C   0  0  0  0  0  0  0  0  0  0  0  0
   25.9373  -21.4342  -13.1111 C   0  0  0  0  0  0  0  0  0  0  0  0
   25.3500  -20.4808  -13.6995 O   0  0  0  0  0  0  0  0  0  0  0  0
   25.5723  -22.7386  -13.4865 N   0  0  0  0  0  0  0  0  0  0  0  0
   24.3896  -23.0755  -14.2339 C   0  0  1  0  0  0  0  0  0  0  0  0
   24.4139  -24.5895  -14.4217 C   0  0  0  0  0  0  0  0  0  0  0  0
   23.0775  -24.9533  -15.6237 S   0  0  0  0  0  0  0  0  0  0  0  0
   23.1458  -22.6101  -13.5898 C   0  0  0  0  0  0  0  0  0  0  0  0
   23.2557  -22.0014  -12.4946 O   0  0  0  0  0  0  0  0  0  0  0  0
   18.4492  -17.2066  -12.8515 C   0  0  0  0  0  0  0  0  0  0  0  0
   19.7971  -18.1778  -13.5365 S   0  0  0  0  0  0  0  0  0  0  0  0
   19.6406  -19.9179  -13.2136 C   0  0  0  0  0  0  0  0  0  0  0  0
   20.7521  -20.8030  -13.5808 C   0  0  0  0  0  0  0  0  0  0  0  0
   20.6242  -22.2739  -13.4547 C   0  0  2  0  0  0  0  0  0  0  0  0
   21.8573  -22.7988  -14.1115 N   0  0  0  0  0  0  0  0  0  0  0  0
   19.4492  -22.7900  -14.1764 C   0  0  0  0  0  0  0  0  0  0  0  0
   18.2877  -22.8827  -13.7348 O   0  0  0  0  0  0  0  0  0  0  0  0
   19.5931  -23.2406  -15.5110 O   0  0  0  0  0  0  0  0  0  0  0  0
  2  3  1  0
  2  1  1  6
  2 13  1  0
  4  3  1  0
  4 12  1  0
  5  6  1  0
  5  4  2  0
  6  7  1  0
  7 12  2  0
  7  8  1  0
  8  9  2  0
  9 10  1  0
 11 10  2  0
 12 11  1  0
 13 14  2  0
 15 13  1  0
 15 16  1  0
 16 17  1  1
 18 17  1  0
 19 16  1  0
 19 20  2  0
 22 21  1  0
 23 22  1  0
 23 24  1  0
 25 24  1  6
 25 26  1  0
 25 27  1  0
 26 19  1  0
 27 29  1  0
 28 27  2  0
M  END
$$$$
