WCM.pdb
     RDKit          3D

 29 30  0  0  1  0  0  0  0  0999 V2000
   26.6082  -18.3136  -16.9467 N   0  0  0  0  0  0  0  0  0  0  0  0
   26.4584  -18.9878  -15.6756 C   0  0  1  0  0  0  0  0  0  0  0  0
   27.2538  -18.4868  -14.5533 C   0  0  0  0  0  0  0  0  0  0  0  0
   28.3909  -19.1883  -14.0564 C   0  0  0  0  0  0  0  0  0  0  0  0
   29.6610  -19.1419  -14.6111 C   0  0  0  0  0  0  0  0  0  0  0  0
   30.4762  -19.9168  -13.9171 N   0  0  0  0  0  0  0  0  0  0  0  0
   29.8204  -20.5046  -12.8948 C   0  0  0  0  0  0  0  0  0  0  0  0
   30.1755  -21.3782  -11.8894 C   0  0  0  0  0  0  0  0  0  0  0  0
   29.2285  -21.7928  -10.9755 C   0  0  0  0  0  0  0  0  0  0  0  0
   27.9288  -21.3310  -11.0710 C   0  0  0  0  0  0  0  0  0  0  0  0
   27.5590  -20.4545  -12.0744 C   0  0  0  0  0  0  0  0  0  0  0  0
   28.5032  -20.0394  -12.9890 C   0  0  0  0  0  0  0  0  0  0  0  0
   25.0473  -19.3107  -15.3567 C   0  0  0  0  0  0  0  0  0  0  0  0
   24.2020  -18.3885  -15.5438 O   0  0  0  0  0  0  0  0  0  0  0  0
   24.5595  -20.5357  -14.8697 N   0  0  0  0  0  0  0  0  0  0  0  0
   23.3093  -20.7025  -14.1767 C   0  0  1  0  0  0  0  0  0  0  0  0
   22.4899  -21.6945  -14.9968 C   0  0  0  0  0  0  0  0  0  0  0  0
   20.9622  -21.9860  -14.0249 S   0  0  0  0  0  0  0  0  0  0  0  0
   23.4774  -21.1365  -12.7760 C   0  0  0  0  0  0  0  0  0  0  0  0
   24.0494  -22.2391  -12.5780 O   0  0  0  0  0  0  0  0  0  0  0  0
   26.9219  -19.9307   -6.3705 C   0  0  0  0  0  0  0  0  0  0  0  0
   25.8230  -19.2110   -7.5966 S   0  0  0  0  0  0  0  0  0  0  0  0
   24.8079  -20.4148   -8.4196 C   0  0  0  0  0  0  0  0  0  0  0  0
   23.9844  -19.9811   -9.5542 C   0  0  0  0  0  0  0  0  0  0  0  0
   23.1049  -20.9399  -10.2636 C   0  0  2  0  0  0  0  0  0  0  0  0
   23.0456  -20.4088  -11.6571 N   0  0  0  0  0  0  0  0  0  0  0  0
   21.7421  -20.9556   -9.7064 C   0  0  0  0  0  0  0  0  0  0  0  0
   20.7735  -20.2736  -10.0930 O   0  0  0  0  0  0  0  0  0  0  0  0
   21.4428  -21.8131   -8.6202 O   0  0  0  0  0  0  0  0  0  0  0  0
  2  3  1  0
  2  1  1  6
  2 13  1  0
  4  3  1  0
  4 12  1  0
  5  6  1  0
  5  4  2  0
  6  7  1  0
  7 12  2  0
  7  8  1  0
  8  9  2  0
  9 10  1  0
 11 10  2  0
 12 11  1  0
 13 14  2  0
 15 13  1  0
 15 16  1  0
 16 17  1  6
 18 17  1  0
 19 16  1  0
 19 20  2  0
 22 21  1  0
 23 22  1  0
 23 24  1  0
 25 24  1  1
 25 26  1  0
 25 27  1  0
 26 19  1  0
 27 29  1  0
 28 27  2  0
M  END
$$$$
