WCM.pdb
     RDKit          3D

 29 30  0  0  1  0  0  0  0  0999 V2000
   26.3111  -18.9175  -11.9150 N   0  0  0  0  0  0  0  0  0  0  0  0
   26.6227  -20.3207  -12.0779 C   0  0  1  0  0  0  0  0  0  0  0  0
   26.3428  -21.2052  -10.9453 C   0  0  0  0  0  0  0  0  0  0  0  0
   26.4247  -20.7572   -9.5946 C   0  0  0  0  0  0  0  0  0  0  0  0
   25.3669  -20.2429   -8.8599 C   0  0  0  0  0  0  0  0  0  0  0  0
   25.7866  -19.9108   -7.6515 N   0  0  0  0  0  0  0  0  0  0  0  0
   27.1027  -20.1750   -7.5144 C   0  0  0  0  0  0  0  0  0  0  0  0
   28.0196  -20.0311   -6.4953 C   0  0  0  0  0  0  0  0  0  0  0  0
   29.3298  -20.4163   -6.6926 C   0  0  0  0  0  0  0  0  0  0  0  0
   29.7178  -20.9446   -7.9100 C   0  0  0  0  0  0  0  0  0  0  0  0
   28.8084  -21.0945   -8.9407 C   0  0  0  0  0  0  0  0  0  0  0  0
   27.4991  -20.7098   -8.7462 C   0  0  0  0  0  0  0  0  0  0  0  0
   26.2287  -20.8489  -13.4056 C   0  0  0  0  0  0  0  0  0  0  0  0
   25.1174  -20.4532  -13.8623 O   0  0  0  0  0  0  0  0  0  0  0  0
   26.9659  -21.7414  -14.2027 N   0  0  0  0  0  0  0  0  0  0  0  0
   26.5319  -22.2536  -15.4755 C   0  0  1  0  0  0  0  0  0  0  0  0
   27.7496  -22.9171  -16.1121 C   0  0  0  0  0  0  0  0  0  0  0  0
   29.0405  -21.6157  -16.1679 S   0  0  0  0  0  0  0  0  0  0  0  0
   25.3835  -23.1745  -15.3678 C   0  0  0  0  0  0  0  0  0  0  0  0
   25.4601  -24.0952  -14.5141 O   0  0  0  0  0  0  0  0  0  0  0  0
   19.5158  -21.5869  -11.6570 C   0  0  0  0  0  0  0  0  0  0  0  0
   21.1342  -21.4572  -12.4271 S   0  0  0  0  0  0  0  0  0  0  0  0
   21.3650  -22.5995  -13.7682 C   0  0  0  0  0  0  0  0  0  0  0  0
   22.6317  -22.5667  -14.5084 C   0  0  0  0  0  0  0  0  0  0  0  0
   22.8706  -23.4875  -15.6446 C   0  0  2  0  0  0  0  0  0  0  0  0
   24.2199  -23.0947  -16.1472 N   0  0  0  0  0  0  0  0  0  0  0  0
   21.8902  -23.2959  -16.7263 C   0  0  0  0  0  0  0  0  0  0  0  0
   21.9237  -22.4209  -17.6129 O   0  0  0  0  0  0  0  0  0  0  0  0
   20.7755  -24.1640  -16.8188 O   0  0  0  0  0  0  0  0  0  0  0  0
  2  3  1  0
  2  1  1  1
  2 13  1  0
  4  3  1  0
  4 12  1  0
  5  6  1  0
  5  4  2  0
  6  7  1  0
  7 12  2  0
  7  8  1  0
  8  9  2  0
  9 10  1  0
 11 10  2  0
 12 11  1  0
 13 14  2  0
 15 13  1  0
 15 16  1  0
 16 17  1  1
 18 17  1  0
 19 16  1  0
 19 20  2  0
 22 21  1  0
 23 22  1  0
 23 24  1  0
 25 24  1  1
 25 26  1  0
 25 27  1  0
 26 19  1  0
 27 29  1  0
 28 27  2  0
M  END
$$$$
