WCM.pdb
     RDKit          3D

 29 30  0  0  1  0  0  0  0  0999 V2000
   15.4200  -15.8118    4.7097 N   0  0  0  0  0  0  0  0  0  0  0  0
   16.6328  -16.5654    4.9422 C   0  0  1  0  0  0  0  0  0  0  0  0
   17.8410  -15.8064    5.2701 C   0  0  0  0  0  0  0  0  0  0  0  0
   18.3803  -14.8221    4.3913 C   0  0  0  0  0  0  0  0  0  0  0  0
   18.3222  -13.4520    4.5975 C   0  0  0  0  0  0  0  0  0  0  0  0
   18.9027  -12.8268    3.5881 N   0  0  0  0  0  0  0  0  0  0  0  0
   19.3658  -13.7125    2.6815 C   0  0  0  0  0  0  0  0  0  0  0  0
   20.0335  -13.6108    1.4799 C   0  0  0  0  0  0  0  0  0  0  0  0
   20.3725  -14.7538    0.7853 C   0  0  0  0  0  0  0  0  0  0  0  0
   20.0421  -15.9953    1.2963 C   0  0  0  0  0  0  0  0  0  0  0  0
   19.3726  -16.1118    2.5004 C   0  0  0  0  0  0  0  0  0  0  0  0
   19.0322  -14.9713    3.1959 C   0  0  0  0  0  0  0  0  0  0  0  0
   16.4086  -17.7817    5.7591 C   0  0  0  0  0  0  0  0  0  0  0  0
   16.0698  -17.5969    6.9638 O   0  0  0  0  0  0  0  0  0  0  0  0
   16.5344  -19.1135    5.3277 N   0  0  0  0  0  0  0  0  0  0  0  0
   16.8338  -20.2283    6.1870 C   0  0  1  0  0  0  0  0  0  0  0  0
   16.2151  -21.4586    5.5299 C   0  0  0  0  0  0  0  0  0  0  0  0
   16.6241  -22.8611    6.6384 S   0  0  0  0  0  0  0  0  0  0  0  0
   18.2788  -20.3937    6.4385 C   0  0  0  0  0  0  0  0  0  0  0  0
   19.0562  -20.2376    5.4621 O   0  0  0  0  0  0  0  0  0  0  0  0
   24.0744  -18.9306   11.4140 C   0  0  0  0  0  0  0  0  0  0  0  0
   22.3821  -18.8167   10.8206 S   0  0  0  0  0  0  0  0  0  0  0  0
   21.9966  -20.0179    9.5694 C   0  0  0  0  0  0  0  0  0  0  0  0
   20.6846  -19.9539    8.9150 C   0  0  0  0  0  0  0  0  0  0  0  0
   20.3013  -20.9477    7.8848 C   0  0  2  0  0  0  0  0  0  0  0  0
   18.8415  -20.7111    7.6837 N   0  0  0  0  0  0  0  0  0  0  0  0
   20.4949  -22.3305    8.3524 C   0  0  0  0  0  0  0  0  0  0  0  0
   19.6369  -23.0627    8.8819 O   0  0  0  0  0  0  0  0  0  0  0  0
   21.7638  -22.9428    8.2117 O   0  0  0  0  0  0  0  0  0  0  0  0
  2  3  1  0
  2  1  1  1
  2 13  1  0
  4  3  1  0
  4 12  1  0
  5  6  1  0
  5  4  2  0
  6  7  1  0
  7 12  2  0
  7  8  1  0
  8  9  2  0
  9 10  1  0
 11 10  2  0
 12 11  1  0
 13 14  2  0
 15 13  1  0
 15 16  1  0
 16 17  1  6
 18 17  1  0
 19 16  1  0
 19 20  2  0
 22 21  1  0
 23 22  1  0
 23 24  1  0
 25 24  1  1
 25 26  1  0
 25 27  1  0
 26 19  1  0
 27 29  1  0
 28 27  2  0
M  END
$$$$
