WCM.pdb
     RDKit          3D

 29 30  0  0  1  0  0  0  0  0999 V2000
   26.1578  -18.7160  -12.5295 N   0  0  0  0  0  0  0  0  0  0  0  0
   26.3713  -20.1442  -12.6149 C   0  0  1  0  0  0  0  0  0  0  0  0
   25.8931  -20.9613  -11.4983 C   0  0  0  0  0  0  0  0  0  0  0  0
   26.2263  -20.6652  -10.1443 C   0  0  0  0  0  0  0  0  0  0  0  0
   25.3607  -20.1109   -9.2135 C   0  0  0  0  0  0  0  0  0  0  0  0
   25.9898  -19.9534   -8.0619 N   0  0  0  0  0  0  0  0  0  0  0  0
   27.2671  -20.3787   -8.1542 C   0  0  0  0  0  0  0  0  0  0  0  0
   28.3325  -20.4447   -7.2822 C   0  0  0  0  0  0  0  0  0  0  0  0
   29.5401  -20.9549   -7.7129 C   0  0  0  0  0  0  0  0  0  0  0  0
   29.6769  -21.3976   -9.0155 C   0  0  0  0  0  0  0  0  0  0  0  0
   28.6164  -21.3371   -9.9006 C   0  0  0  0  0  0  0  0  0  0  0  0
   27.4092  -20.8273   -9.4729 C   0  0  0  0  0  0  0  0  0  0  0  0
   26.0901  -20.6898  -13.9641 C   0  0  0  0  0  0  0  0  0  0  0  0
   25.1448  -20.1469  -14.6058 O   0  0  0  0  0  0  0  0  0  0  0  0
   26.7683  -21.7459  -14.5969 N   0  0  0  0  0  0  0  0  0  0  0  0
   26.4686  -22.2390  -15.9152 C   0  0  1  0  0  0  0  0  0  0  0  0
   27.5756  -23.2279  -16.2685 C   0  0  0  0  0  0  0  0  0  0  0  0
   27.2163  -23.7698  -17.9832 S   0  0  0  0  0  0  0  0  0  0  0  0
   25.1250  -22.8416  -16.0162 C   0  0  0  0  0  0  0  0  0  0  0  0
   24.8066  -23.6914  -15.1453 O   0  0  0  0  0  0  0  0  0  0  0  0
   20.0165  -19.5284  -16.5119 C   0  0  0  0  0  0  0  0  0  0  0  0
   19.3254  -21.0004  -17.2765 S   0  0  0  0  0  0  0  0  0  0  0  0
   20.4501  -22.3759  -17.2901 C   0  0  0  0  0  0  0  0  0  0  0  0
   21.8821  -22.1139  -17.1052 C   0  0  0  0  0  0  0  0  0  0  0  0
   22.8655  -23.2222  -17.1294 C   0  0  2  0  0  0  0  0  0  0  0  0
   24.1845  -22.5340  -17.0106 N   0  0  0  0  0  0  0  0  0  0  0  0
   22.8325  -23.9620  -18.4020 C   0  0  0  0  0  0  0  0  0  0  0  0
   23.5311  -23.7390  -19.4094 O   0  0  0  0  0  0  0  0  0  0  0  0
   21.9359  -25.0472  -18.5545 O   0  0  0  0  0  0  0  0  0  0  0  0
  2  3  1  0
  2  1  1  6
  2 13  1  0
  4  3  1  0
  4 12  1  0
  5  6  1  0
  5  4  2  0
  6  7  1  0
  7 12  2  0
  7  8  1  0
  8  9  2  0
  9 10  1  0
 11 10  2  0
 12 11  1  0
 13 14  2  0
 15 13  1  0
 15 16  1  0
 16 17  1  1
 18 17  1  0
 19 16  1  0
 19 20  2  0
 22 21  1  0
 23 22  1  0
 23 24  1  0
 25 24  1  6
 25 26  1  0
 25 27  1  0
 26 19  1  0
 27 29  1  0
 28 27  2  0
M  END
$$$$
