WCM.pdb
     RDKit          3D

 29 30  0  0  1  0  0  0  0  0999 V2000
   23.4892  -13.8139  -18.6080 N   0  0  0  0  0  0  0  0  0  0  0  0
   23.9255  -13.2482  -17.3501 C   0  0  1  0  0  0  0  0  0  0  0  0
   25.3538  -12.9618  -17.2036 C   0  0  0  0  0  0  0  0  0  0  0  0
   26.3448  -13.9829  -17.2882 C   0  0  0  0  0  0  0  0  0  0  0  0
   27.2321  -14.1472  -18.3412 C   0  0  0  0  0  0  0  0  0  0  0  0
   28.0040  -15.1949  -18.1111 N   0  0  0  0  0  0  0  0  0  0  0  0
   27.6878  -15.7704  -16.9323 C   0  0  0  0  0  0  0  0  0  0  0  0
   28.1604  -16.8552  -16.2251 C   0  0  0  0  0  0  0  0  0  0  0  0
   27.5963  -17.1785  -15.0081 C   0  0  0  0  0  0  0  0  0  0  0  0
   26.5608  -16.4143  -14.5027 C   0  0  0  0  0  0  0  0  0  0  0  0
   26.0772  -15.3237  -15.2015 C   0  0  0  0  0  0  0  0  0  0  0  0
   26.6386  -14.9990  -16.4179 C   0  0  0  0  0  0  0  0  0  0  0  0
   23.0139  -12.1945  -16.8443 C   0  0  0  0  0  0  0  0  0  0  0  0
   22.4546  -11.4674  -17.7153 O   0  0  0  0  0  0  0  0  0  0  0  0
   22.7115  -11.9264  -15.4981 N   0  0  0  0  0  0  0  0  0  0  0  0
   21.8036  -10.9037  -15.0502 C   0  0  1  0  0  0  0  0  0  0  0  0
   21.2785  -11.3570  -13.6912 C   0  0  0  0  0  0  0  0  0  0  0  0
   20.0982  -10.0555  -13.1656 S   0  0  0  0  0  0  0  0  0  0  0  0
   22.4220   -9.5646  -14.9944 C   0  0  0  0  0  0  0  0  0  0  0  0
   23.5819   -9.4841  -14.5145 O   0  0  0  0  0  0  0  0  0  0  0  0
   23.3199   -3.0491  -19.1463 C   0  0  0  0  0  0  0  0  0  0  0  0
   22.8443   -4.7615  -18.8810 S   0  0  0  0  0  0  0  0  0  0  0  0
   22.9238   -5.2540  -17.1757 C   0  0  0  0  0  0  0  0  0  0  0  0
   22.3990   -6.5720  -16.8002 C   0  0  0  0  0  0  0  0  0  0  0  0
   22.4806   -7.0504  -15.4001 C   0  0  2  0  0  0  0  0  0  0  0  0
   21.8091   -8.3827  -15.4365 N   0  0  0  0  0  0  0  0  0  0  0  0
   21.7427   -6.1755  -14.4737 C   0  0  0  0  0  0  0  0  0  0  0  0
   20.5545   -6.3015  -14.1204 O   0  0  0  0  0  0  0  0  0  0  0  0
   22.3986   -5.0625  -13.8942 O   0  0  0  0  0  0  0  0  0  0  0  0
  2  3  1  0
  2  1  1  6
  2 13  1  0
  4  3  1  0
  4 12  1  0
  5  6  1  0
  5  4  2  0
  6  7  1  0
  7 12  2  0
  7  8  1  0
  8  9  2  0
  9 10  1  0
 11 10  2  0
 12 11  1  0
 13 14  2  0
 15 13  1  0
 15 16  1  0
 16 17  1  1
 18 17  1  0
 19 16  1  0
 19 20  2  0
 22 21  1  0
 23 22  1  0
 23 24  1  0
 25 24  1  6
 25 26  1  0
 25 27  1  0
 26 19  1  0
 27 29  1  0
 28 27  2  0
M  END
$$$$
