WCM.pdb
     RDKit          3D

 29 30  0  0  1  0  0  0  0  0999 V2000
   24.4127  -19.3987  -10.9107 N   0  0  0  0  0  0  0  0  0  0  0  0
   25.5522  -20.1815  -11.3366 C   0  0  1  0  0  0  0  0  0  0  0  0
   26.1184  -21.1226  -10.3685 C   0  0  0  0  0  0  0  0  0  0  0  0
   26.4825  -20.7259   -9.0486 C   0  0  0  0  0  0  0  0  0  0  0  0
   25.5889  -20.4340   -8.0291 C   0  0  0  0  0  0  0  0  0  0  0  0
   26.2551  -20.0870   -6.9417 N   0  0  0  0  0  0  0  0  0  0  0  0
   27.5853  -20.1259   -7.1646 C   0  0  0  0  0  0  0  0  0  0  0  0
   28.7043  -19.8702   -6.4014 C   0  0  0  0  0  0  0  0  0  0  0  0
   29.9597  -20.0148   -6.9556 C   0  0  0  0  0  0  0  0  0  0  0  0
   30.0906  -20.4152   -8.2725 C   0  0  0  0  0  0  0  0  0  0  0  0
   28.9766  -20.6749   -9.0493 C   0  0  0  0  0  0  0  0  0  0  0  0
   27.7214  -20.5307   -8.4980 C   0  0  0  0  0  0  0  0  0  0  0  0
   25.4108  -20.7024  -12.7170 C   0  0  0  0  0  0  0  0  0  0  0  0
   24.2335  -20.9493  -13.1084 O   0  0  0  0  0  0  0  0  0  0  0  0
   26.4520  -20.9470  -13.6291 N   0  0  0  0  0  0  0  0  0  0  0  0
   26.2661  -21.2365  -15.0264 C   0  0  1  0  0  0  0  0  0  0  0  0
   27.6614  -21.3493  -15.6335 C   0  0  0  0  0  0  0  0  0  0  0  0
   28.7289  -21.9895  -14.2866 S   0  0  0  0  0  0  0  0  0  0  0  0
   25.4518  -22.4444  -15.2639 C   0  0  0  0  0  0  0  0  0  0  0  0
   25.7888  -23.4956  -14.6609 O   0  0  0  0  0  0  0  0  0  0  0  0
   18.5201  -24.7461  -13.7386 C   0  0  0  0  0  0  0  0  0  0  0  0
   19.9464  -23.6540  -13.7851 S   0  0  0  0  0  0  0  0  0  0  0  0
   21.1708  -24.1517  -14.9725 C   0  0  0  0  0  0  0  0  0  0  0  0
   22.3694  -23.3208  -15.1355 C   0  0  0  0  0  0  0  0  0  0  0  0
   23.3956  -23.6599  -16.1493 C   0  0  2  0  0  0  0  0  0  0  0  0
   24.3348  -22.5007  -16.1108 N   0  0  0  0  0  0  0  0  0  0  0  0
   22.8235  -23.7587  -17.5025 C   0  0  0  0  0  0  0  0  0  0  0  0
   22.6651  -22.8248  -18.3121 O   0  0  0  0  0  0  0  0  0  0  0  0
   22.3926  -25.0174  -17.9871 O   0  0  0  0  0  0  0  0  0  0  0  0
  2  3  1  0
  2  1  1  1
  2 13  1  0
  4  3  1  0
  4 12  1  0
  5  6  1  0
  5  4  2  0
  6  7  1  0
  7 12  2  0
  7  8  1  0
  8  9  2  0
  9 10  1  0
 11 10  2  0
 12 11  1  0
 13 14  2  0
 15 13  1  0
 15 16  1  0
 16 17  1  1
 18 17  1  0
 19 16  1  0
 19 20  2  0
 22 21  1  0
 23 22  1  0
 23 24  1  0
 25 24  1  1
 25 26  1  0
 25 27  1  0
 26 19  1  0
 27 29  1  0
 28 27  2  0
M  END
$$$$
