WCM.pdb
     RDKit          3D

 29 30  0  0  1  0  0  0  0  0999 V2000
   26.3001  -21.3175   -9.7926 N   0  0  0  0  0  0  0  0  0  0  0  0
   25.4888  -21.0319   -8.6295 C   0  0  1  0  0  0  0  0  0  0  0  0
   25.5856  -19.6872   -8.0586 C   0  0  0  0  0  0  0  0  0  0  0  0
   26.7073  -19.2711   -7.2836 C   0  0  0  0  0  0  0  0  0  0  0  0
   27.4842  -18.1521   -7.5429 C   0  0  0  0  0  0  0  0  0  0  0  0
   28.4489  -18.0642   -6.6438 N   0  0  0  0  0  0  0  0  0  0  0  0
   28.3742  -19.0837   -5.7630 C   0  0  0  0  0  0  0  0  0  0  0  0
   29.1042  -19.4659   -4.6580 C   0  0  0  0  0  0  0  0  0  0  0  0
   28.7443  -20.5986   -3.9570 C   0  0  0  0  0  0  0  0  0  0  0  0
   27.6541  -21.3450   -4.3647 C   0  0  0  0  0  0  0  0  0  0  0  0
   26.9132  -20.9730   -5.4712 C   0  0  0  0  0  0  0  0  0  0  0  0
   27.2712  -19.8422   -6.1735 C   0  0  0  0  0  0  0  0  0  0  0  0
   24.1142  -21.5760   -8.7371 C   0  0  0  0  0  0  0  0  0  0  0  0
   23.6921  -21.8136   -9.9056 O   0  0  0  0  0  0  0  0  0  0  0  0
   23.2390  -21.8529   -7.6728 N   0  0  0  0  0  0  0  0  0  0  0  0
   22.0062  -22.5852   -7.7950 C   0  0  1  0  0  0  0  0  0  0  0  0
   21.4769  -22.7797   -6.3771 C   0  0  0  0  0  0  0  0  0  0  0  0
   21.7778  -21.1858   -5.5215 S   0  0  0  0  0  0  0  0  0  0  0  0
   21.0237  -21.9220   -8.6744 C   0  0  0  0  0  0  0  0  0  0  0  0
   21.0823  -20.6687   -8.7635 O   0  0  0  0  0  0  0  0  0  0  0  0
   18.8071  -24.3369  -14.0532 C   0  0  0  0  0  0  0  0  0  0  0  0
   17.4547  -23.1864  -13.7767 S   0  0  0  0  0  0  0  0  0  0  0  0
   17.5769  -22.3210  -12.2298 C   0  0  0  0  0  0  0  0  0  0  0  0
   18.6887  -22.6466  -11.3290 C   0  0  0  0  0  0  0  0  0  0  0  0
   18.8949  -21.8875  -10.0731 C   0  0  2  0  0  0  0  0  0  0  0  0
   20.0350  -22.5889   -9.4131 N   0  0  0  0  0  0  0  0  0  0  0  0
   17.7213  -21.9572   -9.1866 C   0  0  0  0  0  0  0  0  0  0  0  0
   17.5087  -22.8076   -8.3010 O   0  0  0  0  0  0  0  0  0  0  0  0
   16.6982  -20.9858   -9.3066 O   0  0  0  0  0  0  0  0  0  0  0  0
  2  3  1  0
  2  1  1  6
  2 13  1  0
  4  3  1  0
  4 12  1  0
  5  6  1  0
  5  4  2  0
  6  7  1  0
  7 12  2  0
  7  8  1  0
  8  9  2  0
  9 10  1  0
 11 10  2  0
 12 11  1  0
 13 14  2  0
 15 13  1  0
 15 16  1  0
 16 17  1  1
 18 17  1  0
 19 16  1  0
 19 20  2  0
 22 21  1  0
 23 22  1  0
 23 24  1  0
 25 24  1  6
 25 26  1  0
 25 27  1  0
 26 19  1  0
 27 29  1  0
 28 27  2  0
M  END
$$$$
