WCM.pdb
     RDKit          3D

 29 30  0  0  1  0  0  0  0  0999 V2000
   27.0094  -20.7671  -13.3092 N   0  0  0  0  0  0  0  0  0  0  0  0
   25.9563  -20.5337  -12.3453 C   0  0  1  0  0  0  0  0  0  0  0  0
   24.5773  -20.7155  -12.8021 C   0  0  0  0  0  0  0  0  0  0  0  0
   24.0688  -20.0578  -13.9600 C   0  0  0  0  0  0  0  0  0  0  0  0
   24.8259  -19.6787  -15.0582 C   0  0  0  0  0  0  0  0  0  0  0  0
   24.0505  -19.0812  -15.9462 N   0  0  0  0  0  0  0  0  0  0  0  0
   22.7755  -19.0289  -15.5074 C   0  0  0  0  0  0  0  0  0  0  0  0
   21.5942  -18.5341  -16.0170 C   0  0  0  0  0  0  0  0  0  0  0  0
   20.4299  -18.6512  -15.2856 C   0  0  0  0  0  0  0  0  0  0  0  0
   20.4523  -19.2637  -14.0463 C   0  0  0  0  0  0  0  0  0  0  0  0
   21.6302  -19.7644  -13.5234 C   0  0  0  0  0  0  0  0  0  0  0  0
   22.7947  -19.6481  -14.2518 C   0  0  0  0  0  0  0  0  0  0  0  0
   26.2604  -21.1008  -11.0100 C   0  0  0  0  0  0  0  0  0  0  0  0
   26.6634  -22.2996  -10.9852 O   0  0  0  0  0  0  0  0  0  0  0  0
   26.1458  -20.4395   -9.7750 N   0  0  0  0  0  0  0  0  0  0  0  0
   25.7289  -21.0633   -8.5471 C   0  0  1  0  0  0  0  0  0  0  0  0
   26.6956  -20.5831   -7.4686 C   0  0  0  0  0  0  0  0  0  0  0  0
   26.7443  -18.7574   -7.6354 S   0  0  0  0  0  0  0  0  0  0  0  0
   24.3212  -20.7823   -8.2039 C   0  0  0  0  0  0  0  0  0  0  0  0
   23.7643  -19.8206   -8.7932 O   0  0  0  0  0  0  0  0  0  0  0  0
   17.6076  -22.4338  -10.1315 C   0  0  0  0  0  0  0  0  0  0  0  0
   19.4023  -22.4763  -10.0519 S   0  0  0  0  0  0  0  0  0  0  0  0
   20.0498  -21.8558   -8.5181 C   0  0  0  0  0  0  0  0  0  0  0  0
   21.5056  -21.7677   -8.3549 C   0  0  0  0  0  0  0  0  0  0  0  0
   22.0996  -21.3127   -7.0758 C   0  0  2  0  0  0  0  0  0  0  0  0
   23.5660  -21.5090   -7.2713 N   0  0  0  0  0  0  0  0  0  0  0  0
   21.6606  -22.1384   -5.9384 C   0  0  0  0  0  0  0  0  0  0  0  0
   20.7709  -21.8541   -5.1136 O   0  0  0  0  0  0  0  0  0  0  0  0
   22.2757  -23.3929   -5.7092 O   0  0  0  0  0  0  0  0  0  0  0  0
  2  3  1  0
  2  1  1  6
  2 13  1  0
  4  3  1  0
  4 12  1  0
  5  6  1  0
  5  4  2  0
  6  7  1  0
  7 12  2  0
  7  8  1  0
  8  9  2  0
  9 10  1  0
 11 10  2  0
 12 11  1  0
 13 14  2  0
 15 13  1  0
 15 16  1  0
 16 17  1  1
 18 17  1  0
 19 16  1  0
 19 20  2  0
 22 21  1  0
 23 22  1  0
 23 24  1  0
 25 24  1  6
 25 26  1  0
 25 27  1  0
 26 19  1  0
 27 29  1  0
 28 27  2  0
M  END
$$$$
