WCM.pdb
     RDKit          3D

 29 30  0  0  1  0  0  0  0  0999 V2000
   25.1709  -13.7029  -19.0724 N   0  0  0  0  0  0  0  0  0  0  0  0
   24.1461  -13.3196  -18.1260 C   0  0  1  0  0  0  0  0  0  0  0  0
   24.4506  -13.4877  -16.7038 C   0  0  0  0  0  0  0  0  0  0  0  0
   24.9365  -14.7179  -16.1723 C   0  0  0  0  0  0  0  0  0  0  0  0
   25.9294  -14.8340  -15.2113 C   0  0  0  0  0  0  0  0  0  0  0  0
   26.1497  -16.1115  -14.9537 N   0  0  0  0  0  0  0  0  0  0  0  0
   25.3446  -16.8945  -15.7016 C   0  0  0  0  0  0  0  0  0  0  0  0
   25.1599  -18.2546  -15.8283 C   0  0  0  0  0  0  0  0  0  0  0  0
   24.2192  -18.7390  -16.7140 C   0  0  0  0  0  0  0  0  0  0  0  0
   23.4661  -17.8598  -17.4699 C   0  0  0  0  0  0  0  0  0  0  0  0
   23.6410  -16.4933  -17.3527 C   0  0  0  0  0  0  0  0  0  0  0  0
   24.5806  -16.0069  -16.4691 C   0  0  0  0  0  0  0  0  0  0  0  0
   23.4778  -12.0458  -18.4836 C   0  0  0  0  0  0  0  0  0  0  0  0
   24.2317  -11.0942  -18.8387 O   0  0  0  0  0  0  0  0  0  0  0  0
   22.0951  -11.7939  -18.4673 N   0  0  0  0  0  0  0  0  0  0  0  0
   21.4921  -10.5150  -18.7348 C   0  0  1  0  0  0  0  0  0  0  0  0
   20.2732  -10.7870  -19.6115 C   0  0  0  0  0  0  0  0  0  0  0  0
   19.5096   -9.1461  -19.9076 S   0  0  0  0  0  0  0  0  0  0  0  0
   21.1459   -9.7703  -17.5084 C   0  0  0  0  0  0  0  0  0  0  0  0
   20.6098  -10.4172  -16.5723 O   0  0  0  0  0  0  0  0  0  0  0  0
   22.1044   -2.6546  -13.9928 C   0  0  0  0  0  0  0  0  0  0  0  0
   22.3482   -3.7834  -15.3695 S   0  0  0  0  0  0  0  0  0  0  0  0
   21.5017   -5.3319  -15.1636 C   0  0  0  0  0  0  0  0  0  0  0  0
   21.6562   -6.3598  -16.1994 C   0  0  0  0  0  0  0  0  0  0  0  0
   20.9809   -7.6728  -16.0723 C   0  0  2  0  0  0  0  0  0  0  0  0
   21.3719   -8.3992  -17.3159 N   0  0  0  0  0  0  0  0  0  0  0  0
   19.5148   -7.5393  -16.0450 C   0  0  0  0  0  0  0  0  0  0  0  0
   18.7632   -7.3996  -17.0290 O   0  0  0  0  0  0  0  0  0  0  0  0
   18.8352   -7.5657  -14.8032 O   0  0  0  0  0  0  0  0  0  0  0  0
  2  3  1  0
  2  1  1  6
  2 13  1  0
  4  3  1  0
  4 12  1  0
  5  6  1  0
  5  4  2  0
  6  7  1  0
  7 12  2  0
  7  8  1  0
  8  9  2  0
  9 10  1  0
 11 10  2  0
 12 11  1  0
 13 14  2  0
 15 13  1  0
 15 16  1  0
 16 17  1  1
 18 17  1  0
 19 16  1  0
 19 20  2  0
 22 21  1  0
 23 22  1  0
 23 24  1  0
 25 24  1  6
 25 26  1  0
 25 27  1  0
 26 19  1  0
 27 29  1  0
 28 27  2  0
M  END
$$$$
