PSY.pdb
     RDKit          3D

 26 27  0  0  1  0  0  0  0  0999 V2000
    8.2710  -14.8365   17.7067 N   0  0  0  0  0  0  0  0  0  0  0  0
    7.8563  -13.9371   16.6099 C   0  0  0  0  0  0  0  0  0  0  0  0
    7.0815  -12.9169   17.4557 C   0  0  0  0  0  0  0  0  0  0  0  0
    8.0849  -12.6288   18.5428 C   0  0  0  0  0  0  0  0  0  0  0  0
    8.7814  -13.9591   18.7158 C   0  0  1  0  0  0  0  0  0  0  0  0
    8.5837  -14.4202   20.1067 C   0  0  0  0  0  0  0  0  0  0  0  0
    9.0824  -13.7615   21.0875 O   0  0  0  0  0  0  0  0  0  0  0  0
    7.4318  -18.2386   21.4173 O   0  0  0  0  0  0  0  0  0  0  0  0
    6.7076  -17.1349   21.8485 C   0  0  0  0  0  0  0  0  0  0  0  0
    7.5827  -15.8943   21.8199 C   0  0  2  0  0  0  0  0  0  0  0  0
    7.8494  -15.5903   20.4326 N   0  0  0  0  0  0  0  0  0  0  0  0
    8.8392  -16.1219   22.5790 C   0  0  0  0  0  0  0  0  0  0  0  0
    9.8849  -16.4099   21.9591 O   0  0  0  0  0  0  0  0  0  0  0  0
    9.9334  -15.4491   31.0669 O   0  0  0  0  0  0  0  0  0  0  0  0
    9.9956  -15.2845   29.6797 C   0  0  0  0  0  0  0  0  0  0  0  0
   10.6431  -16.2009   28.8732 C   0  0  0  0  0  0  0  0  0  0  0  0
   10.7073  -16.0433   27.5052 C   0  0  0  0  0  0  0  0  0  0  0  0
   10.1212  -14.9599   26.9210 C   0  0  0  0  0  0  0  0  0  0  0  0
   10.1639  -14.7386   25.4706 C   0  0  0  0  0  0  0  0  0  0  0  0
   10.0497  -16.0638   24.7518 C   0  0  2  0  0  0  0  0  0  0  0  0
    8.7983  -16.0016   23.9856 N   0  0  0  0  0  0  0  0  0  0  0  0
    9.9492  -17.2206   25.6535 C   0  0  0  0  0  0  0  0  0  0  0  0
   11.0587  -17.8052   26.2370 O   0  0  0  0  0  0  0  0  0  0  0  0
    9.4674  -14.0276   27.6988 C   0  0  0  0  0  0  0  0  0  0  0  0
    9.4175  -14.2056   29.0484 C   0  0  0  0  0  0  0  0  0  0  0  0
    8.8311  -17.7148   25.9205 O   0  0  0  0  0  0  0  0  0  0  0  0
  1  2  1  0
  3  2  1  0
  4  3  1  0
  4  5  1  0
  5  6  1  1
  5  1  1  0
  6  7  2  0
 10  9  1  6
  9  8  1  0
 11  6  1  0
 11 10  1  0
 12 10  1  0
 12 21  1  0
 13 12  2  0
 15 14  1  0
 16 15  2  0
 17 16  1  0
 18 24  1  0
 18 17  2  0
 19 18  1  0
 20 21  1  0
 20 19  1  1
 22 20  1  0
 23 22  1  0
 24 25  2  0
 25 15  1  0
 26 22  2  0
M  END
$$$$
