PSY.pdb
     RDKit          3D

 26 27  0  0  1  0  0  0  0  0999 V2000
    9.5879  -13.9296   19.8369 N   0  0  0  0  0  0  0  0  0  0  0  0
    9.7664  -13.2789   18.5221 C   0  0  0  0  0  0  0  0  0  0  0  0
    8.5379  -13.8773   17.8225 C   0  0  0  0  0  0  0  0  0  0  0  0
    7.4648  -13.5956   18.8426 C   0  0  0  0  0  0  0  0  0  0  0  0
    8.2070  -13.7256   20.1530 C   0  0  1  0  0  0  0  0  0  0  0  0
    7.5795  -14.8029   20.9480 C   0  0  0  0  0  0  0  0  0  0  0  0
    6.6433  -15.5211   20.4458 O   0  0  0  0  0  0  0  0  0  0  0  0
   10.2187  -17.8527   21.6377 O   0  0  0  0  0  0  0  0  0  0  0  0
    9.5958  -16.6268   21.4441 C   0  0  0  0  0  0  0  0  0  0  0  0
    8.6094  -16.3607   22.5675 C   0  0  2  0  0  0  0  0  0  0  0  0
    7.9647  -15.0995   22.2815 N   0  0  0  0  0  0  0  0  0  0  0  0
    9.3051  -16.3317   23.8797 C   0  0  0  0  0  0  0  0  0  0  0  0
   10.5536  -16.2993   23.9097 O   0  0  0  0  0  0  0  0  0  0  0  0
    5.9933  -10.8215   25.8661 O   0  0  0  0  0  0  0  0  0  0  0  0
    6.5261  -12.0605   26.2351 C   0  0  0  0  0  0  0  0  0  0  0  0
    7.8516  -12.1950   26.6019 C   0  0  0  0  0  0  0  0  0  0  0  0
    8.3817  -13.4142   26.9665 C   0  0  0  0  0  0  0  0  0  0  0  0
    7.5886  -14.5230   26.9692 C   0  0  0  0  0  0  0  0  0  0  0  0
    8.1014  -15.8467   27.3423 C   0  0  0  0  0  0  0  0  0  0  0  0
    9.1731  -16.2698   26.3634 C   0  0  2  0  0  0  0  0  0  0  0  0
    8.5168  -16.3420   25.0516 N   0  0  0  0  0  0  0  0  0  0  0  0
    9.7373  -17.5989   26.6399 C   0  0  0  0  0  0  0  0  0  0  0  0
   10.5909  -17.8363   27.7021 O   0  0  0  0  0  0  0  0  0  0  0  0
    6.2615  -14.4213   26.6082 C   0  0  0  0  0  0  0  0  0  0  0  0
    5.7610  -13.2055   26.2520 C   0  0  0  0  0  0  0  0  0  0  0  0
    9.4517  -18.5692   25.9034 O   0  0  0  0  0  0  0  0  0  0  0  0
  1  2  1  0
  3  2  1  0
  4  3  1  0
  4  5  1  0
  5  6  1  6
  5  1  1  0
  6  7  2  0
 10  9  1  6
  9  8  1  0
 11  6  1  0
 11 10  1  0
 12 10  1  0
 12 21  1  0
 13 12  2  0
 15 14  1  0
 16 15  2  0
 17 16  1  0
 18 24  1  0
 18 17  2  0
 19 18  1  0
 20 21  1  0
 20 19  1  1
 22 20  1  0
 23 22  1  0
 24 25  2  0
 25 15  1  0
 26 22  2  0
M  END
$$$$
