PSY.pdb
     RDKit          3D

 26 27  0  0  1  0  0  0  0  0999 V2000
    9.2023  -14.0225   18.3417 N   0  0  0  0  0  0  0  0  0  0  0  0
    8.3561  -13.1635   17.4872 C   0  0  0  0  0  0  0  0  0  0  0  0
    7.0252  -13.3832   18.2201 C   0  0  0  0  0  0  0  0  0  0  0  0
    7.4405  -13.1266   19.6461 C   0  0  0  0  0  0  0  0  0  0  0  0
    8.8599  -13.6455   19.6792 C   0  0  1  0  0  0  0  0  0  0  0  0
    8.9438  -14.7322   20.6785 C   0  0  0  0  0  0  0  0  0  0  0  0
    8.5444  -14.5415   21.8821 O   0  0  0  0  0  0  0  0  0  0  0  0
   11.1566  -18.3212   20.2875 O   0  0  0  0  0  0  0  0  0  0  0  0
    9.8435  -18.3460   20.7385 C   0  0  0  0  0  0  0  0  0  0  0  0
    9.4980  -17.0279   21.4085 C   0  0  2  0  0  0  0  0  0  0  0  0
    9.4592  -16.0192   20.3744 N   0  0  0  0  0  0  0  0  0  0  0  0
   10.4968  -16.6952   22.4566 C   0  0  0  0  0  0  0  0  0  0  0  0
   11.2779  -15.7372   22.2753 O   0  0  0  0  0  0  0  0  0  0  0  0
   10.5368  -13.9209   30.4896 O   0  0  0  0  0  0  0  0  0  0  0  0
   10.4175  -14.3815   29.1747 C   0  0  0  0  0  0  0  0  0  0  0  0
   11.1897  -15.4263   28.7039 C   0  0  0  0  0  0  0  0  0  0  0  0
   11.0759  -15.8842   27.4085 C   0  0  0  0  0  0  0  0  0  0  0  0
   10.1827  -15.2996   26.5606 C   0  0  0  0  0  0  0  0  0  0  0  0
   10.0242  -15.7422   25.1701 C   0  0  0  0  0  0  0  0  0  0  0  0
   10.9709  -16.8875   24.8914 C   0  0  2  0  0  0  0  0  0  0  0  0
   10.5216  -17.4849   23.6272 N   0  0  0  0  0  0  0  0  0  0  0  0
   10.9348  -17.9476   25.9092 C   0  0  0  0  0  0  0  0  0  0  0  0
   10.0792  -19.0309   25.8223 O   0  0  0  0  0  0  0  0  0  0  0  0
    9.3976  -14.2548   27.0007 C   0  0  0  0  0  0  0  0  0  0  0  0
    9.5284  -13.8204   28.2851 C   0  0  0  0  0  0  0  0  0  0  0  0
   11.6953  -17.8933   26.9013 O   0  0  0  0  0  0  0  0  0  0  0  0
  1  2  1  0
  3  2  1  0
  4  3  1  0
  4  5  1  0
  5  6  1  1
  5  1  1  0
  6  7  2  0
 10  9  1  6
  9  8  1  0
 11  6  1  0
 11 10  1  0
 12 10  1  0
 12 21  1  0
 13 12  2  0
 15 14  1  0
 16 15  2  0
 17 16  1  0
 18 24  1  0
 18 17  2  0
 19 18  1  0
 20 21  1  0
 20 19  1  1
 22 20  1  0
 23 22  1  0
 24 25  2  0
 25 15  1  0
 26 22  2  0
M  END
$$$$
