PSY.pdb
     RDKit          3D

 26 27  0  0  1  0  0  0  0  0999 V2000
    9.0486  -14.4566   18.5022 N   0  0  0  0  0  0  0  0  0  0  0  0
    8.6899  -13.6072   17.3472 C   0  0  0  0  0  0  0  0  0  0  0  0
    7.2961  -13.1779   17.8264 C   0  0  0  0  0  0  0  0  0  0  0  0
    7.6051  -12.7265   19.2308 C   0  0  0  0  0  0  0  0  0  0  0  0
    8.7152  -13.6644   19.6466 C   0  0  1  0  0  0  0  0  0  0  0  0
    8.2704  -14.4294   20.8313 C   0  0  0  0  0  0  0  0  0  0  0  0
    7.8669  -13.8202   21.8852 O   0  0  0  0  0  0  0  0  0  0  0  0
    9.0150  -18.4803   21.5124 O   0  0  0  0  0  0  0  0  0  0  0  0
    7.7319  -18.0040   21.7472 C   0  0  0  0  0  0  0  0  0  0  0  0
    7.7766  -16.5182   22.0573 C   0  0  2  0  0  0  0  0  0  0  0  0
    8.2637  -15.8481   20.8734 N   0  0  0  0  0  0  0  0  0  0  0  0
    8.6486  -16.2539   23.2306 C   0  0  0  0  0  0  0  0  0  0  0  0
    9.8296  -15.8907   23.0457 O   0  0  0  0  0  0  0  0  0  0  0  0
    6.2108  -10.4388   26.1038 O   0  0  0  0  0  0  0  0  0  0  0  0
    6.6586  -11.7524   26.2747 C   0  0  0  0  0  0  0  0  0  0  0  0
    7.9752  -12.1014   26.0417 C   0  0  0  0  0  0  0  0  0  0  0  0
    8.4217  -13.3950   26.2087 C   0  0  0  0  0  0  0  0  0  0  0  0
    7.5520  -14.3637   26.6134 C   0  0  0  0  0  0  0  0  0  0  0  0
    7.9711  -15.7578   26.8012 C   0  0  0  0  0  0  0  0  0  0  0  0
    8.9297  -16.1519   25.7005 C   0  0  2  0  0  0  0  0  0  0  0  0
    8.0996  -16.4262   24.5204 N   0  0  0  0  0  0  0  0  0  0  0  0
    9.6923  -17.3753   25.9883 C   0  0  0  0  0  0  0  0  0  0  0  0
   10.7522  -17.3972   26.8767 O   0  0  0  0  0  0  0  0  0  0  0  0
    6.2316  -14.0469   26.8540 C   0  0  0  0  0  0  0  0  0  0  0  0
    5.8146  -12.7615   26.6820 C   0  0  0  0  0  0  0  0  0  0  0  0
    9.3931  -18.4507   25.4230 O   0  0  0  0  0  0  0  0  0  0  0  0
  1  2  1  0
  3  2  1  0
  4  3  1  0
  4  5  1  0
  5  6  1  1
  5  1  1  0
  6  7  2  0
 10  9  1  6
  9  8  1  0
 11  6  1  0
 11 10  1  0
 12 10  1  0
 12 21  1  0
 13 12  2  0
 15 14  1  0
 16 15  2  0
 17 16  1  0
 18 24  1  0
 18 17  2  0
 19 18  1  0
 20 21  1  0
 20 19  1  1
 22 20  1  0
 23 22  1  0
 24 25  2  0
 25 15  1  0
 26 22  2  0
M  END
$$$$
