PSY.pdb
     RDKit          3D

 26 27  0  0  1  0  0  0  0  0999 V2000
    8.1513  -15.0362   17.9822 N   0  0  0  0  0  0  0  0  0  0  0  0
    7.8839  -14.0703   16.8961 C   0  0  0  0  0  0  0  0  0  0  0  0
    7.1769  -12.9982   17.7371 C   0  0  0  0  0  0  0  0  0  0  0  0
    8.1505  -12.8438   18.8772 C   0  0  0  0  0  0  0  0  0  0  0  0
    8.6988  -14.2430   19.0402 C   0  0  1  0  0  0  0  0  0  0  0  0
    8.3881  -14.7176   20.4057 C   0  0  0  0  0  0  0  0  0  0  0  0
    8.8378  -14.0910   21.4303 O   0  0  0  0  0  0  0  0  0  0  0  0
    7.2602  -18.4957   21.5937 O   0  0  0  0  0  0  0  0  0  0  0  0
    6.4133  -17.4652   21.9798 C   0  0  0  0  0  0  0  0  0  0  0  0
    7.1733  -16.1510   22.0119 C   0  0  2  0  0  0  0  0  0  0  0  0
    7.5942  -15.8666   20.6591 N   0  0  0  0  0  0  0  0  0  0  0  0
    8.3330  -16.2389   22.9361 C   0  0  0  0  0  0  0  0  0  0  0  0
    9.4391  -16.6176   22.4956 O   0  0  0  0  0  0  0  0  0  0  0  0
    5.3094  -11.3939   27.0615 O   0  0  0  0  0  0  0  0  0  0  0  0
    6.4032  -12.1745   26.6748 C   0  0  0  0  0  0  0  0  0  0  0  0
    7.3241  -12.6329   27.5975 C   0  0  0  0  0  0  0  0  0  0  0  0
    8.4041  -13.4028   27.2213 C   0  0  0  0  0  0  0  0  0  0  0  0
    8.5793  -13.7267   25.9087 C   0  0  0  0  0  0  0  0  0  0  0  0
    9.7139  -14.5378   25.4513 C   0  0  0  0  0  0  0  0  0  0  0  0
    9.2612  -15.9629   25.2279 C   0  0  2  0  0  0  0  0  0  0  0  0
    8.1342  -15.8866   24.2893 N   0  0  0  0  0  0  0  0  0  0  0  0
    8.7688  -16.6261   26.4440 C   0  0  0  0  0  0  0  0  0  0  0  0
    9.5894  -16.9026   27.5225 O   0  0  0  0  0  0  0  0  0  0  0  0
    7.6775  -13.2844   24.9639 C   0  0  0  0  0  0  0  0  0  0  0  0
    6.6183  -12.5251   25.3605 C   0  0  0  0  0  0  0  0  0  0  0  0
    7.5673  -16.9638   26.5338 O   0  0  0  0  0  0  0  0  0  0  0  0
  1  2  1  0
  3  2  1  0
  4  3  1  0
  4  5  1  0
  5  6  1  1
  5  1  1  0
  6  7  2  0
 10  9  1  6
  9  8  1  0
 11  6  1  0
 11 10  1  0
 12 10  1  0
 12 21  1  0
 13 12  2  0
 15 14  1  0
 16 15  2  0
 17 16  1  0
 18 24  1  0
 18 17  2  0
 19 18  1  0
 20 21  1  0
 20 19  1  1
 22 20  1  0
 23 22  1  0
 24 25  2  0
 25 15  1  0
 26 22  2  0
M  END
$$$$
