PSY.pdb
     RDKit          3D

 26 27  0  0  1  0  0  0  0  0999 V2000
    9.0357  -14.1443   18.0001 N   0  0  0  0  0  0  0  0  0  0  0  0
    8.5437  -13.2101   16.9660 C   0  0  0  0  0  0  0  0  0  0  0  0
    7.1385  -12.9815   17.5401 C   0  0  0  0  0  0  0  0  0  0  0  0
    7.4668  -12.6633   18.9763 C   0  0  0  0  0  0  0  0  0  0  0  0
    8.6804  -13.5250   19.2405 C   0  0  1  0  0  0  0  0  0  0  0  0
    8.3666  -14.4605   20.3417 C   0  0  0  0  0  0  0  0  0  0  0  0
    7.9117  -14.0224   21.4578 O   0  0  0  0  0  0  0  0  0  0  0  0
    8.3490  -18.9913   22.0394 O   0  0  0  0  0  0  0  0  0  0  0  0
    8.5536  -18.1358   20.9648 C   0  0  0  0  0  0  0  0  0  0  0  0
    8.3090  -16.6986   21.3895 C   0  0  2  0  0  0  0  0  0  0  0  0
    8.5460  -15.8643   20.2336 N   0  0  0  0  0  0  0  0  0  0  0  0
    9.1981  -16.3278   22.5203 C   0  0  0  0  0  0  0  0  0  0  0  0
   10.4097  -16.1151   22.3018 O   0  0  0  0  0  0  0  0  0  0  0  0
   11.4949  -14.4492   30.7666 O   0  0  0  0  0  0  0  0  0  0  0  0
   10.7669  -14.6928   29.5980 C   0  0  0  0  0  0  0  0  0  0  0  0
   10.3537  -15.9670   29.2582 C   0  0  0  0  0  0  0  0  0  0  0  0
    9.6357  -16.2124   28.1072 C   0  0  0  0  0  0  0  0  0  0  0  0
    9.3192  -15.1804   27.2746 C   0  0  0  0  0  0  0  0  0  0  0  0
    8.5625  -15.3847   26.0336 C   0  0  0  0  0  0  0  0  0  0  0  0
    9.4886  -15.8955   24.9531 C   0  0  2  0  0  0  0  0  0  0  0  0
    8.6300  -16.2303   23.8097 N   0  0  0  0  0  0  0  0  0  0  0  0
   10.2140  -17.1193   25.3239 C   0  0  0  0  0  0  0  0  0  0  0  0
    9.6244  -18.3701   25.2910 O   0  0  0  0  0  0  0  0  0  0  0  0
    9.7171  -13.8973   27.5861 C   0  0  0  0  0  0  0  0  0  0  0  0
   10.4255  -13.6803   28.7291 C   0  0  0  0  0  0  0  0  0  0  0  0
   11.4099  -17.0563   25.6863 O   0  0  0  0  0  0  0  0  0  0  0  0
  1  2  1  0
  3  2  1  0
  4  3  1  0
  4  5  1  0
  5  6  1  1
  5  1  1  0
  6  7  2  0
 10  9  1  6
  9  8  1  0
 11  6  1  0
 11 10  1  0
 12 10  1  0
 12 21  1  0
 13 12  2  0
 15 14  1  0
 16 15  2  0
 17 16  1  0
 18 24  1  0
 18 17  2  0
 19 18  1  0
 20 21  1  0
 20 19  1  1
 22 20  1  0
 23 22  1  0
 24 25  2  0
 25 15  1  0
 26 22  2  0
M  END
$$$$
