PSY.pdb
     RDKit          3D

 26 27  0  0  1  0  0  0  0  0999 V2000
    8.5327  -14.7391   17.9883 N   0  0  0  0  0  0  0  0  0  0  0  0
    8.2824  -13.8668   16.8220 C   0  0  0  0  0  0  0  0  0  0  0  0
    7.1756  -13.0012   17.4401 C   0  0  0  0  0  0  0  0  0  0  0  0
    7.8150  -12.6145   18.7490 C   0  0  0  0  0  0  0  0  0  0  0  0
    8.6337  -13.8372   19.0950 C   0  0  1  0  0  0  0  0  0  0  0  0
    8.1589  -14.3750   20.3881 C   0  0  0  0  0  0  0  0  0  0  0  0
    8.2802  -13.6861   21.4630 O   0  0  0  0  0  0  0  0  0  0  0  0
    7.3384  -18.3529   21.3672 O   0  0  0  0  0  0  0  0  0  0  0  0
    6.3453  -17.4078   21.5881 C   0  0  0  0  0  0  0  0  0  0  0  0
    6.9659  -16.0350   21.7778 C   0  0  2  0  0  0  0  0  0  0  0  0
    7.5563  -15.6537   20.5152 N   0  0  0  0  0  0  0  0  0  0  0  0
    7.9772  -16.0629   22.8656 C   0  0  0  0  0  0  0  0  0  0  0  0
    9.1799  -16.2413   22.5785 O   0  0  0  0  0  0  0  0  0  0  0  0
   11.3710  -14.6866   30.8009 O   0  0  0  0  0  0  0  0  0  0  0  0
   10.5012  -14.7741   29.7095 C   0  0  0  0  0  0  0  0  0  0  0  0
    9.6886  -15.8759   29.5217 C   0  0  0  0  0  0  0  0  0  0  0  0
    8.8294  -15.9671   28.4474 C   0  0  0  0  0  0  0  0  0  0  0  0
    8.7707  -14.9511   27.5402 C   0  0  0  0  0  0  0  0  0  0  0  0
    7.8793  -14.9978   26.3750 C   0  0  0  0  0  0  0  0  0  0  0  0
    8.5144  -15.8293   25.2836 C   0  0  2  0  0  0  0  0  0  0  0  0
    7.5314  -15.8846   24.1938 N   0  0  0  0  0  0  0  0  0  0  0  0
    8.7976  -17.2154   25.6832 C   0  0  0  0  0  0  0  0  0  0  0  0
   10.0474  -17.6230   26.1132 O   0  0  0  0  0  0  0  0  0  0  0  0
    9.5691  -13.8382   27.7001 C   0  0  0  0  0  0  0  0  0  0  0  0
   10.4098  -13.7715   28.7698 C   0  0  0  0  0  0  0  0  0  0  0  0
    7.8932  -18.0791   25.6426 O   0  0  0  0  0  0  0  0  0  0  0  0
  1  2  1  0
  3  2  1  0
  4  3  1  0
  4  5  1  0
  5  6  1  1
  5  1  1  0
  6  7  2  0
 10  9  1  6
  9  8  1  0
 11  6  1  0
 11 10  1  0
 12 10  1  0
 12 21  1  0
 13 12  2  0
 15 14  1  0
 16 15  2  0
 17 16  1  0
 18 24  1  0
 18 17  2  0
 19 18  1  0
 20 21  1  0
 20 19  1  1
 22 20  1  0
 23 22  1  0
 24 25  2  0
 25 15  1  0
 26 22  2  0
M  END
$$$$
