PSY.pdb
     RDKit          3D

 26 27  0  0  1  0  0  0  0  0999 V2000
    7.6120  -15.1416   16.1700 N   0  0  0  0  0  0  0  0  0  0  0  0
    6.9316  -14.5799   14.9844 C   0  0  0  0  0  0  0  0  0  0  0  0
    7.1962  -13.0956   15.2733 C   0  0  0  0  0  0  0  0  0  0  0  0
    8.6776  -13.1198   15.5499 C   0  0  0  0  0  0  0  0  0  0  0  0
    8.8714  -14.4633   16.2151 C   0  0  1  0  0  0  0  0  0  0  0  0
    9.4189  -14.2459   17.5713 C   0  0  0  0  0  0  0  0  0  0  0  0
   10.6742  -14.0465   17.7419 O   0  0  0  0  0  0  0  0  0  0  0  0
    7.1385  -14.6694   21.0221 O   0  0  0  0  0  0  0  0  0  0  0  0
    8.1526  -13.7207   21.0198 C   0  0  0  0  0  0  0  0  0  0  0  0
    9.2360  -14.1190   20.0331 C   0  0  2  0  0  0  0  0  0  0  0  0
    8.6094  -14.2455   18.7372 N   0  0  0  0  0  0  0  0  0  0  0  0
    9.8842  -15.3886   20.4510 C   0  0  0  0  0  0  0  0  0  0  0  0
    9.4164  -16.4754   20.0498 O   0  0  0  0  0  0  0  0  0  0  0  0
   15.8828  -13.2586   18.4667 O   0  0  0  0  0  0  0  0  0  0  0  0
   15.0061  -14.2159   18.9865 C   0  0  0  0  0  0  0  0  0  0  0  0
   13.6970  -14.3055   18.5531 C   0  0  0  0  0  0  0  0  0  0  0  0
   12.8287  -15.2474   19.0624 C   0  0  0  0  0  0  0  0  0  0  0  0
   13.2602  -16.1183   20.0183 C   0  0  0  0  0  0  0  0  0  0  0  0
   12.3776  -17.1368   20.5998 C   0  0  0  0  0  0  0  0  0  0  0  0
   11.6365  -16.5514   21.7804 C   0  0  2  0  0  0  0  0  0  0  0  0
   11.0149  -15.3129   21.2939 N   0  0  0  0  0  0  0  0  0  0  0  0
   12.5088  -16.1858   22.9059 C   0  0  0  0  0  0  0  0  0  0  0  0
   12.6040  -14.8902   23.3806 O   0  0  0  0  0  0  0  0  0  0  0  0
   14.5611  -16.0543   20.4714 C   0  0  0  0  0  0  0  0  0  0  0  0
   15.4001  -15.1148   19.9527 C   0  0  0  0  0  0  0  0  0  0  0  0
   13.2017  -17.0591   23.4741 O   0  0  0  0  0  0  0  0  0  0  0  0
  1  2  1  0
  3  2  1  0
  4  3  1  0
  4  5  1  0
  5  6  1  1
  5  1  1  0
  6  7  2  0
 10  9  1  1
  9  8  1  0
 11  6  1  0
 11 10  1  0
 12 10  1  0
 12 21  1  0
 13 12  2  0
 15 14  1  0
 16 15  2  0
 17 16  1  0
 18 24  1  0
 18 17  2  0
 19 18  1  0
 20 21  1  0
 20 19  1  6
 22 20  1  0
 23 22  1  0
 24 25  2  0
 25 15  1  0
 26 22  2  0
M  END
$$$$
