PSY.pdb
     RDKit          3D

 26 27  0  0  1  0  0  0  0  0999 V2000
    8.9920  -14.5171   18.5500 N   0  0  0  0  0  0  0  0  0  0  0  0
    8.6349  -13.6512   17.4069 C   0  0  0  0  0  0  0  0  0  0  0  0
    7.2780  -13.1602   17.9305 C   0  0  0  0  0  0  0  0  0  0  0  0
    7.6520  -12.7246   19.3241 C   0  0  0  0  0  0  0  0  0  0  0  0
    8.7316  -13.7120   19.7043 C   0  0  1  0  0  0  0  0  0  0  0  0
    8.2911  -14.4575   20.9029 C   0  0  0  0  0  0  0  0  0  0  0  0
    7.9909  -13.8342   21.9828 O   0  0  0  0  0  0  0  0  0  0  0  0
    8.8303  -18.5046   21.3672 O   0  0  0  0  0  0  0  0  0  0  0  0
    7.6265  -18.0054   21.8469 C   0  0  0  0  0  0  0  0  0  0  0  0
    7.7615  -16.5240   22.1516 C   0  0  2  0  0  0  0  0  0  0  0  0
    8.1775  -15.8719   20.9309 N   0  0  0  0  0  0  0  0  0  0  0  0
    8.7386  -16.3015   23.2482 C   0  0  0  0  0  0  0  0  0  0  0  0
    9.9170  -15.9978   22.9655 O   0  0  0  0  0  0  0  0  0  0  0  0
    6.2583  -10.7204   26.1814 O   0  0  0  0  0  0  0  0  0  0  0  0
    6.7757  -12.0071   26.3602 C   0  0  0  0  0  0  0  0  0  0  0  0
    5.9857  -13.0449   26.8166 C   0  0  0  0  0  0  0  0  0  0  0  0
    6.4909  -14.3152   26.9945 C   0  0  0  0  0  0  0  0  0  0  0  0
    7.8017  -14.5667   26.7169 C   0  0  0  0  0  0  0  0  0  0  0  0
    8.3938  -15.8981   26.8938 C   0  0  0  0  0  0  0  0  0  0  0  0
    9.2343  -16.2439   25.6856 C   0  0  2  0  0  0  0  0  0  0  0  0
    8.2892  -16.4443   24.5795 N   0  0  0  0  0  0  0  0  0  0  0  0
    9.9999  -17.4903   25.8331 C   0  0  0  0  0  0  0  0  0  0  0  0
   11.1589  -17.5647   26.5843 O   0  0  0  0  0  0  0  0  0  0  0  0
    8.6158  -13.5519   26.2598 C   0  0  0  0  0  0  0  0  0  0  0  0
    8.0932  -12.3052   26.0920 C   0  0  0  0  0  0  0  0  0  0  0  0
    9.6116  -18.5376   25.2692 O   0  0  0  0  0  0  0  0  0  0  0  0
  1  2  1  0
  3  2  1  0
  4  3  1  0
  4  5  1  0
  5  6  1  1
  5  1  1  0
  6  7  2  0
 10  9  1  6
  9  8  1  0
 11  6  1  0
 11 10  1  0
 12 10  1  0
 12 21  1  0
 13 12  2  0
 15 14  1  0
 16 15  2  0
 17 16  1  0
 18 24  1  0
 18 17  2  0
 19 18  1  0
 20 21  1  0
 20 19  1  1
 22 20  1  0
 23 22  1  0
 24 25  2  0
 25 15  1  0
 26 22  2  0
M  END
$$$$
