PSY.pdb
     RDKit          3D

 26 27  0  0  1  0  0  0  0  0999 V2000
    9.1811  -14.2000   18.7096 N   0  0  0  0  0  0  0  0  0  0  0  0
    8.6952  -13.3128   17.6321 C   0  0  0  0  0  0  0  0  0  0  0  0
    7.2299  -13.2202   18.0804 C   0  0  0  0  0  0  0  0  0  0  0  0
    7.3999  -12.8775   19.5382 C   0  0  0  0  0  0  0  0  0  0  0  0
    8.6618  -13.6215   19.9113 C   0  0  1  0  0  0  0  0  0  0  0  0
    8.3429  -14.5864   20.9854 C   0  0  0  0  0  0  0  0  0  0  0  0
    7.7532  -14.1972   22.0556 O   0  0  0  0  0  0  0  0  0  0  0  0
    8.1661  -19.1783   22.4821 O   0  0  0  0  0  0  0  0  0  0  0  0
    8.6251  -18.2644   21.5426 C   0  0  0  0  0  0  0  0  0  0  0  0
    8.2616  -16.8529   21.9684 C   0  0  2  0  0  0  0  0  0  0  0  0
    8.6626  -15.9666   20.8999 N   0  0  0  0  0  0  0  0  0  0  0  0
    8.9317  -16.5026   23.2471 C   0  0  0  0  0  0  0  0  0  0  0  0
   10.1193  -16.1152   23.2295 O   0  0  0  0  0  0  0  0  0  0  0  0
    6.4533  -10.4232   26.1606 O   0  0  0  0  0  0  0  0  0  0  0  0
    6.7744  -11.7786   26.2834 C   0  0  0  0  0  0  0  0  0  0  0  0
    8.0732  -12.2278   26.1384 C   0  0  0  0  0  0  0  0  0  0  0  0
    8.3951  -13.5629   26.2586 C   0  0  0  0  0  0  0  0  0  0  0  0
    7.4162  -14.4731   26.5270 C   0  0  0  0  0  0  0  0  0  0  0  0
    7.7009  -15.9070   26.6592 C   0  0  0  0  0  0  0  0  0  0  0  0
    8.8253  -16.2892   25.7236 C   0  0  2  0  0  0  0  0  0  0  0  0
    8.1895  -16.6234   24.4427 N   0  0  0  0  0  0  0  0  0  0  0  0
    9.5792  -17.4748   26.1561 C   0  0  0  0  0  0  0  0  0  0  0  0
   10.5498  -17.4189   27.1401 O   0  0  0  0  0  0  0  0  0  0  0  0
    6.1105  -14.0560   26.6773 C   0  0  0  0  0  0  0  0  0  0  0  0
    5.8176  -12.7314   26.5540 C   0  0  0  0  0  0  0  0  0  0  0  0
    9.3551  -18.5886   25.6318 O   0  0  0  0  0  0  0  0  0  0  0  0
  1  2  1  0
  3  2  1  0
  4  3  1  0
  4  5  1  0
  5  6  1  1
  5  1  1  0
  6  7  2  0
 10  9  1  6
  9  8  1  0
 11  6  1  0
 11 10  1  0
 12 10  1  0
 12 21  1  0
 13 12  2  0
 15 14  1  0
 16 15  2  0
 17 16  1  0
 18 24  1  0
 18 17  2  0
 19 18  1  0
 20 21  1  0
 20 19  1  1
 22 20  1  0
 23 22  1  0
 24 25  2  0
 25 15  1  0
 26 22  2  0
M  END
$$$$
