PSY.pdb
     RDKit          3D

 26 27  0  0  1  0  0  0  0  0999 V2000
    8.9392  -14.7282   17.8428 N   0  0  0  0  0  0  0  0  0  0  0  0
    8.5348  -13.9490   16.6539 C   0  0  0  0  0  0  0  0  0  0  0  0
    7.2111  -13.3989   17.2031 C   0  0  0  0  0  0  0  0  0  0  0  0
    7.6589  -12.8614   18.5381 C   0  0  0  0  0  0  0  0  0  0  0  0
    8.7454  -13.8317   18.9415 C   0  0  1  0  0  0  0  0  0  0  0  0
    8.3574  -14.4749   20.2152 C   0  0  0  0  0  0  0  0  0  0  0  0
    8.1607  -13.7683   21.2672 O   0  0  0  0  0  0  0  0  0  0  0  0
    8.8535  -18.4902   21.2165 O   0  0  0  0  0  0  0  0  0  0  0  0
    7.6061  -17.9208   21.4360 C   0  0  0  0  0  0  0  0  0  0  0  0
    7.7431  -16.4189   21.6128 C   0  0  2  0  0  0  0  0  0  0  0  0
    8.1842  -15.8773   20.3478 N   0  0  0  0  0  0  0  0  0  0  0  0
    8.7015  -16.1050   22.7036 C   0  0  0  0  0  0  0  0  0  0  0  0
    9.9105  -15.9495   22.4298 O   0  0  0  0  0  0  0  0  0  0  0  0
   11.4480  -14.4303   30.8616 O   0  0  0  0  0  0  0  0  0  0  0  0
   10.6600  -14.6219   29.7225 C   0  0  0  0  0  0  0  0  0  0  0  0
   10.4419  -13.6014   28.8167 C   0  0  0  0  0  0  0  0  0  0  0  0
    9.6658  -13.7852   27.6922 C   0  0  0  0  0  0  0  0  0  0  0  0
    9.0934  -14.9999   27.4566 C   0  0  0  0  0  0  0  0  0  0  0  0
    8.2532  -15.2499   26.2793 C   0  0  0  0  0  0  0  0  0  0  0  0
    9.1214  -15.6802   25.1188 C   0  0  2  0  0  0  0  0  0  0  0  0
    8.1999  -15.9943   24.0192 N   0  0  0  0  0  0  0  0  0  0  0  0
    9.9085  -16.8929   25.3849 C   0  0  0  0  0  0  0  0  0  0  0  0
    9.3596  -18.1612   25.3278 O   0  0  0  0  0  0  0  0  0  0  0  0
    9.2924  -16.0383   28.3419 C   0  0  0  0  0  0  0  0  0  0  0  0
   10.0634  -15.8319   29.4458 C   0  0  0  0  0  0  0  0  0  0  0  0
   11.1221  -16.8038   25.6763 O   0  0  0  0  0  0  0  0  0  0  0  0
  1  2  1  0
  3  2  1  0
  4  3  1  0
  4  5  1  0
  5  6  1  1
  5  1  1  0
  6  7  2  0
 10  9  1  6
  9  8  1  0
 11  6  1  0
 11 10  1  0
 12 10  1  0
 12 21  1  0
 13 12  2  0
 15 14  1  0
 16 15  2  0
 17 16  1  0
 18 24  1  0
 18 17  2  0
 19 18  1  0
 20 21  1  0
 20 19  1  1
 22 20  1  0
 23 22  1  0
 24 25  2  0
 25 15  1  0
 26 22  2  0
M  END
$$$$
