PSY.pdb
     RDKit          3D

 26 27  0  0  1  0  0  0  0  0999 V2000
    8.4761  -15.2389   18.0312 N   0  0  0  0  0  0  0  0  0  0  0  0
    8.3132  -14.4270   16.8071 C   0  0  0  0  0  0  0  0  0  0  0  0
    7.4818  -13.2901   17.4176 C   0  0  0  0  0  0  0  0  0  0  0  0
    8.3082  -12.9546   18.6326 C   0  0  0  0  0  0  0  0  0  0  0  0
    8.8717  -14.2984   19.0348 C   0  0  1  0  0  0  0  0  0  0  0  0
    8.4138  -14.6132   20.4051 C   0  0  0  0  0  0  0  0  0  0  0  0
    8.7271  -13.8501   21.3871 O   0  0  0  0  0  0  0  0  0  0  0  0
    7.2653  -18.3773   21.7421 O   0  0  0  0  0  0  0  0  0  0  0  0
    6.4596  -17.3042   22.0992 C   0  0  0  0  0  0  0  0  0  0  0  0
    7.2678  -16.0187   22.0847 C   0  0  2  0  0  0  0  0  0  0  0  0
    7.6209  -15.7503   20.7094 N   0  0  0  0  0  0  0  0  0  0  0  0
    8.4744  -16.1489   22.9414 C   0  0  0  0  0  0  0  0  0  0  0  0
    9.5479  -16.5345   22.4318 O   0  0  0  0  0  0  0  0  0  0  0  0
    5.0846  -11.7830   26.9832 O   0  0  0  0  0  0  0  0  0  0  0  0
    6.2642  -12.4514   26.6413 C   0  0  0  0  0  0  0  0  0  0  0  0
    6.9139  -13.2738   27.5419 C   0  0  0  0  0  0  0  0  0  0  0  0
    8.0771  -13.9350   27.2098 C   0  0  0  0  0  0  0  0  0  0  0  0
    8.6102  -13.7818   25.9645 C   0  0  0  0  0  0  0  0  0  0  0  0
    9.8491  -14.4565   25.5591 C   0  0  0  0  0  0  0  0  0  0  0  0
    9.5448  -15.8860   25.1719 C   0  0  2  0  0  0  0  0  0  0  0  0
    8.3560  -15.8275   24.3116 N   0  0  0  0  0  0  0  0  0  0  0  0
    9.2124  -16.7513   26.3130 C   0  0  0  0  0  0  0  0  0  0  0  0
   10.1488  -17.1207   27.2616 O   0  0  0  0  0  0  0  0  0  0  0  0
    7.9852  -12.9680   25.0432 C   0  0  0  0  0  0  0  0  0  0  0  0
    6.8369  -12.3254   25.3952 C   0  0  0  0  0  0  0  0  0  0  0  0
    8.0471  -17.1840   26.4558 O   0  0  0  0  0  0  0  0  0  0  0  0
  1  2  1  0
  3  2  1  0
  4  3  1  0
  4  5  1  0
  5  6  1  1
  5  1  1  0
  6  7  2  0
 10  9  1  6
  9  8  1  0
 11  6  1  0
 11 10  1  0
 12 10  1  0
 12 21  1  0
 13 12  2  0
 15 14  1  0
 16 15  2  0
 17 16  1  0
 18 24  1  0
 18 17  2  0
 19 18  1  0
 20 21  1  0
 20 19  1  1
 22 20  1  0
 23 22  1  0
 24 25  2  0
 25 15  1  0
 26 22  2  0
M  END
$$$$
