PSY.pdb
     RDKit          3D

 26 27  0  0  1  0  0  0  0  0999 V2000
    8.7870  -14.8767   17.8338 N   0  0  0  0  0  0  0  0  0  0  0  0
    8.5097  -14.0878   16.6152 C   0  0  0  0  0  0  0  0  0  0  0  0
    7.2439  -13.3740   17.1099 C   0  0  0  0  0  0  0  0  0  0  0  0
    7.7131  -12.8567   18.4455 C   0  0  0  0  0  0  0  0  0  0  0  0
    8.6677  -13.9350   18.9049 C   0  0  1  0  0  0  0  0  0  0  0  0
    8.1715  -14.4950   20.1804 C   0  0  0  0  0  0  0  0  0  0  0  0
    8.0972  -13.7597   21.2285 O   0  0  0  0  0  0  0  0  0  0  0  0
    8.0047  -18.5219   21.2704 O   0  0  0  0  0  0  0  0  0  0  0  0
    6.8539  -17.7594   21.4208 C   0  0  0  0  0  0  0  0  0  0  0  0
    7.2176  -16.2939   21.5817 C   0  0  2  0  0  0  0  0  0  0  0  0
    7.7588  -15.8459   20.3190 N   0  0  0  0  0  0  0  0  0  0  0  0
    8.1938  -16.1147   22.6871 C   0  0  0  0  0  0  0  0  0  0  0  0
    9.4153  -16.0873   22.4262 O   0  0  0  0  0  0  0  0  0  0  0  0
   11.0180  -14.5970   30.8410 O   0  0  0  0  0  0  0  0  0  0  0  0
   10.2262  -14.7289   29.6961 C   0  0  0  0  0  0  0  0  0  0  0  0
    9.5428  -15.8985   29.4229 C   0  0  0  0  0  0  0  0  0  0  0  0
    8.7608  -16.0336   28.2956 C   0  0  0  0  0  0  0  0  0  0  0  0
    8.6509  -14.9943   27.4202 C   0  0  0  0  0  0  0  0  0  0  0  0
    7.8377  -15.0849   26.2016 C   0  0  0  0  0  0  0  0  0  0  0  0
    8.6319  -15.7680   25.1115 C   0  0  2  0  0  0  0  0  0  0  0  0
    7.6943  -15.9813   24.0014 N   0  0  0  0  0  0  0  0  0  0  0  0
    9.1551  -17.0867   25.4968 C   0  0  0  0  0  0  0  0  0  0  0  0
   10.4615  -17.2747   25.9106 O   0  0  0  0  0  0  0  0  0  0  0  0
    9.3206  -13.8140   27.6650 C   0  0  0  0  0  0  0  0  0  0  0  0
   10.0870  -13.7048   28.7858 C   0  0  0  0  0  0  0  0  0  0  0  0
    8.4132  -18.0936   25.4585 O   0  0  0  0  0  0  0  0  0  0  0  0
  1  2  1  0
  3  2  1  0
  4  3  1  0
  4  5  1  0
  5  6  1  1
  5  1  1  0
  6  7  2  0
 10  9  1  6
  9  8  1  0
 11  6  1  0
 11 10  1  0
 12 10  1  0
 12 21  1  0
 13 12  2  0
 15 14  1  0
 16 15  2  0
 17 16  1  0
 18 24  1  0
 18 17  2  0
 19 18  1  0
 20 21  1  0
 20 19  1  1
 22 20  1  0
 23 22  1  0
 24 25  2  0
 25 15  1  0
 26 22  2  0
M  END
$$$$
