SVY.pdb
     RDKit          3D

 26 26  0  0  1  0  0  0  0  0999 V2000
   22.3371  -12.7349  -21.5813 O   0  0  0  0  0  0  0  0  0  0  0  0
   22.1732  -12.1047  -20.3453 C   0  0  0  0  0  0  0  0  0  0  0  0
   22.8894  -12.9592  -19.3228 C   0  0  2  0  0  0  0  0  0  0  0  0
   22.1553  -14.1840  -19.1780 N   0  0  0  0  0  0  0  0  0  0  0  0
   23.0064  -12.2465  -18.0120 C   0  0  0  0  0  0  0  0  0  0  0  0
   22.0055  -12.2857  -17.2549 O   0  0  0  0  0  0  0  0  0  0  0  0
   26.7975  -10.7826  -16.6821 C   0  0  0  0  0  0  0  0  0  0  0  0
   25.6465  -11.0303  -15.7224 C   0  0  1  0  0  0  0  0  0  0  0  0
   25.8657  -10.1931  -14.5151 C   0  0  0  0  0  0  0  0  0  0  0  0
   24.3682  -10.8240  -16.4376 C   0  0  2  0  0  0  0  0  0  0  0  0
   24.1994  -11.5654  -17.6604 N   0  0  0  0  0  0  0  0  0  0  0  0
   23.9904   -9.4019  -16.6639 C   0  0  0  0  0  0  0  0  0  0  0  0
   24.5008   -8.7981  -17.6302 O   0  0  0  0  0  0  0  0  0  0  0  0
   16.9122   -9.5394  -17.3830 O   0  0  0  0  0  0  0  0  0  0  0  0
   18.1843   -8.9695  -17.4073 C   0  0  0  0  0  0  0  0  0  0  0  0
   18.4088   -7.6997  -16.9343 C   0  0  0  0  0  0  0  0  0  0  0  0
   19.6554   -7.1370  -16.9564 C   0  0  0  0  0  0  0  0  0  0  0  0
   20.7324   -7.8152  -17.4511 C   0  0  0  0  0  0  0  0  0  0  0  0
   22.0813   -7.2233  -17.4884 C   0  0  0  0  0  0  0  0  0  0  0  0
   22.7492   -7.3205  -16.1641 C   0  0  2  0  0  0  0  0  0  0  0  0
   23.0833   -8.7082  -15.8369 N   0  0  0  0  0  0  0  0  0  0  0  0
   21.9206   -6.7404  -15.0914 C   0  0  0  0  0  0  0  0  0  0  0  0
   21.5560   -5.5498  -15.0210 O   0  0  0  0  0  0  0  0  0  0  0  0
   20.5251   -9.0995  -17.9334 C   0  0  0  0  0  0  0  0  0  0  0  0
   19.2779   -9.6600  -17.9102 C   0  0  0  0  0  0  0  0  0  0  0  0
   21.4964   -7.5926  -14.0486 O   0  0  0  0  0  0  0  0  0  0  0  0
  1  2  1  0
  3  2  1  0
  3  5  1  0
  3  4  1  1
  5  6  2  0
  8  7  1  6
  8 10  1  0
  8  9  1  0
 10 11  1  6
 11  5  1  0
 12 21  1  0
 12 10  1  0
 13 12  2  0
 15 25  2  0
 15 14  1  0
 16 15  1  0
 17 18  1  0
 17 16  2  0
 18 24  2  0
 19 18  1  0
 20 21  1  0
 20 19  1  6
 22 20  1  0
 23 22  2  0
 24 25  1  0
 26 22  1  0
M  END
$$$$
