SVY.pdb
     RDKit          3D

 26 26  0  0  1  0  0  0  0  0999 V2000
   27.1096  -17.5257  -16.9655 O   0  0  0  0  0  0  0  0  0  0  0  0
   26.2218  -18.4843  -16.4709 C   0  0  0  0  0  0  0  0  0  0  0  0
   27.0638  -19.5903  -15.8738 C   0  0  2  0  0  0  0  0  0  0  0  0
   27.6722  -20.3147  -16.9531 N   0  0  0  0  0  0  0  0  0  0  0  0
   26.2345  -20.4976  -15.0200 C   0  0  0  0  0  0  0  0  0  0  0  0
   25.6268  -21.4272  -15.6057 O   0  0  0  0  0  0  0  0  0  0  0  0
   26.2306  -20.1342  -10.6853 C   0  0  0  0  0  0  0  0  0  0  0  0
   25.9291  -21.4269  -11.4235 C   0  0  1  0  0  0  0  0  0  0  0  0
   25.1090  -22.2859  -10.5311 C   0  0  0  0  0  0  0  0  0  0  0  0
   25.3408  -21.1045  -12.7419 C   0  0  2  0  0  0  0  0  0  0  0  0
   26.1521  -20.3000  -13.6182 N   0  0  0  0  0  0  0  0  0  0  0  0
   23.9582  -20.5539  -12.7019 C   0  0  0  0  0  0  0  0  0  0  0  0
   23.8027  -19.3622  -12.3631 O   0  0  0  0  0  0  0  0  0  0  0  0
   22.1069  -22.3874  -19.1314 O   0  0  0  0  0  0  0  0  0  0  0  0
   21.9266  -21.7350  -17.9126 C   0  0  0  0  0  0  0  0  0  0  0  0
   20.9442  -22.1199  -17.0331 C   0  0  0  0  0  0  0  0  0  0  0  0
   20.7642  -21.4823  -15.8364 C   0  0  0  0  0  0  0  0  0  0  0  0
   21.5551  -20.4334  -15.4641 C   0  0  0  0  0  0  0  0  0  0  0  0
   21.3723  -19.7309  -14.1818 C   0  0  0  0  0  0  0  0  0  0  0  0
   21.5084  -20.6634  -13.0323 C   0  0  2  0  0  0  0  0  0  0  0  0
   22.8187  -21.3171  -13.0292 N   0  0  0  0  0  0  0  0  0  0  0  0
   20.4424  -21.6819  -13.0271 C   0  0  0  0  0  0  0  0  0  0  0  0
   19.2208  -21.4518  -12.9270 O   0  0  0  0  0  0  0  0  0  0  0  0
   22.5531  -20.0303  -16.3395 C   0  0  0  0  0  0  0  0  0  0  0  0
   22.7313  -20.6692  -17.5354 C   0  0  0  0  0  0  0  0  0  0  0  0
   20.8213  -23.0370  -13.1445 O   0  0  0  0  0  0  0  0  0  0  0  0
  1  2  1  0
  3  2  1  0
  3  5  1  0
  3  4  1  6
  5  6  2  0
  8  7  1  1
  8 10  1  0
  8  9  1  0
 10 11  1  1
 11  5  1  0
 12 21  1  0
 12 10  1  0
 13 12  2  0
 15 25  2  0
 15 14  1  0
 16 15  1  0
 17 18  1  0
 17 16  2  0
 18 24  2  0
 19 18  1  0
 20 21  1  0
 20 19  1  6
 22 20  1  0
 23 22  2  0
 24 25  1  0
 26 22  1  0
M  END
$$$$
