SVY.pdb
     RDKit          3D

 26 26  0  0  1  0  0  0  0  0999 V2000
   28.7009  -18.0534  -15.3396 O   0  0  0  0  0  0  0  0  0  0  0  0
   28.0585  -18.9274  -14.4592 C   0  0  0  0  0  0  0  0  0  0  0  0
   29.1427  -19.7279  -13.7720 C   0  0  2  0  0  0  0  0  0  0  0  0
   29.7897  -20.5387  -14.7639 N   0  0  0  0  0  0  0  0  0  0  0  0
   28.5751  -20.5737  -12.6756 C   0  0  0  0  0  0  0  0  0  0  0  0
   29.3162  -21.4772  -12.2161 O   0  0  0  0  0  0  0  0  0  0  0  0
   27.8682  -19.2571   -9.4929 C   0  0  0  0  0  0  0  0  0  0  0  0
   27.6561  -20.7339   -9.7776 C   0  0  1  0  0  0  0  0  0  0  0  0
   27.2008  -21.3840   -8.5219 C   0  0  0  0  0  0  0  0  0  0  0  0
   26.7635  -20.8769  -10.9485 C   0  0  2  0  0  0  0  0  0  0  0  0
   27.2608  -20.3496  -12.1927 N   0  0  0  0  0  0  0  0  0  0  0  0
   25.3636  -20.4156  -10.7389 C   0  0  0  0  0  0  0  0  0  0  0  0
   25.1614  -19.1986  -10.5472 O   0  0  0  0  0  0  0  0  0  0  0  0
   19.5183  -18.2504  -15.9144 O   0  0  0  0  0  0  0  0  0  0  0  0
   20.2509  -19.0630  -15.0503 C   0  0  0  0  0  0  0  0  0  0  0  0
   21.3741  -19.7299  -15.4749 C   0  0  0  0  0  0  0  0  0  0  0  0
   22.0955  -20.5281  -14.6302 C   0  0  0  0  0  0  0  0  0  0  0  0
   21.7289  -20.6965  -13.3257 C   0  0  0  0  0  0  0  0  0  0  0  0
   22.4902  -21.5566  -12.4027 C   0  0  0  0  0  0  0  0  0  0  0  0
   22.9658  -20.7908  -11.2209 C   0  0  2  0  0  0  0  0  0  0  0  0
   24.2581  -21.2908  -10.7474 N   0  0  0  0  0  0  0  0  0  0  0  0
   21.9851  -20.8216  -10.1204 C   0  0  0  0  0  0  0  0  0  0  0  0
   22.1590  -21.3615   -9.0097 O   0  0  0  0  0  0  0  0  0  0  0  0
   20.5969  -20.0306  -12.8784 C   0  0  0  0  0  0  0  0  0  0  0  0
   19.8773  -19.2331  -13.7247 C   0  0  0  0  0  0  0  0  0  0  0  0
   20.7390  -20.1904  -10.3265 O   0  0  0  0  0  0  0  0  0  0  0  0
  1  2  1  0
  3  2  1  0
  3  5  1  0
  3  4  1  6
  5  6  2  0
  8  7  1  1
  8 10  1  0
  8  9  1  0
 10 11  1  6
 11  5  1  0
 12 21  1  0
 12 10  1  0
 13 12  2  0
 15 25  2  0
 15 14  1  0
 16 15  1  0
 17 18  1  0
 17 16  2  0
 18 24  2  0
 19 18  1  0
 20 21  1  0
 20 19  1  6
 22 20  1  0
 23 22  2  0
 24 25  1  0
 26 22  1  0
M  END
$$$$
