SVY.pdb
     RDKit          3D

 26 26  0  0  1  0  0  0  0  0999 V2000
   29.0056    1.6338  -12.5966 O   0  0  0  0  0  0  0  0  0  0  0  0
   28.7830    2.5153  -11.5359 C   0  0  0  0  0  0  0  0  0  0  0  0
   27.8256    3.5719  -12.0416 C   0  0  2  0  0  0  0  0  0  0  0  0
   28.5902    4.5597  -12.7483 N   0  0  0  0  0  0  0  0  0  0  0  0
   27.0621    4.1916  -10.9134 C   0  0  0  0  0  0  0  0  0  0  0  0
   27.6599    5.0649  -10.2376 O   0  0  0  0  0  0  0  0  0  0  0  0
   23.2198    4.7526  -11.3938 C   0  0  0  0  0  0  0  0  0  0  0  0
   23.8651    5.3588  -10.1598 C   0  0  1  0  0  0  0  0  0  0  0  0
   22.7845    5.7298   -9.2104 C   0  0  0  0  0  0  0  0  0  0  0  0
   24.8950    4.4290   -9.6469 C   0  0  2  0  0  0  0  0  0  0  0  0
   25.7282    3.7976  -10.6370 N   0  0  0  0  0  0  0  0  0  0  0  0
   24.4020    3.4035   -8.6869 C   0  0  0  0  0  0  0  0  0  0  0  0
   23.8786    2.3657   -9.1429 O   0  0  0  0  0  0  0  0  0  0  0  0
   30.0082    0.5449   -7.2269 O   0  0  0  0  0  0  0  0  0  0  0  0
   28.7622    0.9529   -6.7529 C   0  0  0  0  0  0  0  0  0  0  0  0
   27.7241    0.0647   -6.6118 C   0  0  0  0  0  0  0  0  0  0  0  0
   26.5002    0.4611   -6.1471 C   0  0  0  0  0  0  0  0  0  0  0  0
   26.2576    1.7600   -5.8029 C   0  0  0  0  0  0  0  0  0  0  0  0
   24.9442    2.2066   -5.3061 C   0  0  0  0  0  0  0  0  0  0  0  0
   24.0065    2.4748   -6.4277 C   0  0  2  0  0  0  0  0  0  0  0  0
   24.4999    3.5521   -7.2882 N   0  0  0  0  0  0  0  0  0  0  0  0
   22.6542    2.8043   -5.9413 C   0  0  0  0  0  0  0  0  0  0  0  0
   22.1135    3.9262   -6.0083 O   0  0  0  0  0  0  0  0  0  0  0  0
   27.2943    2.6720   -5.9385 C   0  0  0  0  0  0  0  0  0  0  0  0
   28.5171    2.2733   -6.4032 C   0  0  0  0  0  0  0  0  0  0  0  0
   21.8951    1.7728   -5.3468 O   0  0  0  0  0  0  0  0  0  0  0  0
  1  2  1  0
  3  2  1  0
  3  5  1  0
  3  4  1  1
  5  6  2  0
  8  7  1  6
  8 10  1  0
  8  9  1  0
 10 11  1  6
 11  5  1  0
 12 21  1  0
 12 10  1  0
 13 12  2  0
 15 25  2  0
 15 14  1  0
 16 15  1  0
 17 18  1  0
 17 16  2  0
 18 24  2  0
 19 18  1  0
 20 21  1  0
 20 19  1  1
 22 20  1  0
 23 22  2  0
 24 25  1  0
 26 22  1  0
M  END
$$$$
