SVY.pdb
     RDKit          3D

 26 26  0  0  1  0  0  0  0  0999 V2000
   17.7605  -12.1173  -19.5303 O   0  0  0  0  0  0  0  0  0  0  0  0
   18.0909  -11.5049  -18.3189 C   0  0  0  0  0  0  0  0  0  0  0  0
   18.9321  -12.4961  -17.5453 C   0  0  2  0  0  0  0  0  0  0  0  0
   18.0649  -13.5368  -17.0712 N   0  0  0  0  0  0  0  0  0  0  0  0
   19.6405  -11.8295  -16.4079 C   0  0  0  0  0  0  0  0  0  0  0  0
   18.9667  -11.6110  -15.3712 O   0  0  0  0  0  0  0  0  0  0  0  0
   23.9018  -11.2811  -16.4609 C   0  0  0  0  0  0  0  0  0  0  0  0
   23.0809  -11.2077  -15.1851 C   0  0  1  0  0  0  0  0  0  0  0  0
   23.8423  -10.4055  -14.1935 C   0  0  0  0  0  0  0  0  0  0  0  0
   21.7218  -10.7238  -15.5121 C   0  0  2  0  0  0  0  0  0  0  0  0
   21.0080  -11.4698  -16.5157 N   0  0  0  0  0  0  0  0  0  0  0  0
   21.6215   -9.2689  -15.8111 C   0  0  0  0  0  0  0  0  0  0  0  0
   21.9167   -8.8764  -16.9591 O   0  0  0  0  0  0  0  0  0  0  0  0
   20.0254   -0.8988  -16.9099 O   0  0  0  0  0  0  0  0  0  0  0  0
   19.9860   -2.2348  -16.5135 C   0  0  0  0  0  0  0  0  0  0  0  0
   19.7405   -2.5874  -15.2089 C   0  0  0  0  0  0  0  0  0  0  0  0
   19.7009   -3.8971  -14.8160 C   0  0  0  0  0  0  0  0  0  0  0  0
   19.9045   -4.9123  -15.7061 C   0  0  0  0  0  0  0  0  0  0  0  0
   19.8715   -6.3284  -15.3003 C   0  0  0  0  0  0  0  0  0  0  0  0
   21.2422   -6.8971  -15.2164 C   0  0  2  0  0  0  0  0  0  0  0  0
   21.2086   -8.3163  -14.8570 N   0  0  0  0  0  0  0  0  0  0  0  0
   22.0813   -6.1585  -14.2552 C   0  0  0  0  0  0  0  0  0  0  0  0
   22.1065   -6.3453  -13.0223 O   0  0  0  0  0  0  0  0  0  0  0  0
   20.1539   -4.5757  -17.0288 C   0  0  0  0  0  0  0  0  0  0  0  0
   20.1929   -3.2656  -17.4192 C   0  0  0  0  0  0  0  0  0  0  0  0
   22.9338   -5.1516  -14.7580 O   0  0  0  0  0  0  0  0  0  0  0  0
  1  2  1  0
  3  2  1  0
  3  5  1  0
  3  4  1  1
  5  6  2  0
  8  7  1  6
  8 10  1  0
  8  9  1  0
 10 11  1  6
 11  5  1  0
 12 21  1  0
 12 10  1  0
 13 12  2  0
 15 25  2  0
 15 14  1  0
 16 15  1  0
 17 18  1  0
 17 16  2  0
 18 24  2  0
 19 18  1  0
 20 21  1  0
 20 19  1  1
 22 20  1  0
 23 22  2  0
 24 25  1  0
 26 22  1  0
M  END
$$$$
