SVY.pdb
     RDKit          3D

 26 26  0  0  1  0  0  0  0  0999 V2000
   27.5245  -11.9856  -15.9837 O   0  0  0  0  0  0  0  0  0  0  0  0
   26.4716  -11.3630  -16.6585 C   0  0  0  0  0  0  0  0  0  0  0  0
   25.1938  -11.8310  -15.9975 C   0  0  2  0  0  0  0  0  0  0  0  0
   25.0227  -13.2231  -16.3019 N   0  0  0  0  0  0  0  0  0  0  0  0
   24.0195  -11.0314  -16.4683 C   0  0  0  0  0  0  0  0  0  0  0  0
   23.4138  -11.4581  -17.4820 O   0  0  0  0  0  0  0  0  0  0  0  0
   21.2678  -11.0490  -16.9818 C   0  0  0  0  0  0  0  0  0  0  0  0
   21.1655   -9.8333  -16.0770 C   0  0  1  0  0  0  0  0  0  0  0  0
   20.7126  -10.2923  -14.7388 C   0  0  0  0  0  0  0  0  0  0  0  0
   22.4459   -9.0934  -16.1155 C   0  0  2  0  0  0  0  0  0  0  0  0
   23.6258   -9.8511  -15.7882 N   0  0  0  0  0  0  0  0  0  0  0  0
   22.4583   -7.8078  -15.3647 C   0  0  0  0  0  0  0  0  0  0  0  0
   22.8896   -7.8081  -14.1930 O   0  0  0  0  0  0  0  0  0  0  0  0
   27.2007   -4.8801  -18.9137 O   0  0  0  0  0  0  0  0  0  0  0  0
   26.0208   -4.7118  -18.1906 C   0  0  0  0  0  0  0  0  0  0  0  0
   24.8401   -5.2780  -18.6053 C   0  0  0  0  0  0  0  0  0  0  0  0
   23.6803   -5.1151  -17.8986 C   0  0  0  0  0  0  0  0  0  0  0  0
   23.6467   -4.3808  -16.7479 C   0  0  0  0  0  0  0  0  0  0  0  0
   22.4059   -4.1897  -15.9765 C   0  0  0  0  0  0  0  0  0  0  0  0
   22.1168   -5.3694  -15.1197 C   0  0  2  0  0  0  0  0  0  0  0  0
   22.0054   -6.5923  -15.9174 N   0  0  0  0  0  0  0  0  0  0  0  0
   20.8899   -5.1785  -14.3247 C   0  0  0  0  0  0  0  0  0  0  0  0
   19.7579   -5.6071  -14.6250 O   0  0  0  0  0  0  0  0  0  0  0  0
   24.8298   -3.8012  -16.3129 C   0  0  0  0  0  0  0  0  0  0  0  0
   25.9881   -3.9654  -17.0211 C   0  0  0  0  0  0  0  0  0  0  0  0
   20.9893   -4.4511  -13.1186 O   0  0  0  0  0  0  0  0  0  0  0  0
  1  2  1  0
  3  2  1  0
  3  5  1  0
  3  4  1  6
  5  6  2  0
  8  7  1  6
  8 10  1  0
  8  9  1  0
 10 11  1  1
 11  5  1  0
 12 21  1  0
 12 10  1  0
 13 12  2  0
 15 25  2  0
 15 14  1  0
 16 15  1  0
 17 18  1  0
 17 16  2  0
 18 24  2  0
 19 18  1  0
 20 21  1  0
 20 19  1  6
 22 20  1  0
 23 22  2  0
 24 25  1  0
 26 22  1  0
M  END
$$$$
