SVY.pdb
     RDKit          3D

 26 26  0  0  1  0  0  0  0  0999 V2000
   39.3360  -31.5880  -22.0414 O   0  0  0  0  0  0  0  0  0  0  0  0
   38.8408  -30.9533  -20.8996 C   0  0  0  0  0  0  0  0  0  0  0  0
   38.3704  -29.5824  -21.3332 C   0  0  2  0  0  0  0  0  0  0  0  0
   39.4607  -28.6654  -21.1594 N   0  0  0  0  0  0  0  0  0  0  0  0
   37.1747  -29.1487  -20.5445 C   0  0  0  0  0  0  0  0  0  0  0  0
   37.3963  -28.5504  -19.4631 O   0  0  0  0  0  0  0  0  0  0  0  0
   34.4743  -26.7641  -21.1680 C   0  0  0  0  0  0  0  0  0  0  0  0
   33.7634  -28.0949  -20.9935 C   0  0  1  0  0  0  0  0  0  0  0  0
   33.2593  -28.5252  -22.3230 C   0  0  0  0  0  0  0  0  0  0  0  0
   34.6676  -29.0386  -20.3007 C   0  0  2  0  0  0  0  0  0  0  0  0
   35.8623  -29.4105  -21.0133 N   0  0  0  0  0  0  0  0  0  0  0  0
   34.0136  -30.2608  -19.7576 C   0  0  0  0  0  0  0  0  0  0  0  0
   34.0066  -31.2930  -20.4602 O   0  0  0  0  0  0  0  0  0  0  0  0
   30.6735  -37.4299  -16.9452 O   0  0  0  0  0  0  0  0  0  0  0  0
   31.3901  -36.2655  -17.2177 C   0  0  0  0  0  0  0  0  0  0  0  0
   32.1243  -35.6326  -16.2445 C   0  0  0  0  0  0  0  0  0  0  0  0
   32.8287  -34.4900  -16.5079 C   0  0  0  0  0  0  0  0  0  0  0  0
   32.8321  -33.9285  -17.7525 C   0  0  0  0  0  0  0  0  0  0  0  0
   33.5801  -32.6951  -18.0534 C   0  0  0  0  0  0  0  0  0  0  0  0
   32.6783  -31.5142  -18.0937 C   0  0  2  0  0  0  0  0  0  0  0  0
   33.4030  -30.3041  -18.4874 N   0  0  0  0  0  0  0  0  0  0  0  0
   32.0080  -31.2954  -16.7989 C   0  0  0  0  0  0  0  0  0  0  0  0
   31.1993  -32.0773  -16.2603 O   0  0  0  0  0  0  0  0  0  0  0  0
   32.0962  -34.5537  -18.7488 C   0  0  0  0  0  0  0  0  0  0  0  0
   31.3928  -35.6960  -18.4831 C   0  0  0  0  0  0  0  0  0  0  0  0
   32.2960  -30.1043  -16.0975 O   0  0  0  0  0  0  0  0  0  0  0  0
  1  2  1  0
  3  2  1  0
  3  5  1  0
  3  4  1  1
  5  6  2  0
  8  7  1  6
  8 10  1  0
  8  9  1  0
 10 11  1  6
 11  5  1  0
 12 21  1  0
 12 10  1  0
 13 12  2  0
 15 25  2  0
 15 14  1  0
 16 15  1  0
 17 18  1  0
 17 16  2  0
 18 24  2  0
 19 18  1  0
 20 21  1  0
 20 19  1  1
 22 20  1  0
 23 22  2  0
 24 25  1  0
 26 22  1  0
M  END
$$$$
