SVY.pdb
     RDKit          3D

 26 26  0  0  1  0  0  0  0  0999 V2000
   27.6550  -25.7113  -18.0144 O   0  0  0  0  0  0  0  0  0  0  0  0
   28.2690  -25.1651  -16.8847 C   0  0  0  0  0  0  0  0  0  0  0  0
   29.0940  -23.9906  -17.3627 C   0  0  2  0  0  0  0  0  0  0  0  0
   30.4762  -24.3745  -17.3197 N   0  0  0  0  0  0  0  0  0  0  0  0
   28.8477  -22.7799  -16.5181 C   0  0  0  0  0  0  0  0  0  0  0  0
   29.5418  -22.6642  -15.4782 O   0  0  0  0  0  0  0  0  0  0  0  0
   29.0838  -19.1388  -17.3680 C   0  0  0  0  0  0  0  0  0  0  0  0
   27.6606  -19.3525  -16.8825 C   0  0  1  0  0  0  0  0  0  0  0  0
   26.7519  -19.2255  -18.0508 C   0  0  0  0  0  0  0  0  0  0  0  0
   27.5911  -20.6277  -16.1360 C   0  0  2  0  0  0  0  0  0  0  0  0
   27.8724  -21.8206  -16.8917 N   0  0  0  0  0  0  0  0  0  0  0  0
   26.3510  -20.8281  -15.3369 C   0  0  0  0  0  0  0  0  0  0  0  0
   25.4465  -21.5448  -15.8134 O   0  0  0  0  0  0  0  0  0  0  0  0
   19.9982  -20.8793   -9.3363 O   0  0  0  0  0  0  0  0  0  0  0  0
   21.2014  -20.6320   -9.9957 C   0  0  0  0  0  0  0  0  0  0  0  0
   21.3440  -19.5650  -10.8487 C   0  0  0  0  0  0  0  0  0  0  0  0
   22.5229  -19.3190  -11.4975 C   0  0  0  0  0  0  0  0  0  0  0  0
   23.6108  -20.1259  -11.3245 C   0  0  0  0  0  0  0  0  0  0  0  0
   24.8868  -19.8800  -12.0192 C   0  0  0  0  0  0  0  0  0  0  0  0
   24.8642  -20.4318  -13.3992 C   0  0  2  0  0  0  0  0  0  0  0  0
   26.1533  -20.2453  -14.0683 N   0  0  0  0  0  0  0  0  0  0  0  0
   23.7895  -19.8300  -14.2096 C   0  0  0  0  0  0  0  0  0  0  0  0
   23.8457  -18.7223  -14.7798 O   0  0  0  0  0  0  0  0  0  0  0  0
   23.4859  -21.2089  -10.4664 C   0  0  0  0  0  0  0  0  0  0  0  0
   22.3063  -21.4527   -9.8188 C   0  0  0  0  0  0  0  0  0  0  0  0
   22.5892  -20.5577  -14.3622 O   0  0  0  0  0  0  0  0  0  0  0  0
  1  2  1  0
  3  2  1  0
  3  5  1  0
  3  4  1  1
  5  6  2  0
  8  7  1  6
  8 10  1  0
  8  9  1  0
 10 11  1  6
 11  5  1  0
 12 21  1  0
 12 10  1  0
 13 12  2  0
 15 25  2  0
 15 14  1  0
 16 15  1  0
 17 18  1  0
 17 16  2  0
 18 24  2  0
 19 18  1  0
 20 21  1  0
 20 19  1  1
 22 20  1  0
 23 22  2  0
 24 25  1  0
 26 22  1  0
M  END
$$$$
