SVY.pdb
     RDKit          3D

 26 26  0  0  1  0  0  0  0  0999 V2000
   21.6810   -8.6898  -20.1693 O   0  0  0  0  0  0  0  0  0  0  0  0
   21.1931   -9.9905  -20.3174 C   0  0  0  0  0  0  0  0  0  0  0  0
   21.7413  -10.7954  -19.1596 C   0  0  2  0  0  0  0  0  0  0  0  0
   21.3258  -12.1582  -19.3326 N   0  0  0  0  0  0  0  0  0  0  0  0
   21.2621  -10.2513  -17.8504 C   0  0  0  0  0  0  0  0  0  0  0  0
   20.0240  -10.0827  -17.7263 O   0  0  0  0  0  0  0  0  0  0  0  0
   23.3363  -10.9203  -14.3890 C   0  0  0  0  0  0  0  0  0  0  0  0
   21.9391  -10.3247  -14.3755 C   0  0  1  0  0  0  0  0  0  0  0  0
   21.7062   -9.7275  -13.0355 C   0  0  0  0  0  0  0  0  0  0  0  0
   21.7910   -9.4140  -15.5317 C   0  0  2  0  0  0  0  0  0  0  0  0
   22.1786   -9.9469  -16.8120 N   0  0  0  0  0  0  0  0  0  0  0  0
   22.3901   -8.0626  -15.3554 C   0  0  0  0  0  0  0  0  0  0  0  0
   23.6089   -7.9184  -15.5846 O   0  0  0  0  0  0  0  0  0  0  0  0
   17.0565   -3.4909  -17.5826 O   0  0  0  0  0  0  0  0  0  0  0  0
   18.3529   -3.8298  -17.1977 C   0  0  0  0  0  0  0  0  0  0  0  0
   19.0830   -3.0261  -16.3567 C   0  0  0  0  0  0  0  0  0  0  0  0
   20.3552   -3.3552  -15.9767 C   0  0  0  0  0  0  0  0  0  0  0  0
   20.9551   -4.4994  -16.4186 C   0  0  0  0  0  0  0  0  0  0  0  0
   22.3265   -4.8674  -16.0247 C   0  0  0  0  0  0  0  0  0  0  0  0
   22.3317   -5.6598  -14.7671 C   0  0  2  0  0  0  0  0  0  0  0  0
   21.6432   -6.9404  -14.9419 N   0  0  0  0  0  0  0  0  0  0  0  0
   21.7232   -4.9143  -13.6502 C   0  0  0  0  0  0  0  0  0  0  0  0
   20.6638   -5.2195  -13.0672 O   0  0  0  0  0  0  0  0  0  0  0  0
   20.2330   -5.3242  -17.2689 C   0  0  0  0  0  0  0  0  0  0  0  0
   18.9612   -4.9932  -17.6474 C   0  0  0  0  0  0  0  0  0  0  0  0
   22.3844   -3.7545  -13.1906 O   0  0  0  0  0  0  0  0  0  0  0  0
  1  2  1  0
  3  2  1  0
  3  5  1  0
  3  4  1  6
  5  6  2  0
  8  7  1  1
  8 10  1  0
  8  9  1  0
 10 11  1  6
 11  5  1  0
 12 21  1  0
 12 10  1  0
 13 12  2  0
 15 25  2  0
 15 14  1  0
 16 15  1  0
 17 18  1  0
 17 16  2  0
 18 24  2  0
 19 18  1  0
 20 21  1  0
 20 19  1  6
 22 20  1  0
 23 22  2  0
 24 25  1  0
 26 22  1  0
M  END
$$$$
