SVY.pdb
     RDKit          3D

 26 26  0  0  1  0  0  0  0  0999 V2000
   15.8145  -13.0636  -18.7910 O   0  0  0  0  0  0  0  0  0  0  0  0
   16.6903  -12.0197  -19.0990 C   0  0  0  0  0  0  0  0  0  0  0  0
   15.9587  -10.7322  -18.7898 C   0  0  2  0  0  0  0  0  0  0  0  0
   15.0266  -10.4870  -19.8533 N   0  0  0  0  0  0  0  0  0  0  0  0
   16.9154   -9.5909  -18.6422 C   0  0  0  0  0  0  0  0  0  0  0  0
   17.3678   -9.0906  -19.7013 O   0  0  0  0  0  0  0  0  0  0  0  0
   16.6310   -6.1367  -17.2280 C   0  0  0  0  0  0  0  0  0  0  0  0
   17.6526   -6.8688  -16.3751 C   0  0  1  0  0  0  0  0  0  0  0  0
   17.0181   -7.1897  -15.0709 C   0  0  0  0  0  0  0  0  0  0  0  0
   18.1886   -8.0154  -17.1409 C   0  0  2  0  0  0  0  0  0  0  0  0
   17.2810   -9.1119  -17.3585 N   0  0  0  0  0  0  0  0  0  0  0  0
   19.4963   -8.5419  -16.6625 C   0  0  0  0  0  0  0  0  0  0  0  0
   19.4936   -9.4741  -15.8318 O   0  0  0  0  0  0  0  0  0  0  0  0
   27.5781  -11.1807  -15.0941 O   0  0  0  0  0  0  0  0  0  0  0  0
   26.4381  -10.6378  -15.6850 C   0  0  0  0  0  0  0  0  0  0  0  0
   25.3261  -11.4049  -15.9331 C   0  0  0  0  0  0  0  0  0  0  0  0
   24.2057  -10.8760  -16.5128 C   0  0  0  0  0  0  0  0  0  0  0  0
   24.1448   -9.5597  -16.8705 C   0  0  0  0  0  0  0  0  0  0  0  0
   22.9489   -8.9738  -17.5011 C   0  0  0  0  0  0  0  0  0  0  0  0
   21.9640   -8.5299  -16.4801 C   0  0  2  0  0  0  0  0  0  0  0  0
   20.7355   -8.0353  -17.1051 N   0  0  0  0  0  0  0  0  0  0  0  0
   22.5257   -7.4935  -15.5947 C   0  0  0  0  0  0  0  0  0  0  0  0
   22.6777   -6.2917  -15.8913 O   0  0  0  0  0  0  0  0  0  0  0  0
   25.2585   -8.7688  -16.6277 C   0  0  0  0  0  0  0  0  0  0  0  0
   26.3776   -9.2998  -16.0479 C   0  0  0  0  0  0  0  0  0  0  0  0
   22.9303   -7.8790  -14.2981 O   0  0  0  0  0  0  0  0  0  0  0  0
  1  2  1  0
  3  2  1  0
  3  5  1  0
  3  4  1  6
  5  6  2  0
  8  7  1  6
  8 10  1  0
  8  9  1  0
 10 11  1  1
 11  5  1  0
 12 21  1  0
 12 10  1  0
 13 12  2  0
 15 25  2  0
 15 14  1  0
 16 15  1  0
 17 18  1  0
 17 16  2  0
 18 24  2  0
 19 18  1  0
 20 21  1  0
 20 19  1  6
 22 20  1  0
 23 22  2  0
 24 25  1  0
 26 22  1  0
M  END
$$$$
