SVY.pdb
     RDKit          3D

 26 26  0  0  1  0  0  0  0  0999 V2000
   32.3257  -38.3772   -8.1920 O   0  0  0  0  0  0  0  0  0  0  0  0
   33.3887  -37.4801   -8.0623 C   0  0  0  0  0  0  0  0  0  0  0  0
   34.2384  -37.9753   -6.9128 C   0  0  2  0  0  0  0  0  0  0  0  0
   34.4992  -39.3706   -7.1249 N   0  0  0  0  0  0  0  0  0  0  0  0
   33.5535  -37.7516   -5.6011 C   0  0  0  0  0  0  0  0  0  0  0  0
   33.0974  -38.7670   -5.0201 O   0  0  0  0  0  0  0  0  0  0  0  0
   35.0314  -36.2195   -2.7227 C   0  0  0  0  0  0  0  0  0  0  0  0
   33.6980  -35.4949   -2.7855 C   0  0  1  0  0  0  0  0  0  0  0  0
   33.9685  -34.0522   -3.0133 C   0  0  0  0  0  0  0  0  0  0  0  0
   32.8317  -36.1627   -3.7814 C   0  0  2  0  0  0  0  0  0  0  0  0
   33.4356  -36.4474   -5.0572 N   0  0  0  0  0  0  0  0  0  0  0  0
   31.5022  -35.5272   -3.9931 C   0  0  0  0  0  0  0  0  0  0  0  0
   30.7388  -35.4056   -3.0126 O   0  0  0  0  0  0  0  0  0  0  0  0
   24.4663  -31.6518   -7.5116 O   0  0  0  0  0  0  0  0  0  0  0  0
   25.7676  -32.0620   -7.2252 C   0  0  0  0  0  0  0  0  0  0  0  0
   26.6144  -32.4989   -8.2144 C   0  0  0  0  0  0  0  0  0  0  0  0
   27.8919  -32.9021   -7.9375 C   0  0  0  0  0  0  0  0  0  0  0  0
   28.3809  -32.8876   -6.6627 C   0  0  0  0  0  0  0  0  0  0  0  0
   29.7520  -33.3237   -6.3446 C   0  0  0  0  0  0  0  0  0  0  0  0
   29.7491  -34.4288   -5.3506 C   0  0  2  0  0  0  0  0  0  0  0  0
   31.0678  -35.0574   -5.2496 N   0  0  0  0  0  0  0  0  0  0  0  0
   28.7334  -35.4483   -5.6715 C   0  0  0  0  0  0  0  0  0  0  0  0
   28.9009  -36.4246   -6.4292 O   0  0  0  0  0  0  0  0  0  0  0  0
   27.5401  -32.4493   -5.6499 C   0  0  0  0  0  0  0  0  0  0  0  0
   26.2634  -32.0465   -5.9292 C   0  0  0  0  0  0  0  0  0  0  0  0
   27.4585  -35.3220   -5.0781 O   0  0  0  0  0  0  0  0  0  0  0  0
  1  2  1  0
  3  2  1  0
  3  5  1  0
  3  4  1  6
  5  6  2  0
  8  7  1  6
  8 10  1  0
  8  9  1  0
 10 11  1  6
 11  5  1  0
 12 21  1  0
 12 10  1  0
 13 12  2  0
 15 25  2  0
 15 14  1  0
 16 15  1  0
 17 18  1  0
 17 16  2  0
 18 24  2  0
 19 18  1  0
 20 21  1  0
 20 19  1  6
 22 20  1  0
 23 22  2  0
 24 25  1  0
 26 22  1  0
M  END
$$$$
