SVY.pdb
     RDKit          3D

 26 26  0  0  1  0  0  0  0  0999 V2000
   17.0359  -11.0056  -18.3144 O   0  0  0  0  0  0  0  0  0  0  0  0
   17.4888  -10.7790  -17.0124 C   0  0  0  0  0  0  0  0  0  0  0  0
   18.7107  -11.6497  -16.8189 C   0  0  2  0  0  0  0  0  0  0  0  0
   18.2632  -12.9718  -16.4849 N   0  0  0  0  0  0  0  0  0  0  0  0
   19.6007  -11.0991  -15.7490 C   0  0  0  0  0  0  0  0  0  0  0  0
   19.2232  -11.2567  -14.5619 O   0  0  0  0  0  0  0  0  0  0  0  0
   23.6928  -10.3187  -16.4013 C   0  0  0  0  0  0  0  0  0  0  0  0
   23.0495  -10.3765  -15.0267 C   0  0  1  0  0  0  0  0  0  0  0  0
   23.9657   -9.7162  -14.0616 C   0  0  0  0  0  0  0  0  0  0  0  0
   21.6799   -9.8239  -15.1106 C   0  0  2  0  0  0  0  0  0  0  0  0
   20.8086  -10.4344  -16.0808 N   0  0  0  0  0  0  0  0  0  0  0  0
   21.6002   -8.3426  -15.2355 C   0  0  0  0  0  0  0  0  0  0  0  0
   21.8523   -7.8253  -16.3435 O   0  0  0  0  0  0  0  0  0  0  0  0
   17.2325   -6.8030   -9.4213 O   0  0  0  0  0  0  0  0  0  0  0  0
   17.8316   -6.5225  -10.6484 C   0  0  0  0  0  0  0  0  0  0  0  0
   18.0544   -7.5086  -11.5782 C   0  0  0  0  0  0  0  0  0  0  0  0
   18.6420   -7.2374  -12.7833 C   0  0  0  0  0  0  0  0  0  0  0  0
   19.0331   -5.9717  -13.1142 C   0  0  0  0  0  0  0  0  0  0  0  0
   19.6726   -5.6616  -14.4050 C   0  0  0  0  0  0  0  0  0  0  0  0
   21.1035   -6.0641  -14.4080 C   0  0  2  0  0  0  0  0  0  0  0  0
   21.2532   -7.4995  -14.1598 N   0  0  0  0  0  0  0  0  0  0  0  0
   21.8865   -5.3021  -13.4181 C   0  0  0  0  0  0  0  0  0  0  0  0
   22.4664   -5.7856  -12.4254 O   0  0  0  0  0  0  0  0  0  0  0  0
   18.8160   -4.9621  -12.1877 C   0  0  0  0  0  0  0  0  0  0  0  0
   18.2284   -5.2356  -10.9835 C   0  0  0  0  0  0  0  0  0  0  0  0
   21.9983   -3.9059  -13.5957 O   0  0  0  0  0  0  0  0  0  0  0  0
  1  2  1  0
  3  2  1  0
  3  5  1  0
  3  4  1  1
  5  6  2  0
  8  7  1  6
  8 10  1  0
  8  9  1  0
 10 11  1  6
 11  5  1  0
 12 21  1  0
 12 10  1  0
 13 12  2  0
 15 25  2  0
 15 14  1  0
 16 15  1  0
 17 18  1  0
 17 16  2  0
 18 24  2  0
 19 18  1  0
 20 21  1  0
 20 19  1  1
 22 20  1  0
 23 22  2  0
 24 25  1  0
 26 22  1  0
M  END
$$$$
