MKN.pdb
     RDKit          3D

 26 25  0  0  1  0  0  0  0  0999 V2000
   27.3575  -16.6469  -18.6529 C   0  0  0  0  0  0  0  0  0  0  0  0
   28.5812  -17.8254  -18.0007 S   0  0  0  0  0  0  0  0  0  0  0  0
   28.3805  -17.8845  -16.1831 C   0  0  0  0  0  0  0  0  0  0  0  0
   27.1973  -18.7399  -15.8609 C   0  0  0  0  0  0  0  0  0  0  0  0
   27.5464  -20.0267  -15.1571 C   0  0  2  0  0  0  0  0  0  0  0  0
   28.1369  -20.9782  -16.0564 N   0  0  0  0  0  0  0  0  0  0  0  0
   26.3254  -20.5497  -14.4968 C   0  0  0  0  0  0  0  0  0  0  0  0
   25.6714  -21.4782  -15.0135 O   0  0  0  0  0  0  0  0  0  0  0  0
   25.8436  -20.0126  -13.2417 N   0  0  0  0  0  0  0  0  0  0  0  0
   24.6871  -20.5470  -12.6021 C   0  0  1  0  0  0  0  0  0  0  0  0
   24.5831  -20.5096  -11.1379 C   0  0  0  0  0  0  0  0  0  0  0  0
   23.4408  -21.0712  -10.4139 C   0  0  0  0  0  0  0  0  0  0  0  0
   23.4353  -20.9401   -8.9308 C   0  0  0  0  0  0  0  0  0  0  0  0
   22.2458  -21.7135   -8.3540 C   0  0  0  0  0  0  0  0  0  0  0  0
   22.1921  -21.5213   -6.9098 N   0  0  0  0  0  0  0  0  0  0  0  0
   23.4292  -20.0596  -13.2787 C   0  0  0  0  0  0  0  0  0  0  0  0
   23.2072  -18.8247  -13.4392 O   0  0  0  0  0  0  0  0  0  0  0  0
   21.6959  -18.9080  -16.3722 N   0  0  0  0  0  0  0  0  0  0  0  0
   21.2839  -20.2110  -16.7533 C   0  0  0  0  0  0  0  0  0  0  0  0
   21.2047  -20.4638  -17.9796 O   0  0  0  0  0  0  0  0  0  0  0  0
   20.9749  -21.1851  -15.6891 C   0  0  0  0  0  0  0  0  0  0  0  0
   21.1909  -20.5525  -14.3562 C   0  0  2  0  0  0  0  0  0  0  0  0
   22.4554  -20.9594  -13.7571 N   0  0  0  0  0  0  0  0  0  0  0  0
   20.1178  -20.8162  -13.3896 C   0  0  0  0  0  0  0  0  0  0  0  0
   19.2094  -19.8360  -13.0555 O   0  0  0  0  0  0  0  0  0  0  0  0
   20.0181  -21.9408  -12.8556 O   0  0  0  0  0  0  0  0  0  0  0  0
  2  1  1  0
  3  2  1  0
  4  3  1  0
  4  5  1  0
  5  7  1  0
  5  6  1  6
  7  8  2  0
  9 10  1  0
  9  7  1  0
 10 11  1  1
 12 11  1  0
 13 14  1  0
 13 12  1  0
 15 14  1  0
 16 17  2  0
 16 10  1  0
 18 19  1  0
 19 21  1  0
 20 19  2  0
 22 21  1  6
 22 23  1  0
 22 24  1  0
 23 16  1  0
 24 25  1  0
 26 24  2  0
M  END
$$$$
