MKN.pdb
     RDKit          3D

 26 25  0  0  1  0  0  0  0  0999 V2000
   21.1165  -27.4494  -19.6695 C   0  0  0  0  0  0  0  0  0  0  0  0
   22.4318  -26.6785  -20.6631 S   0  0  0  0  0  0  0  0  0  0  0  0
   23.1510  -27.9760  -21.7338 C   0  0  0  0  0  0  0  0  0  0  0  0
   23.7065  -29.0585  -20.8648 C   0  0  0  0  0  0  0  0  0  0  0  0
   25.2129  -29.1172  -20.8487 C   0  0  2  0  0  0  0  0  0  0  0  0
   25.7384  -29.5657  -22.1079 N   0  0  0  0  0  0  0  0  0  0  0  0
   25.6396  -29.9749  -19.7161 C   0  0  0  0  0  0  0  0  0  0  0  0
   25.6959  -31.2148  -19.8437 O   0  0  0  0  0  0  0  0  0  0  0  0
   26.0033  -29.4197  -18.4296 N   0  0  0  0  0  0  0  0  0  0  0  0
   26.4815  -30.2487  -17.3730 C   0  0  1  0  0  0  0  0  0  0  0  0
   27.6623  -29.8373  -16.6034 C   0  0  0  0  0  0  0  0  0  0  0  0
   29.0292  -30.1297  -17.0398 C   0  0  0  0  0  0  0  0  0  0  0  0
   29.4008  -31.5597  -17.2243 C   0  0  0  0  0  0  0  0  0  0  0  0
   30.8955  -31.6623  -17.5418 C   0  0  0  0  0  0  0  0  0  0  0  0
   31.2482  -33.0555  -17.7873 N   0  0  0  0  0  0  0  0  0  0  0  0
   25.3444  -30.6917  -16.4852 C   0  0  0  0  0  0  0  0  0  0  0  0
   24.5583  -29.8523  -15.9583 O   0  0  0  0  0  0  0  0  0  0  0  0
   21.9802  -33.3720  -13.9013 N   0  0  0  0  0  0  0  0  0  0  0  0
   21.8309  -33.5730  -15.2977 C   0  0  0  0  0  0  0  0  0  0  0  0
   20.7974  -34.1622  -15.6963 O   0  0  0  0  0  0  0  0  0  0  0  0
   22.8952  -33.0793  -16.1923 C   0  0  0  0  0  0  0  0  0  0  0  0
   24.0249  -32.5477  -15.3770 C   0  0  2  0  0  0  0  0  0  0  0  0
   25.1146  -32.0548  -16.2093 N   0  0  0  0  0  0  0  0  0  0  0  0
   24.5775  -33.5150  -14.4206 C   0  0  0  0  0  0  0  0  0  0  0  0
   24.1018  -33.5852  -13.1298 O   0  0  0  0  0  0  0  0  0  0  0  0
   25.4929  -34.2892  -14.7711 O   0  0  0  0  0  0  0  0  0  0  0  0
  2  1  1  0
  3  2  1  0
  4  3  1  0
  4  5  1  0
  5  7  1  0
  5  6  1  6
  7  8  2  0
  9 10  1  0
  9  7  1  0
 10 11  1  1
 12 11  1  0
 13 14  1  0
 13 12  1  0
 15 14  1  0
 16 17  2  0
 16 10  1  0
 18 19  1  0
 19 21  1  0
 20 19  2  0
 22 21  1  6
 22 23  1  0
 22 24  1  0
 23 16  1  0
 24 25  1  0
 26 24  2  0
M  END
$$$$
