MKN.pdb
     RDKit          3D

 26 25  0  0  1  0  0  0  0  0999 V2000
   29.5520  -20.4751   -8.5959 C   0  0  0  0  0  0  0  0  0  0  0  0
   28.4351  -19.4525   -7.5868 S   0  0  0  0  0  0  0  0  0  0  0  0
   26.7237  -19.7897   -8.1388 C   0  0  0  0  0  0  0  0  0  0  0  0
   26.7482  -20.1171   -9.5975 C   0  0  0  0  0  0  0  0  0  0  0  0
   25.3876  -20.1182  -10.2469 C   0  0  2  0  0  0  0  0  0  0  0  0
   24.4489  -20.9147   -9.5072 N   0  0  0  0  0  0  0  0  0  0  0  0
   25.5356  -20.5713  -11.6516 C   0  0  0  0  0  0  0  0  0  0  0  0
   26.4238  -20.0907  -12.3844 O   0  0  0  0  0  0  0  0  0  0  0  0
   24.6672  -21.5762  -12.2277 N   0  0  0  0  0  0  0  0  0  0  0  0
   24.2334  -21.4921  -13.5830 C   0  0  1  0  0  0  0  0  0  0  0  0
   24.2283  -22.6977  -14.4212 C   0  0  0  0  0  0  0  0  0  0  0  0
   25.4214  -23.5225  -14.6235 C   0  0  0  0  0  0  0  0  0  0  0  0
   25.3483  -24.5963  -15.6522 C   0  0  0  0  0  0  0  0  0  0  0  0
   26.7387  -25.2059  -15.8542 C   0  0  0  0  0  0  0  0  0  0  0  0
   26.6802  -26.2203  -16.8997 N   0  0  0  0  0  0  0  0  0  0  0  0
   22.9413  -20.7188  -13.6834 C   0  0  0  0  0  0  0  0  0  0  0  0
   22.1519  -20.6302  -12.6991 O   0  0  0  0  0  0  0  0  0  0  0  0
   20.0675  -16.3141  -14.9379 N   0  0  0  0  0  0  0  0  0  0  0  0
   20.4148  -17.2222  -15.9710 C   0  0  0  0  0  0  0  0  0  0  0  0
   19.6433  -17.3093  -16.9566 O   0  0  0  0  0  0  0  0  0  0  0  0
   21.6566  -18.0054  -15.8244 C   0  0  0  0  0  0  0  0  0  0  0  0
   21.3847  -19.2225  -15.0070 C   0  0  2  0  0  0  0  0  0  0  0  0
   22.5650  -20.0667  -14.8751 N   0  0  0  0  0  0  0  0  0  0  0  0
   20.2825  -20.0486  -15.5152 C   0  0  0  0  0  0  0  0  0  0  0  0
   19.0701  -20.0908  -14.8627 O   0  0  0  0  0  0  0  0  0  0  0  0
   20.4354  -20.7278  -16.5522 O   0  0  0  0  0  0  0  0  0  0  0  0
  2  1  1  0
  3  2  1  0
  4  3  1  0
  4  5  1  0
  5  7  1  0
  5  6  1  1
  7  8  2  0
  9 10  1  0
  9  7  1  0
 10 11  1  1
 12 11  1  0
 13 14  1  0
 13 12  1  0
 15 14  1  0
 16 17  2  0
 16 10  1  0
 18 19  1  0
 19 21  1  0
 20 19  2  0
 22 21  1  6
 22 23  1  0
 22 24  1  0
 23 16  1  0
 24 25  1  0
 26 24  2  0
M  END
$$$$
