MKN.pdb
     RDKit          3D

 26 25  0  0  1  0  0  0  0  0999 V2000
   27.8528  -12.2532  -14.7833 C   0  0  0  0  0  0  0  0  0  0  0  0
   26.9592  -13.6572  -15.5195 S   0  0  0  0  0  0  0  0  0  0  0  0
   26.6892  -13.2768  -17.2886 C   0  0  0  0  0  0  0  0  0  0  0  0
   25.5605  -12.3027  -17.4007 C   0  0  0  0  0  0  0  0  0  0  0  0
   24.1967  -12.9453  -17.4092 C   0  0  2  0  0  0  0  0  0  0  0  0
   24.0646  -13.8920  -18.4813 N   0  0  0  0  0  0  0  0  0  0  0  0
   23.1711  -11.8751  -17.4656 C   0  0  0  0  0  0  0  0  0  0  0  0
   23.2024  -11.0115  -18.3656 O   0  0  0  0  0  0  0  0  0  0  0  0
   22.1038  -11.7850  -16.4916 N   0  0  0  0  0  0  0  0  0  0  0  0
   21.0819  -10.7972  -16.6013 C   0  0  1  0  0  0  0  0  0  0  0  0
   19.6713  -11.1996  -16.5342 C   0  0  0  0  0  0  0  0  0  0  0  0
   19.1603  -12.3974  -17.2040 C   0  0  0  0  0  0  0  0  0  0  0  0
   17.6954  -12.6534  -17.1313 C   0  0  0  0  0  0  0  0  0  0  0  0
   17.3447  -13.8646  -18.0007 C   0  0  0  0  0  0  0  0  0  0  0  0
   15.9004  -14.0637  -18.0011 N   0  0  0  0  0  0  0  0  0  0  0  0
   21.3836   -9.6153  -15.7127 C   0  0  0  0  0  0  0  0  0  0  0  0
   22.1060   -9.7376  -14.6815 O   0  0  0  0  0  0  0  0  0  0  0  0
   22.8308   -4.2084  -15.0411 N   0  0  0  0  0  0  0  0  0  0  0  0
   22.5797   -5.4373  -14.3781 C   0  0  0  0  0  0  0  0  0  0  0  0
   22.4667   -5.4151  -13.1288 O   0  0  0  0  0  0  0  0  0  0  0  0
   22.4670   -6.6612  -15.1944 C   0  0  0  0  0  0  0  0  0  0  0  0
   21.0659   -7.1686  -15.1411 C   0  0  2  0  0  0  0  0  0  0  0  0
   20.8736   -8.3323  -15.9967 N   0  0  0  0  0  0  0  0  0  0  0  0
   20.0540   -6.1653  -15.4945 C   0  0  0  0  0  0  0  0  0  0  0  0
   19.7490   -5.9009  -16.8115 O   0  0  0  0  0  0  0  0  0  0  0  0
   19.4558   -5.5358  -14.5968 O   0  0  0  0  0  0  0  0  0  0  0  0
  2  1  1  0
  3  2  1  0
  4  3  1  0
  4  5  1  0
  5  7  1  0
  5  6  1  6
  7  8  2  0
  9 10  1  0
  9  7  1  0
 10 11  1  1
 12 11  1  0
 13 14  1  0
 13 12  1  0
 15 14  1  0
 16 17  2  0
 16 10  1  0
 18 19  1  0
 19 21  1  0
 20 19  2  0
 22 21  1  6
 22 23  1  0
 22 24  1  0
 23 16  1  0
 24 25  1  0
 26 24  2  0
M  END
$$$$
