MKN.pdb
     RDKit          3D

 26 25  0  0  1  0  0  0  0  0999 V2000
   28.2060  -16.6279  -19.4482 C   0  0  0  0  0  0  0  0  0  0  0  0
   28.8175  -16.1533  -17.8013 S   0  0  0  0  0  0  0  0  0  0  0  0
   27.3634  -15.7742  -16.7576 C   0  0  0  0  0  0  0  0  0  0  0  0
   26.4268  -16.9387  -16.8025 C   0  0  0  0  0  0  0  0  0  0  0  0
   25.1223  -16.7023  -16.0845 C   0  0  2  0  0  0  0  0  0  0  0  0
   25.3116  -15.9445  -14.8792 N   0  0  0  0  0  0  0  0  0  0  0  0
   24.4759  -18.0142  -15.8361 C   0  0  0  0  0  0  0  0  0  0  0  0
   24.2621  -18.8056  -16.7766 O   0  0  0  0  0  0  0  0  0  0  0  0
   24.0685  -18.4284  -14.5101 N   0  0  0  0  0  0  0  0  0  0  0  0
   23.3912  -19.6642  -14.2951 C   0  0  1  0  0  0  0  0  0  0  0  0
   23.9560  -20.6510  -13.3659 C   0  0  0  0  0  0  0  0  0  0  0  0
   23.8178  -22.0946  -13.5691 C   0  0  0  0  0  0  0  0  0  0  0  0
   24.8377  -22.7700  -14.4179 C   0  0  0  0  0  0  0  0  0  0  0  0
   24.4374  -24.2328  -14.6312 C   0  0  0  0  0  0  0  0  0  0  0  0
   25.4141  -24.8858  -15.4944 N   0  0  0  0  0  0  0  0  0  0  0  0
   21.9187  -19.4325  -14.0597 C   0  0  0  0  0  0  0  0  0  0  0  0
   21.5103  -18.7668  -13.0646 O   0  0  0  0  0  0  0  0  0  0  0  0
   19.5628  -17.9863  -17.8882 N   0  0  0  0  0  0  0  0  0  0  0  0
   19.1548  -18.1443  -16.5386 C   0  0  0  0  0  0  0  0  0  0  0  0
   19.1006  -17.1172  -15.8202 O   0  0  0  0  0  0  0  0  0  0  0  0
   18.8205  -19.5007  -16.0641 C   0  0  0  0  0  0  0  0  0  0  0  0
   19.5087  -19.7586  -14.7667 C   0  0  2  0  0  0  0  0  0  0  0  0
   20.9435  -19.9473  -14.9376 N   0  0  0  0  0  0  0  0  0  0  0  0
   18.9777  -20.9112  -14.0282 C   0  0  0  0  0  0  0  0  0  0  0  0
   19.6078  -22.1351  -14.0778 O   0  0  0  0  0  0  0  0  0  0  0  0
   17.9402  -20.7921  -13.3431 O   0  0  0  0  0  0  0  0  0  0  0  0
  2  1  1  0
  3  2  1  0
  4  3  1  0
  4  5  1  0
  5  7  1  0
  5  6  1  1
  7  8  2  0
  9 10  1  0
  9  7  1  0
 10 11  1  1
 12 11  1  0
 13 14  1  0
 13 12  1  0
 15 14  1  0
 16 17  2  0
 16 10  1  0
 18 19  1  0
 19 21  1  0
 20 19  2  0
 22 21  1  6
 22 23  1  0
 22 24  1  0
 23 16  1  0
 24 25  1  0
 26 24  2  0
M  END
$$$$
