MKN.pdb
     RDKit          3D

 26 25  0  0  1  0  0  0  0  0999 V2000
   29.4898  -21.4185   -4.5235 C   0  0  0  0  0  0  0  0  0  0  0  0
   28.8736  -19.9580   -5.4171 S   0  0  0  0  0  0  0  0  0  0  0  0
   27.0470  -19.9738   -5.3131 C   0  0  0  0  0  0  0  0  0  0  0  0
   26.4973  -20.4068   -6.6344 C   0  0  0  0  0  0  0  0  0  0  0  0
   27.0966  -19.6825   -7.8131 C   0  0  2  0  0  0  0  0  0  0  0  0
   27.1727  -18.2671   -7.5815 N   0  0  0  0  0  0  0  0  0  0  0  0
   26.3089  -20.0194   -9.0241 C   0  0  0  0  0  0  0  0  0  0  0  0
   25.1751  -19.5297   -9.2014 O   0  0  0  0  0  0  0  0  0  0  0  0
   26.8127  -20.9199  -10.0395 N   0  0  0  0  0  0  0  0  0  0  0  0
   26.4802  -20.7466  -11.4148 C   0  0  1  0  0  0  0  0  0  0  0  0
   27.4684  -21.0774  -12.4493 C   0  0  0  0  0  0  0  0  0  0  0  0
   27.1701  -20.9934  -13.8805 C   0  0  0  0  0  0  0  0  0  0  0  0
   28.2199  -21.4557  -14.8297 C   0  0  0  0  0  0  0  0  0  0  0  0
   27.7564  -21.2020  -16.2673 C   0  0  0  0  0  0  0  0  0  0  0  0
   28.7551  -21.7109  -17.1995 N   0  0  0  0  0  0  0  0  0  0  0  0
   25.1208  -21.3300  -11.7134 C   0  0  0  0  0  0  0  0  0  0  0  0
   24.7716  -22.4523  -11.2459 O   0  0  0  0  0  0  0  0  0  0  0  0
   21.2364  -21.5389  -10.7750 N   0  0  0  0  0  0  0  0  0  0  0  0
   21.0024  -20.3456  -11.5057 C   0  0  0  0  0  0  0  0  0  0  0  0
   20.1121  -19.5679  -11.0854 O   0  0  0  0  0  0  0  0  0  0  0  0
   21.8163  -20.0929  -12.7101 C   0  0  0  0  0  0  0  0  0  0  0  0
   22.8587  -21.1514  -12.8383 C   0  0  2  0  0  0  0  0  0  0  0  0
   24.1895  -20.6485  -12.5228 N   0  0  0  0  0  0  0  0  0  0  0  0
   22.9076  -21.7835  -14.1626 C   0  0  0  0  0  0  0  0  0  0  0  0
   21.8924  -22.6104  -14.5903 O   0  0  0  0  0  0  0  0  0  0  0  0
   23.8791  -21.5766  -14.9199 O   0  0  0  0  0  0  0  0  0  0  0  0
  2  1  1  0
  3  2  1  0
  4  3  1  0
  4  5  1  0
  5  7  1  0
  5  6  1  1
  7  8  2  0
  9 10  1  0
  9  7  1  0
 10 11  1  6
 12 11  1  0
 13 14  1  0
 13 12  1  0
 15 14  1  0
 16 17  2  0
 16 10  1  0
 18 19  1  0
 19 21  1  0
 20 19  2  0
 22 21  1  6
 22 23  1  0
 22 24  1  0
 23 16  1  0
 24 25  1  0
 26 24  2  0
M  END
$$$$
