MKN.pdb
     RDKit          3D

 26 25  0  0  1  0  0  0  0  0999 V2000
   23.9846  -26.4601  -20.3896 C   0  0  0  0  0  0  0  0  0  0  0  0
   25.6805  -26.1845  -19.7901 S   0  0  0  0  0  0  0  0  0  0  0  0
   25.8028  -26.9145  -18.1169 C   0  0  0  0  0  0  0  0  0  0  0  0
   25.3483  -25.8989  -17.1183 C   0  0  0  0  0  0  0  0  0  0  0  0
   26.3152  -24.7589  -16.9220 C   0  0  2  0  0  0  0  0  0  0  0  0
   27.5335  -25.1994  -16.3018 N   0  0  0  0  0  0  0  0  0  0  0  0
   25.6358  -23.6920  -16.1471 C   0  0  0  0  0  0  0  0  0  0  0  0
   25.5535  -23.7633  -14.9041 O   0  0  0  0  0  0  0  0  0  0  0  0
   25.0448  -22.5370  -16.7894 N   0  0  0  0  0  0  0  0  0  0  0  0
   24.5484  -21.4387  -16.0282 C   0  0  1  0  0  0  0  0  0  0  0  0
   24.8332  -20.0652  -16.4623 C   0  0  0  0  0  0  0  0  0  0  0  0
   25.8560  -19.2330  -15.8253 C   0  0  0  0  0  0  0  0  0  0  0  0
   25.9721  -17.8195  -16.2782 C   0  0  0  0  0  0  0  0  0  0  0  0
   27.0365  -17.1012  -15.4435 C   0  0  0  0  0  0  0  0  0  0  0  0
   27.0360  -15.6802  -15.7693 N   0  0  0  0  0  0  0  0  0  0  0  0
   23.0928  -21.6410  -15.6848 C   0  0  0  0  0  0  0  0  0  0  0  0
   22.2698  -22.0705  -16.5441 O   0  0  0  0  0  0  0  0  0  0  0  0
   18.6829  -21.8569  -13.2462 N   0  0  0  0  0  0  0  0  0  0  0  0
   19.6085  -21.6860  -12.1847 C   0  0  0  0  0  0  0  0  0  0  0  0
   19.1676  -21.7343  -11.0111 O   0  0  0  0  0  0  0  0  0  0  0  0
   21.0270  -21.4628  -12.5239 C   0  0  0  0  0  0  0  0  0  0  0  0
   21.2024  -21.5309  -14.0031 C   0  0  2  0  0  0  0  0  0  0  0  0
   22.5951  -21.3603  -14.3963 N   0  0  0  0  0  0  0  0  0  0  0  0
   20.3920  -20.5574  -14.7455 C   0  0  0  0  0  0  0  0  0  0  0  0
   20.8042  -19.2500  -14.8811 O   0  0  0  0  0  0  0  0  0  0  0  0
   19.3116  -20.9081  -15.2647 O   0  0  0  0  0  0  0  0  0  0  0  0
  2  1  1  0
  3  2  1  0
  4  3  1  0
  4  5  1  0
  5  7  1  0
  5  6  1  1
  7  8  2  0
  9 10  1  0
  9  7  1  0
 10 11  1  6
 12 11  1  0
 13 14  1  0
 13 12  1  0
 15 14  1  0
 16 17  2  0
 16 10  1  0
 18 19  1  0
 19 21  1  0
 20 19  2  0
 22 21  1  1
 22 23  1  0
 22 24  1  0
 23 16  1  0
 24 25  1  0
 26 24  2  0
M  END
$$$$
