MKN.pdb
     RDKit          3D

 26 25  0  0  1  0  0  0  0  0999 V2000
   26.8196  -19.3594  -18.2015 C   0  0  0  0  0  0  0  0  0  0  0  0
   28.2228  -18.9854  -17.1050 S   0  0  0  0  0  0  0  0  0  0  0  0
   29.7594  -19.3828  -18.0151 C   0  0  0  0  0  0  0  0  0  0  0  0
   29.9010  -20.8694  -18.0868 C   0  0  0  0  0  0  0  0  0  0  0  0
   31.1465  -21.3314  -18.8000 C   0  0  2  0  0  0  0  0  0  0  0  0
   31.1625  -20.9002  -20.1699 N   0  0  0  0  0  0  0  0  0  0  0  0
   31.2477  -22.8053  -18.6662 C   0  0  0  0  0  0  0  0  0  0  0  0
   30.4774  -23.5554  -19.2993 O   0  0  0  0  0  0  0  0  0  0  0  0
   32.2298  -23.4306  -17.8058 N   0  0  0  0  0  0  0  0  0  0  0  0
   32.3056  -24.8481  -17.6756 C   0  0  1  0  0  0  0  0  0  0  0  0
   33.5262  -25.4650  -17.1410 C   0  0  0  0  0  0  0  0  0  0  0  0
   33.6839  -26.9148  -17.0083 C   0  0  0  0  0  0  0  0  0  0  0  0
   33.6326  -27.7287  -18.2540 C   0  0  0  0  0  0  0  0  0  0  0  0
   33.8655  -29.2031  -17.9110 C   0  0  0  0  0  0  0  0  0  0  0  0
   33.8378  -29.9990  -19.1322 N   0  0  0  0  0  0  0  0  0  0  0  0
   31.0567  -25.3926  -17.0266 C   0  0  0  0  0  0  0  0  0  0  0  0
   30.6328  -24.9293  -15.9285 O   0  0  0  0  0  0  0  0  0  0  0  0
   26.7054  -27.8182  -16.2246 N   0  0  0  0  0  0  0  0  0  0  0  0
   26.8172  -26.4073  -16.3217 C   0  0  0  0  0  0  0  0  0  0  0  0
   25.8412  -25.7160  -15.9429 O   0  0  0  0  0  0  0  0  0  0  0  0
   28.0690  -25.8411  -16.8599 C   0  0  0  0  0  0  0  0  0  0  0  0
   29.0514  -26.9379  -17.0951 C   0  0  2  0  0  0  0  0  0  0  0  0
   30.3157  -26.4359  -17.6175 N   0  0  0  0  0  0  0  0  0  0  0  0
   28.5663  -27.9903  -17.9967 C   0  0  0  0  0  0  0  0  0  0  0  0
   27.7089  -28.9694  -17.5455 O   0  0  0  0  0  0  0  0  0  0  0  0
   28.9306  -28.0086  -19.1913 O   0  0  0  0  0  0  0  0  0  0  0  0
  2  1  1  0
  3  2  1  0
  4  3  1  0
  4  5  1  0
  5  7  1  0
  5  6  1  6
  7  8  2  0
  9 10  1  0
  9  7  1  0
 10 11  1  1
 12 11  1  0
 13 14  1  0
 13 12  1  0
 15 14  1  0
 16 17  2  0
 16 10  1  0
 18 19  1  0
 19 21  1  0
 20 19  2  0
 22 21  1  6
 22 23  1  0
 22 24  1  0
 23 16  1  0
 24 25  1  0
 26 24  2  0
M  END
$$$$
