MKN.pdb
     RDKit          3D

 26 25  0  0  1  0  0  0  0  0999 V2000
   25.4688  -21.4121  -19.2757 C   0  0  0  0  0  0  0  0  0  0  0  0
   26.8057  -20.2988  -19.8091 S   0  0  0  0  0  0  0  0  0  0  0  0
   27.6060  -19.6323  -18.3050 C   0  0  0  0  0  0  0  0  0  0  0  0
   27.1446  -20.4278  -17.1261 C   0  0  0  0  0  0  0  0  0  0  0  0
   26.5666  -19.5918  -16.0125 C   0  0  2  0  0  0  0  0  0  0  0  0
   27.4774  -18.5620  -15.5966 N   0  0  0  0  0  0  0  0  0  0  0  0
   26.1787  -20.4920  -14.8992 C   0  0  0  0  0  0  0  0  0  0  0  0
   25.5055  -21.5195  -15.1176 O   0  0  0  0  0  0  0  0  0  0  0  0
   26.5573  -20.2216  -13.5283 N   0  0  0  0  0  0  0  0  0  0  0  0
   26.0508  -21.0059  -12.4510 C   0  0  1  0  0  0  0  0  0  0  0  0
   26.8883  -21.2449  -11.2689 C   0  0  0  0  0  0  0  0  0  0  0  0
   28.3388  -21.4272  -11.3540 C   0  0  0  0  0  0  0  0  0  0  0  0
   29.0728  -21.6993  -10.0875 C   0  0  0  0  0  0  0  0  0  0  0  0
   30.5758  -21.7702  -10.3731 C   0  0  0  0  0  0  0  0  0  0  0  0
   31.3038  -21.9360   -9.1209 N   0  0  0  0  0  0  0  0  0  0  0  0
   24.6529  -20.5712  -12.0847 C   0  0  0  0  0  0  0  0  0  0  0  0
   24.4475  -19.5139  -11.4211 O   0  0  0  0  0  0  0  0  0  0  0  0
   20.0421  -18.9630  -12.8094 N   0  0  0  0  0  0  0  0  0  0  0  0
   20.9034  -19.1072  -13.9275 C   0  0  0  0  0  0  0  0  0  0  0  0
   20.4584  -18.7803  -15.0542 O   0  0  0  0  0  0  0  0  0  0  0  0
   22.2638  -19.6303  -13.6986 C   0  0  0  0  0  0  0  0  0  0  0  0
   22.2077  -20.7531  -12.7189 C   0  0  2  0  0  0  0  0  0  0  0  0
   23.5244  -21.3243  -12.4669 N   0  0  0  0  0  0  0  0  0  0  0  0
   21.3013  -21.8404  -13.1086 C   0  0  0  0  0  0  0  0  0  0  0  0
   20.0293  -21.9231  -12.5864 O   0  0  0  0  0  0  0  0  0  0  0  0
   21.6785  -22.7087  -13.9233 O   0  0  0  0  0  0  0  0  0  0  0  0
  2  1  1  0
  3  2  1  0
  4  3  1  0
  4  5  1  0
  5  7  1  0
  5  6  1  1
  7  8  2  0
  9 10  1  0
  9  7  1  0
 10 11  1  1
 12 11  1  0
 13 14  1  0
 13 12  1  0
 15 14  1  0
 16 17  2  0
 16 10  1  0
 18 19  1  0
 19 21  1  0
 20 19  2  0
 22 21  1  6
 22 23  1  0
 22 24  1  0
 23 16  1  0
 24 25  1  0
 26 24  2  0
M  END
$$$$
