MKN.pdb
     RDKit          3D

 26 25  0  0  1  0  0  0  0  0999 V2000
   23.4615  -20.6782   -8.2210 C   0  0  0  0  0  0  0  0  0  0  0  0
   25.1354  -21.0301   -7.6000 S   0  0  0  0  0  0  0  0  0  0  0  0
   26.2928  -20.8795   -9.0089 C   0  0  0  0  0  0  0  0  0  0  0  0
   25.4980  -20.7087  -10.2637 C   0  0  0  0  0  0  0  0  0  0  0  0
   26.3221  -20.7804  -11.5242 C   0  0  2  0  0  0  0  0  0  0  0  0
   27.5106  -19.9800  -11.4255 N   0  0  0  0  0  0  0  0  0  0  0  0
   25.4660  -20.3889  -12.6706 C   0  0  0  0  0  0  0  0  0  0  0  0
   25.0457  -19.2192  -12.7798 O   0  0  0  0  0  0  0  0  0  0  0  0
   25.0839  -21.3336  -13.6989 N   0  0  0  0  0  0  0  0  0  0  0  0
   24.2968  -20.9330  -14.8179 C   0  0  1  0  0  0  0  0  0  0  0  0
   24.8160  -21.1241  -16.1780 C   0  0  0  0  0  0  0  0  0  0  0  0
   25.9974  -20.4175  -16.6775 C   0  0  0  0  0  0  0  0  0  0  0  0
   26.4738  -20.7573  -18.0466 C   0  0  0  0  0  0  0  0  0  0  0  0
   27.7896  -20.0251  -18.3262 C   0  0  0  0  0  0  0  0  0  0  0  0
   27.5340  -18.5965  -18.4642 N   0  0  0  0  0  0  0  0  0  0  0  0
   22.8757  -21.4200  -14.6732 C   0  0  0  0  0  0  0  0  0  0  0  0
   22.5953  -22.4193  -13.9501 O   0  0  0  0  0  0  0  0  0  0  0  0
   19.0429  -19.8890  -11.7028 N   0  0  0  0  0  0  0  0  0  0  0  0
   19.3995  -19.2639  -12.9254 C   0  0  0  0  0  0  0  0  0  0  0  0
   18.5708  -18.4769  -13.4431 O   0  0  0  0  0  0  0  0  0  0  0  0
   20.7172  -19.5759  -13.5113 C   0  0  0  0  0  0  0  0  0  0  0  0
   20.5370  -20.4487  -14.7068 C   0  0  2  0  0  0  0  0  0  0  0  0
   21.8083  -20.7816  -15.3364 N   0  0  0  0  0  0  0  0  0  0  0  0
   19.6506  -19.8822  -15.7310 C   0  0  0  0  0  0  0  0  0  0  0  0
   20.0397  -18.7943  -16.4809 O   0  0  0  0  0  0  0  0  0  0  0  0
   18.5253  -20.3851  -15.9330 O   0  0  0  0  0  0  0  0  0  0  0  0
  2  1  1  0
  3  2  1  0
  4  3  1  0
  4  5  1  0
  5  7  1  0
  5  6  1  1
  7  8  2  0
  9 10  1  0
  9  7  1  0
 10 11  1  6
 12 11  1  0
 13 14  1  0
 13 12  1  0
 15 14  1  0
 16 17  2  0
 16 10  1  0
 18 19  1  0
 19 21  1  0
 20 19  2  0
 22 21  1  1
 22 23  1  0
 22 24  1  0
 23 16  1  0
 24 25  1  0
 26 24  2  0
M  END
$$$$
