MKN.pdb
     RDKit          3D

 26 25  0  0  1  0  0  0  0  0999 V2000
   23.2908  -20.3669   -9.1835 C   0  0  0  0  0  0  0  0  0  0  0  0
   24.9207  -20.2332   -8.3854 S   0  0  0  0  0  0  0  0  0  0  0  0
   26.1747  -20.8142   -9.5842 C   0  0  0  0  0  0  0  0  0  0  0  0
   25.5773  -20.7801  -10.9544 C   0  0  0  0  0  0  0  0  0  0  0  0
   26.4756  -21.3413  -12.0273 C   0  0  2  0  0  0  0  0  0  0  0  0
   27.7845  -20.7516  -11.9834 N   0  0  0  0  0  0  0  0  0  0  0  0
   25.8127  -21.1577  -13.3415 C   0  0  0  0  0  0  0  0  0  0  0  0
   25.9884  -20.1136  -14.0018 O   0  0  0  0  0  0  0  0  0  0  0  0
   24.9430  -22.1668  -13.9083 N   0  0  0  0  0  0  0  0  0  0  0  0
   24.5659  -22.1331  -15.2827 C   0  0  1  0  0  0  0  0  0  0  0  0
   24.5538  -23.3762  -16.0641 C   0  0  0  0  0  0  0  0  0  0  0  0
   25.7221  -24.2528  -16.1694 C   0  0  0  0  0  0  0  0  0  0  0  0
   25.6032  -25.4549  -17.0400 C   0  0  0  0  0  0  0  0  0  0  0  0
   26.9689  -26.1381  -17.1569 C   0  0  0  0  0  0  0  0  0  0  0  0
   26.8390  -27.3582  -17.9442 N   0  0  0  0  0  0  0  0  0  0  0  0
   23.3052  -21.3253  -15.4712 C   0  0  0  0  0  0  0  0  0  0  0  0
   22.3683  -21.3640  -14.6221 O   0  0  0  0  0  0  0  0  0  0  0  0
   19.8470  -18.1117  -17.2680 N   0  0  0  0  0  0  0  0  0  0  0  0
   21.0775  -17.6024  -17.7570 C   0  0  0  0  0  0  0  0  0  0  0  0
   21.0530  -16.5148  -18.3820 O   0  0  0  0  0  0  0  0  0  0  0  0
   22.3057  -18.3792  -17.5019 C   0  0  0  0  0  0  0  0  0  0  0  0
   21.9552  -19.6534  -16.8114 C   0  0  2  0  0  0  0  0  0  0  0  0
   23.1232  -20.4981  -16.5978 N   0  0  0  0  0  0  0  0  0  0  0  0
   20.9340  -20.4473  -17.5062 C   0  0  0  0  0  0  0  0  0  0  0  0
   19.6240  -20.4439  -17.0806 O   0  0  0  0  0  0  0  0  0  0  0  0
   21.2464  -21.1400  -18.4974 O   0  0  0  0  0  0  0  0  0  0  0  0
  2  1  1  0
  3  2  1  0
  4  3  1  0
  4  5  1  0
  5  7  1  0
  5  6  1  6
  7  8  2  0
  9 10  1  0
  9  7  1  0
 10 11  1  1
 12 11  1  0
 13 14  1  0
 13 12  1  0
 15 14  1  0
 16 17  2  0
 16 10  1  0
 18 19  1  0
 19 21  1  0
 20 19  2  0
 22 21  1  6
 22 23  1  0
 22 24  1  0
 23 16  1  0
 24 25  1  0
 26 24  2  0
M  END
$$$$
