MKN.pdb
     RDKit          3D

 26 25  0  0  1  0  0  0  0  0999 V2000
   26.8021  -19.5525   -6.6949 C   0  0  0  0  0  0  0  0  0  0  0  0
   28.2641  -20.6332   -6.6169 S   0  0  0  0  0  0  0  0  0  0  0  0
   28.5022  -21.3650   -8.2767 C   0  0  0  0  0  0  0  0  0  0  0  0
   27.3977  -20.8957   -9.1685 C   0  0  0  0  0  0  0  0  0  0  0  0
   27.4841  -21.4229  -10.5783 C   0  0  2  0  0  0  0  0  0  0  0  0
   28.7790  -21.1867  -11.1530 N   0  0  0  0  0  0  0  0  0  0  0  0
   26.3888  -20.8190  -11.3759 C   0  0  0  0  0  0  0  0  0  0  0  0
   26.2312  -19.5816  -11.4048 O   0  0  0  0  0  0  0  0  0  0  0  0
   25.4657  -21.6270  -12.1445 N   0  0  0  0  0  0  0  0  0  0  0  0
   24.5982  -21.0425  -13.1129 C   0  0  1  0  0  0  0  0  0  0  0  0
   24.9656  -21.0783  -14.5341 C   0  0  0  0  0  0  0  0  0  0  0  0
   24.1231  -20.4968  -15.5813 C   0  0  0  0  0  0  0  0  0  0  0  0
   24.1834  -19.0214  -15.7717 C   0  0  0  0  0  0  0  0  0  0  0  0
   23.2146  -18.6098  -16.8841 C   0  0  0  0  0  0  0  0  0  0  0  0
   23.2898  -17.1683  -17.0890 N   0  0  0  0  0  0  0  0  0  0  0  0
   23.1703  -21.4714  -12.8792 C   0  0  0  0  0  0  0  0  0  0  0  0
   22.8660  -22.6915  -12.7419 O   0  0  0  0  0  0  0  0  0  0  0  0
   17.5378  -19.6733  -12.8984 N   0  0  0  0  0  0  0  0  0  0  0  0
   18.5137  -20.1020  -11.9622 C   0  0  0  0  0  0  0  0  0  0  0  0
   18.1297  -20.8095  -10.9999 O   0  0  0  0  0  0  0  0  0  0  0  0
   19.9147  -19.6916  -12.1760 C   0  0  0  0  0  0  0  0  0  0  0  0
   20.7279  -20.8791  -12.5658 C   0  0  2  0  0  0  0  0  0  0  0  0
   22.1227  -20.5312  -12.8046 N   0  0  0  0  0  0  0  0  0  0  0  0
   20.2214  -21.5873  -13.7480 C   0  0  0  0  0  0  0  0  0  0  0  0
   19.3027  -22.6060  -13.6232 O   0  0  0  0  0  0  0  0  0  0  0  0
   20.6229  -21.2709  -14.8876 O   0  0  0  0  0  0  0  0  0  0  0  0
  2  1  1  0
  3  2  1  0
  4  3  1  0
  4  5  1  0
  5  7  1  0
  5  6  1  6
  7  8  2  0
  9 10  1  0
  9  7  1  0
 10 11  1  6
 12 11  1  0
 13 14  1  0
 13 12  1  0
 15 14  1  0
 16 17  2  0
 16 10  1  0
 18 19  1  0
 19 21  1  0
 20 19  2  0
 22 21  1  6
 22 23  1  0
 22 24  1  0
 23 16  1  0
 24 25  1  0
 26 24  2  0
M  END
$$$$
