SCN.pdb
     RDKit          3D

 21 20  0  0  1  0  0  0  0  0999 V2000
   11.9970  -18.8829   13.9516 O   0  0  0  0  0  0  0  0  0  0  0  0
   11.7666  -17.6950   13.2636 C   0  0  0  0  0  0  0  0  0  0  0  0
   10.9871  -16.7575   14.1591 C   0  0  2  0  0  0  0  0  0  0  0  0
   10.6710  -15.5458   13.4346 N   0  0  0  0  0  0  0  0  0  0  0  0
   11.8221  -16.4258   15.3132 C   0  0  0  0  0  0  0  0  0  0  0  0
   12.6830  -15.5176   15.2449 O   0  0  0  0  0  0  0  0  0  0  0  0
   11.6905  -17.1236   16.5665 N   0  0  0  0  0  0  0  0  0  0  0  0
   12.4349  -16.7346   17.7315 C   0  0  1  0  0  0  0  0  0  0  0  0
   11.5985  -16.7566   18.9888 C   0  0  0  0  0  0  0  0  0  0  0  0
   10.8241  -18.3722   19.1987 S   0  0  0  0  0  0  0  0  0  0  0  0
   13.6433  -17.5730   17.9340 C   0  0  0  0  0  0  0  0  0  0  0  0
   13.6971  -18.7673   17.5681 O   0  0  0  0  0  0  0  0  0  0  0  0
   18.9191  -17.9638   19.6210 N   0  0  0  0  0  0  0  0  0  0  0  0
   18.4795  -17.4098   18.3794 C   0  0  0  0  0  0  0  0  0  0  0  0
   19.3109  -17.4469   17.4486 O   0  0  0  0  0  0  0  0  0  0  0  0
   17.1251  -16.8713   18.3436 C   0  0  0  0  0  0  0  0  0  0  0  0
   16.0209  -17.7664   18.7764 C   0  0  2  0  0  0  0  0  0  0  0  0
   14.7783  -17.0129   18.5609 N   0  0  0  0  0  0  0  0  0  0  0  0
   16.0319  -18.1841   20.1812 C   0  0  0  0  0  0  0  0  0  0  0  0
   15.3878  -17.5424   21.0334 O   0  0  0  0  0  0  0  0  0  0  0  0
   16.7475  -19.2849   20.5851 O   0  0  0  0  0  0  0  0  0  0  0  0
  1  2  1  0
  2  3  1  0
  3  4  1  6
  5  7  1  0
  5  3  1  0
  6  5  2  0
  8  9  1  1
  8 11  1  0
  8  7  1  0
 10  9  1  0
 11 12  2  0
 13 14  1  0
 14 16  1  0
 15 14  2  0
 17 16  1  1
 17 19  1  0
 18 17  1  0
 18 11  1  0
 19 20  2  0
 19 21  1  0
M  END
$$$$
