SCN.pdb
     RDKit          3D

 21 20  0  0  1  0  0  0  0  0999 V2000
    7.3126  -15.8085   19.8908 O   0  0  0  0  0  0  0  0  0  0  0  0
    6.3278  -14.8459   20.0927 C   0  0  0  0  0  0  0  0  0  0  0  0
    6.9957  -13.5133   20.3505 C   0  0  2  0  0  0  0  0  0  0  0  0
    7.7831  -13.1343   19.1974 N   0  0  0  0  0  0  0  0  0  0  0  0
    7.8761  -13.6582   21.5094 C   0  0  0  0  0  0  0  0  0  0  0  0
    9.1164  -13.7659   21.3659 O   0  0  0  0  0  0  0  0  0  0  0  0
    7.3582  -13.6830   22.8534 N   0  0  0  0  0  0  0  0  0  0  0  0
    8.2070  -13.9186   23.9877 C   0  0  1  0  0  0  0  0  0  0  0  0
    7.6415  -13.3446   25.2650 C   0  0  0  0  0  0  0  0  0  0  0  0
    5.9966  -14.0150   25.5796 S   0  0  0  0  0  0  0  0  0  0  0  0
    8.4947  -15.3616   24.1860 C   0  0  0  0  0  0  0  0  0  0  0  0
    7.6597  -16.2526   23.9177 O   0  0  0  0  0  0  0  0  0  0  0  0
   12.2086  -16.5414   22.0292 N   0  0  0  0  0  0  0  0  0  0  0  0
   11.2548  -17.3594   22.7095 C   0  0  0  0  0  0  0  0  0  0  0  0
   10.4333  -17.9505   21.9782 O   0  0  0  0  0  0  0  0  0  0  0  0
   11.3504  -17.4087   24.1635 C   0  0  0  0  0  0  0  0  0  0  0  0
   10.1086  -17.1580   24.9400 C   0  0  2  0  0  0  0  0  0  0  0  0
    9.7524  -15.7539   24.6951 N   0  0  0  0  0  0  0  0  0  0  0  0
   10.2009  -17.3309   26.3924 C   0  0  0  0  0  0  0  0  0  0  0  0
   10.0489  -16.3556   27.1530 O   0  0  0  0  0  0  0  0  0  0  0  0
   10.4549  -18.5639   26.9422 O   0  0  0  0  0  0  0  0  0  0  0  0
  1  2  1  0
  2  3  1  0
  3  4  1  6
  5  7  1  0
  5  3  1  0
  6  5  2  0
  8  9  1  1
  8 11  1  0
  8  7  1  0
 10  9  1  0
 11 12  2  0
 13 14  1  0
 14 16  1  0
 15 14  2  0
 17 16  1  6
 17 19  1  0
 18 17  1  0
 18 11  1  0
 19 20  2  0
 19 21  1  0
M  END
$$$$
