SCN.pdb
     RDKit          3D

 21 20  0  0  1  0  0  0  0  0999 V2000
    8.3505  -15.5508   18.6711 O   0  0  0  0  0  0  0  0  0  0  0  0
    7.1548  -14.9121   18.9872 C   0  0  0  0  0  0  0  0  0  0  0  0
    7.4697  -13.5596   19.5874 C   0  0  2  0  0  0  0  0  0  0  0  0
    8.1459  -12.7391   18.6062 N   0  0  0  0  0  0  0  0  0  0  0  0
    8.3510  -13.7621   20.7370 C   0  0  0  0  0  0  0  0  0  0  0  0
    9.5920  -13.6258   20.6284 O   0  0  0  0  0  0  0  0  0  0  0  0
    7.8331  -14.1236   22.0316 N   0  0  0  0  0  0  0  0  0  0  0  0
    8.6946  -14.3196   23.1640 C   0  0  1  0  0  0  0  0  0  0  0  0
    8.0456  -13.9102   24.4647 C   0  0  0  0  0  0  0  0  0  0  0  0
    6.4823  -14.7821   24.6875 S   0  0  0  0  0  0  0  0  0  0  0  0
    9.1689  -15.7220   23.2750 C   0  0  0  0  0  0  0  0  0  0  0  0
    8.4683  -16.6946   22.9198 O   0  0  0  0  0  0  0  0  0  0  0  0
   11.4047  -17.4949   21.2135 N   0  0  0  0  0  0  0  0  0  0  0  0
   12.5816  -17.3869   22.0167 C   0  0  0  0  0  0  0  0  0  0  0  0
   13.6622  -17.3831   21.3911 O   0  0  0  0  0  0  0  0  0  0  0  0
   12.3863  -17.2945   23.4586 C   0  0  0  0  0  0  0  0  0  0  0  0
   10.9898  -17.3375   23.9642 C   0  0  2  0  0  0  0  0  0  0  0  0
   10.4553  -15.9791   23.7986 N   0  0  0  0  0  0  0  0  0  0  0  0
   10.8170  -17.6982   25.3742 C   0  0  0  0  0  0  0  0  0  0  0  0
   10.7956  -16.8138   26.2518 O   0  0  0  0  0  0  0  0  0  0  0  0
   10.6755  -19.0104   25.7553 O   0  0  0  0  0  0  0  0  0  0  0  0
  1  2  1  0
  2  3  1  0
  3  4  1  6
  5  7  1  0
  5  3  1  0
  6  5  2  0
  8  9  1  1
  8 11  1  0
  8  7  1  0
 10  9  1  0
 11 12  2  0
 13 14  1  0
 14 16  1  0
 15 14  2  0
 17 16  1  1
 17 19  1  0
 18 17  1  0
 18 11  1  0
 19 20  2  0
 19 21  1  0
M  END
$$$$
