SCN.pdb
     RDKit          3D

 21 20  0  0  1  0  0  0  0  0999 V2000
    6.8968  -15.4526   18.4503 O   0  0  0  0  0  0  0  0  0  0  0  0
    7.7112  -15.2905   19.5675 C   0  0  0  0  0  0  0  0  0  0  0  0
    7.3874  -13.9632   20.2169 C   0  0  2  0  0  0  0  0  0  0  0  0
    7.7984  -12.8839   19.3455 N   0  0  0  0  0  0  0  0  0  0  0  0
    8.1276  -13.8757   21.4754 C   0  0  0  0  0  0  0  0  0  0  0  0
    9.3247  -13.5055   21.4935 O   0  0  0  0  0  0  0  0  0  0  0  0
    7.5161  -14.2089   22.7363 N   0  0  0  0  0  0  0  0  0  0  0  0
    8.2623  -14.2079   23.9635 C   0  0  1  0  0  0  0  0  0  0  0  0
    7.5133  -13.5497   25.0977 C   0  0  0  0  0  0  0  0  0  0  0  0
    6.0136  -14.4764   25.4802 S   0  0  0  0  0  0  0  0  0  0  0  0
    8.6705  -15.5745   24.3757 C   0  0  0  0  0  0  0  0  0  0  0  0
    7.9153  -16.5632   24.2528 O   0  0  0  0  0  0  0  0  0  0  0  0
   13.1603  -15.5107   23.5649 N   0  0  0  0  0  0  0  0  0  0  0  0
   12.3371  -16.6747   23.6603 C   0  0  0  0  0  0  0  0  0  0  0  0
   12.0574  -17.2270   22.5760 O   0  0  0  0  0  0  0  0  0  0  0  0
   11.9236  -17.0786   24.9989 C   0  0  0  0  0  0  0  0  0  0  0  0
   10.4659  -17.1073   25.2853 C   0  0  2  0  0  0  0  0  0  0  0  0
    9.9549  -15.7773   24.9274 N   0  0  0  0  0  0  0  0  0  0  0  0
   10.0790  -17.3560   26.6770 C   0  0  0  0  0  0  0  0  0  0  0  0
    9.5038  -16.4699   27.3379 O   0  0  0  0  0  0  0  0  0  0  0  0
   10.3404  -18.5634   27.2777 O   0  0  0  0  0  0  0  0  0  0  0  0
  1  2  1  0
  2  3  1  0
  3  4  1  6
  5  7  1  0
  5  3  1  0
  6  5  2  0
  8  9  1  1
  8 11  1  0
  8  7  1  0
 10  9  1  0
 11 12  2  0
 13 14  1  0
 14 16  1  0
 15 14  2  0
 17 16  1  1
 17 19  1  0
 18 17  1  0
 18 11  1  0
 19 20  2  0
 19 21  1  0
M  END
$$$$
