SCN.pdb
     RDKit          3D

 21 20  0  0  1  0  0  0  0  0999 V2000
    7.2594  -15.6728   20.3605 O   0  0  0  0  0  0  0  0  0  0  0  0
    6.4742  -14.5314   20.2257 C   0  0  0  0  0  0  0  0  0  0  0  0
    7.3223  -13.3180   20.5366 C   0  0  2  0  0  0  0  0  0  0  0  0
    8.3139  -13.1404   19.4981 N   0  0  0  0  0  0  0  0  0  0  0  0
    7.9971  -13.5452   21.8142 C   0  0  0  0  0  0  0  0  0  0  0  0
    9.1501  -14.0345   21.8550 O   0  0  0  0  0  0  0  0  0  0  0  0
    7.3692  -13.2187   23.0689 N   0  0  0  0  0  0  0  0  0  0  0  0
    7.9781  -13.5454   24.3280 C   0  0  1  0  0  0  0  0  0  0  0  0
    7.3228  -12.8383   25.4904 C   0  0  0  0  0  0  0  0  0  0  0  0
    5.9344  -13.8077   26.1123 S   0  0  0  0  0  0  0  0  0  0  0  0
    7.9864  -15.0072   24.5872 C   0  0  0  0  0  0  0  0  0  0  0  0
    7.1031  -15.7704   24.1395 O   0  0  0  0  0  0  0  0  0  0  0  0
   12.0471  -18.2375   22.9218 N   0  0  0  0  0  0  0  0  0  0  0  0
   10.8044  -18.3318   23.6207 C   0  0  0  0  0  0  0  0  0  0  0  0
   10.4300  -19.4898   23.9001 O   0  0  0  0  0  0  0  0  0  0  0  0
   10.1246  -17.0780   23.9237 C   0  0  0  0  0  0  0  0  0  0  0  0
    9.4441  -16.9691   25.2401 C   0  0  2  0  0  0  0  0  0  0  0  0
    9.0235  -15.5671   25.3656 N   0  0  0  0  0  0  0  0  0  0  0  0
   10.2537  -17.2822   26.4210 C   0  0  0  0  0  0  0  0  0  0  0  0
   10.3892  -18.4629   26.7959 O   0  0  0  0  0  0  0  0  0  0  0  0
   10.8764  -16.2871   27.1345 O   0  0  0  0  0  0  0  0  0  0  0  0
  1  2  1  0
  2  3  1  0
  3  4  1  6
  5  7  1  0
  5  3  1  0
  6  5  2  0
  8  9  1  1
  8 11  1  0
  8  7  1  0
 10  9  1  0
 11 12  2  0
 13 14  1  0
 14 16  1  0
 15 14  2  0
 17 16  1  6
 17 19  1  0
 18 17  1  0
 18 11  1  0
 19 20  2  0
 19 21  1  0
M  END
$$$$
