SCN.pdb
     RDKit          3D

 21 20  0  0  1  0  0  0  0  0999 V2000
    7.2980  -15.3975   20.1919 O   0  0  0  0  0  0  0  0  0  0  0  0
    6.4787  -14.2803   20.3267 C   0  0  0  0  0  0  0  0  0  0  0  0
    7.3365  -13.0893   20.6929 C   0  0  2  0  0  0  0  0  0  0  0  0
    8.2465  -12.7950   19.6073 N   0  0  0  0  0  0  0  0  0  0  0  0
    8.1064  -13.4292   21.8892 C   0  0  0  0  0  0  0  0  0  0  0  0
    9.3056  -13.7827   21.8038 O   0  0  0  0  0  0  0  0  0  0  0  0
    7.5226  -13.3720   23.2048 N   0  0  0  0  0  0  0  0  0  0  0  0
    8.2149  -13.8654   24.3624 C   0  0  1  0  0  0  0  0  0  0  0  0
    7.6334  -13.3410   25.6538 C   0  0  0  0  0  0  0  0  0  0  0  0
    5.8311  -13.3532   25.5808 S   0  0  0  0  0  0  0  0  0  0  0  0
    8.2486  -15.3490   24.4088 C   0  0  0  0  0  0  0  0  0  0  0  0
    7.5253  -16.0572   23.6752 O   0  0  0  0  0  0  0  0  0  0  0  0
   12.3419  -18.2090   22.5958 N   0  0  0  0  0  0  0  0  0  0  0  0
   11.1070  -18.4159   23.2843 C   0  0  0  0  0  0  0  0  0  0  0  0
   10.7509  -19.6065   23.4057 O   0  0  0  0  0  0  0  0  0  0  0  0
   10.4132  -17.2253   23.7605 C   0  0  0  0  0  0  0  0  0  0  0  0
    9.6885  -17.3267   25.0537 C   0  0  2  0  0  0  0  0  0  0  0  0
    9.1247  -15.9944   25.3094 N   0  0  0  0  0  0  0  0  0  0  0  0
   10.4921  -17.6854   26.2257 C   0  0  0  0  0  0  0  0  0  0  0  0
   10.4686  -18.8484   26.6726 O   0  0  0  0  0  0  0  0  0  0  0  0
   11.2832  -16.7530   26.8518 O   0  0  0  0  0  0  0  0  0  0  0  0
  1  2  1  0
  2  3  1  0
  3  4  1  6
  5  7  1  0
  5  3  1  0
  6  5  2  0
  8  9  1  1
  8 11  1  0
  8  7  1  0
 10  9  1  0
 11 12  2  0
 13 14  1  0
 14 16  1  0
 15 14  2  0
 17 16  1  6
 17 19  1  0
 18 17  1  0
 18 11  1  0
 19 20  2  0
 19 21  1  0
M  END
$$$$
