SCN.pdb
     RDKit          3D

 21 20  0  0  1  0  0  0  0  0999 V2000
    7.6822  -18.7402   20.7962 O   0  0  0  0  0  0  0  0  0  0  0  0
    6.5886  -17.9702   20.4109 C   0  0  0  0  0  0  0  0  0  0  0  0
    6.7220  -17.6369   18.9413 C   0  0  2  0  0  0  0  0  0  0  0  0
    6.9759  -18.8473   18.1906 N   0  0  0  0  0  0  0  0  0  0  0  0
    7.8520  -16.7226   18.7792 C   0  0  0  0  0  0  0  0  0  0  0  0
    8.9929  -17.1541   18.4917 O   0  0  0  0  0  0  0  0  0  0  0  0
    7.7016  -15.2992   18.9421 N   0  0  0  0  0  0  0  0  0  0  0  0
    8.8294  -14.4104   18.9128 C   0  0  1  0  0  0  0  0  0  0  0  0
    8.4261  -12.9578   19.0019 C   0  0  0  0  0  0  0  0  0  0  0  0
    9.8791  -11.8951   18.8853 S   0  0  0  0  0  0  0  0  0  0  0  0
    9.8117  -14.7112   19.9847 C   0  0  0  0  0  0  0  0  0  0  0  0
    9.5014  -14.7076   21.1958 O   0  0  0  0  0  0  0  0  0  0  0  0
   13.3427  -16.3663   22.9332 N   0  0  0  0  0  0  0  0  0  0  0  0
   12.8436  -17.3128   21.9862 C   0  0  0  0  0  0  0  0  0  0  0  0
   12.9867  -18.5134   22.2979 O   0  0  0  0  0  0  0  0  0  0  0  0
   12.2313  -16.7726   20.7783 C   0  0  0  0  0  0  0  0  0  0  0  0
   12.1856  -15.2942   20.6365 C   0  0  2  0  0  0  0  0  0  0  0  0
   11.1467  -15.0136   19.6364 N   0  0  0  0  0  0  0  0  0  0  0  0
   13.4150  -14.6449   20.1727 C   0  0  0  0  0  0  0  0  0  0  0  0
   13.4930  -14.2028   19.0103 O   0  0  0  0  0  0  0  0  0  0  0  0
   14.4997  -14.5103   21.0048 O   0  0  0  0  0  0  0  0  0  0  0  0
  1  2  1  0
  2  3  1  0
  3  4  1  6
  5  7  1  0
  5  3  1  0
  6  5  2  0
  8  9  1  1
  8 11  1  0
  8  7  1  0
 10  9  1  0
 11 12  2  0
 13 14  1  0
 14 16  1  0
 15 14  2  0
 17 16  1  6
 17 19  1  0
 18 17  1  0
 18 11  1  0
 19 20  2  0
 19 21  1  0
M  END
$$$$
