SCN.pdb
     RDKit          3D

 21 20  0  0  1  0  0  0  0  0999 V2000
   10.1357  -19.6142   18.1935 O   0  0  0  0  0  0  0  0  0  0  0  0
   10.4984  -18.9463   19.3596 C   0  0  0  0  0  0  0  0  0  0  0  0
    9.7263  -17.6478   19.4367 C   0  0  2  0  0  0  0  0  0  0  0  0
   10.0750  -16.8087   18.3108 N   0  0  0  0  0  0  0  0  0  0  0  0
   10.0954  -16.9677   20.6779 C   0  0  0  0  0  0  0  0  0  0  0  0
   11.2711  -16.5813   20.8749 O   0  0  0  0  0  0  0  0  0  0  0  0
    9.1303  -16.7158   21.7171 N   0  0  0  0  0  0  0  0  0  0  0  0
    9.5094  -16.1493   22.9813 C   0  0  1  0  0  0  0  0  0  0  0  0
    8.3221  -15.6692   23.7816 C   0  0  0  0  0  0  0  0  0  0  0  0
    8.8728  -14.8582   25.2959 S   0  0  0  0  0  0  0  0  0  0  0  0
   10.3047  -17.0935   23.8060 C   0  0  0  0  0  0  0  0  0  0  0  0
    9.9643  -18.2847   23.9737 O   0  0  0  0  0  0  0  0  0  0  0  0
   14.6658  -15.6113   23.3853 N   0  0  0  0  0  0  0  0  0  0  0  0
   14.3491  -16.9027   23.9084 C   0  0  0  0  0  0  0  0  0  0  0  0
   14.6685  -17.8697   23.1860 O   0  0  0  0  0  0  0  0  0  0  0  0
   13.6966  -16.9413   25.2117 C   0  0  0  0  0  0  0  0  0  0  0  0
   12.3238  -17.5065   25.2733 C   0  0  2  0  0  0  0  0  0  0  0  0
   11.4896  -16.6417   24.4281 N   0  0  0  0  0  0  0  0  0  0  0  0
   11.6947  -17.5501   26.5964 C   0  0  0  0  0  0  0  0  0  0  0  0
   10.6802  -16.8664   26.8335 O   0  0  0  0  0  0  0  0  0  0  0  0
   12.2068  -18.3409   27.5961 O   0  0  0  0  0  0  0  0  0  0  0  0
  1  2  1  0
  2  3  1  0
  3  4  1  6
  5  7  1  0
  5  3  1  0
  6  5  2  0
  8  9  1  1
  8 11  1  0
  8  7  1  0
 10  9  1  0
 11 12  2  0
 13 14  1  0
 14 16  1  0
 15 14  2  0
 17 16  1  1
 17 19  1  0
 18 17  1  0
 18 11  1  0
 19 20  2  0
 19 21  1  0
M  END
$$$$
