SCN.pdb
     RDKit          3D

 21 20  0  0  1  0  0  0  0  0999 V2000
    8.6383  -18.6972   20.0424 O   0  0  0  0  0  0  0  0  0  0  0  0
    7.8318  -17.6054   19.7343 C   0  0  0  0  0  0  0  0  0  0  0  0
    8.7149  -16.4010   19.4934 C   0  0  2  0  0  0  0  0  0  0  0  0
    9.6885  -16.7106   18.4690 N   0  0  0  0  0  0  0  0  0  0  0  0
    9.4105  -16.0855   20.7407 C   0  0  0  0  0  0  0  0  0  0  0  0
   10.6361  -16.3135   20.8695 O   0  0  0  0  0  0  0  0  0  0  0  0
    8.7212  -15.5043   21.8641 N   0  0  0  0  0  0  0  0  0  0  0  0
    9.3344  -15.4034   23.1589 C   0  0  1  0  0  0  0  0  0  0  0  0
    8.5610  -14.5099   24.0993 C   0  0  0  0  0  0  0  0  0  0  0  0
    6.8318  -15.0190   24.1683 S   0  0  0  0  0  0  0  0  0  0  0  0
    9.5285  -16.7306   23.7953 C   0  0  0  0  0  0  0  0  0  0  0  0
    9.0919  -17.7859   23.2868 O   0  0  0  0  0  0  0  0  0  0  0  0
   12.4149  -20.3379   25.8898 N   0  0  0  0  0  0  0  0  0  0  0  0
   12.5793  -19.6846   24.6297 C   0  0  0  0  0  0  0  0  0  0  0  0
   13.3662  -20.2387   23.8342 O   0  0  0  0  0  0  0  0  0  0  0  0
   11.8170  -18.4594   24.4210 C   0  0  0  0  0  0  0  0  0  0  0  0
   10.8629  -18.0570   25.4866 C   0  0  2  0  0  0  0  0  0  0  0  0
   10.2297  -16.8168   25.0184 N   0  0  0  0  0  0  0  0  0  0  0  0
   11.4379  -17.7747   26.8049 C   0  0  0  0  0  0  0  0  0  0  0  0
   12.2379  -16.8309   26.9533 O   0  0  0  0  0  0  0  0  0  0  0  0
   11.1086  -18.5395   27.8974 O   0  0  0  0  0  0  0  0  0  0  0  0
  1  2  1  0
  2  3  1  0
  3  4  1  6
  5  7  1  0
  5  3  1  0
  6  5  2  0
  8  9  1  1
  8 11  1  0
  8  7  1  0
 10  9  1  0
 11 12  2  0
 13 14  1  0
 14 16  1  0
 15 14  2  0
 17 16  1  6
 17 19  1  0
 18 17  1  0
 18 11  1  0
 19 20  2  0
 19 21  1  0
M  END
$$$$
