SCN.pdb
     RDKit          3D

 21 20  0  0  1  0  0  0  0  0999 V2000
    4.2669  -19.2690   20.0980 O   0  0  0  0  0  0  0  0  0  0  0  0
    5.2640  -18.4077   20.5470 C   0  0  0  0  0  0  0  0  0  0  0  0
    5.9756  -17.8205   19.3482 C   0  0  2  0  0  0  0  0  0  0  0  0
    6.4467  -18.8881   18.4929 N   0  0  0  0  0  0  0  0  0  0  0  0
    7.1198  -17.0461   19.8280 C   0  0  0  0  0  0  0  0  0  0  0  0
    8.2403  -17.5844   19.9867 O   0  0  0  0  0  0  0  0  0  0  0  0
    7.0072  -15.6434   20.1357 N   0  0  0  0  0  0  0  0  0  0  0  0
    8.1304  -14.8770   20.5982 C   0  0  1  0  0  0  0  0  0  0  0  0
    7.9455  -13.3927   20.3905 C   0  0  0  0  0  0  0  0  0  0  0  0
    7.5827  -13.0421   18.6585 S   0  0  0  0  0  0  0  0  0  0  0  0
    8.4387  -15.1355   22.0273 C   0  0  0  0  0  0  0  0  0  0  0  0
    7.5444  -15.3216   22.8809 O   0  0  0  0  0  0  0  0  0  0  0  0
   10.6189  -18.0359   25.4496 N   0  0  0  0  0  0  0  0  0  0  0  0
   10.0366  -18.4480   24.2116 C   0  0  0  0  0  0  0  0  0  0  0  0
    9.7845  -19.6670   24.1142 O   0  0  0  0  0  0  0  0  0  0  0  0
    9.8065  -17.4081   23.2158 C   0  0  0  0  0  0  0  0  0  0  0  0
   10.2499  -16.0300   23.5505 C   0  0  2  0  0  0  0  0  0  0  0  0
    9.7860  -15.1750   22.4495 N   0  0  0  0  0  0  0  0  0  0  0  0
   11.6952  -15.8219   23.6764 C   0  0  0  0  0  0  0  0  0  0  0  0
   12.1687  -15.3024   24.7054 O   0  0  0  0  0  0  0  0  0  0  0  0
   12.5526  -16.1933   22.6695 O   0  0  0  0  0  0  0  0  0  0  0  0
  1  2  1  0
  2  3  1  0
  3  4  1  6
  5  7  1  0
  5  3  1  0
  6  5  2  0
  8  9  1  1
  8 11  1  0
  8  7  1  0
 10  9  1  0
 11 12  2  0
 13 14  1  0
 14 16  1  0
 15 14  2  0
 17 16  1  6
 17 19  1  0
 18 17  1  0
 18 11  1  0
 19 20  2  0
 19 21  1  0
M  END
$$$$
