SCN.pdb
     RDKit          3D

 21 20  0  0  1  0  0  0  0  0999 V2000
    9.2578  -17.0321   15.0982 O   0  0  0  0  0  0  0  0  0  0  0  0
    8.0139  -16.4294   15.2621 C   0  0  0  0  0  0  0  0  0  0  0  0
    8.1882  -14.9282   15.1947 C   0  0  2  0  0  0  0  0  0  0  0  0
    9.0092  -14.5859   14.0537 N   0  0  0  0  0  0  0  0  0  0  0  0
    8.8565  -14.4887   16.4192 C   0  0  0  0  0  0  0  0  0  0  0  0
   10.0872  -14.2528   16.4315 O   0  0  0  0  0  0  0  0  0  0  0  0
    8.1335  -14.3102   17.6523 N   0  0  0  0  0  0  0  0  0  0  0  0
    8.7919  -13.9134   18.8655 C   0  0  1  0  0  0  0  0  0  0  0  0
    7.8262  -13.6993   20.0067 C   0  0  0  0  0  0  0  0  0  0  0  0
    6.2836  -12.9892   19.3982 S   0  0  0  0  0  0  0  0  0  0  0  0
    9.8348  -14.8838   19.2837 C   0  0  0  0  0  0  0  0  0  0  0  0
    9.8080  -16.0847   18.9370 O   0  0  0  0  0  0  0  0  0  0  0  0
   15.4359  -15.2756   20.1364 N   0  0  0  0  0  0  0  0  0  0  0  0
   14.4260  -15.0846   21.1291 C   0  0  0  0  0  0  0  0  0  0  0  0
   14.7167  -15.4817   22.2766 O   0  0  0  0  0  0  0  0  0  0  0  0
   13.1861  -14.4545   20.6915 C   0  0  0  0  0  0  0  0  0  0  0  0
   11.9981  -15.3297   20.5173 C   0  0  2  0  0  0  0  0  0  0  0  0
   10.8999  -14.4467   20.1021 N   0  0  0  0  0  0  0  0  0  0  0  0
   11.5409  -16.0538   21.7068 C   0  0  0  0  0  0  0  0  0  0  0  0
   10.6252  -15.5892   22.4129 O   0  0  0  0  0  0  0  0  0  0  0  0
   12.1082  -17.2524   22.0655 O   0  0  0  0  0  0  0  0  0  0  0  0
  1  2  1  0
  2  3  1  0
  3  4  1  6
  5  7  1  0
  5  3  1  0
  6  5  2  0
  8  9  1  1
  8 11  1  0
  8  7  1  0
 10  9  1  0
 11 12  2  0
 13 14  1  0
 14 16  1  0
 15 14  2  0
 17 16  1  1
 17 19  1  0
 18 17  1  0
 18 11  1  0
 19 20  2  0
 19 21  1  0
M  END
$$$$
