SCN.pdb
     RDKit          3D

 21 20  0  0  1  0  0  0  0  0999 V2000
    7.6009  -14.0982   15.6563 O   0  0  0  0  0  0  0  0  0  0  0  0
    8.2638  -13.7978   16.8428 C   0  0  0  0  0  0  0  0  0  0  0  0
    8.4667  -15.0772   17.6240 C   0  0  2  0  0  0  0  0  0  0  0  0
    7.1965  -15.7490   17.7929 N   0  0  0  0  0  0  0  0  0  0  0  0
    9.0081  -14.7313   18.9379 C   0  0  0  0  0  0  0  0  0  0  0  0
   10.1994  -14.3642   19.0668 O   0  0  0  0  0  0  0  0  0  0  0  0
    8.2008  -14.7976   20.1290 N   0  0  0  0  0  0  0  0  0  0  0  0
    8.7498  -14.5405   21.4311 C   0  0  1  0  0  0  0  0  0  0  0  0
    7.6841  -14.2834   22.4698 C   0  0  0  0  0  0  0  0  0  0  0  0
    6.6168  -15.7271   22.6442 S   0  0  0  0  0  0  0  0  0  0  0  0
    9.6317  -15.6399   21.8978 C   0  0  0  0  0  0  0  0  0  0  0  0
    9.4344  -16.8339   21.5840 O   0  0  0  0  0  0  0  0  0  0  0  0
   14.4910  -17.7276   22.7539 N   0  0  0  0  0  0  0  0  0  0  0  0
   14.1733  -16.5516   23.5007 C   0  0  0  0  0  0  0  0  0  0  0  0
   14.9105  -16.3209   24.4818 O   0  0  0  0  0  0  0  0  0  0  0  0
   13.0370  -15.7653   23.0355 C   0  0  0  0  0  0  0  0  0  0  0  0
   11.6842  -16.3602   23.1896 C   0  0  2  0  0  0  0  0  0  0  0  0
   10.7356  -15.3387   22.7259 N   0  0  0  0  0  0  0  0  0  0  0  0
   11.2853  -16.7308   24.5504 C   0  0  0  0  0  0  0  0  0  0  0  0
   10.5887  -15.9565   25.2346 O   0  0  0  0  0  0  0  0  0  0  0  0
   11.6681  -17.9318   25.0961 O   0  0  0  0  0  0  0  0  0  0  0  0
  1  2  1  0
  2  3  1  0
  3  4  1  1
  5  7  1  0
  5  3  1  0
  6  5  2  0
  8  9  1  1
  8 11  1  0
  8  7  1  0
 10  9  1  0
 11 12  2  0
 13 14  1  0
 14 16  1  0
 15 14  2  0
 17 16  1  1
 17 19  1  0
 18 17  1  0
 18 11  1  0
 19 20  2  0
 19 21  1  0
M  END
$$$$
