NYV.pdb
     RDKit          3D

 28 28  0  0  1  0  0  0  0  0999 V2000
   22.2412  -13.3889  -17.1827 N   0  0  0  0  0  0  0  0  0  0  0  0
   22.2181  -12.3908  -18.1884 C   0  0  0  0  0  0  0  0  0  0  0  0
   23.0161  -12.4591  -19.1660 O   0  0  0  0  0  0  0  0  0  0  0  0
   21.2878  -11.2564  -18.1419 C   0  0  0  0  0  0  0  0  0  0  0  0
   21.4623  -10.4340  -16.8727 C   0  0  2  0  0  0  0  0  0  0  0  0
   20.9619  -11.1865  -15.7365 N   0  0  0  0  0  0  0  0  0  0  0  0
   20.7067   -9.1638  -16.9541 C   0  0  0  0  0  0  0  0  0  0  0  0
   20.9213   -8.3756  -17.8927 O   0  0  0  0  0  0  0  0  0  0  0  0
   15.2592  -10.0025  -20.7751 O   0  0  0  0  0  0  0  0  0  0  0  0
   15.7855   -9.5032  -19.6059 C   0  0  0  0  0  0  0  0  0  0  0  0
   15.8804   -8.1455  -19.3412 C   0  0  0  0  0  0  0  0  0  0  0  0
   16.4113   -7.6711  -18.1632 C   0  0  0  0  0  0  0  0  0  0  0  0
   16.8750   -8.5340  -17.1901 C   0  0  0  0  0  0  0  0  0  0  0  0
   17.4768   -8.0870  -15.9247 C   0  0  0  0  0  0  0  0  0  0  0  0
   18.9048   -7.6595  -16.0023 C   0  0  2  0  0  0  0  0  0  0  0  0
   19.7494   -8.8793  -15.9485 N   0  0  0  0  0  0  0  0  0  0  0  0
   19.3310   -6.7320  -14.9124 C   0  0  0  0  0  0  0  0  0  0  0  0
   19.2611   -7.1617  -13.7385 O   0  0  0  0  0  0  0  0  0  0  0  0
   16.7676   -9.9001  -17.4850 C   0  0  0  0  0  0  0  0  0  0  0  0
   16.2423  -10.3631  -18.6485 C   0  0  0  0  0  0  0  0  0  0  0  0
   22.3974   -3.5255  -15.2363 C   0  0  0  0  0  0  0  0  0  0  0  0
   21.6771   -4.1283  -14.1039 C   0  0  2  0  0  0  0  0  0  0  0  0
   22.3625   -5.3564  -13.5753 C   0  0  0  0  0  0  0  0  0  0  0  0
   20.2142   -4.4100  -14.2509 C   0  0  2  0  0  0  0  0  0  0  0  0
   19.7969   -5.4360  -15.1375 N   0  0  0  0  0  0  0  0  0  0  0  0
   19.3907   -3.1916  -14.3192 C   0  0  0  0  0  0  0  0  0  0  0  0
   19.4591   -2.2790  -13.4252 O   0  0  0  0  0  0  0  0  0  0  0  0
   18.4978   -2.9685  -15.3516 O   0  0  0  0  0  0  0  0  0  0  0  0
  2  1  1  0
  3  2  2  0
  4  5  1  0
  4  2  1  0
  5  7  1  0
  5  6  1  1
  7  8  2  0
  9 10  1  0
 10 11  2  0
 11 12  1  0
 13 12  2  0
 13 14  1  0
 15 14  1  1
 15 17  1  0
 16  7  1  0
 16 15  1  0
 17 25  1  0
 18 17  2  0
 19 13  1  0
 20 10  1  0
 20 19  2  0
 22 21  1  6
 22 23  1  0
 24 26  1  0
 24 22  1  0
 24 25  1  6
 26 28  1  0
 27 26  2  0
M  END
$$$$
