NYV.pdb
     RDKit          3D

 28 28  0  0  1  0  0  0  0  0999 V2000
   27.7350  -34.8283  -17.2327 N   0  0  0  0  0  0  0  0  0  0  0  0
   26.8883  -35.5775  -16.3783 C   0  0  0  0  0  0  0  0  0  0  0  0
   25.9695  -36.2941  -16.8677 O   0  0  0  0  0  0  0  0  0  0  0  0
   27.0351  -35.5557  -14.9179 C   0  0  0  0  0  0  0  0  0  0  0  0
   25.8102  -34.9630  -14.2356 C   0  0  2  0  0  0  0  0  0  0  0  0
   25.7838  -33.5276  -14.4513 N   0  0  0  0  0  0  0  0  0  0  0  0
   25.8428  -35.2099  -12.7765 C   0  0  0  0  0  0  0  0  0  0  0  0
   25.9802  -36.3702  -12.3484 O   0  0  0  0  0  0  0  0  0  0  0  0
   26.7287  -32.7067   -4.2116 O   0  0  0  0  0  0  0  0  0  0  0  0
   26.7042  -32.8391   -5.5811 C   0  0  0  0  0  0  0  0  0  0  0  0
   27.5279  -33.7174   -6.2684 C   0  0  0  0  0  0  0  0  0  0  0  0
   27.4841  -33.8312   -7.6394 C   0  0  0  0  0  0  0  0  0  0  0  0
   26.6122  -33.0694   -8.3919 C   0  0  0  0  0  0  0  0  0  0  0  0
   26.5387  -33.1269   -9.8597 C   0  0  0  0  0  0  0  0  0  0  0  0
   25.7658  -34.2720  -10.4249 C   0  0  2  0  0  0  0  0  0  0  0  0
   25.7150  -34.1042  -11.8991 N   0  0  0  0  0  0  0  0  0  0  0  0
   24.3702  -34.3896   -9.9066 C   0  0  0  0  0  0  0  0  0  0  0  0
   23.5525  -33.5128  -10.2672 O   0  0  0  0  0  0  0  0  0  0  0  0
   25.7927  -32.1900   -7.6710 C   0  0  0  0  0  0  0  0  0  0  0  0
   25.8392  -32.0820   -6.3181 C   0  0  0  0  0  0  0  0  0  0  0  0
   21.7741  -37.3083  -10.0910 C   0  0  0  0  0  0  0  0  0  0  0  0
   21.9541  -36.9021   -8.6884 C   0  0  2  0  0  0  0  0  0  0  0  0
   20.6605  -36.8855   -7.9245 C   0  0  0  0  0  0  0  0  0  0  0  0
   22.7105  -35.6438   -8.3962 C   0  0  2  0  0  0  0  0  0  0  0  0
   23.9434  -35.4126   -9.0589 N   0  0  0  0  0  0  0  0  0  0  0  0
   22.7272  -35.2933   -6.9664 C   0  0  0  0  0  0  0  0  0  0  0  0
   23.5882  -35.7877   -6.1597 O   0  0  0  0  0  0  0  0  0  0  0  0
   21.8125  -34.4128   -6.4178 O   0  0  0  0  0  0  0  0  0  0  0  0
  2  1  1  0
  3  2  2  0
  4  5  1  0
  4  2  1  0
  5  7  1  0
  5  6  1  1
  7  8  2  0
  9 10  1  0
 10 11  2  0
 11 12  1  0
 13 12  2  0
 13 14  1  0
 15 14  1  1
 15 17  1  0
 16  7  1  0
 16 15  1  0
 17 25  1  0
 18 17  2  0
 19 13  1  0
 20 10  1  0
 20 19  2  0
 22 21  1  6
 22 23  1  0
 24 26  1  0
 24 22  1  0
 24 25  1  1
 26 28  1  0
 27 26  2  0
M  END
$$$$
