NYV.pdb
     RDKit          3D

 28 28  0  0  1  0  0  0  0  0999 V2000
   21.7586  -26.4679  -18.7739 N   0  0  0  0  0  0  0  0  0  0  0  0
   22.4907  -26.6166  -17.5698 C   0  0  0  0  0  0  0  0  0  0  0  0
   23.4013  -27.4890  -17.4865 O   0  0  0  0  0  0  0  0  0  0  0  0
   22.2306  -25.7836  -16.3894 C   0  0  0  0  0  0  0  0  0  0  0  0
   21.0485  -24.8493  -16.6065 C   0  0  2  0  0  0  0  0  0  0  0  0
   21.4601  -23.7347  -17.4406 N   0  0  0  0  0  0  0  0  0  0  0  0
   20.5567  -24.3065  -15.3202 C   0  0  0  0  0  0  0  0  0  0  0  0
   21.3358  -23.6909  -14.5703 O   0  0  0  0  0  0  0  0  0  0  0  0
   18.8064  -19.9371  -18.6670 O   0  0  0  0  0  0  0  0  0  0  0  0
   18.5400  -20.6366  -17.5123 C   0  0  0  0  0  0  0  0  0  0  0  0
   18.9734  -20.2215  -16.2624 C   0  0  0  0  0  0  0  0  0  0  0  0
   18.6938  -20.9394  -15.1219 C   0  0  0  0  0  0  0  0  0  0  0  0
   17.9653  -22.1112  -15.1762 C   0  0  0  0  0  0  0  0  0  0  0  0
   17.6585  -22.9350  -13.9970 C   0  0  0  0  0  0  0  0  0  0  0  0
   18.6401  -24.0168  -13.6898 C   0  0  2  0  0  0  0  0  0  0  0  0
   19.1964  -24.5063  -14.9763 N   0  0  0  0  0  0  0  0  0  0  0  0
   18.0668  -25.1756  -12.9426 C   0  0  0  0  0  0  0  0  0  0  0  0
   17.4202  -26.0179  -13.6059 O   0  0  0  0  0  0  0  0  0  0  0  0
   17.5413  -22.5070  -16.4522 C   0  0  0  0  0  0  0  0  0  0  0  0
   17.8192  -21.7947  -17.5744 C   0  0  0  0  0  0  0  0  0  0  0  0
   18.8515  -26.0906   -8.3892 C   0  0  0  0  0  0  0  0  0  0  0  0
   18.7602  -26.8703   -9.6335 C   0  0  2  0  0  0  0  0  0  0  0  0
   20.1063  -27.1332  -10.2470 C   0  0  0  0  0  0  0  0  0  0  0  0
   17.8175  -26.4109  -10.7018 C   0  0  2  0  0  0  0  0  0  0  0  0
   18.2182  -25.3609  -11.5678 N   0  0  0  0  0  0  0  0  0  0  0  0
   16.4231  -26.3048  -10.2416 C   0  0  0  0  0  0  0  0  0  0  0  0
   15.7879  -25.1946  -10.2613 O   0  0  0  0  0  0  0  0  0  0  0  0
   15.7256  -27.3983   -9.7613 O   0  0  0  0  0  0  0  0  0  0  0  0
  2  1  1  0
  3  2  2  0
  4  5  1  0
  4  2  1  0
  5  7  1  0
  5  6  1  6
  7  8  2  0
  9 10  1  0
 10 11  2  0
 11 12  1  0
 13 12  2  0
 13 14  1  0
 15 14  1  6
 15 17  1  0
 16  7  1  0
 16 15  1  0
 17 25  1  0
 18 17  2  0
 19 13  1  0
 20 10  1  0
 20 19  2  0
 22 21  1  1
 22 23  1  0
 24 26  1  0
 24 22  1  0
 24 25  1  1
 26 28  1  0
 27 26  2  0
M  END
$$$$
