NYV.pdb
     RDKit          3D

 28 28  0  0  1  0  0  0  0  0999 V2000
   26.7000  -21.7939   -9.9189 N   0  0  0  0  0  0  0  0  0  0  0  0
   26.0864  -20.6104  -10.3994 C   0  0  0  0  0  0  0  0  0  0  0  0
   25.7141  -19.7162   -9.5876 O   0  0  0  0  0  0  0  0  0  0  0  0
   25.8588  -20.3739  -11.8302 C   0  0  0  0  0  0  0  0  0  0  0  0
   26.3406  -21.5418  -12.6796 C   0  0  2  0  0  0  0  0  0  0  0  0
   27.5860  -21.1826  -13.3334 N   0  0  0  0  0  0  0  0  0  0  0  0
   25.3508  -21.8815  -13.7265 C   0  0  0  0  0  0  0  0  0  0  0  0
   25.0975  -21.0618  -14.6276 O   0  0  0  0  0  0  0  0  0  0  0  0
   19.6698  -27.4747  -17.9048 O   0  0  0  0  0  0  0  0  0  0  0  0
   20.6589  -26.8709  -17.1629 C   0  0  0  0  0  0  0  0  0  0  0  0
   21.7607  -26.2542  -17.7356 C   0  0  0  0  0  0  0  0  0  0  0  0
   22.7371  -25.6570  -16.9711 C   0  0  0  0  0  0  0  0  0  0  0  0
   22.6591  -25.6480  -15.5924 C   0  0  0  0  0  0  0  0  0  0  0  0
   23.6834  -25.0506  -14.7225 C   0  0  0  0  0  0  0  0  0  0  0  0
   23.7156  -23.5586  -14.6904 C   0  0  2  0  0  0  0  0  0  0  0  0
   24.7131  -23.1460  -13.6711 N   0  0  0  0  0  0  0  0  0  0  0  0
   22.4051  -22.9204  -14.3656 C   0  0  0  0  0  0  0  0  0  0  0  0
   22.0535  -22.9202  -13.1640 O   0  0  0  0  0  0  0  0  0  0  0  0
   21.5356  -26.2794  -15.0412 C   0  0  0  0  0  0  0  0  0  0  0  0
   20.5746  -26.8665  -15.8000 C   0  0  0  0  0  0  0  0  0  0  0  0
   18.8231  -19.7022  -15.7566 C   0  0  0  0  0  0  0  0  0  0  0  0
   20.0037  -20.5212  -16.0726 C   0  0  2  0  0  0  0  0  0  0  0  0
   20.0489  -20.9308  -17.5174 C   0  0  0  0  0  0  0  0  0  0  0  0
   20.3012  -21.7131  -15.2171 C   0  0  2  0  0  0  0  0  0  0  0  0
   21.5729  -22.3335  -15.3198 N   0  0  0  0  0  0  0  0  0  0  0  0
   19.1796  -22.6630  -15.1319 C   0  0  0  0  0  0  0  0  0  0  0  0
   19.0796  -23.6630  -15.9235 O   0  0  0  0  0  0  0  0  0  0  0  0
   18.1730  -22.5248  -14.1935 O   0  0  0  0  0  0  0  0  0  0  0  0
  2  1  1  0
  3  2  2  0
  4  5  1  0
  4  2  1  0
  5  7  1  0
  5  6  1  6
  7  8  2  0
  9 10  1  0
 10 11  2  0
 11 12  1  0
 13 12  2  0
 13 14  1  0
 15 14  1  1
 15 17  1  0
 16  7  1  0
 16 15  1  0
 17 25  1  0
 18 17  2  0
 19 13  1  0
 20 10  1  0
 20 19  2  0
 22 21  1  1
 22 23  1  0
 24 26  1  0
 24 22  1  0
 24 25  1  6
 26 28  1  0
 27 26  2  0
M  END
$$$$
