NYV.pdb
     RDKit          3D

 28 28  0  0  1  0  0  0  0  0999 V2000
   25.2217  -22.1564   -7.9788 N   0  0  0  0  0  0  0  0  0  0  0  0
   25.4591  -20.7623   -7.8881 C   0  0  0  0  0  0  0  0  0  0  0  0
   25.6664  -20.2278   -6.7619 O   0  0  0  0  0  0  0  0  0  0  0  0
   25.4740  -19.8938   -9.0714 C   0  0  0  0  0  0  0  0  0  0  0  0
   25.2196  -20.6779  -10.3512 C   0  0  2  0  0  0  0  0  0  0  0  0
   26.3441  -21.5590  -10.6099 N   0  0  0  0  0  0  0  0  0  0  0  0
   25.0688  -19.7696  -11.5102 C   0  0  0  0  0  0  0  0  0  0  0  0
   24.0184  -19.1180  -11.6527 O   0  0  0  0  0  0  0  0  0  0  0  0
   27.8246  -15.3245  -18.7481 O   0  0  0  0  0  0  0  0  0  0  0  0
   27.7541  -16.1123  -17.6221 C   0  0  0  0  0  0  0  0  0  0  0  0
   28.0697  -17.4624  -17.6257 C   0  0  0  0  0  0  0  0  0  0  0  0
   27.9909  -18.2292  -16.4854 C   0  0  0  0  0  0  0  0  0  0  0  0
   27.5909  -17.6815  -15.2826 C   0  0  0  0  0  0  0  0  0  0  0  0
   27.4614  -18.4550  -14.0384 C   0  0  0  0  0  0  0  0  0  0  0  0
   26.0651  -18.7644  -13.6107 C   0  0  2  0  0  0  0  0  0  0  0  0
   26.1382  -19.6674  -12.4346 N   0  0  0  0  0  0  0  0  0  0  0  0
   25.2274  -19.4131  -14.6630 C   0  0  0  0  0  0  0  0  0  0  0  0
   25.4420  -20.6244  -14.8959 O   0  0  0  0  0  0  0  0  0  0  0  0
   27.2773  -16.3156  -15.3088 C   0  0  0  0  0  0  0  0  0  0  0  0
   27.3574  -15.5632  -16.4364 C   0  0  0  0  0  0  0  0  0  0  0  0
   20.8922  -19.5961  -17.0698 C   0  0  0  0  0  0  0  0  0  0  0  0
   21.8613  -19.2843  -16.0076 C   0  0  2  0  0  0  0  0  0  0  0  0
   21.4721  -18.0699  -15.2132 C   0  0  0  0  0  0  0  0  0  0  0  0
   23.3123  -19.1910  -16.3637 C   0  0  2  0  0  0  0  0  0  0  0  0
   24.2345  -18.7460  -15.3817 N   0  0  0  0  0  0  0  0  0  0  0  0
   23.5481  -18.6258  -17.7025 C   0  0  0  0  0  0  0  0  0  0  0  0
   22.9974  -19.1145  -18.7487 O   0  0  0  0  0  0  0  0  0  0  0  0
   24.3786  -17.5380  -17.9019 O   0  0  0  0  0  0  0  0  0  0  0  0
  2  1  1  0
  3  2  2  0
  4  5  1  0
  4  2  1  0
  5  7  1  0
  5  6  1  6
  7  8  2  0
  9 10  1  0
 10 11  2  0
 11 12  1  0
 13 12  2  0
 13 14  1  0
 15 14  1  6
 15 17  1  0
 16  7  1  0
 16 15  1  0
 17 25  1  0
 18 17  2  0
 19 13  1  0
 20 10  1  0
 20 19  2  0
 22 21  1  6
 22 23  1  0
 24 26  1  0
 24 22  1  0
 24 25  1  1
 26 28  1  0
 27 26  2  0
M  END
$$$$
