NYV.pdb
     RDKit          3D

 28 28  0  0  1  0  0  0  0  0999 V2000
   25.2686  -26.2317  -16.4553 N   0  0  0  0  0  0  0  0  0  0  0  0
   24.2397  -25.3536  -16.8777 C   0  0  0  0  0  0  0  0  0  0  0  0
   23.4915  -25.6742  -17.8445 O   0  0  0  0  0  0  0  0  0  0  0  0
   24.0013  -24.0594  -16.2274 C   0  0  0  0  0  0  0  0  0  0  0  0
   24.8487  -23.8923  -14.9738 C   0  0  2  0  0  0  0  0  0  0  0  0
   24.2840  -24.6882  -13.8989 N   0  0  0  0  0  0  0  0  0  0  0  0
   24.8769  -22.4787  -14.5357 C   0  0  0  0  0  0  0  0  0  0  0  0
   23.8311  -21.9326  -14.1403 O   0  0  0  0  0  0  0  0  0  0  0  0
   25.2446  -20.9472   -7.7673 O   0  0  0  0  0  0  0  0  0  0  0  0
   25.7359  -20.7633   -9.0395 C   0  0  0  0  0  0  0  0  0  0  0  0
   25.8709  -19.5124   -9.6220 C   0  0  0  0  0  0  0  0  0  0  0  0
   26.3652  -19.3550  -10.8968 C   0  0  0  0  0  0  0  0  0  0  0  0
   26.7491  -20.4444  -11.6536 C   0  0  0  0  0  0  0  0  0  0  0  0
   27.2582  -20.3416  -13.0296 C   0  0  0  0  0  0  0  0  0  0  0  0
   26.2252  -20.3778  -14.1065 C   0  0  2  0  0  0  0  0  0  0  0  0
   26.1093  -21.7801  -14.5800 N   0  0  0  0  0  0  0  0  0  0  0  0
   26.5230  -19.4990  -15.2765 C   0  0  0  0  0  0  0  0  0  0  0  0
   27.3773  -19.9092  -16.0947 O   0  0  0  0  0  0  0  0  0  0  0  0
   26.6007  -21.6958  -11.0401 C   0  0  0  0  0  0  0  0  0  0  0  0
   26.1132  -21.8457   -9.7815 C   0  0  0  0  0  0  0  0  0  0  0  0
   24.9460  -15.3462  -17.7755 C   0  0  0  0  0  0  0  0  0  0  0  0
   25.1331  -16.1128  -16.5337 C   0  0  2  0  0  0  0  0  0  0  0  0
   25.5708  -15.2486  -15.3853 C   0  0  0  0  0  0  0  0  0  0  0  0
   25.9836  -17.3442  -16.5707 C   0  0  2  0  0  0  0  0  0  0  0  0
   25.9034  -18.2682  -15.4972 N   0  0  0  0  0  0  0  0  0  0  0  0
   27.3567  -17.0895  -17.0368 C   0  0  0  0  0  0  0  0  0  0  0  0
   28.3000  -16.7881  -16.2269 O   0  0  0  0  0  0  0  0  0  0  0  0
   27.7006  -17.1601  -18.3745 O   0  0  0  0  0  0  0  0  0  0  0  0
  2  1  1  0
  3  2  2  0
  4  5  1  0
  4  2  1  0
  5  7  1  0
  5  6  1  1
  7  8  2  0
  9 10  1  0
 10 11  2  0
 11 12  1  0
 13 12  2  0
 13 14  1  0
 15 14  1  1
 15 17  1  0
 16  7  1  0
 16 15  1  0
 17 25  1  0
 18 17  2  0
 19 13  1  0
 20 10  1  0
 20 19  2  0
 22 21  1  6
 22 23  1  0
 24 26  1  0
 24 22  1  0
 24 25  1  1
 26 28  1  0
 27 26  2  0
M  END
$$$$
