NYV.pdb
     RDKit          3D

 28 28  0  0  1  0  0  0  0  0999 V2000
   22.2678   -9.9131    8.8132 N   0  0  0  0  0  0  0  0  0  0  0  0
   21.6517  -10.3915    7.6302 C   0  0  0  0  0  0  0  0  0  0  0  0
   21.8958   -9.8371    6.5210 O   0  0  0  0  0  0  0  0  0  0  0  0
   20.7216  -11.5271    7.6380 C   0  0  0  0  0  0  0  0  0  0  0  0
   19.3699  -11.1546    7.0449 C   0  0  2  0  0  0  0  0  0  0  0  0
   18.6246  -10.3581    8.0029 N   0  0  0  0  0  0  0  0  0  0  0  0
   18.5752  -12.3635    6.7322 C   0  0  0  0  0  0  0  0  0  0  0  0
   17.9876  -12.9708    7.6455 O   0  0  0  0  0  0  0  0  0  0  0  0
   15.8561  -18.9469    1.2345 O   0  0  0  0  0  0  0  0  0  0  0  0
   16.2929  -17.7723    1.8029 C   0  0  0  0  0  0  0  0  0  0  0  0
   15.4357  -16.8553    2.3915 C   0  0  0  0  0  0  0  0  0  0  0  0
   15.8976  -15.6868    2.9535 C   0  0  0  0  0  0  0  0  0  0  0  0
   17.2434  -15.3775    2.9534 C   0  0  0  0  0  0  0  0  0  0  0  0
   17.7933  -14.1336    3.5133 C   0  0  0  0  0  0  0  0  0  0  0  0
   17.7552  -14.0210    5.0013 C   0  0  2  0  0  0  0  0  0  0  0  0
   18.5060  -12.7991    5.3853 N   0  0  0  0  0  0  0  0  0  0  0  0
   18.3392  -15.1903    5.7234 C   0  0  0  0  0  0  0  0  0  0  0  0
   19.5878  -15.2510    5.7940 O   0  0  0  0  0  0  0  0  0  0  0  0
   18.0861  -16.3217    2.3509 C   0  0  0  0  0  0  0  0  0  0  0  0
   17.6253  -17.4736    1.7986 C   0  0  0  0  0  0  0  0  0  0  0  0
   18.7648  -18.4976    9.1318 C   0  0  0  0  0  0  0  0  0  0  0  0
   18.0787  -17.3741    8.4749 C   0  0  2  0  0  0  0  0  0  0  0  0
   16.7429  -17.0754    9.0944 C   0  0  0  0  0  0  0  0  0  0  0  0
   17.9333  -17.3931    6.9851 C   0  0  2  0  0  0  0  0  0  0  0  0
   17.5732  -16.1963    6.3138 N   0  0  0  0  0  0  0  0  0  0  0  0
   17.2389  -18.5904    6.4831 C   0  0  0  0  0  0  0  0  0  0  0  0
   16.1217  -18.5138    5.8647 O   0  0  0  0  0  0  0  0  0  0  0  0
   17.7554  -19.8619    6.6547 O   0  0  0  0  0  0  0  0  0  0  0  0
  2  1  1  0
  3  2  2  0
  4  5  1  0
  4  2  1  0
  5  7  1  0
  5  6  1  1
  7  8  2  0
  9 10  1  0
 10 11  2  0
 11 12  1  0
 13 12  2  0
 13 14  1  0
 15 14  1  6
 15 17  1  0
 16  7  1  0
 16 15  1  0
 17 25  1  0
 18 17  2  0
 19 13  1  0
 20 10  1  0
 20 19  2  0
 22 21  1  1
 22 23  1  0
 24 26  1  0
 24 22  1  0
 24 25  1  1
 26 28  1  0
 27 26  2  0
M  END
$$$$
