NYV.pdb
     RDKit          3D

 28 28  0  0  1  0  0  0  0  0999 V2000
   42.7492   -4.1404   -8.0223 N   0  0  0  0  0  0  0  0  0  0  0  0
   43.8981   -4.8756   -7.6380 C   0  0  0  0  0  0  0  0  0  0  0  0
   45.0284   -4.3113   -7.6045 O   0  0  0  0  0  0  0  0  0  0  0  0
   43.8303   -6.2950   -7.2701 C   0  0  0  0  0  0  0  0  0  0  0  0
   42.4013   -6.8188   -7.2997 C   0  0  2  0  0  0  0  0  0  0  0  0
   41.6768   -6.3123   -6.1480 N   0  0  0  0  0  0  0  0  0  0  0  0
   42.3760   -8.2979   -7.2471 C   0  0  0  0  0  0  0  0  0  0  0  0
   42.4407   -8.8789   -6.1487 O   0  0  0  0  0  0  0  0  0  0  0  0
   35.8332  -10.4333   -7.0593 O   0  0  0  0  0  0  0  0  0  0  0  0
   37.0998  -10.5496   -7.5843 C   0  0  0  0  0  0  0  0  0  0  0  0
   38.2095  -10.8618   -6.8139 C   0  0  0  0  0  0  0  0  0  0  0  0
   39.4666  -10.9723   -7.3633 C   0  0  0  0  0  0  0  0  0  0  0  0
   39.6758  -10.7746   -8.7138 C   0  0  0  0  0  0  0  0  0  0  0  0
   40.9981  -10.8520   -9.3531 C   0  0  0  0  0  0  0  0  0  0  0  0
   42.1590  -10.4973   -8.4845 C   0  0  2  0  0  0  0  0  0  0  0  0
   42.2776   -9.0175   -8.4641 N   0  0  0  0  0  0  0  0  0  0  0  0
   43.4614  -11.0773   -8.9286 C   0  0  0  0  0  0  0  0  0  0  0  0
   43.9527  -10.6295   -9.9895 O   0  0  0  0  0  0  0  0  0  0  0  0
   38.5369  -10.4594   -9.4675 C   0  0  0  0  0  0  0  0  0  0  0  0
   37.2985  -10.3523   -8.9208 C   0  0  0  0  0  0  0  0  0  0  0  0
   47.4797  -13.7830   -7.4598 C   0  0  0  0  0  0  0  0  0  0  0  0
   46.0567  -13.4323   -7.3302 C   0  0  2  0  0  0  0  0  0  0  0  0
   45.2103  -14.6057   -6.9255 C   0  0  0  0  0  0  0  0  0  0  0  0
   45.3879  -12.7140   -8.4606 C   0  0  2  0  0  0  0  0  0  0  0  0
   44.1438  -12.0729   -8.2282 N   0  0  0  0  0  0  0  0  0  0  0  0
   45.4516  -13.4476   -9.7354 C   0  0  0  0  0  0  0  0  0  0  0  0
   44.4860  -14.1822  -10.1411 O   0  0  0  0  0  0  0  0  0  0  0  0
   46.5587  -13.3842  -10.5619 O   0  0  0  0  0  0  0  0  0  0  0  0
  2  1  1  0
  3  2  2  0
  4  5  1  0
  4  2  1  0
  5  7  1  0
  5  6  1  1
  7  8  2  0
  9 10  1  0
 10 11  2  0
 11 12  1  0
 13 12  2  0
 13 14  1  0
 15 14  1  6
 15 17  1  0
 16  7  1  0
 16 15  1  0
 17 25  1  0
 18 17  2  0
 19 13  1  0
 20 10  1  0
 20 19  2  0
 22 21  1  6
 22 23  1  0
 24 26  1  0
 24 22  1  0
 24 25  1  1
 26 28  1  0
 27 26  2  0
M  END
$$$$
