NYV.pdb
     RDKit          3D

 28 28  0  0  1  0  0  0  0  0999 V2000
   29.1258  -21.0093  -18.5076 N   0  0  0  0  0  0  0  0  0  0  0  0
   27.8454  -21.5784  -18.7192 C   0  0  0  0  0  0  0  0  0  0  0  0
   27.3989  -21.7124  -19.8939 O   0  0  0  0  0  0  0  0  0  0  0  0
   26.9969  -22.0276  -17.6088 C   0  0  0  0  0  0  0  0  0  0  0  0
   27.6448  -21.7585  -16.2578 C   0  0  2  0  0  0  0  0  0  0  0  0
   28.6807  -22.7458  -16.0132 N   0  0  0  0  0  0  0  0  0  0  0  0
   26.6517  -21.8506  -15.1641 C   0  0  0  0  0  0  0  0  0  0  0  0
   26.3363  -22.9642  -14.7072 O   0  0  0  0  0  0  0  0  0  0  0  0
   28.4295  -21.4652   -7.9305 O   0  0  0  0  0  0  0  0  0  0  0  0
   27.7904  -21.0280   -9.0680 C   0  0  0  0  0  0  0  0  0  0  0  0
   28.4171  -20.9509  -10.3023 C   0  0  0  0  0  0  0  0  0  0  0  0
   27.7556  -20.5098  -11.4259 C   0  0  0  0  0  0  0  0  0  0  0  0
   26.4313  -20.1227  -11.3692 C   0  0  0  0  0  0  0  0  0  0  0  0
   25.6800  -19.6177  -12.5283 C   0  0  0  0  0  0  0  0  0  0  0  0
   25.1848  -20.6548  -13.4807 C   0  0  2  0  0  0  0  0  0  0  0  0
   26.0822  -20.6533  -14.6634 N   0  0  0  0  0  0  0  0  0  0  0  0
   23.7803  -20.4468  -13.9434 C   0  0  0  0  0  0  0  0  0  0  0  0
   23.5677  -19.4715  -14.6992 O   0  0  0  0  0  0  0  0  0  0  0  0
   25.8239  -20.2101  -10.1090 C   0  0  0  0  0  0  0  0  0  0  0  0
   26.4808  -20.6468   -9.0036 C   0  0  0  0  0  0  0  0  0  0  0  0
   21.6470  -22.3777  -16.1784 C   0  0  0  0  0  0  0  0  0  0  0  0
   20.8247  -22.1621  -14.9776 C   0  0  2  0  0  0  0  0  0  0  0  0
   19.4089  -21.7855  -15.3109 C   0  0  0  0  0  0  0  0  0  0  0  0
   21.3365  -21.2443  -13.9115 C   0  0  2  0  0  0  0  0  0  0  0  0
   22.7162  -21.2742  -13.5822 N   0  0  0  0  0  0  0  0  0  0  0  0
   20.4463  -21.1566  -12.7422 C   0  0  0  0  0  0  0  0  0  0  0  0
   20.5281  -21.9811  -11.7675 O   0  0  0  0  0  0  0  0  0  0  0  0
   19.4727  -20.1801  -12.6351 O   0  0  0  0  0  0  0  0  0  0  0  0
  2  1  1  0
  3  2  2  0
  4  5  1  0
  4  2  1  0
  5  7  1  0
  5  6  1  1
  7  8  2  0
  9 10  1  0
 10 11  2  0
 11 12  1  0
 13 12  2  0
 13 14  1  0
 15 14  1  1
 15 17  1  0
 16  7  1  0
 16 15  1  0
 17 25  1  0
 18 17  2  0
 19 13  1  0
 20 10  1  0
 20 19  2  0
 22 21  1  6
 22 23  1  0
 24 26  1  0
 24 22  1  0
 24 25  1  1
 26 28  1  0
 27 26  2  0
M  END
$$$$
