NYV.pdb
     RDKit          3D

 28 28  0  0  1  0  0  0  0  0999 V2000
   24.6104  -21.1946   -9.2567 N   0  0  0  0  0  0  0  0  0  0  0  0
   25.7289  -20.5399   -9.8297 C   0  0  0  0  0  0  0  0  0  0  0  0
   26.6686  -20.1294   -9.0909 O   0  0  0  0  0  0  0  0  0  0  0  0
   25.8450  -20.3123  -11.2751 C   0  0  0  0  0  0  0  0  0  0  0  0
   24.6458  -20.8654  -12.0324 C   0  0  2  0  0  0  0  0  0  0  0  0
   24.7014  -22.3161  -12.0326 N   0  0  0  0  0  0  0  0  0  0  0  0
   24.6457  -20.4032  -13.4386 C   0  0  0  0  0  0  0  0  0  0  0  0
   25.4046  -20.9396  -14.2660 O   0  0  0  0  0  0  0  0  0  0  0  0
   21.4318  -16.0651  -20.5405 O   0  0  0  0  0  0  0  0  0  0  0  0
   21.6704  -16.5246  -19.2656 C   0  0  0  0  0  0  0  0  0  0  0  0
   22.1018  -15.7020  -18.2363 C   0  0  0  0  0  0  0  0  0  0  0  0
   22.3337  -16.1862  -16.9689 C   0  0  0  0  0  0  0  0  0  0  0  0
   22.1454  -17.5208  -16.6687 C   0  0  0  0  0  0  0  0  0  0  0  0
   22.4023  -18.1013  -15.3420 C   0  0  0  0  0  0  0  0  0  0  0  0
   23.6711  -18.8764  -15.2091 C   0  0  2  0  0  0  0  0  0  0  0  0
   23.7707  -19.3505  -13.8057 N   0  0  0  0  0  0  0  0  0  0  0  0
   24.9040  -18.1031  -15.5434 C   0  0  0  0  0  0  0  0  0  0  0  0
   25.2001  -17.1486  -14.7892 O   0  0  0  0  0  0  0  0  0  0  0  0
   21.7102  -18.3286  -17.7282 C   0  0  0  0  0  0  0  0  0  0  0  0
   21.4821  -17.8458  -18.9768 C   0  0  0  0  0  0  0  0  0  0  0  0
   28.6522  -19.5729  -17.5792 C   0  0  0  0  0  0  0  0  0  0  0  0
   28.2320  -18.3855  -16.8190 C   0  0  2  0  0  0  0  0  0  0  0  0
   28.3509  -18.5821  -15.3343 C   0  0  0  0  0  0  0  0  0  0  0  0
   26.9025  -17.7694  -17.1256 C   0  0  2  0  0  0  0  0  0  0  0  0
   25.7262  -18.3913  -16.6334 N   0  0  0  0  0  0  0  0  0  0  0  0
   26.7884  -17.2919  -18.5136 C   0  0  0  0  0  0  0  0  0  0  0  0
   27.6022  -16.4342  -19.0020 O   0  0  0  0  0  0  0  0  0  0  0  0
   25.7946  -17.7427  -19.3633 O   0  0  0  0  0  0  0  0  0  0  0  0
  2  1  1  0
  3  2  2  0
  4  5  1  0
  4  2  1  0
  5  7  1  0
  5  6  1  6
  7  8  2  0
  9 10  1  0
 10 11  2  0
 11 12  1  0
 13 12  2  0
 13 14  1  0
 15 14  1  1
 15 17  1  0
 16  7  1  0
 16 15  1  0
 17 25  1  0
 18 17  2  0
 19 13  1  0
 20 10  1  0
 20 19  2  0
 22 21  1  6
 22 23  1  0
 24 26  1  0
 24 22  1  0
 24 25  1  6
 26 28  1  0
 27 26  2  0
M  END
$$$$
