NYV.pdb
     RDKit          3D

 28 28  0  0  1  0  0  0  0  0999 V2000
   30.1240  -21.0144  -19.1432 N   0  0  0  0  0  0  0  0  0  0  0  0
   28.7610  -20.6375  -19.2345 C   0  0  0  0  0  0  0  0  0  0  0  0
   28.3640  -19.9290  -20.2028 O   0  0  0  0  0  0  0  0  0  0  0  0
   27.7695  -21.0425  -18.2307 C   0  0  0  0  0  0  0  0  0  0  0  0
   28.4010  -21.8535  -17.1078 C   0  0  2  0  0  0  0  0  0  0  0  0
   28.7056  -23.1892  -17.5884 N   0  0  0  0  0  0  0  0  0  0  0  0
   27.4784  -21.9763  -15.9568 C   0  0  0  0  0  0  0  0  0  0  0  0
   26.5421  -22.7947  -15.9992 O   0  0  0  0  0  0  0  0  0  0  0  0
   24.6958  -20.2152   -7.5876 O   0  0  0  0  0  0  0  0  0  0  0  0
   25.3740  -20.3584   -8.7763 C   0  0  0  0  0  0  0  0  0  0  0  0
   25.6273  -21.5923   -9.3558 C   0  0  0  0  0  0  0  0  0  0  0  0
   26.3083  -21.7089  -10.5461 C   0  0  0  0  0  0  0  0  0  0  0  0
   26.7712  -20.5939  -11.2165 C   0  0  0  0  0  0  0  0  0  0  0  0
   27.5278  -20.6566  -12.4762 C   0  0  0  0  0  0  0  0  0  0  0  0
   26.7789  -21.1815  -13.6559 C   0  0  2  0  0  0  0  0  0  0  0  0
   27.6912  -21.1481  -14.8266 N   0  0  0  0  0  0  0  0  0  0  0  0
   25.5405  -20.4169  -13.9901 C   0  0  0  0  0  0  0  0  0  0  0  0
   25.6904  -19.2912  -14.5172 O   0  0  0  0  0  0  0  0  0  0  0  0
   26.5019  -19.3607  -10.6072 C   0  0  0  0  0  0  0  0  0  0  0  0
   25.8287  -19.2509   -9.4330 C   0  0  0  0  0  0  0  0  0  0  0  0
   21.6832  -21.6965  -15.6036 C   0  0  0  0  0  0  0  0  0  0  0  0
   22.2764  -20.4039  -15.2266 C   0  0  2  0  0  0  0  0  0  0  0  0
   23.1654  -19.8446  -16.3009 C   0  0  0  0  0  0  0  0  0  0  0  0
   22.9741  -20.2911  -13.9070 C   0  0  2  0  0  0  0  0  0  0  0  0
   24.2501  -20.8909  -13.7499 N   0  0  0  0  0  0  0  0  0  0  0  0
   22.0775  -20.4870  -12.7558 C   0  0  0  0  0  0  0  0  0  0  0  0
   22.3280  -21.3478  -11.8432 O   0  0  0  0  0  0  0  0  0  0  0  0
   20.9156  -19.7531  -12.5997 O   0  0  0  0  0  0  0  0  0  0  0  0
  2  1  1  0
  3  2  2  0
  4  5  1  0
  4  2  1  0
  5  7  1  0
  5  6  1  6
  7  8  2  0
  9 10  1  0
 10 11  2  0
 11 12  1  0
 13 12  2  0
 13 14  1  0
 15 14  1  1
 15 17  1  0
 16  7  1  0
 16 15  1  0
 17 25  1  0
 18 17  2  0
 19 13  1  0
 20 10  1  0
 20 19  2  0
 22 21  1  6
 22 23  1  0
 24 26  1  0
 24 22  1  0
 24 25  1  6
 26 28  1  0
 27 26  2  0
M  END
$$$$
