SHK.pdb
     RDKit          3D

 26 26  0  0  1  0  0  0  0  0999 V2000
   26.5349  -20.0210  -17.6931 O   0  0  0  0  0  0  0  0  0  0  0  0
   27.7837  -19.8055  -17.1168 C   0  0  0  0  0  0  0  0  0  0  0  0
   28.1598  -21.0593  -16.3558 C   0  0  2  0  0  0  0  0  0  0  0  0
   28.1864  -22.2026  -17.2453 N   0  0  0  0  0  0  0  0  0  0  0  0
   27.1917  -21.3431  -15.2636 C   0  0  0  0  0  0  0  0  0  0  0  0
   26.3645  -22.2824  -15.4214 O   0  0  0  0  0  0  0  0  0  0  0  0
   27.1768  -20.5989  -14.0745 N   0  0  0  0  0  0  0  0  0  0  0  0
   26.1833  -20.8289  -13.0741 C   0  0  1  0  0  0  0  0  0  0  0  0
   26.4661  -20.0782  -11.8059 C   0  0  0  0  0  0  0  0  0  0  0  0
   25.5297  -20.3636  -10.7220 C   0  0  0  0  0  0  0  0  0  0  0  0
   25.5235  -21.5099   -9.9565 C   0  0  0  0  0  0  0  0  0  0  0  0
   24.5112  -21.4026   -9.0603 N   0  0  0  0  0  0  0  0  0  0  0  0
   23.8949  -20.2375   -9.2435 C   0  0  0  0  0  0  0  0  0  0  0  0
   24.5243  -19.5945  -10.2710 N   0  0  0  0  0  0  0  0  0  0  0  0
   24.8577  -20.3605  -13.5916 C   0  0  0  0  0  0  0  0  0  0  0  0
   24.7876  -19.2839  -14.2779 O   0  0  0  0  0  0  0  0  0  0  0  0
   23.6785  -21.1020  -13.3262 N   0  0  0  0  0  0  0  0  0  0  0  0
   22.3389  -20.6604  -13.7076 C   0  0  1  0  0  0  0  0  0  0  0  0
   21.7759  -21.5965  -14.7052 C   0  0  0  0  0  0  0  0  0  0  0  0
   20.4105  -21.2252  -15.1732 C   0  0  0  0  0  0  0  0  0  0  0  0
   19.9812  -22.2853  -16.1770 C   0  0  0  0  0  0  0  0  0  0  0  0
   18.6458  -21.8451  -16.7409 C   0  0  0  0  0  0  0  0  0  0  0  0
   18.2738  -22.7773  -17.7747 N   0  0  0  0  0  0  0  0  0  0  0  0
   21.5054  -20.3856  -12.5229 C   0  0  0  0  0  0  0  0  0  0  0  0
   21.4554  -21.3383  -11.4866 O   0  0  0  0  0  0  0  0  0  0  0  0
   20.8206  -19.3679  -12.3339 O   0  0  0  0  0  0  0  0  0  0  0  0
  2  3  1  0
  2  1  1  0
  3  4  1  6
  5  3  1  0
  5  6  2  0
  7  8  1  0
  7  5  1  0
  9 10  1  0
  8  9  1  1
 10 11  2  0
 12 11  1  0
 13 12  1  0
 14 13  2  0
 14 10  1  0
 15 16  2  0
 15  8  1  0
 17 15  1  0
 18 17  1  0
 18 24  1  0
 18 19  1  6
 20 21  1  0
 20 19  1  0
 22 23  1  0
 22 21  1  0
 24 25  1  0
 26 24  2  0
M  END
$$$$
