SHK.pdb
     RDKit          3D

 26 26  0  0  1  0  0  0  0  0999 V2000
   20.3066  -25.9925   -9.9587 O   0  0  0  0  0  0  0  0  0  0  0  0
   19.4436  -25.9977  -11.0511 C   0  0  0  0  0  0  0  0  0  0  0  0
   18.3949  -24.9321  -10.8118 C   0  0  2  0  0  0  0  0  0  0  0  0
   17.0657  -25.5033  -10.8903 N   0  0  0  0  0  0  0  0  0  0  0  0
   18.4910  -23.8397  -11.8158 C   0  0  0  0  0  0  0  0  0  0  0  0
   17.9876  -24.0254  -12.9574 O   0  0  0  0  0  0  0  0  0  0  0  0
   19.1216  -22.6204  -11.5263 N   0  0  0  0  0  0  0  0  0  0  0  0
   19.3144  -21.6322  -12.5396 C   0  0  1  0  0  0  0  0  0  0  0  0
   19.5165  -20.2599  -11.9671 C   0  0  0  0  0  0  0  0  0  0  0  0
   19.7616  -19.2255  -12.9688 C   0  0  0  0  0  0  0  0  0  0  0  0
   19.6613  -19.3985  -14.3327 C   0  0  0  0  0  0  0  0  0  0  0  0
   19.9632  -18.2150  -14.9223 N   0  0  0  0  0  0  0  0  0  0  0  0
   20.2449  -17.3218  -13.9770 C   0  0  0  0  0  0  0  0  0  0  0  0
   20.1203  -17.9461  -12.7687 N   0  0  0  0  0  0  0  0  0  0  0  0
   20.5407  -21.9794  -13.3272 C   0  0  0  0  0  0  0  0  0  0  0  0
   21.6087  -22.3311  -12.7185 O   0  0  0  0  0  0  0  0  0  0  0  0
   20.5268  -21.9208  -14.7440 N   0  0  0  0  0  0  0  0  0  0  0  0
   21.6907  -22.2077  -15.5796 C   0  0  1  0  0  0  0  0  0  0  0  0
   21.7189  -23.6496  -15.9087 C   0  0  0  0  0  0  0  0  0  0  0  0
   22.9390  -24.0718  -16.6530 C   0  0  0  0  0  0  0  0  0  0  0  0
   22.8058  -25.5650  -16.9145 C   0  0  0  0  0  0  0  0  0  0  0  0
   24.0487  -25.9947  -17.6664 C   0  0  0  0  0  0  0  0  0  0  0  0
   23.9747  -27.4200  -17.8645 N   0  0  0  0  0  0  0  0  0  0  0  0
   21.7794  -21.2738  -16.7171 C   0  0  0  0  0  0  0  0  0  0  0  0
   22.9845  -20.5793  -16.9388 O   0  0  0  0  0  0  0  0  0  0  0  0
   20.8742  -21.0270  -17.5296 O   0  0  0  0  0  0  0  0  0  0  0  0
  2  3  1  0
  2  1  1  0
  3  4  1  6
  5  3  1  0
  5  6  2  0
  7  8  1  0
  7  5  1  0
  9 10  1  0
  8  9  1  1
 10 11  2  0
 12 11  1  0
 13 12  1  0
 14 13  2  0
 14 10  1  0
 15 16  2  0
 15  8  1  0
 17 15  1  0
 18 17  1  0
 18 24  1  0
 18 19  1  6
 20 21  1  0
 20 19  1  0
 22 23  1  0
 22 21  1  0
 24 25  1  0
 26 24  2  0
M  END
$$$$
