SHK.pdb
     RDKit          3D

 26 26  0  0  1  0  0  0  0  0999 V2000
   24.0525  -38.7446   -9.9232 O   0  0  0  0  0  0  0  0  0  0  0  0
   25.0321  -38.0233   -9.2462 C   0  0  0  0  0  0  0  0  0  0  0  0
   24.7212  -36.5519   -9.4215 C   0  0  2  0  0  0  0  0  0  0  0  0
   25.2149  -36.0788  -10.6988 N   0  0  0  0  0  0  0  0  0  0  0  0
   25.3465  -35.7328   -8.3496 C   0  0  0  0  0  0  0  0  0  0  0  0
   26.5594  -35.4079   -8.4705 O   0  0  0  0  0  0  0  0  0  0  0  0
   24.6269  -35.3173   -7.2194 N   0  0  0  0  0  0  0  0  0  0  0  0
   25.2377  -34.5060   -6.2147 C   0  0  1  0  0  0  0  0  0  0  0  0
   24.4426  -33.2680   -5.9198 C   0  0  0  0  0  0  0  0  0  0  0  0
   24.4643  -32.2754   -6.9910 C   0  0  0  0  0  0  0  0  0  0  0  0
   25.2281  -32.3561   -8.1356 C   0  0  0  0  0  0  0  0  0  0  0  0
   24.9741  -31.2514   -8.8803 N   0  0  0  0  0  0  0  0  0  0  0  0
   24.0857  -30.4950   -8.2405 C   0  0  0  0  0  0  0  0  0  0  0  0
   23.7700  -31.1277   -7.0721 N   0  0  0  0  0  0  0  0  0  0  0  0
   25.3322  -35.2965   -4.9456 C   0  0  0  0  0  0  0  0  0  0  0  0
   24.3935  -36.1048   -4.6287 O   0  0  0  0  0  0  0  0  0  0  0  0
   26.4555  -35.1556   -4.0916 N   0  0  0  0  0  0  0  0  0  0  0  0
   26.5807  -35.8238   -2.7982 C   0  0  1  0  0  0  0  0  0  0  0  0
   28.0039  -35.8581   -2.3961 C   0  0  0  0  0  0  0  0  0  0  0  0
   28.2443  -36.5490   -1.0976 C   0  0  0  0  0  0  0  0  0  0  0  0
   29.7248  -36.3966   -0.7805 C   0  0  0  0  0  0  0  0  0  0  0  0
   29.9921  -37.1973    0.4774 C   0  0  0  0  0  0  0  0  0  0  0  0
   31.3898  -37.0604    0.7998 N   0  0  0  0  0  0  0  0  0  0  0  0
   25.6341  -35.2699   -1.8128 C   0  0  0  0  0  0  0  0  0  0  0  0
   25.0932  -36.1225   -0.8308 O   0  0  0  0  0  0  0  0  0  0  0  0
   25.2510  -34.0909   -1.7533 O   0  0  0  0  0  0  0  0  0  0  0  0
  2  3  1  0
  2  1  1  0
  3  4  1  6
  5  3  1  0
  5  6  2  0
  7  8  1  0
  7  5  1  0
  9 10  1  0
  8  9  1  1
 10 11  2  0
 12 11  1  0
 13 12  1  0
 14 13  2  0
 14 10  1  0
 15 16  2  0
 15  8  1  0
 17 15  1  0
 18 17  1  0
 18 24  1  0
 18 19  1  1
 20 21  1  0
 20 19  1  0
 22 23  1  0
 22 21  1  0
 24 25  1  0
 26 24  2  0
M  END
$$$$
