SHK.pdb
     RDKit          3D

 26 26  0  0  1  0  0  0  0  0999 V2000
   46.3793  -10.2350   -3.2179 O   0  0  0  0  0  0  0  0  0  0  0  0
   46.0059   -9.8935   -4.5149 C   0  0  0  0  0  0  0  0  0  0  0  0
   45.9332  -11.1721   -5.3225 C   0  0  2  0  0  0  0  0  0  0  0  0
   47.2494  -11.7630   -5.4548 N   0  0  0  0  0  0  0  0  0  0  0  0
   45.3966  -10.9235   -6.6868 C   0  0  0  0  0  0  0  0  0  0  0  0
   46.1946  -10.5462   -7.5879 O   0  0  0  0  0  0  0  0  0  0  0  0
   44.0384  -11.0970   -6.9918 N   0  0  0  0  0  0  0  0  0  0  0  0
   43.5317  -10.7970   -8.2933 C   0  0  1  0  0  0  0  0  0  0  0  0
   42.4685  -11.7625   -8.7282 C   0  0  0  0  0  0  0  0  0  0  0  0
   42.9853  -13.0322   -9.2322 C   0  0  0  0  0  0  0  0  0  0  0  0
   44.3195  -13.3586   -9.3485 C   0  0  0  0  0  0  0  0  0  0  0  0
   44.3946  -14.6156   -9.8523 N   0  0  0  0  0  0  0  0  0  0  0  0
   43.1616  -15.0752  -10.0503 C   0  0  0  0  0  0  0  0  0  0  0  0
   42.2896  -14.0965   -9.6670 N   0  0  0  0  0  0  0  0  0  0  0  0
   42.9200   -9.4295   -8.2712 C   0  0  0  0  0  0  0  0  0  0  0  0
   42.5644   -8.9101   -7.1583 O   0  0  0  0  0  0  0  0  0  0  0  0
   42.7317   -8.7057   -9.4760 N   0  0  0  0  0  0  0  0  0  0  0  0
   42.4779   -7.2676   -9.5277 C   0  0  1  0  0  0  0  0  0  0  0  0
   43.5561   -6.5500   -8.8130 C   0  0  0  0  0  0  0  0  0  0  0  0
   43.4045   -5.0675   -8.8303 C   0  0  0  0  0  0  0  0  0  0  0  0
   44.6020   -4.4897   -8.0902 C   0  0  0  0  0  0  0  0  0  0  0  0
   44.3852   -2.9931   -7.9989 C   0  0  0  0  0  0  0  0  0  0  0  0
   45.5460   -2.4159   -7.3700 N   0  0  0  0  0  0  0  0  0  0  0  0
   42.1930   -6.8209  -10.9036 C   0  0  0  0  0  0  0  0  0  0  0  0
   41.4804   -5.6217  -11.0990 O   0  0  0  0  0  0  0  0  0  0  0  0
   42.5273   -7.4084  -11.9444 O   0  0  0  0  0  0  0  0  0  0  0  0
  2  3  1  0
  2  1  1  0
  3  4  1  6
  5  3  1  0
  5  6  2  0
  7  8  1  0
  7  5  1  0
  9 10  1  0
  8  9  1  1
 10 11  2  0
 12 11  1  0
 13 12  1  0
 14 13  2  0
 14 10  1  0
 15 16  2  0
 15  8  1  0
 17 15  1  0
 18 17  1  0
 18 24  1  0
 18 19  1  6
 20 21  1  0
 20 19  1  0
 22 23  1  0
 22 21  1  0
 24 25  1  0
 26 24  2  0
M  END
$$$$
