SHK.pdb
     RDKit          3D

 26 26  0  0  1  0  0  0  0  0999 V2000
   20.3847  -13.6836  -22.9022 O   0  0  0  0  0  0  0  0  0  0  0  0
   20.2605  -13.1094  -21.6400 C   0  0  0  0  0  0  0  0  0  0  0  0
   21.2056  -11.9282  -21.5788 C   0  0  2  0  0  0  0  0  0  0  0  0
   22.3514  -12.1516  -22.4369 N   0  0  0  0  0  0  0  0  0  0  0  0
   21.6993  -11.6982  -20.1953 C   0  0  0  0  0  0  0  0  0  0  0  0
   21.0881  -12.2484  -19.2388 O   0  0  0  0  0  0  0  0  0  0  0  0
   22.8170  -10.8924  -19.9316 N   0  0  0  0  0  0  0  0  0  0  0  0
   23.2769  -10.6855  -18.5951 C   0  0  1  0  0  0  0  0  0  0  0  0
   24.7051  -10.2271  -18.5477 C   0  0  0  0  0  0  0  0  0  0  0  0
   25.2788  -10.1997  -17.2048 C   0  0  0  0  0  0  0  0  0  0  0  0
   24.6690  -10.6868  -16.0686 C   0  0  0  0  0  0  0  0  0  0  0  0
   25.5122  -10.4801  -15.0265 N   0  0  0  0  0  0  0  0  0  0  0  0
   26.6150   -9.8860  -15.4755 C   0  0  0  0  0  0  0  0  0  0  0  0
   26.4713   -9.7124  -16.8225 N   0  0  0  0  0  0  0  0  0  0  0  0
   22.4386   -9.6223  -17.9538 C   0  0  0  0  0  0  0  0  0  0  0  0
   21.9556   -8.6772  -18.6668 O   0  0  0  0  0  0  0  0  0  0  0  0
   22.1761   -9.6553  -16.5606 N   0  0  0  0  0  0  0  0  0  0  0  0
   21.3631   -8.6609  -15.8641 C   0  0  1  0  0  0  0  0  0  0  0  0
   20.5634   -9.3260  -14.8122 C   0  0  0  0  0  0  0  0  0  0  0  0
   19.7147   -8.3903  -14.0215 C   0  0  0  0  0  0  0  0  0  0  0  0
   18.9899   -9.2241  -12.9751 C   0  0  0  0  0  0  0  0  0  0  0  0
   18.0052   -8.3049  -12.2818 C   0  0  0  0  0  0  0  0  0  0  0  0
   17.4072   -9.0372  -11.1945 N   0  0  0  0  0  0  0  0  0  0  0  0
   22.1741   -7.5053  -15.4389 C   0  0  0  0  0  0  0  0  0  0  0  0
   23.5341   -7.7018  -15.1293 O   0  0  0  0  0  0  0  0  0  0  0  0
   21.7727   -6.3368  -15.3221 O   0  0  0  0  0  0  0  0  0  0  0  0
  2  3  1  0
  2  1  1  0
  3  4  1  6
  5  3  1  0
  5  6  2  0
  7  8  1  0
  7  5  1  0
  9 10  1  0
  8  9  1  6
 10 11  2  0
 12 11  1  0
 13 12  1  0
 14 13  2  0
 14 10  1  0
 15 16  2  0
 15  8  1  0
 17 15  1  0
 18 17  1  0
 18 24  1  0
 18 19  1  1
 20 21  1  0
 20 19  1  0
 22 23  1  0
 22 21  1  0
 24 25  1  0
 26 24  2  0
M  END
$$$$
