SHK.pdb
     RDKit          3D

 26 26  0  0  1  0  0  0  0  0999 V2000
   28.9549  -30.6269   10.5192 O   0  0  0  0  0  0  0  0  0  0  0  0
   28.9395  -29.4393    9.7929 C   0  0  0  0  0  0  0  0  0  0  0  0
   27.7089  -29.4572    8.9111 C   0  0  2  0  0  0  0  0  0  0  0  0
   26.5242  -29.1567    9.6891 N   0  0  0  0  0  0  0  0  0  0  0  0
   27.5189  -30.7852    8.2699 C   0  0  0  0  0  0  0  0  0  0  0  0
   26.8110  -31.6443    8.8632 O   0  0  0  0  0  0  0  0  0  0  0  0
   28.1022  -31.1016    7.0340 N   0  0  0  0  0  0  0  0  0  0  0  0
   27.8544  -32.3590    6.4030 C   0  0  1  0  0  0  0  0  0  0  0  0
   28.1100  -32.3158    4.9249 C   0  0  0  0  0  0  0  0  0  0  0  0
   26.9489  -31.9251    4.1296 C   0  0  0  0  0  0  0  0  0  0  0  0
   25.6472  -31.8966    4.5821 C   0  0  0  0  0  0  0  0  0  0  0  0
   24.8623  -31.4836    3.5560 N   0  0  0  0  0  0  0  0  0  0  0  0
   25.6281  -31.2571    2.4915 C   0  0  0  0  0  0  0  0  0  0  0  0
   26.9185  -31.5299    2.8456 N   0  0  0  0  0  0  0  0  0  0  0  0
   28.7733  -33.3854    6.9917 C   0  0  0  0  0  0  0  0  0  0  0  0
   29.7886  -33.0131    7.6738 O   0  0  0  0  0  0  0  0  0  0  0  0
   28.5261  -34.7683    6.7982 N   0  0  0  0  0  0  0  0  0  0  0  0
   29.3167  -35.8288    7.4190 C   0  0  1  0  0  0  0  0  0  0  0  0
   29.4490  -35.5621    8.8680 C   0  0  0  0  0  0  0  0  0  0  0  0
   30.1090  -36.6644    9.6235 C   0  0  0  0  0  0  0  0  0  0  0  0
   30.1884  -36.2214   11.0771 C   0  0  0  0  0  0  0  0  0  0  0  0
   30.8564  -37.3435   11.8452 C   0  0  0  0  0  0  0  0  0  0  0  0
   31.0389  -36.9011   13.2043 N   0  0  0  0  0  0  0  0  0  0  0  0
   28.8172  -37.1635    7.0410 C   0  0  0  0  0  0  0  0  0  0  0  0
   29.6700  -38.2762    7.1772 O   0  0  0  0  0  0  0  0  0  0  0  0
   27.6852  -37.4204    6.6017 O   0  0  0  0  0  0  0  0  0  0  0  0
  2  3  1  0
  2  1  1  0
  3  4  1  1
  5  3  1  0
  5  6  2  0
  7  8  1  0
  7  5  1  0
  9 10  1  0
  8  9  1  6
 10 11  2  0
 12 11  1  0
 13 12  1  0
 14 13  2  0
 14 10  1  0
 15 16  2  0
 15  8  1  0
 17 15  1  0
 18 17  1  0
 18 24  1  0
 18 19  1  1
 20 21  1  0
 20 19  1  0
 22 23  1  0
 22 21  1  0
 24 25  1  0
 26 24  2  0
M  END
$$$$
