SHK.pdb
     RDKit          3D

 26 26  0  0  1  0  0  0  0  0999 V2000
   28.1401   -9.5768  -17.0027 O   0  0  0  0  0  0  0  0  0  0  0  0
   28.4779  -10.5808  -16.0994 C   0  0  0  0  0  0  0  0  0  0  0  0
   27.8307  -11.8636  -16.5769 C   0  0  2  0  0  0  0  0  0  0  0  0
   28.3517  -12.2409  -17.8750 N   0  0  0  0  0  0  0  0  0  0  0  0
   26.3555  -11.7175  -16.6931 C   0  0  0  0  0  0  0  0  0  0  0  0
   25.8589  -11.5138  -17.8346 O   0  0  0  0  0  0  0  0  0  0  0  0
   25.5123  -11.8001  -15.5750 N   0  0  0  0  0  0  0  0  0  0  0  0
   24.0980  -11.6481  -15.7064 C   0  0  1  0  0  0  0  0  0  0  0  0
   23.3384  -12.5542  -14.7824 C   0  0  0  0  0  0  0  0  0  0  0  0
   21.8875  -12.4060  -14.8605 C   0  0  0  0  0  0  0  0  0  0  0  0
   21.0825  -11.9122  -13.8564 C   0  0  0  0  0  0  0  0  0  0  0  0
   19.8031  -11.9311  -14.3060 N   0  0  0  0  0  0  0  0  0  0  0  0
   19.7885  -12.4162  -15.5451 C   0  0  0  0  0  0  0  0  0  0  0  0
   21.0772  -12.7101  -15.8886 N   0  0  0  0  0  0  0  0  0  0  0  0
   23.7287  -10.2375  -15.3621 C   0  0  0  0  0  0  0  0  0  0  0  0
   24.3904   -9.6075  -14.4676 O   0  0  0  0  0  0  0  0  0  0  0  0
   22.6500   -9.5946  -16.0206 N   0  0  0  0  0  0  0  0  0  0  0  0
   22.2298   -8.2233  -15.7413 C   0  0  1  0  0  0  0  0  0  0  0  0
   22.1705   -7.4578  -17.0058 C   0  0  0  0  0  0  0  0  0  0  0  0
   21.8778   -6.0088  -16.8172 C   0  0  0  0  0  0  0  0  0  0  0  0
   21.9937   -5.3503  -18.1841 C   0  0  0  0  0  0  0  0  0  0  0  0
   21.7848   -3.8641  -17.9780 C   0  0  0  0  0  0  0  0  0  0  0  0
   21.9707   -3.2112  -19.2490 N   0  0  0  0  0  0  0  0  0  0  0  0
   21.0201   -8.1925  -14.8989 C   0  0  0  0  0  0  0  0  0  0  0  0
   20.9622   -7.2902  -13.8189 O   0  0  0  0  0  0  0  0  0  0  0  0
   20.0114   -8.9004  -15.0462 O   0  0  0  0  0  0  0  0  0  0  0  0
  2  3  1  0
  2  1  1  0
  3  4  1  6
  5  3  1  0
  5  6  2  0
  7  8  1  0
  7  5  1  0
  9 10  1  0
  8  9  1  1
 10 11  2  0
 12 11  1  0
 13 12  1  0
 14 13  2  0
 14 10  1  0
 15 16  2  0
 15  8  1  0
 17 15  1  0
 18 17  1  0
 18 24  1  0
 18 19  1  6
 20 21  1  0
 20 19  1  0
 22 23  1  0
 22 21  1  0
 24 25  1  0
 26 24  2  0
M  END
$$$$
