SHK.pdb
     RDKit          3D

 26 26  0  0  1  0  0  0  0  0999 V2000
   23.5556   -9.4743  -17.8197 O   0  0  0  0  0  0  0  0  0  0  0  0
   24.1035   -9.8596  -16.5992 C   0  0  0  0  0  0  0  0  0  0  0  0
   22.9946  -10.4770  -15.7735 C   0  0  2  0  0  0  0  0  0  0  0  0
   22.3331  -11.5281  -16.5195 N   0  0  0  0  0  0  0  0  0  0  0  0
   21.9738   -9.4656  -15.3915 C   0  0  0  0  0  0  0  0  0  0  0  0
   20.9683   -9.3137  -16.1378 O   0  0  0  0  0  0  0  0  0  0  0  0
   22.1016   -8.6848  -14.2330 N   0  0  0  0  0  0  0  0  0  0  0  0
   21.1184   -7.7060  -13.8925 C   0  0  1  0  0  0  0  0  0  0  0  0
   20.7226   -7.7739  -12.4466 C   0  0  0  0  0  0  0  0  0  0  0  0
   19.4888   -8.5156  -12.1998 C   0  0  0  0  0  0  0  0  0  0  0  0
   18.7135   -9.1159  -13.1686 C   0  0  0  0  0  0  0  0  0  0  0  0
   17.6585   -9.7013  -12.5491 N   0  0  0  0  0  0  0  0  0  0  0  0
   17.7534   -9.4856  -11.2395 C   0  0  0  0  0  0  0  0  0  0  0  0
   18.8851   -8.7524  -11.0228 N   0  0  0  0  0  0  0  0  0  0  0  0
   21.6860   -6.3423  -14.1430 C   0  0  0  0  0  0  0  0  0  0  0  0
   22.8595   -6.0554  -13.7240 O   0  0  0  0  0  0  0  0  0  0  0  0
   20.9316   -5.3658  -14.8416 N   0  0  0  0  0  0  0  0  0  0  0  0
   21.4557   -4.0572  -15.2260 C   0  0  1  0  0  0  0  0  0  0  0  0
   21.0830   -3.7684  -16.6281 C   0  0  0  0  0  0  0  0  0  0  0  0
   21.5090   -2.4194  -17.0969 C   0  0  0  0  0  0  0  0  0  0  0  0
   20.9878   -2.2575  -18.5174 C   0  0  0  0  0  0  0  0  0  0  0  0
   21.4992   -0.9255  -19.0267 C   0  0  0  0  0  0  0  0  0  0  0  0
   20.9996   -0.7431  -20.3658 N   0  0  0  0  0  0  0  0  0  0  0  0
   21.1107   -3.0260  -14.2302 C   0  0  0  0  0  0  0  0  0  0  0  0
   22.0321   -1.9933  -13.9685 O   0  0  0  0  0  0  0  0  0  0  0  0
   20.0574   -2.9680  -13.5763 O   0  0  0  0  0  0  0  0  0  0  0  0
  2  3  1  0
  2  1  1  0
  3  4  1  6
  5  3  1  0
  5  6  2  0
  7  8  1  0
  7  5  1  0
  9 10  1  0
  8  9  1  1
 10 11  2  0
 12 11  1  0
 13 12  1  0
 14 13  2  0
 14 10  1  0
 15 16  2  0
 15  8  1  0
 17 15  1  0
 18 17  1  0
 18 24  1  0
 18 19  1  6
 20 21  1  0
 20 19  1  0
 22 23  1  0
 22 21  1  0
 24 25  1  0
 26 24  2  0
M  END
$$$$
