SHK.pdb
     RDKit          3D

 26 26  0  0  1  0  0  0  0  0999 V2000
   18.5454  -11.7171  -18.6036 O   0  0  0  0  0  0  0  0  0  0  0  0
   19.1329  -10.8691  -17.6688 C   0  0  0  0  0  0  0  0  0  0  0  0
   20.4145  -11.5236  -17.1979 C   0  0  2  0  0  0  0  0  0  0  0  0
   20.1245  -12.7564  -16.4943 N   0  0  0  0  0  0  0  0  0  0  0  0
   21.1744  -10.6333  -16.2810 C   0  0  0  0  0  0  0  0  0  0  0  0
   20.8083  -10.5562  -15.0763 O   0  0  0  0  0  0  0  0  0  0  0  0
   22.2771   -9.8852  -16.7195 N   0  0  0  0  0  0  0  0  0  0  0  0
   22.9945   -9.0358  -15.8226 C   0  0  1  0  0  0  0  0  0  0  0  0
   24.4348   -8.8794  -16.2138 C   0  0  0  0  0  0  0  0  0  0  0  0
   25.2457  -10.0744  -15.9952 C   0  0  0  0  0  0  0  0  0  0  0  0
   24.7958  -11.2498  -15.4331 C   0  0  0  0  0  0  0  0  0  0  0  0
   25.8378  -12.1173  -15.4005 N   0  0  0  0  0  0  0  0  0  0  0  0
   26.9096  -11.5234  -15.9194 C   0  0  0  0  0  0  0  0  0  0  0  0
   26.5441  -10.2601  -16.2874 N   0  0  0  0  0  0  0  0  0  0  0  0
   22.3697   -7.6742  -15.8415 C   0  0  0  0  0  0  0  0  0  0  0  0
   21.7152   -7.2893  -16.8702 O   0  0  0  0  0  0  0  0  0  0  0  0
   22.4987   -6.8075  -14.7265 N   0  0  0  0  0  0  0  0  0  0  0  0
   21.8089   -5.5245  -14.6118 C   0  0  1  0  0  0  0  0  0  0  0  0
   20.3590   -5.7223  -14.8286 C   0  0  0  0  0  0  0  0  0  0  0  0
   19.8118   -4.9434  -15.9754 C   0  0  0  0  0  0  0  0  0  0  0  0
   18.3162   -5.2195  -16.0268 C   0  0  0  0  0  0  0  0  0  0  0  0
   17.7796   -4.5197  -17.2586 C   0  0  0  0  0  0  0  0  0  0  0  0
   18.0888   -5.3394  -18.4025 N   0  0  0  0  0  0  0  0  0  0  0  0
   22.1965   -4.8138  -13.3795 C   0  0  0  0  0  0  0  0  0  0  0  0
   21.9130   -3.4388  -13.2656 O   0  0  0  0  0  0  0  0  0  0  0  0
   22.7643   -5.3159  -12.3967 O   0  0  0  0  0  0  0  0  0  0  0  0
  2  3  1  0
  2  1  1  0
  3  4  1  1
  5  3  1  0
  5  6  2  0
  7  8  1  0
  7  5  1  0
  9 10  1  0
  8  9  1  6
 10 11  2  0
 12 11  1  0
 13 12  1  0
 14 13  2  0
 14 10  1  0
 15 16  2  0
 15  8  1  0
 17 15  1  0
 18 17  1  0
 18 24  1  0
 18 19  1  1
 20 21  1  0
 20 19  1  0
 22 23  1  0
 22 21  1  0
 24 25  1  0
 26 24  2  0
M  END
$$$$
