SHK.pdb
     RDKit          3D

 26 26  0  0  1  0  0  0  0  0999 V2000
   19.8088  -25.1460  -12.1047 O   0  0  0  0  0  0  0  0  0  0  0  0
   18.9516  -25.7273  -11.1744 C   0  0  0  0  0  0  0  0  0  0  0  0
   17.9044  -24.6965  -10.8094 C   0  0  2  0  0  0  0  0  0  0  0  0
   18.1554  -23.4511  -11.5059 N   0  0  0  0  0  0  0  0  0  0  0  0
   17.9009  -24.4190   -9.3486 C   0  0  0  0  0  0  0  0  0  0  0  0
   18.0040  -23.2224   -8.9630 O   0  0  0  0  0  0  0  0  0  0  0  0
   17.7868  -25.4457   -8.3995 N   0  0  0  0  0  0  0  0  0  0  0  0
   17.2338  -25.1952   -7.1065 C   0  0  1  0  0  0  0  0  0  0  0  0
   15.8358  -24.6544   -7.1787 C   0  0  0  0  0  0  0  0  0  0  0  0
   15.2292  -24.3924   -5.8762 C   0  0  0  0  0  0  0  0  0  0  0  0
   15.2913  -23.1954   -5.1954 C   0  0  0  0  0  0  0  0  0  0  0  0
   14.6115  -23.3466   -4.0316 N   0  0  0  0  0  0  0  0  0  0  0  0
   14.1341  -24.5871   -3.9690 C   0  0  0  0  0  0  0  0  0  0  0  0
   14.5158  -25.2344   -5.1095 N   0  0  0  0  0  0  0  0  0  0  0  0
   17.1819  -26.4840   -6.3443 C   0  0  0  0  0  0  0  0  0  0  0  0
   16.7932  -27.5528   -6.9285 O   0  0  0  0  0  0  0  0  0  0  0  0
   17.5605  -26.5282   -4.9784 N   0  0  0  0  0  0  0  0  0  0  0  0
   17.4494  -27.7224   -4.1436 C   0  0  1  0  0  0  0  0  0  0  0  0
   18.2336  -27.5326   -2.9038 C   0  0  0  0  0  0  0  0  0  0  0  0
   18.1867  -28.7005   -1.9791 C   0  0  0  0  0  0  0  0  0  0  0  0
   19.0116  -28.3315   -0.7548 C   0  0  0  0  0  0  0  0  0  0  0  0
   18.8632  -29.4672    0.2369 C   0  0  0  0  0  0  0  0  0  0  0  0
   19.6159  -29.1247    1.4168 N   0  0  0  0  0  0  0  0  0  0  0  0
   16.0430  -28.1311   -3.9738 C   0  0  0  0  0  0  0  0  0  0  0  0
   15.6930  -29.4792   -4.1835 O   0  0  0  0  0  0  0  0  0  0  0  0
   15.1020  -27.3881   -3.6529 O   0  0  0  0  0  0  0  0  0  0  0  0
  2  3  1  0
  2  1  1  0
  3  4  1  6
  5  3  1  0
  5  6  2  0
  7  8  1  0
  7  5  1  0
  9 10  1  0
  8  9  1  6
 10 11  2  0
 12 11  1  0
 13 12  1  0
 14 13  2  0
 14 10  1  0
 15 16  2  0
 15  8  1  0
 17 15  1  0
 18 17  1  0
 18 24  1  0
 18 19  1  1
 20 21  1  0
 20 19  1  0
 22 23  1  0
 22 21  1  0
 24 25  1  0
 26 24  2  0
M  END
$$$$
