SHK.pdb
     RDKit          3D

 26 26  0  0  1  0  0  0  0  0999 V2000
   30.5257   -8.4335  -17.5519 O   0  0  0  0  0  0  0  0  0  0  0  0
   29.1671   -8.7251  -17.6384 C   0  0  0  0  0  0  0  0  0  0  0  0
   29.0190  -10.2316  -17.6103 C   0  0  2  0  0  0  0  0  0  0  0  0
   29.5569  -10.8159  -18.8220 N   0  0  0  0  0  0  0  0  0  0  0  0
   27.5928  -10.6355  -17.4933 C   0  0  0  0  0  0  0  0  0  0  0  0
   26.9464  -10.8746  -18.5498 O   0  0  0  0  0  0  0  0  0  0  0  0
   26.9562  -10.7555  -16.2491 N   0  0  0  0  0  0  0  0  0  0  0  0
   25.5814  -11.1327  -16.1585 C   0  0  1  0  0  0  0  0  0  0  0  0
   25.3374  -12.1451  -15.0780 C   0  0  0  0  0  0  0  0  0  0  0  0
   25.7702  -13.4978  -15.4188 C   0  0  0  0  0  0  0  0  0  0  0  0
   26.3292  -13.8756  -16.6208 C   0  0  0  0  0  0  0  0  0  0  0  0
   26.5949  -15.2039  -16.5533 N   0  0  0  0  0  0  0  0  0  0  0  0
   26.2222  -15.6580  -15.3593 C   0  0  0  0  0  0  0  0  0  0  0  0
   25.7121  -14.6034  -14.6573 N   0  0  0  0  0  0  0  0  0  0  0  0
   24.7666   -9.9182  -15.8335 C   0  0  0  0  0  0  0  0  0  0  0  0
   25.2600   -9.0018  -15.0908 O   0  0  0  0  0  0  0  0  0  0  0  0
   23.4509   -9.7765  -16.3431 N   0  0  0  0  0  0  0  0  0  0  0  0
   22.5862   -8.6353  -16.0519 C   0  0  1  0  0  0  0  0  0  0  0  0
   21.6982   -8.3811  -17.2074 C   0  0  0  0  0  0  0  0  0  0  0  0
   20.8027   -7.2032  -17.0287 C   0  0  0  0  0  0  0  0  0  0  0  0
   20.0111   -7.0470  -18.3189 C   0  0  0  0  0  0  0  0  0  0  0  0
   19.1642   -5.7997  -18.1696 C   0  0  0  0  0  0  0  0  0  0  0  0
   18.5722   -5.5116  -19.4513 N   0  0  0  0  0  0  0  0  0  0  0  0
   21.9296   -8.7791  -14.7396 C   0  0  0  0  0  0  0  0  0  0  0  0
   21.6757   -7.6255  -13.9723 O   0  0  0  0  0  0  0  0  0  0  0  0
   21.5623   -9.8454  -14.2215 O   0  0  0  0  0  0  0  0  0  0  0  0
  2  3  1  0
  2  1  1  0
  3  4  1  6
  5  3  1  0
  5  6  2  0
  7  8  1  0
  7  5  1  0
  9 10  1  0
  8  9  1  1
 10 11  2  0
 12 11  1  0
 13 12  1  0
 14 13  2  0
 14 10  1  0
 15 16  2  0
 15  8  1  0
 17 15  1  0
 18 17  1  0
 18 24  1  0
 18 19  1  6
 20 21  1  0
 20 19  1  0
 22 23  1  0
 22 21  1  0
 24 25  1  0
 26 24  2  0
M  END
$$$$
