SHK.pdb
     RDKit          3D

 26 26  0  0  1  0  0  0  0  0999 V2000
   19.8425  -13.0379  -17.5577 O   0  0  0  0  0  0  0  0  0  0  0  0
   19.1199  -13.8600  -16.6973 C   0  0  0  0  0  0  0  0  0  0  0  0
   17.6497  -13.5686  -16.9120 C   0  0  2  0  0  0  0  0  0  0  0  0
   17.2814  -13.8131  -18.2917 N   0  0  0  0  0  0  0  0  0  0  0  0
   17.3228  -12.1548  -16.5877 C   0  0  0  0  0  0  0  0  0  0  0  0
   17.0097  -11.3778  -17.5307 O   0  0  0  0  0  0  0  0  0  0  0  0
   17.3540  -11.6702  -15.2716 N   0  0  0  0  0  0  0  0  0  0  0  0
   17.0582  -10.3027  -14.9831 C   0  0  1  0  0  0  0  0  0  0  0  0
   16.0928  -10.1558  -13.8437 C   0  0  0  0  0  0  0  0  0  0  0  0
   14.7168  -10.5147  -14.1772 C   0  0  0  0  0  0  0  0  0  0  0  0
   13.8351   -9.7212  -14.8794 C   0  0  0  0  0  0  0  0  0  0  0  0
   12.6648  -10.3983  -14.9856 N   0  0  0  0  0  0  0  0  0  0  0  0
   12.7909  -11.5753  -14.3776 C   0  0  0  0  0  0  0  0  0  0  0  0
   14.0597  -11.6479  -13.8775 N   0  0  0  0  0  0  0  0  0  0  0  0
   18.3259   -9.6047  -14.5954 C   0  0  0  0  0  0  0  0  0  0  0  0
   19.2547  -10.2552  -14.0048 O   0  0  0  0  0  0  0  0  0  0  0  0
   18.5043   -8.2266  -14.8781 N   0  0  0  0  0  0  0  0  0  0  0  0
   19.8031   -7.5573  -14.8675 C   0  0  1  0  0  0  0  0  0  0  0  0
   20.7548   -8.3131  -15.7108 C   0  0  0  0  0  0  0  0  0  0  0  0
   22.1301   -7.7391  -15.7264 C   0  0  0  0  0  0  0  0  0  0  0  0
   22.9732   -8.6294  -16.6276 C   0  0  0  0  0  0  0  0  0  0  0  0
   24.3654   -8.0329  -16.6607 C   0  0  0  0  0  0  0  0  0  0  0  0
   25.1878   -8.8760  -17.4907 N   0  0  0  0  0  0  0  0  0  0  0  0
   19.6690   -6.1182  -15.1586 C   0  0  0  0  0  0  0  0  0  0  0  0
   20.6318   -5.2253  -14.6490 O   0  0  0  0  0  0  0  0  0  0  0  0
   18.7676   -5.5914  -15.8297 O   0  0  0  0  0  0  0  0  0  0  0  0
  2  3  1  0
  2  1  1  0
  3  4  1  6
  5  3  1  0
  5  6  2  0
  7  8  1  0
  7  5  1  0
  9 10  1  0
  8  9  1  1
 10 11  2  0
 12 11  1  0
 13 12  1  0
 14 13  2  0
 14 10  1  0
 15 16  2  0
 15  8  1  0
 17 15  1  0
 18 17  1  0
 18 24  1  0
 18 19  1  6
 20 21  1  0
 20 19  1  0
 22 23  1  0
 22 21  1  0
 24 25  1  0
 26 24  2  0
M  END
$$$$
