SHK.pdb
     RDKit          3D

 26 26  0  0  1  0  0  0  0  0999 V2000
   18.2528  -12.5586  -20.2048 O   0  0  0  0  0  0  0  0  0  0  0  0
   18.1361  -11.6389  -19.1662 C   0  0  0  0  0  0  0  0  0  0  0  0
   19.3313  -11.8226  -18.2550 C   0  0  2  0  0  0  0  0  0  0  0  0
   19.2518  -13.0944  -17.5657 N   0  0  0  0  0  0  0  0  0  0  0  0
   19.4068  -10.7447  -17.2335 C   0  0  0  0  0  0  0  0  0  0  0  0
   18.3934  -10.5238  -16.5156 O   0  0  0  0  0  0  0  0  0  0  0  0
   20.5661   -9.9761  -17.0515 N   0  0  0  0  0  0  0  0  0  0  0  0
   20.5689   -8.8419  -16.1832 C   0  0  1  0  0  0  0  0  0  0  0  0
   21.9508   -8.4769  -15.7258 C   0  0  0  0  0  0  0  0  0  0  0  0
   21.9977   -7.3256  -14.8282 C   0  0  0  0  0  0  0  0  0  0  0  0
   21.6134   -7.3321  -13.5044 C   0  0  0  0  0  0  0  0  0  0  0  0
   21.8039   -6.0825  -13.0130 N   0  0  0  0  0  0  0  0  0  0  0  0
   22.2894   -5.3082  -13.9802 C   0  0  0  0  0  0  0  0  0  0  0  0
   22.4095   -6.0764  -15.1030 N   0  0  0  0  0  0  0  0  0  0  0  0
   20.0112   -7.6645  -16.9230 C   0  0  0  0  0  0  0  0  0  0  0  0
   20.3036   -7.4915  -18.1556 O   0  0  0  0  0  0  0  0  0  0  0  0
   19.1606   -6.7390  -16.2666 N   0  0  0  0  0  0  0  0  0  0  0  0
   18.6418   -5.5263  -16.8952 C   0  0  1  0  0  0  0  0  0  0  0  0
   17.1629   -5.5592  -16.8858 C   0  0  0  0  0  0  0  0  0  0  0  0
   16.5316   -4.3470  -17.4799 C   0  0  0  0  0  0  0  0  0  0  0  0
   15.0250   -4.5445  -17.3970 C   0  0  0  0  0  0  0  0  0  0  0  0
   14.3840   -3.3270  -18.0309 C   0  0  0  0  0  0  0  0  0  0  0  0
   12.9546   -3.4965  -17.9673 N   0  0  0  0  0  0  0  0  0  0  0  0
   19.2742   -4.3176  -16.3357 C   0  0  0  0  0  0  0  0  0  0  0  0
   19.8430   -3.3749  -17.2141 O   0  0  0  0  0  0  0  0  0  0  0  0
   19.3603   -4.0315  -15.1311 O   0  0  0  0  0  0  0  0  0  0  0  0
  2  3  1  0
  2  1  1  0
  3  4  1  1
  5  3  1  0
  5  6  2  0
  7  8  1  0
  7  5  1  0
  9 10  1  0
  8  9  1  6
 10 11  2  0
 12 11  1  0
 13 12  1  0
 14 13  2  0
 14 10  1  0
 15 16  2  0
 15  8  1  0
 17 15  1  0
 18 17  1  0
 18 24  1  0
 18 19  1  1
 20 21  1  0
 20 19  1  0
 22 23  1  0
 22 21  1  0
 24 25  1  0
 26 24  2  0
M  END
$$$$
