EPS.pdb
     RDKit          3D

 23 23  0  0  1  0  0  0  0  0999 V2000
   25.4276  -14.7180  -17.8628 N   0  0  0  0  0  0  0  0  0  0  0  0
   25.7934  -13.3083  -18.1383 C   0  0  1  0  0  0  0  0  0  0  0  0
   25.4483  -13.0452  -19.5899 C   0  0  0  0  0  0  0  0  0  0  0  0
   24.4738  -14.0108  -20.1878 C   0  0  0  0  0  0  0  0  0  0  0  0
   23.0672  -13.4847  -20.0640 C   0  0  0  0  0  0  0  0  0  0  0  0
   22.3825  -13.8277  -19.0729 O   0  0  0  0  0  0  0  0  0  0  0  0
   25.0013  -12.4567  -17.2071 C   0  0  0  0  0  0  0  0  0  0  0  0
   23.7471  -12.7145  -17.2154 O   0  0  0  0  0  0  0  0  0  0  0  0
   22.5293  -12.6503  -21.0005 O   0  0  0  0  0  0  0  0  0  0  0  0
   25.5587  -11.4599  -16.3869 N   0  0  0  0  0  0  0  0  0  0  0  0
   26.9098  -11.6048  -15.8000 C   0  0  0  0  0  0  0  0  0  0  0  0
   27.5141  -10.2702  -16.1549 C   0  0  0  0  0  0  0  0  0  0  0  0
   26.3564   -9.3366  -16.4116 C   0  0  0  0  0  0  0  0  0  0  0  0
   25.1705  -10.1889  -15.8832 C   0  0  1  0  0  0  0  0  0  0  0  0
   23.9513   -9.5686  -16.3517 C   0  0  0  0  0  0  0  0  0  0  0  0
   23.6334   -9.3402  -17.5336 O   0  0  0  0  0  0  0  0  0  0  0  0
   19.5373   -8.1002  -14.8532 O   0  0  0  0  0  0  0  0  0  0  0  0
   20.7548   -8.6454  -14.5144 C   0  0  0  0  0  0  0  0  0  0  0  0
   21.7604   -8.5246  -15.6605 C   0  0  2  0  0  0  0  0  0  0  0  0
   22.9973   -9.1688  -15.3632 N   0  0  0  0  0  0  0  0  0  0  0  0
   21.9902   -7.0856  -15.8678 C   0  0  0  0  0  0  0  0  0  0  0  0
   21.0324   -6.2960  -16.4518 O   0  0  0  0  0  0  0  0  0  0  0  0
   23.0723   -6.5904  -15.5040 O   0  0  0  0  0  0  0  0  0  0  0  0
  2  1  1  1
  2  7  1  0
  3  2  1  0
  4  3  1  0
  5  4  1  0
  6  5  2  0
  7  8  2  0
  9  5  1  0
 10  7  1  0
 11 10  1  0
 12 11  1  0
 13 12  1  0
 13 14  1  0
 14 15  1  6
 14 10  1  0
 15 16  2  0
 19 18  1  1
 18 17  1  0
 20 19  1  0
 20 15  1  0
 21 22  1  0
 21 19  1  0
 23 21  2  0
M  END
$$$$
