EPS.pdb
     RDKit          3D

 23 23  0  0  1  0  0  0  0  0999 V2000
   19.2249  -13.0631  -16.6120 N   0  0  0  0  0  0  0  0  0  0  0  0
   20.4658  -12.3359  -16.9700 C   0  0  1  0  0  0  0  0  0  0  0  0
   20.2995  -11.8707  -18.4023 C   0  0  0  0  0  0  0  0  0  0  0  0
   19.1060  -11.0011  -18.6445 C   0  0  0  0  0  0  0  0  0  0  0  0
   19.4472   -9.8942  -19.6084 C   0  0  0  0  0  0  0  0  0  0  0  0
   19.5070   -8.7196  -19.1776 O   0  0  0  0  0  0  0  0  0  0  0  0
   20.5999  -11.1969  -16.0191 C   0  0  0  0  0  0  0  0  0  0  0  0
   19.5171  -10.5332  -15.8557 O   0  0  0  0  0  0  0  0  0  0  0  0
   19.6900  -10.1428  -20.9281 O   0  0  0  0  0  0  0  0  0  0  0  0
   21.7928  -10.8657  -15.3523 N   0  0  0  0  0  0  0  0  0  0  0  0
   22.7064  -11.9086  -14.8341 C   0  0  0  0  0  0  0  0  0  0  0  0
   24.0258  -11.4186  -15.3739 C   0  0  0  0  0  0  0  0  0  0  0  0
   23.8438   -9.9492  -15.6659 C   0  0  0  0  0  0  0  0  0  0  0  0
   22.4795   -9.6802  -14.9743 C   0  0  1  0  0  0  0  0  0  0  0  0
   22.0076   -8.3942  -15.4371 C   0  0  0  0  0  0  0  0  0  0  0  0
   21.7330   -8.0743  -16.6086 O   0  0  0  0  0  0  0  0  0  0  0  0
   19.4168   -4.6423  -14.7973 O   0  0  0  0  0  0  0  0  0  0  0  0
   19.8636   -5.9025  -14.4711 C   0  0  0  0  0  0  0  0  0  0  0  0
   21.3602   -6.0547  -14.7476 C   0  0  2  0  0  0  0  0  0  0  0  0
   21.8321   -7.3682  -14.4555 N   0  0  0  0  0  0  0  0  0  0  0  0
   22.0479   -5.0798  -13.8856 C   0  0  0  0  0  0  0  0  0  0  0  0
   22.0112   -3.7382  -14.1704 O   0  0  0  0  0  0  0  0  0  0  0  0
   22.6678   -5.4904  -12.8879 O   0  0  0  0  0  0  0  0  0  0  0  0
  2  1  1  1
  2  7  1  0
  3  2  1  0
  4  3  1  0
  5  4  1  0
  6  5  2  0
  7  8  2  0
  9  5  1  0
 10  7  1  0
 11 10  1  0
 12 11  1  0
 13 12  1  0
 13 14  1  0
 14 15  1  6
 14 10  1  0
 15 16  2  0
 19 18  1  1
 18 17  1  0
 20 19  1  0
 20 15  1  0
 21 22  1  0
 21 19  1  0
 23 21  2  0
M  END
$$$$
