EPS.pdb
     RDKit          3D

 23 23  0  0  1  0  0  0  0  0999 V2000
   19.2880  -12.7457  -17.0879 N   0  0  0  0  0  0  0  0  0  0  0  0
   20.5181  -11.9576  -17.3383 C   0  0  1  0  0  0  0  0  0  0  0  0
   20.3863  -11.3764  -18.7312 C   0  0  0  0  0  0  0  0  0  0  0  0
   20.3663  -12.3882  -19.8336 C   0  0  0  0  0  0  0  0  0  0  0  0
   20.2447  -11.7069  -21.1721 C   0  0  0  0  0  0  0  0  0  0  0  0
   20.1344  -12.4155  -22.1991 O   0  0  0  0  0  0  0  0  0  0  0  0
   20.5862  -10.9008  -16.2904 C   0  0  0  0  0  0  0  0  0  0  0  0
   19.5511  -10.1480  -16.2513 O   0  0  0  0  0  0  0  0  0  0  0  0
   20.2522  -10.3471  -21.2874 O   0  0  0  0  0  0  0  0  0  0  0  0
   21.6739  -10.7298  -15.4159 N   0  0  0  0  0  0  0  0  0  0  0  0
   22.3570  -11.8857  -14.7930 C   0  0  0  0  0  0  0  0  0  0  0  0
   23.7978  -11.5466  -15.0779 C   0  0  0  0  0  0  0  0  0  0  0  0
   23.8396  -10.0601  -15.3349 C   0  0  0  0  0  0  0  0  0  0  0  0
   22.4153   -9.6437  -14.8766 C   0  0  1  0  0  0  0  0  0  0  0  0
   22.1824   -8.3008  -15.3591 C   0  0  0  0  0  0  0  0  0  0  0  0
   22.2179   -7.9130  -16.5416 O   0  0  0  0  0  0  0  0  0  0  0  0
   19.4208   -5.9266  -14.0537 O   0  0  0  0  0  0  0  0  0  0  0  0
   20.3003   -5.5338  -15.0368 C   0  0  0  0  0  0  0  0  0  0  0  0
   21.7399   -5.9103  -14.6828 C   0  0  2  0  0  0  0  0  0  0  0  0
   21.8771   -7.2980  -14.3852 N   0  0  0  0  0  0  0  0  0  0  0  0
   22.1039   -5.1132  -13.5002 C   0  0  0  0  0  0  0  0  0  0  0  0
   22.2310   -3.7496  -13.5813 O   0  0  0  0  0  0  0  0  0  0  0  0
   22.2964   -5.6958  -12.4177 O   0  0  0  0  0  0  0  0  0  0  0  0
  2  1  1  1
  2  7  1  0
  3  2  1  0
  4  3  1  0
  5  4  1  0
  6  5  2  0
  7  8  2  0
  9  5  1  0
 10  7  1  0
 11 10  1  0
 12 11  1  0
 13 12  1  0
 13 14  1  0
 14 15  1  6
 14 10  1  0
 15 16  2  0
 19 18  1  1
 18 17  1  0
 20 19  1  0
 20 15  1  0
 21 22  1  0
 21 19  1  0
 23 21  2  0
M  END
$$$$
