EPS.pdb
     RDKit          3D

 23 23  0  0  1  0  0  0  0  0999 V2000
   15.0856  -15.4352    2.2836 N   0  0  0  0  0  0  0  0  0  0  0  0
   15.9704  -14.3537    2.7779 C   0  0  1  0  0  0  0  0  0  0  0  0
   15.1140  -13.1091    2.8920 C   0  0  0  0  0  0  0  0  0  0  0  0
   13.7848  -13.3203    3.5462 C   0  0  0  0  0  0  0  0  0  0  0  0
   13.0504  -12.0115    3.6822 C   0  0  0  0  0  0  0  0  0  0  0  0
   11.9785  -11.9885    4.3298 O   0  0  0  0  0  0  0  0  0  0  0  0
   16.5077  -14.7912    4.0968 C   0  0  0  0  0  0  0  0  0  0  0  0
   15.8785  -15.7842    4.6046 O   0  0  0  0  0  0  0  0  0  0  0  0
   13.5246  -10.8620    3.1199 O   0  0  0  0  0  0  0  0  0  0  0  0
   17.6021  -14.1861    4.7397 N   0  0  0  0  0  0  0  0  0  0  0  0
   18.5999  -13.3915    3.9888 C   0  0  0  0  0  0  0  0  0  0  0  0
   18.6700  -12.1510    4.8422 C   0  0  0  0  0  0  0  0  0  0  0  0
   18.1559  -12.5457    6.2052 C   0  0  0  0  0  0  0  0  0  0  0  0
   18.1094  -14.0916    6.0640 C   0  0  1  0  0  0  0  0  0  0  0  0
   17.3338  -14.6027    7.1721 C   0  0  0  0  0  0  0  0  0  0  0  0
   16.2131  -14.2101    7.5461 O   0  0  0  0  0  0  0  0  0  0  0  0
   17.6235  -18.4735    8.1308 O   0  0  0  0  0  0  0  0  0  0  0  0
   16.6830  -17.6558    8.7149 C   0  0  0  0  0  0  0  0  0  0  0  0
   17.2673  -16.2834    9.0532 C   0  0  2  0  0  0  0  0  0  0  0  0
   17.9015  -15.6752    7.9302 N   0  0  0  0  0  0  0  0  0  0  0  0
   18.2563  -16.4996   10.1216 C   0  0  0  0  0  0  0  0  0  0  0  0
   17.8685  -16.9362   11.3630 O   0  0  0  0  0  0  0  0  0  0  0  0
   19.4576  -16.2798    9.8832 O   0  0  0  0  0  0  0  0  0  0  0  0
  2  1  1  1
  2  7  1  0
  3  2  1  0
  4  3  1  0
  5  4  1  0
  6  5  2  0
  7  8  2  0
  9  5  1  0
 10  7  1  0
 11 10  1  0
 12 11  1  0
 13 12  1  0
 13 14  1  0
 14 15  1  1
 14 10  1  0
 15 16  2  0
 19 18  1  6
 18 17  1  0
 20 19  1  0
 20 15  1  0
 21 22  1  0
 21 19  1  0
 23 21  2  0
M  END
$$$$
