EPS.pdb
     RDKit          3D

 23 23  0  0  1  0  0  0  0  0999 V2000
   18.5956  -11.8354  -15.8667 N   0  0  0  0  0  0  0  0  0  0  0  0
   19.9905  -11.5364  -16.2688 C   0  0  1  0  0  0  0  0  0  0  0  0
   19.9851  -11.3819  -17.7760 C   0  0  0  0  0  0  0  0  0  0  0  0
   18.9638  -12.2125  -18.4878 C   0  0  0  0  0  0  0  0  0  0  0  0
   18.9500  -11.8847  -19.9585 C   0  0  0  0  0  0  0  0  0  0  0  0
   19.0833  -12.8178  -20.7834 O   0  0  0  0  0  0  0  0  0  0  0  0
   20.3905  -10.2803  -15.5747 C   0  0  0  0  0  0  0  0  0  0  0  0
   19.4471   -9.4189  -15.4863 O   0  0  0  0  0  0  0  0  0  0  0  0
   18.7969  -10.6045  -20.4059 O   0  0  0  0  0  0  0  0  0  0  0  0
   21.6760  -10.0435  -15.0566 N   0  0  0  0  0  0  0  0  0  0  0  0
   22.4541  -11.1141  -14.3938 C   0  0  0  0  0  0  0  0  0  0  0  0
   23.7807  -10.9716  -15.0950 C   0  0  0  0  0  0  0  0  0  0  0  0
   23.8106   -9.5739  -15.6636 C   0  0  0  0  0  0  0  0  0  0  0  0
   22.5747   -8.9464  -14.9629 C   0  0  1  0  0  0  0  0  0  0  0  0
   22.2749   -7.7075  -15.6453 C   0  0  0  0  0  0  0  0  0  0  0  0
   22.1612   -7.5373  -16.8734 O   0  0  0  0  0  0  0  0  0  0  0  0
   20.0944   -4.7954  -13.7513 O   0  0  0  0  0  0  0  0  0  0  0  0
   20.3870   -4.7903  -15.0961 C   0  0  0  0  0  0  0  0  0  0  0  0
   21.8249   -5.2413  -15.3576 C   0  0  2  0  0  0  0  0  0  0  0  0
   22.0855   -6.5427  -14.8364 N   0  0  0  0  0  0  0  0  0  0  0  0
   22.6999   -4.2599  -14.6960 C   0  0  0  0  0  0  0  0  0  0  0  0
   22.7325   -2.9525  -15.1106 O   0  0  0  0  0  0  0  0  0  0  0  0
   23.4152   -4.6335  -13.7488 O   0  0  0  0  0  0  0  0  0  0  0  0
  2  1  1  1
  2  7  1  0
  3  2  1  0
  4  3  1  0
  5  4  1  0
  6  5  2  0
  7  8  2  0
  9  5  1  0
 10  7  1  0
 11 10  1  0
 12 11  1  0
 13 12  1  0
 13 14  1  0
 14 15  1  6
 14 10  1  0
 15 16  2  0
 19 18  1  1
 18 17  1  0
 20 19  1  0
 20 15  1  0
 21 22  1  0
 21 19  1  0
 23 21  2  0
M  END
$$$$
