EPS.pdb
     RDKit          3D

 23 23  0  0  1  0  0  0  0  0999 V2000
   18.8023  -12.2355  -16.0854 N   0  0  0  0  0  0  0  0  0  0  0  0
   18.0954  -10.9487  -16.2881 C   0  0  1  0  0  0  0  0  0  0  0  0
   17.0153  -10.8742  -15.2282 C   0  0  0  0  0  0  0  0  0  0  0  0
   15.8987  -11.8555  -15.4008 C   0  0  0  0  0  0  0  0  0  0  0  0
   14.8855  -11.7006  -14.2961 C   0  0  0  0  0  0  0  0  0  0  0  0
   13.8773  -12.4438  -14.2970 O   0  0  0  0  0  0  0  0  0  0  0  0
   19.1047   -9.8627  -16.1418 C   0  0  0  0  0  0  0  0  0  0  0  0
   19.8519   -9.9907  -15.1098 O   0  0  0  0  0  0  0  0  0  0  0  0
   15.0423  -10.7763  -13.3044 O   0  0  0  0  0  0  0  0  0  0  0  0
   19.2419   -8.7906  -17.0412 N   0  0  0  0  0  0  0  0  0  0  0  0
   19.0450   -8.9701  -18.4972 C   0  0  0  0  0  0  0  0  0  0  0  0
   18.1176   -7.8206  -18.7984 C   0  0  0  0  0  0  0  0  0  0  0  0
   18.2931   -6.8297  -17.6737 C   0  0  0  0  0  0  0  0  0  0  0  0
   19.5524   -7.4055  -16.9703 C   0  0  1  0  0  0  0  0  0  0  0  0
   19.6625   -6.7556  -15.6834 C   0  0  0  0  0  0  0  0  0  0  0  0
   18.7740   -6.6537  -14.8172 O   0  0  0  0  0  0  0  0  0  0  0  0
   22.5178   -5.6476  -12.1038 O   0  0  0  0  0  0  0  0  0  0  0  0
   22.2855   -6.2551  -13.3167 C   0  0  0  0  0  0  0  0  0  0  0  0
   21.2039   -5.5220  -14.1117 C   0  0  2  0  0  0  0  0  0  0  0  0
   20.9217   -6.1608  -15.3549 N   0  0  0  0  0  0  0  0  0  0  0  0
   21.7126   -4.1631  -14.3590 C   0  0  0  0  0  0  0  0  0  0  0  0
   21.6724   -3.2061  -13.3769 O   0  0  0  0  0  0  0  0  0  0  0  0
   22.1831   -3.8910  -15.4783 O   0  0  0  0  0  0  0  0  0  0  0  0
  2  1  1  1
  2  7  1  0
  3  2  1  0
  4  3  1  0
  5  4  1  0
  6  5  2  0
  7  8  2  0
  9  5  1  0
 10  7  1  0
 11 10  1  0
 12 11  1  0
 13 12  1  0
 13 14  1  0
 14 15  1  1
 14 10  1  0
 15 16  2  0
 19 18  1  6
 18 17  1  0
 20 19  1  0
 20 15  1  0
 21 22  1  0
 21 19  1  0
 23 21  2  0
M  END
$$$$
