EPS.pdb
     RDKit          3D

 23 23  0  0  1  0  0  0  0  0999 V2000
   28.0041  -22.3280  -17.9042 N   0  0  0  0  0  0  0  0  0  0  0  0
   27.0707  -21.2709  -17.4479 C   0  0  1  0  0  0  0  0  0  0  0  0
   25.7037  -21.6334  -17.9914 C   0  0  0  0  0  0  0  0  0  0  0  0
   24.6021  -20.7041  -17.5885 C   0  0  0  0  0  0  0  0  0  0  0  0
   24.4066  -19.6348  -18.6321 C   0  0  0  0  0  0  0  0  0  0  0  0
   23.2393  -19.2902  -18.9278 O   0  0  0  0  0  0  0  0  0  0  0  0
   27.1023  -21.2671  -15.9584 C   0  0  0  0  0  0  0  0  0  0  0  0
   26.9103  -22.4207  -15.4369 O   0  0  0  0  0  0  0  0  0  0  0  0
   25.4649  -19.0400  -19.2555 O   0  0  0  0  0  0  0  0  0  0  0  0
   27.3223  -20.1171  -15.1797 N   0  0  0  0  0  0  0  0  0  0  0  0
   28.1671  -19.0025  -15.6644 C   0  0  0  0  0  0  0  0  0  0  0  0
   27.2685  -17.8260  -15.3810 C   0  0  0  0  0  0  0  0  0  0  0  0
   26.2888  -18.2858  -14.3291 C   0  0  0  0  0  0  0  0  0  0  0  0
   26.9297  -19.6344  -13.9018 C   0  0  1  0  0  0  0  0  0  0  0  0
   25.9425  -20.3556  -13.1301 C   0  0  0  0  0  0  0  0  0  0  0  0
   24.8486  -20.7921  -13.5339 O   0  0  0  0  0  0  0  0  0  0  0  0
   24.8469  -21.4795   -8.4856 O   0  0  0  0  0  0  0  0  0  0  0  0
   25.7341  -20.9105   -9.3706 C   0  0  0  0  0  0  0  0  0  0  0  0
   25.3110  -21.1522  -10.8204 C   0  0  2  0  0  0  0  0  0  0  0  0
   26.2396  -20.6024  -11.7524 N   0  0  0  0  0  0  0  0  0  0  0  0
   24.0000  -20.5047  -10.9889 C   0  0  0  0  0  0  0  0  0  0  0  0
   22.8384  -21.2267  -10.8816 O   0  0  0  0  0  0  0  0  0  0  0  0
   23.9580  -19.2850  -11.2318 O   0  0  0  0  0  0  0  0  0  0  0  0
  2  1  1  6
  2  7  1  0
  3  2  1  0
  4  3  1  0
  5  4  1  0
  6  5  2  0
  7  8  2  0
  9  5  1  0
 10  7  1  0
 11 10  1  0
 12 11  1  0
 13 12  1  0
 13 14  1  0
 14 15  1  6
 14 10  1  0
 15 16  2  0
 19 18  1  1
 18 17  1  0
 20 19  1  0
 20 15  1  0
 21 22  1  0
 21 19  1  0
 23 21  2  0
M  END
$$$$
