EPS.pdb
     RDKit          3D

 23 23  0  0  1  0  0  0  0  0999 V2000
   20.3735  -21.5537  -14.4094 N   0  0  0  0  0  0  0  0  0  0  0  0
   19.9590  -20.8832  -13.1542 C   0  0  1  0  0  0  0  0  0  0  0  0
   18.5253  -20.4356  -13.3531 C   0  0  0  0  0  0  0  0  0  0  0  0
   18.3362  -19.3850  -14.4019 C   0  0  0  0  0  0  0  0  0  0  0  0
   16.8960  -18.9446  -14.4531 C   0  0  0  0  0  0  0  0  0  0  0  0
   16.0009  -19.7890  -14.2195 O   0  0  0  0  0  0  0  0  0  0  0  0
   20.0909  -21.8815  -12.0562 C   0  0  0  0  0  0  0  0  0  0  0  0
   19.5617  -23.0159  -12.3263 O   0  0  0  0  0  0  0  0  0  0  0  0
   16.5504  -17.6573  -14.7459 O   0  0  0  0  0  0  0  0  0  0  0  0
   20.7330  -21.6236  -10.8322 N   0  0  0  0  0  0  0  0  0  0  0  0
   21.9609  -20.8003  -10.7593 C   0  0  0  0  0  0  0  0  0  0  0  0
   21.5977  -19.8535   -9.6440 C   0  0  0  0  0  0  0  0  0  0  0  0
   20.4941  -20.5238   -8.8627 C   0  0  0  0  0  0  0  0  0  0  0  0
   20.5376  -21.9551   -9.4640 C   0  0  1  0  0  0  0  0  0  0  0  0
   19.3292  -22.6332   -9.0512 C   0  0  0  0  0  0  0  0  0  0  0  0
   18.1572  -22.2806   -9.2794 O   0  0  0  0  0  0  0  0  0  0  0  0
   17.6190  -26.8073   -7.2397 O   0  0  0  0  0  0  0  0  0  0  0  0
   18.6840  -26.0949   -7.7423 C   0  0  0  0  0  0  0  0  0  0  0  0
   18.3902  -24.5942   -7.7703 C   0  0  2  0  0  0  0  0  0  0  0  0
   19.4794  -23.8408   -8.2987 N   0  0  0  0  0  0  0  0  0  0  0  0
   18.1390  -24.1892   -6.3777 C   0  0  0  0  0  0  0  0  0  0  0  0
   16.8737  -24.2307   -5.8491 O   0  0  0  0  0  0  0  0  0  0  0  0
   19.0957  -23.8059   -5.6806 O   0  0  0  0  0  0  0  0  0  0  0  0
  2  1  1  6
  2  7  1  0
  3  2  1  0
  4  3  1  0
  5  4  1  0
  6  5  2  0
  7  8  2  0
  9  5  1  0
 10  7  1  0
 11 10  1  0
 12 11  1  0
 13 12  1  0
 13 14  1  0
 14 15  1  6
 14 10  1  0
 15 16  2  0
 19 18  1  1
 18 17  1  0
 20 19  1  0
 20 15  1  0
 21 22  1  0
 21 19  1  0
 23 21  2  0
M  END
$$$$
