EPS.pdb
     RDKit          3D

 23 23  0  0  1  0  0  0  0  0999 V2000
   24.5966  -19.8872  -15.3387 N   0  0  0  0  0  0  0  0  0  0  0  0
   23.7710  -19.3315  -16.4370 C   0  0  1  0  0  0  0  0  0  0  0  0
   23.3971  -20.4955  -17.3318 C   0  0  0  0  0  0  0  0  0  0  0  0
   22.5840  -20.1272  -18.5329 C   0  0  0  0  0  0  0  0  0  0  0  0
   23.4620  -19.5249  -19.5992 C   0  0  0  0  0  0  0  0  0  0  0  0
   23.4193  -18.2868  -19.7840 O   0  0  0  0  0  0  0  0  0  0  0  0
   22.5777  -18.6939  -15.8131 C   0  0  0  0  0  0  0  0  0  0  0  0
   21.8164  -19.5193  -15.1977 O   0  0  0  0  0  0  0  0  0  0  0  0
   24.2947  -20.2930  -20.3601 O   0  0  0  0  0  0  0  0  0  0  0  0
   22.2963  -17.3179  -15.8804 N   0  0  0  0  0  0  0  0  0  0  0  0
   23.3741  -16.3115  -16.0078 C   0  0  0  0  0  0  0  0  0  0  0  0
   22.8441  -15.4754  -17.1445 C   0  0  0  0  0  0  0  0  0  0  0  0
   21.3571  -15.7278  -17.1975 C   0  0  0  0  0  0  0  0  0  0  0  0
   21.1417  -16.4893  -15.8612 C   0  0  1  0  0  0  0  0  0  0  0  0
   19.8251  -17.0849  -15.9117 C   0  0  0  0  0  0  0  0  0  0  0  0
   19.4105  -17.9167  -16.7401 O   0  0  0  0  0  0  0  0  0  0  0  0
   15.9560  -18.3943  -13.5465 O   0  0  0  0  0  0  0  0  0  0  0  0
   17.2135  -17.8354  -13.5286 C   0  0  0  0  0  0  0  0  0  0  0  0
   17.5356  -17.1397  -14.8521 C   0  0  2  0  0  0  0  0  0  0  0  0
   18.8862  -16.6859  -14.9086 N   0  0  0  0  0  0  0  0  0  0  0  0
   16.6232  -15.9892  -14.9549 C   0  0  0  0  0  0  0  0  0  0  0  0
   15.2792  -16.1719  -15.1606 O   0  0  0  0  0  0  0  0  0  0  0  0
   17.0896  -14.8402  -14.8521 O   0  0  0  0  0  0  0  0  0  0  0  0
  2  1  1  1
  2  7  1  0
  3  2  1  0
  4  3  1  0
  5  4  1  0
  6  5  2  0
  7  8  2  0
  9  5  1  0
 10  7  1  0
 11 10  1  0
 12 11  1  0
 13 12  1  0
 13 14  1  0
 14 15  1  6
 14 10  1  0
 15 16  2  0
 19 18  1  1
 18 17  1  0
 20 19  1  0
 20 15  1  0
 21 22  1  0
 21 19  1  0
 23 21  2  0
M  END
$$$$
