EPS.pdb
     RDKit          3D

 23 23  0  0  1  0  0  0  0  0999 V2000
   19.7015  -12.8471  -16.7825 N   0  0  0  0  0  0  0  0  0  0  0  0
   19.6066  -11.5379  -17.4709 C   0  0  1  0  0  0  0  0  0  0  0  0
   18.1648  -11.0878  -17.3525 C   0  0  0  0  0  0  0  0  0  0  0  0
   17.1791  -11.9414  -18.0867 C   0  0  0  0  0  0  0  0  0  0  0  0
   15.7877  -11.7173  -17.5535 C   0  0  0  0  0  0  0  0  0  0  0  0
   15.4746  -12.2332  -16.4559 O   0  0  0  0  0  0  0  0  0  0  0  0
   20.5459  -10.6084  -16.7829 C   0  0  0  0  0  0  0  0  0  0  0  0
   20.3138  -10.4766  -15.5305 O   0  0  0  0  0  0  0  0  0  0  0  0
   14.8706  -10.9710  -18.2350 O   0  0  0  0  0  0  0  0  0  0  0  0
   21.5954   -9.9311  -17.4285 N   0  0  0  0  0  0  0  0  0  0  0  0
   22.4465  -10.6017  -18.4369 C   0  0  0  0  0  0  0  0  0  0  0  0
   22.4171   -9.5849  -19.5493 C   0  0  0  0  0  0  0  0  0  0  0  0
   22.0331   -8.2719  -18.9120 C   0  0  0  0  0  0  0  0  0  0  0  0
   22.1633   -8.6283  -17.4060 C   0  0  1  0  0  0  0  0  0  0  0  0
   21.5192   -7.5733  -16.6559 C   0  0  0  0  0  0  0  0  0  0  0  0
   20.3319   -7.2090  -16.7438 O   0  0  0  0  0  0  0  0  0  0  0  0
   22.0185   -4.7105  -12.7638 O   0  0  0  0  0  0  0  0  0  0  0  0
   22.4399   -5.7944  -13.4998 C   0  0  0  0  0  0  0  0  0  0  0  0
   21.8396   -5.7831  -14.9065 C   0  0  2  0  0  0  0  0  0  0  0  0
   22.3189   -6.8617  -15.7065 N   0  0  0  0  0  0  0  0  0  0  0  0
   22.2290   -4.5027  -15.5192 C   0  0  0  0  0  0  0  0  0  0  0  0
   21.5057   -3.3607  -15.2854 O   0  0  0  0  0  0  0  0  0  0  0  0
   23.2302   -4.4686  -16.2574 O   0  0  0  0  0  0  0  0  0  0  0  0
  2  1  1  1
  2  7  1  0
  3  2  1  0
  4  3  1  0
  5  4  1  0
  6  5  2  0
  7  8  2  0
  9  5  1  0
 10  7  1  0
 11 10  1  0
 12 11  1  0
 13 12  1  0
 13 14  1  0
 14 15  1  1
 14 10  1  0
 15 16  2  0
 19 18  1  1
 18 17  1  0
 20 19  1  0
 20 15  1  0
 21 22  1  0
 21 19  1  0
 23 21  2  0
M  END
$$$$
