EPS.pdb
     RDKit          3D

 23 23  0  0  1  0  0  0  0  0999 V2000
   14.3513  -20.4308    1.5752 N   0  0  0  0  0  0  0  0  0  0  0  0
   14.8695  -19.1124    2.0112 C   0  0  1  0  0  0  0  0  0  0  0  0
   13.7680  -18.4579    2.8198 C   0  0  0  0  0  0  0  0  0  0  0  0
   12.5521  -18.0808    2.0331 C   0  0  0  0  0  0  0  0  0  0  0  0
   11.5791  -17.3220    2.8981 C   0  0  0  0  0  0  0  0  0  0  0  0
   10.4808  -17.8554    3.1773 O   0  0  0  0  0  0  0  0  0  0  0  0
   16.0917  -19.3654    2.8246 C   0  0  0  0  0  0  0  0  0  0  0  0
   16.0642  -20.4754    3.4625 O   0  0  0  0  0  0  0  0  0  0  0  0
   11.8672  -16.0777    3.3788 O   0  0  0  0  0  0  0  0  0  0  0  0
   17.1841  -18.4831    2.8975 N   0  0  0  0  0  0  0  0  0  0  0  0
   17.7628  -17.8638    1.6840 C   0  0  0  0  0  0  0  0  0  0  0  0
   17.8273  -16.4194    2.1102 C   0  0  0  0  0  0  0  0  0  0  0  0
   17.7971  -16.4218    3.6191 C   0  0  0  0  0  0  0  0  0  0  0  0
   18.0109  -17.9317    3.9136 C   0  0  1  0  0  0  0  0  0  0  0  0
   17.6861  -18.1497    5.3056 C   0  0  0  0  0  0  0  0  0  0  0  0
   16.6466  -17.8015    5.8956 O   0  0  0  0  0  0  0  0  0  0  0  0
   17.5311  -21.3228    7.0765 O   0  0  0  0  0  0  0  0  0  0  0  0
   18.5297  -20.6558    7.7490 C   0  0  0  0  0  0  0  0  0  0  0  0
   18.4739  -19.1504    7.4840 C   0  0  2  0  0  0  0  0  0  0  0  0
   18.6531  -18.8383    6.1043 N   0  0  0  0  0  0  0  0  0  0  0  0
   19.5591  -18.5446    8.2724 C   0  0  0  0  0  0  0  0  0  0  0  0
   19.5008  -18.5113    9.6427 O   0  0  0  0  0  0  0  0  0  0  0  0
   20.5376  -18.0592    7.6762 O   0  0  0  0  0  0  0  0  0  0  0  0
  2  1  1  1
  2  7  1  0
  3  2  1  0
  4  3  1  0
  5  4  1  0
  6  5  2  0
  7  8  2  0
  9  5  1  0
 10  7  1  0
 11 10  1  0
 12 11  1  0
 13 12  1  0
 13 14  1  0
 14 15  1  1
 14 10  1  0
 15 16  2  0
 19 18  1  6
 18 17  1  0
 20 19  1  0
 20 15  1  0
 21 22  1  0
 21 19  1  0
 23 21  2  0
M  END
$$$$
