EPS.pdb
     RDKit          3D

 23 23  0  0  1  0  0  0  0  0999 V2000
   19.8179  -13.7530  -16.3178 N   0  0  0  0  0  0  0  0  0  0  0  0
   20.3735  -12.5975  -17.0614 C   0  0  1  0  0  0  0  0  0  0  0  0
   19.3793  -12.2655  -18.1554 C   0  0  0  0  0  0  0  0  0  0  0  0
   19.1599  -13.3568  -19.1555 C   0  0  0  0  0  0  0  0  0  0  0  0
   17.6866  -13.5631  -19.3958 C   0  0  0  0  0  0  0  0  0  0  0  0
   17.0604  -12.7058  -20.0604 O   0  0  0  0  0  0  0  0  0  0  0  0
   20.5338  -11.4816  -16.0875 C   0  0  0  0  0  0  0  0  0  0  0  0
   19.4494  -10.8408  -15.8567 O   0  0  0  0  0  0  0  0  0  0  0  0
   17.0271  -14.6541  -18.9088 O   0  0  0  0  0  0  0  0  0  0  0  0
   21.7510  -11.1477  -15.4677 N   0  0  0  0  0  0  0  0  0  0  0  0
   22.7030  -12.1882  -15.0183 C   0  0  0  0  0  0  0  0  0  0  0  0
   23.9886  -11.6640  -15.6052 C   0  0  0  0  0  0  0  0  0  0  0  0
   23.7715  -10.1909  -15.8514 C   0  0  0  0  0  0  0  0  0  0  0  0
   22.4366   -9.9609  -15.0917 C   0  0  1  0  0  0  0  0  0  0  0  0
   21.9248   -8.6717  -15.4998 C   0  0  0  0  0  0  0  0  0  0  0  0
   21.6056   -8.3230  -16.6516 O   0  0  0  0  0  0  0  0  0  0  0  0
   19.4057   -4.8945  -14.7489 O   0  0  0  0  0  0  0  0  0  0  0  0
   19.8319   -6.1637  -14.4302 C   0  0  0  0  0  0  0  0  0  0  0  0
   21.3207   -6.3458  -14.7297 C   0  0  2  0  0  0  0  0  0  0  0  0
   21.7617   -7.6791  -14.4824 N   0  0  0  0  0  0  0  0  0  0  0  0
   22.0435   -5.4149  -13.8481 C   0  0  0  0  0  0  0  0  0  0  0  0
   22.1942   -4.0947  -14.1892 O   0  0  0  0  0  0  0  0  0  0  0  0
   22.5199   -5.8434  -12.7814 O   0  0  0  0  0  0  0  0  0  0  0  0
  2  1  1  1
  2  7  1  0
  3  2  1  0
  4  3  1  0
  5  4  1  0
  6  5  2  0
  7  8  2  0
  9  5  1  0
 10  7  1  0
 11 10  1  0
 12 11  1  0
 13 12  1  0
 13 14  1  0
 14 15  1  6
 14 10  1  0
 15 16  2  0
 19 18  1  1
 18 17  1  0
 20 19  1  0
 20 15  1  0
 21 22  1  0
 21 19  1  0
 23 21  2  0
M  END
$$$$
