EPS.pdb
     RDKit          3D

 23 23  0  0  1  0  0  0  0  0999 V2000
   26.9130  -22.1385  -15.1888 N   0  0  0  0  0  0  0  0  0  0  0  0
   26.0426  -21.1194  -14.5559 C   0  0  1  0  0  0  0  0  0  0  0  0
   25.7062  -20.1064  -15.6311 C   0  0  0  0  0  0  0  0  0  0  0  0
   26.6192  -18.9219  -15.6844 C   0  0  0  0  0  0  0  0  0  0  0  0
   26.1937  -17.9773  -16.7786 C   0  0  0  0  0  0  0  0  0  0  0  0
   26.2354  -16.7450  -16.5584 O   0  0  0  0  0  0  0  0  0  0  0  0
   24.8331  -21.8258  -14.0483 C   0  0  0  0  0  0  0  0  0  0  0  0
   24.1879  -22.4578  -14.9560 O   0  0  0  0  0  0  0  0  0  0  0  0
   25.7679  -18.4324  -17.9927 O   0  0  0  0  0  0  0  0  0  0  0  0
   24.4220  -21.8138  -12.7037 N   0  0  0  0  0  0  0  0  0  0  0  0
   25.3942  -21.9401  -11.5947 C   0  0  0  0  0  0  0  0  0  0  0  0
   24.9639  -20.7956  -10.7131 C   0  0  0  0  0  0  0  0  0  0  0  0
   23.5387  -20.4795  -11.0959 C   0  0  0  0  0  0  0  0  0  0  0  0
   23.1978  -21.7026  -11.9903 C   0  0  1  0  0  0  0  0  0  0  0  0
   21.9758  -21.3920  -12.6980 C   0  0  0  0  0  0  0  0  0  0  0  0
   21.7555  -20.3951  -13.4105 O   0  0  0  0  0  0  0  0  0  0  0  0
   17.6771  -23.2871  -14.0212 O   0  0  0  0  0  0  0  0  0  0  0  0
   18.8565  -23.4606  -13.3334 C   0  0  0  0  0  0  0  0  0  0  0  0
   19.6151  -22.1412  -13.1816 C   0  0  2  0  0  0  0  0  0  0  0  0
   20.8939  -22.3205  -12.5768 N   0  0  0  0  0  0  0  0  0  0  0  0
   18.7837  -21.2739  -12.3313 C   0  0  0  0  0  0  0  0  0  0  0  0
   17.6736  -20.6464  -12.8371 O   0  0  0  0  0  0  0  0  0  0  0  0
   19.1027  -21.1158  -11.1390 O   0  0  0  0  0  0  0  0  0  0  0  0
  2  1  1  6
  2  7  1  0
  3  2  1  0
  4  3  1  0
  5  4  1  0
  6  5  2  0
  7  8  2  0
  9  5  1  0
 10  7  1  0
 11 10  1  0
 12 11  1  0
 13 12  1  0
 13 14  1  0
 14 15  1  6
 14 10  1  0
 15 16  2  0
 19 18  1  1
 18 17  1  0
 20 19  1  0
 20 15  1  0
 21 22  1  0
 21 19  1  0
 23 21  2  0
M  END
$$$$
