EPS.pdb
     RDKit          3D

 23 23  0  0  1  0  0  0  0  0999 V2000
   12.9597  -25.5717   -8.2519 N   0  0  0  0  0  0  0  0  0  0  0  0
   14.0671  -24.7529   -7.7042 C   0  0  1  0  0  0  0  0  0  0  0  0
   13.7894  -23.3194   -8.1085 C   0  0  0  0  0  0  0  0  0  0  0  0
   12.3889  -22.8568   -7.8557 C   0  0  0  0  0  0  0  0  0  0  0  0
   12.3910  -21.4785   -7.2464 C   0  0  0  0  0  0  0  0  0  0  0  0
   13.4656  -20.8357   -7.2184 O   0  0  0  0  0  0  0  0  0  0  0  0
   14.0598  -24.9333   -6.2254 C   0  0  0  0  0  0  0  0  0  0  0  0
   12.9700  -24.5585   -5.6670 O   0  0  0  0  0  0  0  0  0  0  0  0
   11.2573  -20.9218   -6.7295 O   0  0  0  0  0  0  0  0  0  0  0  0
   15.1361  -25.4642   -5.4928 N   0  0  0  0  0  0  0  0  0  0  0  0
   16.1446  -26.3444   -6.1245 C   0  0  0  0  0  0  0  0  0  0  0  0
   17.4197  -25.6958   -5.6494 C   0  0  0  0  0  0  0  0  0  0  0  0
   17.0543  -24.8904   -4.4266 C   0  0  0  0  0  0  0  0  0  0  0  0
   15.6146  -25.4064   -4.1557 C   0  0  1  0  0  0  0  0  0  0  0  0
   15.0030  -24.5008   -3.2089 C   0  0  0  0  0  0  0  0  0  0  0  0
   14.7954  -23.2830   -3.3639 O   0  0  0  0  0  0  0  0  0  0  0  0
   14.4310  -26.0431    0.6572 O   0  0  0  0  0  0  0  0  0  0  0  0
   13.4577  -25.1729    0.2217 C   0  0  0  0  0  0  0  0  0  0  0  0
   13.9667  -24.2888   -0.9179 C   0  0  2  0  0  0  0  0  0  0  0  0
   14.5858  -25.0476   -1.9543 N   0  0  0  0  0  0  0  0  0  0  0  0
   14.9493  -23.3660   -0.3270 C   0  0  0  0  0  0  0  0  0  0  0  0
   16.2763  -23.4367   -0.6678 O   0  0  0  0  0  0  0  0  0  0  0  0
   14.5586  -22.5144    0.4919 O   0  0  0  0  0  0  0  0  0  0  0  0
  2  1  1  6
  2  7  1  0
  3  2  1  0
  4  3  1  0
  5  4  1  0
  6  5  2  0
  7  8  2  0
  9  5  1  0
 10  7  1  0
 11 10  1  0
 12 11  1  0
 13 12  1  0
 13 14  1  0
 14 15  1  1
 14 10  1  0
 15 16  2  0
 19 18  1  1
 18 17  1  0
 20 19  1  0
 20 15  1  0
 21 22  1  0
 21 19  1  0
 23 21  2  0
M  END
$$$$
