EPS.pdb
     RDKit          3D

 23 23  0  0  1  0  0  0  0  0999 V2000
   25.6538  -23.4887  -13.3673 N   0  0  0  0  0  0  0  0  0  0  0  0
   26.1899  -22.5372  -14.3693 C   0  0  1  0  0  0  0  0  0  0  0  0
   25.9806  -23.1731  -15.7285 C   0  0  0  0  0  0  0  0  0  0  0  0
   26.9010  -24.3123  -16.0362 C   0  0  0  0  0  0  0  0  0  0  0  0
   26.2023  -25.6289  -15.8148 C   0  0  0  0  0  0  0  0  0  0  0  0
   24.9669  -25.6940  -16.0109 O   0  0  0  0  0  0  0  0  0  0  0  0
   25.4308  -21.2641  -14.2195 C   0  0  0  0  0  0  0  0  0  0  0  0
   24.2647  -21.4172  -13.7129 O   0  0  0  0  0  0  0  0  0  0  0  0
   26.8813  -26.7410  -15.4090 O   0  0  0  0  0  0  0  0  0  0  0  0
   25.9294  -20.0031  -14.5913 N   0  0  0  0  0  0  0  0  0  0  0  0
   27.2665  -19.5395  -14.1576 C   0  0  0  0  0  0  0  0  0  0  0  0
   27.8357  -19.0598  -15.4683 C   0  0  0  0  0  0  0  0  0  0  0  0
   26.6553  -18.8002  -16.3722 C   0  0  0  0  0  0  0  0  0  0  0  0
   25.4836  -18.8917  -15.3570 C   0  0  1  0  0  0  0  0  0  0  0  0
   24.2587  -18.9855  -16.1195 C   0  0  0  0  0  0  0  0  0  0  0  0
   24.0717  -19.6459  -17.1582 O   0  0  0  0  0  0  0  0  0  0  0  0
   20.7816  -18.8157  -14.1491 O   0  0  0  0  0  0  0  0  0  0  0  0
   20.8700  -19.1854  -15.4719 C   0  0  0  0  0  0  0  0  0  0  0  0
   21.8376  -18.2846  -16.2412 C   0  0  2  0  0  0  0  0  0  0  0  0
   23.1309  -18.2458  -15.6419 N   0  0  0  0  0  0  0  0  0  0  0  0
   21.2499  -16.9352  -16.2356 C   0  0  0  0  0  0  0  0  0  0  0  0
   20.0339  -16.6936  -16.8230 O   0  0  0  0  0  0  0  0  0  0  0  0
   21.8744  -16.0091  -15.6872 O   0  0  0  0  0  0  0  0  0  0  0  0
  2  1  1  1
  2  7  1  0
  3  2  1  0
  4  3  1  0
  5  4  1  0
  6  5  2  0
  7  8  2  0
  9  5  1  0
 10  7  1  0
 11 10  1  0
 12 11  1  0
 13 12  1  0
 13 14  1  0
 14 15  1  6
 14 10  1  0
 15 16  2  0
 19 18  1  1
 18 17  1  0
 20 19  1  0
 20 15  1  0
 21 22  1  0
 21 19  1  0
 23 21  2  0
M  END
$$$$
