WFS.pdb
     RDKit          3D

 32 34  0  0  1  0  0  0  0  0999 V2000
   29.8880  -29.2597    8.6018 N   0  0  0  0  0  0  0  0  0  0  0  0
   28.9162  -29.7931    7.6843 C   0  0  1  0  0  0  0  0  0  0  0  0
   28.4596  -28.7517    6.6857 C   0  0  0  0  0  0  0  0  0  0  0  0
   27.6114  -27.7437    7.3642 C   0  0  0  0  0  0  0  0  0  0  0  0
   28.0731  -26.5327    7.9030 C   0  0  0  0  0  0  0  0  0  0  0  0
   26.9992  -25.9083    8.3908 N   0  0  0  0  0  0  0  0  0  0  0  0
   25.8706  -26.6175    8.2135 C   0  0  0  0  0  0  0  0  0  0  0  0
   24.5335  -26.3783    8.5565 C   0  0  0  0  0  0  0  0  0  0  0  0
   23.5440  -27.2874    8.2661 C   0  0  0  0  0  0  0  0  0  0  0  0
   23.9012  -28.4578    7.6206 C   0  0  0  0  0  0  0  0  0  0  0  0
   25.2430  -28.6778    7.2861 C   0  0  0  0  0  0  0  0  0  0  0  0
   26.2414  -27.7784    7.5684 C   0  0  0  0  0  0  0  0  0  0  0  0
   29.4311  -30.9992    6.9830 C   0  0  0  0  0  0  0  0  0  0  0  0
   30.6331  -30.9736    6.5417 O   0  0  0  0  0  0  0  0  0  0  0  0
   28.6914  -32.1848    6.7661 N   0  0  0  0  0  0  0  0  0  0  0  0
   29.2584  -33.3249    6.0473 C   0  0  1  0  0  0  0  0  0  0  0  0
   29.2557  -34.5458    6.9439 C   0  0  0  0  0  0  0  0  0  0  0  0
   30.2841  -34.5692    7.9713 C   0  0  0  0  0  0  0  0  0  0  0  0
   30.0031  -34.3933    9.3093 C   0  0  0  0  0  0  0  0  0  0  0  0
   30.9614  -34.4223   10.2889 C   0  0  0  0  0  0  0  0  0  0  0  0
   32.2708  -34.6341    9.9563 C   0  0  0  0  0  0  0  0  0  0  0  0
   32.5993  -34.8154    8.6286 C   0  0  0  0  0  0  0  0  0  0  0  0
   31.6030  -34.7804    7.6550 C   0  0  0  0  0  0  0  0  0  0  0  0
   28.6075  -33.5265    4.7692 C   0  0  0  0  0  0  0  0  0  0  0  0
   27.3791  -33.3335    4.5448 O   0  0  0  0  0  0  0  0  0  0  0  0
   30.6747  -35.2562    1.7071 O   0  0  0  0  0  0  0  0  0  0  0  0
   29.6849  -34.3745    1.2292 C   0  0  0  0  0  0  0  0  0  0  0  0
   28.7098  -34.1807    2.3576 C   0  0  2  0  0  0  0  0  0  0  0  0
   29.3592  -33.9763    3.6380 N   0  0  0  0  0  0  0  0  0  0  0  0
   27.8368  -35.3963    2.4031 C   0  0  0  0  0  0  0  0  0  0  0  0
   27.8333  -36.0690    3.4681 O   0  0  0  0  0  0  0  0  0  0  0  0
   27.0620  -35.7654    1.3111 O   0  0  0  0  0  0  0  0  0  0  0  0
  2  1  1  6
  3  4  1  0
  3  2  1  0
  4  5  2  0
  5  6  1  0
  7  6  1  0
  8  7  2  0
  9  8  1  0
 10 11  1  0
 10  9  2  0
 11 12  2  0
 12  4  1  0
 12  7  1  0
 13  2  1  0
 13 14  2  0
 15 13  1  0
 16 15  1  0
 16 17  1  1
 18 23  1  0
 18 17  1  0
 19 18  2  0
 20 21  2  0
 20 19  1  0
 21 22  1  0
 22 23  2  0
 24 16  1  0
 25 24  2  0
 27 26  1  0
 28 27  1  6
 28 29  1  0
 29 24  1  0
 30 28  1  0
 31 30  2  0
 32 30  1  0
M  END
$$$$
