WFS.pdb
     RDKit          3D

 32 34  0  0  1  0  0  0  0  0999 V2000
   27.8825  -21.5414  -16.0463 N   0  0  0  0  0  0  0  0  0  0  0  0
   26.7714  -20.7521  -15.5847 C   0  0  1  0  0  0  0  0  0  0  0  0
   25.6401  -20.7378  -16.5897 C   0  0  0  0  0  0  0  0  0  0  0  0
   26.0036  -19.8804  -17.7424 C   0  0  0  0  0  0  0  0  0  0  0  0
   26.3482  -20.3501  -19.0194 C   0  0  0  0  0  0  0  0  0  0  0  0
   26.5735  -19.2673  -19.7664 N   0  0  0  0  0  0  0  0  0  0  0  0
   26.4037  -18.1256  -19.0767 C   0  0  0  0  0  0  0  0  0  0  0  0
   26.5313  -16.7751  -19.4269 C   0  0  0  0  0  0  0  0  0  0  0  0
   26.3067  -15.7721  -18.5140 C   0  0  0  0  0  0  0  0  0  0  0  0
   25.9483  -16.1291  -17.2263 C   0  0  0  0  0  0  0  0  0  0  0  0
   25.8257  -17.4845  -16.8963 C   0  0  0  0  0  0  0  0  0  0  0  0
   26.0453  -18.4966  -17.7979 C   0  0  0  0  0  0  0  0  0  0  0  0
   26.2858  -21.2155  -14.2576 C   0  0  0  0  0  0  0  0  0  0  0  0
   26.2489  -22.4761  -14.0351 O   0  0  0  0  0  0  0  0  0  0  0  0
   25.8607  -20.3648  -13.2110 N   0  0  0  0  0  0  0  0  0  0  0  0
   25.4583  -20.8906  -11.9074 C   0  0  1  0  0  0  0  0  0  0  0  0
   26.3074  -20.2646  -10.8205 C   0  0  0  0  0  0  0  0  0  0  0  0
   27.7194  -20.6095  -10.8538 C   0  0  0  0  0  0  0  0  0  0  0  0
   28.5377  -20.2931  -11.9170 C   0  0  0  0  0  0  0  0  0  0  0  0
   29.8720  -20.6039  -11.9574 C   0  0  0  0  0  0  0  0  0  0  0  0
   30.4517  -21.2602  -10.9070 C   0  0  0  0  0  0  0  0  0  0  0  0
   29.6712  -21.5973   -9.8204 C   0  0  0  0  0  0  0  0  0  0  0  0
   28.3172  -21.2681   -9.8083 C   0  0  0  0  0  0  0  0  0  0  0  0
   24.0316  -20.7570  -11.6959 C   0  0  0  0  0  0  0  0  0  0  0  0
   23.4932  -19.9549  -10.8813 O   0  0  0  0  0  0  0  0  0  0  0  0
   20.9221  -18.9455  -12.4723 O   0  0  0  0  0  0  0  0  0  0  0  0
   21.6747  -19.7754  -13.3270 C   0  0  0  0  0  0  0  0  0  0  0  0
   21.7502  -21.1184  -12.6545 C   0  0  2  0  0  0  0  0  0  0  0  0
   23.1121  -21.5659  -12.4356 N   0  0  0  0  0  0  0  0  0  0  0  0
   21.0143  -22.0912  -13.5228 C   0  0  0  0  0  0  0  0  0  0  0  0
   19.7597  -21.9905  -13.5735 O   0  0  0  0  0  0  0  0  0  0  0  0
   21.6920  -23.0663  -14.2433 O   0  0  0  0  0  0  0  0  0  0  0  0
  2  1  1  6
  3  4  1  0
  3  2  1  0
  4  5  2  0
  5  6  1  0
  7  6  1  0
  8  7  2  0
  9  8  1  0
 10 11  1  0
 10  9  2  0
 11 12  2  0
 12  4  1  0
 12  7  1  0
 13  2  1  0
 13 14  2  0
 15 13  1  0
 16 15  1  0
 16 17  1  1
 18 23  1  0
 18 17  1  0
 19 18  2  0
 20 21  2  0
 20 19  1  0
 21 22  1  0
 22 23  2  0
 24 16  1  0
 25 24  2  0
 27 26  1  0
 28 27  1  6
 28 29  1  0
 29 24  1  0
 30 28  1  0
 31 30  2  0
 32 30  1  0
M  END
$$$$
