WFS.pdb
     RDKit          3D

 32 34  0  0  1  0  0  0  0  0999 V2000
   27.0881  -20.6427  -18.1184 N   0  0  0  0  0  0  0  0  0  0  0  0
   26.7951  -19.7483  -17.0299 C   0  0  1  0  0  0  0  0  0  0  0  0
   25.8287  -18.6602  -17.4450 C   0  0  0  0  0  0  0  0  0  0  0  0
   26.5706  -17.4059  -17.7139 C   0  0  0  0  0  0  0  0  0  0  0  0
   26.9685  -16.9611  -18.9842 C   0  0  0  0  0  0  0  0  0  0  0  0
   27.5764  -15.7881  -18.7949 N   0  0  0  0  0  0  0  0  0  0  0  0
   27.6077  -15.4315  -17.4988 C   0  0  0  0  0  0  0  0  0  0  0  0
   28.1325  -14.3170  -16.8316 C   0  0  0  0  0  0  0  0  0  0  0  0
   28.0422  -14.1894  -15.4658 C   0  0  0  0  0  0  0  0  0  0  0  0
   27.4148  -15.1974  -14.7556 C   0  0  0  0  0  0  0  0  0  0  0  0
   26.8965  -16.3030  -15.4411 C   0  0  0  0  0  0  0  0  0  0  0  0
   26.9781  -16.4430  -16.8046 C   0  0  0  0  0  0  0  0  0  0  0  0
   26.2782  -20.4817  -15.8439 C   0  0  0  0  0  0  0  0  0  0  0  0
   25.5698  -21.5298  -16.0441 O   0  0  0  0  0  0  0  0  0  0  0  0
   26.5127  -20.1109  -14.4996 N   0  0  0  0  0  0  0  0  0  0  0  0
   25.7460  -20.6891  -13.3969 C   0  0  1  0  0  0  0  0  0  0  0  0
   26.3286  -20.2318  -12.0755 C   0  0  0  0  0  0  0  0  0  0  0  0
   25.6025  -20.6595  -10.8908 C   0  0  0  0  0  0  0  0  0  0  0  0
   24.4699  -20.0162  -10.4396 C   0  0  0  0  0  0  0  0  0  0  0  0
   23.7707  -20.4144   -9.3300 C   0  0  0  0  0  0  0  0  0  0  0  0
   24.1907  -21.5000   -8.6122 C   0  0  0  0  0  0  0  0  0  0  0  0
   25.3201  -22.1755   -9.0266 C   0  0  0  0  0  0  0  0  0  0  0  0
   26.0101  -21.7468  -10.1587 C   0  0  0  0  0  0  0  0  0  0  0  0
   24.3280  -20.4313  -13.5405 C   0  0  0  0  0  0  0  0  0  0  0  0
   23.8043  -19.2830  -13.6016 O   0  0  0  0  0  0  0  0  0  0  0  0
   21.7346  -23.5379  -14.2178 O   0  0  0  0  0  0  0  0  0  0  0  0
   21.2882  -22.2712  -14.6437 C   0  0  0  0  0  0  0  0  0  0  0  0
   21.9803  -21.2622  -13.7692 C   0  0  2  0  0  0  0  0  0  0  0  0
   23.4006  -21.5174  -13.6257 N   0  0  0  0  0  0  0  0  0  0  0  0
   21.3060  -21.2968  -12.4328 C   0  0  0  0  0  0  0  0  0  0  0  0
   21.9983  -21.6519  -11.4422 O   0  0  0  0  0  0  0  0  0  0  0  0
   19.9683  -20.9500  -12.2942 O   0  0  0  0  0  0  0  0  0  0  0  0
  2  1  1  6
  3  4  1  0
  3  2  1  0
  4  5  2  0
  5  6  1  0
  7  6  1  0
  8  7  2  0
  9  8  1  0
 10 11  1  0
 10  9  2  0
 11 12  2  0
 12  4  1  0
 12  7  1  0
 13  2  1  0
 13 14  2  0
 15 13  1  0
 16 15  1  0
 16 17  1  1
 18 23  1  0
 18 17  1  0
 19 18  2  0
 20 21  2  0
 20 19  1  0
 21 22  1  0
 22 23  2  0
 24 16  1  0
 25 24  2  0
 27 26  1  0
 28 27  1  6
 28 29  1  0
 29 24  1  0
 30 28  1  0
 31 30  2  0
 32 30  1  0
M  END
$$$$
