WFS.pdb
     RDKit          3D

 32 34  0  0  1  0  0  0  0  0999 V2000
   28.2543  -20.0908  -15.9156 N   0  0  0  0  0  0  0  0  0  0  0  0
   27.1598  -19.3949  -15.2924 C   0  0  1  0  0  0  0  0  0  0  0  0
   26.1865  -18.8525  -16.3164 C   0  0  0  0  0  0  0  0  0  0  0  0
   26.7901  -17.6959  -17.0192 C   0  0  0  0  0  0  0  0  0  0  0  0
   27.1818  -17.6864  -18.3670 C   0  0  0  0  0  0  0  0  0  0  0  0
   27.6446  -16.4588  -18.6119 N   0  0  0  0  0  0  0  0  0  0  0  0
   27.5866  -15.6646  -17.5284 C   0  0  0  0  0  0  0  0  0  0  0  0
   27.9558  -14.3317  -17.3056 C   0  0  0  0  0  0  0  0  0  0  0  0
   27.8006  -13.7397  -16.0746 C   0  0  0  0  0  0  0  0  0  0  0  0
   27.2661  -14.4976  -15.0480 C   0  0  0  0  0  0  0  0  0  0  0  0
   26.9032  -15.8280  -15.2912 C   0  0  0  0  0  0  0  0  0  0  0  0
   27.0510  -16.4318  -16.5155 C   0  0  0  0  0  0  0  0  0  0  0  0
   26.4548  -20.2566  -14.3064 C   0  0  0  0  0  0  0  0  0  0  0  0
   26.3588  -21.5085  -14.5591 O   0  0  0  0  0  0  0  0  0  0  0  0
   25.8796  -19.7982  -13.0987 N   0  0  0  0  0  0  0  0  0  0  0  0
   25.1786  -20.7024  -12.1882 C   0  0  1  0  0  0  0  0  0  0  0  0
   25.7077  -20.5205  -10.7807 C   0  0  0  0  0  0  0  0  0  0  0  0
   27.0628  -20.9969  -10.5558 C   0  0  0  0  0  0  0  0  0  0  0  0
   28.1027  -20.1541  -10.2264 C   0  0  0  0  0  0  0  0  0  0  0  0
   29.3825  -20.5908  -10.0027 C   0  0  0  0  0  0  0  0  0  0  0  0
   29.6761  -21.9227  -10.1030 C   0  0  0  0  0  0  0  0  0  0  0  0
   28.6664  -22.8041  -10.4306 C   0  0  0  0  0  0  0  0  0  0  0  0
   27.3750  -22.3301  -10.6525 C   0  0  0  0  0  0  0  0  0  0  0  0
   23.7412  -20.5662  -12.3035 C   0  0  0  0  0  0  0  0  0  0  0  0
   23.0778  -19.5587  -11.9273 O   0  0  0  0  0  0  0  0  0  0  0  0
   21.4581  -23.6863  -13.7132 O   0  0  0  0  0  0  0  0  0  0  0  0
   20.9762  -22.4198  -14.0995 C   0  0  0  0  0  0  0  0  0  0  0  0
   21.5400  -21.4336  -13.1139 C   0  0  2  0  0  0  0  0  0  0  0  0
   22.9591  -21.6173  -12.8783 N   0  0  0  0  0  0  0  0  0  0  0  0
   20.7738  -21.5945  -11.8378 C   0  0  0  0  0  0  0  0  0  0  0  0
   21.4331  -21.8268  -10.7899 O   0  0  0  0  0  0  0  0  0  0  0  0
   19.3889  -21.4911  -11.8136 O   0  0  0  0  0  0  0  0  0  0  0  0
  2  1  1  6
  3  4  1  0
  3  2  1  0
  4  5  2  0
  5  6  1  0
  7  6  1  0
  8  7  2  0
  9  8  1  0
 10 11  1  0
 10  9  2  0
 11 12  2  0
 12  4  1  0
 12  7  1  0
 13  2  1  0
 13 14  2  0
 15 13  1  0
 16 15  1  0
 16 17  1  1
 18 23  1  0
 18 17  1  0
 19 18  2  0
 20 21  2  0
 20 19  1  0
 21 22  1  0
 22 23  2  0
 24 16  1  0
 25 24  2  0
 27 26  1  0
 28 27  1  6
 28 29  1  0
 29 24  1  0
 30 28  1  0
 31 30  2  0
 32 30  1  0
M  END
$$$$
