WFS.pdb
     RDKit          3D

 32 34  0  0  1  0  0  0  0  0999 V2000
   26.4735  -22.0648  -12.8225 N   0  0  0  0  0  0  0  0  0  0  0  0
   26.5678  -20.8341  -12.0828 C   0  0  1  0  0  0  0  0  0  0  0  0
   25.3967  -19.9192  -12.3682 C   0  0  0  0  0  0  0  0  0  0  0  0
   25.4681  -19.4339  -13.7665 C   0  0  0  0  0  0  0  0  0  0  0  0
   24.3765  -19.3392  -14.6437 C   0  0  0  0  0  0  0  0  0  0  0  0
   24.8560  -18.8336  -15.7820 N   0  0  0  0  0  0  0  0  0  0  0  0
   26.1770  -18.5909  -15.7177 C   0  0  0  0  0  0  0  0  0  0  0  0
   27.0962  -18.0805  -16.6435 C   0  0  0  0  0  0  0  0  0  0  0  0
   28.4266  -17.9354  -16.3292 C   0  0  0  0  0  0  0  0  0  0  0  0
   28.8435  -18.3092  -15.0641 C   0  0  0  0  0  0  0  0  0  0  0  0
   27.9090  -18.8169  -14.1531 C   0  0  0  0  0  0  0  0  0  0  0  0
   26.5773  -18.9659  -14.4526 C   0  0  0  0  0  0  0  0  0  0  0  0
   26.6929  -21.0827  -10.6219 C   0  0  0  0  0  0  0  0  0  0  0  0
   26.1246  -22.1224  -10.1359 O   0  0  0  0  0  0  0  0  0  0  0  0
   27.3999  -20.2549   -9.7193 N   0  0  0  0  0  0  0  0  0  0  0  0
   27.3925  -20.5048   -8.2786 C   0  0  1  0  0  0  0  0  0  0  0  0
   28.4867  -19.6947   -7.6147 C   0  0  0  0  0  0  0  0  0  0  0  0
   28.4997  -19.7347   -6.1614 C   0  0  0  0  0  0  0  0  0  0  0  0
   28.0408  -18.6928   -5.3843 C   0  0  0  0  0  0  0  0  0  0  0  0
   28.0387  -18.7210   -4.0139 C   0  0  0  0  0  0  0  0  0  0  0  0
   28.5084  -19.8225   -3.3536 C   0  0  0  0  0  0  0  0  0  0  0  0
   28.9781  -20.8903   -4.0904 C   0  0  0  0  0  0  0  0  0  0  0  0
   28.9677  -20.8322   -5.4826 C   0  0  0  0  0  0  0  0  0  0  0  0
   26.0762  -20.3022   -7.7092 C   0  0  0  0  0  0  0  0  0  0  0  0
   25.2998  -19.3496   -8.0032 O   0  0  0  0  0  0  0  0  0  0  0  0
   22.8915  -21.8056   -7.7937 O   0  0  0  0  0  0  0  0  0  0  0  0
   23.2517  -22.0234   -6.4490 C   0  0  0  0  0  0  0  0  0  0  0  0
   24.2754  -20.9752   -6.1097 C   0  0  2  0  0  0  0  0  0  0  0  0
   25.5608  -21.2159   -6.7363 N   0  0  0  0  0  0  0  0  0  0  0  0
   24.4160  -20.9587   -4.6192 C   0  0  0  0  0  0  0  0  0  0  0  0
   23.3911  -20.6793   -3.9423 O   0  0  0  0  0  0  0  0  0  0  0  0
   25.6316  -21.2408   -4.0093 O   0  0  0  0  0  0  0  0  0  0  0  0
  2  1  1  6
  3  4  1  0
  3  2  1  0
  4  5  2  0
  5  6  1  0
  7  6  1  0
  8  7  2  0
  9  8  1  0
 10 11  1  0
 10  9  2  0
 11 12  2  0
 12  4  1  0
 12  7  1  0
 13  2  1  0
 13 14  2  0
 15 13  1  0
 16 15  1  0
 16 17  1  1
 18 23  1  0
 18 17  1  0
 19 18  2  0
 20 21  2  0
 20 19  1  0
 21 22  1  0
 22 23  2  0
 24 16  1  0
 25 24  2  0
 27 26  1  0
 28 27  1  1
 28 29  1  0
 29 24  1  0
 30 28  1  0
 31 30  2  0
 32 30  1  0
M  END
$$$$
