WFS.pdb
     RDKit          3D

 32 34  0  0  1  0  0  0  0  0999 V2000
   28.7182  -20.1517  -14.1214 N   0  0  0  0  0  0  0  0  0  0  0  0
   27.5560  -19.5838  -13.4909 C   0  0  1  0  0  0  0  0  0  0  0  0
   26.5099  -19.1801  -14.5071 C   0  0  0  0  0  0  0  0  0  0  0  0
   26.8108  -17.8250  -15.0259 C   0  0  0  0  0  0  0  0  0  0  0  0
   26.7581  -16.6427  -14.2713 C   0  0  0  0  0  0  0  0  0  0  0  0
   27.1250  -15.6584  -15.0945 N   0  0  0  0  0  0  0  0  0  0  0  0
   27.4130  -16.1052  -16.3297 C   0  0  0  0  0  0  0  0  0  0  0  0
   27.8255  -15.4592  -17.5023 C   0  0  0  0  0  0  0  0  0  0  0  0
   28.0495  -16.1566  -18.6657 C   0  0  0  0  0  0  0  0  0  0  0  0
   27.8561  -17.5265  -18.6536 C   0  0  0  0  0  0  0  0  0  0  0  0
   27.4440  -18.1533  -17.4712 C   0  0  0  0  0  0  0  0  0  0  0  0
   27.2180  -17.4700  -16.3019 C   0  0  0  0  0  0  0  0  0  0  0  0
   26.9748  -20.5087  -12.4817 C   0  0  0  0  0  0  0  0  0  0  0  0
   26.9382  -21.7585  -12.7590 O   0  0  0  0  0  0  0  0  0  0  0  0
   26.4575  -20.1128  -11.2265 N   0  0  0  0  0  0  0  0  0  0  0  0
   25.3142  -20.7905  -10.6170 C   0  0  1  0  0  0  0  0  0  0  0  0
   25.2255  -20.4224   -9.1504 C   0  0  0  0  0  0  0  0  0  0  0  0
   26.4919  -20.3864   -8.4372 C   0  0  0  0  0  0  0  0  0  0  0  0
   27.5055  -21.2898   -8.6748 C   0  0  0  0  0  0  0  0  0  0  0  0
   28.7074  -21.2616   -8.0165 C   0  0  0  0  0  0  0  0  0  0  0  0
   28.9451  -20.3025   -7.0712 C   0  0  0  0  0  0  0  0  0  0  0  0
   27.9590  -19.3765   -6.7998 C   0  0  0  0  0  0  0  0  0  0  0  0
   26.7470  -19.4307   -7.4854 C   0  0  0  0  0  0  0  0  0  0  0  0
   24.0950  -20.5542  -11.3623 C   0  0  0  0  0  0  0  0  0  0  0  0
   24.0070  -19.8308  -12.3946 O   0  0  0  0  0  0  0  0  0  0  0  0
   22.7093  -21.6550  -14.0689 O   0  0  0  0  0  0  0  0  0  0  0  0
   22.2756  -22.4289  -12.9742 C   0  0  0  0  0  0  0  0  0  0  0  0
   21.8294  -21.4557  -11.9180 C   0  0  2  0  0  0  0  0  0  0  0  0
   22.8659  -21.1583  -10.9483 N   0  0  0  0  0  0  0  0  0  0  0  0
   20.6360  -22.0536  -11.2396 C   0  0  0  0  0  0  0  0  0  0  0  0
   19.6317  -22.3137  -11.9541 O   0  0  0  0  0  0  0  0  0  0  0  0
   20.6394  -22.3103   -9.8746 O   0  0  0  0  0  0  0  0  0  0  0  0
  2  1  1  6
  3  4  1  0
  3  2  1  0
  4  5  2  0
  5  6  1  0
  7  6  1  0
  8  7  2  0
  9  8  1  0
 10 11  1  0
 10  9  2  0
 11 12  2  0
 12  4  1  0
 12  7  1  0
 13  2  1  0
 13 14  2  0
 15 13  1  0
 16 15  1  0
 16 17  1  1
 18 23  1  0
 18 17  1  0
 19 18  2  0
 20 21  2  0
 20 19  1  0
 21 22  1  0
 22 23  2  0
 24 16  1  0
 25 24  2  0
 27 26  1  0
 28 27  1  6
 28 29  1  0
 29 24  1  0
 30 28  1  0
 31 30  2  0
 32 30  1  0
M  END
$$$$
