WFS.pdb
     RDKit          3D

 32 34  0  0  1  0  0  0  0  0999 V2000
   28.0321  -21.1158  -16.7766 N   0  0  0  0  0  0  0  0  0  0  0  0
   26.8300  -20.4275  -16.3868 C   0  0  1  0  0  0  0  0  0  0  0  0
   25.7869  -20.4599  -17.4827 C   0  0  0  0  0  0  0  0  0  0  0  0
   25.9234  -19.2598  -18.3411 C   0  0  0  0  0  0  0  0  0  0  0  0
   27.1133  -18.8388  -18.9551 C   0  0  0  0  0  0  0  0  0  0  0  0
   26.8045  -17.7459  -19.6561 N   0  0  0  0  0  0  0  0  0  0  0  0
   25.5048  -17.4189  -19.5477 C   0  0  0  0  0  0  0  0  0  0  0  0
   24.7388  -16.3757  -20.0842 C   0  0  0  0  0  0  0  0  0  0  0  0
   23.3978  -16.2535  -19.8070 C   0  0  0  0  0  0  0  0  0  0  0  0
   22.8140  -17.1935  -18.9766 C   0  0  0  0  0  0  0  0  0  0  0  0
   23.5969  -18.2286  -18.4508 C   0  0  0  0  0  0  0  0  0  0  0  0
   24.9364  -18.3641  -18.7202 C   0  0  0  0  0  0  0  0  0  0  0  0
   26.2742  -20.9731  -15.1199 C   0  0  0  0  0  0  0  0  0  0  0  0
   26.3038  -22.2415  -14.9448 O   0  0  0  0  0  0  0  0  0  0  0  0
   25.7133  -20.1934  -14.0820 N   0  0  0  0  0  0  0  0  0  0  0  0
   25.1077  -20.8060  -12.9006 C   0  0  1  0  0  0  0  0  0  0  0  0
   25.7606  -20.2562  -11.6493 C   0  0  0  0  0  0  0  0  0  0  0  0
   27.1714  -20.5701  -11.4908 C   0  0  0  0  0  0  0  0  0  0  0  0
   27.6316  -21.4791  -10.5624 C   0  0  0  0  0  0  0  0  0  0  0  0
   28.9573  -21.7911  -10.4088 C   0  0  0  0  0  0  0  0  0  0  0  0
   29.8960  -21.1888  -11.2000 C   0  0  0  0  0  0  0  0  0  0  0  0
   29.4817  -20.2717  -12.1438 C   0  0  0  0  0  0  0  0  0  0  0  0
   28.1267  -19.9748  -12.2764 C   0  0  0  0  0  0  0  0  0  0  0  0
   23.6644  -20.6855  -12.9180 C   0  0  0  0  0  0  0  0  0  0  0  0
   23.0290  -19.5949  -12.8572 O   0  0  0  0  0  0  0  0  0  0  0  0
   21.4906  -24.0632  -13.1170 O   0  0  0  0  0  0  0  0  0  0  0  0
   20.7223  -22.9735  -13.5727 C   0  0  0  0  0  0  0  0  0  0  0  0
   21.3978  -21.7334  -13.0555 C   0  0  2  0  0  0  0  0  0  0  0  0
   22.8424  -21.8528  -13.0103 N   0  0  0  0  0  0  0  0  0  0  0  0
   20.8527  -21.4695  -11.6862 C   0  0  0  0  0  0  0  0  0  0  0  0
   21.6764  -21.4094  -10.7351 O   0  0  0  0  0  0  0  0  0  0  0  0
   19.4905  -21.2983  -11.4762 O   0  0  0  0  0  0  0  0  0  0  0  0
  2  1  1  6
  3  4  1  0
  3  2  1  0
  4  5  2  0
  5  6  1  0
  7  6  1  0
  8  7  2  0
  9  8  1  0
 10 11  1  0
 10  9  2  0
 11 12  2  0
 12  4  1  0
 12  7  1  0
 13  2  1  0
 13 14  2  0
 15 13  1  0
 16 15  1  0
 16 17  1  1
 18 23  1  0
 18 17  1  0
 19 18  2  0
 20 21  2  0
 20 19  1  0
 21 22  1  0
 22 23  2  0
 24 16  1  0
 25 24  2  0
 27 26  1  0
 28 27  1  1
 28 29  1  0
 29 24  1  0
 30 28  1  0
 31 30  2  0
 32 30  1  0
M  END
$$$$
