WFS.pdb
     RDKit          3D

 32 34  0  0  1  0  0  0  0  0999 V2000
   16.5895   -3.7238  -14.9394 N   0  0  0  0  0  0  0  0  0  0  0  0
   17.0650   -2.4349  -15.3674 C   0  0  1  0  0  0  0  0  0  0  0  0
   16.0181   -1.3597  -15.1724 C   0  0  0  0  0  0  0  0  0  0  0  0
   14.9591   -1.4982  -16.1997 C   0  0  0  0  0  0  0  0  0  0  0  0
   13.8382   -2.3363  -16.0942 C   0  0  0  0  0  0  0  0  0  0  0  0
   13.1244   -2.1456  -17.2056 N   0  0  0  0  0  0  0  0  0  0  0  0
   13.6919   -1.2481  -18.0304 C   0  0  0  0  0  0  0  0  0  0  0  0
   13.3229   -0.7418  -19.2835 C   0  0  0  0  0  0  0  0  0  0  0  0
   14.0983    0.1838  -19.9407 C   0  0  0  0  0  0  0  0  0  0  0  0
   15.2651    0.6094  -19.3312 C   0  0  0  0  0  0  0  0  0  0  0  0
   15.6160    0.0915  -18.0784 C   0  0  0  0  0  0  0  0  0  0  0  0
   14.8508   -0.8319  -17.4098 C   0  0  0  0  0  0  0  0  0  0  0  0
   18.3303   -2.0631  -14.6799 C   0  0  0  0  0  0  0  0  0  0  0  0
   18.3512   -2.0884  -13.3996 O   0  0  0  0  0  0  0  0  0  0  0  0
   19.5244   -1.6836  -15.3354 N   0  0  0  0  0  0  0  0  0  0  0  0
   20.7332   -1.3337  -14.5909 C   0  0  1  0  0  0  0  0  0  0  0  0
   21.8803   -2.2169  -15.0363 C   0  0  0  0  0  0  0  0  0  0  0  0
   21.7032   -3.6399  -14.7966 C   0  0  0  0  0  0  0  0  0  0  0  0
   22.0915   -4.2507  -13.6234 C   0  0  0  0  0  0  0  0  0  0  0  0
   21.9220   -5.5890  -13.3807 C   0  0  0  0  0  0  0  0  0  0  0  0
   21.3422   -6.3862  -14.3285 C   0  0  0  0  0  0  0  0  0  0  0  0
   20.9376   -5.8182  -15.5190 C   0  0  0  0  0  0  0  0  0  0  0  0
   21.1233   -4.4545  -15.7370 C   0  0  0  0  0  0  0  0  0  0  0  0
   21.0138    0.0853  -14.6660 C   0  0  0  0  0  0  0  0  0  0  0  0
   21.2407    0.7220  -15.7336 O   0  0  0  0  0  0  0  0  0  0  0  0
   20.7830    2.3351  -11.2772 O   0  0  0  0  0  0  0  0  0  0  0  0
   20.6127    3.0803  -12.4608 C   0  0  0  0  0  0  0  0  0  0  0  0
   21.2998    2.3057  -13.5515 C   0  0  2  0  0  0  0  0  0  0  0  0
   21.0496    0.8793  -13.4764 N   0  0  0  0  0  0  0  0  0  0  0  0
   22.7663    2.5852  -13.4377 C   0  0  0  0  0  0  0  0  0  0  0  0
   23.5368    1.5979  -13.3023 O   0  0  0  0  0  0  0  0  0  0  0  0
   23.2553    3.8845  -13.4800 O   0  0  0  0  0  0  0  0  0  0  0  0
  2  1  1  1
  3  4  1  0
  3  2  1  0
  4  5  2  0
  5  6  1  0
  7  6  1  0
  8  7  2  0
  9  8  1  0
 10 11  1  0
 10  9  2  0
 11 12  2  0
 12  4  1  0
 12  7  1  0
 13  2  1  0
 13 14  2  0
 15 13  1  0
 16 15  1  0
 16 17  1  6
 18 23  1  0
 18 17  1  0
 19 18  2  0
 20 21  2  0
 20 19  1  0
 21 22  1  0
 22 23  2  0
 24 16  1  0
 25 24  2  0
 27 26  1  0
 28 27  1  1
 28 29  1  0
 29 24  1  0
 30 28  1  0
 31 30  2  0
 32 30  1  0
M  END
$$$$
