WFS.pdb
     RDKit          3D

 32 34  0  0  1  0  0  0  0  0999 V2000
   28.8602  -21.0046  -14.6748 N   0  0  0  0  0  0  0  0  0  0  0  0
   27.7312  -20.2171  -14.2553 C   0  0  1  0  0  0  0  0  0  0  0  0
   26.8589  -19.8219  -15.4270 C   0  0  0  0  0  0  0  0  0  0  0  0
   27.4875  -18.7012  -16.1652 C   0  0  0  0  0  0  0  0  0  0  0  0
   28.1057  -18.8090  -17.4207 C   0  0  0  0  0  0  0  0  0  0  0  0
   28.5111  -17.5790  -17.7432 N   0  0  0  0  0  0  0  0  0  0  0  0
   28.2067  -16.6750  -16.7955 C   0  0  0  0  0  0  0  0  0  0  0  0
   28.4311  -15.2962  -16.6895 C   0  0  0  0  0  0  0  0  0  0  0  0
   28.0205  -14.5845  -15.5873 C   0  0  0  0  0  0  0  0  0  0  0  0
   27.3739  -15.2673  -14.5725 C   0  0  0  0  0  0  0  0  0  0  0  0
   27.1589  -16.6453  -14.6978 C   0  0  0  0  0  0  0  0  0  0  0  0
   27.5618  -17.3686  -15.7932 C   0  0  0  0  0  0  0  0  0  0  0  0
   26.9284  -20.9208  -13.2200 C   0  0  0  0  0  0  0  0  0  0  0  0
   26.6077  -22.1424  -13.4323 O   0  0  0  0  0  0  0  0  0  0  0  0
   26.4901  -20.3423  -12.0063 N   0  0  0  0  0  0  0  0  0  0  0  0
   25.4034  -20.9281  -11.2229 C   0  0  1  0  0  0  0  0  0  0  0  0
   25.4673  -20.4156   -9.7989 C   0  0  0  0  0  0  0  0  0  0  0  0
   26.7196  -20.6603   -9.1021 C   0  0  0  0  0  0  0  0  0  0  0  0
   27.7084  -21.4738   -9.6124 C   0  0  0  0  0  0  0  0  0  0  0  0
   28.8971  -21.7055   -8.9706 C   0  0  0  0  0  0  0  0  0  0  0  0
   29.1463  -21.1157   -7.7623 C   0  0  0  0  0  0  0  0  0  0  0  0
   28.1849  -20.2929   -7.2124 C   0  0  0  0  0  0  0  0  0  0  0  0
   26.9859  -20.0765   -7.8886 C   0  0  0  0  0  0  0  0  0  0  0  0
   24.1195  -20.7361  -11.8651 C   0  0  0  0  0  0  0  0  0  0  0  0
   23.6565  -19.6207  -12.2369 O   0  0  0  0  0  0  0  0  0  0  0  0
   21.8064  -23.9894  -13.0336 O   0  0  0  0  0  0  0  0  0  0  0  0
   21.7059  -22.7989  -13.7807 C   0  0  0  0  0  0  0  0  0  0  0  0
   22.0116  -21.6749  -12.8293 C   0  0  2  0  0  0  0  0  0  0  0  0
   23.2666  -21.8549  -12.1253 N   0  0  0  0  0  0  0  0  0  0  0  0
   20.8750  -21.5944  -11.8580 C   0  0  0  0  0  0  0  0  0  0  0  0
   21.1511  -21.6854  -10.6324 O   0  0  0  0  0  0  0  0  0  0  0  0
   19.5674  -21.4259  -12.2950 O   0  0  0  0  0  0  0  0  0  0  0  0
  2  1  1  6
  3  4  1  0
  3  2  1  0
  4  5  2  0
  5  6  1  0
  7  6  1  0
  8  7  2  0
  9  8  1  0
 10 11  1  0
 10  9  2  0
 11 12  2  0
 12  4  1  0
 12  7  1  0
 13  2  1  0
 13 14  2  0
 15 13  1  0
 16 15  1  0
 16 17  1  1
 18 23  1  0
 18 17  1  0
 19 18  2  0
 20 21  2  0
 20 19  1  0
 21 22  1  0
 22 23  2  0
 24 16  1  0
 25 24  2  0
 27 26  1  0
 28 27  1  6
 28 29  1  0
 29 24  1  0
 30 28  1  0
 31 30  2  0
 32 30  1  0
M  END
$$$$
