WFS.pdb
     RDKit          3D

 32 34  0  0  1  0  0  0  0  0999 V2000
   25.0712  -10.6892  -20.0886 N   0  0  0  0  0  0  0  0  0  0  0  0
   23.7750  -10.0653  -20.1225 C   0  0  1  0  0  0  0  0  0  0  0  0
   22.7947  -10.8581  -20.9596 C   0  0  0  0  0  0  0  0  0  0  0  0
   21.6519   -9.9967  -21.3443 C   0  0  0  0  0  0  0  0  0  0  0  0
   21.7509   -8.8110  -22.0887 C   0  0  0  0  0  0  0  0  0  0  0  0
   20.5034   -8.3618  -22.2418 N   0  0  0  0  0  0  0  0  0  0  0  0
   19.5961   -9.1617  -21.6545 C   0  0  0  0  0  0  0  0  0  0  0  0
   18.2008   -9.0977  -21.5459 C   0  0  0  0  0  0  0  0  0  0  0  0
   17.4884  -10.0583  -20.8680 C   0  0  0  0  0  0  0  0  0  0  0  0
   18.1872  -11.1018  -20.2877 C   0  0  0  0  0  0  0  0  0  0  0  0
   19.5816  -11.1478  -20.4078 C   0  0  0  0  0  0  0  0  0  0  0  0
   20.3059  -10.1966  -21.0831 C   0  0  0  0  0  0  0  0  0  0  0  0
   23.2369   -9.8481  -18.7532 C   0  0  0  0  0  0  0  0  0  0  0  0
   23.0715  -10.8711  -18.0006 O   0  0  0  0  0  0  0  0  0  0  0  0
   22.8935   -8.5882  -18.2107 N   0  0  0  0  0  0  0  0  0  0  0  0
   22.3151   -8.4576  -16.8742 C   0  0  1  0  0  0  0  0  0  0  0  0
   23.3858   -8.0222  -15.8952 C   0  0  0  0  0  0  0  0  0  0  0  0
   22.9308   -7.7886  -14.5343 C   0  0  0  0  0  0  0  0  0  0  0  0
   22.9550   -8.7669  -13.5634 C   0  0  0  0  0  0  0  0  0  0  0  0
   22.5380   -8.5577  -12.2746 C   0  0  0  0  0  0  0  0  0  0  0  0
   22.0690   -7.3288  -11.9004 C   0  0  0  0  0  0  0  0  0  0  0  0
   22.0263   -6.3185  -12.8390 C   0  0  0  0  0  0  0  0  0  0  0  0
   22.4571   -6.5615  -14.1417 C   0  0  0  0  0  0  0  0  0  0  0  0
   21.1397   -7.6113  -16.8823 C   0  0  0  0  0  0  0  0  0  0  0  0
   21.0601   -6.4896  -17.4586 O   0  0  0  0  0  0  0  0  0  0  0  0
   17.5548   -9.0085  -15.4283 O   0  0  0  0  0  0  0  0  0  0  0  0
   17.4911   -7.9581  -16.3653 C   0  0  0  0  0  0  0  0  0  0  0  0
   18.7686   -7.1787  -16.2151 C   0  0  2  0  0  0  0  0  0  0  0  0
   19.9482   -8.0221  -16.2050 N   0  0  0  0  0  0  0  0  0  0  0  0
   18.6687   -6.4054  -14.9369 C   0  0  0  0  0  0  0  0  0  0  0  0
   17.7192   -5.5850  -14.8273 O   0  0  0  0  0  0  0  0  0  0  0  0
   19.5895   -6.5880  -13.9132 O   0  0  0  0  0  0  0  0  0  0  0  0
  2  1  1  1
  3  4  1  0
  3  2  1  0
  4  5  2  0
  5  6  1  0
  7  6  1  0
  8  7  2  0
  9  8  1  0
 10 11  1  0
 10  9  2  0
 11 12  2  0
 12  4  1  0
 12  7  1  0
 13  2  1  0
 13 14  2  0
 15 13  1  0
 16 15  1  0
 16 17  1  1
 18 23  1  0
 18 17  1  0
 19 18  2  0
 20 21  2  0
 20 19  1  0
 21 22  1  0
 22 23  2  0
 24 16  1  0
 25 24  2  0
 27 26  1  0
 28 27  1  1
 28 29  1  0
 29 24  1  0
 30 28  1  0
 31 30  2  0
 32 30  1  0
M  END
$$$$
