WFS.pdb
     RDKit          3D

 32 34  0  0  1  0  0  0  0  0999 V2000
   24.8221  -15.6762  -16.1541 N   0  0  0  0  0  0  0  0  0  0  0  0
   24.7055  -17.0151  -15.6399 C   0  0  1  0  0  0  0  0  0  0  0  0
   25.6704  -17.2623  -14.5007 C   0  0  0  0  0  0  0  0  0  0  0  0
   26.9453  -17.8006  -15.0307 C   0  0  0  0  0  0  0  0  0  0  0  0
   27.4750  -19.0644  -14.7272 C   0  0  0  0  0  0  0  0  0  0  0  0
   28.6079  -19.1710  -15.4246 N   0  0  0  0  0  0  0  0  0  0  0  0
   28.8608  -18.0743  -16.1603 C   0  0  0  0  0  0  0  0  0  0  0  0
   29.9078  -17.7301  -17.0252 C   0  0  0  0  0  0  0  0  0  0  0  0
   29.9404  -16.5137  -17.6649 C   0  0  0  0  0  0  0  0  0  0  0  0
   28.9051  -15.6257  -17.4330 C   0  0  0  0  0  0  0  0  0  0  0  0
   27.8677  -15.9889  -16.5653 C   0  0  0  0  0  0  0  0  0  0  0  0
   27.8212  -17.2005  -15.9210 C   0  0  0  0  0  0  0  0  0  0  0  0
   23.3118  -17.3198  -15.2197 C   0  0  0  0  0  0  0  0  0  0  0  0
   22.7869  -16.5977  -14.3013 O   0  0  0  0  0  0  0  0  0  0  0  0
   22.5120  -18.3520  -15.7624 N   0  0  0  0  0  0  0  0  0  0  0  0
   21.1145  -18.5295  -15.3704 C   0  0  1  0  0  0  0  0  0  0  0  0
   20.2074  -17.9872  -16.4555 C   0  0  0  0  0  0  0  0  0  0  0  0
   20.1744  -16.5387  -16.5766 C   0  0  0  0  0  0  0  0  0  0  0  0
   19.2917  -15.7528  -15.8672 C   0  0  0  0  0  0  0  0  0  0  0  0
   19.2560  -14.3861  -15.9647 C   0  0  0  0  0  0  0  0  0  0  0  0
   20.1257  -13.7387  -16.7981 C   0  0  0  0  0  0  0  0  0  0  0  0
   21.0277  -14.4848  -17.5285 C   0  0  0  0  0  0  0  0  0  0  0  0
   21.0400  -15.8730  -17.4083 C   0  0  0  0  0  0  0  0  0  0  0  0
   20.8361  -19.9004  -14.9952 C   0  0  0  0  0  0  0  0  0  0  0  0
   21.3170  -20.9189  -15.5680 O   0  0  0  0  0  0  0  0  0  0  0  0
   17.9775  -20.8589  -12.1023 O   0  0  0  0  0  0  0  0  0  0  0  0
   19.1332  -21.6649  -12.1127 C   0  0  0  0  0  0  0  0  0  0  0  0
   19.7121  -21.5573  -13.4966 C   0  0  2  0  0  0  0  0  0  0  0  0
   19.9589  -20.1870  -13.9019 N   0  0  0  0  0  0  0  0  0  0  0  0
   18.7458  -22.2129  -14.4338 C   0  0  0  0  0  0  0  0  0  0  0  0
   19.0886  -23.3112  -14.9465 O   0  0  0  0  0  0  0  0  0  0  0  0
   17.5193  -21.6295  -14.7248 O   0  0  0  0  0  0  0  0  0  0  0  0
  2  1  1  1
  3  4  1  0
  3  2  1  0
  4  5  2  0
  5  6  1  0
  7  6  1  0
  8  7  2  0
  9  8  1  0
 10 11  1  0
 10  9  2  0
 11 12  2  0
 12  4  1  0
 12  7  1  0
 13  2  1  0
 13 14  2  0
 15 13  1  0
 16 15  1  0
 16 17  1  6
 18 23  1  0
 18 17  1  0
 19 18  2  0
 20 21  2  0
 20 19  1  0
 21 22  1  0
 22 23  2  0
 24 16  1  0
 25 24  2  0
 27 26  1  0
 28 27  1  1
 28 29  1  0
 29 24  1  0
 30 28  1  0
 31 30  2  0
 32 30  1  0
M  END
$$$$
