WFS.pdb
     RDKit          3D

 32 34  0  0  1  0  0  0  0  0999 V2000
   25.6090  -18.3258  -19.0175 N   0  0  0  0  0  0  0  0  0  0  0  0
   24.9379  -18.0955  -17.7656 C   0  0  1  0  0  0  0  0  0  0  0  0
   23.4395  -18.2620  -17.8956 C   0  0  0  0  0  0  0  0  0  0  0  0
   22.8328  -16.9953  -18.3682 C   0  0  0  0  0  0  0  0  0  0  0  0
   22.3350  -16.7731  -19.6616 C   0  0  0  0  0  0  0  0  0  0  0  0
   21.8535  -15.5284  -19.6668 N   0  0  0  0  0  0  0  0  0  0  0  0
   21.9984  -14.9188  -18.4771 C   0  0  0  0  0  0  0  0  0  0  0  0
   21.6599  -13.6397  -18.0167 C   0  0  0  0  0  0  0  0  0  0  0  0
   21.9298  -13.2459  -16.7275 C   0  0  0  0  0  0  0  0  0  0  0  0
   22.5509  -14.1503  -15.8846 C   0  0  0  0  0  0  0  0  0  0  0  0
   22.8808  -15.4239  -16.3640 C   0  0  0  0  0  0  0  0  0  0  0  0
   22.6159  -15.8314  -17.6482 C   0  0  0  0  0  0  0  0  0  0  0  0
   25.4701  -18.9745  -16.6904 C   0  0  0  0  0  0  0  0  0  0  0  0
   25.4821  -20.2386  -16.8952 O   0  0  0  0  0  0  0  0  0  0  0  0
   25.9719  -18.5191  -15.4493 N   0  0  0  0  0  0  0  0  0  0  0  0
   26.2339  -19.4370  -14.3417 C   0  0  1  0  0  0  0  0  0  0  0  0
   27.0885  -18.7471  -13.2986 C   0  0  0  0  0  0  0  0  0  0  0  0
   27.4023  -19.5418  -12.1223 C   0  0  0  0  0  0  0  0  0  0  0  0
   28.5154  -20.3515  -12.0466 C   0  0  0  0  0  0  0  0  0  0  0  0
   28.8280  -21.0985  -10.9408 C   0  0  0  0  0  0  0  0  0  0  0  0
   28.0164  -21.0615   -9.8408 C   0  0  0  0  0  0  0  0  0  0  0  0
   26.8904  -20.2646   -9.8709 C   0  0  0  0  0  0  0  0  0  0  0  0
   26.5987  -19.5165  -11.0097 C   0  0  0  0  0  0  0  0  0  0  0  0
   25.0088  -20.0079  -13.8212 C   0  0  0  0  0  0  0  0  0  0  0  0
   24.0133  -19.3410  -13.4202 O   0  0  0  0  0  0  0  0  0  0  0  0
   24.8362  -24.0023  -13.2587 O   0  0  0  0  0  0  0  0  0  0  0  0
   23.5354  -23.4836  -13.4146 C   0  0  0  0  0  0  0  0  0  0  0  0
   23.6400  -22.0013  -13.1831 C   0  0  2  0  0  0  0  0  0  0  0  0
   24.8542  -21.4274  -13.7301 N   0  0  0  0  0  0  0  0  0  0  0  0
   23.5773  -21.7779  -11.7039 C   0  0  0  0  0  0  0  0  0  0  0  0
   24.5652  -21.2176  -11.1590 O   0  0  0  0  0  0  0  0  0  0  0  0
   22.4709  -22.1745  -10.9638 O   0  0  0  0  0  0  0  0  0  0  0  0
  2  1  1  6
  3  4  1  0
  3  2  1  0
  4  5  2  0
  5  6  1  0
  7  6  1  0
  8  7  2  0
  9  8  1  0
 10 11  1  0
 10  9  2  0
 11 12  2  0
 12  4  1  0
 12  7  1  0
 13  2  1  0
 13 14  2  0
 15 13  1  0
 16 15  1  0
 16 17  1  1
 18 23  1  0
 18 17  1  0
 19 18  2  0
 20 21  2  0
 20 19  1  0
 21 22  1  0
 22 23  2  0
 24 16  1  0
 25 24  2  0
 27 26  1  0
 28 27  1  1
 28 29  1  0
 29 24  1  0
 30 28  1  0
 31 30  2  0
 32 30  1  0
M  END
$$$$
