FMM.pdb
     RDKit          3D

 28 28  0  0  1  0  0  0  0  0999 V2000
    5.9300  -18.4857   24.4408 N   0  0  0  0  0  0  0  0  0  0  0  0
    6.4231  -17.1400   24.5211 C   0  0  1  0  0  0  0  0  0  0  0  0
    6.8405  -16.7789   25.9459 C   0  0  0  0  0  0  0  0  0  0  0  0
    6.9492  -15.3195   26.0478 C   0  0  0  0  0  0  0  0  0  0  0  0
    8.1735  -14.7130   25.8492 C   0  0  0  0  0  0  0  0  0  0  0  0
    8.2665  -13.3464   25.9457 C   0  0  0  0  0  0  0  0  0  0  0  0
    7.1254  -12.6056   26.2413 C   0  0  0  0  0  0  0  0  0  0  0  0
    5.9061  -13.2280   26.4376 C   0  0  0  0  0  0  0  0  0  0  0  0
    5.8232  -14.5895   26.3394 C   0  0  0  0  0  0  0  0  0  0  0  0
    7.6916  -17.0675   23.7145 C   0  0  0  0  0  0  0  0  0  0  0  0
    8.4386  -18.0523   23.5385 O   0  0  0  0  0  0  0  0  0  0  0  0
    8.3912  -11.4700   20.1367 C   0  0  0  0  0  0  0  0  0  0  0  0
    7.8821  -13.0643   19.4414 S   0  0  0  0  0  0  0  0  0  0  0  0
    7.6224  -14.2154   20.8603 C   0  0  0  0  0  0  0  0  0  0  0  0
    8.9692  -14.5284   21.3884 C   0  0  0  0  0  0  0  0  0  0  0  0
    9.1150  -15.8359   22.1241 C   0  0  2  0  0  0  0  0  0  0  0  0
    8.0257  -15.8236   23.1458 N   0  0  0  0  0  0  0  0  0  0  0  0
   10.4149  -15.8874   22.8107 C   0  0  0  0  0  0  0  0  0  0  0  0
   11.4803  -15.8152   22.1214 O   0  0  0  0  0  0  0  0  0  0  0  0
   10.2325  -12.4880   28.5921 C   0  0  0  0  0  0  0  0  0  0  0  0
   11.2077  -13.9664   28.2602 S   0  0  0  0  0  0  0  0  0  0  0  0
   10.8776  -14.5169   26.5788 C   0  0  0  0  0  0  0  0  0  0  0  0
   11.5512  -15.7888   26.2804 C   0  0  0  0  0  0  0  0  0  0  0  0
   11.8644  -16.1263   24.8491 C   0  0  2  0  0  0  0  0  0  0  0  0
   10.5203  -16.0058   24.1912 N   0  0  0  0  0  0  0  0  0  0  0  0
   12.3370  -17.4794   24.5772 C   0  0  0  0  0  0  0  0  0  0  0  0
   13.6345  -17.8776   24.8586 O   0  0  0  0  0  0  0  0  0  0  0  0
   11.6148  -18.4014   24.0600 O   0  0  0  0  0  0  0  0  0  0  0  0
  2  1  1  1
  2  3  1  0
  4  3  1  0
  4  5  2  0
  6  5  1  0
  7  6  2  0
  8  9  2  0
  8  7  1  0
  9  4  1  0
 10  2  1  0
 11 10  2  0
 13 12  1  0
 14 15  1  0
 14 13  1  0
 16 15  1  1
 16 17  1  0
 17 10  1  0
 18 16  1  0
 18 19  2  0
 20 21  1  0
 22 21  1  0
 24 23  1  1
 23 22  1  0
 24 25  1  0
 25 18  1  0
 26 24  1  0
 27 26  1  0
 28 26  2  0
M  END
$$$$
