FMM.pdb
     RDKit          3D

 28 28  0  0  1  0  0  0  0  0999 V2000
    7.4213  -17.1670   21.0552 N   0  0  0  0  0  0  0  0  0  0  0  0
    7.9280  -15.8986   20.6135 C   0  0  1  0  0  0  0  0  0  0  0  0
    6.8109  -15.0018   20.0820 C   0  0  0  0  0  0  0  0  0  0  0  0
    7.3018  -14.2938   18.8947 C   0  0  0  0  0  0  0  0  0  0  0  0
    8.6164  -14.4522   18.5034 C   0  0  0  0  0  0  0  0  0  0  0  0
    9.0679  -13.7865   17.3905 C   0  0  0  0  0  0  0  0  0  0  0  0
    8.1903  -12.9684   16.6839 C   0  0  0  0  0  0  0  0  0  0  0  0
    6.8764  -12.8202   17.0887 C   0  0  0  0  0  0  0  0  0  0  0  0
    6.4357  -13.4873   18.1983 C   0  0  0  0  0  0  0  0  0  0  0  0
    8.4668  -15.1753   21.8185 C   0  0  0  0  0  0  0  0  0  0  0  0
    9.2626  -14.2172   21.7325 O   0  0  0  0  0  0  0  0  0  0  0  0
    6.6928  -11.3974   25.9740 C   0  0  0  0  0  0  0  0  0  0  0  0
    6.1688  -12.9477   26.7528 S   0  0  0  0  0  0  0  0  0  0  0  0
    7.5372  -14.1627   26.5145 C   0  0  0  0  0  0  0  0  0  0  0  0
    7.3138  -14.7795   25.1878 C   0  0  0  0  0  0  0  0  0  0  0  0
    8.4983  -14.8165   24.2562 C   0  0  2  0  0  0  0  0  0  0  0  0
    8.0380  -15.6194   23.0839 N   0  0  0  0  0  0  0  0  0  0  0  0
    9.6253  -15.5098   24.8987 C   0  0  0  0  0  0  0  0  0  0  0  0
   10.7354  -14.9029   25.0195 O   0  0  0  0  0  0  0  0  0  0  0  0
   10.2718  -13.8628   29.2044 C   0  0  0  0  0  0  0  0  0  0  0  0
   10.6307  -15.4076   30.0599 S   0  0  0  0  0  0  0  0  0  0  0  0
   10.9394  -16.6923   28.8379 C   0  0  0  0  0  0  0  0  0  0  0  0
   10.2965  -16.3862   27.5520 C   0  0  0  0  0  0  0  0  0  0  0  0
   10.4967  -17.3284   26.3976 C   0  0  2  0  0  0  0  0  0  0  0  0
    9.5176  -16.8067   25.3862 N   0  0  0  0  0  0  0  0  0  0  0  0
   10.1532  -18.7287   26.6201 C   0  0  0  0  0  0  0  0  0  0  0  0
   11.0721  -19.6446   27.1078 O   0  0  0  0  0  0  0  0  0  0  0  0
    8.9991  -19.2306   26.3853 O   0  0  0  0  0  0  0  0  0  0  0  0
  2  1  1  1
  2  3  1  0
  4  3  1  0
  4  5  2  0
  6  5  1  0
  7  6  2  0
  8  9  2  0
  8  7  1  0
  9  4  1  0
 10  2  1  0
 11 10  2  0
 13 12  1  0
 14 15  1  0
 14 13  1  0
 16 15  1  1
 16 17  1  0
 17 10  1  0
 18 16  1  0
 18 19  2  0
 20 21  1  0
 22 21  1  0
 24 23  1  1
 23 22  1  0
 24 25  1  0
 25 18  1  0
 26 24  1  0
 27 26  1  0
 28 26  2  0
M  END
$$$$
