FMM.pdb
     RDKit          3D

 28 28  0  0  1  0  0  0  0  0999 V2000
    6.4715  -19.8786   22.8452 N   0  0  0  0  0  0  0  0  0  0  0  0
    6.6598  -19.1449   24.0646 C   0  0  1  0  0  0  0  0  0  0  0  0
    7.8692  -19.6557   24.8463 C   0  0  0  0  0  0  0  0  0  0  0  0
    7.4024  -20.2209   26.1171 C   0  0  0  0  0  0  0  0  0  0  0  0
    7.0183  -19.3743   27.1378 C   0  0  0  0  0  0  0  0  0  0  0  0
    6.5819  -19.9114   28.3239 C   0  0  0  0  0  0  0  0  0  0  0  0
    6.5374  -21.2954   28.4688 C   0  0  0  0  0  0  0  0  0  0  0  0
    6.9256  -22.1301   27.4368 C   0  0  0  0  0  0  0  0  0  0  0  0
    7.3587  -21.5860   26.2592 C   0  0  0  0  0  0  0  0  0  0  0  0
    7.0049  -17.7266   23.6977 C   0  0  0  0  0  0  0  0  0  0  0  0
    7.5227  -17.4176   22.6045 O   0  0  0  0  0  0  0  0  0  0  0  0
    6.0885  -10.4619   26.5309 C   0  0  0  0  0  0  0  0  0  0  0  0
    5.6107  -12.2083   26.4517 S   0  0  0  0  0  0  0  0  0  0  0  0
    6.6832  -13.0057   25.1792 C   0  0  0  0  0  0  0  0  0  0  0  0
    6.3291  -14.4428   25.1840 C   0  0  0  0  0  0  0  0  0  0  0  0
    7.1502  -15.3400   24.2936 C   0  0  2  0  0  0  0  0  0  0  0  0
    6.7210  -16.7263   24.6469 N   0  0  0  0  0  0  0  0  0  0  0  0
    8.5802  -15.1879   24.6032 C   0  0  0  0  0  0  0  0  0  0  0  0
    9.1722  -14.1128   24.2732 O   0  0  0  0  0  0  0  0  0  0  0  0
   11.9157  -14.2171   29.6561 C   0  0  0  0  0  0  0  0  0  0  0  0
   10.1769  -14.4597   29.2506 S   0  0  0  0  0  0  0  0  0  0  0  0
   10.0116  -14.6200   27.4656 C   0  0  0  0  0  0  0  0  0  0  0  0
   10.8603  -15.6963   26.9349 C   0  0  0  0  0  0  0  0  0  0  0  0
   10.7854  -16.0244   25.4695 C   0  0  2  0  0  0  0  0  0  0  0  0
    9.3080  -16.1782   25.2519 N   0  0  0  0  0  0  0  0  0  0  0  0
   11.3982  -17.2768   25.0404 C   0  0  0  0  0  0  0  0  0  0  0  0
   12.7692  -17.4129   24.8891 O   0  0  0  0  0  0  0  0  0  0  0  0
   10.7404  -18.3401   24.7646 O   0  0  0  0  0  0  0  0  0  0  0  0
  2  1  1  6
  2  3  1  0
  4  3  1  0
  4  5  2  0
  6  5  1  0
  7  6  2  0
  8  9  2  0
  8  7  1  0
  9  4  1  0
 10  2  1  0
 11 10  2  0
 13 12  1  0
 14 15  1  0
 14 13  1  0
 16 15  1  1
 16 17  1  0
 17 10  1  0
 18 16  1  0
 18 19  2  0
 20 21  1  0
 22 21  1  0
 24 23  1  1
 23 22  1  0
 24 25  1  0
 25 18  1  0
 26 24  1  0
 27 26  1  0
 28 26  2  0
M  END
$$$$
