FMM.pdb
     RDKit          3D

 28 28  0  0  1  0  0  0  0  0999 V2000
    5.8699  -18.5859   24.7587 N   0  0  0  0  0  0  0  0  0  0  0  0
    6.2163  -17.1930   24.7837 C   0  0  1  0  0  0  0  0  0  0  0  0
    6.6702  -16.7521   26.1745 C   0  0  0  0  0  0  0  0  0  0  0  0
    6.7831  -15.2895   26.1898 C   0  0  0  0  0  0  0  0  0  0  0  0
    8.0242  -14.7016   26.0476 C   0  0  0  0  0  0  0  0  0  0  0  0
    8.1212  -13.3319   26.0624 C   0  0  0  0  0  0  0  0  0  0  0  0
    6.9670  -12.5694   26.2203 C   0  0  0  0  0  0  0  0  0  0  0  0
    5.7310  -13.1734   26.3615 C   0  0  0  0  0  0  0  0  0  0  0  0
    5.6443  -14.5382   26.3455 C   0  0  0  0  0  0  0  0  0  0  0  0
    7.4224  -17.0046   23.9034 C   0  0  0  0  0  0  0  0  0  0  0  0
    8.2971  -17.8835   23.7571 O   0  0  0  0  0  0  0  0  0  0  0  0
    6.7758  -12.4664   19.6517 C   0  0  0  0  0  0  0  0  0  0  0  0
    8.5880  -12.4541   19.6401 S   0  0  0  0  0  0  0  0  0  0  0  0
    9.1445  -14.0998   20.2626 C   0  0  0  0  0  0  0  0  0  0  0  0
    8.2616  -14.4284   21.4041 C   0  0  0  0  0  0  0  0  0  0  0  0
    8.5376  -15.7291   22.1141 C   0  0  2  0  0  0  0  0  0  0  0  0
    7.5439  -15.7751   23.2283 N   0  0  0  0  0  0  0  0  0  0  0  0
    9.8942  -15.7169   22.6825 C   0  0  0  0  0  0  0  0  0  0  0  0
   10.8926  -15.7766   21.8984 O   0  0  0  0  0  0  0  0  0  0  0  0
   11.2169  -13.7467   29.0214 C   0  0  0  0  0  0  0  0  0  0  0  0
   10.0505  -14.9562   28.3706 S   0  0  0  0  0  0  0  0  0  0  0  0
   10.8392  -15.8648   27.0321 C   0  0  0  0  0  0  0  0  0  0  0  0
   11.2978  -14.9680   25.9617 C   0  0  0  0  0  0  0  0  0  0  0  0
   11.5229  -15.5338   24.5871 C   0  0  2  0  0  0  0  0  0  0  0  0
   10.1245  -15.6351   24.0505 N   0  0  0  0  0  0  0  0  0  0  0  0
   12.0928  -16.8744   24.5093 C   0  0  0  0  0  0  0  0  0  0  0  0
   13.4337  -17.1212   24.7590 O   0  0  0  0  0  0  0  0  0  0  0  0
   11.4232  -17.9222   24.2043 O   0  0  0  0  0  0  0  0  0  0  0  0
  2  1  1  1
  2  3  1  0
  4  3  1  0
  4  5  2  0
  6  5  1  0
  7  6  2  0
  8  9  2  0
  8  7  1  0
  9  4  1  0
 10  2  1  0
 11 10  2  0
 13 12  1  0
 14 15  1  0
 14 13  1  0
 16 15  1  1
 16 17  1  0
 17 10  1  0
 18 16  1  0
 18 19  2  0
 20 21  1  0
 22 21  1  0
 24 23  1  1
 23 22  1  0
 24 25  1  0
 25 18  1  0
 26 24  1  0
 27 26  1  0
 28 26  2  0
M  END
$$$$
