FMM.pdb
     RDKit          3D

 28 28  0  0  1  0  0  0  0  0999 V2000
    5.9315  -18.6944   24.4528 N   0  0  0  0  0  0  0  0  0  0  0  0
    6.2897  -17.3046   24.4215 C   0  0  1  0  0  0  0  0  0  0  0  0
    6.6233  -16.7791   25.8169 C   0  0  0  0  0  0  0  0  0  0  0  0
    6.5625  -15.3135   25.7937 C   0  0  0  0  0  0  0  0  0  0  0  0
    5.3512  -14.6798   25.9866 C   0  0  0  0  0  0  0  0  0  0  0  0
    5.3031  -13.3076   25.9641 C   0  0  0  0  0  0  0  0  0  0  0  0
    6.4756  -12.5888   25.7472 C   0  0  0  0  0  0  0  0  0  0  0  0
    7.6813  -13.2385   25.5555 C   0  0  0  0  0  0  0  0  0  0  0  0
    7.7194  -14.6054   25.5798 C   0  0  0  0  0  0  0  0  0  0  0  0
    7.5713  -17.1789   23.6423 C   0  0  0  0  0  0  0  0  0  0  0  0
    8.3975  -18.1098   23.5443 O   0  0  0  0  0  0  0  0  0  0  0  0
    8.6373  -11.7461   20.1486 C   0  0  0  0  0  0  0  0  0  0  0  0
    7.7926  -13.1288   19.3369 S   0  0  0  0  0  0  0  0  0  0  0  0
    7.5081  -14.4201   20.6243 C   0  0  0  0  0  0  0  0  0  0  0  0
    8.8121  -14.6302   21.2921 C   0  0  0  0  0  0  0  0  0  0  0  0
    8.9752  -15.9187   22.0571 C   0  0  2  0  0  0  0  0  0  0  0  0
    7.8233  -15.9478   23.0074 N   0  0  0  0  0  0  0  0  0  0  0  0
   10.2294  -15.8953   22.8253 C   0  0  0  0  0  0  0  0  0  0  0  0
   11.3318  -15.7779   22.2039 O   0  0  0  0  0  0  0  0  0  0  0  0
   11.5071  -14.0336   29.3405 C   0  0  0  0  0  0  0  0  0  0  0  0
   10.2337  -13.7394   28.1000 S   0  0  0  0  0  0  0  0  0  0  0  0
   10.9077  -14.1117   26.4733 C   0  0  0  0  0  0  0  0  0  0  0  0
   11.1806  -15.5471   26.3128 C   0  0  0  0  0  0  0  0  0  0  0  0
   11.5551  -16.0673   24.9528 C   0  0  2  0  0  0  0  0  0  0  0  0
   10.2519  -15.9904   24.2115 N   0  0  0  0  0  0  0  0  0  0  0  0
   11.9931  -17.4566   24.8741 C   0  0  0  0  0  0  0  0  0  0  0  0
   11.2012  -18.4490   24.3181 O   0  0  0  0  0  0  0  0  0  0  0  0
   13.1217  -17.8788   25.3070 O   0  0  0  0  0  0  0  0  0  0  0  0
  2  1  1  1
  2  3  1  0
  4  3  1  0
  4  5  2  0
  6  5  1  0
  7  6  2  0
  8  9  2  0
  8  7  1  0
  9  4  1  0
 10  2  1  0
 11 10  2  0
 13 12  1  0
 14 15  1  0
 14 13  1  0
 16 15  1  1
 16 17  1  0
 17 10  1  0
 18 16  1  0
 18 19  2  0
 20 21  1  0
 22 21  1  0
 24 23  1  1
 23 22  1  0
 24 25  1  0
 25 18  1  0
 26 24  1  0
 27 26  1  0
 28 26  2  0
M  END
$$$$
