FMM.pdb
     RDKit          3D

 28 28  0  0  1  0  0  0  0  0999 V2000
    6.9876  -16.6357   25.9930 N   0  0  0  0  0  0  0  0  0  0  0  0
    6.4231  -16.8873   24.6973 C   0  0  1  0  0  0  0  0  0  0  0  0
    5.5048  -15.7494   24.2542 C   0  0  0  0  0  0  0  0  0  0  0  0
    5.8518  -14.5431   25.0136 C   0  0  0  0  0  0  0  0  0  0  0  0
    5.9573  -13.3330   24.3573 C   0  0  0  0  0  0  0  0  0  0  0  0
    6.2819  -12.2086   25.0756 C   0  0  0  0  0  0  0  0  0  0  0  0
    6.4967  -12.3153   26.4471 C   0  0  0  0  0  0  0  0  0  0  0  0
    6.3871  -13.5349   27.0899 C   0  0  0  0  0  0  0  0  0  0  0  0
    6.0634  -14.6492   26.3662 C   0  0  0  0  0  0  0  0  0  0  0  0
    7.5494  -16.8889   23.6989 C   0  0  0  0  0  0  0  0  0  0  0  0
    8.1352  -17.9320   23.3417 O   0  0  0  0  0  0  0  0  0  0  0  0
    9.1700  -12.0468   19.9080 C   0  0  0  0  0  0  0  0  0  0  0  0
    7.5919  -12.8595   19.5422 S   0  0  0  0  0  0  0  0  0  0  0  0
    7.5579  -14.4337   20.5047 C   0  0  0  0  0  0  0  0  0  0  0  0
    8.8102  -14.4614   21.2932 C   0  0  0  0  0  0  0  0  0  0  0  0
    9.0372  -15.6802   22.1506 C   0  0  2  0  0  0  0  0  0  0  0  0
    7.9381  -15.6471   23.1613 N   0  0  0  0  0  0  0  0  0  0  0  0
   10.3298  -15.5760   22.8451 C   0  0  0  0  0  0  0  0  0  0  0  0
   10.8368  -14.4265   23.0366 O   0  0  0  0  0  0  0  0  0  0  0  0
   10.5479  -13.7282   28.2724 C   0  0  0  0  0  0  0  0  0  0  0  0
   10.3510  -15.5129   28.1207 S   0  0  0  0  0  0  0  0  0  0  0  0
   11.5715  -16.1368   26.9544 C   0  0  0  0  0  0  0  0  0  0  0  0
   11.0651  -16.1183   25.5747 C   0  0  0  0  0  0  0  0  0  0  0  0
   11.9656  -16.5837   24.4643 C   0  0  2  0  0  0  0  0  0  0  0  0
   11.0155  -16.6929   23.3072 N   0  0  0  0  0  0  0  0  0  0  0  0
   12.5805  -17.8976   24.6187 C   0  0  0  0  0  0  0  0  0  0  0  0
   12.1276  -19.0095   23.9263 O   0  0  0  0  0  0  0  0  0  0  0  0
   13.5693  -18.1404   25.3950 O   0  0  0  0  0  0  0  0  0  0  0  0
  2  1  1  1
  2  3  1  0
  4  3  1  0
  4  5  2  0
  6  5  1  0
  7  6  2  0
  8  9  2  0
  8  7  1  0
  9  4  1  0
 10  2  1  0
 11 10  2  0
 13 12  1  0
 14 15  1  0
 14 13  1  0
 16 15  1  6
 16 17  1  0
 17 10  1  0
 18 16  1  0
 18 19  2  0
 20 21  1  0
 22 21  1  0
 24 23  1  1
 23 22  1  0
 24 25  1  0
 25 18  1  0
 26 24  1  0
 27 26  1  0
 28 26  2  0
M  END
$$$$
