FMM.pdb
     RDKit          3D

 28 28  0  0  1  0  0  0  0  0999 V2000
    7.8400  -14.9777   20.1879 N   0  0  0  0  0  0  0  0  0  0  0  0
    7.5830  -15.8762   21.2776 C   0  0  1  0  0  0  0  0  0  0  0  0
    7.7511  -17.3347   20.8544 C   0  0  0  0  0  0  0  0  0  0  0  0
    7.3997  -18.1962   21.9887 C   0  0  0  0  0  0  0  0  0  0  0  0
    6.0703  -18.4179   22.2883 C   0  0  0  0  0  0  0  0  0  0  0  0
    5.7499  -19.2261   23.3512 C   0  0  0  0  0  0  0  0  0  0  0  0
    6.7721  -19.8021   24.1008 C   0  0  0  0  0  0  0  0  0  0  0  0
    8.0990  -19.5702   23.7879 C   0  0  0  0  0  0  0  0  0  0  0  0
    8.4084  -18.7639   22.7275 C   0  0  0  0  0  0  0  0  0  0  0  0
    8.6452  -15.6490   22.3194 C   0  0  0  0  0  0  0  0  0  0  0  0
    9.8656  -15.6674   22.0565 O   0  0  0  0  0  0  0  0  0  0  0  0
    5.2678  -11.8281   26.2549 C   0  0  0  0  0  0  0  0  0  0  0  0
    6.9832  -12.3446   26.5288 S   0  0  0  0  0  0  0  0  0  0  0  0
    7.3968  -13.5688   25.2112 C   0  0  0  0  0  0  0  0  0  0  0  0
    8.7713  -14.0360   25.4999 C   0  0  0  0  0  0  0  0  0  0  0  0
    9.2889  -15.1672   24.6487 C   0  0  2  0  0  0  0  0  0  0  0  0
    8.2156  -15.4079   23.6384 N   0  0  0  0  0  0  0  0  0  0  0  0
    9.4576  -16.3786   25.4660 C   0  0  0  0  0  0  0  0  0  0  0  0
    8.4556  -17.1353   25.6622 O   0  0  0  0  0  0  0  0  0  0  0  0
   13.9244  -21.7223   24.9620 C   0  0  0  0  0  0  0  0  0  0  0  0
   14.2345  -20.2512   25.9553 S   0  0  0  0  0  0  0  0  0  0  0  0
   12.7107  -19.7785   26.7880 C   0  0  0  0  0  0  0  0  0  0  0  0
   12.1768  -18.5115   26.2682 C   0  0  0  0  0  0  0  0  0  0  0  0
   10.8394  -18.0312   26.7593 C   0  0  2  0  0  0  0  0  0  0  0  0
   10.6791  -16.7302   26.0276 N   0  0  0  0  0  0  0  0  0  0  0  0
   10.7296  -17.7214   28.1807 C   0  0  0  0  0  0  0  0  0  0  0  0
   10.5709  -16.4242   28.6424 O   0  0  0  0  0  0  0  0  0  0  0  0
   10.7744  -18.5989   29.1119 O   0  0  0  0  0  0  0  0  0  0  0  0
  2  1  1  6
  2  3  1  0
  4  3  1  0
  4  5  2  0
  6  5  1  0
  7  6  2  0
  8  9  2  0
  8  7  1  0
  9  4  1  0
 10  2  1  0
 11 10  2  0
 13 12  1  0
 14 15  1  0
 14 13  1  0
 16 15  1  1
 16 17  1  0
 17 10  1  0
 18 16  1  0
 18 19  2  0
 20 21  1  0
 22 21  1  0
 24 23  1  1
 23 22  1  0
 24 25  1  0
 25 18  1  0
 26 24  1  0
 27 26  1  0
 28 26  2  0
M  END
$$$$
