FMM.pdb
     RDKit          3D

 28 28  0  0  1  0  0  0  0  0999 V2000
    6.7532  -17.7661   19.5693 N   0  0  0  0  0  0  0  0  0  0  0  0
    7.4427  -16.8515   20.4347 C   0  0  1  0  0  0  0  0  0  0  0  0
    6.4887  -15.8215   21.0377 C   0  0  0  0  0  0  0  0  0  0  0  0
    7.1032  -14.4937   20.9316 C   0  0  0  0  0  0  0  0  0  0  0  0
    7.4131  -13.7938   22.0807 C   0  0  0  0  0  0  0  0  0  0  0  0
    7.9888  -12.5518   21.9727 C   0  0  0  0  0  0  0  0  0  0  0  0
    8.2459  -12.0283   20.7084 C   0  0  0  0  0  0  0  0  0  0  0  0
    7.9295  -12.7419   19.5669 C   0  0  0  0  0  0  0  0  0  0  0  0
    7.3565  -13.9781   19.6844 C   0  0  0  0  0  0  0  0  0  0  0  0
    7.9618  -17.6354   21.6100 C   0  0  0  0  0  0  0  0  0  0  0  0
    7.2980  -18.5309   22.1722 O   0  0  0  0  0  0  0  0  0  0  0  0
   14.3969  -18.0528   23.3936 C   0  0  0  0  0  0  0  0  0  0  0  0
   13.4838  -19.6179   23.4293 S   0  0  0  0  0  0  0  0  0  0  0  0
   11.7960  -19.2453   24.0759 C   0  0  0  0  0  0  0  0  0  0  0  0
   11.1220  -18.4437   23.0301 C   0  0  0  0  0  0  0  0  0  0  0  0
    9.6994  -18.0324   23.3115 C   0  0  2  0  0  0  0  0  0  0  0  0
    9.2540  -17.3241   22.0743 N   0  0  0  0  0  0  0  0  0  0  0  0
    9.6592  -17.0924   24.4423 C   0  0  0  0  0  0  0  0  0  0  0  0
    9.9735  -17.5075   25.6016 O   0  0  0  0  0  0  0  0  0  0  0  0
    7.4633  -10.8217   25.7676 C   0  0  0  0  0  0  0  0  0  0  0  0
    6.3390  -12.2036   26.0380 S   0  0  0  0  0  0  0  0  0  0  0  0
    7.2874  -13.6239   26.6057 C   0  0  0  0  0  0  0  0  0  0  0  0
    7.7880  -14.4284   25.4821 C   0  0  0  0  0  0  0  0  0  0  0  0
    9.2341  -14.8398   25.4711 C   0  0  2  0  0  0  0  0  0  0  0  0
    9.2952  -15.7603   24.2867 N   0  0  0  0  0  0  0  0  0  0  0  0
    9.7116  -15.6079   26.6157 C   0  0  0  0  0  0  0  0  0  0  0  0
    9.0106  -16.6921   27.1202 O   0  0  0  0  0  0  0  0  0  0  0  0
   10.7948  -15.3537   27.2491 O   0  0  0  0  0  0  0  0  0  0  0  0
  2  1  1  6
  2  3  1  0
  4  3  1  0
  4  5  2  0
  6  5  1  0
  7  6  2  0
  8  9  2  0
  8  7  1  0
  9  4  1  0
 10  2  1  0
 11 10  2  0
 13 12  1  0
 14 15  1  0
 14 13  1  0
 16 15  1  6
 16 17  1  0
 17 10  1  0
 18 16  1  0
 18 19  2  0
 20 21  1  0
 22 21  1  0
 24 23  1  1
 23 22  1  0
 24 25  1  0
 25 18  1  0
 26 24  1  0
 27 26  1  0
 28 26  2  0
M  END
$$$$
