FMM.pdb
     RDKit          3D

 28 28  0  0  1  0  0  0  0  0999 V2000
    6.6730  -17.6601   20.6247 N   0  0  0  0  0  0  0  0  0  0  0  0
    6.5849  -17.6344   22.0573 C   0  0  1  0  0  0  0  0  0  0  0  0
    6.9028  -19.0003   22.6641 C   0  0  0  0  0  0  0  0  0  0  0  0
    5.7867  -19.9101   22.3831 C   0  0  0  0  0  0  0  0  0  0  0  0
    5.8184  -20.6952   21.2478 C   0  0  0  0  0  0  0  0  0  0  0  0
    4.7701  -21.5446   20.9925 C   0  0  0  0  0  0  0  0  0  0  0  0
    3.7013  -21.5938   21.8834 C   0  0  0  0  0  0  0  0  0  0  0  0
    3.6844  -20.8009   23.0163 C   0  0  0  0  0  0  0  0  0  0  0  0
    4.7330  -19.9581   23.2623 C   0  0  0  0  0  0  0  0  0  0  0  0
    7.6676  -16.7215   22.5669 C   0  0  0  0  0  0  0  0  0  0  0  0
    8.7425  -16.5411   21.9581 O   0  0  0  0  0  0  0  0  0  0  0  0
    7.5567  -12.0211   27.5100 C   0  0  0  0  0  0  0  0  0  0  0  0
    6.1764  -12.9887   26.8445 S   0  0  0  0  0  0  0  0  0  0  0  0
    6.8944  -14.5229   26.1120 C   0  0  0  0  0  0  0  0  0  0  0  0
    7.8185  -14.0765   25.0455 C   0  0  0  0  0  0  0  0  0  0  0  0
    8.5234  -15.1603   24.2705 C   0  0  2  0  0  0  0  0  0  0  0  0
    7.4310  -16.0554   23.7846 N   0  0  0  0  0  0  0  0  0  0  0  0
    9.4085  -15.9253   25.1622 C   0  0  0  0  0  0  0  0  0  0  0  0
    8.8973  -16.5926   26.1154 O   0  0  0  0  0  0  0  0  0  0  0  0
   13.0549  -15.0337   22.0652 C   0  0  0  0  0  0  0  0  0  0  0  0
   13.7241  -16.6706   22.4113 S   0  0  0  0  0  0  0  0  0  0  0  0
   12.6271  -17.5178   23.5593 C   0  0  0  0  0  0  0  0  0  0  0  0
   12.8399  -17.0732   24.9440 C   0  0  0  0  0  0  0  0  0  0  0  0
   11.6440  -16.8583   25.8296 C   0  0  2  0  0  0  0  0  0  0  0  0
   10.7879  -15.9503   24.9951 N   0  0  0  0  0  0  0  0  0  0  0  0
   11.8727  -16.1644   27.0923 C   0  0  0  0  0  0  0  0  0  0  0  0
   11.3311  -14.9161   27.3561 O   0  0  0  0  0  0  0  0  0  0  0  0
   12.5835  -16.6314   28.0493 O   0  0  0  0  0  0  0  0  0  0  0  0
  2  1  1  6
  2  3  1  0
  4  3  1  0
  4  5  2  0
  6  5  1  0
  7  6  2  0
  8  9  2  0
  8  7  1  0
  9  4  1  0
 10  2  1  0
 11 10  2  0
 13 12  1  0
 14 15  1  0
 14 13  1  0
 16 15  1  1
 16 17  1  0
 17 10  1  0
 18 16  1  0
 18 19  2  0
 20 21  1  0
 22 21  1  0
 24 23  1  6
 23 22  1  0
 24 25  1  0
 25 18  1  0
 26 24  1  0
 27 26  1  0
 28 26  2  0
M  END
$$$$
