FMM.pdb
     RDKit          3D

 28 28  0  0  1  0  0  0  0  0999 V2000
    7.4651  -16.2890   21.1082 N   0  0  0  0  0  0  0  0  0  0  0  0
    8.8732  -16.0397   20.9823 C   0  0  1  0  0  0  0  0  0  0  0  0
    9.1582  -14.5702   20.6755 C   0  0  0  0  0  0  0  0  0  0  0  0
    8.2017  -14.1077   19.6639 C   0  0  0  0  0  0  0  0  0  0  0  0
    8.2453  -12.7957   19.2360 C   0  0  0  0  0  0  0  0  0  0  0  0
    7.3469  -12.3709   18.2884 C   0  0  0  0  0  0  0  0  0  0  0  0
    6.4143  -13.2722   17.7822 C   0  0  0  0  0  0  0  0  0  0  0  0
    6.3834  -14.5833   18.2211 C   0  0  0  0  0  0  0  0  0  0  0  0
    7.2822  -14.9972   19.1651 C   0  0  0  0  0  0  0  0  0  0  0  0
    9.5043  -16.2856   22.3263 C   0  0  0  0  0  0  0  0  0  0  0  0
   10.6200  -16.8297   22.4604 O   0  0  0  0  0  0  0  0  0  0  0  0
    5.8449  -13.4787   26.1398 C   0  0  0  0  0  0  0  0  0  0  0  0
    7.1840  -12.3697   26.6511 S   0  0  0  0  0  0  0  0  0  0  0  0
    8.7506  -13.0581   25.9602 C   0  0  0  0  0  0  0  0  0  0  0  0
    8.3505  -14.1303   25.0216 C   0  0  0  0  0  0  0  0  0  0  0  0
    9.4681  -14.8967   24.3614 C   0  0  2  0  0  0  0  0  0  0  0  0
    8.7834  -15.8743   23.4636 N   0  0  0  0  0  0  0  0  0  0  0  0
   10.2411  -15.6346   25.3723 C   0  0  0  0  0  0  0  0  0  0  0  0
   11.0997  -15.0095   26.0703 O   0  0  0  0  0  0  0  0  0  0  0  0
   10.2854  -13.4404   29.9300 C   0  0  0  0  0  0  0  0  0  0  0  0
   10.3041  -15.2410   29.8656 S   0  0  0  0  0  0  0  0  0  0  0  0
   10.9138  -15.7602   28.2539 C   0  0  0  0  0  0  0  0  0  0  0  0
   10.4435  -17.1077   27.9023 C   0  0  0  0  0  0  0  0  0  0  0  0
   10.8996  -17.7211   26.6076 C   0  0  2  0  0  0  0  0  0  0  0  0
   10.0607  -16.9941   25.5969 N   0  0  0  0  0  0  0  0  0  0  0  0
   10.6323  -19.1429   26.4195 C   0  0  0  0  0  0  0  0  0  0  0  0
   11.4844  -20.1235   26.9028 O   0  0  0  0  0  0  0  0  0  0  0  0
    9.6121  -19.6054   25.7995 O   0  0  0  0  0  0  0  0  0  0  0  0
  2  1  1  1
  2  3  1  0
  4  3  1  0
  4  5  2  0
  6  5  1  0
  7  6  2  0
  8  9  2  0
  8  7  1  0
  9  4  1  0
 10  2  1  0
 11 10  2  0
 13 12  1  0
 14 15  1  0
 14 13  1  0
 16 15  1  1
 16 17  1  0
 17 10  1  0
 18 16  1  0
 18 19  2  0
 20 21  1  0
 22 21  1  0
 24 23  1  1
 23 22  1  0
 24 25  1  0
 25 18  1  0
 26 24  1  0
 27 26  1  0
 28 26  2  0
M  END
$$$$
