FMM.pdb
     RDKit          3D

 28 28  0  0  1  0  0  0  0  0999 V2000
    7.9479  -16.2357   25.4632 N   0  0  0  0  0  0  0  0  0  0  0  0
    6.8125  -16.9447   24.9445 C   0  0  1  0  0  0  0  0  0  0  0  0
    5.5224  -16.1454   25.1216 C   0  0  0  0  0  0  0  0  0  0  0  0
    5.8703  -14.7449   25.3860 C   0  0  0  0  0  0  0  0  0  0  0  0
    7.1963  -14.3604   25.3790 C   0  0  0  0  0  0  0  0  0  0  0  0
    7.5134  -13.0475   25.6267 C   0  0  0  0  0  0  0  0  0  0  0  0
    6.4913  -12.1363   25.8789 C   0  0  0  0  0  0  0  0  0  0  0  0
    5.1678  -12.5371   25.8824 C   0  0  0  0  0  0  0  0  0  0  0  0
    4.8617  -13.8468   25.6345 C   0  0  0  0  0  0  0  0  0  0  0  0
    6.9910  -17.0693   23.4553 C   0  0  0  0  0  0  0  0  0  0  0  0
    6.8000  -18.1376   22.8381 O   0  0  0  0  0  0  0  0  0  0  0  0
    9.3670  -12.0346   19.4071 C   0  0  0  0  0  0  0  0  0  0  0  0
    7.6974  -12.5806   19.8530 S   0  0  0  0  0  0  0  0  0  0  0  0
    7.8633  -13.6839   21.3230 C   0  0  0  0  0  0  0  0  0  0  0  0
    8.3927  -14.9694   20.8153 C   0  0  0  0  0  0  0  0  0  0  0  0
    8.5505  -16.0768   21.8258 C   0  0  2  0  0  0  0  0  0  0  0  0
    7.3912  -15.9160   22.7537 N   0  0  0  0  0  0  0  0  0  0  0  0
    9.7986  -15.8962   22.5829 C   0  0  0  0  0  0  0  0  0  0  0  0
   10.9013  -15.8476   21.9529 O   0  0  0  0  0  0  0  0  0  0  0  0
   12.2691  -15.3558   30.0493 C   0  0  0  0  0  0  0  0  0  0  0  0
   11.0407  -15.0119   28.7766 S   0  0  0  0  0  0  0  0  0  0  0  0
   11.6043  -15.7135   27.2180 C   0  0  0  0  0  0  0  0  0  0  0  0
   10.6524  -15.4540   26.1285 C   0  0  0  0  0  0  0  0  0  0  0  0
   11.1125  -15.6218   24.7070 C   0  0  2  0  0  0  0  0  0  0  0  0
    9.8149  -15.7696   23.9667 N   0  0  0  0  0  0  0  0  0  0  0  0
   11.8989  -16.8123   24.4029 C   0  0  0  0  0  0  0  0  0  0  0  0
   11.3078  -18.0324   24.1144 O   0  0  0  0  0  0  0  0  0  0  0  0
   13.1787  -16.8407   24.3807 O   0  0  0  0  0  0  0  0  0  0  0  0
  2  1  1  6
  2  3  1  0
  4  3  1  0
  4  5  2  0
  6  5  1  0
  7  6  2  0
  8  9  2  0
  8  7  1  0
  9  4  1  0
 10  2  1  0
 11 10  2  0
 13 12  1  0
 14 15  1  0
 14 13  1  0
 16 15  1  6
 16 17  1  0
 17 10  1  0
 18 16  1  0
 18 19  2  0
 20 21  1  0
 22 21  1  0
 24 23  1  1
 23 22  1  0
 24 25  1  0
 25 18  1  0
 26 24  1  0
 27 26  1  0
 28 26  2  0
M  END
$$$$
