FMM.pdb
     RDKit          3D

 28 28  0  0  1  0  0  0  0  0999 V2000
    5.3931  -18.1389   24.9230 N   0  0  0  0  0  0  0  0  0  0  0  0
    5.9781  -16.8588   24.6405 C   0  0  1  0  0  0  0  0  0  0  0  0
    6.5297  -16.2020   25.9051 C   0  0  0  0  0  0  0  0  0  0  0  0
    6.4002  -14.7466   25.7730 C   0  0  0  0  0  0  0  0  0  0  0  0
    7.5315  -13.9770   25.5890 C   0  0  0  0  0  0  0  0  0  0  0  0
    7.4017  -12.6156   25.4656 C   0  0  0  0  0  0  0  0  0  0  0  0
    6.1336  -12.0442   25.5291 C   0  0  0  0  0  0  0  0  0  0  0  0
    5.0099  -12.8289   25.7139 C   0  0  0  0  0  0  0  0  0  0  0  0
    5.1492  -14.1839   25.8357 C   0  0  0  0  0  0  0  0  0  0  0  0
    7.1809  -17.0874   23.7651 C   0  0  0  0  0  0  0  0  0  0  0  0
    7.2304  -17.9923   22.9064 O   0  0  0  0  0  0  0  0  0  0  0  0
    9.0840  -12.3915   19.9707 C   0  0  0  0  0  0  0  0  0  0  0  0
    7.4429  -13.1569   20.0450 S   0  0  0  0  0  0  0  0  0  0  0  0
    7.6721  -14.8661   20.7021 C   0  0  0  0  0  0  0  0  0  0  0  0
    8.0385  -14.7134   22.1280 C   0  0  0  0  0  0  0  0  0  0  0  0
    8.9618  -15.7587   22.6999 C   0  0  2  0  0  0  0  0  0  0  0  0
    8.2828  -16.2295   23.9441 N   0  0  0  0  0  0  0  0  0  0  0  0
   10.2524  -15.1512   23.0592 C   0  0  0  0  0  0  0  0  0  0  0  0
   10.2803  -13.9367   23.4326 O   0  0  0  0  0  0  0  0  0  0  0  0
   10.7262  -14.5797   29.2324 C   0  0  0  0  0  0  0  0  0  0  0  0
   10.6734  -15.7948   27.9029 S   0  0  0  0  0  0  0  0  0  0  0  0
   11.6085  -15.1648   26.5001 C   0  0  0  0  0  0  0  0  0  0  0  0
   11.5235  -16.0647   25.3410 C   0  0  0  0  0  0  0  0  0  0  0  0
   12.4144  -15.8098   24.1570 C   0  0  2  0  0  0  0  0  0  0  0  0
   11.4456  -15.8619   23.0114 N   0  0  0  0  0  0  0  0  0  0  0  0
   13.4407  -16.8074   23.8751 C   0  0  0  0  0  0  0  0  0  0  0  0
   14.7592  -16.6403   24.2687 O   0  0  0  0  0  0  0  0  0  0  0  0
   13.2243  -17.9020   23.2472 O   0  0  0  0  0  0  0  0  0  0  0  0
  2  1  1  1
  2  3  1  0
  4  3  1  0
  4  5  2  0
  6  5  1  0
  7  6  2  0
  8  9  2  0
  8  7  1  0
  9  4  1  0
 10  2  1  0
 11 10  2  0
 13 12  1  0
 14 15  1  0
 14 13  1  0
 16 15  1  1
 16 17  1  0
 17 10  1  0
 18 16  1  0
 18 19  2  0
 20 21  1  0
 22 21  1  0
 24 23  1  1
 23 22  1  0
 24 25  1  0
 25 18  1  0
 26 24  1  0
 27 26  1  0
 28 26  2  0
M  END
$$$$
