FMM.pdb
     RDKit          3D

 28 28  0  0  1  0  0  0  0  0999 V2000
    5.9225  -19.6779   23.3298 N   0  0  0  0  0  0  0  0  0  0  0  0
    6.4680  -18.8353   24.3560 C   0  0  1  0  0  0  0  0  0  0  0  0
    7.7544  -19.4197   24.9376 C   0  0  0  0  0  0  0  0  0  0  0  0
    7.4953  -19.8440   26.3178 C   0  0  0  0  0  0  0  0  0  0  0  0
    7.3129  -21.1843   26.5946 C   0  0  0  0  0  0  0  0  0  0  0  0
    7.0715  -21.5731   27.8893 C   0  0  0  0  0  0  0  0  0  0  0  0
    7.0165  -20.6077   28.8910 C   0  0  0  0  0  0  0  0  0  0  0  0
    7.2013  -19.2690   28.5976 C   0  0  0  0  0  0  0  0  0  0  0  0
    7.4413  -18.8913   27.3052 C   0  0  0  0  0  0  0  0  0  0  0  0
    6.8858  -17.5406   23.7122 C   0  0  0  0  0  0  0  0  0  0  0  0
    7.3673  -17.4815   22.5618 O   0  0  0  0  0  0  0  0  0  0  0  0
    6.8070  -11.0942   25.8681 C   0  0  0  0  0  0  0  0  0  0  0  0
    5.7199  -12.3960   26.5071 S   0  0  0  0  0  0  0  0  0  0  0  0
    6.4556  -14.0115   26.0028 C   0  0  0  0  0  0  0  0  0  0  0  0
    6.5177  -13.9921   24.5241 C   0  0  0  0  0  0  0  0  0  0  0  0
    7.2827  -15.1136   23.8691 C   0  0  2  0  0  0  0  0  0  0  0  0
    6.7152  -16.3614   24.4623 N   0  0  0  0  0  0  0  0  0  0  0  0
    8.7090  -15.0236   24.2174 C   0  0  0  0  0  0  0  0  0  0  0  0
    9.3811  -14.0234   23.8135 O   0  0  0  0  0  0  0  0  0  0  0  0
   10.0723  -14.7461   30.1507 C   0  0  0  0  0  0  0  0  0  0  0  0
   11.2981  -13.9306   29.1119 S   0  0  0  0  0  0  0  0  0  0  0  0
   11.6845  -15.0005   27.7172 C   0  0  0  0  0  0  0  0  0  0  0  0
   10.5390  -15.1438   26.8074 C   0  0  0  0  0  0  0  0  0  0  0  0
   10.7546  -15.7826   25.4636 C   0  0  2  0  0  0  0  0  0  0  0  0
    9.3487  -15.9927   24.9807 N   0  0  0  0  0  0  0  0  0  0  0  0
   11.3957  -17.0929   25.4498 C   0  0  0  0  0  0  0  0  0  0  0  0
   10.6980  -18.2520   25.1480 O   0  0  0  0  0  0  0  0  0  0  0  0
   12.6328  -17.2894   25.7149 O   0  0  0  0  0  0  0  0  0  0  0  0
  2  1  1  6
  2  3  1  0
  4  3  1  0
  4  5  2  0
  6  5  1  0
  7  6  2  0
  8  9  2  0
  8  7  1  0
  9  4  1  0
 10  2  1  0
 11 10  2  0
 13 12  1  0
 14 15  1  0
 14 13  1  0
 16 15  1  1
 16 17  1  0
 17 10  1  0
 18 16  1  0
 18 19  2  0
 20 21  1  0
 22 21  1  0
 24 23  1  1
 23 22  1  0
 24 25  1  0
 25 18  1  0
 26 24  1  0
 27 26  1  0
 28 26  2  0
M  END
$$$$
