FMM.pdb
     RDKit          3D

 28 28  0  0  1  0  0  0  0  0999 V2000
    6.8742  -21.5031   21.5479 N   0  0  0  0  0  0  0  0  0  0  0  0
    6.4318  -20.4773   22.4496 C   0  0  1  0  0  0  0  0  0  0  0  0
    6.7386  -20.8364   23.9027 C   0  0  0  0  0  0  0  0  0  0  0  0
    5.8132  -21.8911   24.3312 C   0  0  0  0  0  0  0  0  0  0  0  0
    4.4607  -21.6226   24.4001 C   0  0  0  0  0  0  0  0  0  0  0  0
    3.6012  -22.6155   24.8014 C   0  0  0  0  0  0  0  0  0  0  0  0
    4.1135  -23.8680   25.1290 C   0  0  0  0  0  0  0  0  0  0  0  0
    5.4710  -24.1212   25.0548 C   0  0  0  0  0  0  0  0  0  0  0  0
    6.3193  -23.1261   24.6540 C   0  0  0  0  0  0  0  0  0  0  0  0
    7.2467  -19.2422   22.1742 C   0  0  0  0  0  0  0  0  0  0  0  0
    8.4246  -19.2867   21.7628 O   0  0  0  0  0  0  0  0  0  0  0  0
    7.6742  -11.7172   21.6848 C   0  0  0  0  0  0  0  0  0  0  0  0
    6.8381  -13.2138   22.2727 S   0  0  0  0  0  0  0  0  0  0  0  0
    7.1663  -14.5399   21.0319 C   0  0  0  0  0  0  0  0  0  0  0  0
    6.5427  -15.7700   21.5692 C   0  0  0  0  0  0  0  0  0  0  0  0
    7.4766  -16.7888   22.1710 C   0  0  2  0  0  0  0  0  0  0  0  0
    6.6289  -17.9972   22.3990 N   0  0  0  0  0  0  0  0  0  0  0  0
    7.9832  -16.3079   23.4655 C   0  0  0  0  0  0  0  0  0  0  0  0
    7.1969  -16.2784   24.4636 O   0  0  0  0  0  0  0  0  0  0  0  0
    8.0060  -10.7115   25.0195 C   0  0  0  0  0  0  0  0  0  0  0  0
    7.4878  -11.9832   26.1861 S   0  0  0  0  0  0  0  0  0  0  0  0
    8.7472  -13.2675   26.2457 C   0  0  0  0  0  0  0  0  0  0  0  0
    8.7459  -14.0880   25.0262 C   0  0  0  0  0  0  0  0  0  0  0  0
    9.7264  -15.2221   24.9131 C   0  0  2  0  0  0  0  0  0  0  0  0
    9.2970  -15.8896   23.6388 N   0  0  0  0  0  0  0  0  0  0  0  0
    9.6766  -16.2452   25.9518 C   0  0  0  0  0  0  0  0  0  0  0  0
   10.3292  -16.0960   27.1655 O   0  0  0  0  0  0  0  0  0  0  0  0
    9.0443  -17.3527   25.8385 O   0  0  0  0  0  0  0  0  0  0  0  0
  2  1  1  6
  2  3  1  0
  4  3  1  0
  4  5  2  0
  6  5  1  0
  7  6  2  0
  8  9  2  0
  8  7  1  0
  9  4  1  0
 10  2  1  0
 11 10  2  0
 13 12  1  0
 14 15  1  0
 14 13  1  0
 16 15  1  1
 16 17  1  0
 17 10  1  0
 18 16  1  0
 18 19  2  0
 20 21  1  0
 22 21  1  0
 24 23  1  1
 23 22  1  0
 24 25  1  0
 25 18  1  0
 26 24  1  0
 27 26  1  0
 28 26  2  0
M  END
$$$$
