ENS.pdb
     RDKit          3D

 24 23  0  0  1  0  0  0  0  0999 V2000
   17.7862  -11.0442  -14.9298 N   0  0  0  0  0  0  0  0  0  0  0  0
   18.8517  -10.3507  -15.6269 C   0  0  1  0  0  0  0  0  0  0  0  0
   18.5022  -10.2932  -17.0941 C   0  0  0  0  0  0  0  0  0  0  0  0
   18.5575  -11.7145  -17.6138 C   0  0  0  0  0  0  0  0  0  0  0  0
   18.2237  -11.7726  -19.0452 C   0  0  0  0  0  0  0  0  0  0  0  0
   18.7214  -12.6942  -19.7371 O   0  0  0  0  0  0  0  0  0  0  0  0
   18.9881   -9.0131  -15.0156 C   0  0  0  0  0  0  0  0  0  0  0  0
   18.0171   -8.4602  -14.4432 O   0  0  0  0  0  0  0  0  0  0  0  0
   17.3892  -10.8632  -19.6682 O   0  0  0  0  0  0  0  0  0  0  0  0
   20.7931   -4.4523  -13.5323 N   0  0  0  0  0  0  0  0  0  0  0  0
   21.8262   -5.4141  -13.3565 C   0  0  0  0  0  0  0  0  0  0  0  0
   22.8345   -4.9881  -12.7015 O   0  0  0  0  0  0  0  0  0  0  0  0
   21.7227   -6.7910  -13.8960 C   0  0  0  0  0  0  0  0  0  0  0  0
   20.3867   -6.9326  -14.5735 C   0  0  2  0  0  0  0  0  0  0  0  0
   20.2303   -8.2831  -15.0455 N   0  0  0  0  0  0  0  0  0  0  0  0
   20.2321   -5.9394  -15.6831 C   0  0  0  0  0  0  0  0  0  0  0  0
   21.0078   -6.0795  -16.6492 O   0  0  0  0  0  0  0  0  0  0  0  0
   16.7410   -4.7002  -16.9107 O   0  0  0  0  0  0  0  0  0  0  0  0
   17.6115   -3.5896  -16.9168 C   0  0  0  0  0  0  0  0  0  0  0  0
   19.0282   -4.0107  -16.7472 C   0  0  2  0  0  0  0  0  0  0  0  0
   19.2861   -4.9074  -15.6666 N   0  0  0  0  0  0  0  0  0  0  0  0
   19.9530   -2.8339  -16.7938 C   0  0  0  0  0  0  0  0  0  0  0  0
   20.0026   -1.8986  -17.7937 O   0  0  0  0  0  0  0  0  0  0  0  0
   20.7765   -2.6589  -15.8298 O   0  0  0  0  0  0  0  0  0  0  0  0
  2  1  1  1
  3  2  1  0
  4  3  1  0
  5  6  2  0
  5  4  1  0
  7  8  2  0
  7  2  1  0
  9  5  1  0
 11 10  1  0
 11 13  1  0
 12 11  2  0
 14 13  1  6
 14 15  1  0
 15  7  1  0
 16 14  1  0
 17 16  2  0
 20 19  1  1
 19 18  1  0
 20 21  1  0
 21 16  1  0
 22 20  1  0
 22 23  1  0
 24 22  2  0
M  END
$$$$
