ENS.pdb
     RDKit          3D

 24 23  0  0  1  0  0  0  0  0999 V2000
   19.8385   -9.8443  -15.9273 N   0  0  0  0  0  0  0  0  0  0  0  0
   20.3400   -8.7887  -16.7855 C   0  0  1  0  0  0  0  0  0  0  0  0
   20.4997   -9.3442  -18.1797 C   0  0  0  0  0  0  0  0  0  0  0  0
   21.6006  -10.3820  -18.1146 C   0  0  0  0  0  0  0  0  0  0  0  0
   21.8855  -10.9419  -19.4447 C   0  0  0  0  0  0  0  0  0  0  0  0
   23.0693  -10.9169  -19.8616 O   0  0  0  0  0  0  0  0  0  0  0  0
   19.3811   -7.6672  -16.7199 C   0  0  0  0  0  0  0  0  0  0  0  0
   18.2077   -7.7919  -17.1485 O   0  0  0  0  0  0  0  0  0  0  0  0
   20.9153  -11.4948  -20.2597 O   0  0  0  0  0  0  0  0  0  0  0  0
   16.9428   -3.3278  -15.8763 N   0  0  0  0  0  0  0  0  0  0  0  0
   16.7769   -4.4827  -15.0626 C   0  0  0  0  0  0  0  0  0  0  0  0
   15.7441   -4.4540  -14.3145 O   0  0  0  0  0  0  0  0  0  0  0  0
   17.7335   -5.6147  -15.0945 C   0  0  0  0  0  0  0  0  0  0  0  0
   18.8392   -5.2704  -16.0552 C   0  0  2  0  0  0  0  0  0  0  0  0
   19.7412   -6.3863  -16.1662 N   0  0  0  0  0  0  0  0  0  0  0  0
   19.5540   -4.0232  -15.6368 C   0  0  0  0  0  0  0  0  0  0  0  0
   20.1200   -4.0681  -14.5268 O   0  0  0  0  0  0  0  0  0  0  0  0
   21.4253    0.2986  -16.9780 O   0  0  0  0  0  0  0  0  0  0  0  0
   20.4774   -0.7094  -17.2548 C   0  0  0  0  0  0  0  0  0  0  0  0
   20.4773   -1.7576  -16.1991 C   0  0  2  0  0  0  0  0  0  0  0  0
   19.6020   -2.8637  -16.4200 N   0  0  0  0  0  0  0  0  0  0  0  0
   20.3593   -1.1527  -14.8344 C   0  0  0  0  0  0  0  0  0  0  0  0
   19.1869   -0.8160  -14.2106 O   0  0  0  0  0  0  0  0  0  0  0  0
   21.4276   -0.9220  -14.1684 O   0  0  0  0  0  0  0  0  0  0  0  0
  2  1  1  1
  3  2  1  0
  4  3  1  0
  5  6  2  0
  5  4  1  0
  7  8  2  0
  7  2  1  0
  9  5  1  0
 11 10  1  0
 11 13  1  0
 12 11  2  0
 14 13  1  1
 14 15  1  0
 15  7  1  0
 16 14  1  0
 17 16  2  0
 20 19  1  6
 19 18  1  0
 20 21  1  0
 21 16  1  0
 22 20  1  0
 22 23  1  0
 24 22  2  0
M  END
$$$$
