ENS.pdb
     RDKit          3D

 24 23  0  0  1  0  0  0  0  0999 V2000
   15.4152   -6.4654   -9.5884 N   0  0  0  0  0  0  0  0  0  0  0  0
   16.3213   -7.4625  -10.1240 C   0  0  1  0  0  0  0  0  0  0  0  0
   15.5023   -8.5420  -10.7888 C   0  0  0  0  0  0  0  0  0  0  0  0
   15.1986   -9.5783   -9.7272 C   0  0  0  0  0  0  0  0  0  0  0  0
   14.2088  -10.5564  -10.2038 C   0  0  0  0  0  0  0  0  0  0  0  0
   13.6041  -10.3184  -11.2778 O   0  0  0  0  0  0  0  0  0  0  0  0
   17.2364   -6.7772  -11.0591 C   0  0  0  0  0  0  0  0  0  0  0  0
   17.0103   -5.6038  -11.4440 O   0  0  0  0  0  0  0  0  0  0  0  0
   13.9101  -11.7254   -9.5288 O   0  0  0  0  0  0  0  0  0  0  0  0
   22.4052   -5.0518  -12.5626 N   0  0  0  0  0  0  0  0  0  0  0  0
   20.9903   -5.0159  -12.7044 C   0  0  0  0  0  0  0  0  0  0  0  0
   20.5808   -4.3629  -13.7208 O   0  0  0  0  0  0  0  0  0  0  0  0
   20.0834   -5.6865  -11.7424 C   0  0  0  0  0  0  0  0  0  0  0  0
   19.3566   -6.7863  -12.4679 C   0  0  2  0  0  0  0  0  0  0  0  0
   18.4229   -7.4151  -11.5714 N   0  0  0  0  0  0  0  0  0  0  0  0
   20.3145   -7.7781  -13.0510 C   0  0  0  0  0  0  0  0  0  0  0  0
   20.7754   -8.6203  -12.2554 O   0  0  0  0  0  0  0  0  0  0  0  0
   19.8940  -11.0723  -15.8846 O   0  0  0  0  0  0  0  0  0  0  0  0
   19.6796   -9.9378  -15.0733 C   0  0  0  0  0  0  0  0  0  0  0  0
   20.7818   -8.9497  -15.2214 C   0  0  2  0  0  0  0  0  0  0  0  0
   20.6891   -7.7857  -14.3999 N   0  0  0  0  0  0  0  0  0  0  0  0
   21.0558   -8.6550  -16.6638 C   0  0  0  0  0  0  0  0  0  0  0  0
   22.0616   -9.2067  -17.4127 O   0  0  0  0  0  0  0  0  0  0  0  0
   20.3007   -7.8232  -17.2768 O   0  0  0  0  0  0  0  0  0  0  0  0
  2  1  1  6
  3  2  1  0
  4  3  1  0
  5  6  2  0
  5  4  1  0
  7  8  2  0
  7  2  1  0
  9  5  1  0
 11 10  1  0
 11 13  1  0
 12 11  2  0
 14 13  1  1
 14 15  1  0
 15  7  1  0
 16 14  1  0
 17 16  2  0
 20 19  1  6
 19 18  1  0
 20 21  1  0
 21 16  1  0
 22 20  1  0
 22 23  1  0
 24 22  2  0
M  END
$$$$
