ENS.pdb
     RDKit          3D

 24 23  0  0  1  0  0  0  0  0999 V2000
   14.7072  -11.1839  -11.3334 N   0  0  0  0  0  0  0  0  0  0  0  0
   15.7208  -10.1887  -11.0432 C   0  0  1  0  0  0  0  0  0  0  0  0
   16.4495   -9.8637  -12.3244 C   0  0  0  0  0  0  0  0  0  0  0  0
   17.2352  -11.1003  -12.7074 C   0  0  0  0  0  0  0  0  0  0  0  0
   18.0224  -10.8750  -13.9295 C   0  0  0  0  0  0  0  0  0  0  0  0
   18.7412  -11.8110  -14.3572 O   0  0  0  0  0  0  0  0  0  0  0  0
   15.0401   -9.0168  -10.4559 C   0  0  0  0  0  0  0  0  0  0  0  0
   13.9107   -8.6513  -10.8646 O   0  0  0  0  0  0  0  0  0  0  0  0
   18.0110   -9.6841  -14.6316 O   0  0  0  0  0  0  0  0  0  0  0  0
   13.9150   -4.8058   -7.8106 N   0  0  0  0  0  0  0  0  0  0  0  0
   14.3310   -5.8331   -6.9191 C   0  0  0  0  0  0  0  0  0  0  0  0
   14.1007   -5.5861   -5.6890 O   0  0  0  0  0  0  0  0  0  0  0  0
   14.9763   -7.0792   -7.3970 C   0  0  0  0  0  0  0  0  0  0  0  0
   15.0904   -7.0061   -8.8956 C   0  0  2  0  0  0  0  0  0  0  0  0
   15.6326   -8.2421   -9.3949 N   0  0  0  0  0  0  0  0  0  0  0  0
   15.9141   -5.8308   -9.3212 C   0  0  0  0  0  0  0  0  0  0  0  0
   17.1208   -5.8720   -9.0097 O   0  0  0  0  0  0  0  0  0  0  0  0
   17.4942   -2.7868  -12.3504 O   0  0  0  0  0  0  0  0  0  0  0  0
   16.6825   -3.8671  -11.9435 C   0  0  0  0  0  0  0  0  0  0  0  0
   16.1616   -3.6642  -10.5649 C   0  0  2  0  0  0  0  0  0  0  0  0
   15.3922   -4.7391  -10.0255 N   0  0  0  0  0  0  0  0  0  0  0  0
   15.5135   -2.3219  -10.4221 C   0  0  0  0  0  0  0  0  0  0  0  0
   16.1600   -1.1533  -10.1167 O   0  0  0  0  0  0  0  0  0  0  0  0
   14.2494   -2.2264  -10.5977 O   0  0  0  0  0  0  0  0  0  0  0  0
  2  1  1  6
  3  2  1  0
  4  3  1  0
  5  6  2  0
  5  4  1  0
  7  8  2  0
  7  2  1  0
  9  5  1  0
 11 10  1  0
 11 13  1  0
 12 11  2  0
 14 13  1  1
 14 15  1  0
 15  7  1  0
 16 14  1  0
 17 16  2  0
 20 19  1  6
 19 18  1  0
 20 21  1  0
 21 16  1  0
 22 20  1  0
 22 23  1  0
 24 22  2  0
M  END
$$$$
