ENS.pdb
     RDKit          3D

 24 23  0  0  1  0  0  0  0  0999 V2000
   19.0573  -11.4893  -18.1971 N   0  0  0  0  0  0  0  0  0  0  0  0
   18.2728  -10.5885  -17.3753 C   0  0  1  0  0  0  0  0  0  0  0  0
   18.1476  -11.1892  -15.9963 C   0  0  0  0  0  0  0  0  0  0  0  0
   17.1055  -12.2840  -16.0881 C   0  0  0  0  0  0  0  0  0  0  0  0
   16.8511  -12.8903  -14.7723 C   0  0  0  0  0  0  0  0  0  0  0  0
   16.0026  -12.3509  -14.0207 O   0  0  0  0  0  0  0  0  0  0  0  0
   18.9558   -9.2788  -17.3719 C   0  0  0  0  0  0  0  0  0  0  0  0
   20.2082   -9.2011  -17.4115 O   0  0  0  0  0  0  0  0  0  0  0  0
   17.4993  -14.0249  -14.3206 O   0  0  0  0  0  0  0  0  0  0  0  0
   19.8925   -4.2702  -17.8582 N   0  0  0  0  0  0  0  0  0  0  0  0
   18.5011   -4.4416  -18.0988 C   0  0  0  0  0  0  0  0  0  0  0  0
   17.9118   -3.3990  -18.5378 O   0  0  0  0  0  0  0  0  0  0  0  0
   17.8108   -5.7305  -17.8544 C   0  0  0  0  0  0  0  0  0  0  0  0
   18.8357   -6.7363  -17.4049 C   0  0  2  0  0  0  0  0  0  0  0  0
   18.2257   -8.0373  -17.3236 N   0  0  0  0  0  0  0  0  0  0  0  0
   19.4555   -6.3356  -16.1023 C   0  0  0  0  0  0  0  0  0  0  0  0
   18.6929   -6.3338  -15.1158 O   0  0  0  0  0  0  0  0  0  0  0  0
   22.1338   -7.9148  -14.1565 O   0  0  0  0  0  0  0  0  0  0  0  0
   22.5828   -6.5938  -14.3681 C   0  0  0  0  0  0  0  0  0  0  0  0
   21.4580   -5.6910  -14.7326 C   0  0  2  0  0  0  0  0  0  0  0  0
   20.8029   -5.9799  -15.9678 N   0  0  0  0  0  0  0  0  0  0  0  0
   21.8426   -4.2529  -14.5709 C   0  0  0  0  0  0  0  0  0  0  0  0
   22.2623   -3.6664  -13.4060 O   0  0  0  0  0  0  0  0  0  0  0  0
   21.7878   -3.4820  -15.5911 O   0  0  0  0  0  0  0  0  0  0  0  0
  2  1  1  6
  3  2  1  0
  4  3  1  0
  5  6  2  0
  5  4  1  0
  7  8  2  0
  7  2  1  0
  9  5  1  0
 11 10  1  0
 11 13  1  0
 12 11  2  0
 14 13  1  1
 14 15  1  0
 15  7  1  0
 16 14  1  0
 17 16  2  0
 20 19  1  6
 19 18  1  0
 20 21  1  0
 21 16  1  0
 22 20  1  0
 22 23  1  0
 24 22  2  0
M  END
$$$$
