ENS.pdb
     RDKit          3D

 24 23  0  0  1  0  0  0  0  0999 V2000
   19.7272  -11.5264  -15.2710 N   0  0  0  0  0  0  0  0  0  0  0  0
   19.1193  -10.4537  -16.0339 C   0  0  1  0  0  0  0  0  0  0  0  0
   17.6726  -10.8059  -16.2811 C   0  0  0  0  0  0  0  0  0  0  0  0
   17.6653  -12.0043  -17.2068 C   0  0  0  0  0  0  0  0  0  0  0  0
   17.6939  -13.2645  -16.4486 C   0  0  0  0  0  0  0  0  0  0  0  0
   18.6762  -14.0310  -16.6018 O   0  0  0  0  0  0  0  0  0  0  0  0
   19.2831   -9.2069  -15.2592 C   0  0  0  0  0  0  0  0  0  0  0  0
   18.6587   -9.0245  -14.1854 O   0  0  0  0  0  0  0  0  0  0  0  0
   16.6935  -13.6482  -15.5750 O   0  0  0  0  0  0  0  0  0  0  0  0
   20.8922   -4.7000  -13.4912 N   0  0  0  0  0  0  0  0  0  0  0  0
   21.9991   -5.4841  -13.9193 C   0  0  0  0  0  0  0  0  0  0  0  0
   23.1339   -5.0419  -13.5399 O   0  0  0  0  0  0  0  0  0  0  0  0
   21.8295   -6.7089  -14.7369 C   0  0  0  0  0  0  0  0  0  0  0  0
   20.3583   -6.9172  -14.9743 C   0  0  2  0  0  0  0  0  0  0  0  0
   20.1592   -8.1481  -15.6929 N   0  0  0  0  0  0  0  0  0  0  0  0
   19.7542   -5.7532  -15.6964 C   0  0  0  0  0  0  0  0  0  0  0  0
   20.1911   -5.5404  -16.8447 O   0  0  0  0  0  0  0  0  0  0  0  0
   16.2210   -2.4511  -16.1516 O   0  0  0  0  0  0  0  0  0  0  0  0
   16.7493   -3.5242  -15.4029 C   0  0  0  0  0  0  0  0  0  0  0  0
   18.1509   -3.8244  -15.8010 C   0  0  2  0  0  0  0  0  0  0  0  0
   18.7601   -4.9363  -15.1446 N   0  0  0  0  0  0  0  0  0  0  0  0
   18.9914   -2.5851  -15.8029 C   0  0  0  0  0  0  0  0  0  0  0  0
   19.2177   -1.7774  -16.8861 O   0  0  0  0  0  0  0  0  0  0  0  0
   19.5567   -2.2225  -14.7134 O   0  0  0  0  0  0  0  0  0  0  0  0
  2  1  1  1
  3  2  1  0
  4  3  1  0
  5  6  2  0
  5  4  1  0
  7  8  2  0
  7  2  1  0
  9  5  1  0
 11 10  1  0
 11 13  1  0
 12 11  2  0
 14 13  1  6
 14 15  1  0
 15  7  1  0
 16 14  1  0
 17 16  2  0
 20 19  1  1
 19 18  1  0
 20 21  1  0
 21 16  1  0
 22 20  1  0
 22 23  1  0
 24 22  2  0
M  END
$$$$
