ENS.pdb
     RDKit          3D

 24 23  0  0  1  0  0  0  0  0999 V2000
   12.1655  -11.5119  -10.2577 N   0  0  0  0  0  0  0  0  0  0  0  0
   13.5900  -11.2420  -10.2488 C   0  0  1  0  0  0  0  0  0  0  0  0
   14.1954  -11.8383  -11.4961 C   0  0  0  0  0  0  0  0  0  0  0  0
   14.2210  -13.3392  -11.2965 C   0  0  0  0  0  0  0  0  0  0  0  0
   14.6844  -14.0310  -12.5091 C   0  0  0  0  0  0  0  0  0  0  0  0
   13.8485  -14.6856  -13.1789 O   0  0  0  0  0  0  0  0  0  0  0  0
   13.7661   -9.7777  -10.1678 C   0  0  0  0  0  0  0  0  0  0  0  0
   12.8968   -8.9944  -10.6227 O   0  0  0  0  0  0  0  0  0  0  0  0
   15.9946  -13.9971  -12.9492 O   0  0  0  0  0  0  0  0  0  0  0  0
   15.6429   -5.0926   -9.3120 N   0  0  0  0  0  0  0  0  0  0  0  0
   15.5740   -5.8501   -8.1100 C   0  0  0  0  0  0  0  0  0  0  0  0
   15.7212   -5.1616   -7.0463 O   0  0  0  0  0  0  0  0  0  0  0  0
   15.3494   -7.3154   -8.1123 C   0  0  0  0  0  0  0  0  0  0  0  0
   15.1938   -7.7661   -9.5394 C   0  0  2  0  0  0  0  0  0  0  0  0
   14.9330   -9.1812   -9.5685 N   0  0  0  0  0  0  0  0  0  0  0  0
   16.3972   -7.4105  -10.3559 C   0  0  0  0  0  0  0  0  0  0  0  0
   17.4943   -7.7877   -9.8990 O   0  0  0  0  0  0  0  0  0  0  0  0
   16.5948   -7.2712  -14.4553 O   0  0  0  0  0  0  0  0  0  0  0  0
   17.6705   -7.3099  -13.5428 C   0  0  0  0  0  0  0  0  0  0  0  0
   17.4424   -6.3890  -12.3970 C   0  0  2  0  0  0  0  0  0  0  0  0
   16.3281   -6.7001  -11.5604 N   0  0  0  0  0  0  0  0  0  0  0  0
   17.4933   -4.9574  -12.8334 C   0  0  0  0  0  0  0  0  0  0  0  0
   18.5627   -4.3441  -13.4309 O   0  0  0  0  0  0  0  0  0  0  0  0
   16.4637   -4.2200  -12.6483 O   0  0  0  0  0  0  0  0  0  0  0  0
  2  1  1  6
  3  2  1  0
  4  3  1  0
  5  6  2  0
  5  4  1  0
  7  8  2  0
  7  2  1  0
  9  5  1  0
 11 10  1  0
 11 13  1  0
 12 11  2  0
 14 13  1  1
 14 15  1  0
 15  7  1  0
 16 14  1  0
 17 16  2  0
 20 19  1  6
 19 18  1  0
 20 21  1  0
 21 16  1  0
 22 20  1  0
 22 23  1  0
 24 22  2  0
M  END
$$$$
