ENS.pdb
     RDKit          3D

 24 23  0  0  1  0  0  0  0  0999 V2000
   20.7493  -11.9212  -16.7588 N   0  0  0  0  0  0  0  0  0  0  0  0
   20.2253  -10.6958  -17.3297 C   0  0  1  0  0  0  0  0  0  0  0  0
   18.7295  -10.8385  -17.4720 C   0  0  0  0  0  0  0  0  0  0  0  0
   18.4867  -11.7392  -18.6650 C   0  0  0  0  0  0  0  0  0  0  0  0
   17.8929  -10.9930  -19.7850 C   0  0  0  0  0  0  0  0  0  0  0  0
   18.2666  -11.2696  -20.9510 O   0  0  0  0  0  0  0  0  0  0  0  0
   20.6144   -9.5855  -16.4367 C   0  0  0  0  0  0  0  0  0  0  0  0
   20.3633   -9.6244  -15.2072 O   0  0  0  0  0  0  0  0  0  0  0  0
   16.9436  -10.0018  -19.6189 O   0  0  0  0  0  0  0  0  0  0  0  0
   22.3473   -5.0526  -14.7081 N   0  0  0  0  0  0  0  0  0  0  0  0
   23.3736   -5.8066  -15.3416 C   0  0  0  0  0  0  0  0  0  0  0  0
   24.5560   -5.3997  -15.0896 O   0  0  0  0  0  0  0  0  0  0  0  0
   23.0758   -6.9649  -16.2176 C   0  0  0  0  0  0  0  0  0  0  0  0
   21.6036   -7.2611  -16.1230 C   0  0  2  0  0  0  0  0  0  0  0  0
   21.2949   -8.4138  -16.9275 N   0  0  0  0  0  0  0  0  0  0  0  0
   20.7836   -6.0740  -16.5229 C   0  0  0  0  0  0  0  0  0  0  0  0
   20.8931   -5.7139  -17.7116 O   0  0  0  0  0  0  0  0  0  0  0  0
   17.2886   -4.7954  -14.4782 O   0  0  0  0  0  0  0  0  0  0  0  0
   17.6164   -4.5664  -15.8315 C   0  0  0  0  0  0  0  0  0  0  0  0
   19.0724   -4.3130  -16.0009 C   0  0  2  0  0  0  0  0  0  0  0  0
   19.9379   -5.3900  -15.6413 N   0  0  0  0  0  0  0  0  0  0  0  0
   19.4657   -2.9945  -15.4099 C   0  0  0  0  0  0  0  0  0  0  0  0
   18.9582   -1.7750  -15.7736 O   0  0  0  0  0  0  0  0  0  0  0  0
   20.3466   -2.9736  -14.4817 O   0  0  0  0  0  0  0  0  0  0  0  0
  2  1  1  1
  3  2  1  0
  4  3  1  0
  5  6  2  0
  5  4  1  0
  7  8  2  0
  7  2  1  0
  9  5  1  0
 11 10  1  0
 11 13  1  0
 12 11  2  0
 14 13  1  6
 14 15  1  0
 15  7  1  0
 16 14  1  0
 17 16  2  0
 20 19  1  1
 19 18  1  0
 20 21  1  0
 21 16  1  0
 22 20  1  0
 22 23  1  0
 24 22  2  0
M  END
$$$$
