ENS.pdb
     RDKit          3D

 24 23  0  0  1  0  0  0  0  0999 V2000
   18.7167  -11.2510  -18.4194 N   0  0  0  0  0  0  0  0  0  0  0  0
   17.9747  -10.4127  -17.4980 C   0  0  1  0  0  0  0  0  0  0  0  0
   17.9029  -11.1176  -16.1654 C   0  0  0  0  0  0  0  0  0  0  0  0
   16.9622  -12.2913  -16.3405 C   0  0  0  0  0  0  0  0  0  0  0  0
   16.8814  -13.0982  -15.1132 C   0  0  0  0  0  0  0  0  0  0  0  0
   17.8952  -13.7477  -14.7583 O   0  0  0  0  0  0  0  0  0  0  0  0
   18.6676   -9.1105  -17.4229 C   0  0  0  0  0  0  0  0  0  0  0  0
   19.8604   -8.9887  -17.7951 O   0  0  0  0  0  0  0  0  0  0  0  0
   15.7449  -13.1778  -14.3300 O   0  0  0  0  0  0  0  0  0  0  0  0
   16.0842   -5.6350  -19.0650 N   0  0  0  0  0  0  0  0  0  0  0  0
   17.4056   -5.5716  -18.5422 C   0  0  0  0  0  0  0  0  0  0  0  0
   18.3204   -5.5332  -19.4303 O   0  0  0  0  0  0  0  0  0  0  0  0
   17.6777   -5.5526  -17.0851 C   0  0  0  0  0  0  0  0  0  0  0  0
   18.6608   -6.6487  -16.7750 C   0  0  2  0  0  0  0  0  0  0  0  0
   18.0153   -7.9264  -16.9235 N   0  0  0  0  0  0  0  0  0  0  0  0
   19.2464   -6.4825  -15.4072 C   0  0  0  0  0  0  0  0  0  0  0  0
   18.6737   -7.1060  -14.4918 O   0  0  0  0  0  0  0  0  0  0  0  0
   22.2137   -6.8394  -12.1587 O   0  0  0  0  0  0  0  0  0  0  0  0
   21.5681   -6.9702  -13.4067 C   0  0  0  0  0  0  0  0  0  0  0  0
   21.0796   -5.6561  -13.9044 C   0  0  2  0  0  0  0  0  0  0  0  0
   20.3656   -5.6847  -15.1404 N   0  0  0  0  0  0  0  0  0  0  0  0
   22.1598   -4.6204  -13.8508 C   0  0  0  0  0  0  0  0  0  0  0  0
   22.5689   -3.9532  -12.7263 O   0  0  0  0  0  0  0  0  0  0  0  0
   22.7732   -4.3135  -14.9313 O   0  0  0  0  0  0  0  0  0  0  0  0
  2  1  1  6
  3  2  1  0
  4  3  1  0
  5  6  2  0
  5  4  1  0
  7  8  2  0
  7  2  1  0
  9  5  1  0
 11 10  1  0
 11 13  1  0
 12 11  2  0
 14 13  1  1
 14 15  1  0
 15  7  1  0
 16 14  1  0
 17 16  2  0
 20 19  1  6
 19 18  1  0
 20 21  1  0
 21 16  1  0
 22 20  1  0
 22 23  1  0
 24 22  2  0
M  END
$$$$
