ENS.pdb
     RDKit          3D

 24 23  0  0  1  0  0  0  0  0999 V2000
   18.9064  -10.7017  -17.5642 N   0  0  0  0  0  0  0  0  0  0  0  0
   18.4591  -10.0410  -16.3536 C   0  0  1  0  0  0  0  0  0  0  0  0
   18.0465  -11.0984  -15.3587 C   0  0  0  0  0  0  0  0  0  0  0  0
   17.6405  -12.3183  -16.1588 C   0  0  0  0  0  0  0  0  0  0  0  0
   17.2942  -13.4437  -15.2771 C   0  0  0  0  0  0  0  0  0  0  0  0
   18.2252  -14.0647  -14.7085 O   0  0  0  0  0  0  0  0  0  0  0  0
   19.5708   -9.1981  -15.8687 C   0  0  0  0  0  0  0  0  0  0  0  0
   19.4968   -8.5982  -14.7683 O   0  0  0  0  0  0  0  0  0  0  0  0
   15.9946  -13.8529  -15.0426 O   0  0  0  0  0  0  0  0  0  0  0  0
   24.2047   -7.0987  -15.2701 N   0  0  0  0  0  0  0  0  0  0  0  0
   24.2995   -7.9186  -16.4286 C   0  0  0  0  0  0  0  0  0  0  0  0
   25.4701   -7.9843  -16.9311 O   0  0  0  0  0  0  0  0  0  0  0  0
   23.1263   -8.6295  -16.9905 C   0  0  0  0  0  0  0  0  0  0  0  0
   21.9160   -8.2575  -16.1775 C   0  0  2  0  0  0  0  0  0  0  0  0
   20.7837   -9.0238  -16.6271 N   0  0  0  0  0  0  0  0  0  0  0  0
   21.6476   -6.7862  -16.2445 C   0  0  0  0  0  0  0  0  0  0  0  0
   21.6166   -6.2913  -17.3886 O   0  0  0  0  0  0  0  0  0  0  0  0
   19.0993   -4.5723  -13.8734 O   0  0  0  0  0  0  0  0  0  0  0  0
   19.6895   -4.2458  -15.1130 C   0  0  0  0  0  0  0  0  0  0  0  0
   21.1356   -4.5943  -15.1331 C   0  0  2  0  0  0  0  0  0  0  0  0
   21.4403   -5.9889  -15.1125 N   0  0  0  0  0  0  0  0  0  0  0  0
   21.9012   -3.7903  -14.1282 C   0  0  0  0  0  0  0  0  0  0  0  0
   21.8747   -2.4254  -14.0126 O   0  0  0  0  0  0  0  0  0  0  0  0
   22.6503   -4.4030  -13.2907 O   0  0  0  0  0  0  0  0  0  0  0  0
  2  1  1  6
  3  2  1  0
  4  3  1  0
  5  6  2  0
  5  4  1  0
  7  8  2  0
  7  2  1  0
  9  5  1  0
 11 10  1  0
 11 13  1  0
 12 11  2  0
 14 13  1  6
 14 15  1  0
 15  7  1  0
 16 14  1  0
 17 16  2  0
 20 19  1  1
 19 18  1  0
 20 21  1  0
 21 16  1  0
 22 20  1  0
 22 23  1  0
 24 22  2  0
M  END
$$$$
