ENS.pdb
     RDKit          3D

 24 23  0  0  1  0  0  0  0  0999 V2000
   15.8395  -12.3769  -15.3510 N   0  0  0  0  0  0  0  0  0  0  0  0
   17.2768  -12.1860  -15.3470 C   0  0  1  0  0  0  0  0  0  0  0  0
   17.8922  -13.1839  -16.2976 C   0  0  0  0  0  0  0  0  0  0  0  0
   17.5546  -14.5612  -15.7662 C   0  0  0  0  0  0  0  0  0  0  0  0
   18.1461  -15.6160  -16.6036 C   0  0  0  0  0  0  0  0  0  0  0  0
   19.2044  -16.1658  -16.2117 O   0  0  0  0  0  0  0  0  0  0  0  0
   17.5419  -10.7853  -15.7332 C   0  0  0  0  0  0  0  0  0  0  0  0
   17.9959  -10.5010  -16.8686 O   0  0  0  0  0  0  0  0  0  0  0  0
   17.5956  -16.0333  -17.8011 O   0  0  0  0  0  0  0  0  0  0  0  0
   16.0172   -5.4826  -16.3461 N   0  0  0  0  0  0  0  0  0  0  0  0
   16.5461   -6.0857  -15.1715 C   0  0  0  0  0  0  0  0  0  0  0  0
   17.2529   -5.3042  -14.4525 O   0  0  0  0  0  0  0  0  0  0  0  0
   16.2874   -7.5043  -14.8276 C   0  0  0  0  0  0  0  0  0  0  0  0
   17.5161   -8.3034  -15.1679 C   0  0  2  0  0  0  0  0  0  0  0  0
   17.2951   -9.6859  -14.8347 N   0  0  0  0  0  0  0  0  0  0  0  0
   18.7277   -7.7570  -14.4788 C   0  0  0  0  0  0  0  0  0  0  0  0
   18.7802   -7.9396  -13.2464 O   0  0  0  0  0  0  0  0  0  0  0  0
   22.1433   -8.6654  -14.6704 O   0  0  0  0  0  0  0  0  0  0  0  0
   22.2077   -7.2817  -14.9397 C   0  0  0  0  0  0  0  0  0  0  0  0
   20.9510   -6.5930  -14.5400 C   0  0  2  0  0  0  0  0  0  0  0  0
   19.7541   -7.0793  -15.1476 N   0  0  0  0  0  0  0  0  0  0  0  0
   21.1039   -5.1048  -14.6052 C   0  0  0  0  0  0  0  0  0  0  0  0
   20.2512   -4.2434  -15.2438 O   0  0  0  0  0  0  0  0  0  0  0  0
   22.1052   -4.5622  -14.0212 O   0  0  0  0  0  0  0  0  0  0  0  0
  2  1  1  6
  3  2  1  0
  4  3  1  0
  5  6  2  0
  5  4  1  0
  7  8  2  0
  7  2  1  0
  9  5  1  0
 11 10  1  0
 11 13  1  0
 12 11  2  0
 14 13  1  1
 14 15  1  0
 15  7  1  0
 16 14  1  0
 17 16  2  0
 20 19  1  6
 19 18  1  0
 20 21  1  0
 21 16  1  0
 22 20  1  0
 22 23  1  0
 24 22  2  0
M  END
$$$$
