ENS.pdb
     RDKit          3D

 24 23  0  0  1  0  0  0  0  0999 V2000
   17.9220  -11.9344  -16.0328 N   0  0  0  0  0  0  0  0  0  0  0  0
   17.8478  -10.7062  -16.7997 C   0  0  1  0  0  0  0  0  0  0  0  0
   16.4066  -10.4688  -17.1801 C   0  0  0  0  0  0  0  0  0  0  0  0
   15.9395  -11.7042  -17.9208 C   0  0  0  0  0  0  0  0  0  0  0  0
   14.5751  -11.5300  -18.4420 C   0  0  0  0  0  0  0  0  0  0  0  0
   14.0879  -10.3732  -18.4640 O   0  0  0  0  0  0  0  0  0  0  0  0
   18.4077   -9.6242  -15.9646 C   0  0  0  0  0  0  0  0  0  0  0  0
   18.1817   -9.5751  -14.7307 O   0  0  0  0  0  0  0  0  0  0  0  0
   13.8011  -12.5759  -18.9091 O   0  0  0  0  0  0  0  0  0  0  0  0
   20.8292   -8.8394  -13.6590 N   0  0  0  0  0  0  0  0  0  0  0  0
   21.7305   -8.3173  -14.6277 C   0  0  0  0  0  0  0  0  0  0  0  0
   22.9566   -8.5891  -14.4045 O   0  0  0  0  0  0  0  0  0  0  0  0
   21.2661   -7.5261  -15.7922 C   0  0  0  0  0  0  0  0  0  0  0  0
   19.7625   -7.4788  -15.7604 C   0  0  2  0  0  0  0  0  0  0  0  0
   19.2332   -8.5812  -16.5192 N   0  0  0  0  0  0  0  0  0  0  0  0
   19.2493   -6.1658  -16.2643 C   0  0  0  0  0  0  0  0  0  0  0  0
   19.3633   -5.9727  -17.4908 O   0  0  0  0  0  0  0  0  0  0  0  0
   16.1715   -2.6643  -16.4252 O   0  0  0  0  0  0  0  0  0  0  0  0
   16.6281   -3.9354  -16.0163 C   0  0  0  0  0  0  0  0  0  0  0  0
   18.1095   -3.9619  -15.8830 C   0  0  2  0  0  0  0  0  0  0  0  0
   18.6726   -5.1954  -15.4361 N   0  0  0  0  0  0  0  0  0  0  0  0
   18.6086   -2.7617  -15.1394 C   0  0  0  0  0  0  0  0  0  0  0  0
   18.6571   -1.4835  -15.6303 O   0  0  0  0  0  0  0  0  0  0  0  0
   19.0292   -2.9111  -13.9399 O   0  0  0  0  0  0  0  0  0  0  0  0
  2  1  1  1
  3  2  1  0
  4  3  1  0
  5  6  2  0
  5  4  1  0
  7  8  2  0
  7  2  1  0
  9  5  1  0
 11 10  1  0
 11 13  1  0
 12 11  2  0
 14 13  1  6
 14 15  1  0
 15  7  1  0
 16 14  1  0
 17 16  2  0
 20 19  1  1
 19 18  1  0
 20 21  1  0
 21 16  1  0
 22 20  1  0
 22 23  1  0
 24 22  2  0
M  END
$$$$
