DVR.pdb
     RDKit          3D

 27 26  0  0  1  0  0  0  0  0999 V2000
    7.9830  -14.6208   20.7662 N   0  0  0  0  0  0  0  0  0  0  0  0
    7.3320  -15.0441   21.9906 C   0  0  1  0  0  0  0  0  0  0  0  0
    7.4630  -16.5428   22.1706 C   0  0  0  0  0  0  0  0  0  0  0  0
    6.8982  -17.2929   21.0406 C   0  0  0  0  0  0  0  0  0  0  0  0
    6.2953  -16.6763   20.1324 O   0  0  0  0  0  0  0  0  0  0  0  0
    8.0202  -14.4274   23.1832 C   0  0  0  0  0  0  0  0  0  0  0  0
    9.2699  -14.3246   23.2291 O   0  0  0  0  0  0  0  0  0  0  0  0
    7.0097  -18.6644   20.9440 O   0  0  0  0  0  0  0  0  0  0  0  0
    6.8149  -11.0703   25.0947 C   0  0  0  0  0  0  0  0  0  0  0  0
    6.9441  -12.2626   25.9806 C   0  0  1  0  0  0  0  0  0  0  0  0
    5.6640  -12.8609   26.4506 C   0  0  0  0  0  0  0  0  0  0  0  0
    7.8925  -13.3172   25.4621 C   0  0  2  0  0  0  0  0  0  0  0  0
    7.2562  -13.9458   24.2891 N   0  0  0  0  0  0  0  0  0  0  0  0
    8.2293  -14.3739   26.4040 C   0  0  0  0  0  0  0  0  0  0  0  0
    7.4629  -15.3948   26.4812 O   0  0  0  0  0  0  0  0  0  0  0  0
   14.2598  -21.4051   26.4921 N   0  0  0  0  0  0  0  0  0  0  0  0
   13.9096  -20.0573   26.2160 C   0  0  0  0  0  0  0  0  0  0  0  0
   14.4928  -19.4246   25.2534 N   0  0  0  0  0  0  0  0  0  0  0  0
   12.9225  -19.4338   27.0064 N   0  0  0  0  0  0  0  0  0  0  0  0
   12.5131  -18.1040   26.6259 C   0  0  0  0  0  0  0  0  0  0  0  0
   11.4294  -17.5373   27.4964 C   0  0  0  0  0  0  0  0  0  0  0  0
   10.9800  -16.1991   26.9529 C   0  0  0  0  0  0  0  0  0  0  0  0
    9.8605  -15.6405   27.8200 C   0  0  2  0  0  0  0  0  0  0  0  0
    9.3484  -14.4061   27.2793 N   0  0  0  0  0  0  0  0  0  0  0  0
   10.3173  -15.4042   29.2052 C   0  0  0  0  0  0  0  0  0  0  0  0
   10.7258  -16.3616   29.8927 O   0  0  0  0  0  0  0  0  0  0  0  0
   10.3027  -14.1395   29.7601 O   0  0  0  0  0  0  0  0  0  0  0  0
  2  1  1  6
  3  2  1  0
  4  3  1  0
  5  4  2  0
  6  7  2  0
  6  2  1  0
  8  4  1  0
 10  9  1  6
 10 11  1  0
 12 13  1  6
 12 10  1  0
 13  6  1  0
 14 12  1  0
 15 14  2  0
 17 19  1  0
 17 16  1  0
 18 17  2  0
 20 19  1  0
 21 20  1  0
 22 21  1  0
 23 22  1  6
 23 24  1  0
 24 14  1  0
 25 27  1  0
 25 23  1  0
 26 25  2  0
M  END
$$$$
