DVR.pdb
     RDKit          3D

 27 26  0  0  1  0  0  0  0  0999 V2000
    9.2255  -16.1184   21.0706 N   0  0  0  0  0  0  0  0  0  0  0  0
    8.4377  -16.4164   22.2506 C   0  0  1  0  0  0  0  0  0  0  0  0
    8.7434  -17.8124   22.7542 C   0  0  0  0  0  0  0  0  0  0  0  0
    8.3056  -18.8537   21.8148 C   0  0  0  0  0  0  0  0  0  0  0  0
    7.8687  -18.5227   20.6888 O   0  0  0  0  0  0  0  0  0  0  0  0
    8.8157  -15.4843   23.3751 C   0  0  0  0  0  0  0  0  0  0  0  0
   10.0182  -15.2525   23.6485 O   0  0  0  0  0  0  0  0  0  0  0  0
    8.3595  -20.1950   22.1323 O   0  0  0  0  0  0  0  0  0  0  0  0
    6.9681  -12.3534   26.8329 C   0  0  0  0  0  0  0  0  0  0  0  0
    6.9677  -13.0406   25.5098 C   0  0  1  0  0  0  0  0  0  0  0  0
    6.7468  -12.1646   24.3260 C   0  0  0  0  0  0  0  0  0  0  0  0
    8.1352  -13.9749   25.2988 C   0  0  2  0  0  0  0  0  0  0  0  0
    7.8046  -14.8440   24.1537 N   0  0  0  0  0  0  0  0  0  0  0  0
    8.4624  -14.8328   26.4275 C   0  0  0  0  0  0  0  0  0  0  0  0
    7.6116  -15.7137   26.7961 O   0  0  0  0  0  0  0  0  0  0  0  0
   14.8029  -19.6857   29.4124 N   0  0  0  0  0  0  0  0  0  0  0  0
   13.8755  -19.8440   30.4756 C   0  0  0  0  0  0  0  0  0  0  0  0
   14.1013  -20.7132   31.4031 N   0  0  0  0  0  0  0  0  0  0  0  0
   12.7176  -19.0399   30.4954 N   0  0  0  0  0  0  0  0  0  0  0  0
   12.5072  -18.1556   29.3753 C   0  0  0  0  0  0  0  0  0  0  0  0
   11.2074  -17.4072   29.4371 C   0  0  0  0  0  0  0  0  0  0  0  0
   11.0499  -16.5472   28.2026 C   0  0  0  0  0  0  0  0  0  0  0  0
    9.8377  -15.6397   28.3583 C   0  0  2  0  0  0  0  0  0  0  0  0
    9.6575  -14.8061   27.1958 N   0  0  0  0  0  0  0  0  0  0  0  0
    9.9584  -14.7778   29.5523 C   0  0  0  0  0  0  0  0  0  0  0  0
   10.2444  -13.5711   29.4167 O   0  0  0  0  0  0  0  0  0  0  0  0
    9.7603  -15.2802   30.8235 O   0  0  0  0  0  0  0  0  0  0  0  0
  2  1  1  6
  3  2  1  0
  4  3  1  0
  5  4  2  0
  6  7  2  0
  6  2  1  0
  8  4  1  0
 10  9  1  1
 10 11  1  0
 12 13  1  6
 12 10  1  0
 13  6  1  0
 14 12  1  0
 15 14  2  0
 17 19  1  0
 17 16  1  0
 18 17  2  0
 20 19  1  0
 21 20  1  0
 22 21  1  0
 23 22  1  6
 23 24  1  0
 24 14  1  0
 25 27  1  0
 25 23  1  0
 26 25  2  0
M  END
$$$$
