DVR.pdb
     RDKit          3D

 27 26  0  0  1  0  0  0  0  0999 V2000
    7.6628  -13.9140   20.4364 N   0  0  0  0  0  0  0  0  0  0  0  0
    7.2468  -14.7669   21.5325 C   0  0  1  0  0  0  0  0  0  0  0  0
    7.5201  -16.2211   21.2067 C   0  0  0  0  0  0  0  0  0  0  0  0
    6.7943  -16.6719   20.0114 C   0  0  0  0  0  0  0  0  0  0  0  0
    7.3028  -16.4976   18.8802 O   0  0  0  0  0  0  0  0  0  0  0  0
    8.0638  -14.4634   22.7640 C   0  0  0  0  0  0  0  0  0  0  0  0
    9.3099  -14.6107   22.7679 O   0  0  0  0  0  0  0  0  0  0  0  0
    5.5617  -17.2859   20.0920 O   0  0  0  0  0  0  0  0  0  0  0  0
    7.2069  -11.3884   25.4526 C   0  0  0  0  0  0  0  0  0  0  0  0
    7.3512  -12.7606   26.0177 C   0  0  1  0  0  0  0  0  0  0  0  0
    6.0878  -13.4158   26.4559 C   0  0  0  0  0  0  0  0  0  0  0  0
    8.1955  -13.6889   25.1775 C   0  0  2  0  0  0  0  0  0  0  0  0
    7.4292  -13.9991   23.9558 N   0  0  0  0  0  0  0  0  0  0  0  0
    8.5561  -14.9498   25.8077 C   0  0  0  0  0  0  0  0  0  0  0  0
    7.6834  -15.8834   25.8567 O   0  0  0  0  0  0  0  0  0  0  0  0
   13.8493  -21.0718   25.5492 N   0  0  0  0  0  0  0  0  0  0  0  0
   13.5435  -20.2086   24.4644 C   0  0  0  0  0  0  0  0  0  0  0  0
   14.3298  -20.1561   23.4417 N   0  0  0  0  0  0  0  0  0  0  0  0
   12.3761  -19.4207   24.5284 N   0  0  0  0  0  0  0  0  0  0  0  0
   11.5037  -19.6218   25.6594 C   0  0  0  0  0  0  0  0  0  0  0  0
   11.6294  -18.5581   26.7112 C   0  0  0  0  0  0  0  0  0  0  0  0
   11.2838  -17.2085   26.1219 C   0  0  0  0  0  0  0  0  0  0  0  0
   10.1040  -16.6059   26.8716 C   0  0  2  0  0  0  0  0  0  0  0  0
    9.8075  -15.2775   26.3961 N   0  0  0  0  0  0  0  0  0  0  0  0
   10.3607  -16.5485   28.3256 C   0  0  0  0  0  0  0  0  0  0  0  0
   10.5613  -15.4463   28.8743 O   0  0  0  0  0  0  0  0  0  0  0  0
   10.3834  -17.6942   29.0964 O   0  0  0  0  0  0  0  0  0  0  0  0
  2  1  1  6
  3  2  1  0
  4  3  1  0
  5  4  2  0
  6  7  2  0
  6  2  1  0
  8  4  1  0
 10  9  1  6
 10 11  1  0
 12 13  1  6
 12 10  1  0
 13  6  1  0
 14 12  1  0
 15 14  2  0
 17 19  1  0
 17 16  1  0
 18 17  2  0
 20 19  1  0
 21 20  1  0
 22 21  1  0
 23 22  1  6
 23 24  1  0
 24 14  1  0
 25 27  1  0
 25 23  1  0
 26 25  2  0
M  END
$$$$
