DVR.pdb
     RDKit          3D

 27 26  0  0  1  0  0  0  0  0999 V2000
   10.0350  -16.3188   15.4256 N   0  0  0  0  0  0  0  0  0  0  0  0
    9.0675  -16.5705   16.4756 C   0  0  1  0  0  0  0  0  0  0  0  0
    9.0391  -18.0436   16.8291 C   0  0  0  0  0  0  0  0  0  0  0  0
    8.2559  -18.8336   15.8693 C   0  0  0  0  0  0  0  0  0  0  0  0
    7.5000  -19.7394   16.2895 O   0  0  0  0  0  0  0  0  0  0  0  0
    9.4761  -15.8547   17.7393 C   0  0  0  0  0  0  0  0  0  0  0  0
   10.6654  -15.8727   18.1388 O   0  0  0  0  0  0  0  0  0  0  0  0
    8.3245  -18.6105   14.5098 O   0  0  0  0  0  0  0  0  0  0  0  0
    7.7642  -13.0293   21.5249 C   0  0  0  0  0  0  0  0  0  0  0  0
    7.7516  -13.5150   20.1153 C   0  0  1  0  0  0  0  0  0  0  0  0
    7.6258  -12.4624   19.0696 C   0  0  0  0  0  0  0  0  0  0  0  0
    8.8555  -14.4925   19.7890 C   0  0  2  0  0  0  0  0  0  0  0  0
    8.5099  -15.1383   18.5086 N   0  0  0  0  0  0  0  0  0  0  0  0
    9.0722  -15.5431   20.7720 C   0  0  0  0  0  0  0  0  0  0  0  0
    8.1539  -16.4149   20.9515 O   0  0  0  0  0  0  0  0  0  0  0  0
   14.3342  -18.8079   18.3426 N   0  0  0  0  0  0  0  0  0  0  0  0
   13.1850  -19.4864   18.8267 C   0  0  0  0  0  0  0  0  0  0  0  0
   12.2184  -19.7723   18.0199 N   0  0  0  0  0  0  0  0  0  0  0  0
   13.1247  -19.8372   20.1909 N   0  0  0  0  0  0  0  0  0  0  0  0
   11.8497  -19.7039   20.8523 C   0  0  0  0  0  0  0  0  0  0  0  0
   11.3268  -18.2969   20.8702 C   0  0  0  0  0  0  0  0  0  0  0  0
   11.4875  -17.7059   22.2534 C   0  0  0  0  0  0  0  0  0  0  0  0
   10.3174  -16.7808   22.5574 C   0  0  2  0  0  0  0  0  0  0  0  0
   10.2243  -15.7207   21.5848 N   0  0  0  0  0  0  0  0  0  0  0  0
   10.4354  -16.1862   23.9049 C   0  0  0  0  0  0  0  0  0  0  0  0
   10.6215  -14.9585   24.0241 O   0  0  0  0  0  0  0  0  0  0  0  0
   10.3435  -16.9631   25.0431 O   0  0  0  0  0  0  0  0  0  0  0  0
  2  1  1  6
  3  2  1  0
  4  3  1  0
  5  4  2  0
  6  7  2  0
  6  2  1  0
  8  4  1  0
 10  9  1  1
 10 11  1  0
 12 13  1  6
 12 10  1  0
 13  6  1  0
 14 12  1  0
 15 14  2  0
 17 19  1  0
 17 16  1  0
 18 17  2  0
 20 19  1  0
 21 20  1  0
 22 21  1  0
 23 22  1  6
 23 24  1  0
 24 14  1  0
 25 27  1  0
 25 23  1  0
 26 25  2  0
M  END
$$$$
