DVR.pdb
     RDKit          3D

 27 26  0  0  1  0  0  0  0  0999 V2000
    9.6032  -15.0735   14.1790 N   0  0  0  0  0  0  0  0  0  0  0  0
    9.0867  -15.8608   15.2815 C   0  0  1  0  0  0  0  0  0  0  0  0
    9.6462  -17.2682   15.2365 C   0  0  0  0  0  0  0  0  0  0  0  0
    9.3121  -17.9627   13.9856 C   0  0  0  0  0  0  0  0  0  0  0  0
    8.1654  -17.8358   13.4985 O   0  0  0  0  0  0  0  0  0  0  0  0
    9.5486  -15.2791   16.5946 C   0  0  0  0  0  0  0  0  0  0  0  0
   10.7370  -14.9110   16.7584 O   0  0  0  0  0  0  0  0  0  0  0  0
   10.2253  -18.7564   13.3231 O   0  0  0  0  0  0  0  0  0  0  0  0
    8.0483  -13.2501   20.8904 C   0  0  0  0  0  0  0  0  0  0  0  0
    7.8638  -13.7625   19.5024 C   0  0  1  0  0  0  0  0  0  0  0  0
    7.3687  -12.7713   18.5076 C   0  0  0  0  0  0  0  0  0  0  0  0
    9.0425  -14.5420   18.9701 C   0  0  2  0  0  0  0  0  0  0  0  0
    8.6351  -15.1352   17.6825 N   0  0  0  0  0  0  0  0  0  0  0  0
    9.5181  -15.6194   19.8246 C   0  0  0  0  0  0  0  0  0  0  0  0
    9.1810  -16.8206   19.5432 O   0  0  0  0  0  0  0  0  0  0  0  0
   16.3606  -13.9336   16.8671 N   0  0  0  0  0  0  0  0  0  0  0  0
   16.9087  -14.1070   18.1652 C   0  0  0  0  0  0  0  0  0  0  0  0
   18.1369  -13.7815   18.3944 N   0  0  0  0  0  0  0  0  0  0  0  0
   16.0913  -14.6353   19.1852 N   0  0  0  0  0  0  0  0  0  0  0  0
   14.7328  -14.9723   18.8362 C   0  0  0  0  0  0  0  0  0  0  0  0
   13.9658  -15.6113   19.9573 C   0  0  0  0  0  0  0  0  0  0  0  0
   12.5146  -15.1891   19.8938 C   0  0  0  0  0  0  0  0  0  0  0  0
   11.7220  -15.9049   20.9786 C   0  0  2  0  0  0  0  0  0  0  0  0
   10.3413  -15.4896   20.9756 N   0  0  0  0  0  0  0  0  0  0  0  0
   12.2944  -15.6569   22.3180 C   0  0  0  0  0  0  0  0  0  0  0  0
   13.4270  -16.0988   22.5971 O   0  0  0  0  0  0  0  0  0  0  0  0
   11.6001  -14.9422   23.2744 O   0  0  0  0  0  0  0  0  0  0  0  0
  2  1  1  6
  3  2  1  0
  4  3  1  0
  5  4  2  0
  6  7  2  0
  6  2  1  0
  8  4  1  0
 10  9  1  1
 10 11  1  0
 12 13  1  6
 12 10  1  0
 13  6  1  0
 14 12  1  0
 15 14  2  0
 17 19  1  0
 17 16  1  0
 18 17  2  0
 20 19  1  0
 21 20  1  0
 22 21  1  0
 23 22  1  6
 23 24  1  0
 24 14  1  0
 25 27  1  0
 25 23  1  0
 26 25  2  0
M  END
$$$$
