DVR.pdb
     RDKit          3D

 27 26  0  0  1  0  0  0  0  0999 V2000
    8.0656  -14.5461   20.5852 N   0  0  0  0  0  0  0  0  0  0  0  0
    7.5946  -15.1490   21.8168 C   0  0  1  0  0  0  0  0  0  0  0  0
    7.9908  -16.6102   21.8777 C   0  0  0  0  0  0  0  0  0  0  0  0
    7.3548  -17.4062   20.8191 C   0  0  0  0  0  0  0  0  0  0  0  0
    6.8013  -16.8232   19.8589 O   0  0  0  0  0  0  0  0  0  0  0  0
    8.2611  -14.4950   23.0018 C   0  0  0  0  0  0  0  0  0  0  0  0
    9.4815  -14.2043   22.9803 O   0  0  0  0  0  0  0  0  0  0  0  0
    7.3461  -18.7853   20.8460 O   0  0  0  0  0  0  0  0  0  0  0  0
    7.4628  -12.0903   27.3008 C   0  0  0  0  0  0  0  0  0  0  0  0
    7.0708  -12.6586   25.9792 C   0  0  1  0  0  0  0  0  0  0  0  0
    6.5103  -11.6883   24.9986 C   0  0  0  0  0  0  0  0  0  0  0  0
    8.1232  -13.5394   25.3491 C   0  0  2  0  0  0  0  0  0  0  0  0
    7.5095  -14.1924   24.1774 N   0  0  0  0  0  0  0  0  0  0  0  0
    8.6620  -14.5833   26.2077 C   0  0  0  0  0  0  0  0  0  0  0  0
    7.8491  -15.3875   26.7805 O   0  0  0  0  0  0  0  0  0  0  0  0
   14.1180  -19.1297   23.2306 N   0  0  0  0  0  0  0  0  0  0  0  0
   12.8339  -19.5819   23.6331 C   0  0  0  0  0  0  0  0  0  0  0  0
   12.0957  -20.2437   22.8061 N   0  0  0  0  0  0  0  0  0  0  0  0
   12.3894  -19.2959   24.9402 N   0  0  0  0  0  0  0  0  0  0  0  0
   12.3878  -17.9130   25.3505 C   0  0  0  0  0  0  0  0  0  0  0  0
   12.0782  -17.7191   26.8065 C   0  0  0  0  0  0  0  0  0  0  0  0
   11.9266  -16.2446   27.1083 C   0  0  0  0  0  0  0  0  0  0  0  0
   10.4584  -15.9137   27.3362 C   0  0  2  0  0  0  0  0  0  0  0  0
   10.0329  -14.8227   26.4951 N   0  0  0  0  0  0  0  0  0  0  0  0
   10.1970  -15.5614   28.7471 C   0  0  0  0  0  0  0  0  0  0  0  0
   10.1317  -14.3616   29.0822 O   0  0  0  0  0  0  0  0  0  0  0  0
   10.0219  -16.5360   29.7099 O   0  0  0  0  0  0  0  0  0  0  0  0
  2  1  1  6
  3  2  1  0
  4  3  1  0
  5  4  2  0
  6  7  2  0
  6  2  1  0
  8  4  1  0
 10  9  1  1
 10 11  1  0
 12 13  1  6
 12 10  1  0
 13  6  1  0
 14 12  1  0
 15 14  2  0
 17 19  1  0
 17 16  1  0
 18 17  2  0
 20 19  1  0
 21 20  1  0
 22 21  1  0
 23 22  1  1
 23 24  1  0
 24 14  1  0
 25 27  1  0
 25 23  1  0
 26 25  2  0
M  END
$$$$
