DVR.pdb
     RDKit          3D

 27 26  0  0  1  0  0  0  0  0999 V2000
    9.8681  -17.7619   17.2132 N   0  0  0  0  0  0  0  0  0  0  0  0
    8.7143  -17.6116   18.0782 C   0  0  1  0  0  0  0  0  0  0  0  0
    8.3526  -18.9378   18.7156 C   0  0  0  0  0  0  0  0  0  0  0  0
    7.7578  -19.8761   17.7542 C   0  0  0  0  0  0  0  0  0  0  0  0
    8.4881  -20.4255   16.8979 O   0  0  0  0  0  0  0  0  0  0  0  0
    9.0417  -16.6841   19.2222 C   0  0  0  0  0  0  0  0  0  0  0  0
   10.1265  -16.7809   19.8453 O   0  0  0  0  0  0  0  0  0  0  0  0
    6.4113  -20.1758   17.7617 O   0  0  0  0  0  0  0  0  0  0  0  0
    7.3602  -12.7310   21.8314 C   0  0  0  0  0  0  0  0  0  0  0  0
    7.3877  -13.6125   20.6292 C   0  0  1  0  0  0  0  0  0  0  0  0
    7.4005  -12.9131   19.3146 C   0  0  0  0  0  0  0  0  0  0  0  0
    8.4296  -14.7040   20.6874 C   0  0  2  0  0  0  0  0  0  0  0  0
    8.1164  -15.6716   19.6190 N   0  0  0  0  0  0  0  0  0  0  0  0
    8.4999  -15.4361   21.9429 C   0  0  0  0  0  0  0  0  0  0  0  0
    7.5386  -16.2217   22.2501 O   0  0  0  0  0  0  0  0  0  0  0  0
   13.7491  -20.9700   25.1704 N   0  0  0  0  0  0  0  0  0  0  0  0
   13.3819  -20.3295   26.3830 C   0  0  0  0  0  0  0  0  0  0  0  0
   13.9499  -20.6728   27.4904 N   0  0  0  0  0  0  0  0  0  0  0  0
   12.3957  -19.3224   26.3504 N   0  0  0  0  0  0  0  0  0  0  0  0
   11.5766  -19.2369   25.1661 C   0  0  0  0  0  0  0  0  0  0  0  0
   10.5269  -18.1663   25.2381 C   0  0  0  0  0  0  0  0  0  0  0  0
   10.5883  -17.3015   23.9985 C   0  0  0  0  0  0  0  0  0  0  0  0
    9.5433  -16.1982   24.0879 C   0  0  2  0  0  0  0  0  0  0  0  0
    9.5472  -15.3788   22.9016 N   0  0  0  0  0  0  0  0  0  0  0  0
    9.7677  -15.3362   25.2668 C   0  0  0  0  0  0  0  0  0  0  0  0
   10.3189  -14.2263   25.1244 O   0  0  0  0  0  0  0  0  0  0  0  0
    9.3784  -15.7332   26.5310 O   0  0  0  0  0  0  0  0  0  0  0  0
  2  1  1  6
  3  2  1  0
  4  3  1  0
  5  4  2  0
  6  7  2  0
  6  2  1  0
  8  4  1  0
 10  9  1  1
 10 11  1  0
 12 13  1  6
 12 10  1  0
 13  6  1  0
 14 12  1  0
 15 14  2  0
 17 19  1  0
 17 16  1  0
 18 17  2  0
 20 19  1  0
 21 20  1  0
 22 21  1  0
 23 22  1  6
 23 24  1  0
 24 14  1  0
 25 27  1  0
 25 23  1  0
 26 25  2  0
M  END
$$$$
