DVR.pdb
     RDKit          3D

 27 26  0  0  1  0  0  0  0  0999 V2000
    6.8134  -18.9243   28.1887 N   0  0  0  0  0  0  0  0  0  0  0  0
    7.8400  -18.4694   27.2716 C   0  0  1  0  0  0  0  0  0  0  0  0
    8.2768  -19.5991   26.3612 C   0  0  0  0  0  0  0  0  0  0  0  0
    9.2431  -20.4968   27.0087 C   0  0  0  0  0  0  0  0  0  0  0  0
    9.4590  -20.3857   28.2372 O   0  0  0  0  0  0  0  0  0  0  0  0
    7.2854  -17.4020   26.3611 C   0  0  0  0  0  0  0  0  0  0  0  0
    6.3646  -17.6577   25.5479 O   0  0  0  0  0  0  0  0  0  0  0  0
    9.9269  -21.4660   26.3045 O   0  0  0  0  0  0  0  0  0  0  0  0
    7.4361  -12.4974   25.3865 C   0  0  0  0  0  0  0  0  0  0  0  0
    7.4028  -13.7028   26.2634 C   0  0  1  0  0  0  0  0  0  0  0  0
    6.4403  -13.6506   27.3983 C   0  0  0  0  0  0  0  0  0  0  0  0
    7.3060  -15.0097   25.5131 C   0  0  2  0  0  0  0  0  0  0  0  0
    7.8016  -16.0716   26.4091 N   0  0  0  0  0  0  0  0  0  0  0  0
    8.0697  -15.0798   24.2766 C   0  0  0  0  0  0  0  0  0  0  0  0
    9.3323  -15.2718   24.3448 O   0  0  0  0  0  0  0  0  0  0  0  0
    9.3625  -14.1537   16.5822 N   0  0  0  0  0  0  0  0  0  0  0  0
    8.0278  -13.6950   16.7361 C   0  0  0  0  0  0  0  0  0  0  0  0
    7.1426  -13.9768   15.8395 N   0  0  0  0  0  0  0  0  0  0  0  0
    7.6954  -12.9351   17.8761 N   0  0  0  0  0  0  0  0  0  0  0  0
    8.7597  -12.6294   18.8006 C   0  0  0  0  0  0  0  0  0  0  0  0
    9.0907  -13.7605   19.7304 C   0  0  0  0  0  0  0  0  0  0  0  0
    8.0853  -13.8092   20.8596 C   0  0  0  0  0  0  0  0  0  0  0  0
    8.4227  -14.9572   21.8005 C   0  0  2  0  0  0  0  0  0  0  0  0
    7.5602  -14.9553   22.9558 N   0  0  0  0  0  0  0  0  0  0  0  0
    9.8282  -14.8904   22.2514 C   0  0  0  0  0  0  0  0  0  0  0  0
   10.6778  -15.6465   21.7390 O   0  0  0  0  0  0  0  0  0  0  0  0
   10.2259  -14.0041   23.2332 O   0  0  0  0  0  0  0  0  0  0  0  0
  2  1  1  1
  3  2  1  0
  4  3  1  0
  5  4  2  0
  6  7  2  0
  6  2  1  0
  8  4  1  0
 10  9  1  6
 10 11  1  0
 12 13  1  1
 12 10  1  0
 13  6  1  0
 14 12  1  0
 15 14  2  0
 17 19  1  0
 17 16  1  0
 18 17  2  0
 20 19  1  0
 21 20  1  0
 22 21  1  0
 23 22  1  6
 23 24  1  0
 24 14  1  0
 25 27  1  0
 25 23  1  0
 26 25  2  0
M  END
$$$$
