DVR.pdb
     RDKit          3D

 27 26  0  0  1  0  0  0  0  0999 V2000
    9.3792  -16.9656   16.0842 N   0  0  0  0  0  0  0  0  0  0  0  0
    8.4390  -17.0526   17.1845 C   0  0  1  0  0  0  0  0  0  0  0  0
    8.3111  -18.4851   17.6612 C   0  0  0  0  0  0  0  0  0  0  0  0
    7.6587  -19.3486   16.6674 C   0  0  0  0  0  0  0  0  0  0  0  0
    8.0521  -20.5289   16.5247 O   0  0  0  0  0  0  0  0  0  0  0  0
    8.9536  -16.2722   18.3686 C   0  0  0  0  0  0  0  0  0  0  0  0
   10.1403  -16.3922   18.7580 O   0  0  0  0  0  0  0  0  0  0  0  0
    6.6189  -18.9008   15.8793 O   0  0  0  0  0  0  0  0  0  0  0  0
    7.6047  -13.0457   21.9790 C   0  0  0  0  0  0  0  0  0  0  0  0
    7.5004  -13.6193   20.6068 C   0  0  1  0  0  0  0  0  0  0  0  0
    7.4003  -12.6302   19.4982 C   0  0  0  0  0  0  0  0  0  0  0  0
    8.5224  -14.6894   20.3054 C   0  0  2  0  0  0  0  0  0  0  0  0
    8.0932  -15.3759   19.0724 N   0  0  0  0  0  0  0  0  0  0  0  0
    8.6951  -15.6991   21.3388 C   0  0  0  0  0  0  0  0  0  0  0  0
    7.7132  -16.4715   21.6126 O   0  0  0  0  0  0  0  0  0  0  0  0
   14.0198  -20.7741   25.3766 N   0  0  0  0  0  0  0  0  0  0  0  0
   13.9736  -20.5397   23.9772 C   0  0  0  0  0  0  0  0  0  0  0  0
   15.0664  -20.5275   23.2898 N   0  0  0  0  0  0  0  0  0  0  0  0
   12.7229  -20.3241   23.3631 N   0  0  0  0  0  0  0  0  0  0  0  0
   12.6613  -19.3312   22.3186 C   0  0  0  0  0  0  0  0  0  0  0  0
   12.0301  -18.0405   22.7536 C   0  0  0  0  0  0  0  0  0  0  0  0
   10.5253  -18.1907   22.7904 C   0  0  0  0  0  0  0  0  0  0  0  0
    9.8860  -16.8723   23.2031 C   0  0  2  0  0  0  0  0  0  0  0  0
    9.8670  -15.9361   22.1068 N   0  0  0  0  0  0  0  0  0  0  0  0
   10.5986  -16.2604   24.3437 C   0  0  0  0  0  0  0  0  0  0  0  0
   11.1567  -15.1539   24.2015 O   0  0  0  0  0  0  0  0  0  0  0  0
   10.6613  -16.8890   25.5718 O   0  0  0  0  0  0  0  0  0  0  0  0
  2  1  1  6
  3  2  1  0
  4  3  1  0
  5  4  2  0
  6  7  2  0
  6  2  1  0
  8  4  1  0
 10  9  1  1
 10 11  1  0
 12 13  1  6
 12 10  1  0
 13  6  1  0
 14 12  1  0
 15 14  2  0
 17 19  1  0
 17 16  1  0
 18 17  2  0
 20 19  1  0
 21 20  1  0
 22 21  1  0
 23 22  1  6
 23 24  1  0
 24 14  1  0
 25 27  1  0
 25 23  1  0
 26 25  2  0
M  END
$$$$
