DVR.pdb
     RDKit          3D

 27 26  0  0  1  0  0  0  0  0999 V2000
    6.5102  -14.8930   20.5629 N   0  0  0  0  0  0  0  0  0  0  0  0
    6.5288  -15.6616   21.7921 C   0  0  1  0  0  0  0  0  0  0  0  0
    7.1526  -17.0224   21.5577 C   0  0  0  0  0  0  0  0  0  0  0  0
    6.3069  -17.8891   20.7256 C   0  0  0  0  0  0  0  0  0  0  0  0
    5.2865  -17.4116   20.1786 O   0  0  0  0  0  0  0  0  0  0  0  0
    7.4042  -14.9814   22.8154 C   0  0  0  0  0  0  0  0  0  0  0  0
    8.5564  -14.5820   22.5200 O   0  0  0  0  0  0  0  0  0  0  0  0
    6.6000  -19.2218   20.5241 O   0  0  0  0  0  0  0  0  0  0  0  0
    7.3996  -12.9161   27.3838 C   0  0  0  0  0  0  0  0  0  0  0  0
    6.7499  -13.4792   26.1657 C   0  0  1  0  0  0  0  0  0  0  0  0
    5.7155  -12.6186   25.5279 C   0  0  0  0  0  0  0  0  0  0  0  0
    7.7194  -14.0294   25.1470 C   0  0  2  0  0  0  0  0  0  0  0  0
    6.9335  -14.7779   24.1480 N   0  0  0  0  0  0  0  0  0  0  0  0
    8.7383  -14.9254   25.6725 C   0  0  0  0  0  0  0  0  0  0  0  0
    8.3804  -16.0726   26.1102 O   0  0  0  0  0  0  0  0  0  0  0  0
   17.3424  -15.8288   24.3365 N   0  0  0  0  0  0  0  0  0  0  0  0
   16.9874  -17.1216   24.8035 C   0  0  0  0  0  0  0  0  0  0  0  0
   17.8645  -18.0690   24.8054 N   0  0  0  0  0  0  0  0  0  0  0  0
   15.6722  -17.3441   25.2599 N   0  0  0  0  0  0  0  0  0  0  0  0
   14.7546  -16.2326   25.2006 C   0  0  0  0  0  0  0  0  0  0  0  0
   13.3977  -16.5436   25.7623 C   0  0  0  0  0  0  0  0  0  0  0  0
   12.4536  -15.3926   25.4937 C   0  0  0  0  0  0  0  0  0  0  0  0
   11.0835  -15.7024   26.0802 C   0  0  2  0  0  0  0  0  0  0  0  0
   10.1329  -14.6669   25.7602 N   0  0  0  0  0  0  0  0  0  0  0  0
   11.1474  -15.8576   27.5483 C   0  0  0  0  0  0  0  0  0  0  0  0
   10.7054  -14.9530   28.2848 O   0  0  0  0  0  0  0  0  0  0  0  0
   11.6882  -16.9886   28.1278 O   0  0  0  0  0  0  0  0  0  0  0  0
  2  1  1  6
  3  2  1  0
  4  3  1  0
  5  4  2  0
  6  7  2  0
  6  2  1  0
  8  4  1  0
 10  9  1  1
 10 11  1  0
 12 13  1  6
 12 10  1  0
 13  6  1  0
 14 12  1  0
 15 14  2  0
 17 19  1  0
 17 16  1  0
 18 17  2  0
 20 19  1  0
 21 20  1  0
 22 21  1  0
 23 22  1  1
 23 24  1  0
 24 14  1  0
 25 27  1  0
 25 23  1  0
 26 25  2  0
M  END
$$$$
