DVR.pdb
     RDKit          3D

 27 26  0  0  1  0  0  0  0  0999 V2000
    5.2314  -19.1572   26.1300 N   0  0  0  0  0  0  0  0  0  0  0  0
    6.3383  -19.1672   25.1935 C   0  0  1  0  0  0  0  0  0  0  0  0
    5.9855  -19.9787   23.9636 C   0  0  0  0  0  0  0  0  0  0  0  0
    5.9313  -21.4203   24.2419 C   0  0  0  0  0  0  0  0  0  0  0  0
    6.1564  -21.8320   25.4030 O   0  0  0  0  0  0  0  0  0  0  0  0
    6.6092  -17.7687   24.6966 C   0  0  0  0  0  0  0  0  0  0  0  0
    5.6730  -17.0186   24.3288 O   0  0  0  0  0  0  0  0  0  0  0  0
    5.6386  -22.3444   23.2604 O   0  0  0  0  0  0  0  0  0  0  0  0
    6.0836  -15.0633   25.3448 C   0  0  0  0  0  0  0  0  0  0  0  0
    7.5734  -15.0064   25.3647 C   0  0  1  0  0  0  0  0  0  0  0  0
    8.2097  -15.1878   26.6987 C   0  0  0  0  0  0  0  0  0  0  0  0
    8.2382  -15.8607   24.3117 C   0  0  2  0  0  0  0  0  0  0  0  0
    7.9456  -17.2696   24.6361 N   0  0  0  0  0  0  0  0  0  0  0  0
    9.6827  -15.7189   24.2108 C   0  0  0  0  0  0  0  0  0  0  0  0
   10.4044  -16.0598   25.2102 O   0  0  0  0  0  0  0  0  0  0  0  0
    7.1588  -13.5223   17.2309 N   0  0  0  0  0  0  0  0  0  0  0  0
    8.2471  -13.4245   18.1372 C   0  0  0  0  0  0  0  0  0  0  0  0
    8.8181  -12.2840   18.3373 N   0  0  0  0  0  0  0  0  0  0  0  0
    8.6839  -14.5864   18.8057 N   0  0  0  0  0  0  0  0  0  0  0  0
    9.9107  -14.4944   19.5590 C   0  0  0  0  0  0  0  0  0  0  0  0
   10.2950  -15.7761   20.2394 C   0  0  0  0  0  0  0  0  0  0  0  0
   11.5979  -15.5917   20.9855 C   0  0  0  0  0  0  0  0  0  0  0  0
   11.4249  -16.0166   22.4370 C   0  0  2  0  0  0  0  0  0  0  0  0
   10.4118  -15.2288   23.0938 N   0  0  0  0  0  0  0  0  0  0  0  0
   12.6904  -15.8943   23.1899 C   0  0  0  0  0  0  0  0  0  0  0  0
   13.7009  -16.5158   22.8044 O   0  0  0  0  0  0  0  0  0  0  0  0
   12.7811  -15.1024   24.3177 O   0  0  0  0  0  0  0  0  0  0  0  0
  2  1  1  1
  3  2  1  0
  4  3  1  0
  5  4  2  0
  6  7  2  0
  6  2  1  0
  8  4  1  0
 10  9  1  1
 10 11  1  0
 12 13  1  1
 12 10  1  0
 13  6  1  0
 14 12  1  0
 15 14  2  0
 17 19  1  0
 17 16  1  0
 18 17  2  0
 20 19  1  0
 21 20  1  0
 22 21  1  0
 23 22  1  6
 23 24  1  0
 24 14  1  0
 25 27  1  0
 25 23  1  0
 26 25  2  0
M  END
$$$$
