DVR.pdb
     RDKit          3D

 27 26  0  0  1  0  0  0  0  0999 V2000
    5.4177  -15.7277   22.1681 N   0  0  0  0  0  0  0  0  0  0  0  0
    6.8125  -16.1233   22.1698 C   0  0  1  0  0  0  0  0  0  0  0  0
    7.4080  -15.9746   20.7845 C   0  0  0  0  0  0  0  0  0  0  0  0
    6.7809  -16.8747   19.8071 C   0  0  0  0  0  0  0  0  0  0  0  0
    5.8362  -17.6133   20.1681 O   0  0  0  0  0  0  0  0  0  0  0  0
    7.6112  -15.2026   23.0590 C   0  0  0  0  0  0  0  0  0  0  0  0
    8.7677  -14.8352   22.7398 O   0  0  0  0  0  0  0  0  0  0  0  0
    7.1998  -16.9351   18.4942 O   0  0  0  0  0  0  0  0  0  0  0  0
    7.5179  -12.4879   27.2763 C   0  0  0  0  0  0  0  0  0  0  0  0
    6.8936  -13.1446   26.0922 C   0  0  1  0  0  0  0  0  0  0  0  0
    6.0235  -12.2742   25.2539 C   0  0  0  0  0  0  0  0  0  0  0  0
    7.8588  -13.9424   25.2482 C   0  0  2  0  0  0  0  0  0  0  0  0
    7.0611  -14.7288   24.2885 N   0  0  0  0  0  0  0  0  0  0  0  0
    8.7128  -14.8668   25.9784 C   0  0  0  0  0  0  0  0  0  0  0  0
    8.1739  -15.8668   26.5661 O   0  0  0  0  0  0  0  0  0  0  0  0
   16.2480  -16.6257   23.5292 N   0  0  0  0  0  0  0  0  0  0  0  0
   16.3624  -16.2921   24.9043 C   0  0  0  0  0  0  0  0  0  0  0  0
   17.5193  -16.0144   25.4057 N   0  0  0  0  0  0  0  0  0  0  0  0
   15.1984  -16.2705   25.6995 N   0  0  0  0  0  0  0  0  0  0  0  0
   14.2675  -17.3608   25.5392 C   0  0  0  0  0  0  0  0  0  0  0  0
   13.0092  -17.1989   26.3416 C   0  0  0  0  0  0  0  0  0  0  0  0
   12.2037  -16.0359   25.8060 C   0  0  0  0  0  0  0  0  0  0  0  0
   10.9093  -15.8989   26.5953 C   0  0  2  0  0  0  0  0  0  0  0  0
   10.1244  -14.7864   26.1210 N   0  0  0  0  0  0  0  0  0  0  0  0
   11.1731  -15.7189   28.0380 C   0  0  0  0  0  0  0  0  0  0  0  0
   11.0961  -14.5807   28.5427 O   0  0  0  0  0  0  0  0  0  0  0  0
   11.5049  -16.7887   28.8461 O   0  0  0  0  0  0  0  0  0  0  0  0
  2  1  1  6
  3  2  1  0
  4  3  1  0
  5  4  2  0
  6  7  2  0
  6  2  1  0
  8  4  1  0
 10  9  1  1
 10 11  1  0
 12 13  1  6
 12 10  1  0
 13  6  1  0
 14 12  1  0
 15 14  2  0
 17 19  1  0
 17 16  1  0
 18 17  2  0
 20 19  1  0
 21 20  1  0
 22 21  1  0
 23 22  1  6
 23 24  1  0
 24 14  1  0
 25 27  1  0
 25 23  1  0
 26 25  2  0
M  END
$$$$
