VWC.pdb
     RDKit          3D

 28 29  0  0  1  0  0  0  0  0999 V2000
   15.1159  -10.7502  -18.5747 C   0  0  0  0  0  0  0  0  0  0  0  0
   16.2837  -10.5560  -17.6635 C   0  0  1  0  0  0  0  0  0  0  0  0
   17.0472  -11.8733  -17.6179 C   0  0  0  0  0  0  0  0  0  0  0  0
   17.2551   -9.5060  -18.1317 C   0  0  2  0  0  0  0  0  0  0  0  0
   17.6736   -9.8923  -19.4774 N   0  0  0  0  0  0  0  0  0  0  0  0
   18.4434   -9.3784  -17.2667 C   0  0  0  0  0  0  0  0  0  0  0  0
   18.3057   -8.9364  -16.0843 O   0  0  0  0  0  0  0  0  0  0  0  0
   19.7628   -9.7169  -17.6546 N   0  0  0  0  0  0  0  0  0  0  0  0
   20.9329   -9.5447  -16.8018 C   0  0  1  0  0  0  0  0  0  0  0  0
   21.9714  -10.5740  -17.0754 C   0  0  0  0  0  0  0  0  0  0  0  0
   23.1687  -10.5298  -16.2326 C   0  0  0  0  0  0  0  0  0  0  0  0
   23.2007  -10.8989  -14.9016 C   0  0  0  0  0  0  0  0  0  0  0  0
   24.4378  -10.7789  -14.4243 N   0  0  0  0  0  0  0  0  0  0  0  0
   25.2397  -10.3326  -15.4181 C   0  0  0  0  0  0  0  0  0  0  0  0
   26.5898  -10.0560  -15.3872 C   0  0  0  0  0  0  0  0  0  0  0  0
   27.1924   -9.5989  -16.5332 C   0  0  0  0  0  0  0  0  0  0  0  0
   26.4207   -9.4360  -17.6657 C   0  0  0  0  0  0  0  0  0  0  0  0
   25.0744   -9.7157  -17.6834 C   0  0  0  0  0  0  0  0  0  0  0  0
   24.4438  -10.1766  -16.5492 C   0  0  0  0  0  0  0  0  0  0  0  0
   21.4135   -8.1630  -16.7231 C   0  0  0  0  0  0  0  0  0  0  0  0
   21.7189   -7.5128  -17.7521 O   0  0  0  0  0  0  0  0  0  0  0  0
   21.5600   -7.4847  -15.4813 N   0  0  0  0  0  0  0  0  0  0  0  0
   21.8963   -6.0797  -15.4282 C   0  0  1  0  0  0  0  0  0  0  0  0
   20.7390   -5.2044  -15.8548 C   0  0  0  0  0  0  0  0  0  0  0  0
   21.2460   -3.4787  -15.6128 S   0  0  0  0  0  0  0  0  0  0  0  0
   22.3715   -5.6624  -14.1066 C   0  0  0  0  0  0  0  0  0  0  0  0
   21.9272   -6.2613  -13.0978 O   0  0  0  0  0  0  0  0  0  0  0  0
   23.2869   -4.6414  -13.8971 O   0  0  0  0  0  0  0  0  0  0  0  0
  2  1  1  6
  2  3  1  0
  4  2  1  0
  4  5  1  6
  6  4  1  0
  6  7  2  0
  8  6  1  0
  9  8  1  0
 10 11  1  0
  9 10  1  6
 11 19  1  0
 12 11  2  0
 12 13  1  0
 13 14  1  0
 14 15  1  0
 15 16  2  0
 17 16  1  0
 18 17  2  0
 19 14  2  0
 19 18  1  0
 20  9  1  0
 20 22  1  0
 21 20  2  0
 23 22  1  0
 23 26  1  0
 23 24  1  1
 25 24  1  0
 26 27  2  0
 26 28  1  0
M  END
$$$$
