VWC.pdb
     RDKit          3D

 28 29  0  0  1  0  0  0  0  0999 V2000
   23.5009  -29.0687  -18.0170 C   0  0  0  0  0  0  0  0  0  0  0  0
   22.7563  -28.4951  -16.8559 C   0  0  1  0  0  0  0  0  0  0  0  0
   23.6222  -28.6947  -15.6186 C   0  0  0  0  0  0  0  0  0  0  0  0
   22.4935  -27.0174  -16.9693 C   0  0  2  0  0  0  0  0  0  0  0  0
   23.7847  -26.3797  -17.2165 N   0  0  0  0  0  0  0  0  0  0  0  0
   21.8832  -26.4353  -15.7587 C   0  0  0  0  0  0  0  0  0  0  0  0
   22.6340  -25.9438  -14.8603 O   0  0  0  0  0  0  0  0  0  0  0  0
   20.4908  -26.3766  -15.5066 N   0  0  0  0  0  0  0  0  0  0  0  0
   19.9016  -25.7590  -14.3244 C   0  0  1  0  0  0  0  0  0  0  0  0
   19.0351  -24.6033  -14.6794 C   0  0  0  0  0  0  0  0  0  0  0  0
   19.6866  -23.4923  -15.3774 C   0  0  0  0  0  0  0  0  0  0  0  0
   20.4440  -22.5173  -14.7572 C   0  0  0  0  0  0  0  0  0  0  0  0
   20.9271  -21.6696  -15.6631 N   0  0  0  0  0  0  0  0  0  0  0  0
   20.5034  -22.0617  -16.8865 C   0  0  0  0  0  0  0  0  0  0  0  0
   20.7475  -21.4876  -18.1158 C   0  0  0  0  0  0  0  0  0  0  0  0
   20.1957  -22.0669  -19.2318 C   0  0  0  0  0  0  0  0  0  0  0  0
   19.4208  -23.1979  -19.0745 C   0  0  0  0  0  0  0  0  0  0  0  0
   19.1851  -23.7611  -17.8422 C   0  0  0  0  0  0  0  0  0  0  0  0
   19.7266  -23.2024  -16.7060 C   0  0  0  0  0  0  0  0  0  0  0  0
   19.3259  -26.7170  -13.3771 C   0  0  0  0  0  0  0  0  0  0  0  0
   18.6207  -27.6808  -13.7627 O   0  0  0  0  0  0  0  0  0  0  0  0
   19.5335  -26.6082  -11.9741 N   0  0  0  0  0  0  0  0  0  0  0  0
   18.9825  -27.5796  -11.0559 C   0  0  1  0  0  0  0  0  0  0  0  0
   19.8314  -27.7281   -9.8129 C   0  0  0  0  0  0  0  0  0  0  0  0
   21.4859  -28.2507  -10.3451 S   0  0  0  0  0  0  0  0  0  0  0  0
   17.5996  -27.2780  -10.6776 C   0  0  0  0  0  0  0  0  0  0  0  0
   17.1960  -26.0956  -10.7903 O   0  0  0  0  0  0  0  0  0  0  0  0
   16.7017  -28.2213  -10.2000 O   0  0  0  0  0  0  0  0  0  0  0  0
  2  1  1  6
  2  3  1  0
  4  2  1  0
  4  5  1  1
  6  4  1  0
  6  7  2  0
  8  6  1  0
  9  8  1  0
 10 11  1  0
  9 10  1  6
 11 19  1  0
 12 11  2  0
 12 13  1  0
 13 14  1  0
 14 15  1  0
 15 16  2  0
 17 16  1  0
 18 17  2  0
 19 14  2  0
 19 18  1  0
 20  9  1  0
 20 22  1  0
 21 20  2  0
 23 22  1  0
 23 26  1  0
 23 24  1  1
 25 24  1  0
 26 27  2  0
 26 28  1  0
M  END
$$$$
