VWC.pdb
     RDKit          3D

 28 29  0  0  1  0  0  0  0  0999 V2000
   15.3137  -22.3174    4.5998 C   0  0  0  0  0  0  0  0  0  0  0  0
   15.4394  -22.2599    3.1123 C   0  0  1  0  0  0  0  0  0  0  0  0
   14.5213  -23.3312    2.5380 C   0  0  0  0  0  0  0  0  0  0  0  0
   15.0061  -20.9488    2.5135 C   0  0  2  0  0  0  0  0  0  0  0  0
   15.1094  -21.0957    1.0633 N   0  0  0  0  0  0  0  0  0  0  0  0
   15.8284  -19.8041    2.9498 C   0  0  0  0  0  0  0  0  0  0  0  0
   16.8767  -19.5085    2.2971 O   0  0  0  0  0  0  0  0  0  0  0  0
   15.5392  -18.9835    4.0673 N   0  0  0  0  0  0  0  0  0  0  0  0
   16.3309  -17.8210    4.4519 C   0  0  1  0  0  0  0  0  0  0  0  0
   15.6594  -16.5477    4.0774 C   0  0  0  0  0  0  0  0  0  0  0  0
   16.4545  -15.3260    4.2227 C   0  0  0  0  0  0  0  0  0  0  0  0
   16.1861  -14.3236    5.1349 C   0  0  0  0  0  0  0  0  0  0  0  0
   17.1065  -13.3658    5.0446 N   0  0  0  0  0  0  0  0  0  0  0  0
   17.9917  -13.7109    4.0816 C   0  0  0  0  0  0  0  0  0  0  0  0
   19.1024  -13.0263    3.6367 C   0  0  0  0  0  0  0  0  0  0  0  0
   19.8531  -13.5784    2.6282 C   0  0  0  0  0  0  0  0  0  0  0  0
   19.4632  -14.7939    2.1037 C   0  0  0  0  0  0  0  0  0  0  0  0
   18.3528  -15.4669    2.5567 C   0  0  0  0  0  0  0  0  0  0  0  0
   17.5819  -14.9377    3.5677 C   0  0  0  0  0  0  0  0  0  0  0  0
   16.8557  -17.8842    5.8183 C   0  0  0  0  0  0  0  0  0  0  0  0
   16.1244  -18.1926    6.7904 O   0  0  0  0  0  0  0  0  0  0  0  0
   18.2172  -17.6009    6.1175 N   0  0  0  0  0  0  0  0  0  0  0  0
   18.7178  -17.6667    7.4721 C   0  0  1  0  0  0  0  0  0  0  0  0
   20.2207  -17.8314    7.5125 C   0  0  0  0  0  0  0  0  0  0  0  0
   20.6010  -19.4944    6.8934 S   0  0  0  0  0  0  0  0  0  0  0  0
   18.3253  -16.5063    8.2761 C   0  0  0  0  0  0  0  0  0  0  0  0
   18.1664  -15.4059    7.6951 O   0  0  0  0  0  0  0  0  0  0  0  0
   18.1167  -16.5460    9.6468 O   0  0  0  0  0  0  0  0  0  0  0  0
  2  1  1  1
  2  3  1  0
  4  2  1  0
  4  5  1  6
  6  4  1  0
  6  7  2  0
  8  6  1  0
  9  8  1  0
 10 11  1  0
  9 10  1  1
 11 19  1  0
 12 11  2  0
 12 13  1  0
 13 14  1  0
 14 15  1  0
 15 16  2  0
 17 16  1  0
 18 17  2  0
 19 14  2  0
 19 18  1  0
 20  9  1  0
 20 22  1  0
 21 20  2  0
 23 22  1  0
 23 26  1  0
 23 24  1  6
 25 24  1  0
 26 27  2  0
 26 28  1  0
M  END
$$$$
