VWC.pdb
     RDKit          3D

 28 29  0  0  1  0  0  0  0  0999 V2000
   25.5484  -22.2185  -20.3804 C   0  0  0  0  0  0  0  0  0  0  0  0
   25.5153  -20.8440  -19.7958 C   0  0  1  0  0  0  0  0  0  0  0  0
   25.6666  -19.8580  -20.9470 C   0  0  0  0  0  0  0  0  0  0  0  0
   24.2231  -20.5072  -19.1013 C   0  0  2  0  0  0  0  0  0  0  0  0
   24.1523  -19.0494  -19.0316 N   0  0  0  0  0  0  0  0  0  0  0  0
   24.1248  -21.0683  -17.7403 C   0  0  0  0  0  0  0  0  0  0  0  0
   24.1344  -22.3287  -17.5865 O   0  0  0  0  0  0  0  0  0  0  0  0
   24.0175  -20.2979  -16.5568 N   0  0  0  0  0  0  0  0  0  0  0  0
   23.7046  -20.8557  -15.2464 C   0  0  1  0  0  0  0  0  0  0  0  0
   24.1971  -19.9862  -14.1447 C   0  0  0  0  0  0  0  0  0  0  0  0
   24.1211  -20.5442  -12.7923 C   0  0  0  0  0  0  0  0  0  0  0  0
   25.0446  -21.4209  -12.2564 C   0  0  0  0  0  0  0  0  0  0  0  0
   24.7171  -21.7174  -11.0004 N   0  0  0  0  0  0  0  0  0  0  0  0
   23.5830  -21.0512  -10.6841 C   0  0  0  0  0  0  0  0  0  0  0  0
   22.8734  -21.0561   -9.5023 C   0  0  0  0  0  0  0  0  0  0  0  0
   21.7319  -20.2974   -9.4192 C   0  0  0  0  0  0  0  0  0  0  0  0
   21.3445  -19.5636  -10.5219 C   0  0  0  0  0  0  0  0  0  0  0  0
   22.0616  -19.5672  -11.6953 C   0  0  0  0  0  0  0  0  0  0  0  0
   23.2109  -20.3177  -11.8069 C   0  0  0  0  0  0  0  0  0  0  0  0
   22.3235  -21.3267  -15.1147 C   0  0  0  0  0  0  0  0  0  0  0  0
   21.3534  -20.6428  -15.5222 O   0  0  0  0  0  0  0  0  0  0  0  0
   22.0071  -22.5797  -14.5203 N   0  0  0  0  0  0  0  0  0  0  0  0
   20.6361  -23.0077  -14.3552 C   0  0  1  0  0  0  0  0  0  0  0  0
   20.5427  -24.4587  -13.9386 C   0  0  0  0  0  0  0  0  0  0  0  0
   21.5769  -25.4185  -15.0801 S   0  0  0  0  0  0  0  0  0  0  0  0
   19.8939  -22.1721  -13.4078 C   0  0  0  0  0  0  0  0  0  0  0  0
   20.4990  -21.2275  -12.8462 O   0  0  0  0  0  0  0  0  0  0  0  0
   18.5567  -22.3588  -13.0896 O   0  0  0  0  0  0  0  0  0  0  0  0
  2  1  1  6
  2  3  1  0
  4  2  1  0
  4  5  1  1
  6  4  1  0
  6  7  2  0
  8  6  1  0
  9  8  1  0
 10 11  1  0
  9 10  1  1
 11 19  1  0
 12 11  2  0
 12 13  1  0
 13 14  1  0
 14 15  1  0
 15 16  2  0
 17 16  1  0
 18 17  2  0
 19 14  2  0
 19 18  1  0
 20  9  1  0
 20 22  1  0
 21 20  2  0
 23 22  1  0
 23 26  1  0
 23 24  1  1
 25 24  1  0
 26 27  2  0
 26 28  1  0
M  END
$$$$
