VWC.pdb
     RDKit          3D

 28 29  0  0  1  0  0  0  0  0999 V2000
   28.8422  -18.8699  -14.6019 C   0  0  0  0  0  0  0  0  0  0  0  0
   27.7088  -18.2184  -15.3250 C   0  0  1  0  0  0  0  0  0  0  0  0
   28.1450  -18.0257  -16.7717 C   0  0  0  0  0  0  0  0  0  0  0  0
   26.4502  -19.0432  -15.3561 C   0  0  2  0  0  0  0  0  0  0  0  0
   25.5218  -18.3577  -16.2523 N   0  0  0  0  0  0  0  0  0  0  0  0
   25.8222  -19.2058  -14.0310 C   0  0  0  0  0  0  0  0  0  0  0  0
   25.4286  -18.1764  -13.4003 O   0  0  0  0  0  0  0  0  0  0  0  0
   25.6153  -20.4486  -13.3842 N   0  0  0  0  0  0  0  0  0  0  0  0
   24.9978  -20.5915  -12.0710 C   0  0  1  0  0  0  0  0  0  0  0  0
   23.9194  -21.6161  -12.0769 C   0  0  0  0  0  0  0  0  0  0  0  0
   22.6499  -21.2205  -12.6916 C   0  0  0  0  0  0  0  0  0  0  0  0
   21.4620  -21.0702  -12.0023 C   0  0  0  0  0  0  0  0  0  0  0  0
   20.5003  -20.6710  -12.8320 N   0  0  0  0  0  0  0  0  0  0  0  0
   21.0262  -20.5513  -14.0726 C   0  0  0  0  0  0  0  0  0  0  0  0
   20.4082  -20.1741  -15.2456 C   0  0  0  0  0  0  0  0  0  0  0  0
   21.1548  -20.1343  -16.3973 C   0  0  0  0  0  0  0  0  0  0  0  0
   22.4908  -20.4738  -16.3307 C   0  0  0  0  0  0  0  0  0  0  0  0
   23.0955  -20.8484  -15.1538 C   0  0  0  0  0  0  0  0  0  0  0  0
   22.3717  -20.8960  -13.9832 C   0  0  0  0  0  0  0  0  0  0  0  0
   25.9585  -20.6872  -10.9691 C   0  0  0  0  0  0  0  0  0  0  0  0
   26.9885  -21.3990  -11.0539 O   0  0  0  0  0  0  0  0  0  0  0  0
   25.7779  -19.9814   -9.7473 N   0  0  0  0  0  0  0  0  0  0  0  0
   26.6538  -20.1989   -8.6178 C   0  0  1  0  0  0  0  0  0  0  0  0
   27.2859  -18.9121   -8.1361 C   0  0  0  0  0  0  0  0  0  0  0  0
   27.9201  -19.2126   -6.4624 S   0  0  0  0  0  0  0  0  0  0  0  0
   25.9803  -20.8677   -7.5016 C   0  0  0  0  0  0  0  0  0  0  0  0
   24.7303  -20.9681   -7.5346 O   0  0  0  0  0  0  0  0  0  0  0  0
   26.6396  -21.4005   -6.4037 O   0  0  0  0  0  0  0  0  0  0  0  0
  2  1  1  1
  2  3  1  0
  4  2  1  0
  4  5  1  6
  6  4  1  0
  6  7  2  0
  8  6  1  0
  9  8  1  0
 10 11  1  0
  9 10  1  6
 11 19  1  0
 12 11  2  0
 12 13  1  0
 13 14  1  0
 14 15  1  0
 15 16  2  0
 17 16  1  0
 18 17  2  0
 19 14  2  0
 19 18  1  0
 20  9  1  0
 20 22  1  0
 21 20  2  0
 23 22  1  0
 23 26  1  0
 23 24  1  1
 25 24  1  0
 26 27  2  0
 26 28  1  0
M  END
$$$$
