VWC.pdb
     RDKit          3D

 28 29  0  0  1  0  0  0  0  0999 V2000
   27.8872  -18.3121  -16.5758 C   0  0  0  0  0  0  0  0  0  0  0  0
   27.1705  -18.9307  -15.4201 C   0  0  1  0  0  0  0  0  0  0  0  0
   26.0580  -19.8013  -15.9899 C   0  0  0  0  0  0  0  0  0  0  0  0
   28.0351  -19.8271  -14.5750 C   0  0  2  0  0  0  0  0  0  0  0  0
   28.4384  -20.9443  -15.4261 N   0  0  0  0  0  0  0  0  0  0  0  0
   27.3474  -20.3467  -13.3775 C   0  0  0  0  0  0  0  0  0  0  0  0
   26.6569  -21.4084  -13.4701 O   0  0  0  0  0  0  0  0  0  0  0  0
   27.3935  -19.7443  -12.0966 N   0  0  0  0  0  0  0  0  0  0  0  0
   26.6912  -20.2599  -10.9274 C   0  0  1  0  0  0  0  0  0  0  0  0
   27.2853  -19.7559   -9.6603 C   0  0  0  0  0  0  0  0  0  0  0  0
   26.7032  -20.2717   -8.4189 C   0  0  0  0  0  0  0  0  0  0  0  0
   25.6132  -21.1186   -8.3604 C   0  0  0  0  0  0  0  0  0  0  0  0
   25.3478  -21.4343   -7.0945 N   0  0  0  0  0  0  0  0  0  0  0  0
   26.2461  -20.8095   -6.2991 C   0  0  0  0  0  0  0  0  0  0  0  0
   26.3565  -20.8358   -4.9253 C   0  0  0  0  0  0  0  0  0  0  0  0
   27.3563  -20.1042   -4.3332 C   0  0  0  0  0  0  0  0  0  0  0  0
   28.2066  -19.3743   -5.1386 C   0  0  0  0  0  0  0  0  0  0  0  0
   28.0859  -19.3566   -6.5083 C   0  0  0  0  0  0  0  0  0  0  0  0
   27.0934  -20.0817   -7.1295 C   0  0  0  0  0  0  0  0  0  0  0  0
   25.2319  -20.1725  -11.0234 C   0  0  0  0  0  0  0  0  0  0  0  0
   24.6514  -19.0831  -11.2492 O   0  0  0  0  0  0  0  0  0  0  0  0
   24.3959  -21.3127  -10.8668 N   0  0  0  0  0  0  0  0  0  0  0  0
   22.9740  -21.2415  -11.1185 C   0  0  1  0  0  0  0  0  0  0  0  0
   22.3635  -22.6125  -11.3066 C   0  0  0  0  0  0  0  0  0  0  0  0
   20.5788  -22.3837  -11.5435 S   0  0  0  0  0  0  0  0  0  0  0  0
   22.2506  -20.5172  -10.0703 C   0  0  0  0  0  0  0  0  0  0  0  0
   21.4606  -19.6052  -10.4136 O   0  0  0  0  0  0  0  0  0  0  0  0
   22.3832  -20.7764   -8.7140 O   0  0  0  0  0  0  0  0  0  0  0  0
  2  1  1  6
  2  3  1  0
  4  2  1  0
  4  5  1  6
  6  4  1  0
  6  7  2  0
  8  6  1  0
  9  8  1  0
 10 11  1  0
  9 10  1  1
 11 19  1  0
 12 11  2  0
 12 13  1  0
 13 14  1  0
 14 15  1  0
 15 16  2  0
 17 16  1  0
 18 17  2  0
 19 14  2  0
 19 18  1  0
 20  9  1  0
 20 22  1  0
 21 20  2  0
 23 22  1  0
 23 26  1  0
 23 24  1  1
 25 24  1  0
 26 27  2  0
 26 28  1  0
M  END
$$$$
