VWC.pdb
     RDKit          3D

 28 29  0  0  1  0  0  0  0  0999 V2000
   23.1341  -17.1657  -18.1272 C   0  0  0  0  0  0  0  0  0  0  0  0
   24.2568  -17.3551  -19.0945 C   0  0  1  0  0  0  0  0  0  0  0  0
   24.1710  -16.2274  -20.1150 C   0  0  0  0  0  0  0  0  0  0  0  0
   25.6227  -17.2719  -18.4679 C   0  0  2  0  0  0  0  0  0  0  0  0
   26.5909  -17.4476  -19.5481 N   0  0  0  0  0  0  0  0  0  0  0  0
   25.8555  -18.2946  -17.4302 C   0  0  0  0  0  0  0  0  0  0  0  0
   26.0563  -19.4987  -17.7795 O   0  0  0  0  0  0  0  0  0  0  0  0
   25.8745  -18.0395  -16.0372 N   0  0  0  0  0  0  0  0  0  0  0  0
   25.9763  -19.0786  -15.0193 C   0  0  1  0  0  0  0  0  0  0  0  0
   26.7381  -18.6128  -13.8296 C   0  0  0  0  0  0  0  0  0  0  0  0
   27.0285  -19.6213  -12.8077 C   0  0  0  0  0  0  0  0  0  0  0  0
   28.0851  -20.5096  -12.8652 C   0  0  0  0  0  0  0  0  0  0  0  0
   28.0997  -21.2730  -11.7745 N   0  0  0  0  0  0  0  0  0  0  0  0
   27.0646  -20.9098  -10.9828 C   0  0  0  0  0  0  0  0  0  0  0  0
   26.6821  -21.4240   -9.7624 C   0  0  0  0  0  0  0  0  0  0  0  0
   25.5772  -20.8929   -9.1437 C   0  0  0  0  0  0  0  0  0  0  0  0
   24.8978  -19.8681   -9.7703 C   0  0  0  0  0  0  0  0  0  0  0  0
   25.2899  -19.3639  -10.9882 C   0  0  0  0  0  0  0  0  0  0  0  0
   26.3947  -19.8763  -11.6311 C   0  0  0  0  0  0  0  0  0  0  0  0
   24.7107  -19.7601  -14.7361 C   0  0  0  0  0  0  0  0  0  0  0  0
   23.6233  -19.1355  -14.6887 O   0  0  0  0  0  0  0  0  0  0  0  0
   24.6446  -21.1614  -14.5004 N   0  0  0  0  0  0  0  0  0  0  0  0
   23.3827  -21.8230  -14.2559 C   0  0  1  0  0  0  0  0  0  0  0  0
   23.5172  -23.3291  -14.2923 C   0  0  0  0  0  0  0  0  0  0  0  0
   25.1404  -23.7116  -15.0080 S   0  0  0  0  0  0  0  0  0  0  0  0
   22.7649  -21.4117  -12.9927 C   0  0  0  0  0  0  0  0  0  0  0  0
   23.4066  -20.6406  -12.2395 O   0  0  0  0  0  0  0  0  0  0  0  0
   21.5081  -21.8222  -12.5728 O   0  0  0  0  0  0  0  0  0  0  0  0
  2  1  1  1
  2  3  1  0
  4  2  1  0
  4  5  1  6
  6  4  1  0
  6  7  2  0
  8  6  1  0
  9  8  1  0
 10 11  1  0
  9 10  1  1
 11 19  1  0
 12 11  2  0
 12 13  1  0
 13 14  1  0
 14 15  1  0
 15 16  2  0
 17 16  1  0
 18 17  2  0
 19 14  2  0
 19 18  1  0
 20  9  1  0
 20 22  1  0
 21 20  2  0
 23 22  1  0
 23 26  1  0
 23 24  1  1
 25 24  1  0
 26 27  2  0
 26 28  1  0
M  END
$$$$
