VWC.pdb
     RDKit          3D

 28 29  0  0  1  0  0  0  0  0999 V2000
   16.5440  -21.4110    4.3240 C   0  0  0  0  0  0  0  0  0  0  0  0
   15.3402  -20.5717    4.0441 C   0  0  1  0  0  0  0  0  0  0  0  0
   14.6671  -20.2847    5.3802 C   0  0  0  0  0  0  0  0  0  0  0  0
   15.6571  -19.2387    3.4213 C   0  0  2  0  0  0  0  0  0  0  0  0
   16.1474  -19.5122    2.0722 N   0  0  0  0  0  0  0  0  0  0  0  0
   16.6731  -18.4699    4.1654 C   0  0  0  0  0  0  0  0  0  0  0  0
   17.8976  -18.5954    3.8536 O   0  0  0  0  0  0  0  0  0  0  0  0
   16.3900  -17.5782    5.2287 N   0  0  0  0  0  0  0  0  0  0  0  0
   17.3874  -16.7270    5.8663 C   0  0  1  0  0  0  0  0  0  0  0  0
   16.8377  -15.3849    6.1964 C   0  0  0  0  0  0  0  0  0  0  0  0
   17.5958  -14.2324    5.7034 C   0  0  0  0  0  0  0  0  0  0  0  0
   17.1997  -13.4294    4.6512 C   0  0  0  0  0  0  0  0  0  0  0  0
   18.0817  -12.4490    4.4680 N   0  0  0  0  0  0  0  0  0  0  0  0
   19.0680  -12.5825    5.3842 C   0  0  0  0  0  0  0  0  0  0  0  0
   20.1914  -11.8058    5.5708 C   0  0  0  0  0  0  0  0  0  0  0  0
   21.0659  -12.1468    6.5731 C   0  0  0  0  0  0  0  0  0  0  0  0
   20.7824  -13.2520    7.3496 C   0  0  0  0  0  0  0  0  0  0  0  0
   19.6577  -14.0186    7.1532 C   0  0  0  0  0  0  0  0  0  0  0  0
   18.7627  -13.6995    6.1564 C   0  0  0  0  0  0  0  0  0  0  0  0
   18.1356  -17.3879    6.9387 C   0  0  0  0  0  0  0  0  0  0  0  0
   17.5845  -18.1977    7.7232 O   0  0  0  0  0  0  0  0  0  0  0  0
   19.5222  -17.1496    7.1489 N   0  0  0  0  0  0  0  0  0  0  0  0
   20.2329  -17.7692    8.2449 C   0  0  1  0  0  0  0  0  0  0  0  0
   21.6641  -18.0942    7.8793 C   0  0  0  0  0  0  0  0  0  0  0  0
   21.7823  -19.8963    7.6998 S   0  0  0  0  0  0  0  0  0  0  0  0
   20.2056  -16.9591    9.4654 C   0  0  0  0  0  0  0  0  0  0  0  0
   20.1082  -15.7136    9.3512 O   0  0  0  0  0  0  0  0  0  0  0  0
   20.2808  -17.4835   10.7474 O   0  0  0  0  0  0  0  0  0  0  0  0
  2  1  1  1
  2  3  1  0
  4  2  1  0
  4  5  1  6
  6  4  1  0
  6  7  2  0
  8  6  1  0
  9  8  1  0
 10 11  1  0
  9 10  1  1
 11 19  1  0
 12 11  2  0
 12 13  1  0
 13 14  1  0
 14 15  1  0
 15 16  2  0
 17 16  1  0
 18 17  2  0
 19 14  2  0
 19 18  1  0
 20  9  1  0
 20 22  1  0
 21 20  2  0
 23 22  1  0
 23 26  1  0
 23 24  1  6
 25 24  1  0
 26 27  2  0
 26 28  1  0
M  END
$$$$
