VWC.pdb
     RDKit          3D

 28 29  0  0  1  0  0  0  0  0999 V2000
   28.0611  -22.4797  -15.6580 C   0  0  0  0  0  0  0  0  0  0  0  0
   26.8832  -21.5673  -15.7673 C   0  0  1  0  0  0  0  0  0  0  0  0
   25.6345  -22.4396  -15.7887 C   0  0  0  0  0  0  0  0  0  0  0  0
   26.7338  -20.6219  -14.6057 C   0  0  2  0  0  0  0  0  0  0  0  0
   26.6182  -21.4474  -13.4055 N   0  0  0  0  0  0  0  0  0  0  0  0
   25.5530  -19.7437  -14.7120 C   0  0  0  0  0  0  0  0  0  0  0  0
   24.4976  -20.0428  -14.0724 O   0  0  0  0  0  0  0  0  0  0  0  0
   25.4953  -18.5613  -15.4894 N   0  0  0  0  0  0  0  0  0  0  0  0
   24.2766  -17.7936  -15.7167 C   0  0  1  0  0  0  0  0  0  0  0  0
   24.5716  -16.4303  -16.2334 C   0  0  0  0  0  0  0  0  0  0  0  0
   23.4143  -15.5809  -16.5250 C   0  0  0  0  0  0  0  0  0  0  0  0
   22.8785  -14.6617  -15.6437 C   0  0  0  0  0  0  0  0  0  0  0  0
   21.8576  -14.0246  -16.2133 N   0  0  0  0  0  0  0  0  0  0  0  0
   21.6987  -14.5045  -17.4681 C   0  0  0  0  0  0  0  0  0  0  0  0
   20.7692  -14.1504  -18.4225 C   0  0  0  0  0  0  0  0  0  0  0  0
   20.7985  -14.7913  -19.6365 C   0  0  0  0  0  0  0  0  0  0  0  0
   21.7564  -15.7619  -19.8484 C   0  0  0  0  0  0  0  0  0  0  0  0
   22.6784  -16.1058  -18.8877 C   0  0  0  0  0  0  0  0  0  0  0  0
   22.6735  -15.4789  -17.6616 C   0  0  0  0  0  0  0  0  0  0  0  0
   23.2331  -18.5319  -16.4325 C   0  0  0  0  0  0  0  0  0  0  0  0
   23.5118  -19.3456  -17.3464 O   0  0  0  0  0  0  0  0  0  0  0  0
   21.8523  -18.3684  -16.1324 N   0  0  0  0  0  0  0  0  0  0  0  0
   20.8339  -19.0819  -16.8699 C   0  0  1  0  0  0  0  0  0  0  0  0
   20.3966  -20.3417  -16.1561 C   0  0  0  0  0  0  0  0  0  0  0  0
   19.0586  -21.0822  -17.1333 S   0  0  0  0  0  0  0  0  0  0  0  0
   19.6648  -18.2503  -17.1671 C   0  0  0  0  0  0  0  0  0  0  0  0
   19.3498  -17.3523  -16.3497 O   0  0  0  0  0  0  0  0  0  0  0  0
   18.8787  -18.3925  -18.3011 O   0  0  0  0  0  0  0  0  0  0  0  0
  2  1  1  1
  2  3  1  0
  4  2  1  0
  4  5  1  1
  6  4  1  0
  6  7  2  0
  8  6  1  0
  9  8  1  0
 10 11  1  0
  9 10  1  6
 11 19  1  0
 12 11  2  0
 12 13  1  0
 13 14  1  0
 14 15  1  0
 15 16  2  0
 17 16  1  0
 18 17  2  0
 19 14  2  0
 19 18  1  0
 20  9  1  0
 20 22  1  0
 21 20  2  0
 23 22  1  0
 23 26  1  0
 23 24  1  1
 25 24  1  0
 26 27  2  0
 26 28  1  0
M  END
$$$$
