VWC.pdb
     RDKit          3D

 28 29  0  0  1  0  0  0  0  0999 V2000
   28.4700  -19.1182  -17.7404 C   0  0  0  0  0  0  0  0  0  0  0  0
   27.3440  -19.6004  -16.8852 C   0  0  1  0  0  0  0  0  0  0  0  0
   26.3827  -20.3623  -17.7885 C   0  0  0  0  0  0  0  0  0  0  0  0
   27.7671  -20.5523  -15.7988 C   0  0  2  0  0  0  0  0  0  0  0  0
   28.2805  -21.7472  -16.4649 N   0  0  0  0  0  0  0  0  0  0  0  0
   26.6683  -20.9317  -14.8903 C   0  0  0  0  0  0  0  0  0  0  0  0
   25.9634  -21.9525  -15.1613 O   0  0  0  0  0  0  0  0  0  0  0  0
   26.3230  -20.2335  -13.7074 N   0  0  0  0  0  0  0  0  0  0  0  0
   25.1703  -20.5585  -12.8758 C   0  0  1  0  0  0  0  0  0  0  0  0
   25.2405  -19.8891  -11.5493 C   0  0  0  0  0  0  0  0  0  0  0  0
   24.2366  -20.2941  -10.5625 C   0  0  0  0  0  0  0  0  0  0  0  0
   24.5059  -21.0569   -9.4425 C   0  0  0  0  0  0  0  0  0  0  0  0
   23.3955  -21.2262   -8.7276 N   0  0  0  0  0  0  0  0  0  0  0  0
   22.3807  -20.5868   -9.3535 C   0  0  0  0  0  0  0  0  0  0  0  0
   21.0550  -20.4944   -8.9875 C   0  0  0  0  0  0  0  0  0  0  0  0
   20.1983  -19.7900   -9.7971 C   0  0  0  0  0  0  0  0  0  0  0  0
   20.7014  -19.2057  -10.9417 C   0  0  0  0  0  0  0  0  0  0  0  0
   22.0265  -19.3053  -11.2955 C   0  0  0  0  0  0  0  0  0  0  0  0
   22.9087  -20.0044  -10.5020 C   0  0  0  0  0  0  0  0  0  0  0  0
   23.8857  -20.4542  -13.5725 C   0  0  0  0  0  0  0  0  0  0  0  0
   23.6299  -19.4956  -14.3410 O   0  0  0  0  0  0  0  0  0  0  0  0
   22.8618  -21.4294  -13.4173 N   0  0  0  0  0  0  0  0  0  0  0  0
   21.5852  -21.2902  -14.0814 C   0  0  1  0  0  0  0  0  0  0  0  0
   21.5454  -22.0411  -15.3937 C   0  0  0  0  0  0  0  0  0  0  0  0
   19.8884  -21.8145  -16.0983 S   0  0  0  0  0  0  0  0  0  0  0  0
   20.4617  -21.7070  -13.2384 C   0  0  0  0  0  0  0  0  0  0  0  0
   19.2968  -21.4735  -13.6410 O   0  0  0  0  0  0  0  0  0  0  0  0
   20.6036  -22.3474  -12.0162 O   0  0  0  0  0  0  0  0  0  0  0  0
  2  1  1  6
  2  3  1  0
  4  2  1  0
  4  5  1  6
  6  4  1  0
  6  7  2  0
  8  6  1  0
  9  8  1  0
 10 11  1  0
  9 10  1  1
 11 19  1  0
 12 11  2  0
 12 13  1  0
 13 14  1  0
 14 15  1  0
 15 16  2  0
 17 16  1  0
 18 17  2  0
 19 14  2  0
 19 18  1  0
 20  9  1  0
 20 22  1  0
 21 20  2  0
 23 22  1  0
 23 26  1  0
 23 24  1  6
 25 24  1  0
 26 27  2  0
 26 28  1  0
M  END
$$$$
