VWC.pdb
     RDKit          3D

 28 29  0  0  1  0  0  0  0  0999 V2000
   24.8602  -20.6059  -15.4792 C   0  0  0  0  0  0  0  0  0  0  0  0
   25.1457  -21.1605  -14.1217 C   0  0  1  0  0  0  0  0  0  0  0  0
   26.6386  -20.9943  -13.8688 C   0  0  0  0  0  0  0  0  0  0  0  0
   24.4330  -20.4427  -13.0071 C   0  0  2  0  0  0  0  0  0  0  0  0
   24.7111  -19.0187  -13.1801 N   0  0  0  0  0  0  0  0  0  0  0  0
   24.8685  -20.8673  -11.6629 C   0  0  0  0  0  0  0  0  0  0  0  0
   24.6913  -22.0726  -11.3050 O   0  0  0  0  0  0  0  0  0  0  0  0
   25.4851  -20.0197  -10.7104 N   0  0  0  0  0  0  0  0  0  0  0  0
   25.8556  -20.4398   -9.3641 C   0  0  1  0  0  0  0  0  0  0  0  0
   27.0691  -19.7296   -8.8788 C   0  0  0  0  0  0  0  0  0  0  0  0
   27.6730  -20.2416   -7.6463 C   0  0  0  0  0  0  0  0  0  0  0  0
   28.0927  -21.5454   -7.4654 C   0  0  0  0  0  0  0  0  0  0  0  0
   28.6273  -21.6890   -6.2546 N   0  0  0  0  0  0  0  0  0  0  0  0
   28.5721  -20.4971   -5.6171 C   0  0  0  0  0  0  0  0  0  0  0  0
   28.9984  -20.1702   -4.3476 C   0  0  0  0  0  0  0  0  0  0  0  0
   28.8263  -18.8804   -3.9094 C   0  0  0  0  0  0  0  0  0  0  0  0
   28.2339  -17.9677   -4.7583 C   0  0  0  0  0  0  0  0  0  0  0  0
   27.8130  -18.3066   -6.0229 C   0  0  0  0  0  0  0  0  0  0  0  0
   27.9740  -19.5923   -6.4893 C   0  0  0  0  0  0  0  0  0  0  0  0
   24.7314  -20.4898   -8.4260 C   0  0  0  0  0  0  0  0  0  0  0  0
   23.9107  -19.5452   -8.3315 O   0  0  0  0  0  0  0  0  0  0  0  0
   24.5087  -21.6071   -7.5741 N   0  0  0  0  0  0  0  0  0  0  0  0
   23.4467  -21.6036   -6.5932 C   0  0  1  0  0  0  0  0  0  0  0  0
   22.6318  -22.8770   -6.6372 C   0  0  0  0  0  0  0  0  0  0  0  0
   20.9662  -22.4359   -7.2070 S   0  0  0  0  0  0  0  0  0  0  0  0
   23.9367  -21.3764   -5.2313 C   0  0  0  0  0  0  0  0  0  0  0  0
   25.1556  -21.5603   -4.9987 O   0  0  0  0  0  0  0  0  0  0  0  0
   23.1350  -20.9683   -4.1754 O   0  0  0  0  0  0  0  0  0  0  0  0
  2  1  1  6
  2  3  1  0
  4  2  1  0
  4  5  1  6
  6  4  1  0
  6  7  2  0
  8  6  1  0
  9  8  1  0
 10 11  1  0
  9 10  1  1
 11 19  1  0
 12 11  2  0
 12 13  1  0
 13 14  1  0
 14 15  1  0
 15 16  2  0
 17 16  1  0
 18 17  2  0
 19 14  2  0
 19 18  1  0
 20  9  1  0
 20 22  1  0
 21 20  2  0
 23 22  1  0
 23 26  1  0
 23 24  1  1
 25 24  1  0
 26 27  2  0
 26 28  1  0
M  END
$$$$
