VWC.pdb
     RDKit          3D

 28 29  0  0  1  0  0  0  0  0999 V2000
   26.3407  -19.7939  -18.2221 C   0  0  0  0  0  0  0  0  0  0  0  0
   25.6436  -18.5429  -18.6475 C   0  0  1  0  0  0  0  0  0  0  0  0
   25.7148  -18.4788  -20.1678 C   0  0  0  0  0  0  0  0  0  0  0  0
   24.1852  -18.5011  -18.2779 C   0  0  2  0  0  0  0  0  0  0  0  0
   23.6523  -17.2510  -18.8150 N   0  0  0  0  0  0  0  0  0  0  0  0
   23.9469  -18.5503  -16.8227 C   0  0  0  0  0  0  0  0  0  0  0  0
   24.2999  -17.5660  -16.1025 O   0  0  0  0  0  0  0  0  0  0  0  0
   23.3404  -19.6338  -16.1416 N   0  0  0  0  0  0  0  0  0  0  0  0
   23.1932  -19.7063  -14.6927 C   0  0  1  0  0  0  0  0  0  0  0  0
   21.7888  -19.9917  -14.2943 C   0  0  0  0  0  0  0  0  0  0  0  0
   21.5216  -20.0574  -12.8555 C   0  0  0  0  0  0  0  0  0  0  0  0
   22.1049  -19.2311  -11.9144 C   0  0  0  0  0  0  0  0  0  0  0  0
   21.6336  -19.5156  -10.7022 N   0  0  0  0  0  0  0  0  0  0  0  0
   20.7398  -20.5248  -10.8154 C   0  0  0  0  0  0  0  0  0  0  0  0
   20.0076  -21.1516   -9.8299 C   0  0  0  0  0  0  0  0  0  0  0  0
   19.1600  -22.1702  -10.1897 C   0  0  0  0  0  0  0  0  0  0  0  0
   19.0782  -22.5224  -11.5216 C   0  0  0  0  0  0  0  0  0  0  0  0
   19.8141  -21.8888  -12.4953 C   0  0  0  0  0  0  0  0  0  0  0  0
   20.6713  -20.8632  -12.1637 C   0  0  0  0  0  0  0  0  0  0  0  0
   24.2184  -20.5168  -14.0304 C   0  0  0  0  0  0  0  0  0  0  0  0
   24.3982  -21.7225  -14.3286 O   0  0  0  0  0  0  0  0  0  0  0  0
   25.0632  -19.9843  -13.0174 N   0  0  0  0  0  0  0  0  0  0  0  0
   26.0532  -20.8052  -12.3570 C   0  0  1  0  0  0  0  0  0  0  0  0
   27.4435  -20.2220  -12.4778 C   0  0  0  0  0  0  0  0  0  0  0  0
   27.3697  -18.5135  -11.8700 S   0  0  0  0  0  0  0  0  0  0  0  0
   25.7380  -21.0451  -10.9464 C   0  0  0  0  0  0  0  0  0  0  0  0
   26.4553  -21.8496  -10.3046 O   0  0  0  0  0  0  0  0  0  0  0  0
   24.6910  -20.4362  -10.2701 O   0  0  0  0  0  0  0  0  0  0  0  0
  2  1  1  6
  2  3  1  0
  4  2  1  0
  4  5  1  1
  6  4  1  0
  6  7  2  0
  8  6  1  0
  9  8  1  0
 10 11  1  0
  9 10  1  6
 11 19  1  0
 12 11  2  0
 12 13  1  0
 13 14  1  0
 14 15  1  0
 15 16  2  0
 17 16  1  0
 18 17  2  0
 19 14  2  0
 19 18  1  0
 20  9  1  0
 20 22  1  0
 21 20  2  0
 23 22  1  0
 23 26  1  0
 23 24  1  1
 25 24  1  0
 26 27  2  0
 26 28  1  0
M  END
$$$$
