VWC.pdb
     RDKit          3D

 28 29  0  0  1  0  0  0  0  0999 V2000
   28.8779  -18.1158  -14.9228 C   0  0  0  0  0  0  0  0  0  0  0  0
   27.7644  -18.7800  -14.1806 C   0  0  1  0  0  0  0  0  0  0  0  0
   26.6759  -19.1080  -15.1945 C   0  0  0  0  0  0  0  0  0  0  0  0
   28.1557  -20.0781  -13.5270 C   0  0  2  0  0  0  0  0  0  0  0  0
   28.4442  -21.0205  -14.6058 N   0  0  0  0  0  0  0  0  0  0  0  0
   27.1040  -20.6371  -12.6562 C   0  0  0  0  0  0  0  0  0  0  0  0
   26.4395  -21.6437  -13.0535 O   0  0  0  0  0  0  0  0  0  0  0  0
   26.7629  -20.1316  -11.3780 N   0  0  0  0  0  0  0  0  0  0  0  0
   25.6618  -20.6388  -10.5679 C   0  0  1  0  0  0  0  0  0  0  0  0
   25.8304  -20.2953   -9.1304 C   0  0  0  0  0  0  0  0  0  0  0  0
   27.1149  -20.6519   -8.5230 C   0  0  0  0  0  0  0  0  0  0  0  0
   28.0561  -21.4737   -9.1126 C   0  0  0  0  0  0  0  0  0  0  0  0
   29.1271  -21.5770   -8.3285 N   0  0  0  0  0  0  0  0  0  0  0  0
   28.9182  -20.8349   -7.2169 C   0  0  0  0  0  0  0  0  0  0  0  0
   29.7443  -20.6474   -6.1294 C   0  0  0  0  0  0  0  0  0  0  0  0
   29.3067  -19.8468   -5.1032 C   0  0  0  0  0  0  0  0  0  0  0  0
   28.0594  -19.2651   -5.2048 C   0  0  0  0  0  0  0  0  0  0  0  0
   27.2448  -19.4601   -6.2955 C   0  0  0  0  0  0  0  0  0  0  0  0
   27.6581  -20.2569   -7.3399 C   0  0  0  0  0  0  0  0  0  0  0  0
   24.3362  -20.3736  -11.1328 C   0  0  0  0  0  0  0  0  0  0  0  0
   23.8918  -19.2057  -11.2482 O   0  0  0  0  0  0  0  0  0  0  0  0
   23.4834  -21.4206  -11.5799 N   0  0  0  0  0  0  0  0  0  0  0  0
   22.2392  -21.1372  -12.2593 C   0  0  1  0  0  0  0  0  0  0  0  0
   22.1023  -21.9271  -13.5419 C   0  0  0  0  0  0  0  0  0  0  0  0
   22.4775  -23.6600  -13.1544 S   0  0  0  0  0  0  0  0  0  0  0  0
   21.0673  -21.3656  -11.4101 C   0  0  0  0  0  0  0  0  0  0  0  0
   21.2361  -21.9275  -10.3012 O   0  0  0  0  0  0  0  0  0  0  0  0
   19.7749  -20.9982  -11.7548 O   0  0  0  0  0  0  0  0  0  0  0  0
  2  1  1  6
  2  3  1  0
  4  2  1  0
  4  5  1  6
  6  4  1  0
  6  7  2  0
  8  6  1  0
  9  8  1  0
 10 11  1  0
  9 10  1  1
 11 19  1  0
 12 11  2  0
 12 13  1  0
 13 14  1  0
 14 15  1  0
 15 16  2  0
 17 16  1  0
 18 17  2  0
 19 14  2  0
 19 18  1  0
 20  9  1  0
 20 22  1  0
 21 20  2  0
 23 22  1  0
 23 26  1  0
 23 24  1  6
 25 24  1  0
 26 27  2  0
 26 28  1  0
M  END
$$$$
