VWC.pdb
     RDKit          3D

 28 29  0  0  1  0  0  0  0  0999 V2000
   29.8397  -23.1378  -17.7207 C   0  0  0  0  0  0  0  0  0  0  0  0
   28.8143  -22.8904  -16.6627 C   0  0  1  0  0  0  0  0  0  0  0  0
   29.5206  -22.2095  -15.4973 C   0  0  0  0  0  0  0  0  0  0  0  0
   27.7020  -21.9726  -17.0936 C   0  0  2  0  0  0  0  0  0  0  0  0
   28.3338  -20.7495  -17.5838 N   0  0  0  0  0  0  0  0  0  0  0  0
   26.7633  -21.6372  -16.0059 C   0  0  0  0  0  0  0  0  0  0  0  0
   26.0153  -22.5459  -15.5295 O   0  0  0  0  0  0  0  0  0  0  0  0
   26.6218  -20.3503  -15.4317 N   0  0  0  0  0  0  0  0  0  0  0  0
   25.6241  -20.0127  -14.4233 C   0  0  1  0  0  0  0  0  0  0  0  0
   26.2018  -19.1843  -13.3312 C   0  0  0  0  0  0  0  0  0  0  0  0
   26.6698  -19.9062  -12.1455 C   0  0  0  0  0  0  0  0  0  0  0  0
   25.8493  -20.3453  -11.1243 C   0  0  0  0  0  0  0  0  0  0  0  0
   26.5665  -20.9951  -10.2100 N   0  0  0  0  0  0  0  0  0  0  0  0
   27.8610  -20.9984  -10.6029 C   0  0  0  0  0  0  0  0  0  0  0  0
   28.9588  -21.5446   -9.9732 C   0  0  0  0  0  0  0  0  0  0  0  0
   30.1896  -21.4119  -10.5673 C   0  0  0  0  0  0  0  0  0  0  0  0
   30.2743  -20.7375  -11.7683 C   0  0  0  0  0  0  0  0  0  0  0  0
   29.1711  -20.1971  -12.3865 C   0  0  0  0  0  0  0  0  0  0  0  0
   27.9241  -20.3159  -11.8143 C   0  0  0  0  0  0  0  0  0  0  0  0
   24.3548  -19.5360  -14.9784 C   0  0  0  0  0  0  0  0  0  0  0  0
   24.3184  -18.7174  -15.9290 O   0  0  0  0  0  0  0  0  0  0  0  0
   23.0989  -19.9727  -14.4730 N   0  0  0  0  0  0  0  0  0  0  0  0
   21.8558  -19.4978  -15.0382 C   0  0  1  0  0  0  0  0  0  0  0  0
   21.4327  -20.3132  -16.2397 C   0  0  0  0  0  0  0  0  0  0  0  0
   19.8328  -19.6645  -16.7994 S   0  0  0  0  0  0  0  0  0  0  0  0
   20.7678  -19.4601  -14.0577 C   0  0  0  0  0  0  0  0  0  0  0  0
   20.7229  -20.3586  -13.1834 O   0  0  0  0  0  0  0  0  0  0  0  0
   19.7778  -18.4888  -14.0332 O   0  0  0  0  0  0  0  0  0  0  0  0
  2  1  1  6
  2  3  1  0
  4  2  1  0
  4  5  1  1
  6  4  1  0
  6  7  2  0
  8  6  1  0
  9  8  1  0
 10 11  1  0
  9 10  1  1
 11 19  1  0
 12 11  2  0
 12 13  1  0
 13 14  1  0
 14 15  1  0
 15 16  2  0
 17 16  1  0
 18 17  2  0
 19 14  2  0
 19 18  1  0
 20  9  1  0
 20 22  1  0
 21 20  2  0
 23 22  1  0
 23 26  1  0
 23 24  1  6
 25 24  1  0
 26 27  2  0
 26 28  1  0
M  END
$$$$
