VWC.pdb
     RDKit          3D

 28 29  0  0  1  0  0  0  0  0999 V2000
   28.7003  -20.6903  -16.8191 C   0  0  0  0  0  0  0  0  0  0  0  0
   28.0577  -21.2193  -15.5785 C   0  0  1  0  0  0  0  0  0  0  0  0
   29.1737  -21.5548  -14.5976 C   0  0  0  0  0  0  0  0  0  0  0  0
   27.1554  -20.2311  -14.8897 C   0  0  2  0  0  0  0  0  0  0  0  0
   27.9278  -19.0016  -14.7257 N   0  0  0  0  0  0  0  0  0  0  0  0
   26.6799  -20.6907  -13.5708 C   0  0  0  0  0  0  0  0  0  0  0  0
   25.8784  -21.6736  -13.5081 O   0  0  0  0  0  0  0  0  0  0  0  0
   27.0526  -20.1118  -12.3331 N   0  0  0  0  0  0  0  0  0  0  0  0
   26.4702  -20.4860  -11.0498 C   0  0  1  0  0  0  0  0  0  0  0  0
   27.3333  -20.0733   -9.9108 C   0  0  0  0  0  0  0  0  0  0  0  0
   26.8197  -20.3585   -8.5689 C   0  0  0  0  0  0  0  0  0  0  0  0
   25.6729  -21.0841   -8.3097 C   0  0  0  0  0  0  0  0  0  0  0  0
   25.4922  -21.1983   -6.9956 N   0  0  0  0  0  0  0  0  0  0  0  0
   26.5038  -20.5575   -6.3662 C   0  0  0  0  0  0  0  0  0  0  0  0
   26.7292  -20.4066   -5.0147 C   0  0  0  0  0  0  0  0  0  0  0  0
   27.8328  -19.6977   -4.6086 C   0  0  0  0  0  0  0  0  0  0  0  0
   28.6679  -19.1669   -5.5706 C   0  0  0  0  0  0  0  0  0  0  0  0
   28.4318  -19.3248   -6.9162 C   0  0  0  0  0  0  0  0  0  0  0  0
   27.3335  -20.0319   -7.3523 C   0  0  0  0  0  0  0  0  0  0  0  0
   25.0489  -20.1543  -10.9221 C   0  0  0  0  0  0  0  0  0  0  0  0
   24.6387  -18.9715  -11.0098 O   0  0  0  0  0  0  0  0  0  0  0  0
   24.0593  -21.1501  -10.6930 N   0  0  0  0  0  0  0  0  0  0  0  0
   22.6577  -20.8837  -10.9262 C   0  0  1  0  0  0  0  0  0  0  0  0
   22.0207  -21.9356  -11.8068 C   0  0  0  0  0  0  0  0  0  0  0  0
   20.2363  -21.6065  -11.8410 S   0  0  0  0  0  0  0  0  0  0  0  0
   21.8938  -20.7502   -9.6831 C   0  0  0  0  0  0  0  0  0  0  0  0
   22.2227  -21.4608   -8.7030 O   0  0  0  0  0  0  0  0  0  0  0  0
   20.8235  -19.8833   -9.5185 O   0  0  0  0  0  0  0  0  0  0  0  0
  2  1  1  6
  2  3  1  0
  4  2  1  0
  4  5  1  1
  6  4  1  0
  6  7  2  0
  8  6  1  0
  9  8  1  0
 10 11  1  0
  9 10  1  1
 11 19  1  0
 12 11  2  0
 12 13  1  0
 13 14  1  0
 14 15  1  0
 15 16  2  0
 17 16  1  0
 18 17  2  0
 19 14  2  0
 19 18  1  0
 20  9  1  0
 20 22  1  0
 21 20  2  0
 23 22  1  0
 23 26  1  0
 23 24  1  6
 25 24  1  0
 26 27  2  0
 26 28  1  0
M  END
$$$$
