VWC.pdb
     RDKit          3D

 28 29  0  0  1  0  0  0  0  0999 V2000
   28.1003  -21.5883  -19.7184 C   0  0  0  0  0  0  0  0  0  0  0  0
   27.4494  -21.7476  -18.3831 C   0  0  1  0  0  0  0  0  0  0  0  0
   26.4935  -22.9294  -18.4828 C   0  0  0  0  0  0  0  0  0  0  0  0
   28.4116  -22.0589  -17.2684 C   0  0  2  0  0  0  0  0  0  0  0  0
   29.0042  -23.3584  -17.5769 N   0  0  0  0  0  0  0  0  0  0  0  0
   27.7723  -22.1148  -15.9399 C   0  0  0  0  0  0  0  0  0  0  0  0
   27.3111  -23.2206  -15.5192 O   0  0  0  0  0  0  0  0  0  0  0  0
   27.6252  -21.0077  -15.0690 N   0  0  0  0  0  0  0  0  0  0  0  0
   26.9452  -21.0685  -13.7806 C   0  0  1  0  0  0  0  0  0  0  0  0
   27.5410  -20.1249  -12.7972 C   0  0  0  0  0  0  0  0  0  0  0  0
   26.9929  -20.1688  -11.4394 C   0  0  0  0  0  0  0  0  0  0  0  0
   25.7027  -19.8042  -11.1060 C   0  0  0  0  0  0  0  0  0  0  0  0
   25.4986  -19.9878   -9.8032 N   0  0  0  0  0  0  0  0  0  0  0  0
   26.6367  -20.4714   -9.2546 C   0  0  0  0  0  0  0  0  0  0  0  0
   26.8957  -20.8035   -7.9421 C   0  0  0  0  0  0  0  0  0  0  0  0
   28.1451  -21.2719   -7.6180 C   0  0  0  0  0  0  0  0  0  0  0  0
   29.0871  -21.3894   -8.6198 C   0  0  0  0  0  0  0  0  0  0  0  0
   28.8159  -21.0548   -9.9258 C   0  0  0  0  0  0  0  0  0  0  0  0
   27.5712  -20.5836  -10.2799 C   0  0  0  0  0  0  0  0  0  0  0  0
   25.4835  -21.0455  -13.8776 C   0  0  0  0  0  0  0  0  0  0  0  0
   24.8803  -20.1477  -14.5141 O   0  0  0  0  0  0  0  0  0  0  0  0
   24.6706  -22.0352  -13.2587 N   0  0  0  0  0  0  0  0  0  0  0  0
   23.2281  -21.9782  -13.3363 C   0  0  1  0  0  0  0  0  0  0  0  0
   22.5856  -23.2694  -12.8807 C   0  0  0  0  0  0  0  0  0  0  0  0
   20.7873  -23.0369  -12.9566 S   0  0  0  0  0  0  0  0  0  0  0  0
   22.6662  -20.8535  -12.5840 C   0  0  0  0  0  0  0  0  0  0  0  0
   23.1247  -20.6132  -11.4413 O   0  0  0  0  0  0  0  0  0  0  0  0
   21.6535  -20.0317  -13.0565 O   0  0  0  0  0  0  0  0  0  0  0  0
  2  1  1  6
  2  3  1  0
  4  2  1  0
  4  5  1  6
  6  4  1  0
  6  7  2  0
  8  6  1  0
  9  8  1  0
 10 11  1  0
  9 10  1  1
 11 19  1  0
 12 11  2  0
 12 13  1  0
 13 14  1  0
 14 15  1  0
 15 16  2  0
 17 16  1  0
 18 17  2  0
 19 14  2  0
 19 18  1  0
 20  9  1  0
 20 22  1  0
 21 20  2  0
 23 22  1  0
 23 26  1  0
 23 24  1  1
 25 24  1  0
 26 27  2  0
 26 28  1  0
M  END
$$$$
