NKC.pdb
     RDKit          3D

 24 23  0  0  1  0  0  0  0  0999 V2000
   21.1643  -21.6990  -10.2814 N   0  0  0  0  0  0  0  0  0  0  0  0
   21.2159  -20.4165  -10.8727 C   0  0  0  0  0  0  0  0  0  0  0  0
   20.1828  -19.7226  -10.8971 O   0  0  0  0  0  0  0  0  0  0  0  0
   22.4642  -19.8982  -11.4536 C   0  0  0  0  0  0  0  0  0  0  0  0
   23.5102  -20.9644  -11.3875 C   0  0  2  0  0  0  0  0  0  0  0  0
   23.8576  -21.1582   -9.9922 N   0  0  0  0  0  0  0  0  0  0  0  0
   24.7330  -20.6275  -12.1553 C   0  0  0  0  0  0  0  0  0  0  0  0
   25.7107  -20.0870  -11.5758 O   0  0  0  0  0  0  0  0  0  0  0  0
   24.8666  -20.8873  -13.5447 N   0  0  0  0  0  0  0  0  0  0  0  0
   26.0490  -20.5954  -14.3310 C   0  0  1  0  0  0  0  0  0  0  0  0
   26.3845  -21.8269  -15.1387 C   0  0  0  0  0  0  0  0  0  0  0  0
   27.6202  -21.6504  -15.9857 C   0  0  0  0  0  0  0  0  0  0  0  0
   27.8755  -22.8458  -16.8775 C   0  0  0  0  0  0  0  0  0  0  0  0
   29.1677  -22.5864  -17.6312 C   0  0  0  0  0  0  0  0  0  0  0  0
   29.5071  -23.7569  -18.4157 N   0  0  0  0  0  0  0  0  0  0  0  0
   25.7088  -19.4534  -15.2392 C   0  0  0  0  0  0  0  0  0  0  0  0
   24.6117  -19.5097  -15.8264 O   0  0  0  0  0  0  0  0  0  0  0  0
   26.5738  -18.3585  -15.4341 N   0  0  0  0  0  0  0  0  0  0  0  0
   26.2733  -17.2890  -16.3564 C   0  0  1  0  0  0  0  0  0  0  0  0
   27.1560  -16.0979  -15.9654 C   0  0  0  0  0  0  0  0  0  0  0  0
   26.4600  -15.2874  -14.4919 S   0  0  0  0  0  0  0  0  0  0  0  0
   26.7008  -17.7024  -17.7257 C   0  0  0  0  0  0  0  0  0  0  0  0
   26.1102  -17.1990  -18.8680 O   0  0  0  0  0  0  0  0  0  0  0  0
   27.6363  -18.5438  -17.8888 O   0  0  0  0  0  0  0  0  0  0  0  0
  2  3  2  0
  2  1  1  0
  4  2  1  0
  5  4  1  0
  5  6  1  1
  7  8  2  0
  7  5  1  0
  9  7  1  0
 10 11  1  6
 10  9  1  0
 11 12  1  0
 13 12  1  0
 13 14  1  0
 14 15  1  0
 16 10  1  0
 17 16  2  0
 18 16  1  0
 19 20  1  1
 19 18  1  0
 20 21  1  0
 22 23  1  0
 22 19  1  0
 24 22  2  0
M  END
$$$$
