NKC.pdb
     RDKit          3D

 24 23  0  0  1  0  0  0  0  0999 V2000
   12.2232  -10.6015  -14.9664 N   0  0  0  0  0  0  0  0  0  0  0  0
   13.3626  -10.6879  -15.7980 C   0  0  0  0  0  0  0  0  0  0  0  0
   13.2042  -10.8609  -17.0204 O   0  0  0  0  0  0  0  0  0  0  0  0
   14.7194  -10.5769  -15.2403 C   0  0  0  0  0  0  0  0  0  0  0  0
   15.5926  -11.6096  -15.8776 C   0  0  2  0  0  0  0  0  0  0  0  0
   15.2440  -12.8975  -15.3076 N   0  0  0  0  0  0  0  0  0  0  0  0
   17.0388  -11.3565  -15.6699 C   0  0  0  0  0  0  0  0  0  0  0  0
   17.5889  -11.6994  -14.5914 O   0  0  0  0  0  0  0  0  0  0  0  0
   17.8597  -10.7323  -16.6458 N   0  0  0  0  0  0  0  0  0  0  0  0
   19.2741  -10.4581  -16.4842 C   0  0  1  0  0  0  0  0  0  0  0  0
   19.9235  -10.5539  -17.8445 C   0  0  0  0  0  0  0  0  0  0  0  0
   21.3930  -10.2148  -17.8147 C   0  0  0  0  0  0  0  0  0  0  0  0
   22.0437  -10.3796  -19.1708 C   0  0  0  0  0  0  0  0  0  0  0  0
   23.5235  -10.0822  -19.0072 C   0  0  0  0  0  0  0  0  0  0  0  0
   24.2177  -10.4196  -20.2340 N   0  0  0  0  0  0  0  0  0  0  0  0
   19.3986   -9.0660  -15.9442 C   0  0  0  0  0  0  0  0  0  0  0  0
   18.7179   -8.1840  -16.5012 O   0  0  0  0  0  0  0  0  0  0  0  0
   20.2394   -8.7481  -14.8594 N   0  0  0  0  0  0  0  0  0  0  0  0
   20.3548   -7.4072  -14.3363 C   0  0  1  0  0  0  0  0  0  0  0  0
   20.6739   -7.5343  -12.8421 C   0  0  0  0  0  0  0  0  0  0  0  0
   19.2003   -8.1333  -11.9578 S   0  0  0  0  0  0  0  0  0  0  0  0
   21.5352   -6.7462  -14.9675 C   0  0  0  0  0  0  0  0  0  0  0  0
   22.3176   -7.3779  -15.9140 O   0  0  0  0  0  0  0  0  0  0  0  0
   21.8646   -5.5627  -14.6505 O   0  0  0  0  0  0  0  0  0  0  0  0
  2  3  2  0
  2  1  1  0
  4  2  1  0
  5  4  1  0
  5  6  1  1
  7  8  2  0
  7  5  1  0
  9  7  1  0
 10 11  1  6
 10  9  1  0
 11 12  1  0
 13 12  1  0
 13 14  1  0
 14 15  1  0
 16 10  1  0
 17 16  2  0
 18 16  1  0
 19 20  1  1
 19 18  1  0
 20 21  1  0
 22 23  1  0
 22 19  1  0
 24 22  2  0
M  END
$$$$
