NKC.pdb
     RDKit          3D

 24 23  0  0  1  0  0  0  0  0999 V2000
   19.3419  -18.5579  -22.1085 N   0  0  0  0  0  0  0  0  0  0  0  0
   19.8552  -17.6216  -21.1828 C   0  0  0  0  0  0  0  0  0  0  0  0
   21.0647  -17.3312  -21.2278 O   0  0  0  0  0  0  0  0  0  0  0  0
   18.9845  -16.9931  -20.1771 C   0  0  0  0  0  0  0  0  0  0  0  0
   19.7803  -15.9912  -19.4037 C   0  0  2  0  0  0  0  0  0  0  0  0
   20.3212  -16.6612  -18.2360 N   0  0  0  0  0  0  0  0  0  0  0  0
   18.9786  -14.8214  -18.9707 C   0  0  0  0  0  0  0  0  0  0  0  0
   18.5031  -14.0326  -19.8281 O   0  0  0  0  0  0  0  0  0  0  0  0
   18.7102  -14.5336  -17.6065 N   0  0  0  0  0  0  0  0  0  0  0  0
   17.8470  -13.4662  -17.1406 C   0  0  1  0  0  0  0  0  0  0  0  0
   17.3477  -13.8405  -15.7650 C   0  0  0  0  0  0  0  0  0  0  0  0
   15.9890  -14.4951  -15.7956 C   0  0  0  0  0  0  0  0  0  0  0  0
   15.5174  -14.8943  -14.4145 C   0  0  0  0  0  0  0  0  0  0  0  0
   14.0951  -15.4087  -14.5477 C   0  0  0  0  0  0  0  0  0  0  0  0
   13.6176  -15.8369  -13.2480 N   0  0  0  0  0  0  0  0  0  0  0  0
   18.6768  -12.2205  -17.0725 C   0  0  0  0  0  0  0  0  0  0  0  0
   19.8649  -12.3548  -16.7235 O   0  0  0  0  0  0  0  0  0  0  0  0
   18.1578  -10.9483  -17.3841 N   0  0  0  0  0  0  0  0  0  0  0  0
   18.9566   -9.7476  -17.3124 C   0  0  1  0  0  0  0  0  0  0  0  0
   18.8862   -9.0789  -18.6903 C   0  0  0  0  0  0  0  0  0  0  0  0
   19.6991   -7.4522  -18.6154 S   0  0  0  0  0  0  0  0  0  0  0  0
   18.3172   -8.8030  -16.3493 C   0  0  0  0  0  0  0  0  0  0  0  0
   17.0482   -9.0081  -15.8449 O   0  0  0  0  0  0  0  0  0  0  0  0
   18.9281   -7.7631  -15.9553 O   0  0  0  0  0  0  0  0  0  0  0  0
  2  3  2  0
  2  1  1  0
  4  2  1  0
  5  4  1  0
  5  6  1  1
  7  8  2  0
  7  5  1  0
  9  7  1  0
 10 11  1  1
 10  9  1  0
 11 12  1  0
 13 12  1  0
 13 14  1  0
 14 15  1  0
 16 10  1  0
 17 16  2  0
 18 16  1  0
 19 20  1  6
 19 18  1  0
 20 21  1  0
 22 23  1  0
 22 19  1  0
 24 22  2  0
M  END
$$$$
