NKC.pdb
     RDKit          3D

 24 23  0  0  1  0  0  0  0  0999 V2000
   16.0277  -14.3478  -14.4840 N   0  0  0  0  0  0  0  0  0  0  0  0
   15.1812  -13.4496  -15.1723 C   0  0  0  0  0  0  0  0  0  0  0  0
   14.3331  -13.9058  -15.9609 O   0  0  0  0  0  0  0  0  0  0  0  0
   15.2905  -11.9967  -14.9689 C   0  0  0  0  0  0  0  0  0  0  0  0
   16.3541  -11.7270  -13.9533 C   0  0  2  0  0  0  0  0  0  0  0  0
   16.2132  -12.7075  -12.8932 N   0  0  0  0  0  0  0  0  0  0  0  0
   16.2733  -10.3641  -13.3749 C   0  0  0  0  0  0  0  0  0  0  0  0
   16.2506   -9.3596  -14.1325 O   0  0  0  0  0  0  0  0  0  0  0  0
   16.2187  -10.1223  -11.9769 N   0  0  0  0  0  0  0  0  0  0  0  0
   16.0800   -8.8138  -11.3685 C   0  0  1  0  0  0  0  0  0  0  0  0
   15.2903   -8.9775  -10.0914 C   0  0  0  0  0  0  0  0  0  0  0  0
   13.8064   -8.7993  -10.2959 C   0  0  0  0  0  0  0  0  0  0  0  0
   13.0167   -9.1133   -9.0441 C   0  0  0  0  0  0  0  0  0  0  0  0
   11.5470   -8.9124   -9.3681 C   0  0  0  0  0  0  0  0  0  0  0  0
   10.7575   -9.1516   -8.1764 N   0  0  0  0  0  0  0  0  0  0  0  0
   17.4602   -8.3144  -11.0673 C   0  0  0  0  0  0  0  0  0  0  0  0
   18.1206   -8.9582  -10.2301 O   0  0  0  0  0  0  0  0  0  0  0  0
   18.0042   -7.1736  -11.6897 N   0  0  0  0  0  0  0  0  0  0  0  0
   19.3179   -6.6683  -11.3675 C   0  0  1  0  0  0  0  0  0  0  0  0
   20.1893   -6.8563  -12.6149 C   0  0  0  0  0  0  0  0  0  0  0  0
   21.8192   -6.0967  -12.3341 S   0  0  0  0  0  0  0  0  0  0  0  0
   19.2218   -5.1967  -11.1350 C   0  0  0  0  0  0  0  0  0  0  0  0
   20.0706   -4.5272  -10.2759 O   0  0  0  0  0  0  0  0  0  0  0  0
   18.3428   -4.5004  -11.7286 O   0  0  0  0  0  0  0  0  0  0  0  0
  2  3  2  0
  2  1  1  0
  4  2  1  0
  5  4  1  0
  5  6  1  1
  7  8  2  0
  7  5  1  0
  9  7  1  0
 10 11  1  1
 10  9  1  0
 11 12  1  0
 13 12  1  0
 13 14  1  0
 14 15  1  0
 16 10  1  0
 17 16  2  0
 18 16  1  0
 19 20  1  6
 19 18  1  0
 20 21  1  0
 22 23  1  0
 22 19  1  0
 24 22  2  0
M  END
$$$$
