NKC.pdb
     RDKit          3D

 24 23  0  0  1  0  0  0  0  0999 V2000
   22.1664  -15.2482  -19.8449 N   0  0  0  0  0  0  0  0  0  0  0  0
   22.4024  -14.1068  -19.0459 C   0  0  0  0  0  0  0  0  0  0  0  0
   23.5410  -13.9248  -18.5770 O   0  0  0  0  0  0  0  0  0  0  0  0
   21.3282  -13.1415  -18.7652 C   0  0  0  0  0  0  0  0  0  0  0  0
   21.7498  -12.2613  -17.6327 C   0  0  2  0  0  0  0  0  0  0  0  0
   21.8577  -13.0882  -16.4454 N   0  0  0  0  0  0  0  0  0  0  0  0
   20.8001  -11.1525  -17.3735 C   0  0  0  0  0  0  0  0  0  0  0  0
   20.7052  -10.2013  -18.1919 O   0  0  0  0  0  0  0  0  0  0  0  0
   19.9695  -11.1023  -16.2231 N   0  0  0  0  0  0  0  0  0  0  0  0
   19.0423  -10.0303  -15.9183 C   0  0  1  0  0  0  0  0  0  0  0  0
   17.8461  -10.6356  -15.2225 C   0  0  0  0  0  0  0  0  0  0  0  0
   16.7677  -11.0670  -16.1850 C   0  0  0  0  0  0  0  0  0  0  0  0
   15.5750  -11.6670  -15.4731 C   0  0  0  0  0  0  0  0  0  0  0  0
   14.6025  -12.1476  -16.5354 C   0  0  0  0  0  0  0  0  0  0  0  0
   13.4681  -12.7815  -15.8938 N   0  0  0  0  0  0  0  0  0  0  0  0
   19.7495   -9.0769  -15.0041 C   0  0  0  0  0  0  0  0  0  0  0  0
   19.9498   -9.4616  -13.8365 O   0  0  0  0  0  0  0  0  0  0  0  0
   20.1760   -7.8017  -15.4247 N   0  0  0  0  0  0  0  0  0  0  0  0
   20.6750   -6.8091  -14.5024 C   0  0  1  0  0  0  0  0  0  0  0  0
   22.1614   -6.6081  -14.8204 C   0  0  0  0  0  0  0  0  0  0  0  0
   22.8258   -5.2681  -13.7834 S   0  0  0  0  0  0  0  0  0  0  0  0
   20.0005   -5.5080  -14.7869 C   0  0  0  0  0  0  0  0  0  0  0  0
   19.8434   -5.0220  -16.0699 O   0  0  0  0  0  0  0  0  0  0  0  0
   19.5415   -4.7935  -13.8443 O   0  0  0  0  0  0  0  0  0  0  0  0
  2  3  2  0
  2  1  1  0
  4  2  1  0
  5  4  1  0
  5  6  1  1
  7  8  2  0
  7  5  1  0
  9  7  1  0
 10 11  1  1
 10  9  1  0
 11 12  1  0
 13 12  1  0
 13 14  1  0
 14 15  1  0
 16 10  1  0
 17 16  2  0
 18 16  1  0
 19 20  1  6
 19 18  1  0
 20 21  1  0
 22 23  1  0
 22 19  1  0
 24 22  2  0
M  END
$$$$
