NKC.pdb
     RDKit          3D

 24 23  0  0  1  0  0  0  0  0999 V2000
   27.5447  -21.3677  -15.8628 N   0  0  0  0  0  0  0  0  0  0  0  0
   26.7427  -20.6340  -14.9598 C   0  0  0  0  0  0  0  0  0  0  0  0
   27.2807  -20.1031  -13.9709 O   0  0  0  0  0  0  0  0  0  0  0  0
   25.2940  -20.4926  -15.1738 C   0  0  0  0  0  0  0  0  0  0  0  0
   24.5870  -21.5984  -14.4580 C   0  0  2  0  0  0  0  0  0  0  0  0
   24.8938  -22.8386  -15.1456 N   0  0  0  0  0  0  0  0  0  0  0  0
   23.1165  -21.4140  -14.4115 C   0  0  0  0  0  0  0  0  0  0  0  0
   22.4251  -21.6088  -15.4448 O   0  0  0  0  0  0  0  0  0  0  0  0
   22.4261  -21.0195  -13.2352 N   0  0  0  0  0  0  0  0  0  0  0  0
   21.0000  -20.7713  -13.1570 C   0  0  1  0  0  0  0  0  0  0  0  0
   20.5657  -21.0076  -11.7297 C   0  0  0  0  0  0  0  0  0  0  0  0
   20.1065  -22.4237  -11.4864 C   0  0  0  0  0  0  0  0  0  0  0  0
   19.6576  -22.6399  -10.0578 C   0  0  0  0  0  0  0  0  0  0  0  0
   19.0427  -24.0257   -9.9763 C   0  0  0  0  0  0  0  0  0  0  0  0
   18.5975  -24.2725   -8.6192 N   0  0  0  0  0  0  0  0  0  0  0  0
   20.7757  -19.3401  -13.5396 C   0  0  0  0  0  0  0  0  0  0  0  0
   21.4913  -18.4893  -12.9779 O   0  0  0  0  0  0  0  0  0  0  0  0
   19.8072  -18.9535  -14.4869 N   0  0  0  0  0  0  0  0  0  0  0  0
   19.6977  -17.5983  -14.9732 C   0  0  1  0  0  0  0  0  0  0  0  0
   20.9022  -17.3515  -15.8891 C   0  0  0  0  0  0  0  0  0  0  0  0
   20.9928  -15.5821  -16.3056 S   0  0  0  0  0  0  0  0  0  0  0  0
   18.4821  -17.4944  -15.8336 C   0  0  0  0  0  0  0  0  0  0  0  0
   17.8709  -16.2866  -16.1066 O   0  0  0  0  0  0  0  0  0  0  0  0
   17.9612  -18.5290  -16.3513 O   0  0  0  0  0  0  0  0  0  0  0  0
  2  3  2  0
  2  1  1  0
  4  2  1  0
  5  4  1  0
  5  6  1  6
  7  8  2  0
  7  5  1  0
  9  7  1  0
 10 11  1  1
 10  9  1  0
 11 12  1  0
 13 12  1  0
 13 14  1  0
 14 15  1  0
 16 10  1  0
 17 16  2  0
 18 16  1  0
 19 20  1  6
 19 18  1  0
 20 21  1  0
 22 23  1  0
 22 19  1  0
 24 22  2  0
M  END
$$$$
