NKC.pdb
     RDKit          3D

 24 23  0  0  1  0  0  0  0  0999 V2000
   20.2088  -17.4406  -17.4170 N   0  0  0  0  0  0  0  0  0  0  0  0
   20.4273  -16.9471  -16.1109 C   0  0  0  0  0  0  0  0  0  0  0  0
   20.6289  -15.7289  -15.9533 O   0  0  0  0  0  0  0  0  0  0  0  0
   20.4191  -17.8480  -14.9479 C   0  0  0  0  0  0  0  0  0  0  0  0
   20.1681  -19.2451  -15.4174 C   0  0  2  0  0  0  0  0  0  0  0  0
   18.7861  -19.5712  -15.1191 N   0  0  0  0  0  0  0  0  0  0  0  0
   21.0572  -20.2427  -14.7751 C   0  0  0  0  0  0  0  0  0  0  0  0
   20.7532  -20.7267  -13.6539 O   0  0  0  0  0  0  0  0  0  0  0  0
   22.2647  -20.6948  -15.3697 N   0  0  0  0  0  0  0  0  0  0  0  0
   23.1475  -21.6908  -14.7951 C   0  0  1  0  0  0  0  0  0  0  0  0
   23.7820  -22.4586  -15.9306 C   0  0  0  0  0  0  0  0  0  0  0  0
   24.7924  -23.4732  -15.4562 C   0  0  0  0  0  0  0  0  0  0  0  0
   25.4382  -24.2151  -16.6059 C   0  0  0  0  0  0  0  0  0  0  0  0
   26.4092  -25.2208  -16.0135 C   0  0  0  0  0  0  0  0  0  0  0  0
   26.9892  -26.0116  -17.0806 N   0  0  0  0  0  0  0  0  0  0  0  0
   24.1944  -20.9588  -14.0120 C   0  0  0  0  0  0  0  0  0  0  0  0
   24.6407  -19.9098  -14.5138 O   0  0  0  0  0  0  0  0  0  0  0  0
   24.6655  -21.4177  -12.7661 N   0  0  0  0  0  0  0  0  0  0  0  0
   25.6756  -20.7124  -12.0129 C   0  0  1  0  0  0  0  0  0  0  0  0
   25.9075  -21.5052  -10.7212 C   0  0  0  0  0  0  0  0  0  0  0  0
   26.4012  -20.3645   -9.3918 S   0  0  0  0  0  0  0  0  0  0  0  0
   26.9592  -20.7562  -12.7738 C   0  0  0  0  0  0  0  0  0  0  0  0
   27.8293  -19.6848  -12.8178 O   0  0  0  0  0  0  0  0  0  0  0  0
   27.2994  -21.7961  -13.4162 O   0  0  0  0  0  0  0  0  0  0  0  0
  2  3  2  0
  2  1  1  0
  4  2  1  0
  5  4  1  0
  5  6  1  1
  7  8  2  0
  7  5  1  0
  9  7  1  0
 10 11  1  6
 10  9  1  0
 11 12  1  0
 13 12  1  0
 13 14  1  0
 14 15  1  0
 16 10  1  0
 17 16  2  0
 18 16  1  0
 19 20  1  1
 19 18  1  0
 20 21  1  0
 22 23  1  0
 22 19  1  0
 24 22  2  0
M  END
$$$$
