NKC.pdb
     RDKit          3D

 24 23  0  0  1  0  0  0  0  0999 V2000
   18.9151  -18.0925  -15.1239 N   0  0  0  0  0  0  0  0  0  0  0  0
   20.2201  -18.0480  -14.5833 C   0  0  0  0  0  0  0  0  0  0  0  0
   20.6476  -19.0367  -13.9595 O   0  0  0  0  0  0  0  0  0  0  0  0
   21.0697  -16.8584  -14.7483 C   0  0  0  0  0  0  0  0  0  0  0  0
   20.2921  -15.8018  -15.4654 C   0  0  2  0  0  0  0  0  0  0  0  0
   19.9348  -16.3240  -16.7710 N   0  0  0  0  0  0  0  0  0  0  0  0
   21.0476  -14.5370  -15.6328 C   0  0  0  0  0  0  0  0  0  0  0  0
   21.5186  -13.9475  -14.6258 O   0  0  0  0  0  0  0  0  0  0  0  0
   21.2756  -13.9375  -16.8995 N   0  0  0  0  0  0  0  0  0  0  0  0
   22.0981  -12.7650  -17.1239 C   0  0  1  0  0  0  0  0  0  0  0  0
   22.2587  -12.5896  -18.6155 C   0  0  0  0  0  0  0  0  0  0  0  0
   23.0956  -11.3872  -18.9749 C   0  0  0  0  0  0  0  0  0  0  0  0
   23.1403  -11.1496  -20.4685 C   0  0  0  0  0  0  0  0  0  0  0  0
   24.0518   -9.9607  -20.7155 C   0  0  0  0  0  0  0  0  0  0  0  0
   23.9341   -9.5472  -22.0996 N   0  0  0  0  0  0  0  0  0  0  0  0
   21.3721  -11.5932  -16.5367 C   0  0  0  0  0  0  0  0  0  0  0  0
   20.1369  -11.5611  -16.6936 O   0  0  0  0  0  0  0  0  0  0  0  0
   22.0355  -10.5660  -15.8370 N   0  0  0  0  0  0  0  0  0  0  0  0
   21.3302   -9.4604  -15.2327 C   0  0  1  0  0  0  0  0  0  0  0  0
   22.0009   -9.1848  -13.8818 C   0  0  0  0  0  0  0  0  0  0  0  0
   21.2733   -7.6913  -13.1387 S   0  0  0  0  0  0  0  0  0  0  0  0
   21.5428   -8.2417  -16.0683 C   0  0  0  0  0  0  0  0  0  0  0  0
   20.5841   -7.2560  -16.1953 O   0  0  0  0  0  0  0  0  0  0  0  0
   22.6292   -8.0678  -16.7003 O   0  0  0  0  0  0  0  0  0  0  0  0
  2  3  2  0
  2  1  1  0
  4  2  1  0
  5  4  1  0
  5  6  1  6
  7  8  2  0
  7  5  1  0
  9  7  1  0
 10 11  1  6
 10  9  1  0
 11 12  1  0
 13 12  1  0
 13 14  1  0
 14 15  1  0
 16 10  1  0
 17 16  2  0
 18 16  1  0
 19 20  1  1
 19 18  1  0
 20 21  1  0
 22 23  1  0
 22 19  1  0
 24 22  2  0
M  END
$$$$
