NKC.pdb
     RDKit          3D

 24 23  0  0  1  0  0  0  0  0999 V2000
   14.7118  -23.1504  -13.6791 N   0  0  0  0  0  0  0  0  0  0  0  0
   15.9115  -22.7905  -14.3334 C   0  0  0  0  0  0  0  0  0  0  0  0
   16.0890  -23.1560  -15.5099 O   0  0  0  0  0  0  0  0  0  0  0  0
   16.9422  -21.9968  -13.6461 C   0  0  0  0  0  0  0  0  0  0  0  0
   18.1878  -22.8153  -13.5290 C   0  0  2  0  0  0  0  0  0  0  0  0
   18.1099  -23.5659  -12.2898 N   0  0  0  0  0  0  0  0  0  0  0  0
   19.4238  -21.9962  -13.5296 C   0  0  0  0  0  0  0  0  0  0  0  0
   19.6721  -21.2316  -12.5615 O   0  0  0  0  0  0  0  0  0  0  0  0
   20.3681  -22.0269  -14.5894 N   0  0  0  0  0  0  0  0  0  0  0  0
   21.5861  -21.2420  -14.6351 C   0  0  1  0  0  0  0  0  0  0  0  0
   22.6930  -22.1330  -15.1474 C   0  0  0  0  0  0  0  0  0  0  0  0
   24.0111  -21.4107  -15.2760 C   0  0  0  0  0  0  0  0  0  0  0  0
   25.0806  -22.2826  -15.8967 C   0  0  0  0  0  0  0  0  0  0  0  0
   26.3490  -21.4534  -15.9908 C   0  0  0  0  0  0  0  0  0  0  0  0
   27.4421  -22.2991  -16.4273 N   0  0  0  0  0  0  0  0  0  0  0  0
   21.3490  -20.1074  -15.5845 C   0  0  0  0  0  0  0  0  0  0  0  0
   20.8833  -20.3981  -16.7027 O   0  0  0  0  0  0  0  0  0  0  0  0
   21.6322  -18.7688  -15.2489 N   0  0  0  0  0  0  0  0  0  0  0  0
   21.3957  -17.6751  -16.1615 C   0  0  1  0  0  0  0  0  0  0  0  0
   21.3806  -16.3893  -15.3267 C   0  0  0  0  0  0  0  0  0  0  0  0
   21.0778  -14.9638  -16.4170 S   0  0  0  0  0  0  0  0  0  0  0  0
   22.5598  -17.5648  -17.0896 C   0  0  0  0  0  0  0  0  0  0  0  0
   22.4156  -17.2171  -18.4182 O   0  0  0  0  0  0  0  0  0  0  0  0
   23.7401  -17.7903  -16.6822 O   0  0  0  0  0  0  0  0  0  0  0  0
  2  3  2  0
  2  1  1  0
  4  2  1  0
  5  4  1  0
  5  6  1  1
  7  8  2  0
  7  5  1  0
  9  7  1  0
 10 11  1  6
 10  9  1  0
 11 12  1  0
 13 12  1  0
 13 14  1  0
 14 15  1  0
 16 10  1  0
 17 16  2  0
 18 16  1  0
 19 20  1  1
 19 18  1  0
 20 21  1  0
 22 23  1  0
 22 19  1  0
 24 22  2  0
M  END
$$$$
