NKC.pdb
     RDKit          3D

 24 23  0  0  1  0  0  0  0  0999 V2000
   10.3713   -8.9585   -7.4198 N   0  0  0  0  0  0  0  0  0  0  0  0
   11.1714   -8.8887   -8.5825 C   0  0  0  0  0  0  0  0  0  0  0  0
   10.6598   -9.1646   -9.6832 O   0  0  0  0  0  0  0  0  0  0  0  0
   12.5877   -8.4975   -8.5069 C   0  0  0  0  0  0  0  0  0  0  0  0
   13.3895   -9.4035   -9.3852 C   0  0  2  0  0  0  0  0  0  0  0  0
   13.4482  -10.7038   -8.7443 N   0  0  0  0  0  0  0  0  0  0  0  0
   14.7676   -8.9115   -9.6241 C   0  0  0  0  0  0  0  0  0  0  0  0
   15.6009   -8.8922   -8.6813 O   0  0  0  0  0  0  0  0  0  0  0  0
   15.2119   -8.4486  -10.8906 N   0  0  0  0  0  0  0  0  0  0  0  0
   16.5483   -7.9615  -11.1712 C   0  0  1  0  0  0  0  0  0  0  0  0
   16.9033   -8.3678  -12.5820 C   0  0  0  0  0  0  0  0  0  0  0  0
   17.1349   -9.8519  -12.7211 C   0  0  0  0  0  0  0  0  0  0  0  0
   17.5828  -10.2307  -14.1157 C   0  0  0  0  0  0  0  0  0  0  0  0
   17.7767  -11.7364  -14.1407 C   0  0  0  0  0  0  0  0  0  0  0  0
   18.1898  -12.1435  -15.4690 N   0  0  0  0  0  0  0  0  0  0  0  0
   16.5117   -6.4684  -11.0526 C   0  0  0  0  0  0  0  0  0  0  0  0
   15.6490   -5.8720  -11.7246 O   0  0  0  0  0  0  0  0  0  0  0  0
   17.4013   -5.7534  -10.2265 N   0  0  0  0  0  0  0  0  0  0  0  0
   17.3887   -4.3121  -10.1400 C   0  0  1  0  0  0  0  0  0  0  0  0
   17.8704   -3.9429   -8.7321 C   0  0  0  0  0  0  0  0  0  0  0  0
   18.1009   -2.1407   -8.6250 S   0  0  0  0  0  0  0  0  0  0  0  0
   18.4010   -3.7659  -11.0916 C   0  0  0  0  0  0  0  0  0  0  0  0
   18.2009   -2.5915  -11.7899 O   0  0  0  0  0  0  0  0  0  0  0  0
   19.4971   -4.3720  -11.2940 O   0  0  0  0  0  0  0  0  0  0  0  0
  2  3  2  0
  2  1  1  0
  4  2  1  0
  5  4  1  0
  5  6  1  1
  7  8  2  0
  7  5  1  0
  9  7  1  0
 10 11  1  6
 10  9  1  0
 11 12  1  0
 13 12  1  0
 13 14  1  0
 14 15  1  0
 16 10  1  0
 17 16  2  0
 18 16  1  0
 19 20  1  1
 19 18  1  0
 20 21  1  0
 22 23  1  0
 22 19  1  0
 24 22  2  0
M  END
$$$$
