NKC.pdb
     RDKit          3D

 24 23  0  0  1  0  0  0  0  0999 V2000
   27.3608  -12.3334  -16.4639 N   0  0  0  0  0  0  0  0  0  0  0  0
   27.4928  -11.0195  -15.9606 C   0  0  0  0  0  0  0  0  0  0  0  0
   28.4706  -10.7457  -15.2407 O   0  0  0  0  0  0  0  0  0  0  0  0
   26.4975   -9.9827  -16.2751 C   0  0  0  0  0  0  0  0  0  0  0  0
   25.3441  -10.6161  -16.9849 C   0  0  2  0  0  0  0  0  0  0  0  0
   25.8329  -11.1366  -18.2479 N   0  0  0  0  0  0  0  0  0  0  0  0
   24.2301   -9.6718  -17.2416 C   0  0  0  0  0  0  0  0  0  0  0  0
   24.2772   -8.8981  -18.2330 O   0  0  0  0  0  0  0  0  0  0  0  0
   23.0826   -9.5892  -16.4096 N   0  0  0  0  0  0  0  0  0  0  0  0
   21.9216   -8.7646  -16.6810 C   0  0  1  0  0  0  0  0  0  0  0  0
   20.6995   -9.6503  -16.6217 C   0  0  0  0  0  0  0  0  0  0  0  0
   19.4172   -8.8920  -16.8588 C   0  0  0  0  0  0  0  0  0  0  0  0
   18.1994   -9.7831  -16.7490 C   0  0  0  0  0  0  0  0  0  0  0  0
   16.9758   -8.9174  -16.9909 C   0  0  0  0  0  0  0  0  0  0  0  0
   15.7832   -9.7338  -16.8827 N   0  0  0  0  0  0  0  0  0  0  0  0
   21.8590   -7.7181  -15.6105 C   0  0  0  0  0  0  0  0  0  0  0  0
   21.8150   -8.1208  -14.4326 O   0  0  0  0  0  0  0  0  0  0  0  0
   21.8495   -6.3395  -15.9003 N   0  0  0  0  0  0  0  0  0  0  0  0
   21.9103   -5.3310  -14.8687 C   0  0  1  0  0  0  0  0  0  0  0  0
   22.8386   -4.2226  -15.3789 C   0  0  0  0  0  0  0  0  0  0  0  0
   24.5500   -4.8401  -15.4242 S   0  0  0  0  0  0  0  0  0  0  0  0
   20.5581   -4.7164  -14.7186 C   0  0  0  0  0  0  0  0  0  0  0  0
   20.2023   -3.9746  -13.6095 O   0  0  0  0  0  0  0  0  0  0  0  0
   19.6760   -4.8572  -15.6196 O   0  0  0  0  0  0  0  0  0  0  0  0
  2  3  2  0
  2  1  1  0
  4  2  1  0
  5  4  1  0
  5  6  1  6
  7  8  2  0
  7  5  1  0
  9  7  1  0
 10 11  1  1
 10  9  1  0
 11 12  1  0
 13 12  1  0
 13 14  1  0
 14 15  1  0
 16 10  1  0
 17 16  2  0
 18 16  1  0
 19 20  1  6
 19 18  1  0
 20 21  1  0
 22 23  1  0
 22 19  1  0
 24 22  2  0
M  END
$$$$
