NKC.pdb
     RDKit          3D

 24 23  0  0  1  0  0  0  0  0999 V2000
   17.8456  -29.2435   -4.3946 N   0  0  0  0  0  0  0  0  0  0  0  0
   16.6686  -28.4614   -4.3975 C   0  0  0  0  0  0  0  0  0  0  0  0
   15.7062  -28.8239   -5.0988 O   0  0  0  0  0  0  0  0  0  0  0  0
   16.5695  -27.2362   -3.5891 C   0  0  0  0  0  0  0  0  0  0  0  0
   16.4927  -26.0558   -4.5034 C   0  0  2  0  0  0  0  0  0  0  0  0
   17.7890  -25.9006   -5.1364 N   0  0  0  0  0  0  0  0  0  0  0  0
   16.1358  -24.7993   -3.8018 C   0  0  0  0  0  0  0  0  0  0  0  0
   17.0365  -23.9837   -3.4747 O   0  0  0  0  0  0  0  0  0  0  0  0
   14.7990  -24.4554   -3.4694 N   0  0  0  0  0  0  0  0  0  0  0  0
   14.3865  -23.1822   -2.9121 C   0  0  1  0  0  0  0  0  0  0  0  0
   12.9613  -22.9274   -3.3427 C   0  0  0  0  0  0  0  0  0  0  0  0
   12.4181  -21.6213   -2.8188 C   0  0  0  0  0  0  0  0  0  0  0  0
   10.9735  -21.4054   -3.2135 C   0  0  0  0  0  0  0  0  0  0  0  0
   10.5620  -20.0333   -2.7103 C   0  0  0  0  0  0  0  0  0  0  0  0
    9.1543  -19.8252   -2.9857 N   0  0  0  0  0  0  0  0  0  0  0  0
   14.4666  -23.3023   -1.4208 C   0  0  0  0  0  0  0  0  0  0  0  0
   14.0927  -24.3810   -0.9227 O   0  0  0  0  0  0  0  0  0  0  0  0
   14.9391  -22.2574   -0.6023 N   0  0  0  0  0  0  0  0  0  0  0  0
   15.0669  -22.3929    0.8295 C   0  0  1  0  0  0  0  0  0  0  0  0
   16.4619  -21.8801    1.2060 C   0  0  0  0  0  0  0  0  0  0  0  0
   16.5927  -21.7575    3.0172 S   0  0  0  0  0  0  0  0  0  0  0  0
   14.0870  -21.4785    1.4871 C   0  0  0  0  0  0  0  0  0  0  0  0
   13.7875  -21.5604    2.8326 O   0  0  0  0  0  0  0  0  0  0  0  0
   13.4868  -20.5809    0.8211 O   0  0  0  0  0  0  0  0  0  0  0  0
  2  3  2  0
  2  1  1  0
  4  2  1  0
  5  4  1  0
  5  6  1  1
  7  8  2  0
  7  5  1  0
  9  7  1  0
 10 11  1  1
 10  9  1  0
 11 12  1  0
 13 12  1  0
 13 14  1  0
 14 15  1  0
 16 10  1  0
 17 16  2  0
 18 16  1  0
 19 20  1  1
 19 18  1  0
 20 21  1  0
 22 23  1  0
 22 19  1  0
 24 22  2  0
M  END
$$$$
