NKC.pdb
     RDKit          3D

 24 23  0  0  1  0  0  0  0  0999 V2000
   28.9089  -18.7183  -13.3582 N   0  0  0  0  0  0  0  0  0  0  0  0
   28.1082  -19.8214  -12.9851 C   0  0  0  0  0  0  0  0  0  0  0  0
   28.6373  -20.7730  -12.3818 O   0  0  0  0  0  0  0  0  0  0  0  0
   26.6713  -19.8568  -13.2987 C   0  0  0  0  0  0  0  0  0  0  0  0
   26.1982  -21.2742  -13.2501 C   0  0  2  0  0  0  0  0  0  0  0  0
   26.8993  -22.0109  -14.2849 N   0  0  0  0  0  0  0  0  0  0  0  0
   24.7362  -21.4065  -13.4586 C   0  0  0  0  0  0  0  0  0  0  0  0
   24.2965  -21.9421  -14.5090 O   0  0  0  0  0  0  0  0  0  0  0  0
   23.7787  -20.9506  -12.5145 N   0  0  0  0  0  0  0  0  0  0  0  0
   22.3435  -21.1005  -12.6535 C   0  0  1  0  0  0  0  0  0  0  0  0
   21.7465  -21.1552  -11.2671 C   0  0  0  0  0  0  0  0  0  0  0  0
   21.0085  -22.4433  -10.9999 C   0  0  0  0  0  0  0  0  0  0  0  0
   20.4786  -22.5138   -9.5845 C   0  0  0  0  0  0  0  0  0  0  0  0
   19.8405  -23.8793   -9.4024 C   0  0  0  0  0  0  0  0  0  0  0  0
   19.2889  -23.9751   -8.0655 N   0  0  0  0  0  0  0  0  0  0  0  0
   21.8397  -19.8972  -13.3906 C   0  0  0  0  0  0  0  0  0  0  0  0
   22.3895  -18.8095  -13.1334 O   0  0  0  0  0  0  0  0  0  0  0  0
   20.7954  -19.9704  -14.3334 N   0  0  0  0  0  0  0  0  0  0  0  0
   20.7773  -19.1665  -15.5326 C   0  0  1  0  0  0  0  0  0  0  0  0
   22.0816  -19.4543  -16.2855 C   0  0  0  0  0  0  0  0  0  0  0  0
   22.0459  -18.6145  -17.8998 S   0  0  0  0  0  0  0  0  0  0  0  0
   19.6670  -19.6403  -16.4109 C   0  0  0  0  0  0  0  0  0  0  0  0
   18.9468  -18.7832  -17.2192 O   0  0  0  0  0  0  0  0  0  0  0  0
   19.3425  -20.8664  -16.4447 O   0  0  0  0  0  0  0  0  0  0  0  0
  2  3  2  0
  2  1  1  0
  4  2  1  0
  5  4  1  0
  5  6  1  6
  7  8  2  0
  7  5  1  0
  9  7  1  0
 10 11  1  1
 10  9  1  0
 11 12  1  0
 13 12  1  0
 13 14  1  0
 14 15  1  0
 16 10  1  0
 17 16  2  0
 18 16  1  0
 19 20  1  6
 19 18  1  0
 20 21  1  0
 22 23  1  0
 22 19  1  0
 24 22  2  0
M  END
$$$$
