ITM.pdb
     RDKit          3D

 24 23  0  0  1  0  0  0  0  0999 V2000
    6.7835  -13.0113   18.9123 C   0  0  0  0  0  0  0  0  0  0  0  0
    8.0329  -13.7833   19.2222 C   0  0  0  0  0  0  0  0  0  0  0  0
    9.0042  -12.9813   20.0703 C   0  0  2  0  0  0  0  0  0  0  0  0
    9.3960  -11.7749   19.2483 C   0  0  0  0  0  0  0  0  0  0  0  0
   10.1751  -13.7946   20.5075 C   0  0  2  0  0  0  0  0  0  0  0  0
   10.7752  -14.3942   19.3371 N   0  0  0  0  0  0  0  0  0  0  0  0
    9.7200  -14.8345   21.4768 C   0  0  0  0  0  0  0  0  0  0  0  0
    8.9706  -14.5601   22.4470 O   0  0  0  0  0  0  0  0  0  0  0  0
   11.3036  -18.9159   21.3220 C   0  0  0  0  0  0  0  0  0  0  0  0
    9.8765  -18.5820   21.6973 C   0  0  1  0  0  0  0  0  0  0  0  0
    9.5505  -19.5025   22.7329 O   0  0  0  0  0  0  0  0  0  0  0  0
    9.7442  -17.2007   22.3116 C   0  0  2  0  0  0  0  0  0  0  0  0
   10.1195  -16.1836   21.3381 N   0  0  0  0  0  0  0  0  0  0  0  0
   10.5926  -17.0091   23.5084 C   0  0  0  0  0  0  0  0  0  0  0  0
   11.4027  -16.0219   23.5018 O   0  0  0  0  0  0  0  0  0  0  0  0
    9.8330  -13.3383   29.5742 C   0  0  0  0  0  0  0  0  0  0  0  0
    9.2266  -14.2542   28.1332 S   0  0  0  0  0  0  0  0  0  0  0  0
   10.4984  -15.4219   27.5725 C   0  0  0  0  0  0  0  0  0  0  0  0
    9.9647  -16.1785   26.3871 C   0  0  0  0  0  0  0  0  0  0  0  0
   10.9553  -17.2483   25.9588 C   0  0  2  0  0  0  0  0  0  0  0  0
   10.6032  -17.8015   24.6636 N   0  0  0  0  0  0  0  0  0  0  0  0
   11.0383  -18.2982   26.9974 C   0  0  0  0  0  0  0  0  0  0  0  0
   11.9473  -18.2059   28.0260 O   0  0  0  0  0  0  0  0  0  0  0  0
   10.2752  -19.2831   26.9439 O   0  0  0  0  0  0  0  0  0  0  0  0
  2  1  1  0
  3  5  1  0
  3  2  1  0
  3  4  1  6
  5  6  1  6
  7  5  1  0
  7  8  2  0
 10  9  1  1
 10 12  1  0
 11 10  1  0
 12 13  1  6
 13  7  1  0
 14 12  1  0
 15 14  2  0
 16 17  1  0
 18 19  1  0
 18 17  1  0
 20 19  1  1
 20 21  1  0
 20 22  1  0
 21 14  1  0
 22 23  1  0
 24 22  2  0
M  END
$$$$
