ITM.pdb
     RDKit          3D

 24 23  0  0  1  0  0  0  0  0999 V2000
    7.4954  -11.9470   19.3719 C   0  0  0  0  0  0  0  0  0  0  0  0
    8.0434  -13.3440   19.3450 C   0  0  0  0  0  0  0  0  0  0  0  0
    7.8350  -14.0647   20.6651 C   0  0  2  0  0  0  0  0  0  0  0  0
    8.4702  -13.2007   21.7302 C   0  0  0  0  0  0  0  0  0  0  0  0
    8.3772  -15.4537   20.6408 C   0  0  2  0  0  0  0  0  0  0  0  0
    7.6911  -16.1919   19.6045 N   0  0  0  0  0  0  0  0  0  0  0  0
    8.1784  -16.0850   21.9787 C   0  0  0  0  0  0  0  0  0  0  0  0
    7.0398  -16.4027   22.4041 O   0  0  0  0  0  0  0  0  0  0  0  0
    9.2255  -19.2751   23.2788 C   0  0  0  0  0  0  0  0  0  0  0  0
    9.7932  -18.2634   24.2499 C   0  0  1  0  0  0  0  0  0  0  0  0
   11.1278  -18.0454   23.8055 O   0  0  0  0  0  0  0  0  0  0  0  0
    9.0994  -16.9168   24.1596 C   0  0  2  0  0  0  0  0  0  0  0  0
    9.2767  -16.3526   22.8280 N   0  0  0  0  0  0  0  0  0  0  0  0
    9.6100  -15.9291   25.1355 C   0  0  0  0  0  0  0  0  0  0  0  0
   10.6484  -15.2622   24.8072 O   0  0  0  0  0  0  0  0  0  0  0  0
    6.7833  -11.0890   25.8163 C   0  0  0  0  0  0  0  0  0  0  0  0
    6.9810  -11.8985   27.4253 S   0  0  0  0  0  0  0  0  0  0  0  0
    7.5214  -13.6146   27.1830 C   0  0  0  0  0  0  0  0  0  0  0  0
    8.7242  -13.8649   28.0508 C   0  0  0  0  0  0  0  0  0  0  0  0
    9.7322  -14.7298   27.3126 C   0  0  2  0  0  0  0  0  0  0  0  0
    9.0708  -15.6407   26.3960 N   0  0  0  0  0  0  0  0  0  0  0  0
   10.5790  -15.4531   28.2862 C   0  0  0  0  0  0  0  0  0  0  0  0
   10.5308  -16.8245   28.3847 O   0  0  0  0  0  0  0  0  0  0  0  0
   11.3493  -14.8145   29.0306 O   0  0  0  0  0  0  0  0  0  0  0  0
  2  1  1  0
  3  5  1  0
  3  2  1  0
  3  4  1  1
  5  6  1  6
  7  5  1  0
  7  8  2  0
 10  9  1  6
 10 12  1  0
 11 10  1  0
 12 13  1  6
 13  7  1  0
 14 12  1  0
 15 14  2  0
 16 17  1  0
 18 19  1  0
 18 17  1  0
 20 19  1  1
 20 21  1  0
 20 22  1  0
 21 14  1  0
 22 23  1  0
 24 22  2  0
M  END
$$$$
