ITM.pdb
     RDKit          3D

 24 23  0  0  1  0  0  0  0  0999 V2000
    6.1608  -11.7822   27.1034 C   0  0  0  0  0  0  0  0  0  0  0  0
    5.7147  -12.9139   26.2241 C   0  0  0  0  0  0  0  0  0  0  0  0
    6.8805  -13.7660   25.7544 C   0  0  2  0  0  0  0  0  0  0  0  0
    7.8167  -12.8400   25.0124 C   0  0  0  0  0  0  0  0  0  0  0  0
    6.4347  -14.9269   24.9315 C   0  0  2  0  0  0  0  0  0  0  0  0
    5.4628  -15.6782   25.6934 N   0  0  0  0  0  0  0  0  0  0  0  0
    7.6174  -15.7678   24.5819 C   0  0  0  0  0  0  0  0  0  0  0  0
    8.1709  -16.5223   25.4202 O   0  0  0  0  0  0  0  0  0  0  0  0
    8.0101  -17.0031   20.7562 C   0  0  0  0  0  0  0  0  0  0  0  0
    9.3556  -16.7200   21.3875 C   0  0  1  0  0  0  0  0  0  0  0  0
    9.7090  -15.4234   20.9185 O   0  0  0  0  0  0  0  0  0  0  0  0
    9.2776  -16.6089   22.8989 C   0  0  2  0  0  0  0  0  0  0  0  0
    8.1662  -15.7468   23.2791 N   0  0  0  0  0  0  0  0  0  0  0  0
   10.5049  -16.0516   23.5085 C   0  0  0  0  0  0  0  0  0  0  0  0
   10.5819  -14.7815   23.6170 O   0  0  0  0  0  0  0  0  0  0  0  0
   10.6565  -13.1960   27.9598 C   0  0  0  0  0  0  0  0  0  0  0  0
   11.2534  -14.7468   28.6821 S   0  0  0  0  0  0  0  0  0  0  0  0
   12.3315  -15.5980   27.4953 C   0  0  0  0  0  0  0  0  0  0  0  0
   11.4977  -16.0446   26.3258 C   0  0  0  0  0  0  0  0  0  0  0  0
   12.3842  -16.3069   25.1197 C   0  0  2  0  0  0  0  0  0  0  0  0
   11.6054  -16.7743   23.9873 N   0  0  0  0  0  0  0  0  0  0  0  0
   13.4515  -17.2649   25.4820 C   0  0  0  0  0  0  0  0  0  0  0  0
   13.3939  -18.5769   25.0718 O   0  0  0  0  0  0  0  0  0  0  0  0
   14.4194  -16.8822   26.1690 O   0  0  0  0  0  0  0  0  0  0  0  0
  2  1  1  0
  3  5  1  0
  3  2  1  0
  3  4  1  6
  5  6  1  1
  7  5  1  0
  7  8  2  0
 10  9  1  6
 10 12  1  0
 11 10  1  0
 12 13  1  6
 13  7  1  0
 14 12  1  0
 15 14  2  0
 16 17  1  0
 18 19  1  0
 18 17  1  0
 20 19  1  1
 20 21  1  0
 20 22  1  0
 21 14  1  0
 22 23  1  0
 24 22  2  0
M  END
$$$$
