ITM.pdb
     RDKit          3D

 24 23  0  0  1  0  0  0  0  0999 V2000
    7.6975  -11.8325   18.9870 C   0  0  0  0  0  0  0  0  0  0  0  0
    8.3150  -13.1982   18.9064 C   0  0  0  0  0  0  0  0  0  0  0  0
    8.1757  -13.9657   20.2092 C   0  0  2  0  0  0  0  0  0  0  0  0
    8.8995  -13.1582   21.2620 C   0  0  0  0  0  0  0  0  0  0  0  0
    8.6815  -15.3640   20.0965 C   0  0  2  0  0  0  0  0  0  0  0  0
    7.9172  -16.0434   19.0748 N   0  0  0  0  0  0  0  0  0  0  0  0
    8.5472  -16.0458   21.4176 C   0  0  0  0  0  0  0  0  0  0  0  0
    7.4444  -16.4777   21.8366 O   0  0  0  0  0  0  0  0  0  0  0  0
    9.7085  -19.1130   22.3075 C   0  0  0  0  0  0  0  0  0  0  0  0
   10.2306  -18.2793   23.4570 C   0  0  1  0  0  0  0  0  0  0  0  0
   11.5931  -18.0275   23.1310 O   0  0  0  0  0  0  0  0  0  0  0  0
    9.5641  -16.9185   23.5390 C   0  0  2  0  0  0  0  0  0  0  0  0
    9.6690  -16.2335   22.2573 N   0  0  0  0  0  0  0  0  0  0  0  0
   10.1589  -16.0369   24.5675 C   0  0  0  0  0  0  0  0  0  0  0  0
   10.5354  -14.8741   24.1974 O   0  0  0  0  0  0  0  0  0  0  0  0
    6.1678  -12.7122   26.7308 C   0  0  0  0  0  0  0  0  0  0  0  0
    7.7742  -12.4535   27.5280 S   0  0  0  0  0  0  0  0  0  0  0  0
    8.3998  -14.0330   28.1677 C   0  0  0  0  0  0  0  0  0  0  0  0
    8.6486  -14.9554   27.0059 C   0  0  0  0  0  0  0  0  0  0  0  0
   10.1129  -15.3593   26.9616 C   0  0  2  0  0  0  0  0  0  0  0  0
   10.3552  -16.3417   25.9207 N   0  0  0  0  0  0  0  0  0  0  0  0
   10.5359  -15.8544   28.2897 C   0  0  0  0  0  0  0  0  0  0  0  0
   11.1293  -15.0134   29.2026 O   0  0  0  0  0  0  0  0  0  0  0  0
   10.3539  -17.0509   28.5907 O   0  0  0  0  0  0  0  0  0  0  0  0
  2  1  1  0
  3  5  1  0
  3  2  1  0
  3  4  1  1
  5  6  1  6
  7  5  1  0
  7  8  2  0
 10  9  1  6
 10 12  1  0
 11 10  1  0
 12 13  1  6
 13  7  1  0
 14 12  1  0
 15 14  2  0
 16 17  1  0
 18 19  1  0
 18 17  1  0
 20 19  1  1
 20 21  1  0
 20 22  1  0
 21 14  1  0
 22 23  1  0
 24 22  2  0
M  END
$$$$
