ITM.pdb
     RDKit          3D

 24 23  0  0  1  0  0  0  0  0999 V2000
    8.0276  -11.5153   18.9180 C   0  0  0  0  0  0  0  0  0  0  0  0
    8.8102  -12.7669   18.6461 C   0  0  0  0  0  0  0  0  0  0  0  0
    8.2965  -13.9478   19.4506 C   0  0  2  0  0  0  0  0  0  0  0  0
    8.4851  -13.5891   20.9067 C   0  0  0  0  0  0  0  0  0  0  0  0
    8.9698  -15.2234   19.0721 C   0  0  2  0  0  0  0  0  0  0  0  0
    8.4936  -15.6191   17.7658 N   0  0  0  0  0  0  0  0  0  0  0  0
    8.6675  -16.2648   20.0979 C   0  0  0  0  0  0  0  0  0  0  0  0
    8.0006  -17.2945   19.8271 O   0  0  0  0  0  0  0  0  0  0  0  0
   11.1675  -18.1660   22.0344 C   0  0  0  0  0  0  0  0  0  0  0  0
    9.6756  -18.4125   22.0836 C   0  0  1  0  0  0  0  0  0  0  0  0
    9.4927  -19.3046   23.1776 O   0  0  0  0  0  0  0  0  0  0  0  0
    8.8900  -17.1615   22.4308 C   0  0  2  0  0  0  0  0  0  0  0  0
    9.1254  -16.1303   21.4288 N   0  0  0  0  0  0  0  0  0  0  0  0
    9.2472  -16.5938   23.7495 C   0  0  0  0  0  0  0  0  0  0  0  0
   10.3645  -15.9823   23.8421 O   0  0  0  0  0  0  0  0  0  0  0  0
    6.7123  -11.1340   25.9989 C   0  0  0  0  0  0  0  0  0  0  0  0
    6.4351  -12.9133   26.2003 S   0  0  0  0  0  0  0  0  0  0  0  0
    7.9926  -13.7259   26.6581 C   0  0  0  0  0  0  0  0  0  0  0  0
    7.7481  -15.2065   26.7605 C   0  0  0  0  0  0  0  0  0  0  0  0
    8.9014  -15.9727   26.1343 C   0  0  2  0  0  0  0  0  0  0  0  0
    8.4831  -16.6531   24.9221 N   0  0  0  0  0  0  0  0  0  0  0  0
    9.4706  -16.9155   27.1218 C   0  0  0  0  0  0  0  0  0  0  0  0
    9.4790  -18.2705   26.8835 O   0  0  0  0  0  0  0  0  0  0  0  0
    9.9508  -16.4803   28.1873 O   0  0  0  0  0  0  0  0  0  0  0  0
  2  1  1  0
  3  5  1  0
  3  2  1  0
  3  4  1  1
  5  6  1  6
  7  5  1  0
  7  8  2  0
 10  9  1  1
 10 12  1  0
 11 10  1  0
 12 13  1  6
 13  7  1  0
 14 12  1  0
 15 14  2  0
 16 17  1  0
 18 19  1  0
 18 17  1  0
 20 19  1  1
 20 21  1  0
 20 22  1  0
 21 14  1  0
 22 23  1  0
 24 22  2  0
M  END
$$$$
