ITM.pdb
     RDKit          3D

 24 23  0  0  1  0  0  0  0  0999 V2000
    7.5842  -11.7863   18.9095 C   0  0  0  0  0  0  0  0  0  0  0  0
    8.1916  -13.1560   18.8209 C   0  0  0  0  0  0  0  0  0  0  0  0
    7.8531  -14.0101   20.0299 C   0  0  2  0  0  0  0  0  0  0  0  0
    8.2998  -13.2297   21.2447 C   0  0  0  0  0  0  0  0  0  0  0  0
    8.4658  -15.3673   19.9506 C   0  0  2  0  0  0  0  0  0  0  0  0
    7.9368  -16.0380   18.7845 N   0  0  0  0  0  0  0  0  0  0  0  0
    8.1543  -16.1236   21.1993 C   0  0  0  0  0  0  0  0  0  0  0  0
    6.9860  -16.4856   21.4862 O   0  0  0  0  0  0  0  0  0  0  0  0
    9.0133  -19.3757   22.1471 C   0  0  0  0  0  0  0  0  0  0  0  0
    9.4979  -18.5577   23.3240 C   0  0  1  0  0  0  0  0  0  0  0  0
   10.8874  -18.3653   23.0826 O   0  0  0  0  0  0  0  0  0  0  0  0
    8.8857  -17.1696   23.3596 C   0  0  2  0  0  0  0  0  0  0  0  0
    9.1739  -16.4652   22.1172 N   0  0  0  0  0  0  0  0  0  0  0  0
    9.3896  -16.3365   24.4735 C   0  0  0  0  0  0  0  0  0  0  0  0
   10.3515  -15.5359   24.2192 O   0  0  0  0  0  0  0  0  0  0  0  0
    6.2240  -12.1973   26.5820 C   0  0  0  0  0  0  0  0  0  0  0  0
    7.8052  -11.9250   27.4239 S   0  0  0  0  0  0  0  0  0  0  0  0
    9.0237  -13.1382   26.8417 C   0  0  0  0  0  0  0  0  0  0  0  0
    8.6556  -14.4887   27.3922 C   0  0  0  0  0  0  0  0  0  0  0  0
    9.5804  -15.5544   26.8283 C   0  0  2  0  0  0  0  0  0  0  0  0
    8.9197  -16.3288   25.7932 N   0  0  0  0  0  0  0  0  0  0  0  0
   10.0769  -16.4165   27.9230 C   0  0  0  0  0  0  0  0  0  0  0  0
   10.9370  -15.9240   28.8771 O   0  0  0  0  0  0  0  0  0  0  0  0
    9.7130  -17.6077   27.9860 O   0  0  0  0  0  0  0  0  0  0  0  0
  2  1  1  0
  3  5  1  0
  3  2  1  0
  3  4  1  1
  5  6  1  6
  7  5  1  0
  7  8  2  0
 10  9  1  6
 10 12  1  0
 11 10  1  0
 12 13  1  6
 13  7  1  0
 14 12  1  0
 15 14  2  0
 16 17  1  0
 18 19  1  0
 18 17  1  0
 20 19  1  1
 20 21  1  0
 20 22  1  0
 21 14  1  0
 22 23  1  0
 24 22  2  0
M  END
$$$$
