ITM.pdb
     RDKit          3D

 24 23  0  0  1  0  0  0  0  0999 V2000
    7.4011  -12.1909   19.9495 C   0  0  0  0  0  0  0  0  0  0  0  0
    7.4490  -13.6428   19.5721 C   0  0  0  0  0  0  0  0  0  0  0  0
    8.8139  -14.0518   19.0474 C   0  0  2  0  0  0  0  0  0  0  0  0
    9.0976  -13.1670   17.8552 C   0  0  0  0  0  0  0  0  0  0  0  0
    8.8809  -15.5059   18.7237 C   0  0  2  0  0  0  0  0  0  0  0  0
    7.9559  -15.7753   17.6460 N   0  0  0  0  0  0  0  0  0  0  0  0
    8.5406  -16.2992   19.9415 C   0  0  0  0  0  0  0  0  0  0  0  0
    7.4169  -16.8399   20.0932 O   0  0  0  0  0  0  0  0  0  0  0  0
   11.5262  -18.0833   22.4654 C   0  0  0  0  0  0  0  0  0  0  0  0
   10.0727  -18.4559   22.2721 C   0  0  1  0  0  0  0  0  0  0  0  0
    9.7083  -19.1250   23.4745 O   0  0  0  0  0  0  0  0  0  0  0  0
    9.1675  -17.2413   22.1811 C   0  0  2  0  0  0  0  0  0  0  0  0
    9.4810  -16.4742   20.9827 N   0  0  0  0  0  0  0  0  0  0  0  0
    9.2922  -16.3308   23.3405 C   0  0  0  0  0  0  0  0  0  0  0  0
   10.0041  -15.2815   23.1889 O   0  0  0  0  0  0  0  0  0  0  0  0
    6.5960  -10.9974   27.6532 C   0  0  0  0  0  0  0  0  0  0  0  0
    6.4293  -12.3107   26.4160 S   0  0  0  0  0  0  0  0  0  0  0  0
    7.5441  -13.6828   26.8280 C   0  0  0  0  0  0  0  0  0  0  0  0
    7.4603  -14.7126   25.7349 C   0  0  0  0  0  0  0  0  0  0  0  0
    8.7798  -15.4565   25.6134 C   0  0  2  0  0  0  0  0  0  0  0  0
    8.7057  -16.4953   24.6020 N   0  0  0  0  0  0  0  0  0  0  0  0
    9.1691  -16.0036   26.9314 C   0  0  0  0  0  0  0  0  0  0  0  0
    9.2966  -17.3597   27.1252 O   0  0  0  0  0  0  0  0  0  0  0  0
    9.3860  -15.2280   27.8836 O   0  0  0  0  0  0  0  0  0  0  0  0
  2  1  1  0
  3  5  1  0
  3  2  1  0
  3  4  1  6
  5  6  1  6
  7  5  1  0
  7  8  2  0
 10  9  1  1
 10 12  1  0
 11 10  1  0
 12 13  1  6
 13  7  1  0
 14 12  1  0
 15 14  2  0
 16 17  1  0
 18 19  1  0
 18 17  1  0
 20 19  1  1
 20 21  1  0
 20 22  1  0
 21 14  1  0
 22 23  1  0
 24 22  2  0
M  END
$$$$
