ITM.pdb
     RDKit          3D

 24 23  0  0  1  0  0  0  0  0999 V2000
    6.4948  -12.7104   25.3746 C   0  0  0  0  0  0  0  0  0  0  0  0
    6.6501  -13.7633   24.3163 C   0  0  0  0  0  0  0  0  0  0  0  0
    7.8094  -13.4668   23.3815 C   0  0  2  0  0  0  0  0  0  0  0  0
    7.4960  -12.1469   22.7151 C   0  0  0  0  0  0  0  0  0  0  0  0
    8.0445  -14.5709   22.4071 C   0  0  2  0  0  0  0  0  0  0  0  0
    6.8156  -14.8091   21.6841 N   0  0  0  0  0  0  0  0  0  0  0  0
    8.4867  -15.7925   23.1422 C   0  0  0  0  0  0  0  0  0  0  0  0
    7.6681  -16.5973   23.6524 O   0  0  0  0  0  0  0  0  0  0  0  0
   10.5874  -18.4376   21.7111 C   0  0  0  0  0  0  0  0  0  0  0  0
   11.2391  -18.0857   23.0304 C   0  0  1  0  0  0  0  0  0  0  0  0
   12.2865  -17.1851   22.6870 O   0  0  0  0  0  0  0  0  0  0  0  0
   10.3114  -17.3137   23.9503 C   0  0  2  0  0  0  0  0  0  0  0  0
    9.8598  -16.0937   23.2940 N   0  0  0  0  0  0  0  0  0  0  0  0
   10.9459  -16.9252   25.2290 C   0  0  0  0  0  0  0  0  0  0  0  0
   11.7996  -15.9760   25.1962 O   0  0  0  0  0  0  0  0  0  0  0  0
    9.3852  -12.2110   28.2502 C   0  0  0  0  0  0  0  0  0  0  0  0
    9.6904  -13.8124   29.0411 S   0  0  0  0  0  0  0  0  0  0  0  0
   10.5976  -14.8939   27.8997 C   0  0  0  0  0  0  0  0  0  0  0  0
   10.8344  -16.2152   28.5784 C   0  0  0  0  0  0  0  0  0  0  0  0
   11.5423  -17.1709   27.6325 C   0  0  2  0  0  0  0  0  0  0  0  0
   10.7082  -17.4910   26.4883 N   0  0  0  0  0  0  0  0  0  0  0  0
   11.9544  -18.3875   28.3661 C   0  0  0  0  0  0  0  0  0  0  0  0
   11.4480  -19.6219   28.0307 O   0  0  0  0  0  0  0  0  0  0  0  0
   12.7727  -18.2976   29.3030 O   0  0  0  0  0  0  0  0  0  0  0  0
  2  1  1  0
  3  5  1  0
  3  2  1  0
  3  4  1  6
  5  6  1  1
  7  5  1  0
  7  8  2  0
 10  9  1  6
 10 12  1  0
 11 10  1  0
 12 13  1  6
 13  7  1  0
 14 12  1  0
 15 14  2  0
 16 17  1  0
 18 19  1  0
 18 17  1  0
 20 19  1  1
 20 21  1  0
 20 22  1  0
 21 14  1  0
 22 23  1  0
 24 22  2  0
M  END
$$$$
