ITM.pdb
     RDKit          3D

 24 23  0  0  1  0  0  0  0  0999 V2000
    7.8522  -11.6779   18.9947 C   0  0  0  0  0  0  0  0  0  0  0  0
    8.3750  -13.0841   18.9508 C   0  0  0  0  0  0  0  0  0  0  0  0
    7.9279  -13.8974   20.1526 C   0  0  2  0  0  0  0  0  0  0  0  0
    8.3957  -13.1453   21.3773 C   0  0  0  0  0  0  0  0  0  0  0  0
    8.4305  -15.3005   20.1023 C   0  0  2  0  0  0  0  0  0  0  0  0
    7.8512  -15.9503   18.9483 N   0  0  0  0  0  0  0  0  0  0  0  0
    8.0579  -16.0042   21.3649 C   0  0  0  0  0  0  0  0  0  0  0  0
    6.8721  -16.3295   21.6226 O   0  0  0  0  0  0  0  0  0  0  0  0
    8.3998  -19.1989   22.4290 C   0  0  0  0  0  0  0  0  0  0  0  0
    9.0816  -18.4448   23.5495 C   0  0  1  0  0  0  0  0  0  0  0  0
   10.4642  -18.4682   23.2117 O   0  0  0  0  0  0  0  0  0  0  0  0
    8.6878  -16.9798   23.5892 C   0  0  2  0  0  0  0  0  0  0  0  0
    9.0367  -16.3350   22.3301 N   0  0  0  0  0  0  0  0  0  0  0  0
    9.3494  -16.2256   24.6765 C   0  0  0  0  0  0  0  0  0  0  0  0
   10.4834  -15.6977   24.4189 O   0  0  0  0  0  0  0  0  0  0  0  0
    6.6386  -11.1678   26.0580 C   0  0  0  0  0  0  0  0  0  0  0  0
    6.8643  -12.8582   26.6701 S   0  0  0  0  0  0  0  0  0  0  0  0
    8.5553  -13.0592   27.2990 C   0  0  0  0  0  0  0  0  0  0  0  0
    8.6994  -14.4517   27.8489 C   0  0  0  0  0  0  0  0  0  0  0  0
    9.6177  -15.2739   26.9602 C   0  0  2  0  0  0  0  0  0  0  0  0
    8.8608  -16.0232   25.9737 N   0  0  0  0  0  0  0  0  0  0  0  0
   10.4582  -16.1610   27.7936 C   0  0  0  0  0  0  0  0  0  0  0  0
   10.2647  -17.5231   27.7953 O   0  0  0  0  0  0  0  0  0  0  0  0
   11.3566  -15.6714   28.5067 O   0  0  0  0  0  0  0  0  0  0  0  0
  2  1  1  0
  3  5  1  0
  3  2  1  0
  3  4  1  1
  5  6  1  6
  7  5  1  0
  7  8  2  0
 10  9  1  6
 10 12  1  0
 11 10  1  0
 12 13  1  6
 13  7  1  0
 14 12  1  0
 15 14  2  0
 16 17  1  0
 18 19  1  0
 18 17  1  0
 20 19  1  1
 20 21  1  0
 20 22  1  0
 21 14  1  0
 22 23  1  0
 24 22  2  0
M  END
$$$$
