ITM.pdb
     RDKit          3D

 24 23  0  0  1  0  0  0  0  0999 V2000
    7.4602  -12.1366   18.7061 C   0  0  0  0  0  0  0  0  0  0  0  0
    8.1350  -13.4771   18.7281 C   0  0  0  0  0  0  0  0  0  0  0  0
    8.0510  -14.1365   20.0934 C   0  0  2  0  0  0  0  0  0  0  0  0
    8.7479  -13.2082   21.0614 C   0  0  0  0  0  0  0  0  0  0  0  0
    8.6237  -15.5134   20.0906 C   0  0  2  0  0  0  0  0  0  0  0  0
    7.9093  -16.3013   19.1117 N   0  0  0  0  0  0  0  0  0  0  0  0
    8.4996  -16.1027   21.4564 C   0  0  0  0  0  0  0  0  0  0  0  0
    7.3870  -16.4118   21.9513 O   0  0  0  0  0  0  0  0  0  0  0  0
    9.8914  -19.2192   22.4244 C   0  0  0  0  0  0  0  0  0  0  0  0
   10.3325  -18.2928   23.5363 C   0  0  1  0  0  0  0  0  0  0  0  0
   11.6711  -17.9409   23.2037 O   0  0  0  0  0  0  0  0  0  0  0  0
    9.5523  -16.9914   23.5536 C   0  0  2  0  0  0  0  0  0  0  0  0
    9.6427  -16.3381   22.2544 N   0  0  0  0  0  0  0  0  0  0  0  0
   10.0364  -16.0326   24.5711 C   0  0  0  0  0  0  0  0  0  0  0  0
   10.3546  -14.8625   24.1706 O   0  0  0  0  0  0  0  0  0  0  0  0
    6.9415  -11.7683   26.4266 C   0  0  0  0  0  0  0  0  0  0  0  0
    7.0914  -12.6935   27.9772 S   0  0  0  0  0  0  0  0  0  0  0  0
    8.7081  -13.5166   28.0433 C   0  0  0  0  0  0  0  0  0  0  0  0
    8.7982  -14.4875   26.8980 C   0  0  0  0  0  0  0  0  0  0  0  0
   10.1470  -15.1873   26.9091 C   0  0  2  0  0  0  0  0  0  0  0  0
   10.1842  -16.2708   25.9437 N   0  0  0  0  0  0  0  0  0  0  0  0
   10.4532  -15.6623   28.2760 C   0  0  0  0  0  0  0  0  0  0  0  0
   10.9953  -14.8153   29.2149 O   0  0  0  0  0  0  0  0  0  0  0  0
   10.2181  -16.8471   28.5865 O   0  0  0  0  0  0  0  0  0  0  0  0
  2  1  1  0
  3  5  1  0
  3  2  1  0
  3  4  1  1
  5  6  1  6
  7  5  1  0
  7  8  2  0
 10  9  1  6
 10 12  1  0
 11 10  1  0
 12 13  1  6
 13  7  1  0
 14 12  1  0
 15 14  2  0
 16 17  1  0
 18 19  1  0
 18 17  1  0
 20 19  1  1
 20 21  1  0
 20 22  1  0
 21 14  1  0
 22 23  1  0
 24 22  2  0
M  END
$$$$
