HHK.pdb
     RDKit          3D

 30 31  0  0  1  0  0  0  0  0999 V2000
   18.8329   -5.7069  -17.8631 N   0  0  0  0  0  0  0  0  0  0  0  0
   19.0286   -4.9792  -16.6474 C   0  0  1  0  0  0  0  0  0  0  0  0
   18.2048   -3.7116  -16.7084 C   0  0  0  0  0  0  0  0  0  0  0  0
   18.7403   -2.7541  -17.6822 C   0  0  0  0  0  0  0  0  0  0  0  0
   18.1311   -2.2969  -18.8349 C   0  0  0  0  0  0  0  0  0  0  0  0
   18.9433   -1.4266  -19.4610 N   0  0  0  0  0  0  0  0  0  0  0  0
   20.0584   -1.3229  -18.7260 C   0  0  0  0  0  0  0  0  0  0  0  0
   19.9443   -2.1291  -17.6383 N   0  0  0  0  0  0  0  0  0  0  0  0
   18.5643   -5.7528  -15.4389 C   0  0  0  0  0  0  0  0  0  0  0  0
   17.4535   -6.3084  -15.5064 O   0  0  0  0  0  0  0  0  0  0  0  0
   19.3303   -5.8545  -14.2852 N   0  0  0  0  0  0  0  0  0  0  0  0
   19.1404   -6.5509  -13.0705 C   0  0  1  0  0  0  0  0  0  0  0  0
   20.3492   -7.2219  -12.4672 C   0  0  0  0  0  0  0  0  0  0  0  0
   20.9158   -8.2876  -13.3088 C   0  0  0  0  0  0  0  0  0  0  0  0
   20.4039   -8.7443  -14.5010 C   0  0  0  0  0  0  0  0  0  0  0  0
   21.1546   -9.7725  -14.9378 N   0  0  0  0  0  0  0  0  0  0  0  0
   22.1337   -9.9767  -14.0446 C   0  0  0  0  0  0  0  0  0  0  0  0
   21.9747   -9.0622  -13.0554 N   0  0  0  0  0  0  0  0  0  0  0  0
   18.3239   -5.9083  -12.0502 C   0  0  0  0  0  0  0  0  0  0  0  0
   18.5767   -4.7338  -11.6133 O   0  0  0  0  0  0  0  0  0  0  0  0
   17.1934   -6.5382  -11.4730 N   0  0  0  0  0  0  0  0  0  0  0  0
   16.3884   -5.8930  -10.4422 C   0  0  1  0  0  0  0  0  0  0  0  0
   15.1583   -6.7277  -10.1572 C   0  0  0  0  0  0  0  0  0  0  0  0
   14.3213   -6.1397   -9.0643 C   0  0  0  0  0  0  0  0  0  0  0  0
   13.1775   -7.0901   -8.7737 C   0  0  0  0  0  0  0  0  0  0  0  0
   12.2501   -6.4041   -7.7920 C   0  0  0  0  0  0  0  0  0  0  0  0
   11.1685   -7.3141   -7.4544 N   0  0  0  0  0  0  0  0  0  0  0  0
   17.2044   -5.8617   -9.2023 C   0  0  0  0  0  0  0  0  0  0  0  0
   16.9676   -4.9499   -8.2053 O   0  0  0  0  0  0  0  0  0  0  0  0
   18.1512   -6.6717   -9.0106 O   0  0  0  0  0  0  0  0  0  0  0  0
  2  1  1  6
  2  3  1  0
  3  4  1  0
  4  5  2  0
  4  8  1  0
  5  6  1  0
  6  7  1  0
  8  7  2  0
  9  2  1  0
  9 10  2  0
 11  9  1  0
 12 11  1  0
 12 13  1  1
 14 13  1  0
 14 15  2  0
 16 15  1  0
 17 16  1  0
 18 17  2  0
 18 14  1  0
 19 12  1  0
 20 19  2  0
 21 19  1  0
 22 21  1  0
 22 28  1  0
 22 23  1  1
 24 25  1  0
 24 23  1  0
 25 26  1  0
 27 26  1  0
 28 29  1  0
 30 28  2  0
M  END
$$$$
