HHK.pdb
     RDKit          3D

 30 31  0  0  1  0  0  0  0  0999 V2000
   15.4999  -13.9768    5.3984 N   0  0  0  0  0  0  0  0  0  0  0  0
   16.2372  -15.0966    4.9001 C   0  0  1  0  0  0  0  0  0  0  0  0
   17.3541  -14.5826    4.0184 C   0  0  0  0  0  0  0  0  0  0  0  0
   18.0780  -13.4691    4.6409 C   0  0  0  0  0  0  0  0  0  0  0  0
   17.7002  -12.7343    5.7483 C   0  0  0  0  0  0  0  0  0  0  0  0
   18.6306  -11.7986    6.0092 N   0  0  0  0  0  0  0  0  0  0  0  0
   19.5934  -11.9261    5.0865 C   0  0  0  0  0  0  0  0  0  0  0  0
   19.2655  -12.9428    4.2469 N   0  0  0  0  0  0  0  0  0  0  0  0
   16.8776  -15.8956    6.0075 C   0  0  0  0  0  0  0  0  0  0  0  0
   17.2739  -15.2724    7.0083 O   0  0  0  0  0  0  0  0  0  0  0  0
   17.0292  -17.2740    5.9341 N   0  0  0  0  0  0  0  0  0  0  0  0
   17.6744  -18.2102    6.7731 C   0  0  1  0  0  0  0  0  0  0  0  0
   17.4627  -19.6710    6.4624 C   0  0  0  0  0  0  0  0  0  0  0  0
   17.9187  -20.5750    7.5301 C   0  0  0  0  0  0  0  0  0  0  0  0
   18.5923  -20.2124    8.6734 C   0  0  0  0  0  0  0  0  0  0  0  0
   18.9035  -21.3202    9.3715 N   0  0  0  0  0  0  0  0  0  0  0  0
   18.4399  -22.3793    8.6922 C   0  0  0  0  0  0  0  0  0  0  0  0
   17.8409  -21.9083    7.5699 N   0  0  0  0  0  0  0  0  0  0  0  0
   19.0571  -17.9393    7.1406 C   0  0  0  0  0  0  0  0  0  0  0  0
   19.9726  -17.7575    6.2672 O   0  0  0  0  0  0  0  0  0  0  0  0
   19.4829  -17.8566    8.4897 N   0  0  0  0  0  0  0  0  0  0  0  0
   20.8666  -17.5689    8.8497 C   0  0  1  0  0  0  0  0  0  0  0  0
   20.9207  -16.3382    9.7292 C   0  0  0  0  0  0  0  0  0  0  0  0
   21.5264  -15.1673    9.0201 C   0  0  0  0  0  0  0  0  0  0  0  0
   21.6203  -14.0128    9.9971 C   0  0  0  0  0  0  0  0  0  0  0  0
   22.1573  -12.8153    9.2408 C   0  0  0  0  0  0  0  0  0  0  0  0
   22.2234  -11.6802   10.1459 N   0  0  0  0  0  0  0  0  0  0  0  0
   21.3592  -18.7153    9.6542 C   0  0  0  0  0  0  0  0  0  0  0  0
   22.6838  -18.8490    9.9843 O   0  0  0  0  0  0  0  0  0  0  0  0
   20.5821  -19.6168   10.0698 O   0  0  0  0  0  0  0  0  0  0  0  0
  2  1  1  1
  2  3  1  0
  3  4  1  0
  4  5  2  0
  4  8  1  0
  5  6  1  0
  6  7  1  0
  8  7  2  0
  9  2  1  0
  9 10  2  0
 11  9  1  0
 12 11  1  0
 12 13  1  6
 14 13  1  0
 14 15  2  0
 16 15  1  0
 17 16  1  0
 18 17  2  0
 18 14  1  0
 19 12  1  0
 20 19  2  0
 21 19  1  0
 22 21  1  0
 22 28  1  0
 22 23  1  1
 24 25  1  0
 24 23  1  0
 25 26  1  0
 27 26  1  0
 28 29  1  0
 30 28  2  0
M  END
$$$$
