HHK.pdb
     RDKit          3D

 30 31  0  0  1  0  0  0  0  0999 V2000
   21.7077  -17.7439  -14.9408 N   0  0  0  0  0  0  0  0  0  0  0  0
   21.2553  -16.5821  -15.6418 C   0  0  1  0  0  0  0  0  0  0  0  0
   19.8462  -16.2667  -15.1901 C   0  0  0  0  0  0  0  0  0  0  0  0
   18.8844  -17.2776  -15.6427 C   0  0  0  0  0  0  0  0  0  0  0  0
   19.1525  -18.4458  -16.3300 C   0  0  0  0  0  0  0  0  0  0  0  0
   18.0045  -19.1064  -16.5640 N   0  0  0  0  0  0  0  0  0  0  0  0
   17.0113  -18.3781  -16.0371 C   0  0  0  0  0  0  0  0  0  0  0  0
   17.5379  -17.2600  -15.4726 N   0  0  0  0  0  0  0  0  0  0  0  0
   22.1002  -15.3697  -15.3404 C   0  0  0  0  0  0  0  0  0  0  0  0
   22.6872  -15.3386  -14.2443 O   0  0  0  0  0  0  0  0  0  0  0  0
   22.2320  -14.3173  -16.2367 N   0  0  0  0  0  0  0  0  0  0  0  0
   23.0433  -13.1604  -16.2393 C   0  0  1  0  0  0  0  0  0  0  0  0
   24.4513  -13.3101  -16.7595 C   0  0  0  0  0  0  0  0  0  0  0  0
   25.2502  -14.3047  -16.0263 C   0  0  0  0  0  0  0  0  0  0  0  0
   24.8635  -14.9904  -14.8983 C   0  0  0  0  0  0  0  0  0  0  0  0
   25.8867  -15.7559  -14.4756 N   0  0  0  0  0  0  0  0  0  0  0  0
   26.9157  -15.5686  -15.3148 C   0  0  0  0  0  0  0  0  0  0  0  0
   26.5119  -14.6797  -16.2565 N   0  0  0  0  0  0  0  0  0  0  0  0
   22.4368  -11.9177  -16.6955 C   0  0  0  0  0  0  0  0  0  0  0  0
   21.9040  -11.8023  -17.8518 O   0  0  0  0  0  0  0  0  0  0  0  0
   22.3934  -10.7524  -15.8903 N   0  0  0  0  0  0  0  0  0  0  0  0
   21.7199   -9.5342  -16.3251 C   0  0  1  0  0  0  0  0  0  0  0  0
   21.6189   -8.5647  -15.1671 C   0  0  0  0  0  0  0  0  0  0  0  0
   20.8671   -7.3242  -15.5369 C   0  0  0  0  0  0  0  0  0  0  0  0
   20.7212   -6.4658  -14.2968 C   0  0  0  0  0  0  0  0  0  0  0  0
   20.0058   -5.1935  -14.7020 C   0  0  0  0  0  0  0  0  0  0  0  0
   19.9253   -4.3132  -13.5486 N   0  0  0  0  0  0  0  0  0  0  0  0
   22.5758   -8.9044  -17.3619 C   0  0  0  0  0  0  0  0  0  0  0  0
   22.0453   -8.1354  -18.3662 O   0  0  0  0  0  0  0  0  0  0  0  0
   23.8283   -9.0485  -17.3653 O   0  0  0  0  0  0  0  0  0  0  0  0
  2  1  1  1
  2  3  1  0
  3  4  1  0
  4  5  2  0
  4  8  1  0
  5  6  1  0
  6  7  1  0
  8  7  2  0
  9  2  1  0
  9 10  2  0
 11  9  1  0
 12 11  1  0
 12 13  1  6
 14 13  1  0
 14 15  2  0
 16 15  1  0
 17 16  1  0
 18 17  2  0
 18 14  1  0
 19 12  1  0
 20 19  2  0
 21 19  1  0
 22 21  1  0
 22 28  1  0
 22 23  1  1
 24 25  1  0
 24 23  1  0
 25 26  1  0
 27 26  1  0
 28 29  1  0
 30 28  2  0
M  END
$$$$
