HHK.pdb
     RDKit          3D

 30 31  0  0  1  0  0  0  0  0999 V2000
   17.8963  -12.2872    8.1042 N   0  0  0  0  0  0  0  0  0  0  0  0
   18.5802  -13.2748    7.3278 C   0  0  1  0  0  0  0  0  0  0  0  0
   19.9506  -13.4949    7.9301 C   0  0  0  0  0  0  0  0  0  0  0  0
   20.8352  -12.3439    7.7194 C   0  0  0  0  0  0  0  0  0  0  0  0
   21.1790  -11.3683    8.6353 C   0  0  0  0  0  0  0  0  0  0  0  0
   22.0126  -10.4825    8.0611 N   0  0  0  0  0  0  0  0  0  0  0  0
   22.2046  -10.8786    6.7959 C   0  0  0  0  0  0  0  0  0  0  0  0
   21.4904  -12.0136    6.5775 N   0  0  0  0  0  0  0  0  0  0  0  0
   17.8694  -14.6048    7.3436 C   0  0  0  0  0  0  0  0  0  0  0  0
   17.4402  -15.0121    8.4376 O   0  0  0  0  0  0  0  0  0  0  0  0
   17.6895  -15.3622    6.1937 N   0  0  0  0  0  0  0  0  0  0  0  0
   17.2074  -16.6729    5.9786 C   0  0  1  0  0  0  0  0  0  0  0  0
   16.7071  -17.0022    4.5942 C   0  0  0  0  0  0  0  0  0  0  0  0
   16.0703  -18.3249    4.4943 C   0  0  0  0  0  0  0  0  0  0  0  0
   14.8995  -18.7144    5.1023 C   0  0  0  0  0  0  0  0  0  0  0  0
   14.6762  -20.0147    4.8361 N   0  0  0  0  0  0  0  0  0  0  0  0
   15.6838  -20.4576    4.0702 C   0  0  0  0  0  0  0  0  0  0  0  0
   16.5273  -19.4143    3.8700 N   0  0  0  0  0  0  0  0  0  0  0  0
   17.9803  -17.7717    6.5404 C   0  0  0  0  0  0  0  0  0  0  0  0
   19.2292  -17.9161    6.3092 O   0  0  0  0  0  0  0  0  0  0  0  0
   17.4032  -18.7547    7.3825 N   0  0  0  0  0  0  0  0  0  0  0  0
   18.1805  -19.8616    7.9277 C   0  0  1  0  0  0  0  0  0  0  0  0
   18.1425  -19.8167    9.4402 C   0  0  0  0  0  0  0  0  0  0  0  0
   16.7418  -19.7680    9.9658 C   0  0  0  0  0  0  0  0  0  0  0  0
   16.8011  -19.6041   11.4710 C   0  0  0  0  0  0  0  0  0  0  0  0
   15.3849  -19.3918   11.9648 C   0  0  0  0  0  0  0  0  0  0  0  0
   15.4074  -19.2623   13.4121 N   0  0  0  0  0  0  0  0  0  0  0  0
   17.5152  -21.1184    7.5010 C   0  0  0  0  0  0  0  0  0  0  0  0
   18.0340  -22.3502    7.8092 O   0  0  0  0  0  0  0  0  0  0  0  0
   16.4440  -21.1094    6.8363 O   0  0  0  0  0  0  0  0  0  0  0  0
  2  1  1  1
  2  3  1  0
  3  4  1  0
  4  5  2  0
  4  8  1  0
  5  6  1  0
  6  7  1  0
  8  7  2  0
  9  2  1  0
  9 10  2  0
 11  9  1  0
 12 11  1  0
 12 13  1  6
 14 13  1  0
 14 15  2  0
 16 15  1  0
 17 16  1  0
 18 17  2  0
 18 14  1  0
 19 12  1  0
 20 19  2  0
 21 19  1  0
 22 21  1  0
 22 28  1  0
 22 23  1  1
 24 25  1  0
 24 23  1  0
 25 26  1  0
 27 26  1  0
 28 29  1  0
 30 28  2  0
M  END
$$$$
