HHK.pdb
     RDKit          3D

 30 31  0  0  1  0  0  0  0  0999 V2000
   24.6163   -8.5065  -18.1275 N   0  0  0  0  0  0  0  0  0  0  0  0
   23.9597   -9.6935  -17.6740 C   0  0  1  0  0  0  0  0  0  0  0  0
   24.2736   -9.8852  -16.2063 C   0  0  0  0  0  0  0  0  0  0  0  0
   25.6679  -10.2859  -15.9899 C   0  0  0  0  0  0  0  0  0  0  0  0
   26.7108   -9.4964  -15.5449 C   0  0  0  0  0  0  0  0  0  0  0  0
   27.8362  -10.2298  -15.4768 N   0  0  0  0  0  0  0  0  0  0  0  0
   27.5265  -11.4721  -15.8711 C   0  0  0  0  0  0  0  0  0  0  0  0
   26.2056  -11.5166  -16.1864 N   0  0  0  0  0  0  0  0  0  0  0  0
   22.4598   -9.5981  -17.7986 C   0  0  0  0  0  0  0  0  0  0  0  0
   21.9133   -8.5677  -17.3665 O   0  0  0  0  0  0  0  0  0  0  0  0
   21.6982  -10.6090  -18.3699 N   0  0  0  0  0  0  0  0  0  0  0  0
   20.3104  -10.7481  -18.5960 C   0  0  1  0  0  0  0  0  0  0  0  0
   19.8813  -11.7520  -19.6369 C   0  0  0  0  0  0  0  0  0  0  0  0
   20.3301  -11.4208  -20.9985 C   0  0  0  0  0  0  0  0  0  0  0  0
   20.8938  -10.2339  -21.4054 C   0  0  0  0  0  0  0  0  0  0  0  0
   21.1047  -10.2789  -22.7339 N   0  0  0  0  0  0  0  0  0  0  0  0
   20.6853  -11.4727  -23.1777 C   0  0  0  0  0  0  0  0  0  0  0  0
   20.2148  -12.1590  -22.1064 N   0  0  0  0  0  0  0  0  0  0  0  0
   19.4419  -10.7887  -17.4278 C   0  0  0  0  0  0  0  0  0  0  0  0
   19.8296  -11.2610  -16.3050 O   0  0  0  0  0  0  0  0  0  0  0  0
   18.1095  -10.3066  -17.4539 N   0  0  0  0  0  0  0  0  0  0  0  0
   17.2897  -10.2283  -16.2503 C   0  0  1  0  0  0  0  0  0  0  0  0
   16.0140   -9.4707  -16.5492 C   0  0  0  0  0  0  0  0  0  0  0  0
   15.0928   -9.4343  -15.3698 C   0  0  0  0  0  0  0  0  0  0  0  0
   13.8326   -8.6941  -15.7699 C   0  0  0  0  0  0  0  0  0  0  0  0
   12.9527   -8.5903  -14.5412 C   0  0  0  0  0  0  0  0  0  0  0  0
   11.7489   -7.8536  -14.8874 N   0  0  0  0  0  0  0  0  0  0  0  0
   16.9102  -11.6165  -15.8855 C   0  0  0  0  0  0  0  0  0  0  0  0
   16.6468  -11.9754  -14.5882 O   0  0  0  0  0  0  0  0  0  0  0  0
   16.8130  -12.5271  -16.7520 O   0  0  0  0  0  0  0  0  0  0  0  0
  2  1  1  1
  2  3  1  0
  3  4  1  0
  4  5  2  0
  4  8  1  0
  5  6  1  0
  6  7  1  0
  8  7  2  0
  9  2  1  0
  9 10  2  0
 11  9  1  0
 12 11  1  0
 12 13  1  1
 14 13  1  0
 14 15  2  0
 16 15  1  0
 17 16  1  0
 18 17  2  0
 18 14  1  0
 19 12  1  0
 20 19  2  0
 21 19  1  0
 22 21  1  0
 22 28  1  0
 22 23  1  6
 24 25  1  0
 24 23  1  0
 25 26  1  0
 27 26  1  0
 28 29  1  0
 30 28  2  0
M  END
$$$$
