HHK.pdb
     RDKit          3D

 30 31  0  0  1  0  0  0  0  0999 V2000
   23.2787  -18.3849  -16.2501 N   0  0  0  0  0  0  0  0  0  0  0  0
   22.1734  -18.0591  -15.4027 C   0  0  1  0  0  0  0  0  0  0  0  0
   21.0167  -17.6153  -16.2711 C   0  0  0  0  0  0  0  0  0  0  0  0
   21.3218  -16.3828  -17.0057 C   0  0  0  0  0  0  0  0  0  0  0  0
   21.5149  -16.2402  -18.3663 C   0  0  0  0  0  0  0  0  0  0  0  0
   21.7743  -14.9521  -18.6537 N   0  0  0  0  0  0  0  0  0  0  0  0
   21.7494  -14.2735  -17.4989 C   0  0  0  0  0  0  0  0  0  0  0  0
   21.4741  -15.1377  -16.4873 N   0  0  0  0  0  0  0  0  0  0  0  0
   21.6986  -19.2467  -14.6034 C   0  0  0  0  0  0  0  0  0  0  0  0
   21.5076  -20.3113  -15.2177 O   0  0  0  0  0  0  0  0  0  0  0  0
   21.4767  -19.1773  -13.2344 N   0  0  0  0  0  0  0  0  0  0  0  0
   21.1079  -20.1478  -12.2759 C   0  0  1  0  0  0  0  0  0  0  0  0
   21.9307  -20.2134  -11.0133 C   0  0  0  0  0  0  0  0  0  0  0  0
   23.2612  -20.8120  -11.2046 C   0  0  0  0  0  0  0  0  0  0  0  0
   23.7309  -21.4056  -12.3531 C   0  0  0  0  0  0  0  0  0  0  0  0
   24.9616  -21.8992  -12.1224 N   0  0  0  0  0  0  0  0  0  0  0  0
   25.2816  -21.6297  -10.8483 C   0  0  0  0  0  0  0  0  0  0  0  0
   24.2332  -20.9654  -10.3008 N   0  0  0  0  0  0  0  0  0  0  0  0
   19.6880  -20.3060  -11.9945 C   0  0  0  0  0  0  0  0  0  0  0  0
   18.9615  -19.3379  -11.5834 O   0  0  0  0  0  0  0  0  0  0  0  0
   19.0135  -21.5415  -12.1583 N   0  0  0  0  0  0  0  0  0  0  0  0
   17.5830  -21.6824  -11.9124 C   0  0  1  0  0  0  0  0  0  0  0  0
   17.1293  -23.0693  -12.3145 C   0  0  0  0  0  0  0  0  0  0  0  0
   15.6375  -23.1927  -12.3200 C   0  0  0  0  0  0  0  0  0  0  0  0
   15.2751  -24.5921  -12.7744 C   0  0  0  0  0  0  0  0  0  0  0  0
   13.7685  -24.6506  -12.9202 C   0  0  0  0  0  0  0  0  0  0  0  0
   13.3935  -25.9748  -13.3868 N   0  0  0  0  0  0  0  0  0  0  0  0
   17.3731  -21.5503  -10.4486 C   0  0  0  0  0  0  0  0  0  0  0  0
   18.3564  -21.8690   -9.5469 O   0  0  0  0  0  0  0  0  0  0  0  0
   16.2819  -21.1392   -9.9693 O   0  0  0  0  0  0  0  0  0  0  0  0
  2  1  1  6
  2  3  1  0
  3  4  1  0
  4  5  2  0
  4  8  1  0
  5  6  1  0
  6  7  1  0
  8  7  2  0
  9  2  1  0
  9 10  2  0
 11  9  1  0
 12 11  1  0
 12 13  1  1
 14 13  1  0
 14 15  2  0
 16 15  1  0
 17 16  1  0
 18 17  2  0
 18 14  1  0
 19 12  1  0
 20 19  2  0
 21 19  1  0
 22 21  1  0
 22 28  1  0
 22 23  1  1
 24 25  1  0
 24 23  1  0
 25 26  1  0
 27 26  1  0
 28 29  1  0
 30 28  2  0
M  END
$$$$
