HHK.pdb
     RDKit          3D

 30 31  0  0  1  0  0  0  0  0999 V2000
   19.4772  -13.3127  -17.2869 N   0  0  0  0  0  0  0  0  0  0  0  0
   19.2368  -11.9755  -16.8398 C   0  0  1  0  0  0  0  0  0  0  0  0
   19.0645  -11.9951  -15.3368 C   0  0  0  0  0  0  0  0  0  0  0  0
   17.8292  -12.6757  -14.9337 C   0  0  0  0  0  0  0  0  0  0  0  0
   16.5299  -12.2868  -15.1971 C   0  0  0  0  0  0  0  0  0  0  0  0
   15.6743  -13.1742  -14.6592 N   0  0  0  0  0  0  0  0  0  0  0  0
   16.4075  -14.1206  -14.0583 C   0  0  0  0  0  0  0  0  0  0  0  0
   17.7238  -13.8256  -14.2201 N   0  0  0  0  0  0  0  0  0  0  0  0
   20.3940  -11.0568  -17.1422 C   0  0  0  0  0  0  0  0  0  0  0  0
   21.4719  -11.2838  -16.5645 O   0  0  0  0  0  0  0  0  0  0  0  0
   20.2833   -9.9928  -18.0275 N   0  0  0  0  0  0  0  0  0  0  0  0
   21.2000   -9.0059  -18.4547 C   0  0  1  0  0  0  0  0  0  0  0  0
   21.3341   -8.7907  -19.9417 C   0  0  0  0  0  0  0  0  0  0  0  0
   21.5804  -10.0282  -20.6987 C   0  0  0  0  0  0  0  0  0  0  0  0
   20.6692  -10.7028  -21.4776 C   0  0  0  0  0  0  0  0  0  0  0  0
   21.2399  -11.8265  -21.9500 N   0  0  0  0  0  0  0  0  0  0  0  0
   22.4967  -11.8775  -21.4852 C   0  0  0  0  0  0  0  0  0  0  0  0
   22.6900  -10.7724  -20.7225 N   0  0  0  0  0  0  0  0  0  0  0  0
   21.2096   -7.7423  -17.7312 C   0  0  0  0  0  0  0  0  0  0  0  0
   20.2347   -7.3713  -16.9921 O   0  0  0  0  0  0  0  0  0  0  0  0
   22.2990   -6.8382  -17.7945 N   0  0  0  0  0  0  0  0  0  0  0  0
   22.3004   -5.5737  -17.0680 C   0  0  1  0  0  0  0  0  0  0  0  0
   23.5916   -4.8311  -17.3368 C   0  0  0  0  0  0  0  0  0  0  0  0
   23.6322   -3.5054  -16.6427 C   0  0  0  0  0  0  0  0  0  0  0  0
   24.9797   -2.8663  -16.9105 C   0  0  0  0  0  0  0  0  0  0  0  0
   24.9964   -1.5226  -16.2116 C   0  0  0  0  0  0  0  0  0  0  0  0
   26.2169   -0.8213  -16.5728 N   0  0  0  0  0  0  0  0  0  0  0  0
   21.1904   -4.7521  -17.6131 C   0  0  0  0  0  0  0  0  0  0  0  0
   20.4775   -3.8869  -16.8228 O   0  0  0  0  0  0  0  0  0  0  0  0
   20.8538   -4.8132  -18.8264 O   0  0  0  0  0  0  0  0  0  0  0  0
  2  1  1  1
  2  3  1  0
  3  4  1  0
  4  5  2  0
  4  8  1  0
  5  6  1  0
  6  7  1  0
  8  7  2  0
  9  2  1  0
  9 10  2  0
 11  9  1  0
 12 11  1  0
 12 13  1  6
 14 13  1  0
 14 15  2  0
 16 15  1  0
 17 16  1  0
 18 17  2  0
 18 14  1  0
 19 12  1  0
 20 19  2  0
 21 19  1  0
 22 21  1  0
 22 28  1  0
 22 23  1  6
 24 25  1  0
 24 23  1  0
 25 26  1  0
 27 26  1  0
 28 29  1  0
 30 28  2  0
M  END
$$$$
