HHK.pdb
     RDKit          3D

 30 31  0  0  1  0  0  0  0  0999 V2000
   25.5059  -21.5943   -9.7265 N   0  0  0  0  0  0  0  0  0  0  0  0
   25.9553  -20.2995  -10.1357 C   0  0  1  0  0  0  0  0  0  0  0  0
   27.4545  -20.2287   -9.9445 C   0  0  0  0  0  0  0  0  0  0  0  0
   27.8177  -19.9032   -8.5612 C   0  0  0  0  0  0  0  0  0  0  0  0
   26.9658  -19.7117   -7.4904 C   0  0  0  0  0  0  0  0  0  0  0  0
   27.6820  -19.4294   -6.3875 N   0  0  0  0  0  0  0  0  0  0  0  0
   28.9747  -19.4381   -6.7389 C   0  0  0  0  0  0  0  0  0  0  0  0
   29.0680  -19.7262   -8.0634 N   0  0  0  0  0  0  0  0  0  0  0  0
   25.6807  -20.0358  -11.5950 C   0  0  0  0  0  0  0  0  0  0  0  0
   26.0665  -18.9500  -12.0634 O   0  0  0  0  0  0  0  0  0  0  0  0
   25.0245  -20.9547  -12.4031 N   0  0  0  0  0  0  0  0  0  0  0  0
   24.5088  -20.8754  -13.7163 C   0  0  1  0  0  0  0  0  0  0  0  0
   24.8938  -21.9762  -14.6730 C   0  0  0  0  0  0  0  0  0  0  0  0
   26.0470  -21.6438  -15.5243 C   0  0  0  0  0  0  0  0  0  0  0  0
   26.6211  -20.4024  -15.6715 C   0  0  0  0  0  0  0  0  0  0  0  0
   27.6047  -20.4777  -16.5871 N   0  0  0  0  0  0  0  0  0  0  0  0
   27.6655  -21.7441  -17.0237 C   0  0  0  0  0  0  0  0  0  0  0  0
   26.7081  -22.4443  -16.3654 N   0  0  0  0  0  0  0  0  0  0  0  0
   23.1079  -20.5071  -13.8649 C   0  0  0  0  0  0  0  0  0  0  0  0
   22.1884  -21.0106  -13.1334 O   0  0  0  0  0  0  0  0  0  0  0  0
   22.6674  -19.5652  -14.8277 N   0  0  0  0  0  0  0  0  0  0  0  0
   21.2594  -19.2205  -14.9874 C   0  0  1  0  0  0  0  0  0  0  0  0
   21.0952  -18.2683  -16.1524 C   0  0  0  0  0  0  0  0  0  0  0  0
   19.6853  -17.7838  -16.2876 C   0  0  0  0  0  0  0  0  0  0  0  0
   19.6203  -16.8207  -17.4557 C   0  0  0  0  0  0  0  0  0  0  0  0
   18.1992  -16.3041  -17.5449 C   0  0  0  0  0  0  0  0  0  0  0  0
   18.0771  -15.4697  -18.7285 N   0  0  0  0  0  0  0  0  0  0  0  0
   20.5361  -20.4717  -15.3274 C   0  0  0  0  0  0  0  0  0  0  0  0
   19.3138  -20.7699  -14.7812 O   0  0  0  0  0  0  0  0  0  0  0  0
   21.0132  -21.3156  -16.1333 O   0  0  0  0  0  0  0  0  0  0  0  0
  2  1  1  6
  2  3  1  0
  3  4  1  0
  4  5  2  0
  4  8  1  0
  5  6  1  0
  6  7  1  0
  8  7  2  0
  9  2  1  0
  9 10  2  0
 11  9  1  0
 12 11  1  0
 12 13  1  1
 14 13  1  0
 14 15  2  0
 16 15  1  0
 17 16  1  0
 18 17  2  0
 18 14  1  0
 19 12  1  0
 20 19  2  0
 21 19  1  0
 22 21  1  0
 22 28  1  0
 22 23  1  6
 24 25  1  0
 24 23  1  0
 25 26  1  0
 27 26  1  0
 28 29  1  0
 30 28  2  0
M  END
$$$$
