HHK.pdb
     RDKit          3D

 30 31  0  0  1  0  0  0  0  0999 V2000
   27.2856  -32.1405   -8.6307 N   0  0  0  0  0  0  0  0  0  0  0  0
   26.5847  -33.3441   -8.3055 C   0  0  1  0  0  0  0  0  0  0  0  0
   26.7756  -34.3316   -9.4358 C   0  0  0  0  0  0  0  0  0  0  0  0
   26.1663  -33.8622  -10.6848 C   0  0  0  0  0  0  0  0  0  0  0  0
   25.4708  -32.6865  -10.8917 C   0  0  0  0  0  0  0  0  0  0  0  0
   25.0693  -32.6181  -12.1736 N   0  0  0  0  0  0  0  0  0  0  0  0
   25.4978  -33.7304  -12.7851 C   0  0  0  0  0  0  0  0  0  0  0  0
   26.1683  -34.4961  -11.8850 N   0  0  0  0  0  0  0  0  0  0  0  0
   27.1184  -33.9938   -7.0534 C   0  0  0  0  0  0  0  0  0  0  0  0
   26.7511  -35.1570   -6.8103 O   0  0  0  0  0  0  0  0  0  0  0  0
   27.9870  -33.3379   -6.1911 N   0  0  0  0  0  0  0  0  0  0  0  0
   28.5963  -33.7208   -4.9750 C   0  0  1  0  0  0  0  0  0  0  0  0
   29.8569  -32.9930   -4.5794 C   0  0  0  0  0  0  0  0  0  0  0  0
   31.0280  -33.3523   -5.3946 C   0  0  0  0  0  0  0  0  0  0  0  0
   31.1197  -34.4106   -6.2686 C   0  0  0  0  0  0  0  0  0  0  0  0
   32.3665  -34.4586   -6.7732 N   0  0  0  0  0  0  0  0  0  0  0  0
   33.0679  -33.4501   -6.2354 C   0  0  0  0  0  0  0  0  0  0  0  0
   32.2371  -32.7835   -5.3956 N   0  0  0  0  0  0  0  0  0  0  0  0
   27.7253  -33.9381   -3.8284 C   0  0  0  0  0  0  0  0  0  0  0  0
   26.4867  -33.6224   -3.8425 O   0  0  0  0  0  0  0  0  0  0  0  0
   28.1889  -34.5153   -2.6201 N   0  0  0  0  0  0  0  0  0  0  0  0
   27.2773  -34.9405   -1.5642 C   0  0  1  0  0  0  0  0  0  0  0  0
   26.3922  -36.0582   -2.0724 C   0  0  0  0  0  0  0  0  0  0  0  0
   25.4121  -36.5137   -1.0367 C   0  0  0  0  0  0  0  0  0  0  0  0
   24.5257  -37.5775   -1.6521 C   0  0  0  0  0  0  0  0  0  0  0  0
   23.5701  -38.0549   -0.5781 C   0  0  0  0  0  0  0  0  0  0  0  0
   22.6899  -39.0615   -1.1474 N   0  0  0  0  0  0  0  0  0  0  0  0
   28.1063  -35.4922   -0.4631 C   0  0  0  0  0  0  0  0  0  0  0  0
   27.8356  -35.2151    0.8527 O   0  0  0  0  0  0  0  0  0  0  0  0
   29.0959  -36.2401   -0.6885 O   0  0  0  0  0  0  0  0  0  0  0  0
  2  1  1  6
  2  3  1  0
  3  4  1  0
  4  5  2  0
  4  8  1  0
  5  6  1  0
  6  7  1  0
  8  7  2  0
  9  2  1  0
  9 10  2  0
 11  9  1  0
 12 11  1  0
 12 13  1  1
 14 13  1  0
 14 15  2  0
 16 15  1  0
 17 16  1  0
 18 17  2  0
 18 14  1  0
 19 12  1  0
 20 19  2  0
 21 19  1  0
 22 21  1  0
 22 28  1  0
 22 23  1  6
 24 25  1  0
 24 23  1  0
 25 26  1  0
 27 26  1  0
 28 29  1  0
 30 28  2  0
M  END
$$$$
