HHK.pdb
     RDKit          3D

 30 31  0  0  1  0  0  0  0  0999 V2000
   23.4852  -12.6982  -18.8670 N   0  0  0  0  0  0  0  0  0  0  0  0
   23.8368  -11.3212  -19.0287 C   0  0  1  0  0  0  0  0  0  0  0  0
   23.5634  -10.9206  -20.4618 C   0  0  0  0  0  0  0  0  0  0  0  0
   24.3580  -11.7050  -21.4131 C   0  0  0  0  0  0  0  0  0  0  0  0
   23.8965  -12.6094  -22.3502 C   0  0  0  0  0  0  0  0  0  0  0  0
   24.9353  -13.1229  -23.0331 N   0  0  0  0  0  0  0  0  0  0  0  0
   26.0492  -12.5603  -22.5461 C   0  0  0  0  0  0  0  0  0  0  0  0
   25.7076  -11.6936  -21.5571 N   0  0  0  0  0  0  0  0  0  0  0  0
   23.0117  -10.4154  -18.1493 C   0  0  0  0  0  0  0  0  0  0  0  0
   21.7953  -10.3310  -18.3948 O   0  0  0  0  0  0  0  0  0  0  0  0
   23.5672   -9.6941  -17.1007 N   0  0  0  0  0  0  0  0  0  0  0  0
   23.0001   -8.8768  -16.0972 C   0  0  1  0  0  0  0  0  0  0  0  0
   23.3931   -9.1686  -14.6704 C   0  0  0  0  0  0  0  0  0  0  0  0
   22.9943  -10.5077  -14.2091 C   0  0  0  0  0  0  0  0  0  0  0  0
   22.2801  -11.4386  -14.9271 C   0  0  0  0  0  0  0  0  0  0  0  0
   22.0462  -12.5110  -14.1482 N   0  0  0  0  0  0  0  0  0  0  0  0
   22.5989  -12.2778  -12.9489 C   0  0  0  0  0  0  0  0  0  0  0  0
   23.1742  -11.0505  -13.0014 N   0  0  0  0  0  0  0  0  0  0  0  0
   22.9454   -7.4441  -16.3516 C   0  0  0  0  0  0  0  0  0  0  0  0
   23.9733   -6.7749  -16.7117 O   0  0  0  0  0  0  0  0  0  0  0  0
   21.7505   -6.6936  -16.2198 N   0  0  0  0  0  0  0  0  0  0  0  0
   21.6959   -5.2655  -16.5102 C   0  0  1  0  0  0  0  0  0  0  0  0
   20.3688   -4.9251  -17.1536 C   0  0  0  0  0  0  0  0  0  0  0  0
   20.2947   -3.4867  -17.5612 C   0  0  0  0  0  0  0  0  0  0  0  0
   18.9721   -3.2562  -18.2640 C   0  0  0  0  0  0  0  0  0  0  0  0
   18.9456   -1.8148  -18.7289 C   0  0  0  0  0  0  0  0  0  0  0  0
   17.6752   -1.5574  -19.3860 N   0  0  0  0  0  0  0  0  0  0  0  0
   21.7595   -4.5497  -15.2111 C   0  0  0  0  0  0  0  0  0  0  0  0
   21.6002   -5.2057  -14.0171 O   0  0  0  0  0  0  0  0  0  0  0  0
   21.9628   -3.3071  -15.1477 O   0  0  0  0  0  0  0  0  0  0  0  0
  2  1  1  6
  2  3  1  0
  3  4  1  0
  4  5  2  0
  4  8  1  0
  5  6  1  0
  6  7  1  0
  8  7  2  0
  9  2  1  0
  9 10  2  0
 11  9  1  0
 12 11  1  0
 12 13  1  1
 14 13  1  0
 14 15  2  0
 16 15  1  0
 17 16  1  0
 18 17  2  0
 18 14  1  0
 19 12  1  0
 20 19  2  0
 21 19  1  0
 22 21  1  0
 22 28  1  0
 22 23  1  1
 24 25  1  0
 24 23  1  0
 25 26  1  0
 27 26  1  0
 28 29  1  0
 30 28  2  0
M  END
$$$$
