HHK.pdb
     RDKit          3D

 30 31  0  0  1  0  0  0  0  0999 V2000
   26.3069  -16.7353  -19.3231 N   0  0  0  0  0  0  0  0  0  0  0  0
   25.5040  -16.2842  -18.2286 C   0  0  1  0  0  0  0  0  0  0  0  0
   24.2524  -15.6408  -18.7841 C   0  0  0  0  0  0  0  0  0  0  0  0
   24.5508  -14.4187  -19.5384 C   0  0  0  0  0  0  0  0  0  0  0  0
   24.5316  -14.2506  -20.9097 C   0  0  0  0  0  0  0  0  0  0  0  0
   24.8636  -12.9833  -21.2146 N   0  0  0  0  0  0  0  0  0  0  0  0
   25.0934  -12.3430  -20.0606 C   0  0  0  0  0  0  0  0  0  0  0  0
   24.9051  -13.2103  -19.0318 N   0  0  0  0  0  0  0  0  0  0  0  0
   25.0626  -17.4198  -17.3396 C   0  0  0  0  0  0  0  0  0  0  0  0
   24.2825  -18.2579  -17.8256 O   0  0  0  0  0  0  0  0  0  0  0  0
   25.4972  -17.5447  -16.0267 N   0  0  0  0  0  0  0  0  0  0  0  0
   25.1643  -18.4474  -14.9919 C   0  0  1  0  0  0  0  0  0  0  0  0
   26.1059  -18.5215  -13.8158 C   0  0  0  0  0  0  0  0  0  0  0  0
   25.7199  -19.5250  -12.8113 C   0  0  0  0  0  0  0  0  0  0  0  0
   24.5846  -20.3015  -12.8286 C   0  0  0  0  0  0  0  0  0  0  0  0
   24.5427  -21.0457  -11.7079 N   0  0  0  0  0  0  0  0  0  0  0  0
   25.6307  -20.7557  -10.9796 C   0  0  0  0  0  0  0  0  0  0  0  0
   26.3399  -19.8255  -11.6664 N   0  0  0  0  0  0  0  0  0  0  0  0
   23.7733  -18.4922  -14.5635 C   0  0  0  0  0  0  0  0  0  0  0  0
   23.2158  -17.5182  -13.9516 O   0  0  0  0  0  0  0  0  0  0  0  0
   22.9419  -19.6160  -14.7963 N   0  0  0  0  0  0  0  0  0  0  0  0
   21.5440  -19.6453  -14.3817 C   0  0  1  0  0  0  0  0  0  0  0  0
   20.6917  -20.2110  -15.4973 C   0  0  0  0  0  0  0  0  0  0  0  0
   20.0622  -19.1341  -16.3247 C   0  0  0  0  0  0  0  0  0  0  0  0
   19.2237  -19.7885  -17.4039 C   0  0  0  0  0  0  0  0  0  0  0  0
   18.7765  -18.7012  -18.3590 C   0  0  0  0  0  0  0  0  0  0  0  0
   17.8744  -19.2806  -19.3399 N   0  0  0  0  0  0  0  0  0  0  0  0
   21.4465  -20.5757  -13.2289 C   0  0  0  0  0  0  0  0  0  0  0  0
   20.7621  -20.2420  -12.0880 O   0  0  0  0  0  0  0  0  0  0  0  0
   21.9885  -21.7138  -13.2473 O   0  0  0  0  0  0  0  0  0  0  0  0
  2  1  1  6
  2  3  1  0
  3  4  1  0
  4  5  2  0
  4  8  1  0
  5  6  1  0
  6  7  1  0
  8  7  2  0
  9  2  1  0
  9 10  2  0
 11  9  1  0
 12 11  1  0
 12 13  1  1
 14 13  1  0
 14 15  2  0
 16 15  1  0
 17 16  1  0
 18 17  2  0
 18 14  1  0
 19 12  1  0
 20 19  2  0
 21 19  1  0
 22 21  1  0
 22 28  1  0
 22 23  1  6
 24 25  1  0
 24 23  1  0
 25 26  1  0
 27 26  1  0
 28 29  1  0
 30 28  2  0
M  END
$$$$
