HHK.pdb
     RDKit          3D

 30 31  0  0  1  0  0  0  0  0999 V2000
   25.1985  -18.3775  -22.4350 N   0  0  0  0  0  0  0  0  0  0  0  0
   25.5162  -17.8454  -21.1459 C   0  0  1  0  0  0  0  0  0  0  0  0
   26.7380  -16.9629  -21.2782 C   0  0  0  0  0  0  0  0  0  0  0  0
   27.9261  -17.7251  -21.6772 C   0  0  0  0  0  0  0  0  0  0  0  0
   28.3169  -18.0646  -22.9582 C   0  0  0  0  0  0  0  0  0  0  0  0
   29.4633  -18.7665  -22.9102 N   0  0  0  0  0  0  0  0  0  0  0  0
   29.8079  -18.8789  -21.6206 C   0  0  0  0  0  0  0  0  0  0  0  0
   28.8762  -18.2467  -20.8601 N   0  0  0  0  0  0  0  0  0  0  0  0
   24.4058  -16.9866  -20.5945 C   0  0  0  0  0  0  0  0  0  0  0  0
   24.5902  -16.4541  -19.4856 O   0  0  0  0  0  0  0  0  0  0  0  0
   23.2155  -16.7842  -21.2804 N   0  0  0  0  0  0  0  0  0  0  0  0
   22.0258  -16.0984  -20.9477 C   0  0  1  0  0  0  0  0  0  0  0  0
   21.7787  -14.7785  -21.6351 C   0  0  0  0  0  0  0  0  0  0  0  0
   22.7283  -13.7232  -21.2482 C   0  0  0  0  0  0  0  0  0  0  0  0
   23.6441  -13.7857  -20.2238 C   0  0  0  0  0  0  0  0  0  0  0  0
   24.2823  -12.6043  -20.1306 N   0  0  0  0  0  0  0  0  0  0  0  0
   23.7882  -11.7932  -21.0772 C   0  0  0  0  0  0  0  0  0  0  0  0
   22.8401  -12.4906  -21.7517 N   0  0  0  0  0  0  0  0  0  0  0  0
   20.8039  -16.8845  -20.8505 C   0  0  0  0  0  0  0  0  0  0  0  0
   20.4713  -17.7418  -21.7384 O   0  0  0  0  0  0  0  0  0  0  0  0
   19.9011  -16.7554  -19.7658 N   0  0  0  0  0  0  0  0  0  0  0  0
   18.6324  -17.4733  -19.7235 C   0  0  1  0  0  0  0  0  0  0  0  0
   17.9420  -17.2137  -18.4018 C   0  0  0  0  0  0  0  0  0  0  0  0
   16.7102  -18.0482  -18.2380 C   0  0  0  0  0  0  0  0  0  0  0  0
   16.1416  -17.7958  -16.8563 C   0  0  0  0  0  0  0  0  0  0  0  0
   14.9535  -18.7177  -16.6744 C   0  0  0  0  0  0  0  0  0  0  0  0
   14.4729  -18.5992  -15.3081 N   0  0  0  0  0  0  0  0  0  0  0  0
   17.7726  -16.9104  -20.7950 C   0  0  0  0  0  0  0  0  0  0  0  0
   16.7900  -17.6542  -21.3973 O   0  0  0  0  0  0  0  0  0  0  0  0
   17.9073  -15.7238  -21.1989 O   0  0  0  0  0  0  0  0  0  0  0  0
  2  1  1  6
  2  3  1  0
  3  4  1  0
  4  5  2  0
  4  8  1  0
  5  6  1  0
  6  7  1  0
  8  7  2  0
  9  2  1  0
  9 10  2  0
 11  9  1  0
 12 11  1  0
 12 13  1  6
 14 13  1  0
 14 15  2  0
 16 15  1  0
 17 16  1  0
 18 17  2  0
 18 14  1  0
 19 12  1  0
 20 19  2  0
 21 19  1  0
 22 21  1  0
 22 28  1  0
 22 23  1  1
 24 25  1  0
 24 23  1  0
 25 26  1  0
 27 26  1  0
 28 29  1  0
 30 28  2  0
M  END
$$$$
