HHK.pdb
     RDKit          3D

 30 31  0  0  1  0  0  0  0  0999 V2000
   35.2311  -29.8294  -17.8681 N   0  0  0  0  0  0  0  0  0  0  0  0
   34.0828  -30.2885  -18.5868 C   0  0  1  0  0  0  0  0  0  0  0  0
   34.5525  -31.0604  -19.8004 C   0  0  0  0  0  0  0  0  0  0  0  0
   35.2544  -30.2018  -20.7604 C   0  0  0  0  0  0  0  0  0  0  0  0
   36.4640  -30.4475  -21.3812 C   0  0  0  0  0  0  0  0  0  0  0  0
   36.7728  -29.4202  -22.1928 N   0  0  0  0  0  0  0  0  0  0  0  0
   35.7800  -28.5258  -22.0984 C   0  0  0  0  0  0  0  0  0  0  0  0
   34.8486  -28.9934  -21.2268 N   0  0  0  0  0  0  0  0  0  0  0  0
   33.2337  -31.2260  -17.7655 C   0  0  0  0  0  0  0  0  0  0  0  0
   33.7859  -31.8239  -16.8250 O   0  0  0  0  0  0  0  0  0  0  0  0
   31.8859  -31.4293  -18.0308 N   0  0  0  0  0  0  0  0  0  0  0  0
   30.8815  -32.1663  -17.3640 C   0  0  1  0  0  0  0  0  0  0  0  0
   29.7125  -31.3896  -16.8110 C   0  0  0  0  0  0  0  0  0  0  0  0
   28.7977  -32.2006  -15.9921 C   0  0  0  0  0  0  0  0  0  0  0  0
   28.8693  -33.5598  -15.7928 C   0  0  0  0  0  0  0  0  0  0  0  0
   27.8201  -33.9514  -15.0462 N   0  0  0  0  0  0  0  0  0  0  0  0
   27.0840  -32.8657  -14.7680 C   0  0  0  0  0  0  0  0  0  0  0  0
   27.6936  -31.8042  -15.3525 N   0  0  0  0  0  0  0  0  0  0  0  0
   30.4490  -33.4150  -17.9757 C   0  0  0  0  0  0  0  0  0  0  0  0
   30.0066  -33.4710  -19.1737 O   0  0  0  0  0  0  0  0  0  0  0  0
   30.4901  -34.6530  -17.2874 N   0  0  0  0  0  0  0  0  0  0  0  0
   30.1060  -35.9073  -17.9244 C   0  0  1  0  0  0  0  0  0  0  0  0
   30.3577  -37.0602  -16.9764 C   0  0  0  0  0  0  0  0  0  0  0  0
   30.1266  -38.3864  -17.6309 C   0  0  0  0  0  0  0  0  0  0  0  0
   30.3931  -39.4757  -16.6119 C   0  0  0  0  0  0  0  0  0  0  0  0
   30.1990  -40.8086  -17.3047 C   0  0  0  0  0  0  0  0  0  0  0  0
   30.5258  -41.8740  -16.3719 N   0  0  0  0  0  0  0  0  0  0  0  0
   28.6438  -35.8446  -18.1734 C   0  0  0  0  0  0  0  0  0  0  0  0
   28.0558  -36.5400  -19.1992 O   0  0  0  0  0  0  0  0  0  0  0  0
   27.8774  -35.1493  -17.4532 O   0  0  0  0  0  0  0  0  0  0  0  0
  2  1  1  1
  2  3  1  0
  3  4  1  0
  4  5  2  0
  4  8  1  0
  5  6  1  0
  6  7  1  0
  8  7  2  0
  9  2  1  0
  9 10  2  0
 11  9  1  0
 12 11  1  0
 12 13  1  6
 14 13  1  0
 14 15  2  0
 16 15  1  0
 17 16  1  0
 18 17  2  0
 18 14  1  0
 19 12  1  0
 20 19  2  0
 21 19  1  0
 22 21  1  0
 22 28  1  0
 22 23  1  1
 24 25  1  0
 24 23  1  0
 25 26  1  0
 27 26  1  0
 28 29  1  0
 30 28  2  0
M  END
$$$$
