HHK.pdb
     RDKit          3D

 30 31  0  0  1  0  0  0  0  0999 V2000
   29.5870  -24.1074  -17.0062 N   0  0  0  0  0  0  0  0  0  0  0  0
   28.1585  -24.1733  -16.9764 C   0  0  1  0  0  0  0  0  0  0  0  0
   27.7497  -25.3508  -16.1188 C   0  0  0  0  0  0  0  0  0  0  0  0
   27.9561  -26.6299  -16.8065 C   0  0  0  0  0  0  0  0  0  0  0  0
   26.9931  -27.5418  -17.1940 C   0  0  0  0  0  0  0  0  0  0  0  0
   27.5804  -28.5910  -17.7968 N   0  0  0  0  0  0  0  0  0  0  0  0
   28.9002  -28.3616  -17.7992 C   0  0  0  0  0  0  0  0  0  0  0  0
   29.1397  -27.1673  -17.1972 N   0  0  0  0  0  0  0  0  0  0  0  0
   27.5439  -22.9411  -16.3611 C   0  0  0  0  0  0  0  0  0  0  0  0
   28.2939  -22.1887  -15.7144 O   0  0  0  0  0  0  0  0  0  0  0  0
   26.1956  -22.6386  -16.4982 N   0  0  0  0  0  0  0  0  0  0  0  0
   25.4298  -21.5054  -16.1432 C   0  0  1  0  0  0  0  0  0  0  0  0
   25.5454  -20.2922  -17.0321 C   0  0  0  0  0  0  0  0  0  0  0  0
   26.8795  -19.6716  -17.0153 C   0  0  0  0  0  0  0  0  0  0  0  0
   27.9425  -20.0444  -16.2259 C   0  0  0  0  0  0  0  0  0  0  0  0
   28.9674  -19.1983  -16.4389 N   0  0  0  0  0  0  0  0  0  0  0  0
   28.5743  -18.2954  -17.3489 C   0  0  0  0  0  0  0  0  0  0  0  0
   27.2969  -18.5974  -17.6914 N   0  0  0  0  0  0  0  0  0  0  0  0
   24.0526  -21.7309  -15.7273 C   0  0  0  0  0  0  0  0  0  0  0  0
   23.2782  -22.5418  -16.3411 O   0  0  0  0  0  0  0  0  0  0  0  0
   23.4766  -21.0697  -14.6141 N   0  0  0  0  0  0  0  0  0  0  0  0
   22.1116  -21.3359  -14.1752 C   0  0  1  0  0  0  0  0  0  0  0  0
   21.8465  -20.6214  -12.8675 C   0  0  0  0  0  0  0  0  0  0  0  0
   20.4216  -20.7604  -12.4302 C   0  0  0  0  0  0  0  0  0  0  0  0
   20.4062  -21.3044  -11.0160 C   0  0  0  0  0  0  0  0  0  0  0  0
   18.9579  -21.4819  -10.6093 C   0  0  0  0  0  0  0  0  0  0  0  0
   18.9047  -21.8046   -9.1934 N   0  0  0  0  0  0  0  0  0  0  0  0
   21.2009  -20.7558  -15.1942 C   0  0  0  0  0  0  0  0  0  0  0  0
   19.9981  -21.3386  -15.5026 O   0  0  0  0  0  0  0  0  0  0  0  0
   21.4926  -19.7017  -15.8213 O   0  0  0  0  0  0  0  0  0  0  0  0
  2  1  1  1
  2  3  1  0
  3  4  1  0
  4  5  2  0
  4  8  1  0
  5  6  1  0
  6  7  1  0
  8  7  2  0
  9  2  1  0
  9 10  2  0
 11  9  1  0
 12 11  1  0
 12 13  1  6
 14 13  1  0
 14 15  2  0
 16 15  1  0
 17 16  1  0
 18 17  2  0
 18 14  1  0
 19 12  1  0
 20 19  2  0
 21 19  1  0
 22 21  1  0
 22 28  1  0
 22 23  1  1
 24 25  1  0
 24 23  1  0
 25 26  1  0
 27 26  1  0
 28 29  1  0
 30 28  2  0
M  END
$$$$
