HHK.pdb
     RDKit          3D

 30 31  0  0  1  0  0  0  0  0999 V2000
   19.6768  -12.6921  -17.7252 N   0  0  0  0  0  0  0  0  0  0  0  0
   19.2894  -11.6418  -16.8349 C   0  0  1  0  0  0  0  0  0  0  0  0
   18.8330  -12.2605  -15.5318 C   0  0  0  0  0  0  0  0  0  0  0  0
   17.5841  -13.0137  -15.6884 C   0  0  0  0  0  0  0  0  0  0  0  0
   16.8369  -13.1741  -16.8394 C   0  0  0  0  0  0  0  0  0  0  0  0
   15.7585  -13.9337  -16.5765 N   0  0  0  0  0  0  0  0  0  0  0  0
   15.8074  -14.2589  -15.2779 C   0  0  0  0  0  0  0  0  0  0  0  0
   16.9177  -13.7022  -14.7270 N   0  0  0  0  0  0  0  0  0  0  0  0
   20.4363  -10.7178  -16.5102 C   0  0  0  0  0  0  0  0  0  0  0  0
   21.5768  -11.2125  -16.4699 O   0  0  0  0  0  0  0  0  0  0  0  0
   20.2498   -9.3643  -16.2624 N   0  0  0  0  0  0  0  0  0  0  0  0
   21.1509   -8.3075  -16.0021 C   0  0  1  0  0  0  0  0  0  0  0  0
   22.0657   -7.8921  -17.1273 C   0  0  0  0  0  0  0  0  0  0  0  0
   21.3543   -7.5049  -18.3558 C   0  0  0  0  0  0  0  0  0  0  0  0
   20.3376   -8.2038  -18.9642 C   0  0  0  0  0  0  0  0  0  0  0  0
   19.9904   -7.5749  -20.1024 N   0  0  0  0  0  0  0  0  0  0  0  0
   20.7680   -6.4897  -20.2275 C   0  0  0  0  0  0  0  0  0  0  0  0
   21.5958   -6.4604  -19.1533 N   0  0  0  0  0  0  0  0  0  0  0  0
   20.6381   -7.1522  -15.2793 C   0  0  0  0  0  0  0  0  0  0  0  0
   19.5992   -6.5133  -15.6624 O   0  0  0  0  0  0  0  0  0  0  0  0
   21.2526   -6.6577  -14.1020 N   0  0  0  0  0  0  0  0  0  0  0  0
   20.6883   -5.5501  -13.3394 C   0  0  1  0  0  0  0  0  0  0  0  0
   20.1025   -6.0679  -12.0434 C   0  0  0  0  0  0  0  0  0  0  0  0
   18.9013   -5.2832  -11.6167 C   0  0  0  0  0  0  0  0  0  0  0  0
   18.3260   -5.9281  -10.3720 C   0  0  0  0  0  0  0  0  0  0  0  0
   17.1103   -5.1240   -9.9597 C   0  0  0  0  0  0  0  0  0  0  0  0
   16.5305   -5.7267   -8.7712 N   0  0  0  0  0  0  0  0  0  0  0  0
   21.8082   -4.6397  -12.9915 C   0  0  0  0  0  0  0  0  0  0  0  0
   21.5884   -3.3512  -12.5759 O   0  0  0  0  0  0  0  0  0  0  0  0
   23.0111   -5.0105  -13.0627 O   0  0  0  0  0  0  0  0  0  0  0  0
  2  1  1  6
  2  3  1  0
  3  4  1  0
  4  5  2  0
  4  8  1  0
  5  6  1  0
  6  7  1  0
  8  7  2  0
  9  2  1  0
  9 10  2  0
 11  9  1  0
 12 11  1  0
 12 13  1  6
 14 13  1  0
 14 15  2  0
 16 15  1  0
 17 16  1  0
 18 17  2  0
 18 14  1  0
 19 12  1  0
 20 19  2  0
 21 19  1  0
 22 21  1  0
 22 28  1  0
 22 23  1  1
 24 25  1  0
 24 23  1  0
 25 26  1  0
 27 26  1  0
 28 29  1  0
 30 28  2  0
M  END
$$$$
