QFL.pdb
     RDKit          3D

 29 29  0  0  1  0  0  0  0  0999 V2000
   28.0641  -18.6240  -13.5770 N   0  0  0  0  0  0  0  0  0  0  0  0
   29.1342  -19.2617  -14.2839 C   0  0  0  0  0  0  0  0  0  0  0  0
   29.7857  -18.5717  -15.1316 O   0  0  0  0  0  0  0  0  0  0  0  0
   29.4563  -20.6862  -14.0197 C   0  0  0  0  0  0  0  0  0  0  0  0
   28.5797  -21.1920  -12.9139 C   0  0  0  0  0  0  0  0  0  0  0  0
   29.2761  -21.0613  -11.5846 C   0  0  2  0  0  0  0  0  0  0  0  0
   30.4008  -21.9552  -11.4457 N   0  0  0  0  0  0  0  0  0  0  0  0
   28.3270  -21.2995  -10.4694 C   0  0  0  0  0  0  0  0  0  0  0  0
   27.8685  -22.4487  -10.2508 O   0  0  0  0  0  0  0  0  0  0  0  0
   27.8919  -20.2609   -9.6031 N   0  0  0  0  0  0  0  0  0  0  0  0
   26.5682  -20.2473   -8.9809 C   0  0  1  0  0  0  0  0  0  0  0  0
   26.5503  -19.2505   -7.8707 C   0  0  0  0  0  0  0  0  0  0  0  0
   27.3276  -19.6613   -6.6764 C   0  0  0  0  0  0  0  0  0  0  0  0
   28.4237  -18.9133   -6.2308 C   0  0  0  0  0  0  0  0  0  0  0  0
   29.1520  -19.2812   -5.1225 C   0  0  0  0  0  0  0  0  0  0  0  0
   28.8272  -20.4098   -4.4028 C   0  0  0  0  0  0  0  0  0  0  0  0
   27.7567  -21.1589   -4.8206 C   0  0  0  0  0  0  0  0  0  0  0  0
   27.0468  -20.7779   -5.9218 C   0  0  0  0  0  0  0  0  0  0  0  0
   25.5115  -20.1246   -9.9803 C   0  0  0  0  0  0  0  0  0  0  0  0
   25.8153  -19.6777  -11.1162 O   0  0  0  0  0  0  0  0  0  0  0  0
   22.9034  -20.6314  -13.9057 C   0  0  0  0  0  0  0  0  0  0  0  0
   22.5486  -21.7778  -12.9658 C   0  0  1  0  0  0  0  0  0  0  0  0
   22.8463  -23.0632  -13.7181 C   0  0  0  0  0  0  0  0  0  0  0  0
   23.5263  -21.7031  -11.8130 C   0  0  0  0  0  0  0  0  0  0  0  0
   23.2425  -20.5619  -10.8789 C   0  0  2  0  0  0  0  0  0  0  0  0
   24.1520  -20.4712   -9.7771 N   0  0  0  0  0  0  0  0  0  0  0  0
   21.8266  -20.6981  -10.4336 C   0  0  0  0  0  0  0  0  0  0  0  0
   21.5025  -21.2105   -9.3411 O   0  0  0  0  0  0  0  0  0  0  0  0
   20.8421  -20.2331  -11.2762 O   0  0  0  0  0  0  0  0  0  0  0  0
  2  1  1  0
  2  3  2  0
  4  2  1  0
  5  4  1  0
  6  7  1  6
  6  5  1  0
  8  6  1  0
  8 10  1  0
  9  8  2  0
 11 10  1  0
 12 13  1  0
 11 12  1  1
 13 18  2  0
 14 13  1  0
 14 15  2  0
 15 16  1  0
 16 17  2  0
 18 17  1  0
 19 11  1  0
 20 19  2  0
 22 21  1  6
 22 24  1  0
 23 22  1  0
 25 24  1  1
 25 26  1  0
 25 27  1  0
 26 19  1  0
 27 29  1  0
 28 27  2  0
M  END
$$$$
