QFL.pdb
     RDKit          3D

 29 29  0  0  1  0  0  0  0  0999 V2000
   14.3835  -20.3338    6.2761 N   0  0  0  0  0  0  0  0  0  0  0  0
   14.1128  -21.3952    5.3533 C   0  0  0  0  0  0  0  0  0  0  0  0
   13.0615  -22.0896    5.5324 O   0  0  0  0  0  0  0  0  0  0  0  0
   15.0444  -21.6597    4.2287 C   0  0  0  0  0  0  0  0  0  0  0  0
   16.2168  -20.7314    4.3321 C   0  0  0  0  0  0  0  0  0  0  0  0
   16.0899  -19.6059    3.3391 C   0  0  2  0  0  0  0  0  0  0  0  0
   16.2967  -20.0300    1.9750 N   0  0  0  0  0  0  0  0  0  0  0  0
   17.0440  -18.5152    3.6575 C   0  0  0  0  0  0  0  0  0  0  0  0
   18.1391  -18.4219    3.0487 O   0  0  0  0  0  0  0  0  0  0  0  0
   16.7773  -17.5342    4.6500 N   0  0  0  0  0  0  0  0  0  0  0  0
   17.7073  -16.4503    4.9661 C   0  0  1  0  0  0  0  0  0  0  0  0
   17.0484  -15.1372    4.7050 C   0  0  0  0  0  0  0  0  0  0  0  0
   17.9064  -13.9622    4.9924 C   0  0  0  0  0  0  0  0  0  0  0  0
   18.8654  -13.5213    4.0729 C   0  0  0  0  0  0  0  0  0  0  0  0
   19.6662  -12.4308    4.3252 C   0  0  0  0  0  0  0  0  0  0  0  0
   19.5537  -11.7252    5.5028 C   0  0  0  0  0  0  0  0  0  0  0  0
   18.6206  -12.1389    6.4193 C   0  0  0  0  0  0  0  0  0  0  0  0
   17.8358  -13.2223    6.1511 C   0  0  0  0  0  0  0  0  0  0  0  0
   18.3013  -16.6270    6.2875 C   0  0  0  0  0  0  0  0  0  0  0  0
   17.5418  -16.9143    7.2482 O   0  0  0  0  0  0  0  0  0  0  0  0
   22.2029  -18.0571    9.7340 C   0  0  0  0  0  0  0  0  0  0  0  0
   22.1210  -16.5533    9.4986 C   0  0  1  0  0  0  0  0  0  0  0  0
   23.5452  -16.0281    9.5508 C   0  0  0  0  0  0  0  0  0  0  0  0
   21.6333  -16.3694    8.0777 C   0  0  0  0  0  0  0  0  0  0  0  0
   20.1570  -16.6032    7.9317 C   0  0  2  0  0  0  0  0  0  0  0  0
   19.6816  -16.5006    6.5852 N   0  0  0  0  0  0  0  0  0  0  0  0
   19.4670  -15.6524    8.8490 C   0  0  0  0  0  0  0  0  0  0  0  0
   19.2986  -14.4446    8.5770 O   0  0  0  0  0  0  0  0  0  0  0  0
   18.9995  -16.1430   10.0473 O   0  0  0  0  0  0  0  0  0  0  0  0
  2  1  1  0
  2  3  2  0
  4  2  1  0
  5  4  1  0
  6  7  1  6
  6  5  1  0
  8  6  1  0
  8 10  1  0
  9  8  2  0
 11 10  1  0
 12 13  1  0
 11 12  1  1
 13 18  2  0
 14 13  1  0
 14 15  2  0
 15 16  1  0
 16 17  2  0
 18 17  1  0
 19 11  1  0
 20 19  2  0
 22 21  1  6
 22 24  1  0
 23 22  1  0
 25 24  1  6
 25 26  1  0
 25 27  1  0
 26 19  1  0
 27 29  1  0
 28 27  2  0
M  END
$$$$
