QFL.pdb
     RDKit          3D

 29 29  0  0  1  0  0  0  0  0999 V2000
   23.6470  -24.4412  -16.8191 N   0  0  0  0  0  0  0  0  0  0  0  0
   24.3614  -25.3001  -15.9228 C   0  0  0  0  0  0  0  0  0  0  0  0
   23.7600  -25.7071  -14.8779 O   0  0  0  0  0  0  0  0  0  0  0  0
   25.7611  -25.6913  -16.2237 C   0  0  0  0  0  0  0  0  0  0  0  0
   26.2055  -25.0028  -17.4789 C   0  0  0  0  0  0  0  0  0  0  0  0
   27.5826  -24.4182  -17.3028 C   0  0  2  0  0  0  0  0  0  0  0  0
   28.5154  -25.3408  -16.7012 N   0  0  0  0  0  0  0  0  0  0  0  0
   27.5270  -23.1822  -16.4840 C   0  0  0  0  0  0  0  0  0  0  0  0
   28.1344  -23.1112  -15.3864 O   0  0  0  0  0  0  0  0  0  0  0  0
   26.7976  -22.0319  -16.8879 N   0  0  0  0  0  0  0  0  0  0  0  0
   26.7716  -20.7936  -16.1097 C   0  0  1  0  0  0  0  0  0  0  0  0
   26.4644  -19.6453  -17.0117 C   0  0  0  0  0  0  0  0  0  0  0  0
   26.4968  -18.3233  -16.3403 C   0  0  0  0  0  0  0  0  0  0  0  0
   27.0619  -18.1682  -15.0690 C   0  0  0  0  0  0  0  0  0  0  0  0
   27.1013  -16.9470  -14.4356 C   0  0  0  0  0  0  0  0  0  0  0  0
   26.5815  -15.8204  -15.0339 C   0  0  0  0  0  0  0  0  0  0  0  0
   26.0225  -15.9480  -16.2800 C   0  0  0  0  0  0  0  0  0  0  0  0
   25.9927  -17.1671  -16.8919 C   0  0  0  0  0  0  0  0  0  0  0  0
   25.9334  -20.9285  -14.9224 C   0  0  0  0  0  0  0  0  0  0  0  0
   24.8033  -21.4662  -15.0494 O   0  0  0  0  0  0  0  0  0  0  0  0
   26.6534  -20.8357   -8.9520 C   0  0  0  0  0  0  0  0  0  0  0  0
   25.8887  -21.3355  -10.1723 C   0  0  1  0  0  0  0  0  0  0  0  0
   24.4366  -21.4714   -9.7482 C   0  0  0  0  0  0  0  0  0  0  0  0
   25.9481  -20.2242  -11.1980 C   0  0  0  0  0  0  0  0  0  0  0  0
   25.3729  -20.6239  -12.5265 C   0  0  2  0  0  0  0  0  0  0  0  0
   26.2894  -20.4988  -13.6192 N   0  0  0  0  0  0  0  0  0  0  0  0
   24.1354  -19.8189  -12.7315 C   0  0  0  0  0  0  0  0  0  0  0  0
   24.1204  -18.7422  -13.3652 O   0  0  0  0  0  0  0  0  0  0  0  0
   22.9628  -20.2973  -12.1916 O   0  0  0  0  0  0  0  0  0  0  0  0
  2  1  1  0
  2  3  2  0
  4  2  1  0
  5  4  1  0
  6  7  1  1
  6  5  1  0
  8  6  1  0
  8 10  1  0
  9  8  2  0
 11 10  1  0
 12 13  1  0
 11 12  1  6
 13 18  2  0
 14 13  1  0
 14 15  2  0
 15 16  1  0
 16 17  2  0
 18 17  1  0
 19 11  1  0
 20 19  2  0
 22 21  1  1
 22 24  1  0
 23 22  1  0
 25 24  1  1
 25 26  1  0
 25 27  1  0
 26 19  1  0
 27 29  1  0
 28 27  2  0
M  END
$$$$
