QFL.pdb
     RDKit          3D

 29 29  0  0  1  0  0  0  0  0999 V2000
   27.9412  -22.2267  -20.5179 N   0  0  0  0  0  0  0  0  0  0  0  0
   28.0141  -20.7975  -20.4580 C   0  0  0  0  0  0  0  0  0  0  0  0
   28.7148  -20.1972  -21.3344 O   0  0  0  0  0  0  0  0  0  0  0  0
   27.2858  -20.0588  -19.3966 C   0  0  0  0  0  0  0  0  0  0  0  0
   26.5734  -21.0395  -18.5148 C   0  0  0  0  0  0  0  0  0  0  0  0
   27.4816  -21.5163  -17.4116 C   0  0  2  0  0  0  0  0  0  0  0  0
   28.1852  -22.7318  -17.7447 N   0  0  0  0  0  0  0  0  0  0  0  0
   26.7178  -21.7265  -16.1572 C   0  0  0  0  0  0  0  0  0  0  0  0
   25.9922  -22.7416  -16.0098 O   0  0  0  0  0  0  0  0  0  0  0  0
   26.7634  -20.8090  -15.0735 N   0  0  0  0  0  0  0  0  0  0  0  0
   26.0551  -21.0317  -13.8132 C   0  0  1  0  0  0  0  0  0  0  0  0
   26.7585  -20.3102  -12.7127 C   0  0  0  0  0  0  0  0  0  0  0  0
   26.0951  -20.4276  -11.3916 C   0  0  0  0  0  0  0  0  0  0  0  0
   26.4348  -21.4491  -10.4968 C   0  0  0  0  0  0  0  0  0  0  0  0
   25.8294  -21.5682   -9.2665 C   0  0  0  0  0  0  0  0  0  0  0  0
   24.8573  -20.6787   -8.8650 C   0  0  0  0  0  0  0  0  0  0  0  0
   24.5078  -19.6691   -9.7254 C   0  0  0  0  0  0  0  0  0  0  0  0
   25.1193  -19.5675  -10.9409 C   0  0  0  0  0  0  0  0  0  0  0  0
   24.6262  -20.7691  -13.9520 C   0  0  0  0  0  0  0  0  0  0  0  0
   24.2675  -19.6531  -14.4084 O   0  0  0  0  0  0  0  0  0  0  0  0
   21.8721  -21.5173  -16.4948 C   0  0  0  0  0  0  0  0  0  0  0  0
   20.6999  -21.8201  -15.5685 C   0  0  1  0  0  0  0  0  0  0  0  0
   19.9661  -23.0055  -16.1712 C   0  0  0  0  0  0  0  0  0  0  0  0
   21.2994  -22.2893  -14.2605 C   0  0  0  0  0  0  0  0  0  0  0  0
   22.2189  -21.2756  -13.6421 C   0  0  2  0  0  0  0  0  0  0  0  0
   23.5926  -21.6776  -13.6114 N   0  0  0  0  0  0  0  0  0  0  0  0
   21.6886  -20.9702  -12.2831 C   0  0  0  0  0  0  0  0  0  0  0  0
   22.2786  -21.2993  -11.2320 O   0  0  0  0  0  0  0  0  0  0  0  0
   20.4926  -20.2937  -12.1989 O   0  0  0  0  0  0  0  0  0  0  0  0
  2  1  1  0
  2  3  2  0
  4  2  1  0
  5  4  1  0
  6  7  1  6
  6  5  1  0
  8  6  1  0
  8 10  1  0
  9  8  2  0
 11 10  1  0
 12 13  1  0
 11 12  1  1
 13 18  2  0
 14 13  1  0
 14 15  2  0
 15 16  1  0
 16 17  2  0
 18 17  1  0
 19 11  1  0
 20 19  2  0
 22 21  1  6
 22 24  1  0
 23 22  1  0
 25 24  1  1
 25 26  1  0
 25 27  1  0
 26 19  1  0
 27 29  1  0
 28 27  2  0
M  END
$$$$
