QFL.pdb
     RDKit          3D

 29 29  0  0  1  0  0  0  0  0999 V2000
   22.6848  -22.1665  -14.4165 N   0  0  0  0  0  0  0  0  0  0  0  0
   22.8814  -20.7674  -14.6516 C   0  0  0  0  0  0  0  0  0  0  0  0
   22.3215  -20.2476  -15.6693 O   0  0  0  0  0  0  0  0  0  0  0  0
   23.7174  -19.9666  -13.7229 C   0  0  0  0  0  0  0  0  0  0  0  0
   24.1838  -20.8436  -12.6002 C   0  0  0  0  0  0  0  0  0  0  0  0
   25.6629  -20.6711  -12.3732 C   0  0  2  0  0  0  0  0  0  0  0  0
   26.4679  -21.4945  -13.2434 N   0  0  0  0  0  0  0  0  0  0  0  0
   26.0153  -20.9674  -10.9628 C   0  0  0  0  0  0  0  0  0  0  0  0
   25.9980  -22.1472  -10.5309 O   0  0  0  0  0  0  0  0  0  0  0  0
   26.3850  -19.9528  -10.0396 N   0  0  0  0  0  0  0  0  0  0  0  0
   26.8157  -20.2414   -8.6719 C   0  0  1  0  0  0  0  0  0  0  0  0
   27.7839  -19.1979   -8.2243 C   0  0  0  0  0  0  0  0  0  0  0  0
   28.3267  -19.4208   -6.8623 C   0  0  0  0  0  0  0  0  0  0  0  0
   29.1148  -20.5399   -6.5690 C   0  0  0  0  0  0  0  0  0  0  0  0
   29.6274  -20.7577   -5.3105 C   0  0  0  0  0  0  0  0  0  0  0  0
   29.3825  -19.8748   -4.2820 C   0  0  0  0  0  0  0  0  0  0  0  0
   28.6125  -18.7705   -4.5458 C   0  0  0  0  0  0  0  0  0  0  0  0
   28.1132  -18.5718   -5.7999 C   0  0  0  0  0  0  0  0  0  0  0  0
   25.6750  -20.4870   -7.7952 C   0  0  0  0  0  0  0  0  0  0  0  0
   24.7229  -19.6650   -7.8124 O   0  0  0  0  0  0  0  0  0  0  0  0
   21.9910  -23.2003   -5.1567 C   0  0  0  0  0  0  0  0  0  0  0  0
   23.2211  -23.0274   -4.2733 C   0  0  1  0  0  0  0  0  0  0  0  0
   23.3659  -24.3118   -3.4756 C   0  0  0  0  0  0  0  0  0  0  0  0
   24.4099  -22.9499   -5.2067 C   0  0  0  0  0  0  0  0  0  0  0  0
   24.4610  -21.6648   -5.9823 C   0  0  2  0  0  0  0  0  0  0  0  0
   25.5464  -21.5890   -6.9127 N   0  0  0  0  0  0  0  0  0  0  0  0
   24.4872  -20.5521   -4.9910 C   0  0  0  0  0  0  0  0  0  0  0  0
   23.5092  -19.8031   -4.7819 O   0  0  0  0  0  0  0  0  0  0  0  0
   25.6499  -20.3534   -4.2811 O   0  0  0  0  0  0  0  0  0  0  0  0
  2  1  1  0
  2  3  2  0
  4  2  1  0
  5  4  1  0
  6  7  1  6
  6  5  1  0
  8  6  1  0
  8 10  1  0
  9  8  2  0
 11 10  1  0
 12 13  1  0
 11 12  1  1
 13 18  2  0
 14 13  1  0
 14 15  2  0
 15 16  1  0
 16 17  2  0
 18 17  1  0
 19 11  1  0
 20 19  2  0
 22 21  1  6
 22 24  1  0
 23 22  1  0
 25 24  1  1
 25 26  1  0
 25 27  1  0
 26 19  1  0
 27 29  1  0
 28 27  2  0
M  END
$$$$
