QFL.pdb
     RDKit          3D

 29 29  0  0  1  0  0  0  0  0999 V2000
   26.7810  -35.0167   -4.7461 N   0  0  0  0  0  0  0  0  0  0  0  0
   25.5990  -35.8253   -4.7195 C   0  0  0  0  0  0  0  0  0  0  0  0
   25.5890  -36.8926   -5.4124 O   0  0  0  0  0  0  0  0  0  0  0  0
   24.4321  -35.4114   -3.9011 C   0  0  0  0  0  0  0  0  0  0  0  0
   24.7486  -34.1188   -3.2112 C   0  0  0  0  0  0  0  0  0  0  0  0
   23.8869  -33.0067   -3.7496 C   0  0  2  0  0  0  0  0  0  0  0  0
   24.4075  -32.4260   -4.9641 N   0  0  0  0  0  0  0  0  0  0  0  0
   23.7160  -31.9374   -2.7354 C   0  0  0  0  0  0  0  0  0  0  0  0
   24.7138  -31.3508   -2.2466 O   0  0  0  0  0  0  0  0  0  0  0  0
   22.4388  -31.5252   -2.2694 N   0  0  0  0  0  0  0  0  0  0  0  0
   22.2532  -30.4084   -1.3432 C   0  0  1  0  0  0  0  0  0  0  0  0
   20.9386  -29.7544   -1.6092 C   0  0  0  0  0  0  0  0  0  0  0  0
   20.6304  -28.6241   -0.6999 C   0  0  0  0  0  0  0  0  0  0  0  0
   19.8715  -28.8124    0.4611 C   0  0  0  0  0  0  0  0  0  0  0  0
   19.5805  -27.7733    1.3153 C   0  0  0  0  0  0  0  0  0  0  0  0
   20.0290  -26.4966    1.0580 C   0  0  0  0  0  0  0  0  0  0  0  0
   20.7747  -26.2878   -0.0742 C   0  0  0  0  0  0  0  0  0  0  0  0
   21.0529  -27.3306   -0.9088 C   0  0  0  0  0  0  0  0  0  0  0  0
   22.5100  -30.8121    0.0357 C   0  0  0  0  0  0  0  0  0  0  0  0
   22.1664  -31.9687    0.3913 O   0  0  0  0  0  0  0  0  0  0  0  0
   25.1942  -32.5684    3.7793 C   0  0  0  0  0  0  0  0  0  0  0  0
   25.1000  -31.0772    4.0810 C   0  0  1  0  0  0  0  0  0  0  0  0
   26.4839  -30.6364    4.5251 C   0  0  0  0  0  0  0  0  0  0  0  0
   24.8194  -30.3914    2.7613 C   0  0  0  0  0  0  0  0  0  0  0  0
   23.3838  -30.5076    2.3359 C   0  0  2  0  0  0  0  0  0  0  0  0
   23.1225  -30.0000    1.0231 N   0  0  0  0  0  0  0  0  0  0  0  0
   22.5591  -29.8324    3.3778 C   0  0  0  0  0  0  0  0  0  0  0  0
   22.1314  -30.4197    4.3943 O   0  0  0  0  0  0  0  0  0  0  0  0
   22.2635  -28.5000    3.1972 O   0  0  0  0  0  0  0  0  0  0  0  0
  2  1  1  0
  2  3  2  0
  4  2  1  0
  5  4  1  0
  6  7  1  6
  6  5  1  0
  8  6  1  0
  8 10  1  0
  9  8  2  0
 11 10  1  0
 12 13  1  0
 11 12  1  1
 13 18  2  0
 14 13  1  0
 14 15  2  0
 15 16  1  0
 16 17  2  0
 18 17  1  0
 19 11  1  0
 20 19  2  0
 22 21  1  6
 22 24  1  0
 23 22  1  0
 25 24  1  1
 25 26  1  0
 25 27  1  0
 26 19  1  0
 27 29  1  0
 28 27  2  0
M  END
$$$$
