QFL.pdb
     RDKit          3D

 29 29  0  0  1  0  0  0  0  0999 V2000
   27.1198  -19.7063  -18.6403 N   0  0  0  0  0  0  0  0  0  0  0  0
   27.2803  -20.6111  -19.7390 C   0  0  0  0  0  0  0  0  0  0  0  0
   27.9502  -20.2158  -20.7461 O   0  0  0  0  0  0  0  0  0  0  0  0
   26.6746  -21.9649  -19.6831 C   0  0  0  0  0  0  0  0  0  0  0  0
   26.0082  -22.1514  -18.3535 C   0  0  0  0  0  0  0  0  0  0  0  0
   27.0327  -22.4092  -17.2796 C   0  0  2  0  0  0  0  0  0  0  0  0
   27.7696  -23.6333  -17.4838 N   0  0  0  0  0  0  0  0  0  0  0  0
   26.3923  -22.4464  -15.9417 C   0  0  0  0  0  0  0  0  0  0  0  0
   25.5764  -23.3547  -15.6455 O   0  0  0  0  0  0  0  0  0  0  0  0
   26.6611  -21.4753  -14.9402 N   0  0  0  0  0  0  0  0  0  0  0  0
   25.9595  -21.4417  -13.6572 C   0  0  1  0  0  0  0  0  0  0  0  0
   26.7878  -20.7081  -12.6560 C   0  0  0  0  0  0  0  0  0  0  0  0
   26.1731  -20.6218  -11.3091 C   0  0  0  0  0  0  0  0  0  0  0  0
   26.2512  -21.6882  -10.4057 C   0  0  0  0  0  0  0  0  0  0  0  0
   25.6880  -21.6207   -9.1518 C   0  0  0  0  0  0  0  0  0  0  0  0
   25.0199  -20.4910   -8.7340 C   0  0  0  0  0  0  0  0  0  0  0  0
   24.9304  -19.4329   -9.6024 C   0  0  0  0  0  0  0  0  0  0  0  0
   25.4952  -19.5187  -10.8414 C   0  0  0  0  0  0  0  0  0  0  0  0
   24.5811  -20.9888  -13.8159 C   0  0  0  0  0  0  0  0  0  0  0  0
   24.3766  -19.9039  -14.4189 O   0  0  0  0  0  0  0  0  0  0  0  0
   20.4605  -23.3550  -15.9941 C   0  0  0  0  0  0  0  0  0  0  0  0
   21.4799  -22.3214  -15.5292 C   0  0  1  0  0  0  0  0  0  0  0  0
   21.2447  -21.0746  -16.3640 C   0  0  0  0  0  0  0  0  0  0  0  0
   21.1152  -21.9738  -14.1021 C   0  0  0  0  0  0  0  0  0  0  0  0
   22.1330  -21.0923  -13.4370 C   0  0  2  0  0  0  0  0  0  0  0  0
   23.4363  -21.6771  -13.3414 N   0  0  0  0  0  0  0  0  0  0  0  0
   21.5843  -20.7129  -12.1041 C   0  0  0  0  0  0  0  0  0  0  0  0
   21.7907  -21.3797  -11.0678 O   0  0  0  0  0  0  0  0  0  0  0  0
   20.8167  -19.5726  -12.0279 O   0  0  0  0  0  0  0  0  0  0  0  0
  2  1  1  0
  2  3  2  0
  4  2  1  0
  5  4  1  0
  6  7  1  6
  6  5  1  0
  8  6  1  0
  8 10  1  0
  9  8  2  0
 11 10  1  0
 12 13  1  0
 11 12  1  1
 13 18  2  0
 14 13  1  0
 14 15  2  0
 15 16  1  0
 16 17  2  0
 18 17  1  0
 19 11  1  0
 20 19  2  0
 22 21  1  6
 22 24  1  0
 23 22  1  0
 25 24  1  1
 25 26  1  0
 25 27  1  0
 26 19  1  0
 27 29  1  0
 28 27  2  0
M  END
$$$$
