QFL.pdb
     RDKit          3D

 29 29  0  0  1  0  0  0  0  0999 V2000
   20.7739  -21.4369  -15.9926 N   0  0  0  0  0  0  0  0  0  0  0  0
   19.7983  -21.5501  -14.9501 C   0  0  0  0  0  0  0  0  0  0  0  0
   18.5703  -21.4429  -15.2661 O   0  0  0  0  0  0  0  0  0  0  0  0
   20.2293  -21.7857  -13.5495 C   0  0  0  0  0  0  0  0  0  0  0  0
   21.7268  -21.8248  -13.4955 C   0  0  0  0  0  0  0  0  0  0  0  0
   22.2211  -21.3361  -12.1591 C   0  0  2  0  0  0  0  0  0  0  0  0
   21.2747  -20.4793  -11.4855 N   0  0  0  0  0  0  0  0  0  0  0  0
   23.5084  -20.6137  -12.3081 C   0  0  0  0  0  0  0  0  0  0  0  0
   23.5301  -19.3695  -12.4818 O   0  0  0  0  0  0  0  0  0  0  0  0
   24.7644  -21.2762  -12.2634 N   0  0  0  0  0  0  0  0  0  0  0  0
   26.0381  -20.5771  -12.4325 C   0  0  1  0  0  0  0  0  0  0  0  0
   26.9871  -21.0065  -11.3641 C   0  0  0  0  0  0  0  0  0  0  0  0
   26.5199  -20.7149   -9.9871 C   0  0  0  0  0  0  0  0  0  0  0  0
   26.0349  -21.7305   -9.1547 C   0  0  0  0  0  0  0  0  0  0  0  0
   25.6009  -21.4747   -7.8739 C   0  0  0  0  0  0  0  0  0  0  0  0
   25.6274  -20.1980   -7.3575 C   0  0  0  0  0  0  0  0  0  0  0  0
   26.0987  -19.1863   -8.1550 C   0  0  0  0  0  0  0  0  0  0  0  0
   26.5245  -19.4596   -9.4221 C   0  0  0  0  0  0  0  0  0  0  0  0
   26.5205  -20.6744  -13.8065 C   0  0  0  0  0  0  0  0  0  0  0  0
   27.5806  -20.0688  -14.1097 O   0  0  0  0  0  0  0  0  0  0  0  0
   27.0216  -25.1780  -16.7246 C   0  0  0  0  0  0  0  0  0  0  0  0
   27.1941  -23.8527  -15.9914 C   0  0  1  0  0  0  0  0  0  0  0  0
   28.6633  -23.4837  -16.1027 C   0  0  0  0  0  0  0  0  0  0  0  0
   26.4179  -22.8225  -16.7831 C   0  0  0  0  0  0  0  0  0  0  0  0
   26.4528  -21.4574  -16.1580 C   0  0  2  0  0  0  0  0  0  0  0  0
   25.8872  -21.4039  -14.8440 N   0  0  0  0  0  0  0  0  0  0  0  0
   25.7781  -20.5225  -17.1026 C   0  0  0  0  0  0  0  0  0  0  0  0
   26.2657  -20.2004  -18.2070 O   0  0  0  0  0  0  0  0  0  0  0  0
   24.5620  -19.9981  -16.7263 O   0  0  0  0  0  0  0  0  0  0  0  0
  2  1  1  0
  2  3  2  0
  4  2  1  0
  5  4  1  0
  6  7  1  6
  6  5  1  0
  8  6  1  0
  8 10  1  0
  9  8  2  0
 11 10  1  0
 12 13  1  0
 11 12  1  1
 13 18  2  0
 14 13  1  0
 14 15  2  0
 15 16  1  0
 16 17  2  0
 18 17  1  0
 19 11  1  0
 20 19  2  0
 22 21  1  6
 22 24  1  0
 23 22  1  0
 25 24  1  6
 25 26  1  0
 25 27  1  0
 26 19  1  0
 27 29  1  0
 28 27  2  0
M  END
$$$$
