QFL.pdb
     RDKit          3D

 29 29  0  0  1  0  0  0  0  0999 V2000
   28.0386  -17.9353  -17.1038 N   0  0  0  0  0  0  0  0  0  0  0  0
   27.9207  -19.3581  -16.9898 C   0  0  0  0  0  0  0  0  0  0  0  0
   26.9451  -19.9263  -17.5769 O   0  0  0  0  0  0  0  0  0  0  0  0
   28.9183  -20.1273  -16.2049 C   0  0  0  0  0  0  0  0  0  0  0  0
   28.2099  -20.9087  -15.1398 C   0  0  0  0  0  0  0  0  0  0  0  0
   27.4084  -19.9907  -14.2544 C   0  0  2  0  0  0  0  0  0  0  0  0
   28.2272  -19.0515  -13.5258 N   0  0  0  0  0  0  0  0  0  0  0  0
   26.5922  -20.7707  -13.2919 C   0  0  0  0  0  0  0  0  0  0  0  0
   26.1450  -21.9038  -13.5996 O   0  0  0  0  0  0  0  0  0  0  0  0
   26.2767  -20.2888  -11.9932 N   0  0  0  0  0  0  0  0  0  0  0  0
   25.3175  -20.9523  -11.1105 C   0  0  1  0  0  0  0  0  0  0  0  0
   25.4608  -20.4149   -9.7259 C   0  0  0  0  0  0  0  0  0  0  0  0
   26.8388  -20.4987   -9.1842 C   0  0  0  0  0  0  0  0  0  0  0  0
   27.2320  -19.7353   -8.0787 C   0  0  0  0  0  0  0  0  0  0  0  0
   28.5064  -19.8053   -7.5638 C   0  0  0  0  0  0  0  0  0  0  0  0
   29.4523  -20.6368   -8.1217 C   0  0  0  0  0  0  0  0  0  0  0  0
   29.0899  -21.3947   -9.2061 C   0  0  0  0  0  0  0  0  0  0  0  0
   27.8216  -21.3115   -9.7023 C   0  0  0  0  0  0  0  0  0  0  0  0
   23.9725  -20.9354  -11.6772 C   0  0  0  0  0  0  0  0  0  0  0  0
   23.1389  -21.7786  -11.2573 O   0  0  0  0  0  0  0  0  0  0  0  0
   19.5855  -18.2264  -13.4709 C   0  0  0  0  0  0  0  0  0  0  0  0
   20.3722  -18.9880  -14.5314 C   0  0  1  0  0  0  0  0  0  0  0  0
   20.2794  -18.1723  -15.8092 C   0  0  0  0  0  0  0  0  0  0  0  0
   21.8202  -18.9588  -14.0919 C   0  0  0  0  0  0  0  0  0  0  0  0
   22.1513  -20.0358  -13.0989 C   0  0  2  0  0  0  0  0  0  0  0  0
   23.5188  -20.0366  -12.6752 N   0  0  0  0  0  0  0  0  0  0  0  0
   21.7467  -21.3353  -13.7063 C   0  0  0  0  0  0  0  0  0  0  0  0
   20.6410  -21.8744  -13.4877 O   0  0  0  0  0  0  0  0  0  0  0  0
   22.6439  -21.9579  -14.5448 O   0  0  0  0  0  0  0  0  0  0  0  0
  2  1  1  0
  2  3  2  0
  4  2  1  0
  5  4  1  0
  6  7  1  1
  6  5  1  0
  8  6  1  0
  8 10  1  0
  9  8  2  0
 11 10  1  0
 12 13  1  0
 11 12  1  1
 13 18  2  0
 14 13  1  0
 14 15  2  0
 15 16  1  0
 16 17  2  0
 18 17  1  0
 19 11  1  0
 20 19  2  0
 22 21  1  1
 22 24  1  0
 23 22  1  0
 25 24  1  6
 25 26  1  0
 25 27  1  0
 26 19  1  0
 27 29  1  0
 28 27  2  0
M  END
$$$$
