QFL.pdb
     RDKit          3D

 29 29  0  0  1  0  0  0  0  0999 V2000
   28.0515  -17.6977  -17.4391 N   0  0  0  0  0  0  0  0  0  0  0  0
   28.3094  -18.2312  -18.7431 C   0  0  0  0  0  0  0  0  0  0  0  0
   29.0738  -17.5724  -19.5183 O   0  0  0  0  0  0  0  0  0  0  0  0
   27.6927  -19.5161  -19.1570 C   0  0  0  0  0  0  0  0  0  0  0  0
   26.9073  -20.0771  -18.0101 C   0  0  0  0  0  0  0  0  0  0  0  0
   27.7653  -20.9962  -17.1804 C   0  0  2  0  0  0  0  0  0  0  0  0
   28.1433  -22.2008  -17.8800 N   0  0  0  0  0  0  0  0  0  0  0  0
   27.0738  -21.3641  -15.9204 C   0  0  0  0  0  0  0  0  0  0  0  0
   26.2529  -22.3149  -15.8924 O   0  0  0  0  0  0  0  0  0  0  0  0
   27.2973  -20.6747  -14.6984 N   0  0  0  0  0  0  0  0  0  0  0  0
   26.5445  -20.9584  -13.4767 C   0  0  1  0  0  0  0  0  0  0  0  0
   27.2600  -20.3748  -12.3045 C   0  0  0  0  0  0  0  0  0  0  0  0
   26.5247  -20.5013  -11.0228 C   0  0  0  0  0  0  0  0  0  0  0  0
   25.9168  -19.3927  -10.4220 C   0  0  0  0  0  0  0  0  0  0  0  0
   25.2289  -19.4962   -9.2345 C   0  0  0  0  0  0  0  0  0  0  0  0
   25.1111  -20.7057   -8.5859 C   0  0  0  0  0  0  0  0  0  0  0  0
   25.6987  -21.8063   -9.1559 C   0  0  0  0  0  0  0  0  0  0  0  0
   26.3765  -21.6838  -10.3337 C   0  0  0  0  0  0  0  0  0  0  0  0
   25.1375  -20.5993  -13.6229 C   0  0  0  0  0  0  0  0  0  0  0  0
   24.8571  -19.4953  -14.1567 O   0  0  0  0  0  0  0  0  0  0  0  0
   20.5075  -20.6555  -15.7778 C   0  0  0  0  0  0  0  0  0  0  0  0
   20.4698  -21.4847  -14.4993 C   0  0  1  0  0  0  0  0  0  0  0  0
   19.6385  -22.7180  -14.8068 C   0  0  0  0  0  0  0  0  0  0  0  0
   21.8869  -21.9560  -14.2541 C   0  0  0  0  0  0  0  0  0  0  0  0
   22.6945  -20.9829  -13.4439 C   0  0  2  0  0  0  0  0  0  0  0  0
   24.0436  -21.4000  -13.2083 N   0  0  0  0  0  0  0  0  0  0  0  0
   21.9488  -20.7383  -12.1768 C   0  0  0  0  0  0  0  0  0  0  0  0
   22.2453  -21.2886  -11.0949 O   0  0  0  0  0  0  0  0  0  0  0  0
   20.8870  -19.8630  -12.2167 O   0  0  0  0  0  0  0  0  0  0  0  0
  2  1  1  0
  2  3  2  0
  4  2  1  0
  5  4  1  0
  6  7  1  6
  6  5  1  0
  8  6  1  0
  8 10  1  0
  9  8  2  0
 11 10  1  0
 12 13  1  0
 11 12  1  1
 13 18  2  0
 14 13  1  0
 14 15  2  0
 15 16  1  0
 16 17  2  0
 18 17  1  0
 19 11  1  0
 20 19  2  0
 22 21  1  6
 22 24  1  0
 23 22  1  0
 25 24  1  1
 25 26  1  0
 25 27  1  0
 26 19  1  0
 27 29  1  0
 28 27  2  0
M  END
$$$$
