QFL.pdb
     RDKit          3D

 29 29  0  0  1  0  0  0  0  0999 V2000
   28.8724  -18.0924  -14.1396 N   0  0  0  0  0  0  0  0  0  0  0  0
   28.2733  -18.6957  -15.2923 C   0  0  0  0  0  0  0  0  0  0  0  0
   28.7776  -18.4385  -16.4320 O   0  0  0  0  0  0  0  0  0  0  0  0
   27.0997  -19.5912  -15.1388 C   0  0  0  0  0  0  0  0  0  0  0  0
   26.8112  -19.7785  -13.6798 C   0  0  0  0  0  0  0  0  0  0  0  0
   27.5167  -21.0009  -13.1534 C   0  0  2  0  0  0  0  0  0  0  0  0
   27.2494  -22.1866  -13.9318 N   0  0  0  0  0  0  0  0  0  0  0  0
   27.1431  -21.2544  -11.7401 C   0  0  0  0  0  0  0  0  0  0  0  0
   26.2192  -22.0564  -11.4541 O   0  0  0  0  0  0  0  0  0  0  0  0
   27.7970  -20.6163  -10.6521 N   0  0  0  0  0  0  0  0  0  0  0  0
   27.3784  -20.7894   -9.2613 C   0  0  1  0  0  0  0  0  0  0  0  0
   28.5054  -20.4256   -8.3534 C   0  0  0  0  0  0  0  0  0  0  0  0
   28.1112  -20.2702   -6.9322 C   0  0  0  0  0  0  0  0  0  0  0  0
   27.5932  -19.0623   -6.4504 C   0  0  0  0  0  0  0  0  0  0  0  0
   27.2206  -18.9051   -5.1349 C   0  0  0  0  0  0  0  0  0  0  0  0
   27.3443  -19.9396   -4.2339 C   0  0  0  0  0  0  0  0  0  0  0  0
   27.8496  -21.1331   -4.6833 C   0  0  0  0  0  0  0  0  0  0  0  0
   28.2135  -21.2697   -5.9911 C   0  0  0  0  0  0  0  0  0  0  0  0
   26.1004  -20.1331   -9.0043 C   0  0  0  0  0  0  0  0  0  0  0  0
   25.9990  -18.9058   -9.2612 O   0  0  0  0  0  0  0  0  0  0  0  0
   21.9881  -20.0762  -12.3120 C   0  0  0  0  0  0  0  0  0  0  0  0
   22.0080  -20.0658  -10.7879 C   0  0  1  0  0  0  0  0  0  0  0  0
   21.0549  -21.1579  -10.3344 C   0  0  0  0  0  0  0  0  0  0  0  0
   23.3999  -20.4941  -10.3760 C   0  0  0  0  0  0  0  0  0  0  0  0
   23.6350  -20.3736   -8.8976 C   0  0  2  0  0  0  0  0  0  0  0  0
   24.9464  -20.7699   -8.4823 N   0  0  0  0  0  0  0  0  0  0  0  0
   22.5653  -21.1560   -8.2157 C   0  0  0  0  0  0  0  0  0  0  0  0
   22.7088  -22.3480   -7.8696 O   0  0  0  0  0  0  0  0  0  0  0  0
   21.3698  -20.5219   -7.9625 O   0  0  0  0  0  0  0  0  0  0  0  0
  2  1  1  0
  2  3  2  0
  4  2  1  0
  5  4  1  0
  6  7  1  6
  6  5  1  0
  8  6  1  0
  8 10  1  0
  9  8  2  0
 11 10  1  0
 12 13  1  0
 11 12  1  1
 13 18  2  0
 14 13  1  0
 14 15  2  0
 15 16  1  0
 16 17  2  0
 18 17  1  0
 19 11  1  0
 20 19  2  0
 22 21  1  6
 22 24  1  0
 23 22  1  0
 25 24  1  6
 25 26  1  0
 25 27  1  0
 26 19  1  0
 27 29  1  0
 28 27  2  0
M  END
$$$$
