PNL.pdb
     RDKit          3D

 24 24  0  0  1  0  0  0  0  0999 V2000
    9.0000  -14.8810   19.3580 N   0  0  0  0  0  0  0  0  0  0  0  0
    9.0322  -14.1616   18.0620 C   0  0  0  0  0  0  0  0  0  0  0  0
    7.6067  -13.6505   18.0448 C   0  0  0  0  0  0  0  0  0  0  0  0
    7.4524  -13.0999   19.4414 C   0  0  0  0  0  0  0  0  0  0  0  0
    8.4513  -13.8541   20.2485 C   0  0  1  0  0  0  0  0  0  0  0  0
    7.9093  -14.5270   21.4405 C   0  0  0  0  0  0  0  0  0  0  0  0
    7.1629  -13.8399   22.2085 O   0  0  0  0  0  0  0  0  0  0  0  0
    5.7403  -18.9321   24.0600 N   0  0  0  0  0  0  0  0  0  0  0  0
    7.0829  -18.4816   24.1852 C   0  0  0  0  0  0  0  0  0  0  0  0
    7.6564  -18.5579   25.3010 O   0  0  0  0  0  0  0  0  0  0  0  0
    7.7593  -17.9393   23.0022 C   0  0  0  0  0  0  0  0  0  0  0  0
    7.5592  -16.4396   22.9413 C   0  0  2  0  0  0  0  0  0  0  0  0
    8.1792  -15.8737   21.7593 N   0  0  0  0  0  0  0  0  0  0  0  0
    8.2561  -15.8800   24.1389 C   0  0  0  0  0  0  0  0  0  0  0  0
    9.5033  -15.7967   24.1021 O   0  0  0  0  0  0  0  0  0  0  0  0
    5.8560  -11.8531   26.8304 C   0  0  0  0  0  0  0  0  0  0  0  0
    6.9049  -12.6970   26.0279 C   0  0  1  0  0  0  0  0  0  0  0  0
    7.8846  -11.6566   25.5518 C   0  0  0  0  0  0  0  0  0  0  0  0
    7.4324  -13.7335   26.9360 C   0  0  0  0  0  0  0  0  0  0  0  0
    8.2805  -14.8003   26.3671 C   0  0  2  0  0  0  0  0  0  0  0  0
    7.5289  -15.4635   25.2646 N   0  0  0  0  0  0  0  0  0  0  0  0
    8.7038  -15.9099   27.2261 C   0  0  0  0  0  0  0  0  0  0  0  0
    8.2728  -17.0764   27.1355 O   0  0  0  0  0  0  0  0  0  0  0  0
    9.6597  -15.7192   28.2447 O   0  0  0  0  0  0  0  0  0  0  0  0
  1  5  1  0
  1  2  1  0
  3  2  1  0
  4  5  1  0
  4  3  1  0
  6  7  2  0
  5  6  1  1
  8  9  1  0
  9 11  1  0
  9 10  2  0
 12 11  1  6
 12 14  1  0
 12 13  1  0
 13  6  1  0
 14 21  1  0
 15 14  2  0
 17 16  1  1
 17 18  1  0
 20 19  1  1
 19 17  1  0
 20 22  1  0
 21 20  1  0
 22 23  2  0
 22 24  1  0
M  END
$$$$
