PNL.pdb
     RDKit          3D

 24 24  0  0  1  0  0  0  0  0999 V2000
    9.1775  -14.4090   19.2083 N   0  0  0  0  0  0  0  0  0  0  0  0
    8.8335  -13.5766   18.0305 C   0  0  0  0  0  0  0  0  0  0  0  0
    7.3385  -13.4731   18.2482 C   0  0  0  0  0  0  0  0  0  0  0  0
    7.2564  -13.1341   19.7164 C   0  0  0  0  0  0  0  0  0  0  0  0
    8.5225  -13.6685   20.2905 C   0  0  1  0  0  0  0  0  0  0  0  0
    8.3520  -14.5840   21.4308 C   0  0  0  0  0  0  0  0  0  0  0  0
    7.3089  -14.4375   22.1446 O   0  0  0  0  0  0  0  0  0  0  0  0
    8.6201  -19.1363   21.4582 N   0  0  0  0  0  0  0  0  0  0  0  0
    9.8035  -18.3839   21.6918 C   0  0  0  0  0  0  0  0  0  0  0  0
   10.7116  -18.3792   20.8230 O   0  0  0  0  0  0  0  0  0  0  0  0
    9.9274  -17.6334   22.9457 C   0  0  0  0  0  0  0  0  0  0  0  0
    9.0110  -16.4283   22.9130 C   0  0  2  0  0  0  0  0  0  0  0  0
    9.2792  -15.5947   21.7576 N   0  0  0  0  0  0  0  0  0  0  0  0
    9.3289  -15.6333   24.1376 C   0  0  0  0  0  0  0  0  0  0  0  0
   10.4987  -15.2123   24.2725 O   0  0  0  0  0  0  0  0  0  0  0  0
    5.7058  -12.3181   26.5756 C   0  0  0  0  0  0  0  0  0  0  0  0
    6.9919  -12.8858   25.8828 C   0  0  1  0  0  0  0  0  0  0  0  0
    7.7835  -11.6438   25.5673 C   0  0  0  0  0  0  0  0  0  0  0  0
    7.6139  -13.8458   26.8150 C   0  0  0  0  0  0  0  0  0  0  0  0
    8.7570  -14.6492   26.3367 C   0  0  2  0  0  0  0  0  0  0  0  0
    8.3425  -15.3711   25.1009 N   0  0  0  0  0  0  0  0  0  0  0  0
    9.2990  -15.7033   27.1990 C   0  0  0  0  0  0  0  0  0  0  0  0
    9.8964  -15.4976   28.2739 O   0  0  0  0  0  0  0  0  0  0  0  0
    9.1730  -17.0642   26.8532 O   0  0  0  0  0  0  0  0  0  0  0  0
  1  5  1  0
  1  2  1  0
  3  2  1  0
  4  5  1  0
  4  3  1  0
  6  7  2  0
  5  6  1  1
  8  9  1  0
  9 11  1  0
  9 10  2  0
 12 11  1  6
 12 14  1  0
 12 13  1  0
 13  6  1  0
 14 21  1  0
 15 14  2  0
 17 16  1  1
 17 18  1  0
 20 19  1  1
 19 17  1  0
 20 22  1  0
 21 20  1  0
 22 23  2  0
 22 24  1  0
M  END
$$$$
