PNL.pdb
     RDKit          3D

 24 24  0  0  1  0  0  0  0  0999 V2000
    9.1352  -14.5224   18.9491 N   0  0  0  0  0  0  0  0  0  0  0  0
    8.9437  -13.6492   17.7662 C   0  0  0  0  0  0  0  0  0  0  0  0
    7.5031  -13.2480   18.0047 C   0  0  0  0  0  0  0  0  0  0  0  0
    7.5151  -12.8858   19.4696 C   0  0  0  0  0  0  0  0  0  0  0  0
    8.6591  -13.6563   20.0315 C   0  0  1  0  0  0  0  0  0  0  0  0
    8.3294  -14.5089   21.1855 C   0  0  0  0  0  0  0  0  0  0  0  0
    7.3703  -14.1328   21.9325 O   0  0  0  0  0  0  0  0  0  0  0  0
    7.8409  -19.2011   21.1439 N   0  0  0  0  0  0  0  0  0  0  0  0
    9.0688  -18.5254   21.3827 C   0  0  0  0  0  0  0  0  0  0  0  0
    9.9595  -18.5353   20.4961 O   0  0  0  0  0  0  0  0  0  0  0  0
    9.2576  -17.8348   22.6626 C   0  0  0  0  0  0  0  0  0  0  0  0
    8.5698  -16.4863   22.6225 C   0  0  2  0  0  0  0  0  0  0  0  0
    9.0197  -15.6999   21.4907 N   0  0  0  0  0  0  0  0  0  0  0  0
    8.9815  -15.7744   23.8700 C   0  0  0  0  0  0  0  0  0  0  0  0
   10.1654  -15.3802   23.9532 O   0  0  0  0  0  0  0  0  0  0  0  0
    5.6559  -12.2872   26.4222 C   0  0  0  0  0  0  0  0  0  0  0  0
    6.8741  -12.9511   25.6932 C   0  0  1  0  0  0  0  0  0  0  0  0
    7.7549  -11.7743   25.3642 C   0  0  0  0  0  0  0  0  0  0  0  0
    7.4404  -13.9649   26.6037 C   0  0  0  0  0  0  0  0  0  0  0  0
    8.5426  -14.8149   26.1102 C   0  0  2  0  0  0  0  0  0  0  0  0
    8.0648  -15.5583   24.9105 N   0  0  0  0  0  0  0  0  0  0  0  0
    9.0839  -15.8600   26.9835 C   0  0  0  0  0  0  0  0  0  0  0  0
    8.8588  -17.0790   26.8482 O   0  0  0  0  0  0  0  0  0  0  0  0
    9.9235  -15.5394   28.0697 O   0  0  0  0  0  0  0  0  0  0  0  0
  1  5  1  0
  1  2  1  0
  3  2  1  0
  4  5  1  0
  4  3  1  0
  6  7  2  0
  5  6  1  1
  8  9  1  0
  9 11  1  0
  9 10  2  0
 12 11  1  6
 12 14  1  0
 12 13  1  0
 13  6  1  0
 14 21  1  0
 15 14  2  0
 17 16  1  1
 17 18  1  0
 20 19  1  1
 19 17  1  0
 20 22  1  0
 21 20  1  0
 22 23  2  0
 22 24  1  0
M  END
$$$$
