PNL.pdb
     RDKit          3D

 24 24  0  0  1  0  0  0  0  0999 V2000
    9.0897  -14.5989   18.9850 N   0  0  0  0  0  0  0  0  0  0  0  0
    8.8542  -13.7410   17.7988 C   0  0  0  0  0  0  0  0  0  0  0  0
    7.4232  -13.3366   18.0853 C   0  0  0  0  0  0  0  0  0  0  0  0
    7.4893  -12.9555   19.5440 C   0  0  0  0  0  0  0  0  0  0  0  0
    8.6536  -13.7188   20.0731 C   0  0  1  0  0  0  0  0  0  0  0  0
    8.3671  -14.5563   21.2494 C   0  0  0  0  0  0  0  0  0  0  0  0
    7.2941  -14.3146   21.8892 O   0  0  0  0  0  0  0  0  0  0  0  0
    8.2401  -19.3335   21.6983 N   0  0  0  0  0  0  0  0  0  0  0  0
    9.3783  -18.4826   21.7373 C   0  0  0  0  0  0  0  0  0  0  0  0
   10.1582  -18.4521   20.7521 O   0  0  0  0  0  0  0  0  0  0  0  0
    9.6072  -17.6633   22.9319 C   0  0  0  0  0  0  0  0  0  0  0  0
    8.8078  -16.3810   22.8335 C   0  0  2  0  0  0  0  0  0  0  0  0
    9.2166  -15.5930   21.6872 N   0  0  0  0  0  0  0  0  0  0  0  0
    9.1262  -15.5991   24.0663 C   0  0  0  0  0  0  0  0  0  0  0  0
   10.2650  -15.0904   24.1567 O   0  0  0  0  0  0  0  0  0  0  0  0
    5.5918  -12.3036   26.6889 C   0  0  0  0  0  0  0  0  0  0  0  0
    6.8357  -12.8972   25.9428 C   0  0  1  0  0  0  0  0  0  0  0  0
    7.6884  -11.6826   25.6854 C   0  0  0  0  0  0  0  0  0  0  0  0
    7.4183  -13.9413   26.8076 C   0  0  0  0  0  0  0  0  0  0  0  0
    8.5843  -14.6975   26.3079 C   0  0  2  0  0  0  0  0  0  0  0  0
    8.1740  -15.4444   25.0856 N   0  0  0  0  0  0  0  0  0  0  0  0
    9.1907  -15.7216   27.1633 C   0  0  0  0  0  0  0  0  0  0  0  0
    9.9621  -15.4813   28.1129 O   0  0  0  0  0  0  0  0  0  0  0  0
    8.9289  -17.0915   26.9573 O   0  0  0  0  0  0  0  0  0  0  0  0
  1  5  1  0
  1  2  1  0
  3  2  1  0
  4  5  1  0
  4  3  1  0
  6  7  2  0
  5  6  1  1
  8  9  1  0
  9 11  1  0
  9 10  2  0
 12 11  1  1
 12 14  1  0
 12 13  1  0
 13  6  1  0
 14 21  1  0
 15 14  2  0
 17 16  1  1
 17 18  1  0
 20 19  1  1
 19 17  1  0
 20 22  1  0
 21 20  1  0
 22 23  2  0
 22 24  1  0
M  END
$$$$
