PNL.pdb
     RDKit          3D

 24 24  0  0  1  0  0  0  0  0999 V2000
    9.2759  -13.7991   19.3094 N   0  0  0  0  0  0  0  0  0  0  0  0
    8.7709  -12.9975   18.1689 C   0  0  0  0  0  0  0  0  0  0  0  0
    7.3052  -13.3684   18.2555 C   0  0  0  0  0  0  0  0  0  0  0  0
    7.0276  -13.2143   19.7308 C   0  0  0  0  0  0  0  0  0  0  0  0
    8.3563  -13.3982   20.3781 C   0  0  1  0  0  0  0  0  0  0  0  0
    8.4007  -14.4292   21.4280 C   0  0  0  0  0  0  0  0  0  0  0  0
    7.4032  -14.5030   22.2145 O   0  0  0  0  0  0  0  0  0  0  0  0
    9.6509  -19.5601   23.1942 N   0  0  0  0  0  0  0  0  0  0  0  0
   10.3553  -18.3745   23.5396 C   0  0  0  0  0  0  0  0  0  0  0  0
   10.8175  -18.2495   24.7017 O   0  0  0  0  0  0  0  0  0  0  0  0
   10.5210  -17.3299   22.5236 C   0  0  0  0  0  0  0  0  0  0  0  0
    9.3900  -16.3288   22.6305 C   0  0  2  0  0  0  0  0  0  0  0  0
    9.4818  -15.3188   21.5943 N   0  0  0  0  0  0  0  0  0  0  0  0
    9.5612  -15.6501   23.9507 C   0  0  0  0  0  0  0  0  0  0  0  0
   10.5393  -14.8835   24.0900 O   0  0  0  0  0  0  0  0  0  0  0  0
    6.0278  -12.7074   26.6310 C   0  0  0  0  0  0  0  0  0  0  0  0
    7.4081  -13.2005   26.0760 C   0  0  1  0  0  0  0  0  0  0  0  0
    8.3284  -12.0483   26.3831 C   0  0  0  0  0  0  0  0  0  0  0  0
    7.7188  -14.4859   26.7308 C   0  0  0  0  0  0  0  0  0  0  0  0
    8.9296  -15.2164   26.3053 C   0  0  2  0  0  0  0  0  0  0  0  0
    8.6507  -15.8703   24.9957 N   0  0  0  0  0  0  0  0  0  0  0  0
    9.4383  -16.3050   27.1447 C   0  0  0  0  0  0  0  0  0  0  0  0
    9.9282  -16.1499   28.2807 O   0  0  0  0  0  0  0  0  0  0  0  0
    9.4031  -17.6433   26.7028 O   0  0  0  0  0  0  0  0  0  0  0  0
  1  5  1  0
  1  2  1  0
  3  2  1  0
  4  5  1  0
  4  3  1  0
  6  7  2  0
  5  6  1  1
  8  9  1  0
  9 11  1  0
  9 10  2  0
 12 11  1  6
 12 14  1  0
 12 13  1  0
 13  6  1  0
 14 21  1  0
 15 14  2  0
 17 16  1  1
 17 18  1  0
 20 19  1  1
 19 17  1  0
 20 22  1  0
 21 20  1  0
 22 23  2  0
 22 24  1  0
M  END
$$$$
