PNL.pdb
     RDKit          3D

 24 24  0  0  1  0  0  0  0  0999 V2000
    9.1772  -14.5055   19.1570 N   0  0  0  0  0  0  0  0  0  0  0  0
    8.8434  -13.6993   17.9582 C   0  0  0  0  0  0  0  0  0  0  0  0
    7.3593  -13.5233   18.2029 C   0  0  0  0  0  0  0  0  0  0  0  0
    7.3242  -13.1315   19.6598 C   0  0  0  0  0  0  0  0  0  0  0  0
    8.5785  -13.7009   20.2260 C   0  0  1  0  0  0  0  0  0  0  0  0
    8.3941  -14.5690   21.4007 C   0  0  0  0  0  0  0  0  0  0  0  0
    7.3756  -14.3512   22.1317 O   0  0  0  0  0  0  0  0  0  0  0  0
   10.5990  -18.8941   20.9511 N   0  0  0  0  0  0  0  0  0  0  0  0
    9.5671  -18.5515   21.8671 C   0  0  0  0  0  0  0  0  0  0  0  0
    8.4182  -19.0361   21.7094 O   0  0  0  0  0  0  0  0  0  0  0  0
    9.8779  -17.6390   22.9722 C   0  0  0  0  0  0  0  0  0  0  0  0
    8.9766  -16.4242   22.9012 C   0  0  2  0  0  0  0  0  0  0  0  0
    9.2825  -15.6093   21.7418 N   0  0  0  0  0  0  0  0  0  0  0  0
    9.2739  -15.6163   24.1226 C   0  0  0  0  0  0  0  0  0  0  0  0
   10.4082  -15.0987   24.2179 O   0  0  0  0  0  0  0  0  0  0  0  0
    5.6450  -12.3381   26.4079 C   0  0  0  0  0  0  0  0  0  0  0  0
    6.9696  -12.9030   25.7894 C   0  0  1  0  0  0  0  0  0  0  0  0
    7.7702  -11.6586   25.5079 C   0  0  0  0  0  0  0  0  0  0  0  0
    7.5458  -13.8528   26.7606 C   0  0  0  0  0  0  0  0  0  0  0  0
    8.6973  -14.6761   26.3395 C   0  0  2  0  0  0  0  0  0  0  0  0
    8.3072  -15.4478   25.1260 N   0  0  0  0  0  0  0  0  0  0  0  0
    9.2195  -15.6943   27.2554 C   0  0  0  0  0  0  0  0  0  0  0  0
    9.7777  -15.4458   28.3423 O   0  0  0  0  0  0  0  0  0  0  0  0
    9.1186  -17.0675   26.9525 O   0  0  0  0  0  0  0  0  0  0  0  0
  1  5  1  0
  1  2  1  0
  3  2  1  0
  4  5  1  0
  4  3  1  0
  6  7  2  0
  5  6  1  1
  8  9  1  0
  9 11  1  0
  9 10  2  0
 12 11  1  1
 12 14  1  0
 12 13  1  0
 13  6  1  0
 14 21  1  0
 15 14  2  0
 17 16  1  1
 17 18  1  0
 20 19  1  1
 19 17  1  0
 20 22  1  0
 21 20  1  0
 22 23  2  0
 22 24  1  0
M  END
$$$$
