PNL.pdb
     RDKit          3D

 24 24  0  0  1  0  0  0  0  0999 V2000
    7.0497  -15.3858   21.0286 N   0  0  0  0  0  0  0  0  0  0  0  0
    6.1992  -15.1495   19.8373 C   0  0  0  0  0  0  0  0  0  0  0  0
    7.1951  -15.5305   18.7619 C   0  0  0  0  0  0  0  0  0  0  0  0
    7.7555  -16.8259   19.2959 C   0  0  0  0  0  0  0  0  0  0  0  0
    7.5475  -16.7397   20.7681 C   0  0  1  0  0  0  0  0  0  0  0  0
    8.7573  -16.9446   21.5815 C   0  0  0  0  0  0  0  0  0  0  0  0
    9.2691  -18.1096   21.5811 O   0  0  0  0  0  0  0  0  0  0  0  0
   13.3692  -17.1109   23.0478 N   0  0  0  0  0  0  0  0  0  0  0  0
   12.9587  -15.7689   23.2750 C   0  0  0  0  0  0  0  0  0  0  0  0
   13.6782  -15.0158   23.9784 O   0  0  0  0  0  0  0  0  0  0  0  0
   11.7024  -15.3038   22.6782 C   0  0  0  0  0  0  0  0  0  0  0  0
   10.5737  -16.2326   23.0737 C   0  0  2  0  0  0  0  0  0  0  0  0
    9.3586  -15.9236   22.3458 N   0  0  0  0  0  0  0  0  0  0  0  0
   10.3181  -15.9792   24.5240 C   0  0  0  0  0  0  0  0  0  0  0  0
   11.2768  -16.1078   25.3166 O   0  0  0  0  0  0  0  0  0  0  0  0
    5.9114  -12.9490   26.1501 C   0  0  0  0  0  0  0  0  0  0  0  0
    7.3940  -13.3994   25.9148 C   0  0  1  0  0  0  0  0  0  0  0  0
    8.1886  -12.2078   26.3814 C   0  0  0  0  0  0  0  0  0  0  0  0
    7.5999  -14.6601   26.6534 C   0  0  0  0  0  0  0  0  0  0  0  0
    8.8588  -15.4020   26.4394 C   0  0  2  0  0  0  0  0  0  0  0  0
    9.0417  -15.6093   24.9752 N   0  0  0  0  0  0  0  0  0  0  0  0
    9.0014  -16.7449   27.0089 C   0  0  0  0  0  0  0  0  0  0  0  0
    8.7590  -17.8017   26.3932 O   0  0  0  0  0  0  0  0  0  0  0  0
    9.4380  -16.9309   28.3365 O   0  0  0  0  0  0  0  0  0  0  0  0
  1  5  1  0
  1  2  1  0
  3  2  1  0
  4  5  1  0
  4  3  1  0
  6  7  2  0
  5  6  1  1
  8  9  1  0
  9 11  1  0
  9 10  2  0
 12 11  1  6
 12 14  1  0
 12 13  1  0
 13  6  1  0
 14 21  1  0
 15 14  2  0
 17 16  1  1
 17 18  1  0
 20 19  1  6
 19 17  1  0
 20 22  1  0
 21 20  1  0
 22 23  2  0
 22 24  1  0
M  END
$$$$
