PNL.pdb
     RDKit          3D

 24 24  0  0  1  0  0  0  0  0999 V2000
    9.1241  -14.7863   18.3797 N   0  0  0  0  0  0  0  0  0  0  0  0
    8.9921  -13.9331   17.1743 C   0  0  0  0  0  0  0  0  0  0  0  0
    7.5586  -13.4832   17.3643 C   0  0  0  0  0  0  0  0  0  0  0  0
    7.5420  -13.0904   18.8213 C   0  0  0  0  0  0  0  0  0  0  0  0
    8.6458  -13.8831   19.4305 C   0  0  1  0  0  0  0  0  0  0  0  0
    8.2585  -14.7004   20.5922 C   0  0  0  0  0  0  0  0  0  0  0  0
    7.2437  -14.3206   21.2593 O   0  0  0  0  0  0  0  0  0  0  0  0
   10.0431  -19.2230   20.4324 N   0  0  0  0  0  0  0  0  0  0  0  0
    8.9722  -18.7902   21.2614 C   0  0  0  0  0  0  0  0  0  0  0  0
    7.8094  -19.2093   21.0339 O   0  0  0  0  0  0  0  0  0  0  0  0
    9.2603  -17.8638   22.3612 C   0  0  0  0  0  0  0  0  0  0  0  0
    8.4886  -16.5764   22.1608 C   0  0  2  0  0  0  0  0  0  0  0  0
    8.9529  -15.8621   20.9877 N   0  0  0  0  0  0  0  0  0  0  0  0
    8.7766  -15.7305   23.3584 C   0  0  0  0  0  0  0  0  0  0  0  0
    9.9269  -15.2534   23.4727 O   0  0  0  0  0  0  0  0  0  0  0  0
    8.0863  -11.5730   26.3488 C   0  0  0  0  0  0  0  0  0  0  0  0
    7.0445  -12.6719   26.7529 C   0  0  1  0  0  0  0  0  0  0  0  0
    5.7978  -11.8726   27.0283 C   0  0  0  0  0  0  0  0  0  0  0  0
    6.9726  -13.6466   25.6474 C   0  0  0  0  0  0  0  0  0  0  0  0
    8.1183  -14.5540   25.4354 C   0  0  2  0  0  0  0  0  0  0  0  0
    7.7843  -15.4834   24.3196 N   0  0  0  0  0  0  0  0  0  0  0  0
    8.5367  -15.4417   26.5240 C   0  0  0  0  0  0  0  0  0  0  0  0
    8.0253  -16.5534   26.7638 O   0  0  0  0  0  0  0  0  0  0  0  0
    9.5815  -15.0799   27.3985 O   0  0  0  0  0  0  0  0  0  0  0  0
  1  5  1  0
  1  2  1  0
  3  2  1  0
  4  5  1  0
  4  3  1  0
  6  7  2  0
  5  6  1  1
  8  9  1  0
  9 11  1  0
  9 10  2  0
 12 11  1  1
 12 14  1  0
 12 13  1  0
 13  6  1  0
 14 21  1  0
 15 14  2  0
 17 16  1  6
 17 18  1  0
 20 19  1  1
 19 17  1  0
 20 22  1  0
 21 20  1  0
 22 23  2  0
 22 24  1  0
M  END
$$$$
