PNL.pdb
     RDKit          3D

 24 24  0  0  1  0  0  0  0  0999 V2000
    8.9460  -14.7814   19.2633 N   0  0  0  0  0  0  0  0  0  0  0  0
    9.0271  -13.9862   18.0145 C   0  0  0  0  0  0  0  0  0  0  0  0
    7.6295  -13.4031   18.0196 C   0  0  0  0  0  0  0  0  0  0  0  0
    7.4895  -12.9322   19.4464 C   0  0  0  0  0  0  0  0  0  0  0  0
    8.4412  -13.7845   20.2120 C   0  0  1  0  0  0  0  0  0  0  0  0
    7.8544  -14.5008   21.3564 C   0  0  0  0  0  0  0  0  0  0  0  0
    7.1376  -13.8246   22.1615 O   0  0  0  0  0  0  0  0  0  0  0  0
    5.8184  -17.7249   24.4717 N   0  0  0  0  0  0  0  0  0  0  0  0
    6.7081  -18.5722   23.7564 C   0  0  0  0  0  0  0  0  0  0  0  0
    6.6868  -19.8101   23.9727 O   0  0  0  0  0  0  0  0  0  0  0  0
    7.6272  -17.9715   22.7841 C   0  0  0  0  0  0  0  0  0  0  0  0
    7.4439  -16.4685   22.7681 C   0  0  2  0  0  0  0  0  0  0  0  0
    8.0512  -15.8770   21.5920 N   0  0  0  0  0  0  0  0  0  0  0  0
    8.1668  -15.9505   23.9689 C   0  0  0  0  0  0  0  0  0  0  0  0
    9.4149  -15.8928   23.9186 O   0  0  0  0  0  0  0  0  0  0  0  0
    5.8601  -11.9618   26.9234 C   0  0  0  0  0  0  0  0  0  0  0  0
    6.9597  -12.7090   26.0934 C   0  0  1  0  0  0  0  0  0  0  0  0
    8.0062  -11.6464   25.8826 C   0  0  0  0  0  0  0  0  0  0  0  0
    7.3715  -13.8968   26.8660 C   0  0  0  0  0  0  0  0  0  0  0  0
    8.2367  -14.8970   26.2087 C   0  0  2  0  0  0  0  0  0  0  0  0
    7.4621  -15.5438   25.1124 N   0  0  0  0  0  0  0  0  0  0  0  0
    8.7494  -16.0233   26.9939 C   0  0  0  0  0  0  0  0  0  0  0  0
    9.6457  -15.9324   27.8559 O   0  0  0  0  0  0  0  0  0  0  0  0
    8.2415  -17.3264   26.8164 O   0  0  0  0  0  0  0  0  0  0  0  0
  1  5  1  0
  1  2  1  0
  3  2  1  0
  4  5  1  0
  4  3  1  0
  6  7  2  0
  5  6  1  1
  8  9  1  0
  9 11  1  0
  9 10  2  0
 12 11  1  6
 12 14  1  0
 12 13  1  0
 13  6  1  0
 14 21  1  0
 15 14  2  0
 17 16  1  1
 17 18  1  0
 20 19  1  1
 19 17  1  0
 20 22  1  0
 21 20  1  0
 22 23  2  0
 22 24  1  0
M  END
$$$$
