PNL.pdb
     RDKit          3D

 24 24  0  0  1  0  0  0  0  0999 V2000
    8.9681  -14.7171   18.7816 N   0  0  0  0  0  0  0  0  0  0  0  0
    8.8982  -13.9033   17.5441 C   0  0  0  0  0  0  0  0  0  0  0  0
    7.5030  -13.3399   17.7155 C   0  0  0  0  0  0  0  0  0  0  0  0
    7.5190  -12.8912   19.1563 C   0  0  0  0  0  0  0  0  0  0  0  0
    8.5613  -13.7408   19.7965 C   0  0  1  0  0  0  0  0  0  0  0  0
    8.1160  -14.4815   20.9883 C   0  0  0  0  0  0  0  0  0  0  0  0
    7.4203  -13.8455   21.8432 O   0  0  0  0  0  0  0  0  0  0  0  0
    7.0887  -17.7986   20.3809 N   0  0  0  0  0  0  0  0  0  0  0  0
    7.8117  -18.5742   21.3279 C   0  0  0  0  0  0  0  0  0  0  0  0
    7.9675  -19.8048   21.1253 O   0  0  0  0  0  0  0  0  0  0  0  0
    8.3555  -17.9101   22.5171 C   0  0  0  0  0  0  0  0  0  0  0  0
    8.0216  -16.4337   22.4759 C   0  0  2  0  0  0  0  0  0  0  0  0
    8.4238  -15.8384   21.2166 N   0  0  0  0  0  0  0  0  0  0  0  0
    8.8252  -15.7971   23.5630 C   0  0  0  0  0  0  0  0  0  0  0  0
   10.0011  -15.4628   23.2999 O   0  0  0  0  0  0  0  0  0  0  0  0
    7.1600  -12.5587   27.8354 C   0  0  0  0  0  0  0  0  0  0  0  0
    7.1742  -13.4327   26.5346 C   0  0  1  0  0  0  0  0  0  0  0  0
    6.2429  -12.6873   25.6149 C   0  0  0  0  0  0  0  0  0  0  0  0
    8.5774  -13.5555   26.0949 C   0  0  0  0  0  0  0  0  0  0  0  0
    9.1225  -14.9068   25.8544 C   0  0  2  0  0  0  0  0  0  0  0  0
    8.2723  -15.5843   24.8353 N   0  0  0  0  0  0  0  0  0  0  0  0
    9.1765  -15.8626   26.9642 C   0  0  0  0  0  0  0  0  0  0  0  0
    8.4880  -16.8996   27.0363 O   0  0  0  0  0  0  0  0  0  0  0  0
   10.0425  -15.6607   28.0582 O   0  0  0  0  0  0  0  0  0  0  0  0
  1  5  1  0
  1  2  1  0
  3  2  1  0
  4  5  1  0
  4  3  1  0
  6  7  2  0
  5  6  1  1
  8  9  1  0
  9 11  1  0
  9 10  2  0
 12 11  1  6
 12 14  1  0
 12 13  1  0
 13  6  1  0
 14 21  1  0
 15 14  2  0
 17 16  1  1
 17 18  1  0
 20 19  1  1
 19 17  1  0
 20 22  1  0
 21 20  1  0
 22 23  2  0
 22 24  1  0
M  END
$$$$
