PNL.pdb
     RDKit          3D

 24 24  0  0  1  0  0  0  0  0999 V2000
    9.0228  -14.6057   18.8703 N   0  0  0  0  0  0  0  0  0  0  0  0
    8.8023  -13.6436   17.7639 C   0  0  0  0  0  0  0  0  0  0  0  0
    7.4338  -13.1358   18.1672 C   0  0  0  0  0  0  0  0  0  0  0  0
    7.6170  -12.8729   19.6419 C   0  0  0  0  0  0  0  0  0  0  0  0
    8.7327  -13.7745   20.0423 C   0  0  1  0  0  0  0  0  0  0  0  0
    8.4357  -14.6693   21.1730 C   0  0  0  0  0  0  0  0  0  0  0  0
    7.3202  -14.5102   21.7644 O   0  0  0  0  0  0  0  0  0  0  0  0
   10.4551  -18.7961   20.6800 N   0  0  0  0  0  0  0  0  0  0  0  0
    9.4385  -18.5987   21.6540 C   0  0  0  0  0  0  0  0  0  0  0  0
    8.3167  -19.1418   21.4918 O   0  0  0  0  0  0  0  0  0  0  0  0
    9.7327  -17.7632   22.8229 C   0  0  0  0  0  0  0  0  0  0  0  0
    8.9248  -16.4844   22.7539 C   0  0  2  0  0  0  0  0  0  0  0  0
    9.3194  -15.6735   21.6186 N   0  0  0  0  0  0  0  0  0  0  0  0
    9.2486  -15.7226   23.9979 C   0  0  0  0  0  0  0  0  0  0  0  0
   10.4098  -15.2756   24.1227 O   0  0  0  0  0  0  0  0  0  0  0  0
    5.6258  -12.3688   26.4277 C   0  0  0  0  0  0  0  0  0  0  0  0
    6.9463  -12.8995   25.7711 C   0  0  1  0  0  0  0  0  0  0  0  0
    7.7811  -11.6534   25.6333 C   0  0  0  0  0  0  0  0  0  0  0  0
    7.4836  -13.9606   26.6445 C   0  0  0  0  0  0  0  0  0  0  0  0
    8.6652  -14.7177   26.1845 C   0  0  2  0  0  0  0  0  0  0  0  0
    8.2768  -15.5189   24.9897 N   0  0  0  0  0  0  0  0  0  0  0  0
    9.2799  -15.6974   27.0847 C   0  0  0  0  0  0  0  0  0  0  0  0
   10.0680  -15.4105   28.0074 O   0  0  0  0  0  0  0  0  0  0  0  0
    9.0074  -17.0748   26.9582 O   0  0  0  0  0  0  0  0  0  0  0  0
  1  5  1  0
  1  2  1  0
  3  2  1  0
  4  5  1  0
  4  3  1  0
  6  7  2  0
  5  6  1  1
  8  9  1  0
  9 11  1  0
  9 10  2  0
 12 11  1  1
 12 14  1  0
 12 13  1  0
 13  6  1  0
 14 21  1  0
 15 14  2  0
 17 16  1  1
 17 18  1  0
 20 19  1  1
 19 17  1  0
 20 22  1  0
 21 20  1  0
 22 23  2  0
 22 24  1  0
M  END
$$$$
