YWS.pdb
     RDKit          3D

 33 35  0  0  1  0  0  0  0  0999 V2000
    7.0323  -13.6391   16.7643 O   0  0  0  0  0  0  0  0  0  0  0  0
    8.1635  -13.6800   17.5635 C   0  0  0  0  0  0  0  0  0  0  0  0
    8.9887  -14.8018   17.5139 C   0  0  0  0  0  0  0  0  0  0  0  0
   10.1281  -14.9186   18.2751 C   0  0  0  0  0  0  0  0  0  0  0  0
   10.4748  -13.8755   19.1313 C   0  0  0  0  0  0  0  0  0  0  0  0
   11.7085  -14.0389   19.9330 C   0  0  0  0  0  0  0  0  0  0  0  0
   11.6748  -15.3866   20.6497 C   0  0  2  0  0  0  0  0  0  0  0  0
   10.9575  -16.3619   19.8552 N   0  0  0  0  0  0  0  0  0  0  0  0
   11.0426  -15.2395   21.9841 C   0  0  0  0  0  0  0  0  0  0  0  0
   11.6585  -14.6767   22.9428 O   0  0  0  0  0  0  0  0  0  0  0  0
    9.6537  -12.7674   19.1758 C   0  0  0  0  0  0  0  0  0  0  0  0
    8.5153  -12.6629   18.4084 C   0  0  0  0  0  0  0  0  0  0  0  0
    9.7349  -15.7038   22.2868 N   0  0  0  0  0  0  0  0  0  0  0  0
    9.1428  -15.4989   23.5858 C   0  0  1  0  0  0  0  0  0  0  0  0
    7.6640  -15.2767   23.4087 C   0  0  0  0  0  0  0  0  0  0  0  0
    7.0314  -14.9016   24.7177 C   0  0  0  0  0  0  0  0  0  0  0  0
    6.2038  -15.6880   25.5076 C   0  0  0  0  0  0  0  0  0  0  0  0
    5.8554  -14.9771   26.5940 N   0  0  0  0  0  0  0  0  0  0  0  0
    6.4090  -13.7533   26.5704 C   0  0  0  0  0  0  0  0  0  0  0  0
    6.3691  -12.6611   27.4271 C   0  0  0  0  0  0  0  0  0  0  0  0
    7.0838  -11.5259   27.0755 C   0  0  0  0  0  0  0  0  0  0  0  0
    7.8207  -11.4550   25.9168 C   0  0  0  0  0  0  0  0  0  0  0  0
    7.8333  -12.5623   25.0943 C   0  0  0  0  0  0  0  0  0  0  0  0
    7.1434  -13.7050   25.3994 C   0  0  0  0  0  0  0  0  0  0  0  0
    9.4567  -16.5829   24.5340 C   0  0  0  0  0  0  0  0  0  0  0  0
    8.9008  -16.5609   25.6618 O   0  0  0  0  0  0  0  0  0  0  0  0
   12.2488  -19.4116   23.6138 O   0  0  0  0  0  0  0  0  0  0  0  0
   11.2719  -19.8492   24.4886 C   0  0  0  0  0  0  0  0  0  0  0  0
   10.6233  -18.6595   25.1984 C   0  0  2  0  0  0  0  0  0  0  0  0
   10.3622  -17.6382   24.2041 N   0  0  0  0  0  0  0  0  0  0  0  0
   11.5451  -18.1995   26.2382 C   0  0  0  0  0  0  0  0  0  0  0  0
   11.9499  -17.0066   26.1823 O   0  0  0  0  0  0  0  0  0  0  0  0
   11.9961  -18.9886   27.2717 O   0  0  0  0  0  0  0  0  0  0  0  0
  2  1  1  0
  3  2  2  0
  4  3  1  0
  5 11  1  0
  5  4  2  0
  6  5  1  0
  7  6  1  0
  7  8  1  6
  9 13  1  0
  9  7  1  0
 10  9  2  0
 11 12  2  0
 12  2  1  0
 14 13  1  0
 14 15  1  6
 15 16  1  0
 16 17  2  0
 17 18  1  0
 19 18  1  0
 20 19  2  0
 21 20  1  0
 22 23  1  0
 22 21  2  0
 23 24  2  0
 24 16  1  0
 24 19  1  0
 25 14  1  0
 26 25  2  0
 27 28  1  0
 29 28  1  6
 29 30  1  0
 30 25  1  0
 31 33  1  0
 31 29  1  0
 32 31  2  0
M  END
$$$$
