YWS.pdb
     RDKit          3D

 33 35  0  0  1  0  0  0  0  0999 V2000
    8.6321  -14.6141   13.2346 O   0  0  0  0  0  0  0  0  0  0  0  0
    8.6629  -14.3598   14.5964 C   0  0  0  0  0  0  0  0  0  0  0  0
    9.4075  -15.1962   15.4258 C   0  0  0  0  0  0  0  0  0  0  0  0
    9.4885  -15.0108   16.7861 C   0  0  0  0  0  0  0  0  0  0  0  0
    8.8001  -13.9451   17.3618 C   0  0  0  0  0  0  0  0  0  0  0  0
    8.9130  -13.7789   18.8284 C   0  0  0  0  0  0  0  0  0  0  0  0
    8.2338  -14.9541   19.5275 C   0  0  2  0  0  0  0  0  0  0  0  0
    6.8360  -15.0221   19.1551 N   0  0  0  0  0  0  0  0  0  0  0  0
    8.3721  -14.8219   20.9990 C   0  0  0  0  0  0  0  0  0  0  0  0
    8.8394  -13.7615   21.5208 O   0  0  0  0  0  0  0  0  0  0  0  0
    8.0646  -13.1204   16.5351 C   0  0  0  0  0  0  0  0  0  0  0  0
    7.9917  -13.3171   15.1744 C   0  0  0  0  0  0  0  0  0  0  0  0
    8.0031  -15.8424   21.9153 N   0  0  0  0  0  0  0  0  0  0  0  0
    8.2920  -15.7328   23.3241 C   0  0  1  0  0  0  0  0  0  0  0  0
    7.0045  -15.8832   24.0904 C   0  0  0  0  0  0  0  0  0  0  0  0
    7.2060  -15.5066   25.5297 C   0  0  0  0  0  0  0  0  0  0  0  0
    7.3831  -16.3648   26.6066 C   0  0  0  0  0  0  0  0  0  0  0  0
    7.5289  -15.6238   27.7187 N   0  0  0  0  0  0  0  0  0  0  0  0
    7.4580  -14.3116   27.4395 C   0  0  0  0  0  0  0  0  0  0  0  0
    7.5443  -13.1573   28.2065 C   0  0  0  0  0  0  0  0  0  0  0  0
    7.4228  -11.9337   27.5655 C   0  0  0  0  0  0  0  0  0  0  0  0
    7.2220  -11.8353   26.2088 C   0  0  0  0  0  0  0  0  0  0  0  0
    7.1425  -13.0065   25.4842 C   0  0  0  0  0  0  0  0  0  0  0  0
    7.2564  -14.2373   26.0732 C   0  0  0  0  0  0  0  0  0  0  0  0
    9.3424  -16.6676   23.7661 C   0  0  0  0  0  0  0  0  0  0  0  0
    9.2615  -17.8662   23.3938 O   0  0  0  0  0  0  0  0  0  0  0  0
   13.0517  -15.5228   24.6485 O   0  0  0  0  0  0  0  0  0  0  0  0
   12.7518  -16.8404   24.3565 C   0  0  0  0  0  0  0  0  0  0  0  0
   11.4157  -17.2335   24.9892 C   0  0  2  0  0  0  0  0  0  0  0  0
   10.4300  -16.2480   24.5927 N   0  0  0  0  0  0  0  0  0  0  0  0
   11.6019  -17.2799   26.4403 C   0  0  0  0  0  0  0  0  0  0  0  0
   12.4841  -18.0562   26.8975 O   0  0  0  0  0  0  0  0  0  0  0  0
   10.8738  -16.5287   27.3346 O   0  0  0  0  0  0  0  0  0  0  0  0
  2  1  1  0
  3  2  2  0
  4  3  1  0
  5 11  1  0
  5  4  2  0
  6  5  1  0
  7  6  1  0
  7  8  1  1
  9 13  1  0
  9  7  1  0
 10  9  2  0
 11 12  2  0
 12  2  1  0
 14 13  1  0
 14 15  1  1
 15 16  1  0
 16 17  2  0
 17 18  1  0
 19 18  1  0
 20 19  2  0
 21 20  1  0
 22 23  1  0
 22 21  2  0
 23 24  2  0
 24 16  1  0
 24 19  1  0
 25 14  1  0
 26 25  2  0
 27 28  1  0
 29 28  1  6
 29 30  1  0
 30 25  1  0
 31 33  1  0
 31 29  1  0
 32 31  2  0
M  END
$$$$
