YWS.pdb
     RDKit          3D

 33 35  0  0  1  0  0  0  0  0999 V2000
    6.8626  -12.8749   14.8894 O   0  0  0  0  0  0  0  0  0  0  0  0
    7.2070  -13.5220   16.0652 C   0  0  0  0  0  0  0  0  0  0  0  0
    7.0934  -12.8381   17.2741 C   0  0  0  0  0  0  0  0  0  0  0  0
    7.4151  -13.4098   18.4828 C   0  0  0  0  0  0  0  0  0  0  0  0
    7.8732  -14.7254   18.5037 C   0  0  0  0  0  0  0  0  0  0  0  0
    8.2083  -15.3050   19.8240 C   0  0  0  0  0  0  0  0  0  0  0  0
    9.4017  -14.5610   20.4183 C   0  0  2  0  0  0  0  0  0  0  0  0
   10.5612  -14.7035   19.5624 N   0  0  0  0  0  0  0  0  0  0  0  0
    9.6965  -15.0733   21.7794 C   0  0  0  0  0  0  0  0  0  0  0  0
   10.7425  -15.7572   22.0101 O   0  0  0  0  0  0  0  0  0  0  0  0
    7.9835  -15.3973   17.3034 C   0  0  0  0  0  0  0  0  0  0  0  0
    7.6581  -14.8132   16.0998 C   0  0  0  0  0  0  0  0  0  0  0  0
    8.8554  -14.8460   22.9010 N   0  0  0  0  0  0  0  0  0  0  0  0
    9.1924  -15.3461   24.2112 C   0  0  1  0  0  0  0  0  0  0  0  0
    8.0486  -15.0517   25.1453 C   0  0  0  0  0  0  0  0  0  0  0  0
    8.3833  -15.4996   26.5387 C   0  0  0  0  0  0  0  0  0  0  0  0
    7.9991  -16.6819   27.1570 C   0  0  0  0  0  0  0  0  0  0  0  0
    8.5086  -16.6939   28.4009 N   0  0  0  0  0  0  0  0  0  0  0  0
    9.2151  -15.5777   28.6460 C   0  0  0  0  0  0  0  0  0  0  0  0
    9.9251  -15.1084   29.7433 C   0  0  0  0  0  0  0  0  0  0  0  0
   10.5509  -13.8753   29.6403 C   0  0  0  0  0  0  0  0  0  0  0  0
   10.4875  -13.1159   28.4958 C   0  0  0  0  0  0  0  0  0  0  0  0
    9.7719  -13.6194   27.4293 C   0  0  0  0  0  0  0  0  0  0  0  0
    9.1375  -14.8314   27.4842 C   0  0  0  0  0  0  0  0  0  0  0  0
    9.5785  -16.7685   24.1977 C   0  0  0  0  0  0  0  0  0  0  0  0
    8.7743  -17.5943   23.6948 O   0  0  0  0  0  0  0  0  0  0  0  0
   13.1465  -18.1372   23.9325 O   0  0  0  0  0  0  0  0  0  0  0  0
   12.1381  -19.0826   23.9585 C   0  0  0  0  0  0  0  0  0  0  0  0
   11.0238  -18.6441   24.9105 C   0  0  2  0  0  0  0  0  0  0  0  0
   10.8241  -17.2197   24.7337 N   0  0  0  0  0  0  0  0  0  0  0  0
   11.4382  -18.9817   26.2732 C   0  0  0  0  0  0  0  0  0  0  0  0
   11.6865  -20.1905   26.5320 O   0  0  0  0  0  0  0  0  0  0  0  0
   11.5732  -18.0612   27.2875 O   0  0  0  0  0  0  0  0  0  0  0  0
  2  1  1  0
  3  2  2  0
  4  3  1  0
  5 11  1  0
  5  4  2  0
  6  5  1  0
  7  6  1  0
  7  8  1  6
  9 13  1  0
  9  7  1  0
 10  9  2  0
 11 12  2  0
 12  2  1  0
 14 13  1  0
 14 15  1  1
 15 16  1  0
 16 17  2  0
 17 18  1  0
 19 18  1  0
 20 19  2  0
 21 20  1  0
 22 23  1  0
 22 21  2  0
 23 24  2  0
 24 16  1  0
 24 19  1  0
 25 14  1  0
 26 25  2  0
 27 28  1  0
 29 28  1  6
 29 30  1  0
 30 25  1  0
 31 33  1  0
 31 29  1  0
 32 31  2  0
M  END
$$$$
