YWS.pdb
     RDKit          3D

 33 35  0  0  1  0  0  0  0  0999 V2000
    7.1384  -13.1392   16.2062 O   0  0  0  0  0  0  0  0  0  0  0  0
    7.6273  -13.3609   17.4836 C   0  0  0  0  0  0  0  0  0  0  0  0
    6.7413  -13.3567   18.5592 C   0  0  0  0  0  0  0  0  0  0  0  0
    7.1478  -13.5684   19.8558 C   0  0  0  0  0  0  0  0  0  0  0  0
    8.4988  -13.7968   20.1083 C   0  0  0  0  0  0  0  0  0  0  0  0
    8.8962  -14.0211   21.5165 C   0  0  0  0  0  0  0  0  0  0  0  0
    9.3791  -15.4596   21.6860 C   0  0  2  0  0  0  0  0  0  0  0  0
    8.3512  -16.3888   21.2653 N   0  0  0  0  0  0  0  0  0  0  0  0
    9.7553  -15.7085   23.0996 C   0  0  0  0  0  0  0  0  0  0  0  0
   10.6906  -15.0510   23.6546 O   0  0  0  0  0  0  0  0  0  0  0  0
    9.3711  -13.7998   19.0391 C   0  0  0  0  0  0  0  0  0  0  0  0
    8.9512  -13.5863   17.7453 C   0  0  0  0  0  0  0  0  0  0  0  0
    9.1170  -16.6752   23.9215 N   0  0  0  0  0  0  0  0  0  0  0  0
    9.4805  -16.8470   25.3067 C   0  0  1  0  0  0  0  0  0  0  0  0
    8.2200  -16.9758   26.1204 C   0  0  0  0  0  0  0  0  0  0  0  0
    7.3425  -15.7744   25.9184 C   0  0  0  0  0  0  0  0  0  0  0  0
    6.1335  -15.7209   25.2381 C   0  0  0  0  0  0  0  0  0  0  0  0
    5.6734  -14.4590   25.2914 N   0  0  0  0  0  0  0  0  0  0  0  0
    6.5149  -13.6648   25.9741 C   0  0  0  0  0  0  0  0  0  0  0  0
    6.5089  -12.3174   26.3101 C   0  0  0  0  0  0  0  0  0  0  0  0
    7.5738  -11.8208   27.0464 C   0  0  0  0  0  0  0  0  0  0  0  0
    8.6208  -12.6170   27.4469 C   0  0  0  0  0  0  0  0  0  0  0  0
    8.5872  -13.9496   27.0921 C   0  0  0  0  0  0  0  0  0  0  0  0
    7.5573  -14.4849   26.3659 C   0  0  0  0  0  0  0  0  0  0  0  0
   10.4222  -17.9614   25.5160 C   0  0  0  0  0  0  0  0  0  0  0  0
   10.1401  -19.0768   25.0081 O   0  0  0  0  0  0  0  0  0  0  0  0
   14.3375  -17.5386   26.5735 O   0  0  0  0  0  0  0  0  0  0  0  0
   13.8439  -18.7097   26.0292 C   0  0  0  0  0  0  0  0  0  0  0  0
   12.4284  -18.9788   26.5430 C   0  0  2  0  0  0  0  0  0  0  0  0
   11.6262  -17.8034   26.2695 N   0  0  0  0  0  0  0  0  0  0  0  0
   12.5178  -19.2692   27.9749 C   0  0  0  0  0  0  0  0  0  0  0  0
   11.8462  -18.5522   28.7654 O   0  0  0  0  0  0  0  0  0  0  0  0
   13.2890  -20.2758   28.5099 O   0  0  0  0  0  0  0  0  0  0  0  0
  2  1  1  0
  3  2  2  0
  4  3  1  0
  5 11  1  0
  5  4  2  0
  6  5  1  0
  7  6  1  0
  7  8  1  1
  9 13  1  0
  9  7  1  0
 10  9  2  0
 11 12  2  0
 12  2  1  0
 14 13  1  0
 14 15  1  1
 15 16  1  0
 16 17  2  0
 17 18  1  0
 19 18  1  0
 20 19  2  0
 21 20  1  0
 22 23  1  0
 22 21  2  0
 23 24  2  0
 24 16  1  0
 24 19  1  0
 25 14  1  0
 26 25  2  0
 27 28  1  0
 29 28  1  1
 29 30  1  0
 30 25  1  0
 31 33  1  0
 31 29  1  0
 32 31  2  0
M  END
$$$$
