YWS.pdb
     RDKit          3D

 33 35  0  0  1  0  0  0  0  0999 V2000
    7.0249  -13.3762   16.1715 O   0  0  0  0  0  0  0  0  0  0  0  0
    7.4437  -13.5569   17.4799 C   0  0  0  0  0  0  0  0  0  0  0  0
    6.5022  -13.8815   18.4546 C   0  0  0  0  0  0  0  0  0  0  0  0
    6.8377  -14.0768   19.7740 C   0  0  0  0  0  0  0  0  0  0  0  0
    8.1713  -13.9459   20.1552 C   0  0  0  0  0  0  0  0  0  0  0  0
    8.4920  -14.1647   21.5837 C   0  0  0  0  0  0  0  0  0  0  0  0
    9.2265  -15.4937   21.7426 C   0  0  2  0  0  0  0  0  0  0  0  0
    8.3873  -16.5888   21.3024 N   0  0  0  0  0  0  0  0  0  0  0  0
    9.6311  -15.6874   23.1571 C   0  0  0  0  0  0  0  0  0  0  0  0
   10.5573  -14.9884   23.6756 O   0  0  0  0  0  0  0  0  0  0  0  0
    9.0989  -13.6244   19.1854 C   0  0  0  0  0  0  0  0  0  0  0  0
    8.7498  -13.4314   17.8676 C   0  0  0  0  0  0  0  0  0  0  0  0
    9.0316  -16.6435   24.0194 N   0  0  0  0  0  0  0  0  0  0  0  0
    9.4803  -16.8206   25.3787 C   0  0  1  0  0  0  0  0  0  0  0  0
    8.2732  -16.8964   26.2757 C   0  0  0  0  0  0  0  0  0  0  0  0
    7.3334  -15.7624   25.9842 C   0  0  0  0  0  0  0  0  0  0  0  0
    6.0823  -15.8393   25.3874 C   0  0  0  0  0  0  0  0  0  0  0  0
    5.5723  -14.5978   25.3121 N   0  0  0  0  0  0  0  0  0  0  0  0
    6.4204  -13.6933   25.8292 C   0  0  0  0  0  0  0  0  0  0  0  0
    6.3775  -12.3148   25.9916 C   0  0  0  0  0  0  0  0  0  0  0  0
    7.4647  -11.6905   26.5841 C   0  0  0  0  0  0  0  0  0  0  0  0
    8.5687  -12.3914   27.0092 C   0  0  0  0  0  0  0  0  0  0  0  0
    8.5703  -13.7591   26.8291 C   0  0  0  0  0  0  0  0  0  0  0  0
    7.5203  -14.4192   26.2491 C   0  0  0  0  0  0  0  0  0  0  0  0
   10.3914  -17.9688   25.5344 C   0  0  0  0  0  0  0  0  0  0  0  0
    9.8841  -19.1062   25.7095 O   0  0  0  0  0  0  0  0  0  0  0  0
   14.2971  -17.7262   24.5017 O   0  0  0  0  0  0  0  0  0  0  0  0
   13.7126  -18.9771   24.5725 C   0  0  0  0  0  0  0  0  0  0  0  0
   12.6358  -18.9993   25.6588 C   0  0  2  0  0  0  0  0  0  0  0  0
   11.8120  -17.8190   25.4909 N   0  0  0  0  0  0  0  0  0  0  0  0
   13.3089  -19.0264   26.9583 C   0  0  0  0  0  0  0  0  0  0  0  0
   14.0892  -19.9872   27.1988 O   0  0  0  0  0  0  0  0  0  0  0  0
   13.1421  -18.0682   27.9321 O   0  0  0  0  0  0  0  0  0  0  0  0
  2  1  1  0
  3  2  2  0
  4  3  1  0
  5 11  1  0
  5  4  2  0
  6  5  1  0
  7  6  1  0
  7  8  1  1
  9 13  1  0
  9  7  1  0
 10  9  2  0
 11 12  2  0
 12  2  1  0
 14 13  1  0
 14 15  1  1
 15 16  1  0
 16 17  2  0
 17 18  1  0
 19 18  1  0
 20 19  2  0
 21 20  1  0
 22 23  1  0
 22 21  2  0
 23 24  2  0
 24 16  1  0
 24 19  1  0
 25 14  1  0
 26 25  2  0
 27 28  1  0
 29 28  1  6
 29 30  1  0
 30 25  1  0
 31 33  1  0
 31 29  1  0
 32 31  2  0
M  END
$$$$
