YWS.pdb
     RDKit          3D

 33 35  0  0  1  0  0  0  0  0999 V2000
   11.3436  -19.9821   31.6877 O   0  0  0  0  0  0  0  0  0  0  0  0
   11.0870  -19.4467   30.4357 C   0  0  0  0  0  0  0  0  0  0  0  0
   10.0516  -18.5253   30.2914 C   0  0  0  0  0  0  0  0  0  0  0  0
    9.7344  -17.9492   29.0835 C   0  0  0  0  0  0  0  0  0  0  0  0
   10.4758  -18.2982   27.9567 C   0  0  0  0  0  0  0  0  0  0  0  0
   10.1040  -17.6561   26.6758 C   0  0  0  0  0  0  0  0  0  0  0  0
    8.8392  -18.3114   26.1262 C   0  0  2  0  0  0  0  0  0  0  0  0
    8.9427  -19.7534   26.2082 N   0  0  0  0  0  0  0  0  0  0  0  0
    8.6132  -17.8872   24.7224 C   0  0  0  0  0  0  0  0  0  0  0  0
    8.8228  -18.6842   23.7549 O   0  0  0  0  0  0  0  0  0  0  0  0
   11.4998  -19.2111   28.1061 C   0  0  0  0  0  0  0  0  0  0  0  0
   11.8071  -19.7807   29.3214 C   0  0  0  0  0  0  0  0  0  0  0  0
    8.1572  -16.5921   24.3591 N   0  0  0  0  0  0  0  0  0  0  0  0
    8.2496  -16.1120   23.0022 C   0  0  1  0  0  0  0  0  0  0  0  0
    7.5476  -14.7827   22.9153 C   0  0  0  0  0  0  0  0  0  0  0  0
    6.9560  -14.4162   24.2457 C   0  0  0  0  0  0  0  0  0  0  0  0
    6.0783  -15.1708   25.0123 C   0  0  0  0  0  0  0  0  0  0  0  0
    5.7934  -14.4818   26.1308 N   0  0  0  0  0  0  0  0  0  0  0  0
    6.4371  -13.3028   26.1509 C   0  0  0  0  0  0  0  0  0  0  0  0
    6.4864  -12.2472   27.0519 C   0  0  0  0  0  0  0  0  0  0  0  0
    7.2813  -11.1550   26.7388 C   0  0  0  0  0  0  0  0  0  0  0  0
    8.0117  -11.0910   25.5756 C   0  0  0  0  0  0  0  0  0  0  0  0
    7.9342  -12.1610   24.7084 C   0  0  0  0  0  0  0  0  0  0  0  0
    7.1632  -13.2607   24.9745 C   0  0  0  0  0  0  0  0  0  0  0  0
    9.6364  -16.0689   22.5049 C   0  0  0  0  0  0  0  0  0  0  0  0
   10.5431  -15.7372   23.3107 O   0  0  0  0  0  0  0  0  0  0  0  0
   10.8481  -18.4009   19.6067 O   0  0  0  0  0  0  0  0  0  0  0  0
   11.7793  -17.8027   20.4352 C   0  0  0  0  0  0  0  0  0  0  0  0
   11.3595  -16.3673   20.7565 C   0  0  2  0  0  0  0  0  0  0  0  0
    9.9655  -16.3906   21.1519 N   0  0  0  0  0  0  0  0  0  0  0  0
   11.5836  -15.5549   19.5597 C   0  0  0  0  0  0  0  0  0  0  0  0
   12.7684  -15.4246   19.1483 O   0  0  0  0  0  0  0  0  0  0  0  0
   10.5813  -14.9259   18.8570 O   0  0  0  0  0  0  0  0  0  0  0  0
  2  1  1  0
  3  2  2  0
  4  3  1  0
  5 11  1  0
  5  4  2  0
  6  5  1  0
  7  6  1  0
  7  8  1  6
  9 13  1  0
  9  7  1  0
 10  9  2  0
 11 12  2  0
 12  2  1  0
 14 13  1  0
 14 15  1  1
 15 16  1  0
 16 17  2  0
 17 18  1  0
 19 18  1  0
 20 19  2  0
 21 20  1  0
 22 23  1  0
 22 21  2  0
 23 24  2  0
 24 16  1  0
 24 19  1  0
 25 14  1  0
 26 25  2  0
 27 28  1  0
 29 28  1  6
 29 30  1  0
 30 25  1  0
 31 33  1  0
 31 29  1  0
 32 31  2  0
M  END
$$$$
