YWS.pdb
     RDKit          3D

 33 35  0  0  1  0  0  0  0  0999 V2000
    7.6432  -13.4220   15.8501 O   0  0  0  0  0  0  0  0  0  0  0  0
    7.8784  -13.5748   17.2070 C   0  0  0  0  0  0  0  0  0  0  0  0
    9.1590  -13.9138   17.6395 C   0  0  0  0  0  0  0  0  0  0  0  0
    9.4726  -14.0835   18.9677 C   0  0  0  0  0  0  0  0  0  0  0  0
    8.4727  -13.9102   19.9223 C   0  0  0  0  0  0  0  0  0  0  0  0
    8.8502  -14.1009   21.3409 C   0  0  0  0  0  0  0  0  0  0  0  0
    9.1080  -15.5826   21.6041 C   0  0  2  0  0  0  0  0  0  0  0  0
    7.9257  -16.3615   21.2997 N   0  0  0  0  0  0  0  0  0  0  0  0
    9.5135  -15.7872   23.0167 C   0  0  0  0  0  0  0  0  0  0  0  0
   10.5199  -15.1830   23.5039 O   0  0  0  0  0  0  0  0  0  0  0  0
    7.2066  -13.5746   19.4877 C   0  0  0  0  0  0  0  0  0  0  0  0
    6.9057  -13.4077   18.1546 C   0  0  0  0  0  0  0  0  0  0  0  0
    8.8275  -16.6510   23.9114 N   0  0  0  0  0  0  0  0  0  0  0  0
    9.3043  -16.8817   25.2529 C   0  0  1  0  0  0  0  0  0  0  0  0
    8.1232  -16.8868   26.1870 C   0  0  0  0  0  0  0  0  0  0  0  0
    7.2780  -15.6654   25.9674 C   0  0  0  0  0  0  0  0  0  0  0  0
    6.0498  -15.5972   25.3237 C   0  0  0  0  0  0  0  0  0  0  0  0
    5.6318  -14.3198   25.3438 N   0  0  0  0  0  0  0  0  0  0  0  0
    6.5198  -13.5291   25.9693 C   0  0  0  0  0  0  0  0  0  0  0  0
    6.5673  -12.1708   26.2541 C   0  0  0  0  0  0  0  0  0  0  0  0
    7.6707  -11.6827   26.9375 C   0  0  0  0  0  0  0  0  0  0  0  0
    8.7046  -12.4976   27.3348 C   0  0  0  0  0  0  0  0  0  0  0  0
    8.6174  -13.8405   27.0318 C   0  0  0  0  0  0  0  0  0  0  0  0
    7.5479  -14.3681   26.3590 C   0  0  0  0  0  0  0  0  0  0  0  0
   10.1357  -18.0937   25.3630 C   0  0  0  0  0  0  0  0  0  0  0  0
    9.5853  -19.2076   25.1681 O   0  0  0  0  0  0  0  0  0  0  0  0
   14.1998  -17.9557   25.3978 O   0  0  0  0  0  0  0  0  0  0  0  0
   13.5752  -19.1486   25.0845 C   0  0  0  0  0  0  0  0  0  0  0  0
   12.2548  -19.2728   25.8468 C   0  0  2  0  0  0  0  0  0  0  0  0
   11.5278  -18.0304   25.6802 N   0  0  0  0  0  0  0  0  0  0  0  0
   12.5700  -19.5478   27.2496 C   0  0  0  0  0  0  0  0  0  0  0  0
   13.2518  -20.5758   27.5106 O   0  0  0  0  0  0  0  0  0  0  0  0
   12.1680  -18.7535   28.2993 O   0  0  0  0  0  0  0  0  0  0  0  0
  2  1  1  0
  3  2  2  0
  4  3  1  0
  5 11  1  0
  5  4  2  0
  6  5  1  0
  7  6  1  0
  7  8  1  1
  9 13  1  0
  9  7  1  0
 10  9  2  0
 11 12  2  0
 12  2  1  0
 14 13  1  0
 14 15  1  1
 15 16  1  0
 16 17  2  0
 17 18  1  0
 19 18  1  0
 20 19  2  0
 21 20  1  0
 22 23  1  0
 22 21  2  0
 23 24  2  0
 24 16  1  0
 24 19  1  0
 25 14  1  0
 26 25  2  0
 27 28  1  0
 29 28  1  6
 29 30  1  0
 30 25  1  0
 31 33  1  0
 31 29  1  0
 32 31  2  0
M  END
$$$$
