YWS.pdb
     RDKit          3D

 33 35  0  0  1  0  0  0  0  0999 V2000
    8.1885  -25.2785   17.8828 O   0  0  0  0  0  0  0  0  0  0  0  0
    8.4940  -24.1286   18.5930 C   0  0  0  0  0  0  0  0  0  0  0  0
    9.5322  -23.3124   18.1481 C   0  0  0  0  0  0  0  0  0  0  0  0
    9.8963  -22.1557   18.7968 C   0  0  0  0  0  0  0  0  0  0  0  0
    9.2017  -21.7814   19.9451 C   0  0  0  0  0  0  0  0  0  0  0  0
    9.6231  -20.5299   20.6139 C   0  0  0  0  0  0  0  0  0  0  0  0
    8.6727  -19.4000   20.2247 C   0  0  2  0  0  0  0  0  0  0  0  0
    8.7656  -19.1303   18.8050 N   0  0  0  0  0  0  0  0  0  0  0  0
    8.9858  -18.1778   21.0058 C   0  0  0  0  0  0  0  0  0  0  0  0
   10.0386  -17.5044   20.7754 O   0  0  0  0  0  0  0  0  0  0  0  0
    8.1746  -22.5938   20.3805 C   0  0  0  0  0  0  0  0  0  0  0  0
    7.8201  -23.7496   19.7218 C   0  0  0  0  0  0  0  0  0  0  0  0
    8.1559  -17.6780   22.0444 N   0  0  0  0  0  0  0  0  0  0  0  0
    8.4965  -16.4808   22.7730 C   0  0  1  0  0  0  0  0  0  0  0  0
    7.2269  -15.7372   23.0933 C   0  0  0  0  0  0  0  0  0  0  0  0
    7.5418  -14.4240   23.7496 C   0  0  0  0  0  0  0  0  0  0  0  0
    8.4138  -13.4442   23.2946 C   0  0  0  0  0  0  0  0  0  0  0  0
    8.4055  -12.4284   24.1749 N   0  0  0  0  0  0  0  0  0  0  0  0
    7.5708  -12.6797   25.1971 C   0  0  0  0  0  0  0  0  0  0  0  0
    7.2055  -11.9771   26.3378 C   0  0  0  0  0  0  0  0  0  0  0  0
    6.2881  -12.5584   27.2000 C   0  0  0  0  0  0  0  0  0  0  0  0
    5.7385  -13.7954   26.9578 C   0  0  0  0  0  0  0  0  0  0  0  0
    6.1286  -14.4591   25.8132 C   0  0  0  0  0  0  0  0  0  0  0  0
    7.0311  -13.9254   24.9327 C   0  0  0  0  0  0  0  0  0  0  0  0
    9.3253  -16.7518   23.9614 C   0  0  0  0  0  0  0  0  0  0  0  0
    8.9128  -17.6060   24.7871 O   0  0  0  0  0  0  0  0  0  0  0  0
   12.9959  -15.8057   23.6963 O   0  0  0  0  0  0  0  0  0  0  0  0
   12.8145  -16.0446   25.0458 C   0  0  0  0  0  0  0  0  0  0  0  0
   11.3760  -16.4882   25.3178 C   0  0  2  0  0  0  0  0  0  0  0  0
   10.5642  -16.0771   24.1900 N   0  0  0  0  0  0  0  0  0  0  0  0
   10.9429  -15.8658   26.5698 C   0  0  0  0  0  0  0  0  0  0  0  0
    9.9459  -15.0949   26.5317 O   0  0  0  0  0  0  0  0  0  0  0  0
   11.5568  -16.0708   27.7845 O   0  0  0  0  0  0  0  0  0  0  0  0
  2  1  1  0
  3  2  2  0
  4  3  1  0
  5 11  1  0
  5  4  2  0
  6  5  1  0
  7  6  1  0
  7  8  1  6
  9 13  1  0
  9  7  1  0
 10  9  2  0
 11 12  2  0
 12  2  1  0
 14 13  1  0
 14 15  1  1
 15 16  1  0
 16 17  2  0
 17 18  1  0
 19 18  1  0
 20 19  2  0
 21 20  1  0
 22 23  1  0
 22 21  2  0
 23 24  2  0
 24 16  1  0
 24 19  1  0
 25 14  1  0
 26 25  2  0
 27 28  1  0
 29 28  1  6
 29 30  1  0
 30 25  1  0
 31 33  1  0
 31 29  1  0
 32 31  2  0
M  END
$$$$
