YWS.pdb
     RDKit          3D

 33 35  0  0  1  0  0  0  0  0999 V2000
   12.5043  -21.4241   15.4707 O   0  0  0  0  0  0  0  0  0  0  0  0
   12.2311  -20.7584   16.6548 C   0  0  0  0  0  0  0  0  0  0  0  0
   13.1143  -19.7771   17.1006 C   0  0  0  0  0  0  0  0  0  0  0  0
   12.9141  -19.0723   18.2644 C   0  0  0  0  0  0  0  0  0  0  0  0
   11.7838  -19.3473   19.0312 C   0  0  0  0  0  0  0  0  0  0  0  0
   11.6036  -18.5670   20.2762 C   0  0  0  0  0  0  0  0  0  0  0  0
   10.8081  -17.2998   19.9718 C   0  0  2  0  0  0  0  0  0  0  0  0
   11.5550  -16.4385   19.0790 N   0  0  0  0  0  0  0  0  0  0  0  0
   10.4850  -16.5850   21.2314 C   0  0  0  0  0  0  0  0  0  0  0  0
   11.3415  -15.8367   21.7986 O   0  0  0  0  0  0  0  0  0  0  0  0
   10.9129  -20.3201   18.5844 C   0  0  0  0  0  0  0  0  0  0  0  0
   11.1251  -21.0187   17.4172 C   0  0  0  0  0  0  0  0  0  0  0  0
    9.2274  -16.6784   21.8846 N   0  0  0  0  0  0  0  0  0  0  0  0
    8.9768  -16.0123   23.1392 C   0  0  1  0  0  0  0  0  0  0  0  0
    7.5255  -15.6139   23.1887 C   0  0  0  0  0  0  0  0  0  0  0  0
    7.1795  -15.0677   24.5438 C   0  0  0  0  0  0  0  0  0  0  0  0
    6.6047  -15.7535   25.6052 C   0  0  0  0  0  0  0  0  0  0  0  0
    6.4626  -14.8995   26.6336 N   0  0  0  0  0  0  0  0  0  0  0  0
    6.9138  -13.6754   26.3129 C   0  0  0  0  0  0  0  0  0  0  0  0
    6.9946  -12.4689   26.9956 C   0  0  0  0  0  0  0  0  0  0  0  0
    7.5347  -11.3764   26.3341 C   0  0  0  0  0  0  0  0  0  0  0  0
    7.9861  -11.4559   25.0377 C   0  0  0  0  0  0  0  0  0  0  0  0
    7.8875  -12.6732   24.3963 C   0  0  0  0  0  0  0  0  0  0  0  0
    7.3616  -13.7792   25.0084 C   0  0  0  0  0  0  0  0  0  0  0  0
    9.3990  -16.8108   24.3040 C   0  0  0  0  0  0  0  0  0  0  0  0
    8.8941  -17.9531   24.4516 O   0  0  0  0  0  0  0  0  0  0  0  0
   12.6970  -15.7965   26.4414 O   0  0  0  0  0  0  0  0  0  0  0  0
   12.2858  -17.1164   26.4459 C   0  0  0  0  0  0  0  0  0  0  0  0
   10.7627  -17.1984   26.3300 C   0  0  2  0  0  0  0  0  0  0  0  0
   10.3521  -16.3231   25.2506 N   0  0  0  0  0  0  0  0  0  0  0  0
   10.1919  -16.7981   27.6171 C   0  0  0  0  0  0  0  0  0  0  0  0
    9.4048  -15.8132   27.6329 O   0  0  0  0  0  0  0  0  0  0  0  0
   10.4617  -17.4307   28.8093 O   0  0  0  0  0  0  0  0  0  0  0  0
  2  1  1  0
  3  2  2  0
  4  3  1  0
  5 11  1  0
  5  4  2  0
  6  5  1  0
  7  6  1  0
  7  8  1  6
  9 13  1  0
  9  7  1  0
 10  9  2  0
 11 12  2  0
 12  2  1  0
 14 13  1  0
 14 15  1  1
 15 16  1  0
 16 17  2  0
 17 18  1  0
 19 18  1  0
 20 19  2  0
 21 20  1  0
 22 23  1  0
 22 21  2  0
 23 24  2  0
 24 16  1  0
 24 19  1  0
 25 14  1  0
 26 25  2  0
 27 28  1  0
 29 28  1  1
 29 30  1  0
 30 25  1  0
 31 33  1  0
 31 29  1  0
 32 31  2  0
M  END
$$$$
