SCD.pdb
     RDKit          3D

 21 20  0  0  1  0  0  0  0  0999 V2000
   17.3906  -12.6338  -14.1767 O   0  0  0  0  0  0  0  0  0  0  0  0
   16.7490  -12.4367  -15.3951 C   0  0  0  0  0  0  0  0  0  0  0  0
   17.6897  -12.6265  -16.5676 C   0  0  2  0  0  0  0  0  0  0  0  0
   18.4673  -13.8255  -16.2525 N   0  0  0  0  0  0  0  0  0  0  0  0
   18.5923  -11.4973  -16.7680 C   0  0  0  0  0  0  0  0  0  0  0  0
   19.8214  -11.7097  -17.0068 O   0  0  0  0  0  0  0  0  0  0  0  0
   18.2136  -10.1289  -16.7203 N   0  0  0  0  0  0  0  0  0  0  0  0
   19.0986   -9.0522  -17.1181 C   0  0  1  0  0  0  0  0  0  0  0  0
   18.2879   -8.2349  -18.1412 C   0  0  0  0  0  0  0  0  0  0  0  0
   16.6619   -7.8101  -17.4915 S   0  0  0  0  0  0  0  0  0  0  0  0
   19.3799   -8.1156  -16.0142 C   0  0  0  0  0  0  0  0  0  0  0  0
   18.5953   -8.1163  -15.0250 O   0  0  0  0  0  0  0  0  0  0  0  0
   20.4661   -7.2226  -15.9956 N   0  0  0  0  0  0  0  0  0  0  0  0
   20.8031   -6.3373  -14.8778 C   0  0  1  0  0  0  0  0  0  0  0  0
   22.2031   -5.8487  -14.9774 C   0  0  0  0  0  0  0  0  0  0  0  0
   22.4983   -4.8700  -13.9194 C   0  0  0  0  0  0  0  0  0  0  0  0
   22.3369   -5.0414  -12.6857 O   0  0  0  0  0  0  0  0  0  0  0  0
   19.8772   -5.1567  -15.0449 C   0  0  0  0  0  0  0  0  0  0  0  0
   19.3393   -4.8810  -16.3101 O   0  0  0  0  0  0  0  0  0  0  0  0
   23.0164   -3.5893  -14.2414 O   0  0  0  0  0  0  0  0  0  0  0  0
   19.6050   -4.4462  -14.0588 O   0  0  0  0  0  0  0  0  0  0  0  0
  2  1  1  0
  3  2  1  0
  3  5  1  0
  3  4  1  1
  5  6  2  0
  7  8  1  0
  7  5  1  0
  8  9  1  6
 10  9  1  0
 11  8  1  0
 11 13  1  0
 12 11  2  0
 14 13  1  0
 14 15  1  6
 15 16  1  0
 16 20  1  0
 17 16  2  0
 18 14  1  0
 19 18  1  0
 21 18  2  0
M  END
$$$$
