SCD.pdb
     RDKit          3D

 21 20  0  0  1  0  0  0  0  0999 V2000
   15.5762  -12.8357  -10.4805 O   0  0  0  0  0  0  0  0  0  0  0  0
   15.6000  -11.5216  -10.9361 C   0  0  0  0  0  0  0  0  0  0  0  0
   14.7157  -10.6171  -10.1021 C   0  0  2  0  0  0  0  0  0  0  0  0
   13.3435  -10.9628  -10.4751 N   0  0  0  0  0  0  0  0  0  0  0  0
   14.9474   -9.1981  -10.3525 C   0  0  0  0  0  0  0  0  0  0  0  0
   14.3806   -8.6331  -11.3385 O   0  0  0  0  0  0  0  0  0  0  0  0
   15.7786   -8.3541   -9.5682 N   0  0  0  0  0  0  0  0  0  0  0  0
   15.9777   -6.9492   -9.8640 C   0  0  1  0  0  0  0  0  0  0  0  0
   15.6950   -6.2240   -8.5351 C   0  0  0  0  0  0  0  0  0  0  0  0
   13.9238   -6.0786   -8.2382 S   0  0  0  0  0  0  0  0  0  0  0  0
   17.3824   -6.6332  -10.1832 C   0  0  0  0  0  0  0  0  0  0  0  0
   18.2653   -6.9479   -9.3373 O   0  0  0  0  0  0  0  0  0  0  0  0
   17.7985   -6.0031  -11.3696 N   0  0  0  0  0  0  0  0  0  0  0  0
   19.1949   -5.7995  -11.7641 C   0  0  1  0  0  0  0  0  0  0  0  0
   19.7702   -7.0277  -12.3716 C   0  0  0  0  0  0  0  0  0  0  0  0
   21.1291   -6.7807  -12.8780 C   0  0  0  0  0  0  0  0  0  0  0  0
   21.5258   -6.9648  -14.0554 O   0  0  0  0  0  0  0  0  0  0  0  0
   19.1297   -4.7312  -12.8287 C   0  0  0  0  0  0  0  0  0  0  0  0
   20.2430   -3.9053  -13.0401 O   0  0  0  0  0  0  0  0  0  0  0  0
   22.1442   -6.2880  -12.0183 O   0  0  0  0  0  0  0  0  0  0  0  0
   18.0904   -4.5990  -13.5023 O   0  0  0  0  0  0  0  0  0  0  0  0
  2  1  1  0
  3  2  1  0
  3  5  1  0
  3  4  1  6
  5  6  2  0
  7  8  1  0
  7  5  1  0
  8  9  1  1
 10  9  1  0
 11  8  1  0
 11 13  1  0
 12 11  2  0
 14 13  1  0
 14 15  1  6
 15 16  1  0
 16 20  1  0
 17 16  2  0
 18 14  1  0
 19 18  1  0
 21 18  2  0
M  END
$$$$
