SCD.pdb
     RDKit          3D

 21 20  0  0  1  0  0  0  0  0999 V2000
   16.4268  -11.4803  -15.1404 O   0  0  0  0  0  0  0  0  0  0  0  0
   17.7078  -10.9870  -14.9156 C   0  0  0  0  0  0  0  0  0  0  0  0
   18.6434  -11.2952  -16.0669 C   0  0  2  0  0  0  0  0  0  0  0  0
   18.9292  -12.7267  -15.9635 N   0  0  0  0  0  0  0  0  0  0  0  0
   19.8922  -10.5422  -16.0091 C   0  0  0  0  0  0  0  0  0  0  0  0
   20.7181  -10.7657  -15.0705 O   0  0  0  0  0  0  0  0  0  0  0  0
   20.2893   -9.5439  -16.9386 N   0  0  0  0  0  0  0  0  0  0  0  0
   21.5344   -8.8110  -16.8237 C   0  0  1  0  0  0  0  0  0  0  0  0
   22.2243   -8.9920  -18.1887 C   0  0  0  0  0  0  0  0  0  0  0  0
   23.8792   -8.2797  -18.1799 S   0  0  0  0  0  0  0  0  0  0  0  0
   21.3237   -7.3577  -16.6893 C   0  0  0  0  0  0  0  0  0  0  0  0
   20.3966   -6.8305  -17.3651 O   0  0  0  0  0  0  0  0  0  0  0  0
   22.0909   -6.5237  -15.8564 N   0  0  0  0  0  0  0  0  0  0  0  0
   21.8956   -5.0789  -15.7096 C   0  0  1  0  0  0  0  0  0  0  0  0
   22.5202   -4.5727  -14.4597 C   0  0  0  0  0  0  0  0  0  0  0  0
   21.8038   -5.0659  -13.2731 C   0  0  0  0  0  0  0  0  0  0  0  0
   20.5823   -4.9089  -13.0268 O   0  0  0  0  0  0  0  0  0  0  0  0
   22.6341   -4.4815  -16.8829 C   0  0  0  0  0  0  0  0  0  0  0  0
   22.5470   -3.1018  -17.1172 O   0  0  0  0  0  0  0  0  0  0  0  0
   22.4862   -5.7961  -12.2664 O   0  0  0  0  0  0  0  0  0  0  0  0
   23.3085   -5.2211  -17.6242 O   0  0  0  0  0  0  0  0  0  0  0  0
  2  1  1  0
  3  2  1  0
  3  5  1  0
  3  4  1  1
  5  6  2  0
  7  8  1  0
  7  5  1  0
  8  9  1  6
 10  9  1  0
 11  8  1  0
 11 13  1  0
 12 11  2  0
 14 13  1  0
 14 15  1  1
 15 16  1  0
 16 20  1  0
 17 16  2  0
 18 14  1  0
 19 18  1  0
 21 18  2  0
M  END
$$$$
