SCD.pdb
     RDKit          3D

 21 20  0  0  1  0  0  0  0  0999 V2000
   25.8283  -22.4110  -13.3994 O   0  0  0  0  0  0  0  0  0  0  0  0
   26.6540  -21.7134  -12.5238 C   0  0  0  0  0  0  0  0  0  0  0  0
   25.9375  -20.5434  -11.8807 C   0  0  2  0  0  0  0  0  0  0  0  0
   24.8992  -21.1383  -11.0383 N   0  0  0  0  0  0  0  0  0  0  0  0
   25.3230  -19.6431  -12.8511 C   0  0  0  0  0  0  0  0  0  0  0  0
   24.0677  -19.4519  -12.8242 O   0  0  0  0  0  0  0  0  0  0  0  0
   26.0212  -18.9311  -13.8629 N   0  0  0  0  0  0  0  0  0  0  0  0
   25.3531  -18.1058  -14.8495 C   0  0  1  0  0  0  0  0  0  0  0  0
   26.4838  -17.3076  -15.5249 C   0  0  0  0  0  0  0  0  0  0  0  0
   28.0729  -17.6461  -14.7461 S   0  0  0  0  0  0  0  0  0  0  0  0
   24.7443  -18.9011  -15.9319 C   0  0  0  0  0  0  0  0  0  0  0  0
   25.2420  -20.0337  -16.1840 O   0  0  0  0  0  0  0  0  0  0  0  0
   23.6455  -18.4762  -16.7000 N   0  0  0  0  0  0  0  0  0  0  0  0
   22.4150  -19.2463  -16.8987 C   0  0  1  0  0  0  0  0  0  0  0  0
   21.8476  -19.7035  -15.6035 C   0  0  0  0  0  0  0  0  0  0  0  0
   20.6650  -20.5527  -15.8145 C   0  0  0  0  0  0  0  0  0  0  0  0
   20.0764  -20.7450  -16.9072 O   0  0  0  0  0  0  0  0  0  0  0  0
   21.4527  -18.2595  -17.5146 C   0  0  0  0  0  0  0  0  0  0  0  0
   21.5049  -16.9146  -17.1214 O   0  0  0  0  0  0  0  0  0  0  0  0
   20.0742  -21.2539  -14.7321 O   0  0  0  0  0  0  0  0  0  0  0  0
   20.6283  -18.6533  -18.3610 O   0  0  0  0  0  0  0  0  0  0  0  0
  2  1  1  0
  3  2  1  0
  3  5  1  0
  3  4  1  1
  5  6  2  0
  7  8  1  0
  7  5  1  0
  8  9  1  6
 10  9  1  0
 11  8  1  0
 11 13  1  0
 12 11  2  0
 14 13  1  0
 14 15  1  1
 15 16  1  0
 16 20  1  0
 17 16  2  0
 18 14  1  0
 19 18  1  0
 21 18  2  0
M  END
$$$$
