SCD.pdb
     RDKit          3D

 21 20  0  0  1  0  0  0  0  0999 V2000
   18.5766  -11.4316  -17.9087 O   0  0  0  0  0  0  0  0  0  0  0  0
   19.5340  -11.5499  -18.9109 C   0  0  0  0  0  0  0  0  0  0  0  0
   20.8172  -12.1711  -18.3976 C   0  0  2  0  0  0  0  0  0  0  0  0
   20.4398  -13.4993  -17.9130 N   0  0  0  0  0  0  0  0  0  0  0  0
   21.4291  -11.4107  -17.3127 C   0  0  0  0  0  0  0  0  0  0  0  0
   21.0637  -11.6199  -16.1145 O   0  0  0  0  0  0  0  0  0  0  0  0
   22.4345  -10.4200  -17.4738 N   0  0  0  0  0  0  0  0  0  0  0  0
   22.9345   -9.6188  -16.3742 C   0  0  1  0  0  0  0  0  0  0  0  0
   24.4628   -9.8043  -16.4161 C   0  0  0  0  0  0  0  0  0  0  0  0
   25.2724   -8.8156  -15.1459 S   0  0  0  0  0  0  0  0  0  0  0  0
   22.7166   -8.1753  -16.5828 C   0  0  0  0  0  0  0  0  0  0  0  0
   23.0972   -7.6728  -17.6767 O   0  0  0  0  0  0  0  0  0  0  0  0
   22.1125   -7.3250  -15.6395 N   0  0  0  0  0  0  0  0  0  0  0  0
   21.8190   -5.9062  -15.8582 C   0  0  1  0  0  0  0  0  0  0  0  0
   20.6616   -5.4605  -15.0396 C   0  0  0  0  0  0  0  0  0  0  0  0
   20.3561   -4.0423  -15.2833 C   0  0  0  0  0  0  0  0  0  0  0  0
   20.4476   -3.4432  -16.3835 O   0  0  0  0  0  0  0  0  0  0  0  0
   23.0522   -5.1896  -15.3633 C   0  0  0  0  0  0  0  0  0  0  0  0
   23.4935   -4.0408  -16.0354 O   0  0  0  0  0  0  0  0  0  0  0  0
   19.9107   -3.2054  -14.2282 O   0  0  0  0  0  0  0  0  0  0  0  0
   23.6584   -5.6282  -14.3677 O   0  0  0  0  0  0  0  0  0  0  0  0
  2  1  1  0
  3  2  1  0
  3  5  1  0
  3  4  1  1
  5  6  2  0
  7  8  1  0
  7  5  1  0
  8  9  1  6
 10  9  1  0
 11  8  1  0
 11 13  1  0
 12 11  2  0
 14 13  1  0
 14 15  1  1
 15 16  1  0
 16 20  1  0
 17 16  2  0
 18 14  1  0
 19 18  1  0
 21 18  2  0
M  END
$$$$
