SCD.pdb
     RDKit          3D

 21 20  0  0  1  0  0  0  0  0999 V2000
   19.8545   -9.8765  -14.2412 O   0  0  0  0  0  0  0  0  0  0  0  0
   18.7266   -9.1743  -13.8291 C   0  0  0  0  0  0  0  0  0  0  0  0
   17.7535  -10.0580  -13.0755 C   0  0  2  0  0  0  0  0  0  0  0  0
   17.1381  -10.9134  -14.0910 N   0  0  0  0  0  0  0  0  0  0  0  0
   16.7166   -9.3049  -12.3773 C   0  0  0  0  0  0  0  0  0  0  0  0
   15.8683   -8.6359  -13.0449 O   0  0  0  0  0  0  0  0  0  0  0  0
   16.5578   -9.2460  -10.9668 N   0  0  0  0  0  0  0  0  0  0  0  0
   15.4166   -8.6214  -10.3278 C   0  0  1  0  0  0  0  0  0  0  0  0
   14.9775   -9.6221   -9.2427 C   0  0  0  0  0  0  0  0  0  0  0  0
   14.0402  -10.9852   -9.9568 S   0  0  0  0  0  0  0  0  0  0  0  0
   15.7814   -7.3949   -9.5947 C   0  0  0  0  0  0  0  0  0  0  0  0
   16.7837   -7.4412   -8.8283 O   0  0  0  0  0  0  0  0  0  0  0  0
   15.0824   -6.1788   -9.6959 N   0  0  0  0  0  0  0  0  0  0  0  0
   15.5017   -4.9182   -9.0779 C   0  0  1  0  0  0  0  0  0  0  0  0
   15.7101   -3.8582  -10.0983 C   0  0  0  0  0  0  0  0  0  0  0  0
   15.9927   -2.5613   -9.4638 C   0  0  0  0  0  0  0  0  0  0  0  0
   16.7509   -2.3667   -8.4816 O   0  0  0  0  0  0  0  0  0  0  0  0
   14.3303   -4.5188   -8.2134 C   0  0  0  0  0  0  0  0  0  0  0  0
   13.1365   -5.2497   -8.2964 O   0  0  0  0  0  0  0  0  0  0  0  0
   15.3914   -1.3714   -9.9483 O   0  0  0  0  0  0  0  0  0  0  0  0
   14.4408   -3.5481   -7.4409 O   0  0  0  0  0  0  0  0  0  0  0  0
  2  1  1  0
  3  2  1  0
  3  5  1  0
  3  4  1  6
  5  6  2  0
  7  8  1  0
  7  5  1  0
  8  9  1  1
 10  9  1  0
 11  8  1  0
 11 13  1  0
 12 11  2  0
 14 13  1  0
 14 15  1  6
 15 16  1  0
 16 20  1  0
 17 16  2  0
 18 14  1  0
 19 18  1  0
 21 18  2  0
M  END
$$$$
