SCD.pdb
     RDKit          3D

 21 20  0  0  1  0  0  0  0  0999 V2000
   13.6885  -13.3779  -10.7719 O   0  0  0  0  0  0  0  0  0  0  0  0
   13.8010  -12.0375  -11.1265 C   0  0  0  0  0  0  0  0  0  0  0  0
   13.5143  -11.1168   -9.9579 C   0  0  2  0  0  0  0  0  0  0  0  0
   12.0585  -11.1181   -9.8094 N   0  0  0  0  0  0  0  0  0  0  0  0
   13.9822   -9.7515  -10.1746 C   0  0  0  0  0  0  0  0  0  0  0  0
   13.4020   -9.0170  -11.0330 O   0  0  0  0  0  0  0  0  0  0  0  0
   15.0668   -9.1401   -9.4905 N   0  0  0  0  0  0  0  0  0  0  0  0
   15.5220   -7.7945   -9.7786 C   0  0  1  0  0  0  0  0  0  0  0  0
   15.9099   -7.2091   -8.4079 C   0  0  0  0  0  0  0  0  0  0  0  0
   16.7237   -5.6120   -8.5903 S   0  0  0  0  0  0  0  0  0  0  0  0
   16.7661   -7.7768  -10.5702 C   0  0  0  0  0  0  0  0  0  0  0  0
   17.7073   -8.5363  -10.2079 O   0  0  0  0  0  0  0  0  0  0  0  0
   16.9688   -6.9667  -11.7018 N   0  0  0  0  0  0  0  0  0  0  0  0
   18.1664   -6.9916  -12.5456 C   0  0  1  0  0  0  0  0  0  0  0  0
   18.0432   -7.9998  -13.6304 C   0  0  0  0  0  0  0  0  0  0  0  0
   19.3667   -8.4033  -14.1303 C   0  0  0  0  0  0  0  0  0  0  0  0
   20.4406   -8.3885  -13.4792 O   0  0  0  0  0  0  0  0  0  0  0  0
   18.2068   -5.6206  -13.1763 C   0  0  0  0  0  0  0  0  0  0  0  0
   17.0198   -4.8829  -13.2896 O   0  0  0  0  0  0  0  0  0  0  0  0
   19.5284   -8.8642  -15.4621 O   0  0  0  0  0  0  0  0  0  0  0  0
   19.2914   -5.1657  -13.5861 O   0  0  0  0  0  0  0  0  0  0  0  0
  2  1  1  0
  3  2  1  0
  3  5  1  0
  3  4  1  6
  5  6  2  0
  7  8  1  0
  7  5  1  0
  8  9  1  1
 10  9  1  0
 11  8  1  0
 11 13  1  0
 12 11  2  0
 14 13  1  0
 14 15  1  6
 15 16  1  0
 16 20  1  0
 17 16  2  0
 18 14  1  0
 19 18  1  0
 21 18  2  0
M  END
$$$$
