SCD.pdb
     RDKit          3D

 21 20  0  0  1  0  0  0  0  0999 V2000
   17.8940  -12.7604  -18.8428 O   0  0  0  0  0  0  0  0  0  0  0  0
   18.1646  -12.0712  -17.6652 C   0  0  0  0  0  0  0  0  0  0  0  0
   19.6077  -12.2335  -17.2330 C   0  0  2  0  0  0  0  0  0  0  0  0
   19.6785  -13.5509  -16.5998 N   0  0  0  0  0  0  0  0  0  0  0  0
   20.0414  -11.2119  -16.2853 C   0  0  0  0  0  0  0  0  0  0  0  0
   19.6670  -11.2790  -15.0736 O   0  0  0  0  0  0  0  0  0  0  0  0
   20.8757  -10.1059  -16.5997 N   0  0  0  0  0  0  0  0  0  0  0  0
   21.2755   -9.1166  -15.6187 C   0  0  1  0  0  0  0  0  0  0  0  0
   22.8136   -9.1901  -15.5908 C   0  0  0  0  0  0  0  0  0  0  0  0
   23.5049   -7.9269  -14.5080 S   0  0  0  0  0  0  0  0  0  0  0  0
   20.9641   -7.7400  -16.0459 C   0  0  0  0  0  0  0  0  0  0  0  0
   21.3654   -7.3701  -17.1845 O   0  0  0  0  0  0  0  0  0  0  0  0
   20.2493   -6.8148  -15.2644 N   0  0  0  0  0  0  0  0  0  0  0  0
   19.9586   -5.4338  -15.6586 C   0  0  1  0  0  0  0  0  0  0  0  0
   18.5925   -5.0272  -15.2380 C   0  0  0  0  0  0  0  0  0  0  0  0
   18.3439   -3.6103  -15.5464 C   0  0  0  0  0  0  0  0  0  0  0  0
   18.7903   -2.9781  -16.5355 O   0  0  0  0  0  0  0  0  0  0  0  0
   20.9573   -4.6071  -14.8853 C   0  0  0  0  0  0  0  0  0  0  0  0
   21.8361   -5.2461  -13.9989 O   0  0  0  0  0  0  0  0  0  0  0  0
   17.5341   -2.8150  -14.6956 O   0  0  0  0  0  0  0  0  0  0  0  0
   20.9862   -3.3722  -15.0452 O   0  0  0  0  0  0  0  0  0  0  0  0
  2  1  1  0
  3  2  1  0
  3  5  1  0
  3  4  1  1
  5  6  2  0
  7  8  1  0
  7  5  1  0
  8  9  1  6
 10  9  1  0
 11  8  1  0
 11 13  1  0
 12 11  2  0
 14 13  1  0
 14 15  1  1
 15 16  1  0
 16 20  1  0
 17 16  2  0
 18 14  1  0
 19 18  1  0
 21 18  2  0
M  END
$$$$
