SCD.pdb
     RDKit          3D

 21 20  0  0  1  0  0  0  0  0999 V2000
   18.9086  -10.3605  -20.4524 O   0  0  0  0  0  0  0  0  0  0  0  0
   18.8698   -9.7262  -19.2151 C   0  0  0  0  0  0  0  0  0  0  0  0
   19.1156  -10.6935  -18.0750 C   0  0  2  0  0  0  0  0  0  0  0  0
   17.8548  -11.4150  -17.8981 N   0  0  0  0  0  0  0  0  0  0  0  0
   19.4780  -10.0295  -16.8270 C   0  0  0  0  0  0  0  0  0  0  0  0
   18.5716   -9.5084  -16.1060 O   0  0  0  0  0  0  0  0  0  0  0  0
   20.7994   -9.9053  -16.3202 N   0  0  0  0  0  0  0  0  0  0  0  0
   21.1149   -9.1623  -15.1164 C   0  0  1  0  0  0  0  0  0  0  0  0
   22.4509   -9.7531  -14.6288 C   0  0  0  0  0  0  0  0  0  0  0  0
   22.9980   -8.9552  -13.1088 S   0  0  0  0  0  0  0  0  0  0  0  0
   21.3995   -7.7411  -15.3885 C   0  0  0  0  0  0  0  0  0  0  0  0
   22.0471   -7.4585  -16.4349 O   0  0  0  0  0  0  0  0  0  0  0  0
   20.9953   -6.6827  -14.5553 N   0  0  0  0  0  0  0  0  0  0  0  0
   21.2265   -5.2629  -14.8336 C   0  0  1  0  0  0  0  0  0  0  0  0
   19.9485   -4.5061  -14.8838 C   0  0  0  0  0  0  0  0  0  0  0  0
   20.1860   -3.0865  -15.1881 C   0  0  0  0  0  0  0  0  0  0  0  0
   20.1498   -2.1368  -14.3670 O   0  0  0  0  0  0  0  0  0  0  0  0
   22.0192   -4.7741  -13.6455 C   0  0  0  0  0  0  0  0  0  0  0  0
   22.1765   -5.6142  -12.5339 O   0  0  0  0  0  0  0  0  0  0  0  0
   20.4902   -2.6698  -16.5094 O   0  0  0  0  0  0  0  0  0  0  0  0
   22.5209   -3.6344  -13.6696 O   0  0  0  0  0  0  0  0  0  0  0  0
  2  1  1  0
  3  2  1  0
  3  5  1  0
  3  4  1  1
  5  6  2  0
  7  8  1  0
  7  5  1  0
  8  9  1  6
 10  9  1  0
 11  8  1  0
 11 13  1  0
 12 11  2  0
 14 13  1  0
 14 15  1  1
 15 16  1  0
 16 20  1  0
 17 16  2  0
 18 14  1  0
 19 18  1  0
 21 18  2  0
M  END
$$$$
