SCD.pdb
     RDKit          3D

 21 20  0  0  1  0  0  0  0  0999 V2000
   19.3136  -11.5768  -19.4296 O   0  0  0  0  0  0  0  0  0  0  0  0
   18.9659  -10.8585  -18.2903 C   0  0  0  0  0  0  0  0  0  0  0  0
   19.7805  -11.2806  -17.0844 C   0  0  2  0  0  0  0  0  0  0  0  0
   18.9742  -12.2962  -16.4062 N   0  0  0  0  0  0  0  0  0  0  0  0
   20.0563  -10.1814  -16.1648 C   0  0  0  0  0  0  0  0  0  0  0  0
   19.0938   -9.5950  -15.5795 O   0  0  0  0  0  0  0  0  0  0  0  0
   21.3490   -9.6846  -15.8481 N   0  0  0  0  0  0  0  0  0  0  0  0
   21.5701   -8.6125  -14.8981 C   0  0  1  0  0  0  0  0  0  0  0  0
   22.7390   -9.0990  -14.0214 C   0  0  0  0  0  0  0  0  0  0  0  0
   22.2521  -10.5120  -13.0149 S   0  0  0  0  0  0  0  0  0  0  0  0
   22.0599   -7.3796  -15.5423 C   0  0  0  0  0  0  0  0  0  0  0  0
   22.9456   -7.4918  -16.4351 O   0  0  0  0  0  0  0  0  0  0  0  0
   21.6025   -6.0885  -15.2236 N   0  0  0  0  0  0  0  0  0  0  0  0
   22.0296   -4.8591  -15.8967 C   0  0  1  0  0  0  0  0  0  0  0  0
   21.0078   -4.3915  -16.8691 C   0  0  0  0  0  0  0  0  0  0  0  0
   21.3723   -3.0815  -17.4305 C   0  0  0  0  0  0  0  0  0  0  0  0
   22.4252   -2.4399  -17.1911 O   0  0  0  0  0  0  0  0  0  0  0  0
   22.1271   -3.8407  -14.7866 C   0  0  0  0  0  0  0  0  0  0  0  0
   21.6969   -4.1880  -13.4980 O   0  0  0  0  0  0  0  0  0  0  0  0
   20.5065   -2.4146  -18.3349 O   0  0  0  0  0  0  0  0  0  0  0  0
   22.5872   -2.7093  -15.0307 O   0  0  0  0  0  0  0  0  0  0  0  0
  2  1  1  0
  3  2  1  0
  3  5  1  0
  3  4  1  1
  5  6  2  0
  7  8  1  0
  7  5  1  0
  8  9  1  1
 10  9  1  0
 11  8  1  0
 11 13  1  0
 12 11  2  0
 14 13  1  0
 14 15  1  6
 15 16  1  0
 16 20  1  0
 17 16  2  0
 18 14  1  0
 19 18  1  0
 21 18  2  0
M  END
$$$$
