SCD.pdb
     RDKit          3D

 21 20  0  0  1  0  0  0  0  0999 V2000
   23.0332  -10.3658  -18.5886 O   0  0  0  0  0  0  0  0  0  0  0  0
   22.8042  -11.3396  -17.6221 C   0  0  0  0  0  0  0  0  0  0  0  0
   21.3323  -11.6756  -17.4946 C   0  0  2  0  0  0  0  0  0  0  0  0
   20.8953  -12.0289  -18.8459 N   0  0  0  0  0  0  0  0  0  0  0  0
   20.5303  -10.5625  -16.9971 C   0  0  0  0  0  0  0  0  0  0  0  0
   20.0001   -9.7528  -17.8194 O   0  0  0  0  0  0  0  0  0  0  0  0
   20.2749  -10.2863  -15.6271 N   0  0  0  0  0  0  0  0  0  0  0  0
   19.5618   -9.1060  -15.1810 C   0  0  1  0  0  0  0  0  0  0  0  0
   18.7649   -9.5710  -13.9480 C   0  0  0  0  0  0  0  0  0  0  0  0
   17.8596   -8.2017  -13.2051 S   0  0  0  0  0  0  0  0  0  0  0  0
   20.4671   -8.0553  -14.6798 C   0  0  0  0  0  0  0  0  0  0  0  0
   21.4739   -8.4146  -14.0079 O   0  0  0  0  0  0  0  0  0  0  0  0
   20.2782   -6.6797  -14.9030 N   0  0  0  0  0  0  0  0  0  0  0  0
   21.1866   -5.6248  -14.4459 C   0  0  1  0  0  0  0  0  0  0  0  0
   21.8182   -4.9204  -15.5918 C   0  0  0  0  0  0  0  0  0  0  0  0
   22.6529   -3.8007  -15.1294 C   0  0  0  0  0  0  0  0  0  0  0  0
   23.2477   -3.7265  -14.0257 O   0  0  0  0  0  0  0  0  0  0  0  0
   20.2900   -4.6468  -13.7256 C   0  0  0  0  0  0  0  0  0  0  0  0
   20.8635   -3.6824  -12.8846 O   0  0  0  0  0  0  0  0  0  0  0  0
   22.8543   -2.6605  -15.9490 O   0  0  0  0  0  0  0  0  0  0  0  0
   19.0569   -4.7106  -13.8882 O   0  0  0  0  0  0  0  0  0  0  0  0
  2  1  1  0
  3  2  1  0
  3  5  1  0
  3  4  1  6
  5  6  2  0
  7  8  1  0
  7  5  1  0
  8  9  1  1
 10  9  1  0
 11  8  1  0
 11 13  1  0
 12 11  2  0
 14 13  1  0
 14 15  1  6
 15 16  1  0
 16 20  1  0
 17 16  2  0
 18 14  1  0
 19 18  1  0
 21 18  2  0
M  END
$$$$
