SCD.pdb
     RDKit          3D

 21 20  0  0  1  0  0  0  0  0999 V2000
   16.8257   -9.8865  -15.8895 O   0  0  0  0  0  0  0  0  0  0  0  0
   17.4389   -9.9139  -17.1378 C   0  0  0  0  0  0  0  0  0  0  0  0
   18.8682  -10.4101  -17.0556 C   0  0  2  0  0  0  0  0  0  0  0  0
   18.7878  -11.7242  -16.4166 N   0  0  0  0  0  0  0  0  0  0  0  0
   19.7346   -9.5370  -16.2702 C   0  0  0  0  0  0  0  0  0  0  0  0
   19.6970   -9.5899  -15.0018 O   0  0  0  0  0  0  0  0  0  0  0  0
   20.6531   -8.5965  -16.8089 N   0  0  0  0  0  0  0  0  0  0  0  0
   21.4239   -7.6870  -15.9846 C   0  0  1  0  0  0  0  0  0  0  0  0
   22.8760   -7.8512  -16.4704 C   0  0  0  0  0  0  0  0  0  0  0  0
   23.9813   -6.7183  -15.6092 S   0  0  0  0  0  0  0  0  0  0  0  0
   21.0905   -6.2734  -16.2401 C   0  0  0  0  0  0  0  0  0  0  0  0
   21.1095   -5.8692  -17.4361 O   0  0  0  0  0  0  0  0  0  0  0  0
   20.7539   -5.3488  -15.2353 N   0  0  0  0  0  0  0  0  0  0  0  0
   20.3963   -3.9478  -15.4723 C   0  0  1  0  0  0  0  0  0  0  0  0
   19.5623   -3.4077  -14.3672 C   0  0  0  0  0  0  0  0  0  0  0  0
   19.1965   -2.0049  -14.6176 C   0  0  0  0  0  0  0  0  0  0  0  0
   18.5897   -1.5663  -15.6261 O   0  0  0  0  0  0  0  0  0  0  0  0
   21.7185   -3.2193  -15.4667 C   0  0  0  0  0  0  0  0  0  0  0  0
   21.8948   -2.1124  -16.3092 O   0  0  0  0  0  0  0  0  0  0  0  0
   19.5243   -0.9923  -13.6799 O   0  0  0  0  0  0  0  0  0  0  0  0
   22.6315   -3.6110  -14.7156 O   0  0  0  0  0  0  0  0  0  0  0  0
  2  1  1  0
  3  2  1  0
  3  5  1  0
  3  4  1  1
  5  6  2  0
  7  8  1  0
  7  5  1  0
  8  9  1  6
 10  9  1  0
 11  8  1  0
 11 13  1  0
 12 11  2  0
 14 13  1  0
 14 15  1  1
 15 16  1  0
 16 20  1  0
 17 16  2  0
 18 14  1  0
 19 18  1  0
 21 18  2  0
M  END
$$$$
