SCD.pdb
     RDKit          3D

 21 20  0  0  1  0  0  0  0  0999 V2000
   13.7953   -8.4176  -11.8916 O   0  0  0  0  0  0  0  0  0  0  0  0
   15.1137   -8.0586  -11.6310 C   0  0  0  0  0  0  0  0  0  0  0  0
   16.0716   -9.2074  -11.8726 C   0  0  2  0  0  0  0  0  0  0  0  0
   15.9018  -10.1030  -10.7279 N   0  0  0  0  0  0  0  0  0  0  0  0
   17.4655   -8.7839  -11.9592 C   0  0  0  0  0  0  0  0  0  0  0  0
   18.0254   -8.2544  -10.9497 O   0  0  0  0  0  0  0  0  0  0  0  0
   18.2896   -8.9122  -13.1093 N   0  0  0  0  0  0  0  0  0  0  0  0
   19.6534   -8.4242  -13.1598 C   0  0  1  0  0  0  0  0  0  0  0  0
   20.4096   -9.4589  -14.0137 C   0  0  0  0  0  0  0  0  0  0  0  0
   22.1454   -9.0099  -14.1925 S   0  0  0  0  0  0  0  0  0  0  0  0
   19.7715   -7.1544  -13.9004 C   0  0  0  0  0  0  0  0  0  0  0  0
   19.1400   -7.0444  -14.9881 O   0  0  0  0  0  0  0  0  0  0  0  0
   20.5436   -6.0603  -13.4709 N   0  0  0  0  0  0  0  0  0  0  0  0
   20.6222   -4.7693  -14.1595 C   0  0  1  0  0  0  0  0  0  0  0  0
   19.9625   -3.6951  -13.3725 C   0  0  0  0  0  0  0  0  0  0  0  0
   19.9322   -2.4311  -14.1245 C   0  0  0  0  0  0  0  0  0  0  0  0
   20.2779   -2.2727  -15.3216 O   0  0  0  0  0  0  0  0  0  0  0  0
   22.1005   -4.4696  -14.2225 C   0  0  0  0  0  0  0  0  0  0  0  0
   23.0092   -5.3824  -13.6682 O   0  0  0  0  0  0  0  0  0  0  0  0
   19.4834   -1.2336  -13.5107 O   0  0  0  0  0  0  0  0  0  0  0  0
   22.4907   -3.4184  -14.7646 O   0  0  0  0  0  0  0  0  0  0  0  0
  2  1  1  0
  3  2  1  0
  3  5  1  0
  3  4  1  1
  5  6  2  0
  7  8  1  0
  7  5  1  0
  8  9  1  6
 10  9  1  0
 11  8  1  0
 11 13  1  0
 12 11  2  0
 14 13  1  0
 14 15  1  1
 15 16  1  0
 16 20  1  0
 17 16  2  0
 18 14  1  0
 19 18  1  0
 21 18  2  0
M  END
$$$$
