SCD.pdb
     RDKit          3D

 21 20  0  0  1  0  0  0  0  0999 V2000
   16.9088  -13.8723  -13.3759 O   0  0  0  0  0  0  0  0  0  0  0  0
   17.3709  -12.6497  -13.8520 C   0  0  0  0  0  0  0  0  0  0  0  0
   17.1874  -12.5198  -15.3504 C   0  0  2  0  0  0  0  0  0  0  0  0
   18.0006  -13.5862  -15.9360 N   0  0  0  0  0  0  0  0  0  0  0  0
   17.6247  -11.2291  -15.8725 C   0  0  0  0  0  0  0  0  0  0  0  0
   18.4905  -11.1871  -16.8007 O   0  0  0  0  0  0  0  0  0  0  0  0
   17.1565   -9.9646  -15.4252 N   0  0  0  0  0  0  0  0  0  0  0  0
   17.5749   -8.7127  -16.0239 C   0  0  1  0  0  0  0  0  0  0  0  0
   16.2627   -7.9900  -16.3811 C   0  0  0  0  0  0  0  0  0  0  0  0
   15.6003   -8.5827  -17.9484 S   0  0  0  0  0  0  0  0  0  0  0  0
   18.2528   -7.8251  -15.0608 C   0  0  0  0  0  0  0  0  0  0  0  0
   17.7922   -7.7665  -13.8867 O   0  0  0  0  0  0  0  0  0  0  0  0
   19.3785   -7.0406  -15.3692 N   0  0  0  0  0  0  0  0  0  0  0  0
   20.1027   -6.2020  -14.4104 C   0  0  1  0  0  0  0  0  0  0  0  0
   21.5733   -6.3514  -14.5634 C   0  0  0  0  0  0  0  0  0  0  0  0
   22.2943   -5.4726  -13.6296 C   0  0  0  0  0  0  0  0  0  0  0  0
   22.8850   -4.4041  -13.9242 O   0  0  0  0  0  0  0  0  0  0  0  0
   19.7284   -4.7903  -14.7923 C   0  0  0  0  0  0  0  0  0  0  0  0
   19.8149   -3.7740  -13.8301 O   0  0  0  0  0  0  0  0  0  0  0  0
   22.3755   -5.7925  -12.2500 O   0  0  0  0  0  0  0  0  0  0  0  0
   19.3490   -4.5491  -15.9538 O   0  0  0  0  0  0  0  0  0  0  0  0
  2  1  1  0
  3  2  1  0
  3  5  1  0
  3  4  1  6
  5  6  2  0
  7  8  1  0
  7  5  1  0
  8  9  1  1
 10  9  1  0
 11  8  1  0
 11 13  1  0
 12 11  2  0
 14 13  1  0
 14 15  1  6
 15 16  1  0
 16 20  1  0
 17 16  2  0
 18 14  1  0
 19 18  1  0
 21 18  2  0
M  END
$$$$
