SCD.pdb
     RDKit          3D

 21 20  0  0  1  0  0  0  0  0999 V2000
   15.6675  -12.8337  -12.4625 O   0  0  0  0  0  0  0  0  0  0  0  0
   15.2974  -11.4976  -12.3487 C   0  0  0  0  0  0  0  0  0  0  0  0
   14.6329  -11.2055  -11.0188 C   0  0  2  0  0  0  0  0  0  0  0  0
   13.2866  -11.7694  -11.1242 N   0  0  0  0  0  0  0  0  0  0  0  0
   14.5434   -9.7792  -10.7229 C   0  0  0  0  0  0  0  0  0  0  0  0
   13.6610   -9.0716  -11.3003 O   0  0  0  0  0  0  0  0  0  0  0  0
   15.3811   -9.0781   -9.8146 N   0  0  0  0  0  0  0  0  0  0  0  0
   15.3105   -7.6428   -9.6252 C   0  0  1  0  0  0  0  0  0  0  0  0
   15.9211   -7.3999   -8.2323 C   0  0  0  0  0  0  0  0  0  0  0  0
   16.0470   -5.6381   -7.8764 S   0  0  0  0  0  0  0  0  0  0  0  0
   16.1812   -6.9065  -10.5604 C   0  0  0  0  0  0  0  0  0  0  0  0
   17.3175   -7.3934  -10.8168 O   0  0  0  0  0  0  0  0  0  0  0  0
   15.8247   -5.6968  -11.1828 N   0  0  0  0  0  0  0  0  0  0  0  0
   16.6492   -4.9846  -12.1625 C   0  0  1  0  0  0  0  0  0  0  0  0
   16.3752   -5.4559  -13.5450 C   0  0  0  0  0  0  0  0  0  0  0  0
   17.1528   -4.6877  -14.5296 C   0  0  0  0  0  0  0  0  0  0  0  0
   17.9781   -3.7763  -14.2735 O   0  0  0  0  0  0  0  0  0  0  0  0
   16.1989   -3.5478  -12.0547 C   0  0  0  0  0  0  0  0  0  0  0  0
   14.9129   -3.2668  -11.5716 O   0  0  0  0  0  0  0  0  0  0  0  0
   17.0141   -4.9402  -15.9186 O   0  0  0  0  0  0  0  0  0  0  0  0
   16.9744   -2.6347  -12.3957 O   0  0  0  0  0  0  0  0  0  0  0  0
  2  1  1  0
  3  2  1  0
  3  5  1  0
  3  4  1  6
  5  6  2  0
  7  8  1  0
  7  5  1  0
  8  9  1  1
 10  9  1  0
 11  8  1  0
 11 13  1  0
 12 11  2  0
 14 13  1  0
 14 15  1  6
 15 16  1  0
 16 20  1  0
 17 16  2  0
 18 14  1  0
 19 18  1  0
 21 18  2  0
M  END
$$$$
