MSP.pdb
     RDKit          3D

 22 22  0  0  1  0  0  0  0  0999 V2000
   17.1155  -21.2448  -14.4443 C   0  0  0  0  0  0  0  0  0  0  0  0
   17.9358  -20.4359  -15.8052 S   0  0  0  0  0  0  0  0  0  0  0  0
   19.7092  -20.6545  -15.8832 C   0  0  0  0  0  0  0  0  0  0  0  0
   20.4354  -19.8639  -14.8505 C   0  0  0  0  0  0  0  0  0  0  0  0
   20.9169  -20.7347  -13.7281 C   0  0  2  0  0  0  0  0  0  0  0  0
   20.0887  -20.5902  -12.5462 N   0  0  0  0  0  0  0  0  0  0  0  0
   22.3197  -20.3477  -13.3540 C   0  0  0  0  0  0  0  0  0  0  0  0
   22.5355  -19.2896  -12.7025 O   0  0  0  0  0  0  0  0  0  0  0  0
   24.8802  -23.0757  -13.0179 O   0  0  0  0  0  0  0  0  0  0  0  0
   25.2476  -21.8439  -12.4170 C   0  0  0  0  0  0  0  0  0  0  0  0
   24.7815  -20.7648  -13.3783 C   0  0  2  0  0  0  0  0  0  0  0  0
   23.4011  -21.1596  -13.7259 N   0  0  0  0  0  0  0  0  0  0  0  0
   25.5535  -20.7057  -14.6267 C   0  0  0  0  0  0  0  0  0  0  0  0
   25.1123  -21.3647  -15.6439 O   0  0  0  0  0  0  0  0  0  0  0  0
   26.7565  -19.9843  -14.8346 N   0  0  0  0  0  0  0  0  0  0  0  0
   27.3453  -19.1321  -13.7760 C   0  0  0  0  0  0  0  0  0  0  0  0
   27.8319  -17.9811  -14.6737 C   0  0  0  0  0  0  0  0  0  0  0  0
   28.5865  -18.7908  -15.6980 C   0  0  0  0  0  0  0  0  0  0  0  0
   27.5832  -19.9154  -15.9989 C   0  0  1  0  0  0  0  0  0  0  0  0
   28.3208  -21.1806  -16.2520 C   0  0  0  0  0  0  0  0  0  0  0  0
   28.3626  -22.0395  -15.3577 O   0  0  0  0  0  0  0  0  0  0  0  0
   28.9509  -21.4078  -17.4539 O   0  0  0  0  0  0  0  0  0  0  0  0
  2  1  1  0
  3  2  1  0
  4  3  1  0
  4  5  1  0
  5  7  1  0
  5  6  1  1
  7  8  2  0
  9 10  1  0
 11 10  1  1
 11 13  1  0
 12 11  1  0
 12  7  1  0
 13 15  1  0
 14 13  2  0
 15 19  1  0
 15 16  1  0
 16 17  1  0
 18 17  1  0
 19 18  1  0
 20 22  1  0
 19 20  1  1
 21 20  2  0
M  END
$$$$
