MSP.pdb
     RDKit          3D

 22 22  0  0  1  0  0  0  0  0999 V2000
   27.7372  -35.7110  -13.6186 C   0  0  0  0  0  0  0  0  0  0  0  0
   26.6634  -34.5150  -14.3904 S   0  0  0  0  0  0  0  0  0  0  0  0
   27.4616  -33.0363  -15.0028 C   0  0  0  0  0  0  0  0  0  0  0  0
   28.7018  -33.3262  -15.7754 C   0  0  0  0  0  0  0  0  0  0  0  0
   29.0151  -32.2270  -16.7467 C   0  0  2  0  0  0  0  0  0  0  0  0
   28.0408  -32.1677  -17.8195 N   0  0  0  0  0  0  0  0  0  0  0  0
   30.3629  -32.4681  -17.3654 C   0  0  0  0  0  0  0  0  0  0  0  0
   30.4654  -33.1492  -18.4219 O   0  0  0  0  0  0  0  0  0  0  0  0
   34.9637  -31.2437  -17.5453 O   0  0  0  0  0  0  0  0  0  0  0  0
   33.7029  -31.0450  -16.9255 C   0  0  0  0  0  0  0  0  0  0  0  0
   32.8482  -32.2266  -17.3489 C   0  0  2  0  0  0  0  0  0  0  0  0
   31.5186  -31.9378  -16.7736 N   0  0  0  0  0  0  0  0  0  0  0  0
   33.2982  -33.5134  -16.8015 C   0  0  0  0  0  0  0  0  0  0  0  0
   33.0027  -33.7873  -15.5762 O   0  0  0  0  0  0  0  0  0  0  0  0
   34.0373  -34.5060  -17.4939 N   0  0  0  0  0  0  0  0  0  0  0  0
   34.4041  -34.3492  -18.9202 C   0  0  0  0  0  0  0  0  0  0  0  0
   34.2012  -35.8111  -19.3553 C   0  0  0  0  0  0  0  0  0  0  0  0
   35.0225  -36.4861  -18.2857 C   0  0  0  0  0  0  0  0  0  0  0  0
   34.5355  -35.7600  -17.0218 C   0  0  1  0  0  0  0  0  0  0  0  0
   35.6695  -35.6043  -16.0738 C   0  0  0  0  0  0  0  0  0  0  0  0
   36.1542  -34.4758  -15.8988 O   0  0  0  0  0  0  0  0  0  0  0  0
   36.1824  -36.6860  -15.3952 O   0  0  0  0  0  0  0  0  0  0  0  0
  2  1  1  0
  3  2  1  0
  4  3  1  0
  4  5  1  0
  5  7  1  0
  5  6  1  6
  7  8  2  0
  9 10  1  0
 11 10  1  1
 11 13  1  0
 12 11  1  0
 12  7  1  0
 13 15  1  0
 14 13  2  0
 15 19  1  0
 15 16  1  0
 16 17  1  0
 18 17  1  0
 19 18  1  0
 20 22  1  0
 19 20  1  1
 21 20  2  0
M  END
$$$$
