MSP.pdb
     RDKit          3D

 22 22  0  0  1  0  0  0  0  0999 V2000
   29.6252  -20.4738   -5.3141 C   0  0  0  0  0  0  0  0  0  0  0  0
   28.3294  -19.2738   -5.0692 S   0  0  0  0  0  0  0  0  0  0  0  0
   27.4026  -18.8230   -6.5309 C   0  0  0  0  0  0  0  0  0  0  0  0
   27.3196  -19.9277   -7.5267 C   0  0  0  0  0  0  0  0  0  0  0  0
   25.9299  -20.0747   -8.0716 C   0  0  2  0  0  0  0  0  0  0  0  0
   25.0774  -20.8223   -7.1671 N   0  0  0  0  0  0  0  0  0  0  0  0
   25.9747  -20.8173   -9.3770 C   0  0  0  0  0  0  0  0  0  0  0  0
   26.4590  -21.9805   -9.4310 O   0  0  0  0  0  0  0  0  0  0  0  0
   23.2919  -20.1662  -11.9352 O   0  0  0  0  0  0  0  0  0  0  0  0
   24.0377  -21.3696  -12.0305 C   0  0  0  0  0  0  0  0  0  0  0  0
   25.4876  -20.9700  -11.8213 C   0  0  2  0  0  0  0  0  0  0  0  0
   25.4783  -20.2234  -10.5466 N   0  0  0  0  0  0  0  0  0  0  0  0
   26.0129  -20.0711  -12.8577 C   0  0  0  0  0  0  0  0  0  0  0  0
   25.8808  -18.8002  -12.6815 O   0  0  0  0  0  0  0  0  0  0  0  0
   26.6640  -20.4627  -14.0550 N   0  0  0  0  0  0  0  0  0  0  0  0
   27.0489  -21.8706  -14.3064 C   0  0  0  0  0  0  0  0  0  0  0  0
   28.3967  -21.6036  -14.9991 C   0  0  0  0  0  0  0  0  0  0  0  0
   27.9332  -20.6021  -16.0269 C   0  0  0  0  0  0  0  0  0  0  0  0
   27.0648  -19.6657  -15.1720 C   0  0  1  0  0  0  0  0  0  0  0  0
   25.9104  -19.1897  -15.9782 C   0  0  0  0  0  0  0  0  0  0  0  0
   24.8000  -19.7146  -15.8035 O   0  0  0  0  0  0  0  0  0  0  0  0
   26.0577  -18.1843  -16.9061 O   0  0  0  0  0  0  0  0  0  0  0  0
  2  1  1  0
  3  2  1  0
  4  3  1  0
  4  5  1  0
  5  7  1  0
  5  6  1  1
  7  8  2  0
  9 10  1  0
 11 10  1  6
 11 13  1  0
 12 11  1  0
 12  7  1  0
 13 15  1  0
 14 13  2  0
 15 19  1  0
 15 16  1  0
 16 17  1  0
 18 17  1  0
 19 18  1  0
 20 22  1  0
 19 20  1  6
 21 20  2  0
M  END
$$$$
