MSP.pdb
     RDKit          3D

 22 22  0  0  1  0  0  0  0  0999 V2000
   26.2199  -20.8063   -7.7077 C   0  0  0  0  0  0  0  0  0  0  0  0
   24.4855  -20.7955   -8.1210 S   0  0  0  0  0  0  0  0  0  0  0  0
   24.0943  -21.1186   -9.8361 C   0  0  0  0  0  0  0  0  0  0  0  0
   24.8574  -20.2516  -10.7767 C   0  0  0  0  0  0  0  0  0  0  0  0
   25.8908  -21.0339  -11.5316 C   0  0  2  0  0  0  0  0  0  0  0  0
   26.9709  -21.4675  -10.6660 N   0  0  0  0  0  0  0  0  0  0  0  0
   26.4862  -20.1751  -12.6111 C   0  0  0  0  0  0  0  0  0  0  0  0
   27.3706  -19.3212  -12.3295 O   0  0  0  0  0  0  0  0  0  0  0  0
   27.5159  -19.7453  -17.1849 O   0  0  0  0  0  0  0  0  0  0  0  0
   26.9178  -20.4944  -16.1388 C   0  0  0  0  0  0  0  0  0  0  0  0
   26.6871  -19.5068  -15.0087 C   0  0  2  0  0  0  0  0  0  0  0  0
   26.0638  -20.3156  -13.9411 N   0  0  0  0  0  0  0  0  0  0  0  0
   25.7541  -18.4233  -15.3460 C   0  0  0  0  0  0  0  0  0  0  0  0
   24.4897  -18.6657  -15.2673 O   0  0  0  0  0  0  0  0  0  0  0  0
   26.1058  -17.1122  -15.7562 N   0  0  0  0  0  0  0  0  0  0  0  0
   27.4892  -16.6004  -15.6234 C   0  0  0  0  0  0  0  0  0  0  0  0
   27.1453  -15.1578  -15.2135 C   0  0  0  0  0  0  0  0  0  0  0  0
   26.1689  -14.8314  -16.3155 C   0  0  0  0  0  0  0  0  0  0  0  0
   25.2848  -16.0884  -16.3233 C   0  0  1  0  0  0  0  0  0  0  0  0
   24.8725  -16.3936  -17.7183 C   0  0  0  0  0  0  0  0  0  0  0  0
   25.4782  -17.2781  -18.3428 O   0  0  0  0  0  0  0  0  0  0  0  0
   23.8377  -15.7136  -18.3185 O   0  0  0  0  0  0  0  0  0  0  0  0
  2  1  1  0
  3  2  1  0
  4  3  1  0
  4  5  1  0
  5  7  1  0
  5  6  1  1
  7  8  2  0
  9 10  1  0
 11 10  1  6
 11 13  1  0
 12 11  1  0
 12  7  1  0
 13 15  1  0
 14 13  2  0
 15 19  1  0
 15 16  1  0
 16 17  1  0
 18 17  1  0
 19 18  1  0
 20 22  1  0
 19 20  1  6
 21 20  2  0
M  END
$$$$
