MSP.pdb
     RDKit          3D

 22 22  0  0  1  0  0  0  0  0999 V2000
   22.7628  -21.8677   -5.8093 C   0  0  0  0  0  0  0  0  0  0  0  0
   23.8819  -22.0130   -7.1897 S   0  0  0  0  0  0  0  0  0  0  0  0
   24.8423  -20.5522   -7.5674 C   0  0  0  0  0  0  0  0  0  0  0  0
   25.7759  -20.7533   -8.7106 C   0  0  0  0  0  0  0  0  0  0  0  0
   25.1313  -20.3968  -10.0172 C   0  0  2  0  0  0  0  0  0  0  0  0
   24.0514  -21.3074  -10.3467 N   0  0  0  0  0  0  0  0  0  0  0  0
   26.1482  -20.4747  -11.1205 C   0  0  0  0  0  0  0  0  0  0  0  0
   27.2542  -21.0491  -10.9269 O   0  0  0  0  0  0  0  0  0  0  0  0
   25.8163  -21.8739  -14.6007 O   0  0  0  0  0  0  0  0  0  0  0  0
   26.8820  -21.5815  -13.7106 C   0  0  0  0  0  0  0  0  0  0  0  0
   26.8304  -20.0801  -13.4899 C   0  0  2  0  0  0  0  0  0  0  0  0
   25.8765  -19.9094  -12.3749 N   0  0  0  0  0  0  0  0  0  0  0  0
   26.3092  -19.3270  -14.6384 C   0  0  0  0  0  0  0  0  0  0  0  0
   25.0301  -19.2638  -14.7918 O   0  0  0  0  0  0  0  0  0  0  0  0
   27.0812  -18.6478  -15.6150 N   0  0  0  0  0  0  0  0  0  0  0  0
   28.5614  -18.6353  -15.5658 C   0  0  0  0  0  0  0  0  0  0  0  0
   28.7785  -17.1827  -16.0246 C   0  0  0  0  0  0  0  0  0  0  0  0
   27.9214  -17.2022  -17.2653 C   0  0  0  0  0  0  0  0  0  0  0  0
   26.6483  -17.8895  -16.7470 C   0  0  1  0  0  0  0  0  0  0  0  0
   26.0752  -18.7423  -17.8209 C   0  0  0  0  0  0  0  0  0  0  0  0
   25.4919  -18.1985  -18.7714 O   0  0  0  0  0  0  0  0  0  0  0  0
   26.1831  -20.1132  -17.7736 O   0  0  0  0  0  0  0  0  0  0  0  0
  2  1  1  0
  3  2  1  0
  4  3  1  0
  4  5  1  0
  5  7  1  0
  5  6  1  6
  7  8  2  0
  9 10  1  0
 11 10  1  6
 11 13  1  0
 12 11  1  0
 12  7  1  0
 13 15  1  0
 14 13  2  0
 15 19  1  0
 15 16  1  0
 16 17  1  0
 18 17  1  0
 19 18  1  0
 20 22  1  0
 19 20  1  6
 21 20  2  0
M  END
$$$$
