MSP.pdb
     RDKit          3D

 22 22  0  0  1  0  0  0  0  0999 V2000
   20.3945  -21.3303  -13.5036 C   0  0  0  0  0  0  0  0  0  0  0  0
   20.0186  -19.9830  -12.3978 S   0  0  0  0  0  0  0  0  0  0  0  0
   21.3898  -19.3707  -11.4264 C   0  0  0  0  0  0  0  0  0  0  0  0
   22.2756  -20.4587  -10.9259 C   0  0  0  0  0  0  0  0  0  0  0  0
   23.6770  -20.3076  -11.4387 C   0  0  2  0  0  0  0  0  0  0  0  0
   23.8325  -20.9020  -12.7526 N   0  0  0  0  0  0  0  0  0  0  0  0
   24.6332  -20.9982  -10.5079 C   0  0  0  0  0  0  0  0  0  0  0  0
   24.7588  -22.2527  -10.5407 O   0  0  0  0  0  0  0  0  0  0  0  0
   28.3758  -20.3144   -9.8903 O   0  0  0  0  0  0  0  0  0  0  0  0
   27.4610  -21.3910   -9.7580 C   0  0  0  0  0  0  0  0  0  0  0  0
   26.4163  -20.9199   -8.7617 C   0  0  2  0  0  0  0  0  0  0  0  0
   25.3942  -20.2539   -9.5947 N   0  0  0  0  0  0  0  0  0  0  0  0
   26.9163  -19.9304   -7.7979 C   0  0  0  0  0  0  0  0  0  0  0  0
   26.9739  -18.6968   -8.1704 O   0  0  0  0  0  0  0  0  0  0  0  0
   27.3498  -20.1951   -6.4738 N   0  0  0  0  0  0  0  0  0  0  0  0
   27.3730  -21.5698   -5.9232 C   0  0  0  0  0  0  0  0  0  0  0  0
   26.9095  -21.2359   -4.4945 C   0  0  0  0  0  0  0  0  0  0  0  0
   27.8867  -20.1290   -4.1878 C   0  0  0  0  0  0  0  0  0  0  0  0
   27.8058  -19.2854   -5.4698 C   0  0  1  0  0  0  0  0  0  0  0  0
   29.1468  -18.7219   -5.7756 C   0  0  0  0  0  0  0  0  0  0  0  0
   29.7992  -19.2027   -6.7149 O   0  0  0  0  0  0  0  0  0  0  0  0
   29.6671  -17.6842   -5.0367 O   0  0  0  0  0  0  0  0  0  0  0  0
  2  1  1  0
  3  2  1  0
  4  3  1  0
  4  5  1  0
  5  7  1  0
  5  6  1  6
  7  8  2  0
  9 10  1  0
 11 10  1  6
 11 13  1  0
 12 11  1  0
 12  7  1  0
 13 15  1  0
 14 13  2  0
 15 19  1  0
 15 16  1  0
 16 17  1  0
 18 17  1  0
 19 18  1  0
 20 22  1  0
 19 20  1  6
 21 20  2  0
M  END
$$$$
