MSP.pdb
     RDKit          3D

 22 22  0  0  1  0  0  0  0  0999 V2000
   16.1353  -14.8781  -20.3313 C   0  0  0  0  0  0  0  0  0  0  0  0
   16.1012  -13.5475  -19.1449 S   0  0  0  0  0  0  0  0  0  0  0  0
   17.4342  -13.5364  -17.9525 C   0  0  0  0  0  0  0  0  0  0  0  0
   17.4095  -12.3379  -17.0683 C   0  0  0  0  0  0  0  0  0  0  0  0
   18.5364  -12.3603  -16.0787 C   0  0  2  0  0  0  0  0  0  0  0  0
   18.4781  -13.5340  -15.2285 N   0  0  0  0  0  0  0  0  0  0  0  0
   18.4556  -11.1492  -15.1931 C   0  0  0  0  0  0  0  0  0  0  0  0
   17.7140  -11.1554  -14.1730 O   0  0  0  0  0  0  0  0  0  0  0  0
   21.3269   -8.8623  -15.0756 O   0  0  0  0  0  0  0  0  0  0  0  0
   20.3777   -8.5118  -14.0809 C   0  0  0  0  0  0  0  0  0  0  0  0
   19.0173   -8.7654  -14.7062 C   0  0  2  0  0  0  0  0  0  0  0  0
   19.2040  -10.0017  -15.4930 N   0  0  0  0  0  0  0  0  0  0  0  0
   18.5821   -7.7118  -15.6327 C   0  0  0  0  0  0  0  0  0  0  0  0
   18.9896   -7.7731  -16.8549 O   0  0  0  0  0  0  0  0  0  0  0  0
   17.7431   -6.6128  -15.3173 N   0  0  0  0  0  0  0  0  0  0  0  0
   17.0268   -6.5272  -14.0239 C   0  0  0  0  0  0  0  0  0  0  0  0
   15.7120   -5.9228  -14.5470 C   0  0  0  0  0  0  0  0  0  0  0  0
   16.2848   -4.7711  -15.3343 C   0  0  0  0  0  0  0  0  0  0  0  0
   17.4234   -5.4614  -16.1019 C   0  0  1  0  0  0  0  0  0  0  0  0
   18.5690   -4.5239  -16.2345 C   0  0  0  0  0  0  0  0  0  0  0  0
   19.5807   -4.7115  -15.5414 O   0  0  0  0  0  0  0  0  0  0  0  0
   18.5209   -3.4617  -17.1080 O   0  0  0  0  0  0  0  0  0  0  0  0
  2  1  1  0
  3  2  1  0
  4  3  1  0
  4  5  1  0
  5  7  1  0
  5  6  1  1
  7  8  2  0
  9 10  1  0
 11 10  1  6
 11 13  1  0
 12 11  1  0
 12  7  1  0
 13 15  1  0
 14 13  2  0
 15 19  1  0
 15 16  1  0
 16 17  1  0
 18 17  1  0
 19 18  1  0
 20 22  1  0
 19 20  1  1
 21 20  2  0
M  END
$$$$
