MSP.pdb
     RDKit          3D

 22 22  0  0  1  0  0  0  0  0999 V2000
   18.7236   -9.3787  -21.1400 C   0  0  0  0  0  0  0  0  0  0  0  0
   18.3261  -11.1146  -21.2262 S   0  0  0  0  0  0  0  0  0  0  0  0
   19.1600  -12.1617  -20.0400 C   0  0  0  0  0  0  0  0  0  0  0  0
   19.6200  -11.4175  -18.8344 C   0  0  0  0  0  0  0  0  0  0  0  0
   20.3576  -12.3123  -17.8831 C   0  0  2  0  0  0  0  0  0  0  0  0
   19.5684  -13.4740  -17.5209 N   0  0  0  0  0  0  0  0  0  0  0  0
   20.6704  -11.5598  -16.6207 C   0  0  0  0  0  0  0  0  0  0  0  0
   19.8094  -11.4702  -15.7036 O   0  0  0  0  0  0  0  0  0  0  0  0
   24.3303  -10.1756  -16.2446 O   0  0  0  0  0  0  0  0  0  0  0  0
   23.7223  -10.4675  -14.9962 C   0  0  0  0  0  0  0  0  0  0  0  0
   22.2362  -10.2315  -15.1998 C   0  0  2  0  0  0  0  0  0  0  0  0
   21.9223  -10.9508  -16.4514 N   0  0  0  0  0  0  0  0  0  0  0  0
   21.8791   -8.8204  -15.3980 C   0  0  0  0  0  0  0  0  0  0  0  0
   21.9751   -8.3322  -16.5879 O   0  0  0  0  0  0  0  0  0  0  0  0
   21.4297   -7.9214  -14.3975 N   0  0  0  0  0  0  0  0  0  0  0  0
   21.2285   -8.3550  -12.9957 C   0  0  0  0  0  0  0  0  0  0  0  0
   19.9593   -7.5373  -12.6989 C   0  0  0  0  0  0  0  0  0  0  0  0
   20.4429   -6.1854  -13.1601 C   0  0  0  0  0  0  0  0  0  0  0  0
   21.0934   -6.5363  -14.5076 C   0  0  1  0  0  0  0  0  0  0  0  0
   22.2850   -5.6738  -14.7202 C   0  0  0  0  0  0  0  0  0  0  0  0
   22.1177   -4.4672  -14.9553 O   0  0  0  0  0  0  0  0  0  0  0  0
   23.5580   -6.1928  -14.6597 O   0  0  0  0  0  0  0  0  0  0  0  0
  2  1  1  0
  3  2  1  0
  4  3  1  0
  4  5  1  0
  5  7  1  0
  5  6  1  1
  7  8  2  0
  9 10  1  0
 11 10  1  6
 11 13  1  0
 12 11  1  0
 12  7  1  0
 13 15  1  0
 14 13  2  0
 15 19  1  0
 15 16  1  0
 16 17  1  0
 18 17  1  0
 19 18  1  0
 20 22  1  0
 19 20  1  1
 21 20  2  0
M  END
$$$$
