MSP.pdb
     RDKit          3D

 22 22  0  0  1  0  0  0  0  0999 V2000
   28.8838  -19.8167   -4.5777 C   0  0  0  0  0  0  0  0  0  0  0  0
   27.8131  -18.6849   -5.4448 S   0  0  0  0  0  0  0  0  0  0  0  0
   27.5977  -19.0041   -7.1914 C   0  0  0  0  0  0  0  0  0  0  0  0
   27.0862  -20.3751   -7.4701 C   0  0  0  0  0  0  0  0  0  0  0  0
   25.6207  -20.3618   -7.7893 C   0  0  2  0  0  0  0  0  0  0  0  0
   24.8644  -21.1832   -6.8635 N   0  0  0  0  0  0  0  0  0  0  0  0
   25.3993  -20.9077   -9.1715 C   0  0  0  0  0  0  0  0  0  0  0  0
   25.5426  -22.1398   -9.3994 O   0  0  0  0  0  0  0  0  0  0  0  0
   22.6100  -21.4459  -11.2489 O   0  0  0  0  0  0  0  0  0  0  0  0
   23.2916  -20.3287  -11.7972 C   0  0  0  0  0  0  0  0  0  0  0  0
   24.7684  -20.5974  -11.5675 C   0  0  2  0  0  0  0  0  0  0  0  0
   25.0315  -20.0520  -10.2201 N   0  0  0  0  0  0  0  0  0  0  0  0
   25.6540  -19.8993  -12.5090 C   0  0  0  0  0  0  0  0  0  0  0  0
   25.8521  -18.6371  -12.3326 O   0  0  0  0  0  0  0  0  0  0  0  0
   26.3282  -20.4805  -13.6130 N   0  0  0  0  0  0  0  0  0  0  0  0
   26.3541  -21.9460  -13.8249 C   0  0  0  0  0  0  0  0  0  0  0  0
   27.8029  -22.0637  -14.3296 C   0  0  0  0  0  0  0  0  0  0  0  0
   27.7611  -21.0022  -15.4000 C   0  0  0  0  0  0  0  0  0  0  0  0
   27.0690  -19.8473  -14.6589 C   0  0  1  0  0  0  0  0  0  0  0  0
   26.1986  -19.1036  -15.6066 C   0  0  0  0  0  0  0  0  0  0  0  0
   24.9775  -19.3229  -15.5976 O   0  0  0  0  0  0  0  0  0  0  0  0
   26.7259  -18.1844  -16.4843 O   0  0  0  0  0  0  0  0  0  0  0  0
  2  1  1  0
  3  2  1  0
  4  3  1  0
  4  5  1  0
  5  7  1  0
  5  6  1  1
  7  8  2  0
  9 10  1  0
 11 10  1  6
 11 13  1  0
 12 11  1  0
 12  7  1  0
 13 15  1  0
 14 13  2  0
 15 19  1  0
 15 16  1  0
 16 17  1  0
 18 17  1  0
 19 18  1  0
 20 22  1  0
 19 20  1  6
 21 20  2  0
M  END
$$$$
