MSP.pdb
     RDKit          3D

 22 22  0  0  1  0  0  0  0  0999 V2000
   17.6848  -10.3751  -21.1004 C   0  0  0  0  0  0  0  0  0  0  0  0
   19.1980  -11.3124  -20.9968 S   0  0  0  0  0  0  0  0  0  0  0  0
   19.7743  -11.6757  -19.3432 C   0  0  0  0  0  0  0  0  0  0  0  0
   19.3846  -10.6335  -18.3528 C   0  0  0  0  0  0  0  0  0  0  0  0
   19.8842  -10.9660  -16.9781 C   0  0  2  0  0  0  0  0  0  0  0  0
   19.2364  -12.1495  -16.4456 N   0  0  0  0  0  0  0  0  0  0  0  0
   19.5923   -9.8254  -16.0446 C   0  0  0  0  0  0  0  0  0  0  0  0
   18.4369   -9.6788  -15.5608 O   0  0  0  0  0  0  0  0  0  0  0  0
   22.1990   -8.7412  -13.7799 O   0  0  0  0  0  0  0  0  0  0  0  0
   20.9165   -8.2227  -13.4638 C   0  0  0  0  0  0  0  0  0  0  0  0
   20.3121   -7.7910  -14.7882 C   0  0  2  0  0  0  0  0  0  0  0  0
   20.6022   -8.9140  -15.7031 N   0  0  0  0  0  0  0  0  0  0  0  0
   20.9268   -6.5847  -15.3582 C   0  0  0  0  0  0  0  0  0  0  0  0
   21.9700   -6.7300  -16.1029 O   0  0  0  0  0  0  0  0  0  0  0  0
   20.4835   -5.2505  -15.1722 N   0  0  0  0  0  0  0  0  0  0  0  0
   19.2056   -4.9436  -14.4896 C   0  0  0  0  0  0  0  0  0  0  0  0
   18.7673   -3.7646  -15.3759 C   0  0  0  0  0  0  0  0  0  0  0  0
   20.0346   -2.9493  -15.3183 C   0  0  0  0  0  0  0  0  0  0  0  0
   21.1025   -4.0252  -15.5709 C   0  0  1  0  0  0  0  0  0  0  0  0
   22.3171   -3.7124  -14.7735 C   0  0  0  0  0  0  0  0  0  0  0  0
   22.4505   -4.2325  -13.6550 O   0  0  0  0  0  0  0  0  0  0  0  0
   23.2849   -2.8617  -15.2563 O   0  0  0  0  0  0  0  0  0  0  0  0
  2  1  1  0
  3  2  1  0
  4  3  1  0
  4  5  1  0
  5  7  1  0
  5  6  1  1
  7  8  2  0
  9 10  1  0
 11 10  1  1
 11 13  1  0
 12 11  1  0
 12  7  1  0
 13 15  1  0
 14 13  2  0
 15 19  1  0
 15 16  1  0
 16 17  1  0
 18 17  1  0
 19 18  1  0
 20 22  1  0
 19 20  1  1
 21 20  2  0
M  END
$$$$
