MSP.pdb
     RDKit          3D

 22 22  0  0  1  0  0  0  0  0999 V2000
   17.4644  -17.9524  -19.9768 C   0  0  0  0  0  0  0  0  0  0  0  0
   18.7611  -17.3683  -18.9014 S   0  0  0  0  0  0  0  0  0  0  0  0
   18.4219  -15.8405  -18.0356 C   0  0  0  0  0  0  0  0  0  0  0  0
   19.5510  -15.4049  -17.1671 C   0  0  0  0  0  0  0  0  0  0  0  0
   20.8060  -15.1924  -17.9606 C   0  0  2  0  0  0  0  0  0  0  0  0
   21.5672  -16.4196  -18.0960 N   0  0  0  0  0  0  0  0  0  0  0  0
   21.6793  -14.1865  -17.2656 C   0  0  0  0  0  0  0  0  0  0  0  0
   22.4542  -14.5491  -16.3390 O   0  0  0  0  0  0  0  0  0  0  0  0
   24.3990  -10.5258  -17.7412 O   0  0  0  0  0  0  0  0  0  0  0  0
   23.4573  -11.4535  -18.2569 C   0  0  0  0  0  0  0  0  0  0  0  0
   22.6089  -11.8771  -17.0710 C   0  0  2  0  0  0  0  0  0  0  0  0
   21.6404  -12.8358  -17.6413 N   0  0  0  0  0  0  0  0  0  0  0  0
   21.8424  -10.7801  -16.4651 C   0  0  0  0  0  0  0  0  0  0  0  0
   20.7332  -10.4342  -17.0251 O   0  0  0  0  0  0  0  0  0  0  0  0
   22.2016  -10.0479  -15.3050 N   0  0  0  0  0  0  0  0  0  0  0  0
   23.3447  -10.4507  -14.4539 C   0  0  0  0  0  0  0  0  0  0  0  0
   22.7198  -10.1220  -13.0867 C   0  0  0  0  0  0  0  0  0  0  0  0
   22.2664   -8.7126  -13.3733 C   0  0  0  0  0  0  0  0  0  0  0  0
   21.5957   -8.8799  -14.7459 C   0  0  1  0  0  0  0  0  0  0  0  0
   21.8366   -7.6633  -15.5649 C   0  0  0  0  0  0  0  0  0  0  0  0
   22.6770   -7.7106  -16.4763 O   0  0  0  0  0  0  0  0  0  0  0  0
   21.1456   -6.4975  -15.3264 O   0  0  0  0  0  0  0  0  0  0  0  0
  2  1  1  0
  3  2  1  0
  4  3  1  0
  4  5  1  0
  5  7  1  0
  5  6  1  1
  7  8  2  0
  9 10  1  0
 11 10  1  6
 11 13  1  0
 12 11  1  0
 12  7  1  0
 13 15  1  0
 14 13  2  0
 15 19  1  0
 15 16  1  0
 16 17  1  0
 18 17  1  0
 19 18  1  0
 20 22  1  0
 19 20  1  6
 21 20  2  0
M  END
$$$$
