MSP.pdb
     RDKit          3D

 22 22  0  0  1  0  0  0  0  0999 V2000
   16.7914  -11.4381  -22.4804 C   0  0  0  0  0  0  0  0  0  0  0  0
   17.1460  -10.6388  -20.9265 S   0  0  0  0  0  0  0  0  0  0  0  0
   18.4165  -11.4081  -19.9301 C   0  0  0  0  0  0  0  0  0  0  0  0
   18.7164  -10.6461  -18.6858 C   0  0  0  0  0  0  0  0  0  0  0  0
   19.8229  -11.2862  -17.9012 C   0  0  2  0  0  0  0  0  0  0  0  0
   19.4579  -12.6151  -17.4487 N   0  0  0  0  0  0  0  0  0  0  0  0
   20.1266  -10.4564  -16.6860 C   0  0  0  0  0  0  0  0  0  0  0  0
   19.3923  -10.5329  -15.6635 O   0  0  0  0  0  0  0  0  0  0  0  0
   23.6272   -9.5936  -16.0477 O   0  0  0  0  0  0  0  0  0  0  0  0
   22.7966   -9.3388  -14.9258 C   0  0  0  0  0  0  0  0  0  0  0  0
   21.5126   -8.7576  -15.4909 C   0  0  2  0  0  0  0  0  0  0  0  0
   21.2291   -9.5896  -16.6783 N   0  0  0  0  0  0  0  0  0  0  0  0
   21.6380   -7.3660  -15.9444 C   0  0  0  0  0  0  0  0  0  0  0  0
   21.9966   -7.1563  -17.1655 O   0  0  0  0  0  0  0  0  0  0  0  0
   21.4001   -6.2059  -15.1643 N   0  0  0  0  0  0  0  0  0  0  0  0
   20.8190   -6.2887  -13.8045 C   0  0  0  0  0  0  0  0  0  0  0  0
   19.9211   -5.0414  -13.8792 C   0  0  0  0  0  0  0  0  0  0  0  0
   20.9481   -4.0462  -14.3579 C   0  0  0  0  0  0  0  0  0  0  0  0
   21.6338   -4.8328  -15.4861 C   0  0  1  0  0  0  0  0  0  0  0  0
   23.0800   -4.4913  -15.5179 C   0  0  0  0  0  0  0  0  0  0  0  0
   23.8692   -5.1599  -14.8329 O   0  0  0  0  0  0  0  0  0  0  0  0
   23.5484   -3.4532  -16.2902 O   0  0  0  0  0  0  0  0  0  0  0  0
  2  1  1  0
  3  2  1  0
  4  3  1  0
  4  5  1  0
  5  7  1  0
  5  6  1  1
  7  8  2  0
  9 10  1  0
 11 10  1  6
 11 13  1  0
 12 11  1  0
 12  7  1  0
 13 15  1  0
 14 13  2  0
 15 19  1  0
 15 16  1  0
 16 17  1  0
 18 17  1  0
 19 18  1  0
 20 22  1  0
 19 20  1  1
 21 20  2  0
M  END
$$$$
