MSP.pdb
     RDKit          3D

 22 22  0  0  1  0  0  0  0  0999 V2000
   15.4261   -3.9623   -6.9870 C   0  0  0  0  0  0  0  0  0  0  0  0
   14.1047   -5.1162   -6.6684 S   0  0  0  0  0  0  0  0  0  0  0  0
   13.7913   -6.3133   -7.9596 C   0  0  0  0  0  0  0  0  0  0  0  0
   15.0346   -6.9641   -8.4592 C   0  0  0  0  0  0  0  0  0  0  0  0
   14.7599   -7.8372   -9.6475 C   0  0  2  0  0  0  0  0  0  0  0  0
   14.0072   -9.0209   -9.2786 N   0  0  0  0  0  0  0  0  0  0  0  0
   16.0583   -8.2907  -10.2525 C   0  0  0  0  0  0  0  0  0  0  0  0
   16.3808   -9.5097  -10.2269 O   0  0  0  0  0  0  0  0  0  0  0  0
   16.7020   -9.2708  -13.5719 O   0  0  0  0  0  0  0  0  0  0  0  0
   16.5208   -7.9421  -13.1079 C   0  0  0  0  0  0  0  0  0  0  0  0
   17.6321   -7.7054  -12.1006 C   0  0  2  0  0  0  0  0  0  0  0  0
   16.9228   -7.3626  -10.8510 N   0  0  0  0  0  0  0  0  0  0  0  0
   18.5095   -6.5760  -12.4365 C   0  0  0  0  0  0  0  0  0  0  0  0
   18.0343   -5.3828  -12.3168 O   0  0  0  0  0  0  0  0  0  0  0  0
   19.8515   -6.6625  -12.8866 N   0  0  0  0  0  0  0  0  0  0  0  0
   20.5392   -7.9656  -13.0363 C   0  0  0  0  0  0  0  0  0  0  0  0
   21.9287   -7.5329  -12.5366 C   0  0  0  0  0  0  0  0  0  0  0  0
   22.1163   -6.3136  -13.4040 C   0  0  0  0  0  0  0  0  0  0  0  0
   20.7553   -5.6163  -13.2504 C   0  0  1  0  0  0  0  0  0  0  0  0
   20.3872   -4.9634  -14.5338 C   0  0  0  0  0  0  0  0  0  0  0  0
   19.6130   -5.5508  -15.3050 O   0  0  0  0  0  0  0  0  0  0  0  0
   20.8900   -3.7282  -14.8728 O   0  0  0  0  0  0  0  0  0  0  0  0
  2  1  1  0
  3  2  1  0
  4  3  1  0
  4  5  1  0
  5  7  1  0
  5  6  1  1
  7  8  2  0
  9 10  1  0
 11 10  1  6
 11 13  1  0
 12 11  1  0
 12  7  1  0
 13 15  1  0
 14 13  2  0
 15 19  1  0
 15 16  1  0
 16 17  1  0
 18 17  1  0
 19 18  1  0
 20 22  1  0
 19 20  1  6
 21 20  2  0
M  END
$$$$
