MSP.pdb
     RDKit          3D

 22 22  0  0  1  0  0  0  0  0999 V2000
   29.7480   -7.9964  -18.1689 C   0  0  0  0  0  0  0  0  0  0  0  0
   30.1577   -9.7155  -18.4052 S   0  0  0  0  0  0  0  0  0  0  0  0
   29.1977  -10.8811  -17.4467 C   0  0  0  0  0  0  0  0  0  0  0  0
   27.7478  -10.5418  -17.4070 C   0  0  0  0  0  0  0  0  0  0  0  0
   26.9740  -11.5272  -16.5825 C   0  0  2  0  0  0  0  0  0  0  0  0
   27.0416  -12.8632  -17.1431 N   0  0  0  0  0  0  0  0  0  0  0  0
   25.5277  -11.1228  -16.5367 C   0  0  0  0  0  0  0  0  0  0  0  0
   24.7519  -11.4263  -17.4836 O   0  0  0  0  0  0  0  0  0  0  0  0
   21.7168  -10.1666  -14.0493 O   0  0  0  0  0  0  0  0  0  0  0  0
   23.0767  -10.5662  -14.1150 C   0  0  0  0  0  0  0  0  0  0  0  0
   23.6122   -9.9833  -15.4108 C   0  0  2  0  0  0  0  0  0  0  0  0
   25.0278  -10.4044  -15.4408 N   0  0  0  0  0  0  0  0  0  0  0  0
   23.5852   -8.5153  -15.4593 C   0  0  0  0  0  0  0  0  0  0  0  0
   24.5826   -7.8737  -14.9522 O   0  0  0  0  0  0  0  0  0  0  0  0
   22.5568   -7.7142  -16.0176 N   0  0  0  0  0  0  0  0  0  0  0  0
   21.3978   -8.3135  -16.7183 C   0  0  0  0  0  0  0  0  0  0  0  0
   21.2623   -7.2689  -17.8399 C   0  0  0  0  0  0  0  0  0  0  0  0
   21.2527   -6.0211  -16.9930 C   0  0  0  0  0  0  0  0  0  0  0  0
   22.4257   -6.2908  -16.0373 C   0  0  1  0  0  0  0  0  0  0  0  0
   22.1115   -5.7271  -14.6985 C   0  0  0  0  0  0  0  0  0  0  0  0
   21.7529   -6.4959  -13.7932 O   0  0  0  0  0  0  0  0  0  0  0  0
   22.2128   -4.3767  -14.4542 O   0  0  0  0  0  0  0  0  0  0  0  0
  2  1  1  0
  3  2  1  0
  4  3  1  0
  4  5  1  0
  5  7  1  0
  5  6  1  6
  7  8  2  0
  9 10  1  0
 11 10  1  1
 11 13  1  0
 12 11  1  0
 12  7  1  0
 13 15  1  0
 14 13  2  0
 15 19  1  0
 15 16  1  0
 16 17  1  0
 18 17  1  0
 19 18  1  0
 20 22  1  0
 19 20  1  1
 21 20  2  0
M  END
$$$$
