MSP.pdb
     RDKit          3D

 22 22  0  0  1  0  0  0  0  0999 V2000
   18.4622  -17.8628  -11.6971 C   0  0  0  0  0  0  0  0  0  0  0  0
   18.0046  -19.5642  -11.9712 S   0  0  0  0  0  0  0  0  0  0  0  0
   19.0595  -20.4815  -13.0868 C   0  0  0  0  0  0  0  0  0  0  0  0
   20.5064  -20.3403  -12.7622 C   0  0  0  0  0  0  0  0  0  0  0  0
   21.3658  -21.0790  -13.7448 C   0  0  2  0  0  0  0  0  0  0  0  0
   21.4448  -22.4925  -13.4292 N   0  0  0  0  0  0  0  0  0  0  0  0
   22.7618  -20.5243  -13.7125 C   0  0  0  0  0  0  0  0  0  0  0  0
   23.3884  -20.4412  -12.6212 O   0  0  0  0  0  0  0  0  0  0  0  0
   26.9437  -20.5138  -15.1802 O   0  0  0  0  0  0  0  0  0  0  0  0
   25.5815  -20.9110  -15.1746 C   0  0  0  0  0  0  0  0  0  0  0  0
   24.7889  -19.6499  -14.8794 C   0  0  2  0  0  0  0  0  0  0  0  0
   23.3801  -20.0942  -14.8956 N   0  0  0  0  0  0  0  0  0  0  0  0
   24.9351  -18.6023  -15.8988 C   0  0  0  0  0  0  0  0  0  0  0  0
   24.2317  -18.7018  -16.9754 O   0  0  0  0  0  0  0  0  0  0  0  0
   25.7853  -17.4700  -15.8207 N   0  0  0  0  0  0  0  0  0  0  0  0
   26.4498  -17.0821  -14.5552 C   0  0  0  0  0  0  0  0  0  0  0  0
   26.3158  -15.5563  -14.7022 C   0  0  0  0  0  0  0  0  0  0  0  0
   26.8780  -15.4084  -16.0937 C   0  0  0  0  0  0  0  0  0  0  0  0
   26.1476  -16.5358  -16.8403 C   0  0  1  0  0  0  0  0  0  0  0  0
   27.0570  -17.1243  -17.8579 C   0  0  0  0  0  0  0  0  0  0  0  0
   27.5989  -18.2145  -17.6190 O   0  0  0  0  0  0  0  0  0  0  0  0
   27.3021  -16.4808  -19.0493 O   0  0  0  0  0  0  0  0  0  0  0  0
  2  1  1  0
  3  2  1  0
  4  3  1  0
  4  5  1  0
  5  7  1  0
  5  6  1  1
  7  8  2  0
  9 10  1  0
 11 10  1  6
 11 13  1  0
 12 11  1  0
 12  7  1  0
 13 15  1  0
 14 13  2  0
 15 19  1  0
 15 16  1  0
 16 17  1  0
 18 17  1  0
 19 18  1  0
 20 22  1  0
 19 20  1  6
 21 20  2  0
M  END
$$$$
