MSP.pdb
     RDKit          3D

 22 22  0  0  1  0  0  0  0  0999 V2000
   21.3970  -22.9070  -10.9096 C   0  0  0  0  0  0  0  0  0  0  0  0
   21.4425  -21.6264  -12.1494 S   0  0  0  0  0  0  0  0  0  0  0  0
   22.5529  -20.2642  -11.8179 C   0  0  0  0  0  0  0  0  0  0  0  0
   23.1252  -20.3057  -10.4432 C   0  0  0  0  0  0  0  0  0  0  0  0
   24.4305  -21.0439  -10.4122 C   0  0  2  0  0  0  0  0  0  0  0  0
   24.9810  -21.1005   -9.0714 N   0  0  0  0  0  0  0  0  0  0  0  0
   25.4294  -20.3417  -11.2877 C   0  0  0  0  0  0  0  0  0  0  0  0
   25.9731  -19.2715  -10.9009 O   0  0  0  0  0  0  0  0  0  0  0  0
   27.0151  -22.2875  -14.4521 O   0  0  0  0  0  0  0  0  0  0  0  0
   27.7703  -21.3496  -13.7015 C   0  0  0  0  0  0  0  0  0  0  0  0
   26.8078  -20.2239  -13.3665 C   0  0  2  0  0  0  0  0  0  0  0  0
   25.7658  -20.8701  -12.5426 N   0  0  0  0  0  0  0  0  0  0  0  0
   26.1454  -19.6380  -14.5395 C   0  0  0  0  0  0  0  0  0  0  0  0
   24.9974  -20.1121  -14.8872 O   0  0  0  0  0  0  0  0  0  0  0  0
   26.6461  -18.5836  -15.3450 N   0  0  0  0  0  0  0  0  0  0  0  0
   27.8868  -17.8563  -14.9911 C   0  0  0  0  0  0  0  0  0  0  0  0
   27.4373  -16.4473  -15.4155 C   0  0  0  0  0  0  0  0  0  0  0  0
   26.9508  -16.7695  -16.8061 C   0  0  0  0  0  0  0  0  0  0  0  0
   26.1142  -18.0335  -16.5524 C   0  0  1  0  0  0  0  0  0  0  0  0
   26.2502  -18.9563  -17.7096 C   0  0  0  0  0  0  0  0  0  0  0  0
   26.9845  -19.9503  -17.6008 O   0  0  0  0  0  0  0  0  0  0  0  0
   25.5782  -18.7231  -18.8875 O   0  0  0  0  0  0  0  0  0  0  0  0
  2  1  1  0
  3  2  1  0
  4  3  1  0
  4  5  1  0
  5  7  1  0
  5  6  1  1
  7  8  2  0
  9 10  1  0
 11 10  1  6
 11 13  1  0
 12 11  1  0
 12  7  1  0
 13 15  1  0
 14 13  2  0
 15 19  1  0
 15 16  1  0
 16 17  1  0
 18 17  1  0
 19 18  1  0
 20 22  1  0
 19 20  1  6
 21 20  2  0
M  END
$$$$
