ACR.pdb
     RDKit          3D

 23 22  0  0  1  0  0  0  0  0999 V2000
    7.0131  -12.7181   16.5430 C   0  0  0  0  0  0  0  0  0  0  0  0
    7.7411  -14.0098   16.8389 C   0  0  2  0  0  0  0  0  0  0  0  0
    6.7690  -15.0826   16.7692 N   0  0  0  0  0  0  0  0  0  0  0  0
    8.3088  -13.8934   18.2192 C   0  0  0  0  0  0  0  0  0  0  0  0
    9.3724  -13.2620   18.4448 O   0  0  0  0  0  0  0  0  0  0  0  0
    7.6765  -14.4899   19.3455 N   0  0  0  0  0  0  0  0  0  0  0  0
    8.2905  -14.4742   20.6587 C   0  0  1  0  0  0  0  0  0  0  0  0
    7.2617  -14.8910   21.6607 C   0  0  0  0  0  0  0  0  0  0  0  0
    7.9755  -15.2399   23.2896 S   0  0  0  0  0  0  0  0  0  0  0  0
    9.4916  -15.3408   20.6810 C   0  0  0  0  0  0  0  0  0  0  0  0
    9.5151  -16.5132   20.2652 O   0  0  0  0  0  0  0  0  0  0  0  0
   18.5867  -14.5149   17.5451 N   0  0  0  0  0  0  0  0  0  0  0  0
   17.3379  -13.9856   17.9409 C   0  0  0  0  0  0  0  0  0  0  0  0
   16.9856  -12.7873   17.5864 N   0  0  0  0  0  0  0  0  0  0  0  0
   16.4098  -14.7155   18.7347 N   0  0  0  0  0  0  0  0  0  0  0  0
   15.1561  -14.1182   19.1188 C   0  0  0  0  0  0  0  0  0  0  0  0
   14.2984  -15.1061   19.9161 C   0  0  0  0  0  0  0  0  0  0  0  0
   12.9467  -14.5079   20.2134 C   0  0  0  0  0  0  0  0  0  0  0  0
   12.0032  -15.4539   20.8791 C   0  0  2  0  0  0  0  0  0  0  0  0
   10.7306  -14.8329   21.2095 N   0  0  0  0  0  0  0  0  0  0  0  0
   12.6261  -15.8636   22.1650 C   0  0  0  0  0  0  0  0  0  0  0  0
   12.1868  -15.4860   23.2976 O   0  0  0  0  0  0  0  0  0  0  0  0
   13.7369  -16.6926   22.2075 O   0  0  0  0  0  0  0  0  0  0  0  0
  2  1  1  1
  2  3  1  0
  4  5  2  0
  4  2  1  0
  6  4  1  0
  7 10  1  0
  7  6  1  0
  7  8  1  1
  9  8  1  0
 10 20  1  0
 11 10  2  0
 12 13  1  0
 13 15  1  0
 13 14  2  0
 15 16  1  0
 17 16  1  0
 18 17  1  0
 19 18  1  1
 20 19  1  0
 21 23  1  0
 21 19  1  0
 22 21  2  0
M  END
$$$$
