ACR.pdb
     RDKit          3D

 23 22  0  0  1  0  0  0  0  0999 V2000
    8.0025  -12.4397   20.2447 C   0  0  0  0  0  0  0  0  0  0  0  0
    7.8350  -13.7728   20.9381 C   0  0  2  0  0  0  0  0  0  0  0  0
    6.4184  -14.0783   20.9569 N   0  0  0  0  0  0  0  0  0  0  0  0
    8.3660  -13.6195   22.3294 C   0  0  0  0  0  0  0  0  0  0  0  0
    9.5893  -13.4328   22.5527 O   0  0  0  0  0  0  0  0  0  0  0  0
    7.5168  -13.6772   23.4693 N   0  0  0  0  0  0  0  0  0  0  0  0
    8.0531  -13.7118   24.8158 C   0  0  1  0  0  0  0  0  0  0  0  0
    7.1219  -12.9563   25.7093 C   0  0  0  0  0  0  0  0  0  0  0  0
    5.4758  -13.7093   25.7981 S   0  0  0  0  0  0  0  0  0  0  0  0
    8.2573  -15.1107   25.2578 C   0  0  0  0  0  0  0  0  0  0  0  0
    7.4447  -16.0317   25.0599 O   0  0  0  0  0  0  0  0  0  0  0  0
   13.6561  -18.6475   22.0518 N   0  0  0  0  0  0  0  0  0  0  0  0
   12.3002  -19.0446   22.0434 C   0  0  0  0  0  0  0  0  0  0  0  0
   11.6302  -19.0852   20.9319 N   0  0  0  0  0  0  0  0  0  0  0  0
   11.6001  -19.4162   23.2249 N   0  0  0  0  0  0  0  0  0  0  0  0
   12.2354  -19.2974   24.5126 C   0  0  0  0  0  0  0  0  0  0  0  0
   11.2429  -18.8069   25.5717 C   0  0  0  0  0  0  0  0  0  0  0  0
   10.8215  -17.3887   25.2805 C   0  0  0  0  0  0  0  0  0  0  0  0
    9.7946  -16.8599   26.2260 C   0  0  2  0  0  0  0  0  0  0  0  0
    9.4590  -15.4694   25.9648 N   0  0  0  0  0  0  0  0  0  0  0  0
   10.3856  -16.9088   27.5889 C   0  0  0  0  0  0  0  0  0  0  0  0
   10.6551  -15.8646   28.2638 O   0  0  0  0  0  0  0  0  0  0  0  0
   10.6820  -18.1105   28.2142 O   0  0  0  0  0  0  0  0  0  0  0  0
  2  1  1  6
  2  3  1  0
  4  5  2  0
  4  2  1  0
  6  4  1  0
  7 10  1  0
  7  6  1  0
  7  8  1  1
  9  8  1  0
 10 20  1  0
 11 10  2  0
 12 13  1  0
 13 15  1  0
 13 14  2  0
 15 16  1  0
 17 16  1  0
 18 17  1  0
 19 18  1  6
 20 19  1  0
 21 23  1  0
 21 19  1  0
 22 21  2  0
M  END
$$$$
