ACR.pdb
     RDKit          3D

 23 22  0  0  1  0  0  0  0  0999 V2000
    7.6365  -12.1292   18.3107 C   0  0  0  0  0  0  0  0  0  0  0  0
    8.5089  -13.3268   18.6120 C   0  0  2  0  0  0  0  0  0  0  0  0
    8.3463  -14.2684   17.5223 N   0  0  0  0  0  0  0  0  0  0  0  0
    8.0263  -13.9146   19.9013 C   0  0  0  0  0  0  0  0  0  0  0  0
    8.0875  -13.2756   20.9825 O   0  0  0  0  0  0  0  0  0  0  0  0
    7.4747  -15.2241   19.9712 N   0  0  0  0  0  0  0  0  0  0  0  0
    6.9076  -15.7456   21.1994 C   0  0  1  0  0  0  0  0  0  0  0  0
    5.9452  -16.8337   20.8447 C   0  0  0  0  0  0  0  0  0  0  0  0
    5.3331  -17.7250   22.2992 S   0  0  0  0  0  0  0  0  0  0  0  0
    7.9796  -16.2078   22.1112 C   0  0  0  0  0  0  0  0  0  0  0  0
    8.9395  -16.9163   21.7587 O   0  0  0  0  0  0  0  0  0  0  0  0
    9.8027  -14.3147   30.8047 N   0  0  0  0  0  0  0  0  0  0  0  0
   10.7937  -15.2024   30.3294 C   0  0  0  0  0  0  0  0  0  0  0  0
   11.8048  -15.5259   31.0770 N   0  0  0  0  0  0  0  0  0  0  0  0
   10.7472  -15.7840   29.0318 N   0  0  0  0  0  0  0  0  0  0  0  0
    9.8023  -15.3049   28.0553 C   0  0  0  0  0  0  0  0  0  0  0  0
    9.8971  -16.1124   26.7567 C   0  0  0  0  0  0  0  0  0  0  0  0
    8.8708  -15.6315   25.7624 C   0  0  0  0  0  0  0  0  0  0  0  0
    8.9583  -16.3057   24.4335 C   0  0  2  0  0  0  0  0  0  0  0  0
    7.9458  -15.8360   23.5016 N   0  0  0  0  0  0  0  0  0  0  0  0
    8.6968  -17.7519   24.6564 C   0  0  0  0  0  0  0  0  0  0  0  0
    7.5266  -18.2509   24.6584 O   0  0  0  0  0  0  0  0  0  0  0  0
    9.7257  -18.6548   24.8779 O   0  0  0  0  0  0  0  0  0  0  0  0
  2  1  1  6
  2  3  1  0
  4  5  2  0
  4  2  1  0
  6  4  1  0
  7 10  1  0
  7  6  1  0
  7  8  1  6
  9  8  1  0
 10 20  1  0
 11 10  2  0
 12 13  1  0
 13 15  1  0
 13 14  2  0
 15 16  1  0
 17 16  1  0
 18 17  1  0
 19 18  1  1
 20 19  1  0
 21 23  1  0
 21 19  1  0
 22 21  2  0
M  END
$$$$
