ACR.pdb
     RDKit          3D

 23 22  0  0  1  0  0  0  0  0999 V2000
    8.1007  -12.4941   19.0853 C   0  0  0  0  0  0  0  0  0  0  0  0
    8.6965  -13.0732   17.8220 C   0  0  2  0  0  0  0  0  0  0  0  0
    7.5990  -13.5357   16.9960 N   0  0  0  0  0  0  0  0  0  0  0  0
    9.5759  -14.2144   18.2285 C   0  0  0  0  0  0  0  0  0  0  0  0
    9.3999  -15.3760   17.7804 O   0  0  0  0  0  0  0  0  0  0  0  0
   10.6540  -14.0454   19.1412 N   0  0  0  0  0  0  0  0  0  0  0  0
   11.5958  -15.1139   19.4116 C   0  0  1  0  0  0  0  0  0  0  0  0
   12.2201  -15.5255   18.1166 C   0  0  0  0  0  0  0  0  0  0  0  0
   13.0001  -14.1400   17.2467 S   0  0  0  0  0  0  0  0  0  0  0  0
   12.5965  -14.6827   20.4150 C   0  0  0  0  0  0  0  0  0  0  0  0
   12.9110  -13.4972   20.6233 O   0  0  0  0  0  0  0  0  0  0  0  0
    7.6070  -18.5773   25.4991 N   0  0  0  0  0  0  0  0  0  0  0  0
    8.4528  -17.8942   26.4014 C   0  0  0  0  0  0  0  0  0  0  0  0
    8.1401  -17.7996   27.6580 N   0  0  0  0  0  0  0  0  0  0  0  0
    9.6720  -17.2811   25.9989 N   0  0  0  0  0  0  0  0  0  0  0  0
    9.9438  -17.0545   24.6022 C   0  0  0  0  0  0  0  0  0  0  0  0
   11.3607  -16.5079   24.4000 C   0  0  0  0  0  0  0  0  0  0  0  0
   11.6221  -16.2530   22.9370 C   0  0  0  0  0  0  0  0  0  0  0  0
   13.0088  -15.7833   22.6464 C   0  0  2  0  0  0  0  0  0  0  0  0
   13.2712  -15.6665   21.2210 N   0  0  0  0  0  0  0  0  0  0  0  0
   13.9413  -16.8156   23.1700 C   0  0  0  0  0  0  0  0  0  0  0  0
   14.3602  -17.7896   22.4670 O   0  0  0  0  0  0  0  0  0  0  0  0
   14.4164  -16.7781   24.4722 O   0  0  0  0  0  0  0  0  0  0  0  0
  2  1  1  1
  2  3  1  0
  4  5  2  0
  4  2  1  0
  6  4  1  0
  7 10  1  0
  7  6  1  0
  7  8  1  6
  9  8  1  0
 10 20  1  0
 11 10  2  0
 12 13  1  0
 13 15  1  0
 13 14  2  0
 15 16  1  0
 17 16  1  0
 18 17  1  0
 19 18  1  6
 20 19  1  0
 21 23  1  0
 21 19  1  0
 22 21  2  0
M  END
$$$$
