ACR.pdb
     RDKit          3D

 23 22  0  0  1  0  0  0  0  0999 V2000
    7.3703  -13.0063   19.2275 C   0  0  0  0  0  0  0  0  0  0  0  0
    7.7466  -14.4184   19.6155 C   0  0  2  0  0  0  0  0  0  0  0  0
    6.5202  -15.1849   19.7097 N   0  0  0  0  0  0  0  0  0  0  0  0
    8.4335  -14.3458   20.9436 C   0  0  0  0  0  0  0  0  0  0  0  0
    9.5451  -13.7746   21.0819 O   0  0  0  0  0  0  0  0  0  0  0  0
    7.8666  -14.9183   22.1161 N   0  0  0  0  0  0  0  0  0  0  0  0
    8.5366  -14.8424   23.3995 C   0  0  1  0  0  0  0  0  0  0  0  0
    7.4944  -14.8483   24.4719 C   0  0  0  0  0  0  0  0  0  0  0  0
    6.3985  -16.2882   24.3717 S   0  0  0  0  0  0  0  0  0  0  0  0
    9.5093  -15.9501   23.5440 C   0  0  0  0  0  0  0  0  0  0  0  0
    9.2692  -17.1341   23.2467 O   0  0  0  0  0  0  0  0  0  0  0  0
   18.4808  -15.6198   23.2674 N   0  0  0  0  0  0  0  0  0  0  0  0
   18.0846  -16.9723   23.1673 C   0  0  0  0  0  0  0  0  0  0  0  0
   18.9547  -17.8978   22.8985 N   0  0  0  0  0  0  0  0  0  0  0  0
   16.7385  -17.3952   23.3503 N   0  0  0  0  0  0  0  0  0  0  0  0
   15.6872  -16.4225   23.5070 C   0  0  0  0  0  0  0  0  0  0  0  0
   14.3465  -17.1046   23.7975 C   0  0  0  0  0  0  0  0  0  0  0  0
   13.2286  -16.0929   23.7868 C   0  0  0  0  0  0  0  0  0  0  0  0
   11.8767  -16.6874   24.0042 C   0  0  2  0  0  0  0  0  0  0  0  0
   10.8272  -15.6825   24.0578 N   0  0  0  0  0  0  0  0  0  0  0  0
   11.8985  -17.3548   25.3322 C   0  0  0  0  0  0  0  0  0  0  0  0
   11.3533  -16.8542   26.3668 O   0  0  0  0  0  0  0  0  0  0  0  0
   12.5221  -18.5783   25.5250 O   0  0  0  0  0  0  0  0  0  0  0  0
  2  1  1  1
  2  3  1  0
  4  5  2  0
  4  2  1  0
  6  4  1  0
  7 10  1  0
  7  6  1  0
  7  8  1  1
  9  8  1  0
 10 20  1  0
 11 10  2  0
 12 13  1  0
 13 15  1  0
 13 14  2  0
 15 16  1  0
 17 16  1  0
 18 17  1  0
 19 18  1  1
 20 19  1  0
 21 23  1  0
 21 19  1  0
 22 21  2  0
M  END
$$$$
