ACR.pdb
     RDKit          3D

 23 22  0  0  1  0  0  0  0  0999 V2000
   10.1536  -13.6807   18.1936 C   0  0  0  0  0  0  0  0  0  0  0  0
    8.6648  -13.8254   17.9729 C   0  0  2  0  0  0  0  0  0  0  0  0
    8.1776  -12.5633   17.4529 N   0  0  0  0  0  0  0  0  0  0  0  0
    8.0464  -14.1290   19.3020 C   0  0  0  0  0  0  0  0  0  0  0  0
    7.9180  -13.2460   20.1879 O   0  0  0  0  0  0  0  0  0  0  0  0
    7.5731  -15.4294   19.6320 N   0  0  0  0  0  0  0  0  0  0  0  0
    7.0704  -15.7423   20.9554 C   0  0  1  0  0  0  0  0  0  0  0  0
    6.0551  -16.8322   20.8241 C   0  0  0  0  0  0  0  0  0  0  0  0
    5.4340  -17.4039   22.4278 S   0  0  0  0  0  0  0  0  0  0  0  0
    8.1842  -16.1071   21.8612 C   0  0  0  0  0  0  0  0  0  0  0  0
    9.2032  -16.7240   21.5024 O   0  0  0  0  0  0  0  0  0  0  0  0
   10.3395  -13.6769   30.3093 N   0  0  0  0  0  0  0  0  0  0  0  0
   11.0841  -14.8368   29.9993 C   0  0  0  0  0  0  0  0  0  0  0  0
   11.9741  -15.2921   30.8278 N   0  0  0  0  0  0  0  0  0  0  0  0
   10.9096  -15.5620   28.7876 N   0  0  0  0  0  0  0  0  0  0  0  0
    9.9678  -15.1051   27.7976 C   0  0  0  0  0  0  0  0  0  0  0  0
   10.0751  -15.9340   26.5136 C   0  0  0  0  0  0  0  0  0  0  0  0
    9.0471  -15.4809   25.5079 C   0  0  0  0  0  0  0  0  0  0  0  0
    9.1425  -16.1807   24.1928 C   0  0  2  0  0  0  0  0  0  0  0  0
    8.1228  -15.7437   23.2529 N   0  0  0  0  0  0  0  0  0  0  0  0
    8.9010  -17.6254   24.4453 C   0  0  0  0  0  0  0  0  0  0  0  0
    7.7397  -18.1446   24.4353 O   0  0  0  0  0  0  0  0  0  0  0  0
    9.9401  -18.5047   24.7099 O   0  0  0  0  0  0  0  0  0  0  0  0
  2  1  1  1
  2  3  1  0
  4  5  2  0
  4  2  1  0
  6  4  1  0
  7 10  1  0
  7  6  1  0
  7  8  1  6
  9  8  1  0
 10 20  1  0
 11 10  2  0
 12 13  1  0
 13 15  1  0
 13 14  2  0
 15 16  1  0
 17 16  1  0
 18 17  1  0
 19 18  1  1
 20 19  1  0
 21 23  1  0
 21 19  1  0
 22 21  2  0
M  END
$$$$
