ACR.pdb
     RDKit          3D

 23 22  0  0  1  0  0  0  0  0999 V2000
    6.3871  -18.1288   22.9950 C   0  0  0  0  0  0  0  0  0  0  0  0
    6.4799  -16.7897   22.2991 C   0  0  2  0  0  0  0  0  0  0  0  0
    7.0100  -17.0256   20.9710 N   0  0  0  0  0  0  0  0  0  0  0  0
    7.4119  -15.9360   23.1014 C   0  0  0  0  0  0  0  0  0  0  0  0
    8.6599  -16.0200   22.9735 O   0  0  0  0  0  0  0  0  0  0  0  0
    6.9357  -14.9875   24.0489 N   0  0  0  0  0  0  0  0  0  0  0  0
    7.8434  -14.1496   24.8076 C   0  0  1  0  0  0  0  0  0  0  0  0
    7.1285  -12.8838   25.1581 C   0  0  0  0  0  0  0  0  0  0  0  0
    5.7030  -13.1648   26.2413 S   0  0  0  0  0  0  0  0  0  0  0  0
    8.3421  -14.8717   26.0010 C   0  0  0  0  0  0  0  0  0  0  0  0
    7.6840  -15.7194   26.6303 O   0  0  0  0  0  0  0  0  0  0  0  0
   10.4180  -20.3638   30.0202 N   0  0  0  0  0  0  0  0  0  0  0  0
   11.5868  -19.7744   30.5520 C   0  0  0  0  0  0  0  0  0  0  0  0
   12.3039  -20.4053   31.4315 N   0  0  0  0  0  0  0  0  0  0  0  0
   12.0406  -18.4823   30.1663 N   0  0  0  0  0  0  0  0  0  0  0  0
   11.6041  -17.9012   28.9222 C   0  0  0  0  0  0  0  0  0  0  0  0
   12.0697  -16.4466   28.8020 C   0  0  0  0  0  0  0  0  0  0  0  0
   11.5191  -15.8204   27.5458 C   0  0  0  0  0  0  0  0  0  0  0  0
   10.1579  -15.2312   27.7138 C   0  0  2  0  0  0  0  0  0  0  0  0
    9.6669  -14.6046   26.4970 N   0  0  0  0  0  0  0  0  0  0  0  0
   10.2673  -14.1564   28.7346 C   0  0  0  0  0  0  0  0  0  0  0  0
   10.3731  -12.9249   28.4337 O   0  0  0  0  0  0  0  0  0  0  0  0
   10.2601  -14.4352   30.0930 O   0  0  0  0  0  0  0  0  0  0  0  0
  2  1  1  1
  2  3  1  0
  4  5  2  0
  4  2  1  0
  6  4  1  0
  7 10  1  0
  7  6  1  0
  7  8  1  1
  9  8  1  0
 10 20  1  0
 11 10  2  0
 12 13  1  0
 13 15  1  0
 13 14  2  0
 15 16  1  0
 17 16  1  0
 18 17  1  0
 19 18  1  6
 20 19  1  0
 21 23  1  0
 21 19  1  0
 22 21  2  0
M  END
$$$$
