ACR.pdb
     RDKit          3D

 23 22  0  0  1  0  0  0  0  0999 V2000
    6.6323  -14.2168   20.3618 C   0  0  0  0  0  0  0  0  0  0  0  0
    7.2750  -12.9509   20.8818 C   0  0  2  0  0  0  0  0  0  0  0  0
    8.2614  -12.5315   19.9062 N   0  0  0  0  0  0  0  0  0  0  0  0
    7.9257  -13.2873   22.1874 C   0  0  0  0  0  0  0  0  0  0  0  0
    9.1453  -13.5845   22.2603 O   0  0  0  0  0  0  0  0  0  0  0  0
    7.2002  -13.2888   23.4111 N   0  0  0  0  0  0  0  0  0  0  0  0
    7.8341  -13.6274   24.6703 C   0  0  1  0  0  0  0  0  0  0  0  0
    7.0997  -12.9248   25.7671 C   0  0  0  0  0  0  0  0  0  0  0  0
    5.3384  -13.3498   25.8112 S   0  0  0  0  0  0  0  0  0  0  0  0
    7.8672  -15.0966   24.8565 C   0  0  0  0  0  0  0  0  0  0  0  0
    6.8680  -15.8335   24.7778 O   0  0  0  0  0  0  0  0  0  0  0  0
   10.8131  -16.2188   20.2870 N   0  0  0  0  0  0  0  0  0  0  0  0
    9.8573  -17.1698   19.8649 C   0  0  0  0  0  0  0  0  0  0  0  0
    9.1878  -16.9916   18.7668 N   0  0  0  0  0  0  0  0  0  0  0  0
    9.5749  -18.3549   20.5997 N   0  0  0  0  0  0  0  0  0  0  0  0
   10.1173  -18.5355   21.9222 C   0  0  0  0  0  0  0  0  0  0  0  0
    9.2923  -17.7720   22.9633 C   0  0  0  0  0  0  0  0  0  0  0  0
    9.9027  -17.9257   24.3334 C   0  0  0  0  0  0  0  0  0  0  0  0
    9.1738  -17.1831   25.4037 C   0  0  2  0  0  0  0  0  0  0  0  0
    9.1147  -15.7527   25.1492 N   0  0  0  0  0  0  0  0  0  0  0  0
    9.9416  -17.3622   26.6638 C   0  0  0  0  0  0  0  0  0  0  0  0
   10.5745  -16.4143   27.2288 O   0  0  0  0  0  0  0  0  0  0  0  0
   10.0144  -18.5886   27.3070 O   0  0  0  0  0  0  0  0  0  0  0  0
  2  1  1  6
  2  3  1  0
  4  5  2  0
  4  2  1  0
  6  4  1  0
  7 10  1  0
  7  6  1  0
  7  8  1  1
  9  8  1  0
 10 20  1  0
 11 10  2  0
 12 13  1  0
 13 15  1  0
 13 14  2  0
 15 16  1  0
 17 16  1  0
 18 17  1  0
 19 18  1  6
 20 19  1  0
 21 23  1  0
 21 19  1  0
 22 21  2  0
M  END
$$$$
