ACR.pdb
     RDKit          3D

 23 22  0  0  1  0  0  0  0  0999 V2000
    7.7892  -12.2247   19.8488 C   0  0  0  0  0  0  0  0  0  0  0  0
    7.3849  -13.5914   20.3536 C   0  0  2  0  0  0  0  0  0  0  0  0
    5.9364  -13.6369   20.3726 N   0  0  0  0  0  0  0  0  0  0  0  0
    7.9413  -13.7367   21.7357 C   0  0  0  0  0  0  0  0  0  0  0  0
    9.1760  -13.8554   21.9415 O   0  0  0  0  0  0  0  0  0  0  0  0
    7.1044  -13.7487   22.8861 N   0  0  0  0  0  0  0  0  0  0  0  0
    7.6446  -13.9446   24.2172 C   0  0  1  0  0  0  0  0  0  0  0  0
    6.6064  -13.5271   25.2091 C   0  0  0  0  0  0  0  0  0  0  0  0
    6.6566  -11.7509   25.5656 S   0  0  0  0  0  0  0  0  0  0  0  0
    8.0760  -15.3497   24.4009 C   0  0  0  0  0  0  0  0  0  0  0  0
    7.3256  -16.3336   24.2718 O   0  0  0  0  0  0  0  0  0  0  0  0
   14.8406  -19.0849   22.0576 N   0  0  0  0  0  0  0  0  0  0  0  0
   13.9262  -20.1222   21.7677 C   0  0  0  0  0  0  0  0  0  0  0  0
   14.3451  -21.3334   21.5592 N   0  0  0  0  0  0  0  0  0  0  0  0
   12.5217  -19.9096   21.6875 N   0  0  0  0  0  0  0  0  0  0  0  0
   11.9754  -18.5901   21.8785 C   0  0  0  0  0  0  0  0  0  0  0  0
   11.8114  -18.2739   23.3686 C   0  0  0  0  0  0  0  0  0  0  0  0
   11.1397  -16.9363   23.5513 C   0  0  0  0  0  0  0  0  0  0  0  0
   10.0151  -16.9568   24.5326 C   0  0  2  0  0  0  0  0  0  0  0  0
    9.4419  -15.6387   24.7521 N   0  0  0  0  0  0  0  0  0  0  0  0
   10.5764  -17.4017   25.8351 C   0  0  0  0  0  0  0  0  0  0  0  0
   10.6539  -16.6402   26.8511 O   0  0  0  0  0  0  0  0  0  0  0  0
   11.0548  -18.6897   26.0229 O   0  0  0  0  0  0  0  0  0  0  0  0
  2  1  1  1
  2  3  1  0
  4  5  2  0
  4  2  1  0
  6  4  1  0
  7 10  1  0
  7  6  1  0
  7  8  1  1
  9  8  1  0
 10 20  1  0
 11 10  2  0
 12 13  1  0
 13 15  1  0
 13 14  2  0
 15 16  1  0
 17 16  1  0
 18 17  1  0
 19 18  1  6
 20 19  1  0
 21 23  1  0
 21 19  1  0
 22 21  2  0
M  END
$$$$
