ACR.pdb
     RDKit          3D

 23 22  0  0  1  0  0  0  0  0999 V2000
   10.8096  -17.1305   18.7440 C   0  0  0  0  0  0  0  0  0  0  0  0
    9.7121  -17.4838   19.7221 C   0  0  2  0  0  0  0  0  0  0  0  0
    8.5225  -17.7848   18.9509 N   0  0  0  0  0  0  0  0  0  0  0  0
    9.4932  -16.2875   20.5951 C   0  0  0  0  0  0  0  0  0  0  0  0
   10.3979  -15.8446   21.3476 O   0  0  0  0  0  0  0  0  0  0  0  0
    8.2530  -15.5908   20.6195 N   0  0  0  0  0  0  0  0  0  0  0  0
    8.0603  -14.4103   21.4386 C   0  0  1  0  0  0  0  0  0  0  0  0
    7.0635  -13.5271   20.7585 C   0  0  0  0  0  0  0  0  0  0  0  0
    7.4861  -13.2028   19.0263 S   0  0  0  0  0  0  0  0  0  0  0  0
    7.6437  -14.7907   22.8082 C   0  0  0  0  0  0  0  0  0  0  0  0
    6.4630  -14.9782   23.1527 O   0  0  0  0  0  0  0  0  0  0  0  0
    6.3156  -22.0134   23.4847 N   0  0  0  0  0  0  0  0  0  0  0  0
    5.4832  -20.8719   23.4996 C   0  0  0  0  0  0  0  0  0  0  0  0
    4.3708  -20.8561   22.8301 N   0  0  0  0  0  0  0  0  0  0  0  0
    5.8044  -19.6951   24.2320 N   0  0  0  0  0  0  0  0  0  0  0  0
    7.1320  -19.5085   24.7598 C   0  0  0  0  0  0  0  0  0  0  0  0
    7.3016  -18.0983   25.3340 C   0  0  0  0  0  0  0  0  0  0  0  0
    8.2573  -17.2970   24.4865 C   0  0  0  0  0  0  0  0  0  0  0  0
    8.4262  -15.8853   24.9412 C   0  0  2  0  0  0  0  0  0  0  0  0
    8.6368  -14.9644   23.8358 N   0  0  0  0  0  0  0  0  0  0  0  0
    9.6537  -15.8371   25.7781 C   0  0  0  0  0  0  0  0  0  0  0  0
   10.7668  -15.3959   25.3486 O   0  0  0  0  0  0  0  0  0  0  0  0
    9.6587  -16.2754   27.0938 O   0  0  0  0  0  0  0  0  0  0  0  0
  2  1  1  6
  2  3  1  0
  4  5  2  0
  4  2  1  0
  6  4  1  0
  7 10  1  0
  7  6  1  0
  7  8  1  6
  9  8  1  0
 10 20  1  0
 11 10  2  0
 12 13  1  0
 13 15  1  0
 13 14  2  0
 15 16  1  0
 17 16  1  0
 18 17  1  0
 19 18  1  6
 20 19  1  0
 21 23  1  0
 21 19  1  0
 22 21  2  0
M  END
$$$$
