ACR.pdb
     RDKit          3D

 23 22  0  0  1  0  0  0  0  0999 V2000
    7.4458  -17.8948   15.7250 C   0  0  0  0  0  0  0  0  0  0  0  0
    7.4860  -16.4291   15.3556 C   0  0  2  0  0  0  0  0  0  0  0  0
    8.2222  -16.3140   14.1125 N   0  0  0  0  0  0  0  0  0  0  0  0
    8.1933  -15.7115   16.4627 C   0  0  0  0  0  0  0  0  0  0  0  0
    9.4483  -15.6776   16.5321 O   0  0  0  0  0  0  0  0  0  0  0  0
    7.4846  -15.0321   17.4924 N   0  0  0  0  0  0  0  0  0  0  0  0
    8.1708  -14.4357   18.6216 C   0  0  1  0  0  0  0  0  0  0  0  0
    7.2291  -13.4882   19.2936 C   0  0  0  0  0  0  0  0  0  0  0  0
    7.9693  -12.6719   20.7324 S   0  0  0  0  0  0  0  0  0  0  0  0
    8.6730  -15.4857   19.5379 C   0  0  0  0  0  0  0  0  0  0  0  0
    8.0132  -16.4801   19.8894 O   0  0  0  0  0  0  0  0  0  0  0  0
   15.3736  -19.4685   21.1642 N   0  0  0  0  0  0  0  0  0  0  0  0
   14.4519  -20.1805   21.9640 C   0  0  0  0  0  0  0  0  0  0  0  0
   14.8346  -21.2106   22.6556 N   0  0  0  0  0  0  0  0  0  0  0  0
   13.0784  -19.8219   22.0594 N   0  0  0  0  0  0  0  0  0  0  0  0
   12.5458  -18.7642   21.2386 C   0  0  0  0  0  0  0  0  0  0  0  0
   12.6061  -17.4187   21.9689 C   0  0  0  0  0  0  0  0  0  0  0  0
   12.0183  -16.3276   21.1101 C   0  0  0  0  0  0  0  0  0  0  0  0
   10.5345  -16.4070   20.9683 C   0  0  2  0  0  0  0  0  0  0  0  0
   10.0035  -15.3869   20.0786 N   0  0  0  0  0  0  0  0  0  0  0  0
    9.9504  -16.1501   22.3108 C   0  0  0  0  0  0  0  0  0  0  0  0
    9.4533  -15.0280   22.6455 O   0  0  0  0  0  0  0  0  0  0  0  0
    9.9118  -17.1305   23.2907 O   0  0  0  0  0  0  0  0  0  0  0  0
  2  1  1  1
  2  3  1  0
  4  5  2  0
  4  2  1  0
  6  4  1  0
  7 10  1  0
  7  6  1  0
  7  8  1  1
  9  8  1  0
 10 20  1  0
 11 10  2  0
 12 13  1  0
 13 15  1  0
 13 14  2  0
 15 16  1  0
 17 16  1  0
 18 17  1  0
 19 18  1  1
 20 19  1  0
 21 23  1  0
 21 19  1  0
 22 21  2  0
M  END
$$$$
