NGE.pdb
     RDKit          3D

 22 21  0  0  1  0  0  0  0  0999 V2000
   11.3738  -22.2002   21.7725 N   0  0  0  0  0  0  0  0  0  0  0  0
   11.9539  -21.2211   22.6190 C   0  0  0  0  0  0  0  0  0  0  0  0
   12.1270  -20.0738   22.1687 O   0  0  0  0  0  0  0  0  0  0  0  0
   12.3274  -21.6070   23.9988 C   0  0  0  0  0  0  0  0  0  0  0  0
   12.0944  -23.0731   24.2296 C   0  0  2  0  0  0  0  0  0  0  0  0
   10.9940  -23.5317   23.4343 N   0  0  0  0  0  0  0  0  0  0  0  0
   11.8156  -23.2782   25.6973 C   0  0  0  0  0  0  0  0  0  0  0  0
   12.3341  -24.2436   26.3144 O   0  0  0  0  0  0  0  0  0  0  0  0
   10.9712  -22.3995   26.4149 N   0  0  0  0  0  0  0  0  0  0  0  0
   10.7433  -22.4642   27.8353 C   0  0  0  0  0  0  0  0  0  0  0  0
   11.6809  -21.6828   28.6530 C   0  0  0  0  0  0  0  0  0  0  0  0
   12.8423  -21.4139   28.1856 O   0  0  0  0  0  0  0  0  0  0  0  0
   11.4331  -21.1771   29.9408 N   0  0  0  0  0  0  0  0  0  0  0  0
   12.4373  -20.4183   30.6956 C   0  0  1  0  0  0  0  0  0  0  0  0
   11.9796  -19.0096   30.7726 C   0  0  0  0  0  0  0  0  0  0  0  0
   11.5433  -18.3822   29.4941 C   0  0  0  0  0  0  0  0  0  0  0  0
   11.1499  -16.9766   29.6344 C   0  0  0  0  0  0  0  0  0  0  0  0
   10.0806  -16.7084   30.2762 O   0  0  0  0  0  0  0  0  0  0  0  0
   12.6641  -21.0403   32.0211 C   0  0  0  0  0  0  0  0  0  0  0  0
   11.8271  -21.8368   32.5088 O   0  0  0  0  0  0  0  0  0  0  0  0
   11.8718  -15.9181   29.1101 O   0  0  0  0  0  0  0  0  0  0  0  0
   13.8015  -20.7769   32.7829 O   0  0  0  0  0  0  0  0  0  0  0  0
  1  2  1  0
  2  3  2  0
  4  2  1  0
  5  6  1  6
  5  4  1  0
  7  5  1  0
  8  7  2  0
  9  7  1  0
 10 11  1  0
 10  9  1  0
 11 13  1  0
 12 11  2  0
 13 14  1  0
 14 19  1  0
 14 15  1  1
 15 16  1  0
 16 17  1  0
 17 21  1  0
 18 17  2  0
 19 20  2  0
 19 22  1  0
M  END
$$$$
