NGE.pdb
     RDKit          3D

 22 21  0  0  1  0  0  0  0  0999 V2000
    6.6959  -17.4101   13.6999 N   0  0  0  0  0  0  0  0  0  0  0  0
    7.8137  -17.5375   14.5635 C   0  0  0  0  0  0  0  0  0  0  0  0
    8.7321  -18.3112   14.2363 O   0  0  0  0  0  0  0  0  0  0  0  0
    7.8383  -16.7456   15.8144 C   0  0  0  0  0  0  0  0  0  0  0  0
    8.4601  -17.5289   16.9354 C   0  0  2  0  0  0  0  0  0  0  0  0
    7.5381  -18.5105   17.4256 N   0  0  0  0  0  0  0  0  0  0  0  0
    8.8425  -16.5619   18.0274 C   0  0  0  0  0  0  0  0  0  0  0  0
    9.7725  -15.7347   17.8475 O   0  0  0  0  0  0  0  0  0  0  0  0
    8.1730  -16.5576   19.2731 N   0  0  0  0  0  0  0  0  0  0  0  0
    8.5648  -15.7626   20.4080 C   0  0  0  0  0  0  0  0  0  0  0  0
    9.3937  -16.4596   21.4007 C   0  0  0  0  0  0  0  0  0  0  0  0
    9.0423  -17.6244   21.7999 O   0  0  0  0  0  0  0  0  0  0  0  0
   10.5765  -15.9703   21.9815 N   0  0  0  0  0  0  0  0  0  0  0  0
   11.5295  -16.8407   22.6799 C   0  0  1  0  0  0  0  0  0  0  0  0
   12.8973  -16.3561   22.3731 C   0  0  0  0  0  0  0  0  0  0  0  0
   13.8280  -16.2195   23.5278 C   0  0  0  0  0  0  0  0  0  0  0  0
   15.1878  -15.8286   23.1425 C   0  0  0  0  0  0  0  0  0  0  0  0
   15.4481  -15.6857   21.9019 O   0  0  0  0  0  0  0  0  0  0  0  0
   11.2261  -16.8785   24.1297 C   0  0  0  0  0  0  0  0  0  0  0  0
   10.5240  -15.9863   24.6626 O   0  0  0  0  0  0  0  0  0  0  0  0
   16.2111  -15.6043   24.0475 O   0  0  0  0  0  0  0  0  0  0  0  0
   11.6977  -17.8912   24.9635 O   0  0  0  0  0  0  0  0  0  0  0  0
  1  2  1  0
  2  3  2  0
  4  2  1  0
  5  6  1  1
  5  4  1  0
  7  5  1  0
  8  7  2  0
  9  7  1  0
 10 11  1  0
 10  9  1  0
 11 13  1  0
 12 11  2  0
 13 14  1  0
 14 19  1  0
 14 15  1  1
 15 16  1  0
 16 17  1  0
 17 21  1  0
 18 17  2  0
 19 20  2  0
 19 22  1  0
M  END
$$$$
