NGE.pdb
     RDKit          3D

 22 21  0  0  1  0  0  0  0  0999 V2000
    7.8826  -12.3911   17.5533 N   0  0  0  0  0  0  0  0  0  0  0  0
    7.9810  -13.7476   17.1508 C   0  0  0  0  0  0  0  0  0  0  0  0
    8.2280  -13.9965   15.9566 O   0  0  0  0  0  0  0  0  0  0  0  0
    7.7854  -14.8058   18.1679 C   0  0  0  0  0  0  0  0  0  0  0  0
    7.3785  -14.2152   19.4879 C   0  0  2  0  0  0  0  0  0  0  0  0
    8.3768  -13.2962   19.9489 N   0  0  0  0  0  0  0  0  0  0  0  0
    7.1965  -15.3444   20.4706 C   0  0  0  0  0  0  0  0  0  0  0  0
    6.3867  -16.2752   20.2272 O   0  0  0  0  0  0  0  0  0  0  0  0
    7.9240  -15.3885   21.6826 N   0  0  0  0  0  0  0  0  0  0  0  0
    7.7568  -16.3946   22.6992 C   0  0  0  0  0  0  0  0  0  0  0  0
    8.6811  -16.2909   23.8365 C   0  0  0  0  0  0  0  0  0  0  0  0
    9.9428  -16.3209   23.6200 O   0  0  0  0  0  0  0  0  0  0  0  0
    8.3187  -16.1554   25.1878 N   0  0  0  0  0  0  0  0  0  0  0  0
    9.2623  -15.6965   26.2139 C   0  0  1  0  0  0  0  0  0  0  0  0
    8.6757  -14.5025   26.8697 C   0  0  0  0  0  0  0  0  0  0  0  0
    7.7954  -13.6468   26.0263 C   0  0  0  0  0  0  0  0  0  0  0  0
    7.2324  -12.4980   26.7430 C   0  0  0  0  0  0  0  0  0  0  0  0
    7.5258  -12.3505   27.9757 O   0  0  0  0  0  0  0  0  0  0  0  0
    9.5738  -16.7965   27.1564 C   0  0  0  0  0  0  0  0  0  0  0  0
    8.8705  -17.8344   27.1875 O   0  0  0  0  0  0  0  0  0  0  0  0
    6.3979  -11.5596   26.1605 O   0  0  0  0  0  0  0  0  0  0  0  0
   10.6475  -16.7360   28.0434 O   0  0  0  0  0  0  0  0  0  0  0  0
  1  2  1  0
  2  3  2  0
  4  2  1  0
  5  6  1  1
  5  4  1  0
  7  5  1  0
  8  7  2  0
  9  7  1  0
 10 11  1  0
 10  9  1  0
 11 13  1  0
 12 11  2  0
 13 14  1  0
 14 19  1  0
 14 15  1  1
 15 16  1  0
 16 17  1  0
 17 21  1  0
 18 17  2  0
 19 20  2  0
 19 22  1  0
M  END
$$$$
