NGE.pdb
     RDKit          3D

 22 21  0  0  1  0  0  0  0  0999 V2000
    7.0715  -12.3878   18.6922 N   0  0  0  0  0  0  0  0  0  0  0  0
    7.9619  -13.1696   19.4717 C   0  0  0  0  0  0  0  0  0  0  0  0
    9.0777  -13.4499   18.9968 O   0  0  0  0  0  0  0  0  0  0  0  0
    7.5250  -13.6172   20.8138 C   0  0  0  0  0  0  0  0  0  0  0  0
    7.9203  -15.0454   21.0602 C   0  0  2  0  0  0  0  0  0  0  0  0
    7.1796  -15.9205   20.2003 N   0  0  0  0  0  0  0  0  0  0  0  0
    7.6490  -15.3637   22.5090 C   0  0  0  0  0  0  0  0  0  0  0  0
    8.2747  -14.7638   23.4200 O   0  0  0  0  0  0  0  0  0  0  0  0
    6.6925  -16.3368   22.8812 N   0  0  0  0  0  0  0  0  0  0  0  0
    6.4643  -16.7829   24.2311 C   0  0  0  0  0  0  0  0  0  0  0  0
    7.6446  -17.3279   24.9153 C   0  0  0  0  0  0  0  0  0  0  0  0
    8.5550  -17.9056   24.2244 O   0  0  0  0  0  0  0  0  0  0  0  0
    7.8949  -17.2818   26.2976 N   0  0  0  0  0  0  0  0  0  0  0  0
    9.0762  -17.9055   26.9053 C   0  0  1  0  0  0  0  0  0  0  0  0
    9.7569  -16.8799   27.7328 C   0  0  0  0  0  0  0  0  0  0  0  0
    9.4800  -15.4576   27.3883 C   0  0  0  0  0  0  0  0  0  0  0  0
   10.2245  -14.4988   28.2110 C   0  0  0  0  0  0  0  0  0  0  0  0
    9.8824  -14.3545   29.4314 O   0  0  0  0  0  0  0  0  0  0  0  0
    8.6863  -19.1161   27.6653 C   0  0  0  0  0  0  0  0  0  0  0  0
    9.5556  -19.8595   28.1798 O   0  0  0  0  0  0  0  0  0  0  0  0
   11.2809  -13.7372   27.7415 O   0  0  0  0  0  0  0  0  0  0  0  0
    7.3543  -19.4860   27.8453 O   0  0  0  0  0  0  0  0  0  0  0  0
  1  2  1  0
  2  3  2  0
  4  2  1  0
  5  6  1  6
  5  4  1  0
  7  5  1  0
  8  7  2  0
  9  7  1  0
 10 11  1  0
 10  9  1  0
 11 13  1  0
 12 11  2  0
 13 14  1  0
 14 19  1  0
 14 15  1  1
 15 16  1  0
 16 17  1  0
 17 21  1  0
 18 17  2  0
 19 20  2  0
 19 22  1  0
M  END
$$$$
