NGE.pdb
     RDKit          3D

 22 21  0  0  1  0  0  0  0  0999 V2000
    8.3547  -16.3654   18.1588 N   0  0  0  0  0  0  0  0  0  0  0  0
    8.9969  -15.1051   18.0536 C   0  0  0  0  0  0  0  0  0  0  0  0
   10.2341  -15.0781   17.9207 O   0  0  0  0  0  0  0  0  0  0  0  0
    8.1679  -13.8794   18.1068 C   0  0  0  0  0  0  0  0  0  0  0  0
    7.1108  -13.9900   19.1685 C   0  0  2  0  0  0  0  0  0  0  0  0
    6.2058  -12.8820   19.0847 N   0  0  0  0  0  0  0  0  0  0  0  0
    7.7962  -14.0204   20.5113 C   0  0  0  0  0  0  0  0  0  0  0  0
    9.0128  -14.3270   20.5977 O   0  0  0  0  0  0  0  0  0  0  0  0
    7.0973  -13.7084   21.7005 N   0  0  0  0  0  0  0  0  0  0  0  0
    7.6820  -13.7131   23.0165 C   0  0  0  0  0  0  0  0  0  0  0  0
    7.9930  -15.0440   23.5554 C   0  0  0  0  0  0  0  0  0  0  0  0
    7.7473  -16.0789   22.8425 O   0  0  0  0  0  0  0  0  0  0  0  0
    8.5536  -15.3165   24.8151 N   0  0  0  0  0  0  0  0  0  0  0  0
    9.1093  -16.6297   25.1624 C   0  0  1  0  0  0  0  0  0  0  0  0
   10.1920  -16.9353   24.1960 C   0  0  0  0  0  0  0  0  0  0  0  0
   11.3140  -15.9583   24.1247 C   0  0  0  0  0  0  0  0  0  0  0  0
   12.4083  -16.3843   23.2466 C   0  0  0  0  0  0  0  0  0  0  0  0
   12.3073  -16.1511   21.9965 O   0  0  0  0  0  0  0  0  0  0  0  0
    9.5555  -16.6432   26.5752 C   0  0  0  0  0  0  0  0  0  0  0  0
    9.5829  -15.5867   27.2505 O   0  0  0  0  0  0  0  0  0  0  0  0
   13.5498  -17.0273   23.6939 O   0  0  0  0  0  0  0  0  0  0  0  0
    9.9617  -17.8120   27.2171 O   0  0  0  0  0  0  0  0  0  0  0  0
  1  2  1  0
  2  3  2  0
  4  2  1  0
  5  6  1  1
  5  4  1  0
  7  5  1  0
  8  7  2  0
  9  7  1  0
 10 11  1  0
 10  9  1  0
 11 13  1  0
 12 11  2  0
 13 14  1  0
 14 19  1  0
 14 15  1  6
 15 16  1  0
 16 17  1  0
 17 21  1  0
 18 17  2  0
 19 20  2  0
 19 22  1  0
M  END
$$$$
