NGE.pdb
     RDKit          3D

 22 21  0  0  1  0  0  0  0  0999 V2000
    3.4121  -20.5791   21.0420 N   0  0  0  0  0  0  0  0  0  0  0  0
    2.8918  -19.2656   20.9167 C   0  0  0  0  0  0  0  0  0  0  0  0
    1.6589  -19.1065   20.9792 O   0  0  0  0  0  0  0  0  0  0  0  0
    3.8371  -18.1436   20.7171 C   0  0  0  0  0  0  0  0  0  0  0  0
    4.8789  -18.1183   21.7993 C   0  0  2  0  0  0  0  0  0  0  0  0
    4.2646  -17.8913   23.0740 N   0  0  0  0  0  0  0  0  0  0  0  0
    5.8631  -17.0222   21.4771 C   0  0  0  0  0  0  0  0  0  0  0  0
    6.6502  -17.1400   20.5034 O   0  0  0  0  0  0  0  0  0  0  0  0
    5.9288  -15.8419   22.2534 N   0  0  0  0  0  0  0  0  0  0  0  0
    6.9678  -14.8506   22.1458 C   0  0  0  0  0  0  0  0  0  0  0  0
    8.0930  -15.0240   23.0743 C   0  0  0  0  0  0  0  0  0  0  0  0
    7.8988  -14.8551   24.3287 O   0  0  0  0  0  0  0  0  0  0  0  0
    9.4095  -15.3700   22.7239 N   0  0  0  0  0  0  0  0  0  0  0  0
   10.4342  -15.6852   23.7260 C   0  0  1  0  0  0  0  0  0  0  0  0
    9.9236  -16.7970   24.5644 C   0  0  0  0  0  0  0  0  0  0  0  0
   10.3198  -18.1733   24.1556 C   0  0  0  0  0  0  0  0  0  0  0  0
   10.2502  -19.1521   25.2452 C   0  0  0  0  0  0  0  0  0  0  0  0
   11.3039  -19.8092   25.5370 O   0  0  0  0  0  0  0  0  0  0  0  0
   11.7256  -15.9868   23.0653 C   0  0  0  0  0  0  0  0  0  0  0  0
   12.7924  -16.0188   23.7240 O   0  0  0  0  0  0  0  0  0  0  0  0
    9.1050  -19.4078   25.9798 O   0  0  0  0  0  0  0  0  0  0  0  0
   11.8208  -16.2467   21.6990 O   0  0  0  0  0  0  0  0  0  0  0  0
  1  2  1  0
  2  3  2  0
  4  2  1  0
  5  6  1  1
  5  4  1  0
  7  5  1  0
  8  7  2  0
  9  7  1  0
 10 11  1  0
 10  9  1  0
 11 13  1  0
 12 11  2  0
 13 14  1  0
 14 19  1  0
 14 15  1  6
 15 16  1  0
 16 17  1  0
 17 21  1  0
 18 17  2  0
 19 20  2  0
 19 22  1  0
M  END
$$$$
