NGE.pdb
     RDKit          3D

 22 21  0  0  1  0  0  0  0  0999 V2000
    1.0167  -19.1688   21.3788 N   0  0  0  0  0  0  0  0  0  0  0  0
    2.4143  -19.3254   21.1952 C   0  0  0  0  0  0  0  0  0  0  0  0
    2.8678  -20.4739   21.0384 O   0  0  0  0  0  0  0  0  0  0  0  0
    3.2705  -18.1175   21.1985 C   0  0  0  0  0  0  0  0  0  0  0  0
    4.7177  -18.4838   21.3670 C   0  0  2  0  0  0  0  0  0  0  0  0
    5.0461  -18.5803   22.7587 N   0  0  0  0  0  0  0  0  0  0  0  0
    5.5514  -17.4232   20.6932 C   0  0  0  0  0  0  0  0  0  0  0  0
    5.2983  -17.0696   19.5132 O   0  0  0  0  0  0  0  0  0  0  0  0
    6.6316  -16.8021   21.3622 N   0  0  0  0  0  0  0  0  0  0  0  0
    7.4065  -15.7132   20.8262 C   0  0  0  0  0  0  0  0  0  0  0  0
    8.4262  -15.1685   21.7328 C   0  0  0  0  0  0  0  0  0  0  0  0
    9.1773  -14.2145   21.3261 O   0  0  0  0  0  0  0  0  0  0  0  0
    8.6763  -15.5946   23.0487 N   0  0  0  0  0  0  0  0  0  0  0  0
   10.0350  -15.7809   23.5712 C   0  0  1  0  0  0  0  0  0  0  0  0
    9.9232  -16.2007   24.9894 C   0  0  0  0  0  0  0  0  0  0  0  0
   10.2303  -17.6276   25.2858 C   0  0  0  0  0  0  0  0  0  0  0  0
   10.2121  -17.9469   26.7168 C   0  0  0  0  0  0  0  0  0  0  0  0
   10.5386  -19.1259   27.0783 O   0  0  0  0  0  0  0  0  0  0  0  0
   10.7848  -16.7403   22.7272 C   0  0  0  0  0  0  0  0  0  0  0  0
   10.1937  -17.6774   22.1394 O   0  0  0  0  0  0  0  0  0  0  0  0
    9.8603  -17.0424   27.7040 O   0  0  0  0  0  0  0  0  0  0  0  0
   12.1641  -16.6530   22.5453 O   0  0  0  0  0  0  0  0  0  0  0  0
  1  2  1  0
  2  3  2  0
  4  2  1  0
  5  6  1  1
  5  4  1  0
  7  5  1  0
  8  7  2  0
  9  7  1  0
 10 11  1  0
 10  9  1  0
 11 13  1  0
 12 11  2  0
 13 14  1  0
 14 19  1  0
 14 15  1  1
 15 16  1  0
 16 17  1  0
 17 21  1  0
 18 17  2  0
 19 20  2  0
 19 22  1  0
M  END
$$$$
