NGE.pdb
     RDKit          3D

 22 21  0  0  1  0  0  0  0  0999 V2000
    8.0572  -13.4629   15.7715 N   0  0  0  0  0  0  0  0  0  0  0  0
    7.9704  -13.9207   17.1112 C   0  0  0  0  0  0  0  0  0  0  0  0
    8.2531  -15.1085   17.3525 O   0  0  0  0  0  0  0  0  0  0  0  0
    7.5475  -12.9665   18.1614 C   0  0  0  0  0  0  0  0  0  0  0  0
    8.5725  -12.8822   19.2566 C   0  0  2  0  0  0  0  0  0  0  0  0
    9.8836  -12.7309   18.6982 N   0  0  0  0  0  0  0  0  0  0  0  0
    8.4838  -14.1425   20.0798 C   0  0  0  0  0  0  0  0  0  0  0  0
    7.4120  -14.4476   20.6624 O   0  0  0  0  0  0  0  0  0  0  0  0
    9.5929  -15.0089   20.2191 N   0  0  0  0  0  0  0  0  0  0  0  0
    9.6110  -16.1851   21.0497 C   0  0  0  0  0  0  0  0  0  0  0  0
   10.6102  -16.1721   22.1266 C   0  0  0  0  0  0  0  0  0  0  0  0
   11.6591  -15.4493   21.9960 O   0  0  0  0  0  0  0  0  0  0  0  0
   10.5378  -16.8921   23.3316 N   0  0  0  0  0  0  0  0  0  0  0  0
   11.6621  -16.9693   24.2716 C   0  0  1  0  0  0  0  0  0  0  0  0
   11.2058  -17.7219   25.4655 C   0  0  0  0  0  0  0  0  0  0  0  0
   12.2037  -17.9066   26.5556 C   0  0  0  0  0  0  0  0  0  0  0  0
   11.6835  -18.6493   27.7079 C   0  0  0  0  0  0  0  0  0  0  0  0
   11.4698  -19.8999   27.5758 O   0  0  0  0  0  0  0  0  0  0  0  0
   12.8457  -17.5678   23.6113 C   0  0  0  0  0  0  0  0  0  0  0  0
   12.7113  -18.4111   22.6928 O   0  0  0  0  0  0  0  0  0  0  0  0
   11.4088  -18.0730   28.9363 O   0  0  0  0  0  0  0  0  0  0  0  0
   14.1496  -17.2302   23.9708 O   0  0  0  0  0  0  0  0  0  0  0  0
  1  2  1  0
  2  3  2  0
  4  2  1  0
  5  6  1  6
  5  4  1  0
  7  5  1  0
  8  7  2  0
  9  7  1  0
 10 11  1  0
 10  9  1  0
 11 13  1  0
 12 11  2  0
 13 14  1  0
 14 19  1  0
 14 15  1  1
 15 16  1  0
 16 17  1  0
 17 21  1  0
 18 17  2  0
 19 20  2  0
 19 22  1  0
M  END
$$$$
