NGE.pdb
     RDKit          3D

 22 21  0  0  1  0  0  0  0  0999 V2000
    3.1654  -18.8919   20.0376 N   0  0  0  0  0  0  0  0  0  0  0  0
    3.0219  -18.6793   21.4326 C   0  0  0  0  0  0  0  0  0  0  0  0
    2.1694  -19.3434   22.0501 O   0  0  0  0  0  0  0  0  0  0  0  0
    3.8914  -17.6780   22.0912 C   0  0  0  0  0  0  0  0  0  0  0  0
    5.3303  -18.1083   22.0563 C   0  0  2  0  0  0  0  0  0  0  0  0
    5.4757  -19.4022   22.6550 N   0  0  0  0  0  0  0  0  0  0  0  0
    6.1453  -17.0804   22.8000 C   0  0  0  0  0  0  0  0  0  0  0  0
    5.8388  -16.7546   23.9753 O   0  0  0  0  0  0  0  0  0  0  0  0
    7.2666  -16.4590   22.2028 N   0  0  0  0  0  0  0  0  0  0  0  0
    8.0554  -15.4268   22.8240 C   0  0  0  0  0  0  0  0  0  0  0  0
    9.1549  -15.9077   23.6715 C   0  0  0  0  0  0  0  0  0  0  0  0
    9.2342  -17.1570   23.9415 O   0  0  0  0  0  0  0  0  0  0  0  0
   10.1692  -15.1173   24.2389 N   0  0  0  0  0  0  0  0  0  0  0  0
   11.1945  -15.6724   25.1302 C   0  0  1  0  0  0  0  0  0  0  0  0
   10.5691  -15.9022   26.4553 C   0  0  0  0  0  0  0  0  0  0  0  0
    9.7773  -14.7743   27.0205 C   0  0  0  0  0  0  0  0  0  0  0  0
   10.0582  -14.5112   28.4355 C   0  0  0  0  0  0  0  0  0  0  0  0
   10.8307  -15.3126   29.0585 O   0  0  0  0  0  0  0  0  0  0  0  0
   11.7877  -16.8932   24.5359 C   0  0  0  0  0  0  0  0  0  0  0  0
   12.4564  -16.8324   23.4766 O   0  0  0  0  0  0  0  0  0  0  0  0
    9.5334  -13.4410   29.1395 O   0  0  0  0  0  0  0  0  0  0  0  0
   11.6360  -18.1526   25.1139 O   0  0  0  0  0  0  0  0  0  0  0  0
  1  2  1  0
  2  3  2  0
  4  2  1  0
  5  6  1  1
  5  4  1  0
  7  5  1  0
  8  7  2  0
  9  7  1  0
 10 11  1  0
 10  9  1  0
 11 13  1  0
 12 11  2  0
 13 14  1  0
 14 19  1  0
 14 15  1  1
 15 16  1  0
 16 17  1  0
 17 21  1  0
 18 17  2  0
 19 20  2  0
 19 22  1  0
M  END
$$$$
