NGE.pdb
     RDKit          3D

 22 21  0  0  1  0  0  0  0  0999 V2000
    6.5307  -12.2274   20.4592 N   0  0  0  0  0  0  0  0  0  0  0  0
    7.0949  -13.0417   19.4442 C   0  0  0  0  0  0  0  0  0  0  0  0
    6.5528  -14.1323   19.1877 O   0  0  0  0  0  0  0  0  0  0  0  0
    8.3023  -12.5589   18.7360 C   0  0  0  0  0  0  0  0  0  0  0  0
    9.3071  -13.6634   18.5704 C   0  0  2  0  0  0  0  0  0  0  0  0
    8.7021  -14.7919   17.9268 N   0  0  0  0  0  0  0  0  0  0  0  0
    9.8205  -14.0392   19.9375 C   0  0  0  0  0  0  0  0  0  0  0  0
   10.4877  -13.2160   20.6148 O   0  0  0  0  0  0  0  0  0  0  0  0
    9.5691  -15.3158   20.4918 N   0  0  0  0  0  0  0  0  0  0  0  0
    9.9487  -15.7179   21.8214 C   0  0  0  0  0  0  0  0  0  0  0  0
   11.2997  -16.2827   21.9398 C   0  0  0  0  0  0  0  0  0  0  0  0
   11.7715  -16.9797   20.9747 O   0  0  0  0  0  0  0  0  0  0  0  0
   12.1653  -16.1351   23.0374 N   0  0  0  0  0  0  0  0  0  0  0  0
   13.4432  -16.8501   23.1342 C   0  0  1  0  0  0  0  0  0  0  0  0
   14.5333  -15.8533   23.0004 C   0  0  0  0  0  0  0  0  0  0  0  0
   15.9243  -16.3679   23.1370 C   0  0  0  0  0  0  0  0  0  0  0  0
   16.9517  -15.3376   22.9549 C   0  0  0  0  0  0  0  0  0  0  0  0
   17.5258  -14.8652   23.9914 O   0  0  0  0  0  0  0  0  0  0  0  0
   13.5041  -17.6284   24.3934 C   0  0  0  0  0  0  0  0  0  0  0  0
   12.7056  -17.3954   25.3321 O   0  0  0  0  0  0  0  0  0  0  0  0
   17.3384  -14.8442   21.7206 O   0  0  0  0  0  0  0  0  0  0  0  0
   14.4370  -18.6440   24.5973 O   0  0  0  0  0  0  0  0  0  0  0  0
  1  2  1  0
  2  3  2  0
  4  2  1  0
  5  6  1  1
  5  4  1  0
  7  5  1  0
  8  7  2  0
  9  7  1  0
 10 11  1  0
 10  9  1  0
 11 13  1  0
 12 11  2  0
 13 14  1  0
 14 19  1  0
 14 15  1  1
 15 16  1  0
 16 17  1  0
 17 21  1  0
 18 17  2  0
 19 20  2  0
 19 22  1  0
M  END
$$$$
