NGE.pdb
     RDKit          3D

 22 21  0  0  1  0  0  0  0  0999 V2000
    6.9403  -12.4942   18.5119 N   0  0  0  0  0  0  0  0  0  0  0  0
    8.0483  -13.3797   18.5108 C   0  0  0  0  0  0  0  0  0  0  0  0
    8.5897  -13.6524   17.4238 O   0  0  0  0  0  0  0  0  0  0  0  0
    8.5105  -13.9399   19.8011 C   0  0  0  0  0  0  0  0  0  0  0  0
    7.9264  -15.3039   20.0361 C   0  0  2  0  0  0  0  0  0  0  0  0
    6.5134  -15.2074   20.2547 N   0  0  0  0  0  0  0  0  0  0  0  0
    8.6130  -15.9079   21.2351 C   0  0  0  0  0  0  0  0  0  0  0  0
    9.8502  -16.1324   21.2135 O   0  0  0  0  0  0  0  0  0  0  0  0
    7.8924  -16.2362   22.4068 N   0  0  0  0  0  0  0  0  0  0  0  0
    8.4357  -16.9685   23.5213 C   0  0  0  0  0  0  0  0  0  0  0  0
    9.5068  -16.2816   24.2556 C   0  0  0  0  0  0  0  0  0  0  0  0
    9.6616  -15.0202   24.0984 O   0  0  0  0  0  0  0  0  0  0  0  0
   10.4141  -16.8794   25.1473 N   0  0  0  0  0  0  0  0  0  0  0  0
   11.0350  -16.1399   26.2525 C   0  0  1  0  0  0  0  0  0  0  0  0
    9.9483  -15.5959   27.1029 C   0  0  0  0  0  0  0  0  0  0  0  0
   10.3463  -14.5891   28.1258 C   0  0  0  0  0  0  0  0  0  0  0  0
   10.4332  -15.1350   29.4839 C   0  0  0  0  0  0  0  0  0  0  0  0
   10.1898  -16.3755   29.6545 O   0  0  0  0  0  0  0  0  0  0  0  0
   11.9820  -17.0108   26.9874 C   0  0  0  0  0  0  0  0  0  0  0  0
   11.7604  -18.2388   27.1133 O   0  0  0  0  0  0  0  0  0  0  0  0
   10.7650  -14.3824   30.5975 O   0  0  0  0  0  0  0  0  0  0  0  0
   13.1500  -16.5185   27.5679 O   0  0  0  0  0  0  0  0  0  0  0  0
  1  2  1  0
  2  3  2  0
  4  2  1  0
  5  6  1  1
  5  4  1  0
  7  5  1  0
  8  7  2  0
  9  7  1  0
 10 11  1  0
 10  9  1  0
 11 13  1  0
 12 11  2  0
 13 14  1  0
 14 19  1  0
 14 15  1  1
 15 16  1  0
 16 17  1  0
 17 21  1  0
 18 17  2  0
 19 20  2  0
 19 22  1  0
M  END
$$$$
