NGE.pdb
     RDKit          3D

 22 21  0  0  1  0  0  0  0  0999 V2000
    9.2292  -19.1344   16.5562 N   0  0  0  0  0  0  0  0  0  0  0  0
    8.9442  -17.7575   16.7423 C   0  0  0  0  0  0  0  0  0  0  0  0
    8.2228  -17.1820   15.9071 O   0  0  0  0  0  0  0  0  0  0  0  0
    9.5169  -17.0669   17.9201 C   0  0  0  0  0  0  0  0  0  0  0  0
   10.3552  -18.0060   18.7400 C   0  0  2  0  0  0  0  0  0  0  0  0
    9.5263  -18.7580   19.6351 N   0  0  0  0  0  0  0  0  0  0  0  0
   11.3639  -17.1873   19.5057 C   0  0  0  0  0  0  0  0  0  0  0  0
   12.3117  -16.6207   18.9040 O   0  0  0  0  0  0  0  0  0  0  0  0
   11.2740  -17.0350   20.9088 N   0  0  0  0  0  0  0  0  0  0  0  0
   12.0018  -16.0545   21.6720 C   0  0  0  0  0  0  0  0  0  0  0  0
   11.7840  -16.1078   23.1240 C   0  0  0  0  0  0  0  0  0  0  0  0
   12.5303  -15.4069   23.8930 O   0  0  0  0  0  0  0  0  0  0  0  0
   10.8080  -16.8716   23.7870 N   0  0  0  0  0  0  0  0  0  0  0  0
   10.7531  -16.9810   25.2495 C   0  0  1  0  0  0  0  0  0  0  0  0
    9.3253  -17.0169   25.6494 C   0  0  0  0  0  0  0  0  0  0  0  0
    8.3528  -17.4384   24.6030 C   0  0  0  0  0  0  0  0  0  0  0  0
    6.9809  -17.5822   25.1005 C   0  0  0  0  0  0  0  0  0  0  0  0
    6.3568  -16.5320   25.4676 O   0  0  0  0  0  0  0  0  0  0  0  0
   11.5260  -18.1592   25.7075 C   0  0  0  0  0  0  0  0  0  0  0  0
   11.6513  -18.4097   26.9300 O   0  0  0  0  0  0  0  0  0  0  0  0
    6.3188  -18.7942   25.1964 O   0  0  0  0  0  0  0  0  0  0  0  0
   12.1442  -19.0365   24.8179 O   0  0  0  0  0  0  0  0  0  0  0  0
  1  2  1  0
  2  3  2  0
  4  2  1  0
  5  6  1  1
  5  4  1  0
  7  5  1  0
  8  7  2  0
  9  7  1  0
 10 11  1  0
 10  9  1  0
 11 13  1  0
 12 11  2  0
 13 14  1  0
 14 19  1  0
 14 15  1  6
 15 16  1  0
 16 17  1  0
 17 21  1  0
 18 17  2  0
 19 20  2  0
 19 22  1  0
M  END
$$$$
