NGE.pdb
     RDKit          3D

 22 21  0  0  1  0  0  0  0  0999 V2000
    7.4471  -13.0916   16.0898 N   0  0  0  0  0  0  0  0  0  0  0  0
    7.1753  -13.5910   17.3892 C   0  0  0  0  0  0  0  0  0  0  0  0
    6.6375  -14.7084   17.4956 O   0  0  0  0  0  0  0  0  0  0  0  0
    7.5428  -12.7620   18.5596 C   0  0  0  0  0  0  0  0  0  0  0  0
    8.9242  -13.0981   19.0451 C   0  0  2  0  0  0  0  0  0  0  0  0
    9.8338  -13.1727   17.9402 N   0  0  0  0  0  0  0  0  0  0  0  0
    8.8575  -14.4172   19.7728 C   0  0  0  0  0  0  0  0  0  0  0  0
    8.2114  -14.5191   20.8469 O   0  0  0  0  0  0  0  0  0  0  0  0
    9.5134  -15.5663   19.2732 N   0  0  0  0  0  0  0  0  0  0  0  0
    9.6571  -16.8034   19.9959 C   0  0  0  0  0  0  0  0  0  0  0  0
   10.9749  -17.0174   20.6090 C   0  0  0  0  0  0  0  0  0  0  0  0
   11.6735  -18.0287   20.2499 O   0  0  0  0  0  0  0  0  0  0  0  0
   11.5771  -16.2019   21.5827 N   0  0  0  0  0  0  0  0  0  0  0  0
   12.9371  -16.4416   22.0792 C   0  0  1  0  0  0  0  0  0  0  0  0
   13.7918  -15.3180   21.6246 C   0  0  0  0  0  0  0  0  0  0  0  0
   14.0661  -15.2414   20.1626 C   0  0  0  0  0  0  0  0  0  0  0  0
   14.9687  -14.1470   19.7914 C   0  0  0  0  0  0  0  0  0  0  0  0
   15.4681  -13.4319   20.7222 O   0  0  0  0  0  0  0  0  0  0  0  0
   12.9250  -16.6187   23.5501 C   0  0  0  0  0  0  0  0  0  0  0  0
   11.9153  -16.3084   24.2263 O   0  0  0  0  0  0  0  0  0  0  0  0
   15.3132  -13.8411   18.4859 O   0  0  0  0  0  0  0  0  0  0  0  0
   14.0175  -17.1311   24.2480 O   0  0  0  0  0  0  0  0  0  0  0  0
  1  2  1  0
  2  3  2  0
  4  2  1  0
  5  6  1  6
  5  4  1  0
  7  5  1  0
  8  7  2  0
  9  7  1  0
 10 11  1  0
 10  9  1  0
 11 13  1  0
 12 11  2  0
 13 14  1  0
 14 19  1  0
 14 15  1  1
 15 16  1  0
 16 17  1  0
 17 21  1  0
 18 17  2  0
 19 20  2  0
 19 22  1  0
M  END
$$$$
