NGE.pdb
     RDKit          3D

 22 21  0  0  1  0  0  0  0  0999 V2000
    6.9503  -18.3918   17.5838 N   0  0  0  0  0  0  0  0  0  0  0  0
    8.0955  -19.1501   17.9377 C   0  0  0  0  0  0  0  0  0  0  0  0
    8.2558  -20.2657   17.4097 O   0  0  0  0  0  0  0  0  0  0  0  0
    9.0480  -18.5817   18.9186 C   0  0  0  0  0  0  0  0  0  0  0  0
    8.5978  -17.2256   19.3827 C   0  0  2  0  0  0  0  0  0  0  0  0
    9.0411  -16.2158   18.4675 N   0  0  0  0  0  0  0  0  0  0  0  0
    9.1675  -16.9879   20.7585 C   0  0  0  0  0  0  0  0  0  0  0  0
    8.8042  -17.7000   21.7292 O   0  0  0  0  0  0  0  0  0  0  0  0
   10.1173  -15.9669   20.9944 N   0  0  0  0  0  0  0  0  0  0  0  0
   10.6211  -15.6047   22.2938 C   0  0  0  0  0  0  0  0  0  0  0  0
   11.6933  -16.4668   22.8089 C   0  0  0  0  0  0  0  0  0  0  0  0
   11.8751  -17.6194   22.2813 O   0  0  0  0  0  0  0  0  0  0  0  0
   12.5766  -16.1529   23.8563 N   0  0  0  0  0  0  0  0  0  0  0  0
   13.6750  -17.0416   24.2531 C   0  0  1  0  0  0  0  0  0  0  0  0
   14.8830  -16.2065   24.4611 C   0  0  0  0  0  0  0  0  0  0  0  0
   15.3454  -15.4050   23.2939 C   0  0  0  0  0  0  0  0  0  0  0  0
   16.7993  -15.2197   23.2482 C   0  0  0  0  0  0  0  0  0  0  0  0
   17.3990  -15.4083   22.1382 O   0  0  0  0  0  0  0  0  0  0  0  0
   13.2915  -17.8348   25.4443 C   0  0  0  0  0  0  0  0  0  0  0  0
   12.3928  -17.4332   26.2215 O   0  0  0  0  0  0  0  0  0  0  0  0
   17.5642  -14.8508   24.3414 O   0  0  0  0  0  0  0  0  0  0  0  0
   13.8997  -19.0492   25.7582 O   0  0  0  0  0  0  0  0  0  0  0  0
  1  2  1  0
  2  3  2  0
  4  2  1  0
  5  6  1  6
  5  4  1  0
  7  5  1  0
  8  7  2  0
  9  7  1  0
 10 11  1  0
 10  9  1  0
 11 13  1  0
 12 11  2  0
 13 14  1  0
 14 19  1  0
 14 15  1  1
 15 16  1  0
 16 17  1  0
 17 21  1  0
 18 17  2  0
 19 20  2  0
 19 22  1  0
M  END
$$$$
