NWY.pdb
     RDKit          3D

 35 37  0  0  1  0  0  0  0  0999 V2000
   13.4278  -16.0562   18.6684 N   0  0  0  0  0  0  0  0  0  0  0  0
   12.1385  -16.5023   19.0333 C   0  0  0  0  0  0  0  0  0  0  0  0
   11.5532  -17.3255   18.2973 O   0  0  0  0  0  0  0  0  0  0  0  0
   11.4997  -16.0131   20.2465 C   0  0  0  0  0  0  0  0  0  0  0  0
   11.3926  -17.0179   21.3685 C   0  0  2  0  0  0  0  0  0  0  0  0
   10.4023  -18.0041   20.9026 N   0  0  0  0  0  0  0  0  0  0  0  0
   10.9799  -16.4294   22.6583 C   0  0  0  0  0  0  0  0  0  0  0  0
   11.6221  -15.4555   23.1250 O   0  0  0  0  0  0  0  0  0  0  0  0
    9.8869  -16.8969   23.4213 N   0  0  0  0  0  0  0  0  0  0  0  0
    9.5300  -16.3313   24.7449 C   0  0  1  0  0  0  0  0  0  0  0  0
    8.0518  -16.3401   24.8026 C   0  0  0  0  0  0  0  0  0  0  0  0
    7.3399  -15.0937   24.5035 C   0  0  0  0  0  0  0  0  0  0  0  0
    6.7783  -14.6581   23.3347 C   0  0  0  0  0  0  0  0  0  0  0  0
    6.2422  -13.4488   23.5434 N   0  0  0  0  0  0  0  0  0  0  0  0
    6.4349  -13.0735   24.8216 C   0  0  0  0  0  0  0  0  0  0  0  0
    6.0625  -11.9296   25.5331 C   0  0  0  0  0  0  0  0  0  0  0  0
    6.3767  -11.8066   26.8588 C   0  0  0  0  0  0  0  0  0  0  0  0
    7.0690  -12.8180   27.5074 C   0  0  0  0  0  0  0  0  0  0  0  0
    7.4256  -13.9338   26.7884 C   0  0  0  0  0  0  0  0  0  0  0  0
    7.1179  -14.0842   25.4388 C   0  0  0  0  0  0  0  0  0  0  0  0
   10.2901  -17.0200   25.7531 C   0  0  0  0  0  0  0  0  0  0  0  0
   10.4368  -18.2694   25.6941 O   0  0  0  0  0  0  0  0  0  0  0  0
   16.3783  -17.2479   23.5765 O   0  0  0  0  0  0  0  0  0  0  0  0
   15.5351  -17.0078   24.6599 C   0  0  0  0  0  0  0  0  0  0  0  0
   14.7025  -15.9118   24.7168 C   0  0  0  0  0  0  0  0  0  0  0  0
   13.9037  -15.7543   25.8256 C   0  0  0  0  0  0  0  0  0  0  0  0
   13.9022  -16.6533   26.8875 C   0  0  0  0  0  0  0  0  0  0  0  0
   13.0427  -16.4541   28.0649 C   0  0  0  0  0  0  0  0  0  0  0  0
   11.6546  -17.1159   27.8828 C   0  0  2  0  0  0  0  0  0  0  0  0
   10.9272  -16.3602   26.8653 N   0  0  0  0  0  0  0  0  0  0  0  0
   10.9097  -17.0425   29.1451 C   0  0  0  0  0  0  0  0  0  0  0  0
    9.7409  -16.3077   29.3119 O   0  0  0  0  0  0  0  0  0  0  0  0
   14.7565  -17.7334   26.7776 C   0  0  0  0  0  0  0  0  0  0  0  0
   15.5756  -17.9406   25.6945 C   0  0  0  0  0  0  0  0  0  0  0  0
   11.3038  -17.6617   30.1812 O   0  0  0  0  0  0  0  0  0  0  0  0
  1  2  1  0
  2  4  1  0
  3  2  2  0
  4  5  1  0
  5  7  1  0
  5  6  1  6
  7  8  2  0
  9  7  1  0
  9 10  1  0
 10 11  1  1
 12 11  1  0
 13 12  2  0
 14 13  1  0
 15 14  1  0
 15 20  2  0
 16 15  1  0
 17 16  2  0
 17 18  1  0
 18 19  2  0
 19 20  1  0
 20 12  1  0
 21 22  2  0
 21 10  1  0
 23 24  1  0
 24 25  2  0
 25 26  1  0
 27 26  2  0
 27 28  1  0
 29 28  1  1
 29 30  1  0
 30 21  1  0
 31 32  1  0
 31 29  1  0
 33 27  1  0
 34 24  1  0
 34 33  2  0
 35 31  2  0
M  END
$$$$
