NWY.pdb
     RDKit          3D

 35 37  0  0  1  0  0  0  0  0999 V2000
    9.9318  -17.9037   16.4758 N   0  0  0  0  0  0  0  0  0  0  0  0
   10.5903  -18.5707   17.5322 C   0  0  0  0  0  0  0  0  0  0  0  0
   11.1704  -19.6520   17.2956 O   0  0  0  0  0  0  0  0  0  0  0  0
   10.5950  -18.0096   18.8756 C   0  0  0  0  0  0  0  0  0  0  0  0
    9.7368  -16.7817   19.0641 C   0  0  2  0  0  0  0  0  0  0  0  0
   10.2982  -15.7800   18.1412 N   0  0  0  0  0  0  0  0  0  0  0  0
    9.7246  -16.2700   20.4491 C   0  0  0  0  0  0  0  0  0  0  0  0
   10.7978  -15.8759   20.9702 O   0  0  0  0  0  0  0  0  0  0  0  0
    8.5617  -16.1912   21.2472 N   0  0  0  0  0  0  0  0  0  0  0  0
    8.5811  -15.7139   22.6512 C   0  0  1  0  0  0  0  0  0  0  0  0
    7.2563  -15.0993   22.8871 C   0  0  0  0  0  0  0  0  0  0  0  0
    6.8952  -14.7389   24.2617 C   0  0  0  0  0  0  0  0  0  0  0  0
    6.4102  -15.5155   25.2780 C   0  0  0  0  0  0  0  0  0  0  0  0
    6.2228  -14.7415   26.3546 N   0  0  0  0  0  0  0  0  0  0  0  0
    6.5723  -13.4717   26.0760 C   0  0  0  0  0  0  0  0  0  0  0  0
    6.5791  -12.3065   26.8475 C   0  0  0  0  0  0  0  0  0  0  0  0
    7.0095  -11.1239   26.3109 C   0  0  0  0  0  0  0  0  0  0  0  0
    7.4425  -11.0730   24.9945 C   0  0  0  0  0  0  0  0  0  0  0  0
    7.4268  -12.2308   24.2540 C   0  0  0  0  0  0  0  0  0  0  0  0
    6.9942  -13.4470   24.7759 C   0  0  0  0  0  0  0  0  0  0  0  0
    9.0305  -16.7914   23.4912 C   0  0  0  0  0  0  0  0  0  0  0  0
    8.6974  -17.9782   23.2332 O   0  0  0  0  0  0  0  0  0  0  0  0
   15.6644  -15.7189   22.7286 O   0  0  0  0  0  0  0  0  0  0  0  0
   14.5934  -16.4357   23.2591 C   0  0  0  0  0  0  0  0  0  0  0  0
   14.5524  -16.8307   24.5782 C   0  0  0  0  0  0  0  0  0  0  0  0
   13.4549  -17.5353   25.0161 C   0  0  0  0  0  0  0  0  0  0  0  0
   12.3890  -17.8636   24.1844 C   0  0  0  0  0  0  0  0  0  0  0  0
   11.2319  -18.6260   24.6790 C   0  0  0  0  0  0  0  0  0  0  0  0
   10.2606  -17.7351   25.4919 C   0  0  2  0  0  0  0  0  0  0  0  0
    9.8721  -16.6078   24.6470 N   0  0  0  0  0  0  0  0  0  0  0  0
   10.9512  -17.2171   26.6787 C   0  0  0  0  0  0  0  0  0  0  0  0
   11.5206  -18.0254   27.6567 O   0  0  0  0  0  0  0  0  0  0  0  0
   12.4832  -17.4429   22.8719 C   0  0  0  0  0  0  0  0  0  0  0  0
   13.5544  -16.7371   22.3806 C   0  0  0  0  0  0  0  0  0  0  0  0
   11.0680  -15.9692   26.8824 O   0  0  0  0  0  0  0  0  0  0  0  0
  1  2  1  0
  2  4  1  0
  3  2  2  0
  4  5  1  0
  5  7  1  0
  5  6  1  6
  7  8  2  0
  9  7  1  0
  9 10  1  0
 10 11  1  1
 12 11  1  0
 13 12  2  0
 14 13  1  0
 15 14  1  0
 15 20  2  0
 16 15  1  0
 17 16  2  0
 17 18  1  0
 18 19  2  0
 19 20  1  0
 20 12  1  0
 21 22  2  0
 21 10  1  0
 23 24  1  0
 24 25  2  0
 25 26  1  0
 27 26  2  0
 27 28  1  0
 29 28  1  6
 29 30  1  0
 30 21  1  0
 31 32  1  0
 31 29  1  0
 33 27  1  0
 34 24  1  0
 34 33  2  0
 35 31  2  0
M  END
$$$$
