NWY.pdb
     RDKit          3D

 35 37  0  0  1  0  0  0  0  0999 V2000
    7.1391  -14.1735   16.8154 N   0  0  0  0  0  0  0  0  0  0  0  0
    8.3663  -14.5230   17.4205 C   0  0  0  0  0  0  0  0  0  0  0  0
    9.2588  -15.0455   16.7188 O   0  0  0  0  0  0  0  0  0  0  0  0
    8.5908  -14.2791   18.8381 C   0  0  0  0  0  0  0  0  0  0  0  0
    9.0712  -15.4723   19.6290 C   0  0  2  0  0  0  0  0  0  0  0  0
    8.0018  -16.4760   19.4905 N   0  0  0  0  0  0  0  0  0  0  0  0
    9.3330  -15.1777   21.0521 C   0  0  0  0  0  0  0  0  0  0  0  0
   10.1306  -14.2551   21.3539 O   0  0  0  0  0  0  0  0  0  0  0  0
    8.7339  -15.8783   22.1224 N   0  0  0  0  0  0  0  0  0  0  0  0
    9.0177  -15.5688   23.5447 C   0  0  1  0  0  0  0  0  0  0  0  0
    7.8937  -16.1445   24.3153 C   0  0  0  0  0  0  0  0  0  0  0  0
    6.9086  -15.2256   24.8940 C   0  0  0  0  0  0  0  0  0  0  0  0
    5.6783  -15.4792   25.4354 C   0  0  0  0  0  0  0  0  0  0  0  0
    5.1381  -14.3191   25.8299 N   0  0  0  0  0  0  0  0  0  0  0  0
    5.9808  -13.3039   25.5632 C   0  0  0  0  0  0  0  0  0  0  0  0
    5.8971  -11.9272   25.7889 C   0  0  0  0  0  0  0  0  0  0  0  0
    6.9277  -11.1031   25.4278 C   0  0  0  0  0  0  0  0  0  0  0  0
    8.0648  -11.6291   24.8335 C   0  0  0  0  0  0  0  0  0  0  0  0
    8.1256  -12.9856   24.6207 C   0  0  0  0  0  0  0  0  0  0  0  0
    7.0914  -13.8462   24.9789 C   0  0  0  0  0  0  0  0  0  0  0  0
   10.3670  -15.9719   23.8370 C   0  0  0  0  0  0  0  0  0  0  0  0
   10.9741  -16.7616   23.0664 O   0  0  0  0  0  0  0  0  0  0  0  0
    9.8433  -17.2053   30.8287 O   0  0  0  0  0  0  0  0  0  0  0  0
   10.6430  -16.7783   29.7702 C   0  0  0  0  0  0  0  0  0  0  0  0
   11.6804  -17.5389   29.2771 C   0  0  0  0  0  0  0  0  0  0  0  0
   12.4179  -17.0381   28.2293 C   0  0  0  0  0  0  0  0  0  0  0  0
   12.1596  -15.8001   27.6495 C   0  0  0  0  0  0  0  0  0  0  0  0
   12.9712  -15.2865   26.5349 C   0  0  0  0  0  0  0  0  0  0  0  0
   12.5134  -15.8672   25.1743 C   0  0  2  0  0  0  0  0  0  0  0  0
   11.1074  -15.5159   24.9867 N   0  0  0  0  0  0  0  0  0  0  0  0
   12.6328  -17.3296   25.2029 C   0  0  0  0  0  0  0  0  0  0  0  0
   11.5514  -18.1964   25.0890 O   0  0  0  0  0  0  0  0  0  0  0  0
   11.1085  -15.0802   28.1837 C   0  0  0  0  0  0  0  0  0  0  0  0
   10.3391  -15.5306   29.2287 C   0  0  0  0  0  0  0  0  0  0  0  0
   13.7605  -17.8974   25.3382 O   0  0  0  0  0  0  0  0  0  0  0  0
  1  2  1  0
  2  4  1  0
  3  2  2  0
  4  5  1  0
  5  7  1  0
  5  6  1  1
  7  8  2  0
  9  7  1  0
  9 10  1  0
 10 11  1  1
 12 11  1  0
 13 12  2  0
 14 13  1  0
 15 14  1  0
 15 20  2  0
 16 15  1  0
 17 16  2  0
 17 18  1  0
 18 19  2  0
 19 20  1  0
 20 12  1  0
 21 22  2  0
 21 10  1  0
 23 24  1  0
 24 25  2  0
 25 26  1  0
 27 26  2  0
 27 28  1  0
 29 28  1  1
 29 30  1  0
 30 21  1  0
 31 32  1  0
 31 29  1  0
 33 27  1  0
 34 24  1  0
 34 33  2  0
 35 31  2  0
M  END
$$$$
