NWY.pdb
     RDKit          3D

 35 37  0  0  1  0  0  0  0  0999 V2000
   11.5647  -16.7808   15.7197 N   0  0  0  0  0  0  0  0  0  0  0  0
   10.2552  -16.6834   16.2394 C   0  0  0  0  0  0  0  0  0  0  0  0
    9.3180  -17.2342   15.6228 O   0  0  0  0  0  0  0  0  0  0  0  0
    9.9987  -15.9544   17.4731 C   0  0  0  0  0  0  0  0  0  0  0  0
   10.1215  -16.7676   18.7395 C   0  0  2  0  0  0  0  0  0  0  0  0
    9.1192  -17.8386   18.6024 N   0  0  0  0  0  0  0  0  0  0  0  0
    9.8913  -15.9886   19.9726 C   0  0  0  0  0  0  0  0  0  0  0  0
   10.5777  -14.9585   20.1881 O   0  0  0  0  0  0  0  0  0  0  0  0
    8.9296  -16.3298   20.9494 N   0  0  0  0  0  0  0  0  0  0  0  0
    8.8404  -15.6469   22.2628 C   0  0  1  0  0  0  0  0  0  0  0  0
    7.4007  -15.6076   22.6005 C   0  0  0  0  0  0  0  0  0  0  0  0
    7.0202  -15.2398   23.9680 C   0  0  0  0  0  0  0  0  0  0  0  0
    6.6225  -16.0265   25.0139 C   0  0  0  0  0  0  0  0  0  0  0  0
    6.3720  -15.2401   26.0684 N   0  0  0  0  0  0  0  0  0  0  0  0
    6.5946  -13.9522   25.7463 C   0  0  0  0  0  0  0  0  0  0  0  0
    6.4967  -12.7676   26.4814 C   0  0  0  0  0  0  0  0  0  0  0  0
    6.8057  -11.5669   25.9031 C   0  0  0  0  0  0  0  0  0  0  0  0
    7.2187  -11.5167   24.5802 C   0  0  0  0  0  0  0  0  0  0  0  0
    7.3074  -12.6937   23.8760 C   0  0  0  0  0  0  0  0  0  0  0  0
    6.9993  -13.9285   24.4407 C   0  0  0  0  0  0  0  0  0  0  0  0
    9.7706  -16.2722   23.1641 C   0  0  0  0  0  0  0  0  0  0  0  0
    9.6259  -17.4807   23.4872 O   0  0  0  0  0  0  0  0  0  0  0  0
   10.6091  -15.9111   31.5289 O   0  0  0  0  0  0  0  0  0  0  0  0
   10.4539  -15.7166   30.1576 C   0  0  0  0  0  0  0  0  0  0  0  0
   10.6469  -14.4901   29.5609 C   0  0  0  0  0  0  0  0  0  0  0  0
   10.4717  -14.3900   28.2001 C   0  0  0  0  0  0  0  0  0  0  0  0
   10.1093  -15.4728   27.4051 C   0  0  0  0  0  0  0  0  0  0  0  0
    9.9206  -15.3337   25.9527 C   0  0  0  0  0  0  0  0  0  0  0  0
   11.2055  -15.6963   25.1681 C   0  0  2  0  0  0  0  0  0  0  0  0
   10.9041  -15.5943   23.7418 N   0  0  0  0  0  0  0  0  0  0  0  0
   11.5872  -17.0808   25.4701 C   0  0  0  0  0  0  0  0  0  0  0  0
   10.7782  -18.1811   25.2077 O   0  0  0  0  0  0  0  0  0  0  0  0
    9.9287  -16.6780   28.0559 C   0  0  0  0  0  0  0  0  0  0  0  0
   10.0898  -16.8356   29.4110 C   0  0  0  0  0  0  0  0  0  0  0  0
   12.7066  -17.3557   26.0027 O   0  0  0  0  0  0  0  0  0  0  0  0
  1  2  1  0
  2  4  1  0
  3  2  2  0
  4  5  1  0
  5  7  1  0
  5  6  1  6
  7  8  2  0
  9  7  1  0
  9 10  1  0
 10 11  1  1
 12 11  1  0
 13 12  2  0
 14 13  1  0
 15 14  1  0
 15 20  2  0
 16 15  1  0
 17 16  2  0
 17 18  1  0
 18 19  2  0
 19 20  1  0
 20 12  1  0
 21 22  2  0
 21 10  1  0
 23 24  1  0
 24 25  2  0
 25 26  1  0
 27 26  2  0
 27 28  1  0
 29 28  1  1
 29 30  1  0
 30 21  1  0
 31 32  1  0
 31 29  1  0
 33 27  1  0
 34 24  1  0
 34 33  2  0
 35 31  2  0
M  END
$$$$
