NWY.pdb
     RDKit          3D

 35 37  0  0  1  0  0  0  0  0999 V2000
   12.8969  -18.2825   18.7052 N   0  0  0  0  0  0  0  0  0  0  0  0
   11.8589  -18.6257   19.5992 C   0  0  0  0  0  0  0  0  0  0  0  0
   11.0153  -19.4778   19.2471 O   0  0  0  0  0  0  0  0  0  0  0  0
   11.7712  -17.9988   20.9102 C   0  0  0  0  0  0  0  0  0  0  0  0
   10.3961  -17.5130   21.3015 C   0  0  2  0  0  0  0  0  0  0  0  0
   10.0713  -16.4614   20.3222 N   0  0  0  0  0  0  0  0  0  0  0  0
   10.3192  -16.9882   22.6795 C   0  0  0  0  0  0  0  0  0  0  0  0
   11.2157  -16.2118   23.0943 O   0  0  0  0  0  0  0  0  0  0  0  0
    9.2825  -17.3065   23.5847 N   0  0  0  0  0  0  0  0  0  0  0  0
    9.2119  -16.7457   24.9557 C   0  0  1  0  0  0  0  0  0  0  0  0
    7.7772  -16.4975   25.2172 C   0  0  0  0  0  0  0  0  0  0  0  0
    7.1728  -15.2818   24.6635 C   0  0  0  0  0  0  0  0  0  0  0  0
    6.6237  -15.0528   23.4318 C   0  0  0  0  0  0  0  0  0  0  0  0
    6.2037  -13.7823   23.3812 N   0  0  0  0  0  0  0  0  0  0  0  0
    6.4608  -13.1648   24.5493 C   0  0  0  0  0  0  0  0  0  0  0  0
    6.2103  -11.8669   25.0030 C   0  0  0  0  0  0  0  0  0  0  0  0
    6.5671  -11.4962   26.2706 C   0  0  0  0  0  0  0  0  0  0  0  0
    7.1818  -12.4076   27.1159 C   0  0  0  0  0  0  0  0  0  0  0  0
    7.4189  -13.6783   26.6489 C   0  0  0  0  0  0  0  0  0  0  0  0
    7.0655  -14.0812   25.3638 C   0  0  0  0  0  0  0  0  0  0  0  0
    9.9628  -17.6006   25.8355 C   0  0  0  0  0  0  0  0  0  0  0  0
   10.7450  -18.4671   25.3629 O   0  0  0  0  0  0  0  0  0  0  0  0
   15.1808  -17.1488   23.2000 O   0  0  0  0  0  0  0  0  0  0  0  0
   14.3507  -16.8725   24.2848 C   0  0  0  0  0  0  0  0  0  0  0  0
   13.5686  -15.7401   24.3444 C   0  0  0  0  0  0  0  0  0  0  0  0
   12.7791  -15.5482   25.4545 C   0  0  0  0  0  0  0  0  0  0  0  0
   12.7383  -16.4478   26.5150 C   0  0  0  0  0  0  0  0  0  0  0  0
   11.8902  -16.2117   27.6939 C   0  0  0  0  0  0  0  0  0  0  0  0
   11.0967  -17.4796   28.0952 C   0  0  2  0  0  0  0  0  0  0  0  0
    9.8893  -17.5319   27.2735 N   0  0  0  0  0  0  0  0  0  0  0  0
   10.7019  -17.3821   29.5052 C   0  0  0  0  0  0  0  0  0  0  0  0
    9.3825  -17.2870   29.9344 O   0  0  0  0  0  0  0  0  0  0  0  0
   13.5427  -17.5653   26.4024 C   0  0  0  0  0  0  0  0  0  0  0  0
   14.3503  -17.8078   25.3180 C   0  0  0  0  0  0  0  0  0  0  0  0
   11.5674  -17.3780   30.4343 O   0  0  0  0  0  0  0  0  0  0  0  0
  1  2  1  0
  2  4  1  0
  3  2  2  0
  4  5  1  0
  5  7  1  0
  5  6  1  6
  7  8  2  0
  9  7  1  0
  9 10  1  0
 10 11  1  1
 12 11  1  0
 13 12  2  0
 14 13  1  0
 15 14  1  0
 15 20  2  0
 16 15  1  0
 17 16  2  0
 17 18  1  0
 18 19  2  0
 19 20  1  0
 20 12  1  0
 21 22  2  0
 21 10  1  0
 23 24  1  0
 24 25  2  0
 25 26  1  0
 27 26  2  0
 27 28  1  0
 29 28  1  6
 29 30  1  0
 30 21  1  0
 31 32  1  0
 31 29  1  0
 33 27  1  0
 34 24  1  0
 34 33  2  0
 35 31  2  0
M  END
$$$$
