NWY.pdb
     RDKit          3D

 35 37  0  0  1  0  0  0  0  0999 V2000
    9.3254  -17.4536   18.3304 N   0  0  0  0  0  0  0  0  0  0  0  0
    9.2217  -16.0690   18.5884 C   0  0  0  0  0  0  0  0  0  0  0  0
    8.9620  -15.2958   17.6415 O   0  0  0  0  0  0  0  0  0  0  0  0
    9.4131  -15.5486   19.9345 C   0  0  0  0  0  0  0  0  0  0  0  0
    9.8033  -16.5736   20.9722 C   0  0  2  0  0  0  0  0  0  0  0  0
    8.5977  -17.3983   21.1643 N   0  0  0  0  0  0  0  0  0  0  0  0
   10.2467  -15.9866   22.2525 C   0  0  0  0  0  0  0  0  0  0  0  0
   11.2166  -15.1880   22.2613 O   0  0  0  0  0  0  0  0  0  0  0  0
    9.6409  -16.2677   23.4972 N   0  0  0  0  0  0  0  0  0  0  0  0
   10.2660  -15.9117   24.7941 C   0  0  1  0  0  0  0  0  0  0  0  0
    9.1742  -15.9469   25.7917 C   0  0  0  0  0  0  0  0  0  0  0  0
    7.9334  -15.2282   25.4856 C   0  0  0  0  0  0  0  0  0  0  0  0
    6.7707  -15.6775   24.9222 C   0  0  0  0  0  0  0  0  0  0  0  0
    5.9147  -14.6514   24.8340 N   0  0  0  0  0  0  0  0  0  0  0  0
    6.4820  -13.5341   25.3257 C   0  0  0  0  0  0  0  0  0  0  0  0
    6.0119  -12.2264   25.4733 C   0  0  0  0  0  0  0  0  0  0  0  0
    6.8072  -11.2643   26.0333 C   0  0  0  0  0  0  0  0  0  0  0  0
    8.0885  -11.5807   26.4588 C   0  0  0  0  0  0  0  0  0  0  0  0
    8.5305  -12.8728   26.3036 C   0  0  0  0  0  0  0  0  0  0  0  0
    7.7415  -13.8706   25.7374 C   0  0  0  0  0  0  0  0  0  0  0  0
   11.4310  -16.7348   24.9781 C   0  0  0  0  0  0  0  0  0  0  0  0
   12.5679  -16.3088   24.6436 O   0  0  0  0  0  0  0  0  0  0  0  0
   12.7054  -18.8347   33.1787 O   0  0  0  0  0  0  0  0  0  0  0  0
   12.2751  -18.5326   31.8880 C   0  0  0  0  0  0  0  0  0  0  0  0
   11.0267  -18.8871   31.4258 C   0  0  0  0  0  0  0  0  0  0  0  0
   10.6861  -18.5478   30.1368 C   0  0  0  0  0  0  0  0  0  0  0  0
   11.5473  -17.8638   29.2847 C   0  0  0  0  0  0  0  0  0  0  0  0
   11.1584  -17.5219   27.9076 C   0  0  0  0  0  0  0  0  0  0  0  0
   11.9595  -18.3385   26.8637 C   0  0  2  0  0  0  0  0  0  0  0  0
   11.3936  -18.0595   25.5456 N   0  0  0  0  0  0  0  0  0  0  0  0
   11.8101  -19.7709   27.1459 C   0  0  0  0  0  0  0  0  0  0  0  0
   10.6431  -20.4887   26.9075 O   0  0  0  0  0  0  0  0  0  0  0  0
   12.7858  -17.5339   29.8002 C   0  0  0  0  0  0  0  0  0  0  0  0
   13.1790  -17.8472   31.0786 C   0  0  0  0  0  0  0  0  0  0  0  0
   12.7639  -20.4499   27.6374 O   0  0  0  0  0  0  0  0  0  0  0  0
  1  2  1  0
  2  4  1  0
  3  2  2  0
  4  5  1  0
  5  7  1  0
  5  6  1  1
  7  8  2  0
  9  7  1  0
  9 10  1  0
 10 11  1  1
 12 11  1  0
 13 12  2  0
 14 13  1  0
 15 14  1  0
 15 20  2  0
 16 15  1  0
 17 16  2  0
 17 18  1  0
 18 19  2  0
 19 20  1  0
 20 12  1  0
 21 22  2  0
 21 10  1  0
 23 24  1  0
 24 25  2  0
 25 26  1  0
 27 26  2  0
 27 28  1  0
 29 28  1  1
 29 30  1  0
 30 21  1  0
 31 32  1  0
 31 29  1  0
 33 27  1  0
 34 24  1  0
 34 33  2  0
 35 31  2  0
M  END
$$$$
