NWY.pdb
     RDKit          3D

 35 37  0  0  1  0  0  0  0  0999 V2000
    9.4029  -17.2446   16.6493 N   0  0  0  0  0  0  0  0  0  0  0  0
    8.5536  -16.1843   17.0351 C   0  0  0  0  0  0  0  0  0  0  0  0
    7.8967  -15.5860   16.1563 O   0  0  0  0  0  0  0  0  0  0  0  0
    8.4429  -15.7932   18.4330 C   0  0  0  0  0  0  0  0  0  0  0  0
    9.1762  -16.6803   19.4104 C   0  0  2  0  0  0  0  0  0  0  0  0
    8.3518  -17.8970   19.5122 N   0  0  0  0  0  0  0  0  0  0  0  0
    9.3733  -16.0676   20.7393 C   0  0  0  0  0  0  0  0  0  0  0  0
   10.0485  -15.0126   20.8376 O   0  0  0  0  0  0  0  0  0  0  0  0
    8.8422  -16.5985   21.9358 N   0  0  0  0  0  0  0  0  0  0  0  0
    9.0133  -15.9395   23.2533 C   0  0  1  0  0  0  0  0  0  0  0  0
    7.9436  -16.4829   24.1185 C   0  0  0  0  0  0  0  0  0  0  0  0
    6.9899  -15.5418   24.7141 C   0  0  0  0  0  0  0  0  0  0  0  0
    5.7536  -15.7642   25.2557 C   0  0  0  0  0  0  0  0  0  0  0  0
    5.2518  -14.5936   25.6691 N   0  0  0  0  0  0  0  0  0  0  0  0
    6.1257  -13.6018   25.4149 C   0  0  0  0  0  0  0  0  0  0  0  0
    6.0867  -12.2267   25.6612 C   0  0  0  0  0  0  0  0  0  0  0  0
    7.1420  -11.4305   25.3091 C   0  0  0  0  0  0  0  0  0  0  0  0
    8.2601  -11.9835   24.7033 C   0  0  0  0  0  0  0  0  0  0  0  0
    8.2770  -13.3379   24.4701 C   0  0  0  0  0  0  0  0  0  0  0  0
    7.2168  -14.1704   24.8189 C   0  0  0  0  0  0  0  0  0  0  0  0
   10.3898  -16.0679   23.6501 C   0  0  0  0  0  0  0  0  0  0  0  0
   11.1948  -16.7296   22.9428 O   0  0  0  0  0  0  0  0  0  0  0  0
    9.4724  -16.7899   30.6866 O   0  0  0  0  0  0  0  0  0  0  0  0
   10.2148  -16.2482   29.6389 C   0  0  0  0  0  0  0  0  0  0  0  0
    9.8423  -15.0893   28.9941 C   0  0  0  0  0  0  0  0  0  0  0  0
   10.6356  -14.6269   27.9697 C   0  0  0  0  0  0  0  0  0  0  0  0
   11.7943  -15.2791   27.5604 C   0  0  0  0  0  0  0  0  0  0  0  0
   12.6187  -14.7653   26.4554 C   0  0  0  0  0  0  0  0  0  0  0  0
   12.3675  -15.5430   25.1400 C   0  0  2  0  0  0  0  0  0  0  0  0
   10.9395  -15.4662   24.8392 N   0  0  0  0  0  0  0  0  0  0  0  0
   12.7331  -16.9517   25.3286 C   0  0  0  0  0  0  0  0  0  0  0  0
   11.8144  -17.9957   25.3315 O   0  0  0  0  0  0  0  0  0  0  0  0
   12.1198  -16.4362   28.2414 C   0  0  0  0  0  0  0  0  0  0  0  0
   11.3651  -16.9437   29.2709 C   0  0  0  0  0  0  0  0  0  0  0  0
   13.9407  -17.3023   25.5053 O   0  0  0  0  0  0  0  0  0  0  0  0
  1  2  1  0
  2  4  1  0
  3  2  2  0
  4  5  1  0
  5  7  1  0
  5  6  1  1
  7  8  2  0
  9  7  1  0
  9 10  1  0
 10 11  1  1
 12 11  1  0
 13 12  2  0
 14 13  1  0
 15 14  1  0
 15 20  2  0
 16 15  1  0
 17 16  2  0
 17 18  1  0
 18 19  2  0
 19 20  1  0
 20 12  1  0
 21 22  2  0
 21 10  1  0
 23 24  1  0
 24 25  2  0
 25 26  1  0
 27 26  2  0
 27 28  1  0
 29 28  1  1
 29 30  1  0
 30 21  1  0
 31 32  1  0
 31 29  1  0
 33 27  1  0
 34 24  1  0
 34 33  2  0
 35 31  2  0
M  END
$$$$
