NWY.pdb
     RDKit          3D

 35 37  0  0  1  0  0  0  0  0999 V2000
   10.1559  -17.9389   16.2262 N   0  0  0  0  0  0  0  0  0  0  0  0
    9.6217  -16.6316   16.2161 C   0  0  0  0  0  0  0  0  0  0  0  0
    9.4880  -16.0420   15.1224 O   0  0  0  0  0  0  0  0  0  0  0  0
    9.2320  -15.9797   17.4580 C   0  0  0  0  0  0  0  0  0  0  0  0
    9.5309  -16.7590   18.7163 C   0  0  2  0  0  0  0  0  0  0  0  0
    8.5486  -17.8570   18.7260 N   0  0  0  0  0  0  0  0  0  0  0  0
    9.4327  -15.9565   19.9519 C   0  0  0  0  0  0  0  0  0  0  0  0
   10.2873  -15.0631   20.1761 O   0  0  0  0  0  0  0  0  0  0  0  0
    8.4201  -16.1281   20.9217 N   0  0  0  0  0  0  0  0  0  0  0  0
    8.4703  -15.4875   22.2583 C   0  0  1  0  0  0  0  0  0  0  0  0
    7.4331  -16.1626   23.0688 C   0  0  0  0  0  0  0  0  0  0  0  0
    6.9418  -15.4817   24.2708 C   0  0  0  0  0  0  0  0  0  0  0  0
    6.3095  -15.9869   25.3736 C   0  0  0  0  0  0  0  0  0  0  0  0
    6.0442  -14.9779   26.2132 N   0  0  0  0  0  0  0  0  0  0  0  0
    6.4857  -13.8174   25.6934 C   0  0  0  0  0  0  0  0  0  0  0  0
    6.4665  -12.5042   26.1713 C   0  0  0  0  0  0  0  0  0  0  0  0
    7.0124  -11.4908   25.4320 C   0  0  0  0  0  0  0  0  0  0  0  0
    7.5895  -11.7600   24.2001 C   0  0  0  0  0  0  0  0  0  0  0  0
    7.5969  -13.0584   23.7493 C   0  0  0  0  0  0  0  0  0  0  0  0
    7.0488  -14.1079   24.4819 C   0  0  0  0  0  0  0  0  0  0  0  0
    9.8367  -15.4788   22.7070 C   0  0  0  0  0  0  0  0  0  0  0  0
   10.5788  -14.4915   22.4610 O   0  0  0  0  0  0  0  0  0  0  0  0
   11.3025  -15.0160   31.0499 O   0  0  0  0  0  0  0  0  0  0  0  0
   10.9144  -15.2175   29.7266 C   0  0  0  0  0  0  0  0  0  0  0  0
   10.6686  -14.1724   28.8636 C   0  0  0  0  0  0  0  0  0  0  0  0
   10.2897  -14.4646   27.5738 C   0  0  0  0  0  0  0  0  0  0  0  0
   10.1455  -15.7674   27.1073 C   0  0  0  0  0  0  0  0  0  0  0  0
    9.7303  -16.0494   25.7243 C   0  0  0  0  0  0  0  0  0  0  0  0
   10.9429  -16.3515   24.8096 C   0  0  2  0  0  0  0  0  0  0  0  0
   10.4414  -16.5545   23.4521 N   0  0  0  0  0  0  0  0  0  0  0  0
   11.5972  -17.5859   25.2587 C   0  0  0  0  0  0  0  0  0  0  0  0
   11.1637  -18.8612   24.9127 O   0  0  0  0  0  0  0  0  0  0  0  0
   10.4043  -16.7759   28.0153 C   0  0  0  0  0  0  0  0  0  0  0  0
   10.7854  -16.5425   29.3142 C   0  0  0  0  0  0  0  0  0  0  0  0
   12.6214  -17.5551   26.0086 O   0  0  0  0  0  0  0  0  0  0  0  0
  1  2  1  0
  2  4  1  0
  3  2  2  0
  4  5  1  0
  5  7  1  0
  5  6  1  1
  7  8  2  0
  9  7  1  0
  9 10  1  0
 10 11  1  1
 12 11  1  0
 13 12  2  0
 14 13  1  0
 15 14  1  0
 15 20  2  0
 16 15  1  0
 17 16  2  0
 17 18  1  0
 18 19  2  0
 19 20  1  0
 20 12  1  0
 21 22  2  0
 21 10  1  0
 23 24  1  0
 24 25  2  0
 25 26  1  0
 27 26  2  0
 27 28  1  0
 29 28  1  1
 29 30  1  0
 30 21  1  0
 31 32  1  0
 31 29  1  0
 33 27  1  0
 34 24  1  0
 34 33  2  0
 35 31  2  0
M  END
$$$$
