NWY.pdb
     RDKit          3D

 35 37  0  0  1  0  0  0  0  0999 V2000
    8.7316  -15.3939   16.1883 N   0  0  0  0  0  0  0  0  0  0  0  0
    8.3848  -16.0680   17.3798 C   0  0  0  0  0  0  0  0  0  0  0  0
    7.4336  -16.8784   17.3605 O   0  0  0  0  0  0  0  0  0  0  0  0
    9.1219  -15.8249   18.6114 C   0  0  0  0  0  0  0  0  0  0  0  0
    8.2881  -15.3558   19.7796 C   0  0  2  0  0  0  0  0  0  0  0  0
    7.7217  -14.0659   19.3489 N   0  0  0  0  0  0  0  0  0  0  0  0
    9.0526  -15.2006   21.0333 C   0  0  0  0  0  0  0  0  0  0  0  0
   10.0934  -14.4968   21.0374 O   0  0  0  0  0  0  0  0  0  0  0  0
    8.6853  -15.8029   22.2571 N   0  0  0  0  0  0  0  0  0  0  0  0
    9.6105  -15.9071   23.4114 C   0  0  1  0  0  0  0  0  0  0  0  0
    8.7590  -16.1918   24.5871 C   0  0  0  0  0  0  0  0  0  0  0  0
    7.6574  -15.2707   24.8834 C   0  0  0  0  0  0  0  0  0  0  0  0
    6.3370  -15.3339   24.5319 C   0  0  0  0  0  0  0  0  0  0  0  0
    5.7116  -14.2580   25.0265 N   0  0  0  0  0  0  0  0  0  0  0  0
    6.5856  -13.4845   25.6971 C   0  0  0  0  0  0  0  0  0  0  0  0
    6.4358  -12.2843   26.3973 C   0  0  0  0  0  0  0  0  0  0  0  0
    7.5098  -11.7058   27.0166 C   0  0  0  0  0  0  0  0  0  0  0  0
    8.7576  -12.3075   26.9533 C   0  0  0  0  0  0  0  0  0  0  0  0
    8.8821  -13.4871   26.2590 C   0  0  0  0  0  0  0  0  0  0  0  0
    7.8055  -14.0968   25.6204 C   0  0  0  0  0  0  0  0  0  0  0  0
   10.6736  -16.8104   23.0615 C   0  0  0  0  0  0  0  0  0  0  0  0
   10.4608  -17.7621   22.2645 O   0  0  0  0  0  0  0  0  0  0  0  0
   17.1828  -14.4507   18.1665 O   0  0  0  0  0  0  0  0  0  0  0  0
   16.1512  -14.7228   19.0631 C   0  0  0  0  0  0  0  0  0  0  0  0
   16.2469  -15.7102   20.0188 C   0  0  0  0  0  0  0  0  0  0  0  0
   15.1787  -15.9094   20.8626 C   0  0  0  0  0  0  0  0  0  0  0  0
   14.0106  -15.1571   20.7905 C   0  0  0  0  0  0  0  0  0  0  0  0
   12.8807  -15.3988   21.7012 C   0  0  0  0  0  0  0  0  0  0  0  0
   13.1629  -16.5741   22.6693 C   0  0  2  0  0  0  0  0  0  0  0  0
   12.0182  -16.6991   23.5690 N   0  0  0  0  0  0  0  0  0  0  0  0
   14.3573  -16.2731   23.4670 C   0  0  0  0  0  0  0  0  0  0  0  0
   15.6275  -16.7555   23.1704 O   0  0  0  0  0  0  0  0  0  0  0  0
   13.9692  -14.1812   19.8135 C   0  0  0  0  0  0  0  0  0  0  0  0
   15.0051  -13.9387   18.9446 C   0  0  0  0  0  0  0  0  0  0  0  0
   14.2932  -15.5370   24.4997 O   0  0  0  0  0  0  0  0  0  0  0  0
  1  2  1  0
  2  4  1  0
  3  2  2  0
  4  5  1  0
  5  7  1  0
  5  6  1  6
  7  8  2  0
  9  7  1  0
  9 10  1  0
 10 11  1  1
 12 11  1  0
 13 12  2  0
 14 13  1  0
 15 14  1  0
 15 20  2  0
 16 15  1  0
 17 16  2  0
 17 18  1  0
 18 19  2  0
 19 20  1  0
 20 12  1  0
 21 22  2  0
 21 10  1  0
 23 24  1  0
 24 25  2  0
 25 26  1  0
 27 26  2  0
 27 28  1  0
 29 28  1  6
 29 30  1  0
 30 21  1  0
 31 32  1  0
 31 29  1  0
 33 27  1  0
 34 24  1  0
 34 33  2  0
 35 31  2  0
M  END
$$$$
