DMN.pdb
     RDKit          3D

 25 24  0  0  1  0  0  0  0  0999 V2000
    9.7732  -15.9267   20.4606 N   0  0  0  0  0  0  0  0  0  0  0  0
    9.9404  -16.8131   21.5914 C   0  0  1  0  0  0  0  0  0  0  0  0
   11.3134  -17.4590   21.5506 C   0  0  0  0  0  0  0  0  0  0  0  0
   11.4577  -18.1576   20.2583 C   0  0  0  0  0  0  0  0  0  0  0  0
   10.4677  -18.7439   19.7648 O   0  0  0  0  0  0  0  0  0  0  0  0
    9.7744  -16.0237   22.8343 C   0  0  0  0  0  0  0  0  0  0  0  0
   10.7800  -15.5385   23.3854 O   0  0  0  0  0  0  0  0  0  0  0  0
   12.6521  -18.1984   19.5520 O   0  0  0  0  0  0  0  0  0  0  0  0
    6.4404  -11.1654   27.3097 C   0  0  0  0  0  0  0  0  0  0  0  0
    7.2140  -11.9774   25.8840 S   0  0  0  0  0  0  0  0  0  0  0  0
    6.4045  -13.5492   25.5936 C   0  0  0  0  0  0  0  0  0  0  0  0
    6.9480  -14.3719   24.5054 C   0  0  0  0  0  0  0  0  0  0  0  0
    8.3015  -14.9811   24.6225 C   0  0  2  0  0  0  0  0  0  0  0  0
    8.5002  -15.8226   23.3880 N   0  0  0  0  0  0  0  0  0  0  0  0
    8.4346  -15.8818   25.7515 C   0  0  0  0  0  0  0  0  0  0  0  0
    8.4006  -15.3870   26.9245 O   0  0  0  0  0  0  0  0  0  0  0  0
    7.0069  -19.7026   24.2668 N   0  0  0  0  0  0  0  0  0  0  0  0
    7.0357  -19.4195   25.6600 C   0  0  0  0  0  0  0  0  0  0  0  0
    5.9399  -19.0986   26.1873 O   0  0  0  0  0  0  0  0  0  0  0  0
    8.3013  -19.5089   26.4097 C   0  0  0  0  0  0  0  0  0  0  0  0
    8.8015  -18.1086   26.8613 C   0  0  2  0  0  0  0  0  0  0  0  0
    8.5892  -17.2826   25.6843 N   0  0  0  0  0  0  0  0  0  0  0  0
   10.1559  -18.1787   27.3566 C   0  0  0  0  0  0  0  0  0  0  0  0
   11.1472  -17.6406   26.8204 O   0  0  0  0  0  0  0  0  0  0  0  0
   10.4098  -18.8925   28.5197 O   0  0  0  0  0  0  0  0  0  0  0  0
  2  1  1  6
  2  6  1  0
  2  3  1  0
  3  4  1  0
  4  5  2  0
  4  8  1  0
  6  7  2  0
  9 10  1  0
 10 11  1  0
 11 12  1  0
 13 12  1  6
 13 14  1  0
 14  6  1  0
 15 13  1  0
 16 15  2  0
 17 18  1  0
 18 20  1  0
 19 18  2  0
 21 20  1  6
 21 22  1  0
 21 23  1  0
 22 15  1  0
 23 25  1  0
 24 23  2  0
M  END
$$$$
