DMN.pdb
     RDKit          3D

 25 24  0  0  1  0  0  0  0  0999 V2000
    8.0610  -17.2115   20.6658 N   0  0  0  0  0  0  0  0  0  0  0  0
    9.4829  -17.1245   20.9168 C   0  0  1  0  0  0  0  0  0  0  0  0
   10.2108  -16.6951   19.6560 C   0  0  0  0  0  0  0  0  0  0  0  0
    9.9679  -17.7109   18.6129 C   0  0  0  0  0  0  0  0  0  0  0  0
    9.2001  -17.4408   17.6617 O   0  0  0  0  0  0  0  0  0  0  0  0
    9.7075  -16.1449   22.0056 C   0  0  0  0  0  0  0  0  0  0  0  0
   10.8725  -15.8920   22.3653 O   0  0  0  0  0  0  0  0  0  0  0  0
   10.5555  -18.9684   18.6330 O   0  0  0  0  0  0  0  0  0  0  0  0
    6.6050  -11.3539   27.2185 C   0  0  0  0  0  0  0  0  0  0  0  0
    6.4201  -12.7675   26.0969 S   0  0  0  0  0  0  0  0  0  0  0  0
    7.4585  -12.5151   24.6588 C   0  0  0  0  0  0  0  0  0  0  0  0
    7.5797  -13.6496   23.7342 C   0  0  0  0  0  0  0  0  0  0  0  0
    8.8295  -14.4576   23.6897 C   0  0  2  0  0  0  0  0  0  0  0  0
    8.6228  -15.5068   22.6275 N   0  0  0  0  0  0  0  0  0  0  0  0
    9.0978  -15.1760   24.9208 C   0  0  0  0  0  0  0  0  0  0  0  0
    9.5938  -14.5298   25.8997 O   0  0  0  0  0  0  0  0  0  0  0  0
    8.5402  -20.6175   27.5167 N   0  0  0  0  0  0  0  0  0  0  0  0
    8.3101  -19.2205   27.6483 C   0  0  0  0  0  0  0  0  0  0  0  0
    8.2728  -18.7688   28.8215 O   0  0  0  0  0  0  0  0  0  0  0  0
    8.1303  -18.3815   26.4501 C   0  0  0  0  0  0  0  0  0  0  0  0
    9.1237  -17.1867   26.4311 C   0  0  2  0  0  0  0  0  0  0  0  0
    8.8497  -16.5448   25.1562 N   0  0  0  0  0  0  0  0  0  0  0  0
   10.4790  -17.6382   26.6407 C   0  0  0  0  0  0  0  0  0  0  0  0
   11.0121  -17.8223   27.7550 O   0  0  0  0  0  0  0  0  0  0  0  0
   11.2790  -17.8981   25.5365 O   0  0  0  0  0  0  0  0  0  0  0  0
  2  1  1  6
  2  6  1  0
  2  3  1  0
  3  4  1  0
  4  5  2  0
  4  8  1  0
  6  7  2  0
  9 10  1  0
 10 11  1  0
 11 12  1  0
 13 12  1  1
 13 14  1  0
 14  6  1  0
 15 13  1  0
 16 15  2  0
 17 18  1  0
 18 20  1  0
 19 18  2  0
 21 20  1  6
 21 22  1  0
 21 23  1  0
 22 15  1  0
 23 25  1  0
 24 23  2  0
M  END
$$$$
