DMN.pdb
     RDKit          3D

 25 24  0  0  1  0  0  0  0  0999 V2000
    9.9707  -16.0997   19.5967 N   0  0  0  0  0  0  0  0  0  0  0  0
    8.9455  -16.5294   20.5222 C   0  0  1  0  0  0  0  0  0  0  0  0
    8.9579  -18.0418   20.6506 C   0  0  0  0  0  0  0  0  0  0  0  0
    8.6619  -18.6210   19.3255 C   0  0  0  0  0  0  0  0  0  0  0  0
    8.2706  -17.8710   18.4026 O   0  0  0  0  0  0  0  0  0  0  0  0
    9.2039  -15.8944   21.8357 C   0  0  0  0  0  0  0  0  0  0  0  0
   10.3792  -15.7517   22.2215 O   0  0  0  0  0  0  0  0  0  0  0  0
    8.7971  -19.9740   19.0463 O   0  0  0  0  0  0  0  0  0  0  0  0
    7.3983  -11.4900   27.7130 C   0  0  0  0  0  0  0  0  0  0  0  0
    7.6963  -12.0060   25.9998 S   0  0  0  0  0  0  0  0  0  0  0  0
    6.9396  -13.6075   25.7293 C   0  0  0  0  0  0  0  0  0  0  0  0
    7.0972  -14.1856   24.3886 C   0  0  0  0  0  0  0  0  0  0  0  0
    8.3770  -14.8345   23.9914 C   0  0  2  0  0  0  0  0  0  0  0  0
    8.1393  -15.4573   22.6396 N   0  0  0  0  0  0  0  0  0  0  0  0
    8.7740  -15.9170   24.8712 C   0  0  0  0  0  0  0  0  0  0  0  0
    8.0464  -16.9617   24.9075 O   0  0  0  0  0  0  0  0  0  0  0  0
   11.5653  -19.1836   27.7992 N   0  0  0  0  0  0  0  0  0  0  0  0
   12.3420  -18.4869   26.8332 C   0  0  0  0  0  0  0  0  0  0  0  0
   13.5226  -18.8891   26.6705 O   0  0  0  0  0  0  0  0  0  0  0  0
   11.7585  -17.3600   26.0840 C   0  0  0  0  0  0  0  0  0  0  0  0
   10.2850  -17.0949   26.5004 C   0  0  2  0  0  0  0  0  0  0  0  0
    9.9149  -15.9389   25.7010 N   0  0  0  0  0  0  0  0  0  0  0  0
   10.1717  -16.9445   27.9318 C   0  0  0  0  0  0  0  0  0  0  0  0
   10.0066  -17.8796   28.7430 O   0  0  0  0  0  0  0  0  0  0  0  0
   10.2491  -15.6724   28.4820 O   0  0  0  0  0  0  0  0  0  0  0  0
  2  1  1  6
  2  6  1  0
  2  3  1  0
  3  4  1  0
  4  5  2  0
  4  8  1  0
  6  7  2  0
  9 10  1  0
 10 11  1  0
 11 12  1  0
 13 12  1  1
 13 14  1  0
 14  6  1  0
 15 13  1  0
 16 15  2  0
 17 18  1  0
 18 20  1  0
 19 18  2  0
 21 20  1  1
 21 22  1  0
 21 23  1  0
 22 15  1  0
 23 25  1  0
 24 23  2  0
M  END
$$$$
