DMN.pdb
     RDKit          3D

 25 24  0  0  1  0  0  0  0  0999 V2000
    9.0589  -15.6530   19.6745 N   0  0  0  0  0  0  0  0  0  0  0  0
    9.4941  -16.6682   20.6084 C   0  0  1  0  0  0  0  0  0  0  0  0
   10.8340  -17.2357   20.1767 C   0  0  0  0  0  0  0  0  0  0  0  0
   10.5841  -18.4157   19.3258 C   0  0  0  0  0  0  0  0  0  0  0  0
    9.4076  -18.7068   19.0121 O   0  0  0  0  0  0  0  0  0  0  0  0
    9.5987  -16.0543   21.9529 C   0  0  0  0  0  0  0  0  0  0  0  0
   10.7254  -15.8149   22.4261 O   0  0  0  0  0  0  0  0  0  0  0  0
   11.6014  -19.2310   18.8489 O   0  0  0  0  0  0  0  0  0  0  0  0
    6.7195  -11.9267   27.7247 C   0  0  0  0  0  0  0  0  0  0  0  0
    7.1210  -12.3128   25.9985 S   0  0  0  0  0  0  0  0  0  0  0  0
    6.8982  -14.0692   25.7230 C   0  0  0  0  0  0  0  0  0  0  0  0
    7.2114  -14.5634   24.3761 C   0  0  0  0  0  0  0  0  0  0  0  0
    8.5263  -15.2015   24.0922 C   0  0  2  0  0  0  0  0  0  0  0  0
    8.4440  -15.7446   22.6887 N   0  0  0  0  0  0  0  0  0  0  0  0
    8.8154  -16.3358   24.9484 C   0  0  0  0  0  0  0  0  0  0  0  0
    7.9386  -17.2540   25.0490 O   0  0  0  0  0  0  0  0  0  0  0  0
   12.5068  -18.0987   23.9422 N   0  0  0  0  0  0  0  0  0  0  0  0
   11.6166  -18.6937   24.8780 C   0  0  0  0  0  0  0  0  0  0  0  0
   10.9014  -19.6346   24.4479 O   0  0  0  0  0  0  0  0  0  0  0  0
   11.5650  -18.2055   26.2675 C   0  0  0  0  0  0  0  0  0  0  0  0
   10.1633  -17.6382   26.6254 C   0  0  2  0  0  0  0  0  0  0  0  0
    9.9991  -16.5387   25.6891 N   0  0  0  0  0  0  0  0  0  0  0  0
   10.0849  -17.3007   28.0270 C   0  0  0  0  0  0  0  0  0  0  0  0
   10.1857  -18.1136   28.9698 O   0  0  0  0  0  0  0  0  0  0  0  0
    9.8827  -15.9759   28.3888 O   0  0  0  0  0  0  0  0  0  0  0  0
  2  1  1  6
  2  6  1  0
  2  3  1  0
  3  4  1  0
  4  5  2  0
  4  8  1  0
  6  7  2  0
  9 10  1  0
 10 11  1  0
 11 12  1  0
 13 12  1  1
 13 14  1  0
 14  6  1  0
 15 13  1  0
 16 15  2  0
 17 18  1  0
 18 20  1  0
 19 18  2  0
 21 20  1  1
 21 22  1  0
 21 23  1  0
 22 15  1  0
 23 25  1  0
 24 23  2  0
M  END
$$$$
