DMN.pdb
     RDKit          3D

 25 24  0  0  1  0  0  0  0  0999 V2000
    7.7643  -16.8185   20.3245 N   0  0  0  0  0  0  0  0  0  0  0  0
    9.1211  -16.3330   20.4506 C   0  0  1  0  0  0  0  0  0  0  0  0
    9.3904  -15.2589   19.4125 C   0  0  0  0  0  0  0  0  0  0  0  0
    9.3164  -15.8792   18.0751 C   0  0  0  0  0  0  0  0  0  0  0  0
    9.1629  -17.1182   17.9820 O   0  0  0  0  0  0  0  0  0  0  0  0
    9.2996  -15.7906   21.8178 C   0  0  0  0  0  0  0  0  0  0  0  0
   10.3965  -15.2952   22.1370 O   0  0  0  0  0  0  0  0  0  0  0  0
    9.4096  -15.1486   16.8984 O   0  0  0  0  0  0  0  0  0  0  0  0
    7.2326  -11.2575   26.8324 C   0  0  0  0  0  0  0  0  0  0  0  0
    7.6913  -12.9845   26.5198 S   0  0  0  0  0  0  0  0  0  0  0  0
    6.8436  -13.5598   25.0499 C   0  0  0  0  0  0  0  0  0  0  0  0
    7.0912  -14.9529   24.6569 C   0  0  0  0  0  0  0  0  0  0  0  0
    8.4338  -15.3731   24.1694 C   0  0  2  0  0  0  0  0  0  0  0  0
    8.2474  -15.8326   22.7461 N   0  0  0  0  0  0  0  0  0  0  0  0
    8.9828  -16.5051   24.8911 C   0  0  0  0  0  0  0  0  0  0  0  0
    8.3352  -17.6015   24.8752 O   0  0  0  0  0  0  0  0  0  0  0  0
   12.0953  -19.7829   27.4614 N   0  0  0  0  0  0  0  0  0  0  0  0
   12.7649  -19.0445   26.4473 C   0  0  0  0  0  0  0  0  0  0  0  0
   13.9247  -19.4296   26.1498 O   0  0  0  0  0  0  0  0  0  0  0  0
   12.1013  -17.8967   25.8039 C   0  0  0  0  0  0  0  0  0  0  0  0
   10.6589  -17.6903   26.3440 C   0  0  2  0  0  0  0  0  0  0  0  0
   10.1935  -16.5219   25.6154 N   0  0  0  0  0  0  0  0  0  0  0  0
   10.6561  -17.5880   27.7841 C   0  0  0  0  0  0  0  0  0  0  0  0
   10.6046  -16.5201   28.4298 O   0  0  0  0  0  0  0  0  0  0  0  0
   10.7135  -18.7505   28.5404 O   0  0  0  0  0  0  0  0  0  0  0  0
  2  1  1  1
  2  6  1  0
  2  3  1  0
  3  4  1  0
  4  5  2  0
  4  8  1  0
  6  7  2  0
  9 10  1  0
 10 11  1  0
 11 12  1  0
 13 12  1  1
 13 14  1  0
 14  6  1  0
 15 13  1  0
 16 15  2  0
 17 18  1  0
 18 20  1  0
 19 18  2  0
 21 20  1  6
 21 22  1  0
 21 23  1  0
 22 15  1  0
 23 25  1  0
 24 23  2  0
M  END
$$$$
