DMN.pdb
     RDKit          3D

 25 24  0  0  1  0  0  0  0  0999 V2000
    8.1106  -16.8638   21.2772 N   0  0  0  0  0  0  0  0  0  0  0  0
    8.6551  -15.5525   21.0011 C   0  0  1  0  0  0  0  0  0  0  0  0
    7.7971  -14.8359   19.9743 C   0  0  0  0  0  0  0  0  0  0  0  0
    7.9763  -15.5075   18.6721 C   0  0  0  0  0  0  0  0  0  0  0  0
    8.7923  -16.4522   18.5770 O   0  0  0  0  0  0  0  0  0  0  0  0
    8.6973  -14.7862   22.2685 C   0  0  0  0  0  0  0  0  0  0  0  0
    8.6524  -13.5424   22.2289 O   0  0  0  0  0  0  0  0  0  0  0  0
    7.2765  -15.1399   17.5309 O   0  0  0  0  0  0  0  0  0  0  0  0
    6.1651  -11.5206   26.9559 C   0  0  0  0  0  0  0  0  0  0  0  0
    7.4654  -11.5597   25.6917 S   0  0  0  0  0  0  0  0  0  0  0  0
    7.0001  -12.7191   24.4072 C   0  0  0  0  0  0  0  0  0  0  0  0
    7.1813  -14.1431   24.7167 C   0  0  0  0  0  0  0  0  0  0  0  0
    8.5470  -14.7295   24.8039 C   0  0  2  0  0  0  0  0  0  0  0  0
    8.7870  -15.4501   23.5021 N   0  0  0  0  0  0  0  0  0  0  0  0
    8.6828  -15.7262   25.8488 C   0  0  0  0  0  0  0  0  0  0  0  0
    7.6647  -15.9883   26.5676 O   0  0  0  0  0  0  0  0  0  0  0  0
   10.1039  -20.6077   23.9373 N   0  0  0  0  0  0  0  0  0  0  0  0
    9.3316  -19.9011   24.8997 C   0  0  0  0  0  0  0  0  0  0  0  0
    8.6419  -20.6008   25.6850 O   0  0  0  0  0  0  0  0  0  0  0  0
    9.3649  -18.4284   24.9422 C   0  0  0  0  0  0  0  0  0  0  0  0
    9.8470  -17.9043   26.3233 C   0  0  2  0  0  0  0  0  0  0  0  0
    9.8487  -16.4611   26.1509 N   0  0  0  0  0  0  0  0  0  0  0  0
   11.1069  -18.5049   26.6928 C   0  0  0  0  0  0  0  0  0  0  0  0
   12.2241  -18.1636   26.2510 O   0  0  0  0  0  0  0  0  0  0  0  0
   11.1112  -19.5464   27.6105 O   0  0  0  0  0  0  0  0  0  0  0  0
  2  1  1  1
  2  6  1  0
  2  3  1  0
  3  4  1  0
  4  5  2  0
  4  8  1  0
  6  7  2  0
  9 10  1  0
 10 11  1  0
 11 12  1  0
 13 12  1  6
 13 14  1  0
 14  6  1  0
 15 13  1  0
 16 15  2  0
 17 18  1  0
 18 20  1  0
 19 18  2  0
 21 20  1  6
 21 22  1  0
 21 23  1  0
 22 15  1  0
 23 25  1  0
 24 23  2  0
M  END
$$$$
