DMN.pdb
     RDKit          3D

 25 24  0  0  1  0  0  0  0  0999 V2000
    8.1199  -17.3384   20.2360 N   0  0  0  0  0  0  0  0  0  0  0  0
    9.3703  -16.6116   20.2611 C   0  0  1  0  0  0  0  0  0  0  0  0
    9.5160  -15.7788   19.0005 C   0  0  0  0  0  0  0  0  0  0  0  0
    9.6505  -16.6969   17.8525 C   0  0  0  0  0  0  0  0  0  0  0  0
    9.5342  -17.9297   18.0370 O   0  0  0  0  0  0  0  0  0  0  0  0
    9.3837  -15.7434   21.4617 C   0  0  0  0  0  0  0  0  0  0  0  0
   10.3130  -14.9284   21.6124 O   0  0  0  0  0  0  0  0  0  0  0  0
    9.9032  -16.2572   16.5603 O   0  0  0  0  0  0  0  0  0  0  0  0
    7.2029  -11.8655   27.1740 C   0  0  0  0  0  0  0  0  0  0  0  0
    7.8318  -13.1007   26.0038 S   0  0  0  0  0  0  0  0  0  0  0  0
    6.6258  -13.3418   24.7008 C   0  0  0  0  0  0  0  0  0  0  0  0
    6.9786  -14.3122   23.6566 C   0  0  0  0  0  0  0  0  0  0  0  0
    8.3321  -14.9318   23.6272 C   0  0  2  0  0  0  0  0  0  0  0  0
    8.3630  -15.8350   22.4210 N   0  0  0  0  0  0  0  0  0  0  0  0
    8.6058  -15.7778   24.7730 C   0  0  0  0  0  0  0  0  0  0  0  0
    8.6109  -15.2437   25.9291 O   0  0  0  0  0  0  0  0  0  0  0  0
   13.4492  -16.9918   25.3844 N   0  0  0  0  0  0  0  0  0  0  0  0
   12.4842  -17.8897   24.8510 C   0  0  0  0  0  0  0  0  0  0  0  0
   12.8124  -19.1033   24.8118 O   0  0  0  0  0  0  0  0  0  0  0  0
   11.1816  -17.3861   24.3805 C   0  0  0  0  0  0  0  0  0  0  0  0
   10.0330  -17.7648   25.3562 C   0  0  2  0  0  0  0  0  0  0  0  0
    8.8607  -17.1652   24.7407 N   0  0  0  0  0  0  0  0  0  0  0  0
   10.3364  -17.3387   26.7019 C   0  0  0  0  0  0  0  0  0  0  0  0
   10.5700  -18.1014   27.6629 O   0  0  0  0  0  0  0  0  0  0  0  0
   10.3807  -15.9800   26.9826 O   0  0  0  0  0  0  0  0  0  0  0  0
  2  1  1  6
  2  6  1  0
  2  3  1  0
  3  4  1  0
  4  5  2  0
  4  8  1  0
  6  7  2  0
  9 10  1  0
 10 11  1  0
 11 12  1  0
 13 12  1  1
 13 14  1  0
 14  6  1  0
 15 13  1  0
 16 15  2  0
 17 18  1  0
 18 20  1  0
 19 18  2  0
 21 20  1  6
 21 22  1  0
 21 23  1  0
 22 15  1  0
 23 25  1  0
 24 23  2  0
M  END
$$$$
