DMN.pdb
     RDKit          3D

 25 24  0  0  1  0  0  0  0  0999 V2000
    8.2333  -17.1665   20.6663 N   0  0  0  0  0  0  0  0  0  0  0  0
    9.6598  -16.9654   20.7967 C   0  0  1  0  0  0  0  0  0  0  0  0
   10.2099  -16.2986   19.5490 C   0  0  0  0  0  0  0  0  0  0  0  0
   10.2292  -17.2966   18.4616 C   0  0  0  0  0  0  0  0  0  0  0  0
    9.2129  -17.9980   18.2554 O   0  0  0  0  0  0  0  0  0  0  0  0
    9.9071  -16.1210   21.9889 C   0  0  0  0  0  0  0  0  0  0  0  0
   11.0639  -15.7247   22.2241 O   0  0  0  0  0  0  0  0  0  0  0  0
   11.3325  -17.5003   17.6440 O   0  0  0  0  0  0  0  0  0  0  0  0
    6.8905  -11.5332   27.5388 C   0  0  0  0  0  0  0  0  0  0  0  0
    6.8527  -12.1883   25.8477 S   0  0  0  0  0  0  0  0  0  0  0  0
    7.5731  -13.8289   25.8379 C   0  0  0  0  0  0  0  0  0  0  0  0
    7.7395  -14.4606   24.5227 C   0  0  0  0  0  0  0  0  0  0  0  0
    9.0818  -14.9174   24.0684 C   0  0  2  0  0  0  0  0  0  0  0  0
    8.8527  -15.7693   22.8463 N   0  0  0  0  0  0  0  0  0  0  0  0
    9.7605  -15.7645   25.0304 C   0  0  0  0  0  0  0  0  0  0  0  0
    9.2443  -16.8953   25.3074 O   0  0  0  0  0  0  0  0  0  0  0  0
    9.9510  -17.7536   29.5494 N   0  0  0  0  0  0  0  0  0  0  0  0
   10.5343  -16.4993   29.2201 C   0  0  0  0  0  0  0  0  0  0  0  0
   11.2709  -15.9787   30.0966 O   0  0  0  0  0  0  0  0  0  0  0  0
   10.2657  -15.8763   27.9118 C   0  0  0  0  0  0  0  0  0  0  0  0
   11.4019  -16.1681   26.8926 C   0  0  2  0  0  0  0  0  0  0  0  0
   10.9671  -15.4646   25.6974 N   0  0  0  0  0  0  0  0  0  0  0  0
   11.6195  -17.5887   26.7541 C   0  0  0  0  0  0  0  0  0  0  0  0
   10.7325  -18.4318   26.5047 O   0  0  0  0  0  0  0  0  0  0  0  0
   12.9056  -18.0891   26.9032 O   0  0  0  0  0  0  0  0  0  0  0  0
  2  1  1  6
  2  6  1  0
  2  3  1  0
  3  4  1  0
  4  5  2  0
  4  8  1  0
  6  7  2  0
  9 10  1  0
 10 11  1  0
 11 12  1  0
 13 12  1  1
 13 14  1  0
 14  6  1  0
 15 13  1  0
 16 15  2  0
 17 18  1  0
 18 20  1  0
 19 18  2  0
 21 20  1  1
 21 22  1  0
 21 23  1  0
 22 15  1  0
 23 25  1  0
 24 23  2  0
M  END
$$$$
