DMN.pdb
     RDKit          3D

 25 24  0  0  1  0  0  0  0  0999 V2000
    7.1728  -17.1940   20.7054 N   0  0  0  0  0  0  0  0  0  0  0  0
    8.4438  -16.6551   20.2736 C   0  0  1  0  0  0  0  0  0  0  0  0
    8.2606  -15.8303   19.0126 C   0  0  0  0  0  0  0  0  0  0  0  0
    7.8797  -16.7413   17.9154 C   0  0  0  0  0  0  0  0  0  0  0  0
    7.3665  -17.8498   18.1896 O   0  0  0  0  0  0  0  0  0  0  0  0
    8.9936  -15.8187   21.3661 C   0  0  0  0  0  0  0  0  0  0  0  0
   10.1322  -15.3296   21.2434 O   0  0  0  0  0  0  0  0  0  0  0  0
    8.0642  -16.4275   16.5758 O   0  0  0  0  0  0  0  0  0  0  0  0
    6.7583  -11.6712   27.7458 C   0  0  0  0  0  0  0  0  0  0  0  0
    6.3063  -12.6829   26.3096 S   0  0  0  0  0  0  0  0  0  0  0  0
    7.7958  -13.3479   25.5683 C   0  0  0  0  0  0  0  0  0  0  0  0
    7.6193  -14.1288   24.3372 C   0  0  0  0  0  0  0  0  0  0  0  0
    8.7919  -14.7502   23.6621 C   0  0  2  0  0  0  0  0  0  0  0  0
    8.2436  -15.5776   22.5279 N   0  0  0  0  0  0  0  0  0  0  0  0
    9.5296  -15.6660   24.5110 C   0  0  0  0  0  0  0  0  0  0  0  0
   10.1142  -15.1958   25.5400 O   0  0  0  0  0  0  0  0  0  0  0  0
   13.1137  -19.7724   25.6643 N   0  0  0  0  0  0  0  0  0  0  0  0
   12.6910  -18.4381   25.9153 C   0  0  0  0  0  0  0  0  0  0  0  0
   13.0925  -17.9176   26.9875 O   0  0  0  0  0  0  0  0  0  0  0  0
   11.8295  -17.7375   24.9464 C   0  0  0  0  0  0  0  0  0  0  0  0
   10.3227  -17.9269   25.2756 C   0  0  2  0  0  0  0  0  0  0  0  0
    9.6598  -17.0576   24.3177 N   0  0  0  0  0  0  0  0  0  0  0  0
   10.0606  -17.6585   26.6698 C   0  0  0  0  0  0  0  0  0  0  0  0
    9.5343  -16.6174   27.1158 O   0  0  0  0  0  0  0  0  0  0  0  0
   10.4087  -18.6137   27.6149 O   0  0  0  0  0  0  0  0  0  0  0  0
  2  1  1  1
  2  6  1  0
  2  3  1  0
  3  4  1  0
  4  5  2  0
  4  8  1  0
  6  7  2  0
  9 10  1  0
 10 11  1  0
 11 12  1  0
 13 12  1  1
 13 14  1  0
 14  6  1  0
 15 13  1  0
 16 15  2  0
 17 18  1  0
 18 20  1  0
 19 18  2  0
 21 20  1  1
 21 22  1  0
 21 23  1  0
 22 15  1  0
 23 25  1  0
 24 23  2  0
M  END
$$$$
