DMN.pdb
     RDKit          3D

 25 24  0  0  1  0  0  0  0  0999 V2000
    7.4924  -16.6934   20.8308 N   0  0  0  0  0  0  0  0  0  0  0  0
    8.9153  -16.4815   20.6798 C   0  0  1  0  0  0  0  0  0  0  0  0
    9.1884  -15.6123   19.4658 C   0  0  0  0  0  0  0  0  0  0  0  0
    9.0832  -16.4565   18.2595 C   0  0  0  0  0  0  0  0  0  0  0  0
    8.0095  -17.0548   18.0220 O   0  0  0  0  0  0  0  0  0  0  0  0
    9.4254  -15.8313   21.9096 C   0  0  0  0  0  0  0  0  0  0  0  0
   10.5658  -15.3313   21.9049 O   0  0  0  0  0  0  0  0  0  0  0  0
   10.1290  -16.6234   17.3619 O   0  0  0  0  0  0  0  0  0  0  0  0
    7.1055  -11.9205   27.0057 C   0  0  0  0  0  0  0  0  0  0  0  0
    6.1301  -12.5720   25.6220 S   0  0  0  0  0  0  0  0  0  0  0  0
    7.2195  -13.4355   24.4916 C   0  0  0  0  0  0  0  0  0  0  0  0
    7.9439  -14.5904   25.0376 C   0  0  0  0  0  0  0  0  0  0  0  0
    9.1393  -15.1332   24.3355 C   0  0  2  0  0  0  0  0  0  0  0  0
    8.6360  -15.7771   23.0691 N   0  0  0  0  0  0  0  0  0  0  0  0
    9.8208  -16.1772   25.0766 C   0  0  0  0  0  0  0  0  0  0  0  0
    9.3230  -17.3493   25.0626 O   0  0  0  0  0  0  0  0  0  0  0  0
   12.3005  -16.1667   30.1240 N   0  0  0  0  0  0  0  0  0  0  0  0
   11.0182  -16.0858   29.5150 C   0  0  0  0  0  0  0  0  0  0  0  0
   10.0421  -16.4538   30.2177 O   0  0  0  0  0  0  0  0  0  0  0  0
   10.8823  -15.5919   28.1332 C   0  0  0  0  0  0  0  0  0  0  0  0
   11.2331  -16.6918   27.0929 C   0  0  2  0  0  0  0  0  0  0  0  0
   11.0117  -16.0289   25.8186 N   0  0  0  0  0  0  0  0  0  0  0  0
   10.4659  -17.8915   27.3307 C   0  0  0  0  0  0  0  0  0  0  0  0
    9.2207  -17.9718   27.2782 O   0  0  0  0  0  0  0  0  0  0  0  0
   11.1357  -19.0663   27.6439 O   0  0  0  0  0  0  0  0  0  0  0  0
  2  1  1  1
  2  6  1  0
  2  3  1  0
  3  4  1  0
  4  5  2  0
  4  8  1  0
  6  7  2  0
  9 10  1  0
 10 11  1  0
 11 12  1  0
 13 12  1  1
 13 14  1  0
 14  6  1  0
 15 13  1  0
 16 15  2  0
 17 18  1  0
 18 20  1  0
 19 18  2  0
 21 20  1  1
 21 22  1  0
 21 23  1  0
 22 15  1  0
 23 25  1  0
 24 23  2  0
M  END
$$$$
