MYN.pdb
     RDKit          3D

 29 29  0  0  1  0  0  0  0  0999 V2000
    9.0564  -12.9701   28.3279 C   0  0  0  0  0  0  0  0  0  0  0  0
    7.6860  -14.1241   28.2997 S   0  0  0  0  0  0  0  0  0  0  0  0
    7.8383  -15.5251   27.2399 C   0  0  0  0  0  0  0  0  0  0  0  0
    6.6260  -16.0784   26.5838 C   0  0  0  0  0  0  0  0  0  0  0  0
    6.7581  -17.2774   25.7270 C   0  0  2  0  0  0  0  0  0  0  0  0
    7.5466  -18.3440   26.2635 N   0  0  0  0  0  0  0  0  0  0  0  0
    7.2784  -16.9727   24.3690 C   0  0  0  0  0  0  0  0  0  0  0  0
    7.7269  -17.8552   23.6144 O   0  0  0  0  0  0  0  0  0  0  0  0
    8.0276  -12.9033   16.6362 O   0  0  0  0  0  0  0  0  0  0  0  0
    7.8756  -13.1096   18.0055 C   0  0  0  0  0  0  0  0  0  0  0  0
    8.7076  -12.4982   18.9123 C   0  0  0  0  0  0  0  0  0  0  0  0
    8.5698  -12.6938   20.2941 C   0  0  0  0  0  0  0  0  0  0  0  0
    7.5927  -13.5083   20.8030 C   0  0  0  0  0  0  0  0  0  0  0  0
    7.3599  -13.7680   22.2549 C   0  0  0  0  0  0  0  0  0  0  0  0
    7.7702  -15.1768   22.6568 C   0  0  2  0  0  0  0  0  0  0  0  0
    7.2675  -15.6283   23.9065 N   0  0  0  0  0  0  0  0  0  0  0  0
    9.2261  -15.2923   22.4687 C   0  0  0  0  0  0  0  0  0  0  0  0
    9.9953  -14.7971   23.3290 O   0  0  0  0  0  0  0  0  0  0  0  0
    6.7479  -14.1282   19.8633 C   0  0  0  0  0  0  0  0  0  0  0  0
    6.8907  -13.9307   18.5114 C   0  0  0  0  0  0  0  0  0  0  0  0
   10.5602  -19.4728   22.2377 N   0  0  0  0  0  0  0  0  0  0  0  0
   11.5406  -18.4298   22.2113 C   0  0  0  0  0  0  0  0  0  0  0  0
   12.2940  -18.2276   23.1742 O   0  0  0  0  0  0  0  0  0  0  0  0
   11.6453  -17.5778   20.9938 C   0  0  0  0  0  0  0  0  0  0  0  0
   11.2374  -16.1647   21.2222 C   0  0  2  0  0  0  0  0  0  0  0  0
    9.8295  -15.9435   21.3495 N   0  0  0  0  0  0  0  0  0  0  0  0
   11.7285  -15.3528   20.0647 C   0  0  0  0  0  0  0  0  0  0  0  0
   10.9312  -14.7013   19.3363 O   0  0  0  0  0  0  0  0  0  0  0  0
   13.0818  -15.2801   19.7407 O   0  0  0  0  0  0  0  0  0  0  0  0
  2  1  1  0
  3  2  1  0
  4  3  1  0
  5  4  1  0
  5  6  1  1
  7 16  1  0
  7  5  1  0
  8  7  2  0
  9 10  1  0
 10 11  2  0
 11 12  1  0
 13 12  2  0
 13 14  1  0
 15 14  1  1
 15 16  1  0
 17 15  1  0
 17 26  1  0
 18 17  2  0
 19 13  1  0
 20 10  1  0
 20 19  2  0
 21 22  1  0
 22 24  1  0
 23 22  2  0
 25 24  1  6
 25 26  1  0
 25 27  1  0
 27 28  2  0
 27 29  1  0
M  END
$$$$
