MYN.pdb
     RDKit          3D

 29 29  0  0  1  0  0  0  0  0999 V2000
    7.7689  -11.5603   19.2674 C   0  0  0  0  0  0  0  0  0  0  0  0
    6.7133  -13.0032   19.1491 S   0  0  0  0  0  0  0  0  0  0  0  0
    7.2167  -14.4409   20.0372 C   0  0  0  0  0  0  0  0  0  0  0  0
    8.5343  -15.0583   19.7388 C   0  0  0  0  0  0  0  0  0  0  0  0
    8.9434  -16.2703   20.4822 C   0  0  2  0  0  0  0  0  0  0  0  0
    7.8947  -17.1894   20.8027 N   0  0  0  0  0  0  0  0  0  0  0  0
    9.6757  -15.9676   21.7391 C   0  0  0  0  0  0  0  0  0  0  0  0
   10.8736  -15.6297   21.7469 O   0  0  0  0  0  0  0  0  0  0  0  0
   11.0455  -14.9385   30.4752 O   0  0  0  0  0  0  0  0  0  0  0  0
   10.4343  -15.0597   29.2293 C   0  0  0  0  0  0  0  0  0  0  0  0
   10.3621  -13.9921   28.3670 C   0  0  0  0  0  0  0  0  0  0  0  0
    9.7509  -14.0951   27.1091 C   0  0  0  0  0  0  0  0  0  0  0  0
    9.1960  -15.2729   26.6824 C   0  0  0  0  0  0  0  0  0  0  0  0
    8.5368  -15.4831   25.3593 C   0  0  0  0  0  0  0  0  0  0  0  0
    9.5450  -15.7749   24.2580 C   0  0  2  0  0  0  0  0  0  0  0  0
    8.9918  -16.0645   22.9818 N   0  0  0  0  0  0  0  0  0  0  0  0
   10.5095  -16.7577   24.7799 C   0  0  0  0  0  0  0  0  0  0  0  0
   11.2462  -16.4387   25.7455 O   0  0  0  0  0  0  0  0  0  0  0  0
    9.2768  -16.3579   27.5754 C   0  0  0  0  0  0  0  0  0  0  0  0
    9.8774  -16.2473   28.8059 C   0  0  0  0  0  0  0  0  0  0  0  0
   13.6849  -20.7292   25.4659 N   0  0  0  0  0  0  0  0  0  0  0  0
   14.1139  -19.4601   24.9608 C   0  0  0  0  0  0  0  0  0  0  0  0
   15.3143  -19.1560   24.9148 O   0  0  0  0  0  0  0  0  0  0  0  0
   13.0838  -18.4952   24.4842 C   0  0  0  0  0  0  0  0  0  0  0  0
   11.6885  -18.9836   24.6579 C   0  0  2  0  0  0  0  0  0  0  0  0
   10.6628  -18.0744   24.2476 N   0  0  0  0  0  0  0  0  0  0  0  0
   11.4849  -19.2829   26.1102 C   0  0  0  0  0  0  0  0  0  0  0  0
   10.7549  -20.2404   26.4857 O   0  0  0  0  0  0  0  0  0  0  0  0
   12.0894  -18.5214   27.1084 O   0  0  0  0  0  0  0  0  0  0  0  0
  2  1  1  0
  3  2  1  0
  4  3  1  0
  5  4  1  0
  5  6  1  1
  7 16  1  0
  7  5  1  0
  8  7  2  0
  9 10  1  0
 10 11  2  0
 11 12  1  0
 13 12  2  0
 13 14  1  0
 15 14  1  1
 15 16  1  0
 17 15  1  0
 17 26  1  0
 18 17  2  0
 19 13  1  0
 20 10  1  0
 20 19  2  0
 21 22  1  0
 22 24  1  0
 23 22  2  0
 25 24  1  1
 25 26  1  0
 25 27  1  0
 27 28  2  0
 27 29  1  0
M  END
$$$$
