MYN.pdb
     RDKit          3D

 29 29  0  0  1  0  0  0  0  0999 V2000
    7.4071  -11.4559   18.9909 C   0  0  0  0  0  0  0  0  0  0  0  0
    6.4452  -12.9274   18.6447 S   0  0  0  0  0  0  0  0  0  0  0  0
    7.0207  -14.4436   19.3370 C   0  0  0  0  0  0  0  0  0  0  0  0
    8.2254  -14.4377   20.2058 C   0  0  0  0  0  0  0  0  0  0  0  0
    8.6448  -15.6974   20.8589 C   0  0  2  0  0  0  0  0  0  0  0  0
    7.6261  -16.6904   21.0116 N   0  0  0  0  0  0  0  0  0  0  0  0
    9.2710  -15.4872   22.1899 C   0  0  0  0  0  0  0  0  0  0  0  0
   10.3451  -14.8744   22.3310 O   0  0  0  0  0  0  0  0  0  0  0  0
    5.8399  -10.7083   26.2877 O   0  0  0  0  0  0  0  0  0  0  0  0
    6.3825  -11.9854   26.1648 C   0  0  0  0  0  0  0  0  0  0  0  0
    5.6143  -13.0463   25.7492 C   0  0  0  0  0  0  0  0  0  0  0  0
    6.1430  -14.3387   25.6196 C   0  0  0  0  0  0  0  0  0  0  0  0
    7.4575  -14.6010   25.9034 C   0  0  0  0  0  0  0  0  0  0  0  0
    8.1127  -15.9374   25.7838 C   0  0  0  0  0  0  0  0  0  0  0  0
    9.1488  -15.9686   24.6702 C   0  0  2  0  0  0  0  0  0  0  0  0
    8.6274  -16.0006   23.3490 N   0  0  0  0  0  0  0  0  0  0  0  0
   10.1322  -17.0139   24.9999 C   0  0  0  0  0  0  0  0  0  0  0  0
    9.7489  -18.2058   25.0966 O   0  0  0  0  0  0  0  0  0  0  0  0
    8.2326  -13.5057   26.3282 C   0  0  0  0  0  0  0  0  0  0  0  0
    7.7057  -12.2431   26.4523 C   0  0  0  0  0  0  0  0  0  0  0  0
   15.7812  -18.5173   24.6384 N   0  0  0  0  0  0  0  0  0  0  0  0
   14.8726  -18.3972   25.7383 C   0  0  0  0  0  0  0  0  0  0  0  0
   14.9029  -19.1902   26.6901 O   0  0  0  0  0  0  0  0  0  0  0  0
   13.8755  -17.2904   25.7243 C   0  0  0  0  0  0  0  0  0  0  0  0
   12.4706  -17.7600   25.5785 C   0  0  2  0  0  0  0  0  0  0  0  0
   11.5192  -16.7531   25.2205 N   0  0  0  0  0  0  0  0  0  0  0  0
   12.0464  -18.3504   26.8869 C   0  0  0  0  0  0  0  0  0  0  0  0
   11.9853  -19.5991   27.0531 O   0  0  0  0  0  0  0  0  0  0  0  0
   11.7015  -17.5515   27.9753 O   0  0  0  0  0  0  0  0  0  0  0  0
  2  1  1  0
  3  2  1  0
  4  3  1  0
  5  4  1  0
  5  6  1  1
  7 16  1  0
  7  5  1  0
  8  7  2  0
  9 10  1  0
 10 11  2  0
 11 12  1  0
 13 12  2  0
 13 14  1  0
 15 14  1  1
 15 16  1  0
 17 15  1  0
 17 26  1  0
 18 17  2  0
 19 13  1  0
 20 10  1  0
 20 19  2  0
 21 22  1  0
 22 24  1  0
 23 22  2  0
 25 24  1  1
 25 26  1  0
 25 27  1  0
 27 28  2  0
 27 29  1  0
M  END
$$$$
