MYN.pdb
     RDKit          3D

 29 29  0  0  1  0  0  0  0  0999 V2000
    3.4514  -17.8551   20.5625 C   0  0  0  0  0  0  0  0  0  0  0  0
    5.0413  -18.6797   20.5128 S   0  0  0  0  0  0  0  0  0  0  0  0
    6.4759  -17.6551   20.4743 C   0  0  0  0  0  0  0  0  0  0  0  0
    6.3204  -16.1797   20.5459 C   0  0  0  0  0  0  0  0  0  0  0  0
    7.5277  -15.3271   20.4789 C   0  0  2  0  0  0  0  0  0  0  0  0
    8.3762  -15.5348   19.3457 N   0  0  0  0  0  0  0  0  0  0  0  0
    8.3747  -15.4138   21.6966 C   0  0  0  0  0  0  0  0  0  0  0  0
    9.5219  -15.8963   21.6767 O   0  0  0  0  0  0  0  0  0  0  0  0
   10.7875  -14.5217   30.2229 O   0  0  0  0  0  0  0  0  0  0  0  0
   10.0473  -14.5149   29.0428 C   0  0  0  0  0  0  0  0  0  0  0  0
    9.3079  -15.6089   28.6622 C   0  0  0  0  0  0  0  0  0  0  0  0
    8.5568  -15.6206   27.4780 C   0  0  0  0  0  0  0  0  0  0  0  0
    8.5273  -14.5340   26.6440 C   0  0  0  0  0  0  0  0  0  0  0  0
    7.7498  -14.4473   25.3722 C   0  0  0  0  0  0  0  0  0  0  0  0
    8.5248  -15.0073   24.1888 C   0  0  2  0  0  0  0  0  0  0  0  0
    7.8650  -14.9309   22.9329 N   0  0  0  0  0  0  0  0  0  0  0  0
    9.0305  -16.3365   24.5707 C   0  0  0  0  0  0  0  0  0  0  0  0
    8.2270  -17.2986   24.6451 O   0  0  0  0  0  0  0  0  0  0  0  0
    9.2892  -13.4208   27.0457 C   0  0  0  0  0  0  0  0  0  0  0  0
   10.0221  -13.4187   28.2076 C   0  0  0  0  0  0  0  0  0  0  0  0
   10.5686  -19.7558   22.5154 N   0  0  0  0  0  0  0  0  0  0  0  0
   11.3804  -18.6033   22.7653 C   0  0  0  0  0  0  0  0  0  0  0  0
   11.6289  -17.7825   21.8708 O   0  0  0  0  0  0  0  0  0  0  0  0
   11.9307  -18.4000   24.1346 C   0  0  0  0  0  0  0  0  0  0  0  0
   10.9198  -17.9161   25.1141 C   0  0  2  0  0  0  0  0  0  0  0  0
   10.4019  -16.6054   24.8671 N   0  0  0  0  0  0  0  0  0  0  0  0
   11.5584  -17.9116   26.4678 C   0  0  0  0  0  0  0  0  0  0  0  0
   12.0596  -18.9594   26.9592 O   0  0  0  0  0  0  0  0  0  0  0  0
   11.6279  -16.7556   27.2428 O   0  0  0  0  0  0  0  0  0  0  0  0
  2  1  1  0
  3  2  1  0
  4  3  1  0
  5  4  1  0
  5  6  1  6
  7 16  1  0
  7  5  1  0
  8  7  2  0
  9 10  1  0
 10 11  2  0
 11 12  1  0
 13 12  2  0
 13 14  1  0
 15 14  1  1
 15 16  1  0
 17 15  1  0
 17 26  1  0
 18 17  2  0
 19 13  1  0
 20 10  1  0
 20 19  2  0
 21 22  1  0
 22 24  1  0
 23 22  2  0
 25 24  1  6
 25 26  1  0
 25 27  1  0
 27 28  2  0
 27 29  1  0
M  END
$$$$
