MYN.pdb
     RDKit          3D

 29 29  0  0  1  0  0  0  0  0999 V2000
    7.5966  -11.5278   19.0507 C   0  0  0  0  0  0  0  0  0  0  0  0
    7.2952  -13.0243   18.1126 S   0  0  0  0  0  0  0  0  0  0  0  0
    7.6316  -14.5571   18.9168 C   0  0  0  0  0  0  0  0  0  0  0  0
    8.6156  -14.5966   20.0288 C   0  0  0  0  0  0  0  0  0  0  0  0
    8.8732  -15.8828   20.7132 C   0  0  2  0  0  0  0  0  0  0  0  0
    7.7219  -16.6894   20.9797 N   0  0  0  0  0  0  0  0  0  0  0  0
    9.6194  -15.7287   21.9887 C   0  0  0  0  0  0  0  0  0  0  0  0
   10.8202  -15.4027   22.0224 O   0  0  0  0  0  0  0  0  0  0  0  0
   11.0041  -14.7447   30.6952 O   0  0  0  0  0  0  0  0  0  0  0  0
   10.3836  -14.9270   29.4614 C   0  0  0  0  0  0  0  0  0  0  0  0
   10.0375  -13.8544   28.6753 C   0  0  0  0  0  0  0  0  0  0  0  0
    9.4124  -14.0183   27.4308 C   0  0  0  0  0  0  0  0  0  0  0  0
    9.1182  -15.2638   26.9414 C   0  0  0  0  0  0  0  0  0  0  0  0
    8.4675  -15.5390   25.6259 C   0  0  0  0  0  0  0  0  0  0  0  0
    9.4870  -15.7407   24.5149 C   0  0  2  0  0  0  0  0  0  0  0  0
    8.9461  -15.9598   23.2195 N   0  0  0  0  0  0  0  0  0  0  0  0
   10.4682  -16.7355   24.9797 C   0  0  0  0  0  0  0  0  0  0  0  0
   11.1854  -16.4684   25.9752 O   0  0  0  0  0  0  0  0  0  0  0  0
    9.4778  -16.3533   27.7567 C   0  0  0  0  0  0  0  0  0  0  0  0
   10.0898  -16.1827   28.9747 C   0  0  0  0  0  0  0  0  0  0  0  0
   13.8257  -17.7425   22.0791 N   0  0  0  0  0  0  0  0  0  0  0  0
   13.5427  -18.7934   23.0093 C   0  0  0  0  0  0  0  0  0  0  0  0
   13.6663  -19.9854   22.6937 O   0  0  0  0  0  0  0  0  0  0  0  0
   13.0910  -18.4308   24.3818 C   0  0  0  0  0  0  0  0  0  0  0  0
   11.7174  -18.9081   24.6994 C   0  0  2  0  0  0  0  0  0  0  0  0
   10.6590  -18.0077   24.3587 N   0  0  0  0  0  0  0  0  0  0  0  0
   11.6496  -19.1626   26.1728 C   0  0  0  0  0  0  0  0  0  0  0  0
   10.7775  -18.6061   26.8942 O   0  0  0  0  0  0  0  0  0  0  0  0
   12.5422  -20.0213   26.8112 O   0  0  0  0  0  0  0  0  0  0  0  0
  2  1  1  0
  3  2  1  0
  4  3  1  0
  5  4  1  0
  5  6  1  1
  7 16  1  0
  7  5  1  0
  8  7  2  0
  9 10  1  0
 10 11  2  0
 11 12  1  0
 13 12  2  0
 13 14  1  0
 15 14  1  1
 15 16  1  0
 17 15  1  0
 17 26  1  0
 18 17  2  0
 19 13  1  0
 20 10  1  0
 20 19  2  0
 21 22  1  0
 22 24  1  0
 23 22  2  0
 25 24  1  1
 25 26  1  0
 25 27  1  0
 27 28  2  0
 27 29  1  0
M  END
$$$$
