MYN.pdb
     RDKit          3D

 29 29  0  0  1  0  0  0  0  0999 V2000
    6.7917  -11.7984   26.6624 C   0  0  0  0  0  0  0  0  0  0  0  0
    7.4747  -13.4419   26.8689 S   0  0  0  0  0  0  0  0  0  0  0  0
    6.3572  -14.7220   27.3397 C   0  0  0  0  0  0  0  0  0  0  0  0
    6.4471  -16.0485   26.6774 C   0  0  0  0  0  0  0  0  0  0  0  0
    7.6301  -16.3550   25.8433 C   0  0  2  0  0  0  0  0  0  0  0  0
    8.8534  -15.7285   26.2412 N   0  0  0  0  0  0  0  0  0  0  0  0
    7.4227  -16.0612   24.4016 C   0  0  0  0  0  0  0  0  0  0  0  0
    6.4341  -16.4806   23.7722 O   0  0  0  0  0  0  0  0  0  0  0  0
    8.0851  -13.0661   16.1383 O   0  0  0  0  0  0  0  0  0  0  0  0
    8.1425  -13.2146   17.5222 C   0  0  0  0  0  0  0  0  0  0  0  0
    7.5775  -14.3023   18.1436 C   0  0  0  0  0  0  0  0  0  0  0  0
    7.6252  -14.4688   19.5352 C   0  0  0  0  0  0  0  0  0  0  0  0
    8.2418  -13.5479   20.3408 C   0  0  0  0  0  0  0  0  0  0  0  0
    8.3548  -13.6442   21.8266 C   0  0  0  0  0  0  0  0  0  0  0  0
    8.4413  -15.0871   22.3011 C   0  0  2  0  0  0  0  0  0  0  0  0
    8.3822  -15.2738   23.7083 N   0  0  0  0  0  0  0  0  0  0  0  0
    9.5810  -15.7187   21.6150 C   0  0  0  0  0  0  0  0  0  0  0  0
    9.3839  -16.7461   20.9204 O   0  0  0  0  0  0  0  0  0  0  0  0
    8.8159  -12.4390   19.6914 C   0  0  0  0  0  0  0  0  0  0  0  0
    8.7640  -12.2844   18.3274 C   0  0  0  0  0  0  0  0  0  0  0  0
   11.7853  -15.2418   18.4834 N   0  0  0  0  0  0  0  0  0  0  0  0
   12.9225  -14.7038   19.1668 C   0  0  0  0  0  0  0  0  0  0  0  0
   13.7284  -13.9587   18.5915 O   0  0  0  0  0  0  0  0  0  0  0  0
   13.1280  -15.0559   20.5997 C   0  0  0  0  0  0  0  0  0  0  0  0
   12.0528  -15.9209   21.1576 C   0  0  2  0  0  0  0  0  0  0  0  0
   10.9204  -15.2279   21.6912 N   0  0  0  0  0  0  0  0  0  0  0  0
   12.6497  -16.7430   22.2567 C   0  0  0  0  0  0  0  0  0  0  0  0
   12.2051  -16.6827   23.4354 O   0  0  0  0  0  0  0  0  0  0  0  0
   13.7183  -17.6079   22.0291 O   0  0  0  0  0  0  0  0  0  0  0  0
  2  1  1  0
  3  2  1  0
  4  3  1  0
  5  4  1  0
  5  6  1  1
  7 16  1  0
  7  5  1  0
  8  7  2  0
  9 10  1  0
 10 11  2  0
 11 12  1  0
 13 12  2  0
 13 14  1  0
 15 14  1  1
 15 16  1  0
 17 15  1  0
 17 26  1  0
 18 17  2  0
 19 13  1  0
 20 10  1  0
 20 19  2  0
 21 22  1  0
 22 24  1  0
 23 22  2  0
 25 24  1  1
 25 26  1  0
 25 27  1  0
 27 28  2  0
 27 29  1  0
M  END
$$$$
