MYN.pdb
     RDKit          3D

 29 29  0  0  1  0  0  0  0  0999 V2000
    6.3221  -11.2852   19.3678 C   0  0  0  0  0  0  0  0  0  0  0  0
    7.8130  -12.2769   19.4315 S   0  0  0  0  0  0  0  0  0  0  0  0
    7.6973  -13.8501   20.2198 C   0  0  0  0  0  0  0  0  0  0  0  0
    8.9350  -14.6305   20.4750 C   0  0  0  0  0  0  0  0  0  0  0  0
    8.8341  -15.9215   21.1909 C   0  0  2  0  0  0  0  0  0  0  0  0
    7.5156  -16.4619   21.3201 N   0  0  0  0  0  0  0  0  0  0  0  0
    9.4415  -15.8889   22.5465 C   0  0  0  0  0  0  0  0  0  0  0  0
   10.6064  -15.4976   22.7449 O   0  0  0  0  0  0  0  0  0  0  0  0
    6.4463  -10.5883   26.1016 O   0  0  0  0  0  0  0  0  0  0  0  0
    6.8225  -11.9295   26.0880 C   0  0  0  0  0  0  0  0  0  0  0  0
    6.0449  -12.8787   25.4694 C   0  0  0  0  0  0  0  0  0  0  0  0
    6.4073  -14.2332   25.4455 C   0  0  0  0  0  0  0  0  0  0  0  0
    7.5604  -14.6715   26.0418 C   0  0  0  0  0  0  0  0  0  0  0  0
    8.0355  -16.0870   26.0581 C   0  0  0  0  0  0  0  0  0  0  0  0
    9.1120  -16.3408   25.0135 C   0  0  2  0  0  0  0  0  0  0  0  0
    8.6724  -16.3180   23.6626 N   0  0  0  0  0  0  0  0  0  0  0  0
    9.8653  -17.5372   25.4254 C   0  0  0  0  0  0  0  0  0  0  0  0
    9.2408  -18.5263   25.8820 O   0  0  0  0  0  0  0  0  0  0  0  0
    8.3470  -13.6890   26.6718 C   0  0  0  0  0  0  0  0  0  0  0  0
    7.9837  -12.3643   26.6902 C   0  0  0  0  0  0  0  0  0  0  0  0
   11.9816  -21.9343   23.8355 N   0  0  0  0  0  0  0  0  0  0  0  0
   12.4578  -20.6649   23.3753 C   0  0  0  0  0  0  0  0  0  0  0  0
   13.5097  -20.5663   22.7276 O   0  0  0  0  0  0  0  0  0  0  0  0
   11.6612  -19.4460   23.6896 C   0  0  0  0  0  0  0  0  0  0  0  0
   11.9738  -18.8607   25.0220 C   0  0  2  0  0  0  0  0  0  0  0  0
   11.2870  -17.6456   25.3367 N   0  0  0  0  0  0  0  0  0  0  0  0
   13.4440  -18.5841   25.0679 C   0  0  0  0  0  0  0  0  0  0  0  0
   13.8959  -17.4162   24.9183 O   0  0  0  0  0  0  0  0  0  0  0  0
   14.3757  -19.5990   25.2768 O   0  0  0  0  0  0  0  0  0  0  0  0
  2  1  1  0
  3  2  1  0
  4  3  1  0
  5  4  1  0
  5  6  1  1
  7 16  1  0
  7  5  1  0
  8  7  2  0
  9 10  1  0
 10 11  2  0
 11 12  1  0
 13 12  2  0
 13 14  1  0
 15 14  1  1
 15 16  1  0
 17 15  1  0
 17 26  1  0
 18 17  2  0
 19 13  1  0
 20 10  1  0
 20 19  2  0
 21 22  1  0
 22 24  1  0
 23 22  2  0
 25 24  1  6
 25 26  1  0
 25 27  1  0
 27 28  2  0
 27 29  1  0
M  END
$$$$
