MYN.pdb
     RDKit          3D

 29 29  0  0  1  0  0  0  0  0999 V2000
    6.5624  -20.7912   20.4653 C   0  0  0  0  0  0  0  0  0  0  0  0
    6.8711  -20.2897   18.7731 S   0  0  0  0  0  0  0  0  0  0  0  0
    7.7067  -18.7560   18.5304 C   0  0  0  0  0  0  0  0  0  0  0  0
    8.0922  -17.9408   19.7108 C   0  0  0  0  0  0  0  0  0  0  0  0
    8.6928  -16.6059   19.4953 C   0  0  2  0  0  0  0  0  0  0  0  0
    9.8651  -16.5741   18.6756 N   0  0  0  0  0  0  0  0  0  0  0  0
    9.0096  -15.8946   20.7608 C   0  0  0  0  0  0  0  0  0  0  0  0
   10.1297  -15.9611   21.2994 O   0  0  0  0  0  0  0  0  0  0  0  0
    7.1954  -12.0459   28.5845 O   0  0  0  0  0  0  0  0  0  0  0  0
    7.1314  -12.4354   27.2486 C   0  0  0  0  0  0  0  0  0  0  0  0
    8.0007  -11.9212   26.3167 C   0  0  0  0  0  0  0  0  0  0  0  0
    7.9514  -12.3014   24.9677 C   0  0  0  0  0  0  0  0  0  0  0  0
    7.0283  -13.2084   24.5178 C   0  0  0  0  0  0  0  0  0  0  0  0
    6.9065  -13.6835   23.1075 C   0  0  0  0  0  0  0  0  0  0  0  0
    8.0431  -14.6168   22.7183 C   0  0  2  0  0  0  0  0  0  0  0  0
    8.0038  -15.1077   21.3856 N   0  0  0  0  0  0  0  0  0  0  0  0
    8.1723  -15.6337   23.7756 C   0  0  0  0  0  0  0  0  0  0  0  0
    7.2280  -16.4385   23.9689 O   0  0  0  0  0  0  0  0  0  0  0  0
    6.1443  -13.7267   25.4826 C   0  0  0  0  0  0  0  0  0  0  0  0
    6.2001  -13.3481   26.8019 C   0  0  0  0  0  0  0  0  0  0  0  0
   11.5654  -18.4277   23.1285 N   0  0  0  0  0  0  0  0  0  0  0  0
   10.5608  -18.5441   24.1419 C   0  0  0  0  0  0  0  0  0  0  0  0
    9.6122  -19.3325   24.0229 O   0  0  0  0  0  0  0  0  0  0  0  0
   10.6717  -17.6928   25.3594 C   0  0  0  0  0  0  0  0  0  0  0  0
    9.4937  -16.8085   25.5737 C   0  0  2  0  0  0  0  0  0  0  0  0
    9.3244  -15.7647   24.6099 N   0  0  0  0  0  0  0  0  0  0  0  0
    9.6368  -16.1727   26.9212 C   0  0  0  0  0  0  0  0  0  0  0  0
    9.7155  -14.9205   27.0496 O   0  0  0  0  0  0  0  0  0  0  0  0
    9.6893  -16.9312   28.0889 O   0  0  0  0  0  0  0  0  0  0  0  0
  2  1  1  0
  3  2  1  0
  4  3  1  0
  5  4  1  0
  5  6  1  1
  7 16  1  0
  7  5  1  0
  8  7  2  0
  9 10  1  0
 10 11  2  0
 11 12  1  0
 13 12  2  0
 13 14  1  0
 15 14  1  1
 15 16  1  0
 17 15  1  0
 17 26  1  0
 18 17  2  0
 19 13  1  0
 20 10  1  0
 20 19  2  0
 21 22  1  0
 22 24  1  0
 23 22  2  0
 25 24  1  6
 25 26  1  0
 25 27  1  0
 27 28  2  0
 27 29  1  0
M  END
$$$$
