MYN.pdb
     RDKit          3D

 29 29  0  0  1  0  0  0  0  0999 V2000
    8.1288  -11.3875   18.6367 C   0  0  0  0  0  0  0  0  0  0  0  0
    7.0005  -12.7018   18.1785 S   0  0  0  0  0  0  0  0  0  0  0  0
    6.6045  -13.8890   19.4207 C   0  0  0  0  0  0  0  0  0  0  0  0
    7.4554  -13.9860   20.6343 C   0  0  0  0  0  0  0  0  0  0  0  0
    8.0385  -15.2961   20.9986 C   0  0  2  0  0  0  0  0  0  0  0  0
    7.1052  -16.3645   21.1848 N   0  0  0  0  0  0  0  0  0  0  0  0
    8.9022  -15.2378   22.2062 C   0  0  0  0  0  0  0  0  0  0  0  0
   10.0536  -14.7658   22.1791 O   0  0  0  0  0  0  0  0  0  0  0  0
   11.3260  -15.0910   30.7182 O   0  0  0  0  0  0  0  0  0  0  0  0
   10.5813  -15.1541   29.5426 C   0  0  0  0  0  0  0  0  0  0  0  0
   10.0410  -16.3402   29.1073 C   0  0  0  0  0  0  0  0  0  0  0  0
    9.2888  -16.4232   27.9267 C   0  0  0  0  0  0  0  0  0  0  0  0
    9.0582  -15.3174   27.1512 C   0  0  0  0  0  0  0  0  0  0  0  0
    8.2616  -15.3039   25.8884 C   0  0  0  0  0  0  0  0  0  0  0  0
    9.0936  -15.7152   24.6830 C   0  0  2  0  0  0  0  0  0  0  0  0
    8.4040  -15.7364   23.4410 N   0  0  0  0  0  0  0  0  0  0  0  0
    9.8206  -16.9459   25.0369 C   0  0  0  0  0  0  0  0  0  0  0  0
    9.1747  -17.9411   25.4482 O   0  0  0  0  0  0  0  0  0  0  0  0
    9.6175  -14.1095   27.6085 C   0  0  0  0  0  0  0  0  0  0  0  0
   10.3533  -14.0381   28.7665 C   0  0  0  0  0  0  0  0  0  0  0  0
   12.2866  -19.2219   22.0211 N   0  0  0  0  0  0  0  0  0  0  0  0
   12.8901  -18.2176   22.8438 C   0  0  0  0  0  0  0  0  0  0  0  0
   13.2096  -17.1123   22.3834 O   0  0  0  0  0  0  0  0  0  0  0  0
   13.1328  -18.5223   24.2817 C   0  0  0  0  0  0  0  0  0  0  0  0
   11.9358  -18.3150   25.1418 C   0  0  2  0  0  0  0  0  0  0  0  0
   11.2394  -17.0816   24.9402 N   0  0  0  0  0  0  0  0  0  0  0  0
   12.3831  -18.3636   26.5694 C   0  0  0  0  0  0  0  0  0  0  0  0
   12.2366  -17.3727   27.3358 O   0  0  0  0  0  0  0  0  0  0  0  0
   12.9786  -19.4997   27.1138 O   0  0  0  0  0  0  0  0  0  0  0  0
  2  1  1  0
  3  2  1  0
  4  3  1  0
  5  4  1  0
  5  6  1  1
  7 16  1  0
  7  5  1  0
  8  7  2  0
  9 10  1  0
 10 11  2  0
 11 12  1  0
 13 12  2  0
 13 14  1  0
 15 14  1  1
 15 16  1  0
 17 15  1  0
 17 26  1  0
 18 17  2  0
 19 13  1  0
 20 10  1  0
 20 19  2  0
 21 22  1  0
 22 24  1  0
 23 22  2  0
 25 24  1  6
 25 26  1  0
 25 27  1  0
 27 28  2  0
 27 29  1  0
M  END
$$$$
