MYN.pdb
     RDKit          3D

 29 29  0  0  1  0  0  0  0  0999 V2000
    7.8297  -11.5365   20.1143 C   0  0  0  0  0  0  0  0  0  0  0  0
    7.1142  -13.0874   19.5727 S   0  0  0  0  0  0  0  0  0  0  0  0
    8.1742  -14.2030   18.7117 C   0  0  0  0  0  0  0  0  0  0  0  0
    9.2407  -14.9183   19.4581 C   0  0  0  0  0  0  0  0  0  0  0  0
    8.8550  -15.8976   20.4979 C   0  0  2  0  0  0  0  0  0  0  0  0
    7.4625  -15.9466   20.8232 N   0  0  0  0  0  0  0  0  0  0  0  0
    9.6079  -15.7310   21.7680 C   0  0  0  0  0  0  0  0  0  0  0  0
   10.8478  -15.6251   21.7980 O   0  0  0  0  0  0  0  0  0  0  0  0
   11.0165  -14.3844   30.4284 O   0  0  0  0  0  0  0  0  0  0  0  0
   10.4070  -14.7125   29.2195 C   0  0  0  0  0  0  0  0  0  0  0  0
   10.1130  -16.0172   28.9037 C   0  0  0  0  0  0  0  0  0  0  0  0
    9.4999  -16.3666   27.6919 C   0  0  0  0  0  0  0  0  0  0  0  0
    9.1648  -15.4155   26.7643 C   0  0  0  0  0  0  0  0  0  0  0  0
    8.4999  -15.6879   25.4554 C   0  0  0  0  0  0  0  0  0  0  0  0
    9.4770  -15.6148   24.2915 C   0  0  2  0  0  0  0  0  0  0  0  0
    8.8952  -15.6898   22.9975 N   0  0  0  0  0  0  0  0  0  0  0  0
   10.5705  -16.5632   24.5618 C   0  0  0  0  0  0  0  0  0  0  0  0
   11.7438  -16.1292   24.6712 O   0  0  0  0  0  0  0  0  0  0  0  0
    9.4718  -14.0837   27.1004 C   0  0  0  0  0  0  0  0  0  0  0  0
   10.0727  -13.7511   28.2901 C   0  0  0  0  0  0  0  0  0  0  0  0
   13.5202  -20.7265   25.1399 N   0  0  0  0  0  0  0  0  0  0  0  0
   13.8833  -19.3419   25.1103 C   0  0  0  0  0  0  0  0  0  0  0  0
   15.0603  -18.9802   25.2497 O   0  0  0  0  0  0  0  0  0  0  0  0
   12.8126  -18.3264   24.9069 C   0  0  0  0  0  0  0  0  0  0  0  0
   11.4487  -18.9143   24.8086 C   0  0  2  0  0  0  0  0  0  0  0  0
   10.3776  -17.9709   24.7101 N   0  0  0  0  0  0  0  0  0  0  0  0
   11.2188  -19.7464   26.0314 C   0  0  0  0  0  0  0  0  0  0  0  0
   10.9319  -20.9715   25.9457 O   0  0  0  0  0  0  0  0  0  0  0  0
   11.3108  -19.2082   27.3134 O   0  0  0  0  0  0  0  0  0  0  0  0
  2  1  1  0
  3  2  1  0
  4  3  1  0
  5  4  1  0
  5  6  1  1
  7 16  1  0
  7  5  1  0
  8  7  2  0
  9 10  1  0
 10 11  2  0
 11 12  1  0
 13 12  2  0
 13 14  1  0
 15 14  1  1
 15 16  1  0
 17 15  1  0
 17 26  1  0
 18 17  2  0
 19 13  1  0
 20 10  1  0
 20 19  2  0
 21 22  1  0
 22 24  1  0
 23 22  2  0
 25 24  1  1
 25 26  1  0
 25 27  1  0
 27 28  2  0
 27 29  1  0
M  END
$$$$
