MYN.pdb
     RDKit          3D

 29 29  0  0  1  0  0  0  0  0999 V2000
    7.1442  -11.2507   27.4891 C   0  0  0  0  0  0  0  0  0  0  0  0
    6.6340  -12.9414   27.1867 S   0  0  0  0  0  0  0  0  0  0  0  0
    5.8404  -13.2773   25.6483 C   0  0  0  0  0  0  0  0  0  0  0  0
    5.5608  -14.6845   25.2640 C   0  0  0  0  0  0  0  0  0  0  0  0
    6.6205  -15.7012   25.4439 C   0  0  2  0  0  0  0  0  0  0  0  0
    7.5148  -15.4833   26.5393 N   0  0  0  0  0  0  0  0  0  0  0  0
    7.4446  -15.9108   24.2254 C   0  0  0  0  0  0  0  0  0  0  0  0
    6.9628  -16.3421   23.1619 O   0  0  0  0  0  0  0  0  0  0  0  0
    6.6442  -13.6032   18.0072 O   0  0  0  0  0  0  0  0  0  0  0  0
    7.5010  -13.8695   19.0728 C   0  0  0  0  0  0  0  0  0  0  0  0
    8.1486  -15.0769   19.1784 C   0  0  0  0  0  0  0  0  0  0  0  0
    9.0146  -15.3630   20.2437 C   0  0  0  0  0  0  0  0  0  0  0  0
    9.2543  -14.4445   21.2317 C   0  0  0  0  0  0  0  0  0  0  0  0
   10.1667  -14.6518   22.3953 C   0  0  0  0  0  0  0  0  0  0  0  0
    9.7679  -15.8623   23.2261 C   0  0  2  0  0  0  0  0  0  0  0  0
    8.8337  -15.6105   24.2664 N   0  0  0  0  0  0  0  0  0  0  0  0
   11.0015  -16.5613   23.6237 C   0  0  0  0  0  0  0  0  0  0  0  0
   11.7987  -15.9951   24.4114 O   0  0  0  0  0  0  0  0  0  0  0  0
    8.5845  -13.2125   21.1112 C   0  0  0  0  0  0  0  0  0  0  0  0
    7.7377  -12.9414   20.0640 C   0  0  0  0  0  0  0  0  0  0  0  0
   10.2419  -21.2439   23.9532 N   0  0  0  0  0  0  0  0  0  0  0  0
   11.3562  -20.5433   24.5165 C   0  0  0  0  0  0  0  0  0  0  0  0
   11.4448  -20.3461   25.7367 O   0  0  0  0  0  0  0  0  0  0  0  0
   12.4239  -20.0469   23.6038 C   0  0  0  0  0  0  0  0  0  0  0  0
   12.5348  -18.5629   23.5730 C   0  0  2  0  0  0  0  0  0  0  0  0
   11.3549  -17.8660   23.1615 N   0  0  0  0  0  0  0  0  0  0  0  0
   13.6358  -18.2049   22.6244 C   0  0  0  0  0  0  0  0  0  0  0  0
   13.4111  -17.5231   21.5874 O   0  0  0  0  0  0  0  0  0  0  0  0
   14.9522  -18.6065   22.8424 O   0  0  0  0  0  0  0  0  0  0  0  0
  2  1  1  0
  3  2  1  0
  4  3  1  0
  5  4  1  0
  5  6  1  1
  7 16  1  0
  7  5  1  0
  8  7  2  0
  9 10  1  0
 10 11  2  0
 11 12  1  0
 13 12  2  0
 13 14  1  0
 15 14  1  1
 15 16  1  0
 17 15  1  0
 17 26  1  0
 18 17  2  0
 19 13  1  0
 20 10  1  0
 20 19  2  0
 21 22  1  0
 22 24  1  0
 23 22  2  0
 25 24  1  6
 25 26  1  0
 25 27  1  0
 27 28  2  0
 27 29  1  0
M  END
$$$$
