MYN.pdb
     RDKit          3D

 29 29  0  0  1  0  0  0  0  0999 V2000
    3.1581  -17.3509   20.4871 C   0  0  0  0  0  0  0  0  0  0  0  0
    3.5617  -18.8185   21.4324 S   0  0  0  0  0  0  0  0  0  0  0  0
    5.1448  -18.8636   22.2077 C   0  0  0  0  0  0  0  0  0  0  0  0
    6.3463  -18.4536   21.4366 C   0  0  0  0  0  0  0  0  0  0  0  0
    7.6825  -18.6154   22.0511 C   0  0  2  0  0  0  0  0  0  0  0  0
    7.7789  -18.2675   23.4356 N   0  0  0  0  0  0  0  0  0  0  0  0
    8.7529  -17.8816   21.3276 C   0  0  0  0  0  0  0  0  0  0  0  0
    9.0464  -18.1290   20.1435 O   0  0  0  0  0  0  0  0  0  0  0  0
    5.9180  -12.6653   18.6300 O   0  0  0  0  0  0  0  0  0  0  0  0
    7.0256  -13.1450   19.3253 C   0  0  0  0  0  0  0  0  0  0  0  0
    8.1781  -13.5002   18.6665 C   0  0  0  0  0  0  0  0  0  0  0  0
    9.3030  -13.9851   19.3493 C   0  0  0  0  0  0  0  0  0  0  0  0
    9.3015  -14.1260   20.7122 C   0  0  0  0  0  0  0  0  0  0  0  0
   10.4513  -14.6200   21.5266 C   0  0  0  0  0  0  0  0  0  0  0  0
   10.5770  -16.1354   21.4783 C   0  0  2  0  0  0  0  0  0  0  0  0
    9.4728  -16.8589   22.0037 N   0  0  0  0  0  0  0  0  0  0  0  0
   11.8985  -16.4948   22.0195 C   0  0  0  0  0  0  0  0  0  0  0  0
   12.9217  -15.9298   21.5606 O   0  0  0  0  0  0  0  0  0  0  0  0
    8.1148  -13.7589   21.3740 C   0  0  0  0  0  0  0  0  0  0  0  0
    7.0178  -13.2850   20.6965 C   0  0  0  0  0  0  0  0  0  0  0  0
   15.1852  -18.9490   26.6519 N   0  0  0  0  0  0  0  0  0  0  0  0
   14.9301  -18.6038   25.2861 C   0  0  0  0  0  0  0  0  0  0  0  0
   15.8018  -18.7311   24.4145 O   0  0  0  0  0  0  0  0  0  0  0  0
   13.5836  -18.0820   24.9201 C   0  0  0  0  0  0  0  0  0  0  0  0
   13.3775  -17.9511   23.4518 C   0  0  2  0  0  0  0  0  0  0  0  0
   12.0935  -17.4627   23.0519 N   0  0  0  0  0  0  0  0  0  0  0  0
   13.5670  -19.3038   22.8398 C   0  0  0  0  0  0  0  0  0  0  0  0
   14.6875  -19.8822   22.8633 O   0  0  0  0  0  0  0  0  0  0  0  0
   12.5198  -19.9820   22.2193 O   0  0  0  0  0  0  0  0  0  0  0  0
  2  1  1  0
  3  2  1  0
  4  3  1  0
  5  4  1  0
  5  6  1  1
  7 16  1  0
  7  5  1  0
  8  7  2  0
  9 10  1  0
 10 11  2  0
 11 12  1  0
 13 12  2  0
 13 14  1  0
 15 14  1  1
 15 16  1  0
 17 15  1  0
 17 26  1  0
 18 17  2  0
 19 13  1  0
 20 10  1  0
 20 19  2  0
 21 22  1  0
 22 24  1  0
 23 22  2  0
 25 24  1  1
 25 26  1  0
 25 27  1  0
 27 28  2  0
 27 29  1  0
M  END
$$$$
