MYN.pdb
     RDKit          3D

 29 29  0  0  1  0  0  0  0  0999 V2000
    5.6464  -19.9604   22.4195 C   0  0  0  0  0  0  0  0  0  0  0  0
    6.6229  -19.9665   20.9172 S   0  0  0  0  0  0  0  0  0  0  0  0
    7.7758  -18.6495   20.7040 C   0  0  0  0  0  0  0  0  0  0  0  0
    7.2793  -17.2522   20.6195 C   0  0  0  0  0  0  0  0  0  0  0  0
    8.2590  -16.1445   20.5711 C   0  0  2  0  0  0  0  0  0  0  0  0
    9.1892  -16.1812   19.4845 N   0  0  0  0  0  0  0  0  0  0  0  0
    9.0398  -15.9975   21.8266 C   0  0  0  0  0  0  0  0  0  0  0  0
   10.2668  -16.2008   21.8753 O   0  0  0  0  0  0  0  0  0  0  0  0
   10.8047  -14.4257   30.3863 O   0  0  0  0  0  0  0  0  0  0  0  0
   10.1339  -14.5383   29.1706 C   0  0  0  0  0  0  0  0  0  0  0  0
   10.0232  -13.4656   28.3188 C   0  0  0  0  0  0  0  0  0  0  0  0
    9.3518  -13.5599   27.0912 C   0  0  0  0  0  0  0  0  0  0  0  0
    8.7737  -14.7339   26.6852 C   0  0  0  0  0  0  0  0  0  0  0  0
    8.0509  -14.9348   25.3942 C   0  0  0  0  0  0  0  0  0  0  0  0
    8.9876  -15.3657   24.2755 C   0  0  2  0  0  0  0  0  0  0  0  0
    8.3701  -15.6110   23.0197 N   0  0  0  0  0  0  0  0  0  0  0  0
    9.8417  -16.4468   24.7952 C   0  0  0  0  0  0  0  0  0  0  0  0
   10.9472  -16.1567   25.3153 O   0  0  0  0  0  0  0  0  0  0  0  0
    8.8944  -15.8241   27.5671 C   0  0  0  0  0  0  0  0  0  0  0  0
    9.5540  -15.7221   28.7679 C   0  0  0  0  0  0  0  0  0  0  0  0
   13.3374  -20.0989   22.5638 N   0  0  0  0  0  0  0  0  0  0  0  0
   12.3704  -20.0055   23.6154 C   0  0  0  0  0  0  0  0  0  0  0  0
   12.3837  -20.7883   24.5760 O   0  0  0  0  0  0  0  0  0  0  0  0
   11.3325  -18.9396   23.5395 C   0  0  0  0  0  0  0  0  0  0  0  0
   10.4392  -18.8960   24.7294 C   0  0  2  0  0  0  0  0  0  0  0  0
    9.4857  -17.8294   24.7442 N   0  0  0  0  0  0  0  0  0  0  0  0
   11.3014  -18.7602   25.9453 C   0  0  0  0  0  0  0  0  0  0  0  0
   12.3811  -18.1091   25.9133 O   0  0  0  0  0  0  0  0  0  0  0  0
   10.9524  -19.3438   27.1615 O   0  0  0  0  0  0  0  0  0  0  0  0
  2  1  1  0
  3  2  1  0
  4  3  1  0
  5  4  1  0
  5  6  1  6
  7 16  1  0
  7  5  1  0
  8  7  2  0
  9 10  1  0
 10 11  2  0
 11 12  1  0
 13 12  2  0
 13 14  1  0
 15 14  1  1
 15 16  1  0
 17 15  1  0
 17 26  1  0
 18 17  2  0
 19 13  1  0
 20 10  1  0
 20 19  2  0
 21 22  1  0
 22 24  1  0
 23 22  2  0
 25 24  1  6
 25 26  1  0
 25 27  1  0
 27 28  2  0
 27 29  1  0
M  END
$$$$
