TEE.pdb
     RDKit          3D

 26 25  0  0  1  0  0  0  0  0999 V2000
   17.0639   -8.6063  -17.5813 C   0  0  0  0  0  0  0  0  0  0  0  0
   16.8055   -9.5768  -16.4505 C   0  0  1  0  0  0  0  0  0  0  0  0
   15.9513  -10.5732  -16.8731 O   0  0  0  0  0  0  0  0  0  0  0  0
   18.1415  -10.1410  -15.9903 C   0  0  2  0  0  0  0  0  0  0  0  0
   17.8938  -11.1381  -14.9412 N   0  0  0  0  0  0  0  0  0  0  0  0
   18.9525   -9.0432  -15.4281 C   0  0  0  0  0  0  0  0  0  0  0  0
   18.6469   -8.6214  -14.2824 O   0  0  0  0  0  0  0  0  0  0  0  0
   20.0443   -8.4545  -16.1157 N   0  0  0  0  0  0  0  0  0  0  0  0
   20.7167   -7.2878  -15.5186 C   0  0  1  0  0  0  0  0  0  0  0  0
   22.2069   -7.4481  -15.6641 C   0  0  0  0  0  0  0  0  0  0  0  0
   22.9225   -6.3051  -15.0156 C   0  0  0  0  0  0  0  0  0  0  0  0
   24.3983   -6.3747  -15.2750 C   0  0  0  0  0  0  0  0  0  0  0  0
   24.9796   -7.4612  -15.4083 O   0  0  0  0  0  0  0  0  0  0  0  0
   20.1591   -6.0452  -16.0997 C   0  0  0  0  0  0  0  0  0  0  0  0
   20.0483   -5.8764  -17.3133 O   0  0  0  0  0  0  0  0  0  0  0  0
   25.0863   -5.1872  -15.3600 O   0  0  0  0  0  0  0  0  0  0  0  0
   19.7259   -4.9860  -15.2354 N   0  0  0  0  0  0  0  0  0  0  0  0
   19.0725   -3.7870  -15.6810 C   0  0  1  0  0  0  0  0  0  0  0  0
   17.8288   -3.4197  -14.9625 C   0  0  0  0  0  0  0  0  0  0  0  0
   17.1071   -2.2038  -15.3975 C   0  0  0  0  0  0  0  0  0  0  0  0
   15.8525   -1.9540  -14.6617 C   0  0  0  0  0  0  0  0  0  0  0  0
   15.4502   -2.6683  -13.7312 O   0  0  0  0  0  0  0  0  0  0  0  0
   20.0346   -2.6727  -15.7452 C   0  0  0  0  0  0  0  0  0  0  0  0
   21.0571   -2.6924  -15.0272 O   0  0  0  0  0  0  0  0  0  0  0  0
   15.0447   -0.8536  -15.0093 O   0  0  0  0  0  0  0  0  0  0  0  0
   19.8398   -1.5955  -16.5832 O   0  0  0  0  0  0  0  0  0  0  0  0
  2  1  1  6
  2  4  1  0
  2  3  1  0
  4  5  1  1
  6  4  1  0
  7  6  2  0
  8  6  1  0
  9  8  1  0
  9 10  1  6
 11 10  1  0
 12 11  1  0
 12 13  2  0
 14 15  2  0
 14  9  1  0
 16 12  1  0
 17 14  1  0
 18 17  1  0
 18 19  1  1
 20 21  1  0
 20 19  1  0
 21 22  2  0
 23 18  1  0
 24 23  2  0
 25 21  1  0
 26 23  1  0
M  END
$$$$
