TEE.pdb
     RDKit          3D

 26 25  0  0  1  0  0  0  0  0999 V2000
   18.3957  -10.8966  -13.8184 C   0  0  0  0  0  0  0  0  0  0  0  0
   17.4349  -11.3011  -14.9141 C   0  0  1  0  0  0  0  0  0  0  0  0
   17.0823  -12.6256  -14.7639 O   0  0  0  0  0  0  0  0  0  0  0  0
   16.2210  -10.3863  -14.8471 C   0  0  2  0  0  0  0  0  0  0  0  0
   15.2676  -10.7944  -15.8866 N   0  0  0  0  0  0  0  0  0  0  0  0
   16.6554   -9.0004  -15.1107 C   0  0  0  0  0  0  0  0  0  0  0  0
   17.0340   -8.7210  -16.2779 O   0  0  0  0  0  0  0  0  0  0  0  0
   16.6630   -7.9877  -14.1178 N   0  0  0  0  0  0  0  0  0  0  0  0
   17.2332   -6.6703  -14.4483 C   0  0  1  0  0  0  0  0  0  0  0  0
   16.3072   -5.5920  -13.9507 C   0  0  0  0  0  0  0  0  0  0  0  0
   16.9054   -4.2401  -14.1818 C   0  0  0  0  0  0  0  0  0  0  0  0
   16.0249   -3.1582  -13.6301 C   0  0  0  0  0  0  0  0  0  0  0  0
   14.9801   -2.8207  -14.2048 O   0  0  0  0  0  0  0  0  0  0  0  0
   18.6211   -6.5906  -13.9385 C   0  0  0  0  0  0  0  0  0  0  0  0
   18.9100   -6.8429  -12.7695 O   0  0  0  0  0  0  0  0  0  0  0  0
   16.4184   -2.5519  -12.4603 O   0  0  0  0  0  0  0  0  0  0  0  0
   19.6839   -6.2073  -14.8216 N   0  0  0  0  0  0  0  0  0  0  0  0
   21.0707   -6.1522  -14.4513 C   0  0  1  0  0  0  0  0  0  0  0  0
   22.0321   -6.6669  -15.4555 C   0  0  0  0  0  0  0  0  0  0  0  0
   23.4770   -6.5052  -15.1825 C   0  0  0  0  0  0  0  0  0  0  0  0
   24.3526   -7.0374  -16.2444 C   0  0  0  0  0  0  0  0  0  0  0  0
   23.9850   -7.8791  -17.0778 O   0  0  0  0  0  0  0  0  0  0  0  0
   21.4214   -4.8015  -13.9779 C   0  0  0  0  0  0  0  0  0  0  0  0
   20.7963   -3.8097  -14.4103 O   0  0  0  0  0  0  0  0  0  0  0  0
   25.6833   -6.5865  -16.3455 O   0  0  0  0  0  0  0  0  0  0  0  0
   22.4302   -4.5950  -13.0613 O   0  0  0  0  0  0  0  0  0  0  0  0
  2  1  1  1
  2  4  1  0
  2  3  1  0
  4  5  1  6
  6  4  1  0
  7  6  2  0
  8  6  1  0
  9  8  1  0
  9 10  1  1
 11 10  1  0
 12 11  1  0
 12 13  2  0
 14 15  2  0
 14  9  1  0
 16 12  1  0
 17 14  1  0
 18 17  1  0
 18 19  1  6
 20 21  1  0
 20 19  1  0
 21 22  2  0
 23 18  1  0
 24 23  2  0
 25 21  1  0
 26 23  1  0
M  END
$$$$
