TEE.pdb
     RDKit          3D

 26 25  0  0  1  0  0  0  0  0999 V2000
   28.4568  -12.6769  -15.7614 C   0  0  0  0  0  0  0  0  0  0  0  0
   27.2769  -11.7530  -15.9655 C   0  0  1  0  0  0  0  0  0  0  0  0
   27.7150  -10.5227  -16.4078 O   0  0  0  0  0  0  0  0  0  0  0  0
   26.3283  -12.4023  -16.9623 C   0  0  2  0  0  0  0  0  0  0  0  0
   27.0228  -12.5427  -18.2484 N   0  0  0  0  0  0  0  0  0  0  0  0
   25.1552  -11.5246  -17.1428 C   0  0  0  0  0  0  0  0  0  0  0  0
   25.1312  -10.7873  -18.1624 O   0  0  0  0  0  0  0  0  0  0  0  0
   24.0719  -11.4798  -16.2285 N   0  0  0  0  0  0  0  0  0  0  0  0
   22.9220  -10.6096  -16.5287 C   0  0  1  0  0  0  0  0  0  0  0  0
   21.6844  -11.4563  -16.6678 C   0  0  0  0  0  0  0  0  0  0  0  0
   20.4803  -10.5933  -16.8783 C   0  0  0  0  0  0  0  0  0  0  0  0
   19.2293  -11.4184  -16.9449 C   0  0  0  0  0  0  0  0  0  0  0  0
   18.2773  -11.0900  -17.6672 O   0  0  0  0  0  0  0  0  0  0  0  0
   22.8369   -9.5353  -15.5131 C   0  0  0  0  0  0  0  0  0  0  0  0
   23.0679   -9.7346  -14.3212 O   0  0  0  0  0  0  0  0  0  0  0  0
   19.1753  -12.5558  -16.1740 O   0  0  0  0  0  0  0  0  0  0  0  0
   22.4735   -8.2062  -15.9102 N   0  0  0  0  0  0  0  0  0  0  0  0
   22.3177   -7.1002  -15.0069 C   0  0  1  0  0  0  0  0  0  0  0  0
   22.2908   -5.7540  -15.6271 C   0  0  0  0  0  0  0  0  0  0  0  0
   22.1603   -4.5800  -14.7365 C   0  0  0  0  0  0  0  0  0  0  0  0
   22.0968   -3.2892  -15.4489 C   0  0  0  0  0  0  0  0  0  0  0  0
   21.2349   -2.4256  -15.2264 O   0  0  0  0  0  0  0  0  0  0  0  0
   21.1713   -7.3290  -14.1098 C   0  0  0  0  0  0  0  0  0  0  0  0
   20.0987   -7.7726  -14.5727 O   0  0  0  0  0  0  0  0  0  0  0  0
   23.0510   -2.9897  -16.4408 O   0  0  0  0  0  0  0  0  0  0  0  0
   21.2457   -7.0656  -12.7587 O   0  0  0  0  0  0  0  0  0  0  0  0
  2  1  1  6
  2  4  1  0
  2  3  1  0
  4  5  1  6
  6  4  1  0
  7  6  2  0
  8  6  1  0
  9  8  1  0
  9 10  1  1
 11 10  1  0
 12 11  1  0
 12 13  2  0
 14 15  2  0
 14  9  1  0
 16 12  1  0
 17 14  1  0
 18 17  1  0
 18 19  1  6
 20 21  1  0
 20 19  1  0
 21 22  2  0
 23 18  1  0
 24 23  2  0
 25 21  1  0
 26 23  1  0
M  END
$$$$
