TEE.pdb
     RDKit          3D

 26 25  0  0  1  0  0  0  0  0999 V2000
   16.2821  -14.3220  -13.6659 C   0  0  0  0  0  0  0  0  0  0  0  0
   15.6427  -13.9096  -14.9730 C   0  0  1  0  0  0  0  0  0  0  0  0
   14.3995  -14.4938  -15.0924 O   0  0  0  0  0  0  0  0  0  0  0  0
   15.5543  -12.3910  -15.0036 C   0  0  2  0  0  0  0  0  0  0  0  0
   14.8429  -11.9865  -16.2229 N   0  0  0  0  0  0  0  0  0  0  0  0
   16.9218  -11.8361  -15.0387 C   0  0  0  0  0  0  0  0  0  0  0  0
   17.6592  -12.0417  -14.0398 O   0  0  0  0  0  0  0  0  0  0  0  0
   17.4297  -11.0931  -16.1347 N   0  0  0  0  0  0  0  0  0  0  0  0
   18.8348  -10.6521  -16.1065 C   0  0  1  0  0  0  0  0  0  0  0  0
   19.5577  -11.2282  -17.2953 C   0  0  0  0  0  0  0  0  0  0  0  0
   19.8602  -12.6766  -17.0729 C   0  0  0  0  0  0  0  0  0  0  0  0
   20.7224  -13.2233  -18.1720 C   0  0  0  0  0  0  0  0  0  0  0  0
   21.8472  -13.6885  -17.9391 O   0  0  0  0  0  0  0  0  0  0  0  0
   18.8873   -9.1765  -15.9942 C   0  0  0  0  0  0  0  0  0  0  0  0
   18.0032   -8.4488  -16.4441 O   0  0  0  0  0  0  0  0  0  0  0  0
   20.2196  -13.1903  -19.4515 O   0  0  0  0  0  0  0  0  0  0  0  0
   20.0001   -8.5505  -15.3413 N   0  0  0  0  0  0  0  0  0  0  0  0
   20.1400   -7.1339  -15.1491 C   0  0  1  0  0  0  0  0  0  0  0  0
   21.1108   -6.7120  -14.1112 C   0  0  0  0  0  0  0  0  0  0  0  0
   21.2675   -5.2639  -13.8525 C   0  0  0  0  0  0  0  0  0  0  0  0
   22.3192   -4.9393  -12.8694 C   0  0  0  0  0  0  0  0  0  0  0  0
   22.9751   -5.7971  -12.2595 O   0  0  0  0  0  0  0  0  0  0  0  0
   20.3698   -6.4618  -16.4403 C   0  0  0  0  0  0  0  0  0  0  0  0
   21.1043   -6.9976  -17.2976 O   0  0  0  0  0  0  0  0  0  0  0  0
   22.6195   -3.5928  -12.5849 O   0  0  0  0  0  0  0  0  0  0  0  0
   19.7927   -5.2453  -16.7359 O   0  0  0  0  0  0  0  0  0  0  0  0
  2  1  1  1
  2  4  1  0
  2  3  1  0
  4  5  1  6
  6  4  1  0
  7  6  2  0
  8  6  1  0
  9  8  1  0
  9 10  1  6
 11 10  1  0
 12 11  1  0
 12 13  2  0
 14 15  2  0
 14  9  1  0
 16 12  1  0
 17 14  1  0
 18 17  1  0
 18 19  1  1
 20 21  1  0
 20 19  1  0
 21 22  2  0
 23 18  1  0
 24 23  2  0
 25 21  1  0
 26 23  1  0
M  END
$$$$
