TEE.pdb
     RDKit          3D

 26 25  0  0  1  0  0  0  0  0999 V2000
   23.3084  -11.7652  -15.0443 C   0  0  0  0  0  0  0  0  0  0  0  0
   23.0314  -12.6524  -16.2375 C   0  0  1  0  0  0  0  0  0  0  0  0
   23.5455  -13.9123  -16.0151 O   0  0  0  0  0  0  0  0  0  0  0  0
   21.5274  -12.6921  -16.4645 C   0  0  2  0  0  0  0  0  0  0  0  0
   21.2557  -13.4800  -17.6735 N   0  0  0  0  0  0  0  0  0  0  0  0
   21.0414  -11.3135  -16.6700 C   0  0  0  0  0  0  0  0  0  0  0  0
   21.3160  -10.7565  -17.7646 O   0  0  0  0  0  0  0  0  0  0  0  0
   20.2898  -10.6032  -15.6995 N   0  0  0  0  0  0  0  0  0  0  0  0
   19.9842   -9.1816  -15.9354 C   0  0  1  0  0  0  0  0  0  0  0  0
   18.5691   -8.9018  -15.5031 C   0  0  0  0  0  0  0  0  0  0  0  0
   18.2575   -7.4449  -15.6417 C   0  0  0  0  0  0  0  0  0  0  0  0
   16.8409   -7.1552  -15.2424 C   0  0  0  0  0  0  0  0  0  0  0  0
   15.8877   -7.7436  -15.7727 O   0  0  0  0  0  0  0  0  0  0  0  0
   21.0166   -8.3403  -15.2880 C   0  0  0  0  0  0  0  0  0  0  0  0
   21.4128   -8.5475  -14.1418 O   0  0  0  0  0  0  0  0  0  0  0  0
   16.6358   -6.2107  -14.2642 O   0  0  0  0  0  0  0  0  0  0  0  0
   21.5897   -7.2380  -16.0041 N   0  0  0  0  0  0  0  0  0  0  0  0
   22.6072   -6.3687  -15.4824 C   0  0  1  0  0  0  0  0  0  0  0  0
   23.5446   -5.7954  -16.4777 C   0  0  0  0  0  0  0  0  0  0  0  0
   24.6255   -4.9123  -15.9875 C   0  0  0  0  0  0  0  0  0  0  0  0
   25.5313   -4.4264  -17.0464 C   0  0  0  0  0  0  0  0  0  0  0  0
   25.4407   -4.7677  -18.2352 O   0  0  0  0  0  0  0  0  0  0  0  0
   22.0064   -5.3381  -14.6172 C   0  0  0  0  0  0  0  0  0  0  0  0
   20.8874   -4.8615  -14.9035 O   0  0  0  0  0  0  0  0  0  0  0  0
   26.5651   -3.5256  -16.7238 O   0  0  0  0  0  0  0  0  0  0  0  0
   22.6483   -4.8774  -13.4875 O   0  0  0  0  0  0  0  0  0  0  0  0
  2  1  1  1
  2  4  1  0
  2  3  1  0
  4  5  1  6
  6  4  1  0
  7  6  2  0
  8  6  1  0
  9  8  1  0
  9 10  1  1
 11 10  1  0
 12 11  1  0
 12 13  2  0
 14 15  2  0
 14  9  1  0
 16 12  1  0
 17 14  1  0
 18 17  1  0
 18 19  1  6
 20 21  1  0
 20 19  1  0
 21 22  2  0
 23 18  1  0
 24 23  2  0
 25 21  1  0
 26 23  1  0
M  END
$$$$
