TEE.pdb
     RDKit          3D

 26 25  0  0  1  0  0  0  0  0999 V2000
   14.4312   -5.2169  -10.3161 C   0  0  0  0  0  0  0  0  0  0  0  0
   14.5298   -5.4356   -8.8228 C   0  0  1  0  0  0  0  0  0  0  0  0
   13.4993   -4.7796   -8.1833 O   0  0  0  0  0  0  0  0  0  0  0  0
   14.4930   -6.9331   -8.5556 C   0  0  2  0  0  0  0  0  0  0  0  0
   14.5837   -7.1538   -7.1068 N   0  0  0  0  0  0  0  0  0  0  0  0
   15.6568   -7.5613   -9.2113 C   0  0  0  0  0  0  0  0  0  0  0  0
   16.8019   -7.1808   -8.8539 O   0  0  0  0  0  0  0  0  0  0  0  0
   15.5383   -8.5601  -10.2111 N   0  0  0  0  0  0  0  0  0  0  0  0
   16.7609   -9.1963  -10.7310 C   0  0  1  0  0  0  0  0  0  0  0  0
   16.4926  -10.6582  -10.9735 C   0  0  0  0  0  0  0  0  0  0  0  0
   15.3654  -10.8302  -11.9423 C   0  0  0  0  0  0  0  0  0  0  0  0
   15.1247  -12.2808  -12.2390 C   0  0  0  0  0  0  0  0  0  0  0  0
   14.7037  -13.0562  -11.3687 O   0  0  0  0  0  0  0  0  0  0  0  0
   17.2470   -8.4432  -11.9097 C   0  0  0  0  0  0  0  0  0  0  0  0
   16.4938   -7.7937  -12.6339 O   0  0  0  0  0  0  0  0  0  0  0  0
   15.3882  -12.7219  -13.5144 O   0  0  0  0  0  0  0  0  0  0  0  0
   18.6427   -8.4570  -12.2384 N   0  0  0  0  0  0  0  0  0  0  0  0
   19.2437   -7.6623  -13.2730 C   0  0  1  0  0  0  0  0  0  0  0  0
   20.4750   -6.9280  -12.8955 C   0  0  0  0  0  0  0  0  0  0  0  0
   21.1282   -6.0895  -13.9244 C   0  0  0  0  0  0  0  0  0  0  0  0
   22.3317   -5.3811  -13.4473 C   0  0  0  0  0  0  0  0  0  0  0  0
   22.7840   -5.4964  -12.2983 O   0  0  0  0  0  0  0  0  0  0  0  0
   19.4198   -8.4633  -14.4974 C   0  0  0  0  0  0  0  0  0  0  0  0
   19.4733   -9.7095  -14.4223 O   0  0  0  0  0  0  0  0  0  0  0  0
   23.0280   -4.5201  -14.3179 O   0  0  0  0  0  0  0  0  0  0  0  0
   19.5288   -7.8736  -15.7386 O   0  0  0  0  0  0  0  0  0  0  0  0
  2  1  1  6
  2  4  1  0
  2  3  1  0
  4  5  1  1
  6  4  1  0
  7  6  2  0
  8  6  1  0
  9  8  1  0
  9 10  1  6
 11 10  1  0
 12 11  1  0
 12 13  2  0
 14 15  2  0
 14  9  1  0
 16 12  1  0
 17 14  1  0
 18 17  1  0
 18 19  1  1
 20 21  1  0
 20 19  1  0
 21 22  2  0
 23 18  1  0
 24 23  2  0
 25 21  1  0
 26 23  1  0
M  END
$$$$
