TEE.pdb
     RDKit          3D

 26 25  0  0  1  0  0  0  0  0999 V2000
   28.6299  -19.5816  -17.2572 C   0  0  0  0  0  0  0  0  0  0  0  0
   27.3974  -19.7713  -16.4014 C   0  0  1  0  0  0  0  0  0  0  0  0
   26.2763  -19.3722  -17.0980 O   0  0  0  0  0  0  0  0  0  0  0  0
   27.3158  -21.2363  -15.9989 C   0  0  2  0  0  0  0  0  0  0  0  0
   27.0287  -22.0368  -17.1959 N   0  0  0  0  0  0  0  0  0  0  0  0
   26.2118  -21.4029  -15.0332 C   0  0  0  0  0  0  0  0  0  0  0  0
   25.2226  -22.0926  -15.3932 O   0  0  0  0  0  0  0  0  0  0  0  0
   26.2210  -20.8265  -13.7374 N   0  0  0  0  0  0  0  0  0  0  0  0
   25.0589  -21.0351  -12.8566 C   0  0  1  0  0  0  0  0  0  0  0  0
   25.4663  -20.7740  -11.4306 C   0  0  0  0  0  0  0  0  0  0  0  0
   24.3212  -21.0330  -10.5029 C   0  0  0  0  0  0  0  0  0  0  0  0
   24.7390  -20.8727   -9.0712 C   0  0  0  0  0  0  0  0  0  0  0  0
   25.8682  -20.4595   -8.7708 O   0  0  0  0  0  0  0  0  0  0  0  0
   23.9189  -20.2245  -13.3424 C   0  0  0  0  0  0  0  0  0  0  0  0
   24.0461  -19.0533  -13.6973 O   0  0  0  0  0  0  0  0  0  0  0  0
   23.8226  -21.2013   -8.1001 O   0  0  0  0  0  0  0  0  0  0  0  0
   22.6094  -20.8049  -13.4103 N   0  0  0  0  0  0  0  0  0  0  0  0
   21.4407  -20.1236  -13.8934 C   0  0  1  0  0  0  0  0  0  0  0  0
   21.0647  -20.3973  -15.3011 C   0  0  0  0  0  0  0  0  0  0  0  0
   19.8994  -19.6794  -15.8623 C   0  0  0  0  0  0  0  0  0  0  0  0
   19.5516  -20.0815  -17.2389 C   0  0  0  0  0  0  0  0  0  0  0  0
   20.1409  -20.9786  -17.8601 O   0  0  0  0  0  0  0  0  0  0  0  0
   20.3142  -20.3161  -12.9630 C   0  0  0  0  0  0  0  0  0  0  0  0
   20.2134  -21.3838  -12.3217 O   0  0  0  0  0  0  0  0  0  0  0  0
   18.4988  -19.4320  -17.9127 O   0  0  0  0  0  0  0  0  0  0  0  0
   19.3559  -19.3430  -12.7756 O   0  0  0  0  0  0  0  0  0  0  0  0
  2  1  1  6
  2  4  1  0
  2  3  1  0
  4  5  1  6
  6  4  1  0
  7  6  2  0
  8  6  1  0
  9  8  1  0
  9 10  1  1
 11 10  1  0
 12 11  1  0
 12 13  2  0
 14 15  2  0
 14  9  1  0
 16 12  1  0
 17 14  1  0
 18 17  1  0
 18 19  1  6
 20 21  1  0
 20 19  1  0
 21 22  2  0
 23 18  1  0
 24 23  2  0
 25 21  1  0
 26 23  1  0
M  END
$$$$
