TEE.pdb
     RDKit          3D

 26 25  0  0  1  0  0  0  0  0999 V2000
   23.2284  -10.3489  -21.1560 C   0  0  0  0  0  0  0  0  0  0  0  0
   22.3136   -9.7986  -20.0847 C   0  0  1  0  0  0  0  0  0  0  0  0
   21.0790  -10.4074  -20.1635 O   0  0  0  0  0  0  0  0  0  0  0  0
   22.9686  -10.0314  -18.7312 C   0  0  2  0  0  0  0  0  0  0  0  0
   23.0557  -11.4779  -18.4943 N   0  0  0  0  0  0  0  0  0  0  0  0
   22.1245   -9.4229  -17.6841 C   0  0  0  0  0  0  0  0  0  0  0  0
   21.2933  -10.1666  -17.1012 O   0  0  0  0  0  0  0  0  0  0  0  0
   22.2112   -8.0564  -17.3146 N   0  0  0  0  0  0  0  0  0  0  0  0
   21.3321   -7.5499  -16.2467 C   0  0  1  0  0  0  0  0  0  0  0  0
   22.0958   -6.5623  -15.4046 C   0  0  0  0  0  0  0  0  0  0  0  0
   21.2326   -6.0371  -14.3011 C   0  0  0  0  0  0  0  0  0  0  0  0
   21.9852   -5.0636  -13.4432 C   0  0  0  0  0  0  0  0  0  0  0  0
   21.7249   -3.8520  -13.4611 O   0  0  0  0  0  0  0  0  0  0  0  0
   20.0796   -7.0310  -16.8423 C   0  0  0  0  0  0  0  0  0  0  0  0
   20.0755   -6.2424  -17.7866 O   0  0  0  0  0  0  0  0  0  0  0  0
   22.9776   -5.5637  -12.6333 O   0  0  0  0  0  0  0  0  0  0  0  0
   18.8132   -7.4491  -16.3153 N   0  0  0  0  0  0  0  0  0  0  0  0
   17.5402   -6.9748  -16.7819 C   0  0  1  0  0  0  0  0  0  0  0  0
   16.3624   -7.7874  -16.3944 C   0  0  0  0  0  0  0  0  0  0  0  0
   15.0291   -7.3461  -16.8592 C   0  0  0  0  0  0  0  0  0  0  0  0
   14.1968   -8.4309  -17.4145 C   0  0  0  0  0  0  0  0  0  0  0  0
   14.5129   -9.6292  -17.3680 O   0  0  0  0  0  0  0  0  0  0  0  0
   17.3724   -5.5484  -16.4517 C   0  0  0  0  0  0  0  0  0  0  0  0
   17.7164   -5.1264  -15.3269 O   0  0  0  0  0  0  0  0  0  0  0  0
   12.9715   -8.1235  -18.0376 O   0  0  0  0  0  0  0  0  0  0  0  0
   16.8412   -4.6537  -17.3559 O   0  0  0  0  0  0  0  0  0  0  0  0
  2  1  1  6
  2  4  1  0
  2  3  1  0
  4  5  1  1
  6  4  1  0
  7  6  2  0
  8  6  1  0
  9  8  1  0
  9 10  1  6
 11 10  1  0
 12 11  1  0
 12 13  2  0
 14 15  2  0
 14  9  1  0
 16 12  1  0
 17 14  1  0
 18 17  1  0
 18 19  1  1
 20 21  1  0
 20 19  1  0
 21 22  2  0
 23 18  1  0
 24 23  2  0
 25 21  1  0
 26 23  1  0
M  END
$$$$
