TEE.pdb
     RDKit          3D

 26 25  0  0  1  0  0  0  0  0999 V2000
   19.7681   -9.8444  -19.1112 C   0  0  0  0  0  0  0  0  0  0  0  0
   20.1975  -11.2277  -18.6758 C   0  0  1  0  0  0  0  0  0  0  0  0
   19.5744  -12.1795  -19.4550 O   0  0  0  0  0  0  0  0  0  0  0  0
   21.7124  -11.3151  -18.7876 C   0  0  2  0  0  0  0  0  0  0  0  0
   22.1402  -12.6463  -18.3393 N   0  0  0  0  0  0  0  0  0  0  0  0
   22.3135  -10.2950  -17.9062 C   0  0  0  0  0  0  0  0  0  0  0  0
   22.2594  -10.4936  -16.6646 O   0  0  0  0  0  0  0  0  0  0  0  0
   22.9392   -9.1195  -18.3941 N   0  0  0  0  0  0  0  0  0  0  0  0
   23.4344   -8.1229  -17.4290 C   0  0  1  0  0  0  0  0  0  0  0  0
   24.4272   -7.2218  -18.1145 C   0  0  0  0  0  0  0  0  0  0  0  0
   24.9221   -6.1727  -17.1693 C   0  0  0  0  0  0  0  0  0  0  0  0
   25.9445   -5.2930  -17.8258 C   0  0  0  0  0  0  0  0  0  0  0  0
   26.3957   -4.2902  -17.2541 O   0  0  0  0  0  0  0  0  0  0  0  0
   22.2861   -7.4298  -16.8015 C   0  0  0  0  0  0  0  0  0  0  0  0
   21.2951   -7.0821  -17.4424 O   0  0  0  0  0  0  0  0  0  0  0  0
   26.3652   -5.6389  -19.0885 O   0  0  0  0  0  0  0  0  0  0  0  0
   22.3080   -7.1426  -15.3967 N   0  0  0  0  0  0  0  0  0  0  0  0
   21.1964   -6.6146  -14.6560 C   0  0  1  0  0  0  0  0  0  0  0  0
   20.3807   -7.6056  -13.9142 C   0  0  0  0  0  0  0  0  0  0  0  0
   19.2062   -7.1154  -13.1601 C   0  0  0  0  0  0  0  0  0  0  0  0
   18.5416   -8.1496  -12.3437 C   0  0  0  0  0  0  0  0  0  0  0  0
   18.3879   -8.0595  -11.1163 O   0  0  0  0  0  0  0  0  0  0  0  0
   21.6342   -5.4955  -13.8030 C   0  0  0  0  0  0  0  0  0  0  0  0
   22.7066   -5.5813  -13.1673 O   0  0  0  0  0  0  0  0  0  0  0  0
   18.0434   -9.3142  -12.9598 O   0  0  0  0  0  0  0  0  0  0  0  0
   20.8886   -4.3423  -13.6828 O   0  0  0  0  0  0  0  0  0  0  0  0
  2  1  1  6
  2  4  1  0
  2  3  1  0
  4  5  1  1
  6  4  1  0
  7  6  2  0
  8  6  1  0
  9  8  1  0
  9 10  1  6
 11 10  1  0
 12 11  1  0
 12 13  2  0
 14 15  2  0
 14  9  1  0
 16 12  1  0
 17 14  1  0
 18 17  1  0
 18 19  1  1
 20 21  1  0
 20 19  1  0
 21 22  2  0
 23 18  1  0
 24 23  2  0
 25 21  1  0
 26 23  1  0
M  END
$$$$
