DII.pdb
     RDKit          3D

 25 24  0  0  1  0  0  0  0  0999 V2000
   11.6599  -17.9062   17.9415 N   0  0  0  0  0  0  0  0  0  0  0  0
   10.3381  -18.0346   18.5017 C   0  0  1  0  0  0  0  0  0  0  0  0
   10.0200  -19.4477   18.7349 C   0  0  0  0  0  0  0  0  0  0  0  0
    9.7727  -20.2048   17.4918 C   0  0  0  0  0  0  0  0  0  0  0  0
   10.1360  -21.3982   17.4212 O   0  0  0  0  0  0  0  0  0  0  0  0
   10.1953  -17.1076   19.6369 C   0  0  0  0  0  0  0  0  0  0  0  0
   11.1949  -16.9852   20.3939 O   0  0  0  0  0  0  0  0  0  0  0  0
    9.1513  -19.6199   16.4169 O   0  0  0  0  0  0  0  0  0  0  0  0
    7.1448  -12.5322   19.1769 C   0  0  0  0  0  0  0  0  0  0  0  0
    8.2371  -13.4525   19.6107 C   0  0  0  0  0  0  0  0  0  0  0  0
    7.7898  -14.4310   20.7196 C   0  0  2  0  0  0  0  0  0  0  0  0
    7.6346  -13.5048   21.9198 C   0  0  0  0  0  0  0  0  0  0  0  0
    8.8733  -15.4279   21.0226 C   0  0  2  0  0  0  0  0  0  0  0  0
    9.0626  -16.3687   19.9319 N   0  0  0  0  0  0  0  0  0  0  0  0
    8.5741  -16.1790   22.2444 C   0  0  0  0  0  0  0  0  0  0  0  0
    7.6000  -17.0457   22.2166 O   0  0  0  0  0  0  0  0  0  0  0  0
   12.4703  -18.2333   25.2542 C   0  0  0  0  0  0  0  0  0  0  0  0
   11.1509  -17.9784   24.6543 C   0  0  0  0  0  0  0  0  0  0  0  0
   10.1251  -17.2182   25.3560 C   0  0  2  0  0  0  0  0  0  0  0  0
    9.6931  -17.8798   26.6717 C   0  0  0  0  0  0  0  0  0  0  0  0
    8.8549  -16.9222   24.6223 C   0  0  2  0  0  0  0  0  0  0  0  0
    9.2559  -16.0486   23.4458 N   0  0  0  0  0  0  0  0  0  0  0  0
    7.8396  -16.1876   25.3413 C   0  0  0  0  0  0  0  0  0  0  0  0
    6.7552  -16.7013   26.0451 O   0  0  0  0  0  0  0  0  0  0  0  0
    7.8762  -14.9019   25.3702 O   0  0  0  0  0  0  0  0  0  0  0  0
  2  3  1  0
  2  1  1  1
  3  4  1  0
  4  8  1  0
  4  5  2  0
  6  2  1  0
  7  6  2  0
  9 10  1  0
 10 11  1  0
 11 13  1  0
 11 12  1  1
 13 14  1  6
 14  6  1  0
 15 22  1  0
 15 13  1  0
 16 15  2  0
 18 17  1  0
 19 21  1  0
 19 18  1  0
 19 20  1  1
 21 22  1  6
 23 24  1  0
 23 21  1  0
 25 23  2  0
M  END
$$$$
