DII.pdb
     RDKit          3D

 25 24  0  0  1  0  0  0  0  0999 V2000
   11.0750  -19.0518   20.6726 N   0  0  0  0  0  0  0  0  0  0  0  0
   12.0489  -18.0003   20.8251 C   0  0  1  0  0  0  0  0  0  0  0  0
   12.6221  -17.6454   19.5221 C   0  0  0  0  0  0  0  0  0  0  0  0
   13.9898  -17.0972   19.6142 C   0  0  0  0  0  0  0  0  0  0  0  0
   14.1571  -15.9481   20.0756 O   0  0  0  0  0  0  0  0  0  0  0  0
   11.4732  -16.9135   21.6352 C   0  0  0  0  0  0  0  0  0  0  0  0
   12.2227  -15.9290   21.8718 O   0  0  0  0  0  0  0  0  0  0  0  0
   15.0760  -17.8283   19.2030 O   0  0  0  0  0  0  0  0  0  0  0  0
    6.5150  -14.9508   20.7862 C   0  0  0  0  0  0  0  0  0  0  0  0
    7.9447  -15.0603   21.2013 C   0  0  0  0  0  0  0  0  0  0  0  0
    8.1135  -15.6735   22.6093 C   0  0  2  0  0  0  0  0  0  0  0  0
    7.5348  -14.5841   23.5041 C   0  0  0  0  0  0  0  0  0  0  0  0
    9.5680  -15.8462   22.9469 C   0  0  2  0  0  0  0  0  0  0  0  0
   10.1880  -16.8899   22.1488 N   0  0  0  0  0  0  0  0  0  0  0  0
    9.7470  -16.1699   24.3646 C   0  0  0  0  0  0  0  0  0  0  0  0
    9.9906  -17.4087   24.6918 O   0  0  0  0  0  0  0  0  0  0  0  0
   10.3697  -13.3684   29.9085 C   0  0  0  0  0  0  0  0  0  0  0  0
   10.4929  -14.5303   29.0137 C   0  0  0  0  0  0  0  0  0  0  0  0
   10.2766  -14.4166   27.5774 C   0  0  2  0  0  0  0  0  0  0  0  0
    9.0494  -13.5636   27.2286 C   0  0  0  0  0  0  0  0  0  0  0  0
   10.1179  -15.6827   26.7957 C   0  0  2  0  0  0  0  0  0  0  0  0
    9.6852  -15.2532   25.4042 N   0  0  0  0  0  0  0  0  0  0  0  0
    9.1169  -16.6164   27.2582 C   0  0  0  0  0  0  0  0  0  0  0  0
    9.2851  -17.6741   28.1458 O   0  0  0  0  0  0  0  0  0  0  0  0
    7.9060  -16.5222   26.8340 O   0  0  0  0  0  0  0  0  0  0  0  0
  2  3  1  0
  2  1  1  6
  3  4  1  0
  4  8  1  0
  4  5  2  0
  6  2  1  0
  7  6  2  0
  9 10  1  0
 10 11  1  0
 11 13  1  0
 11 12  1  1
 13 14  1  6
 14  6  1  0
 15 22  1  0
 15 13  1  0
 16 15  2  0
 18 17  1  0
 19 21  1  0
 19 18  1  0
 19 20  1  1
 21 22  1  6
 23 24  1  0
 23 21  1  0
 25 23  2  0
M  END
$$$$
