DII.pdb
     RDKit          3D

 25 24  0  0  1  0  0  0  0  0999 V2000
   11.0066  -18.2429   17.3717 N   0  0  0  0  0  0  0  0  0  0  0  0
    9.7559  -18.0498   18.0615 C   0  0  1  0  0  0  0  0  0  0  0  0
    9.1481  -19.3455   18.3843 C   0  0  0  0  0  0  0  0  0  0  0  0
    8.8263  -20.1542   17.1918 C   0  0  0  0  0  0  0  0  0  0  0  0
    8.2868  -21.2715   17.3394 O   0  0  0  0  0  0  0  0  0  0  0  0
    9.9478  -17.0933   19.1646 C   0  0  0  0  0  0  0  0  0  0  0  0
   11.1223  -16.9658   19.6022 O   0  0  0  0  0  0  0  0  0  0  0  0
    9.1087  -19.6985   15.9284 O   0  0  0  0  0  0  0  0  0  0  0  0
    6.8871  -12.4833   19.7050 C   0  0  0  0  0  0  0  0  0  0  0  0
    8.0772  -13.3788   19.8070 C   0  0  0  0  0  0  0  0  0  0  0  0
    7.9348  -14.4381   20.9225 C   0  0  2  0  0  0  0  0  0  0  0  0
    8.0767  -13.5952   22.1841 C   0  0  0  0  0  0  0  0  0  0  0  0
    9.0708  -15.4214   20.8748 C   0  0  2  0  0  0  0  0  0  0  0  0
    8.9504  -16.3323   19.7495 N   0  0  0  0  0  0  0  0  0  0  0  0
    9.1424  -16.2069   22.1095 C   0  0  0  0  0  0  0  0  0  0  0  0
    8.1631  -17.0239   22.3824 O   0  0  0  0  0  0  0  0  0  0  0  0
   13.8306  -18.2690   23.4770 C   0  0  0  0  0  0  0  0  0  0  0  0
   12.3700  -18.1048   23.4035 C   0  0  0  0  0  0  0  0  0  0  0  0
   11.6202  -17.4413   24.4620 C   0  0  2  0  0  0  0  0  0  0  0  0
   11.6305  -18.2292   25.7789 C   0  0  0  0  0  0  0  0  0  0  0  0
   10.1821  -17.1210   24.1997 C   0  0  2  0  0  0  0  0  0  0  0  0
   10.1849  -16.1590   23.0239 N   0  0  0  0  0  0  0  0  0  0  0  0
    9.4551  -16.4600   25.2589 C   0  0  0  0  0  0  0  0  0  0  0  0
    8.6255  -17.0405   26.2127 O   0  0  0  0  0  0  0  0  0  0  0  0
    9.5318  -15.1825   25.3904 O   0  0  0  0  0  0  0  0  0  0  0  0
  2  3  1  0
  2  1  1  1
  3  4  1  0
  4  8  1  0
  4  5  2  0
  6  2  1  0
  7  6  2  0
  9 10  1  0
 10 11  1  0
 11 13  1  0
 11 12  1  1
 13 14  1  6
 14  6  1  0
 15 22  1  0
 15 13  1  0
 16 15  2  0
 18 17  1  0
 19 21  1  0
 19 18  1  0
 19 20  1  1
 21 22  1  6
 23 24  1  0
 23 21  1  0
 25 23  2  0
M  END
$$$$
