DII.pdb
     RDKit          3D

 25 24  0  0  1  0  0  0  0  0999 V2000
   12.9402  -17.3509   20.5872 N   0  0  0  0  0  0  0  0  0  0  0  0
   11.7120  -17.7118   21.2494 C   0  0  1  0  0  0  0  0  0  0  0  0
   11.9386  -18.8377   22.1623 C   0  0  0  0  0  0  0  0  0  0  0  0
   12.3400  -20.0794   21.4718 C   0  0  0  0  0  0  0  0  0  0  0  0
   11.4677  -20.7731   20.9069 O   0  0  0  0  0  0  0  0  0  0  0  0
   11.0805  -16.5021   21.8030 C   0  0  0  0  0  0  0  0  0  0  0  0
   11.8467  -15.6691   22.3563 O   0  0  0  0  0  0  0  0  0  0  0  0
   13.6519  -20.4810   21.4403 O   0  0  0  0  0  0  0  0  0  0  0  0
    7.4730  -13.6780   19.0790 C   0  0  0  0  0  0  0  0  0  0  0  0
    8.5308  -14.0197   20.0753 C   0  0  0  0  0  0  0  0  0  0  0  0
    7.9515  -14.5665   21.3991 C   0  0  2  0  0  0  0  0  0  0  0  0
    7.3281  -13.3196   22.0147 C   0  0  0  0  0  0  0  0  0  0  0  0
    9.0499  -15.0483   22.3052 C   0  0  2  0  0  0  0  0  0  0  0  0
    9.7275  -16.2126   21.7615 N   0  0  0  0  0  0  0  0  0  0  0  0
    8.5304  -15.3846   23.6333 C   0  0  0  0  0  0  0  0  0  0  0  0
    8.2842  -16.6364   23.9040 O   0  0  0  0  0  0  0  0  0  0  0  0
    5.7206  -11.9407   27.1142 C   0  0  0  0  0  0  0  0  0  0  0  0
    6.4983  -12.8457   26.2529 C   0  0  0  0  0  0  0  0  0  0  0  0
    7.4983  -13.7526   26.8011 C   0  0  2  0  0  0  0  0  0  0  0  0
    8.8389  -13.0590   27.0781 C   0  0  0  0  0  0  0  0  0  0  0  0
    7.8377  -14.9751   26.0077 C   0  0  2  0  0  0  0  0  0  0  0  0
    8.2813  -14.4691   24.6456 N   0  0  0  0  0  0  0  0  0  0  0  0
    6.7667  -15.9126   25.7595 C   0  0  0  0  0  0  0  0  0  0  0  0
    6.3348  -16.9486   26.5812 O   0  0  0  0  0  0  0  0  0  0  0  0
    6.0942  -15.8444   24.6648 O   0  0  0  0  0  0  0  0  0  0  0  0
  2  3  1  0
  2  1  1  1
  3  4  1  0
  4  8  1  0
  4  5  2  0
  6  2  1  0
  7  6  2  0
  9 10  1  0
 10 11  1  0
 11 13  1  0
 11 12  1  1
 13 14  1  6
 14  6  1  0
 15 22  1  0
 15 13  1  0
 16 15  2  0
 18 17  1  0
 19 21  1  0
 19 18  1  0
 19 20  1  6
 21 22  1  6
 23 24  1  0
 23 21  1  0
 25 23  2  0
M  END
$$$$
