DII.pdb
     RDKit          3D

 25 24  0  0  1  0  0  0  0  0999 V2000
   11.8202  -16.9118   16.2530 N   0  0  0  0  0  0  0  0  0  0  0  0
   10.7267  -17.3302   17.0935 C   0  0  1  0  0  0  0  0  0  0  0  0
   10.7261  -18.7902   17.2377 C   0  0  0  0  0  0  0  0  0  0  0  0
   10.2705  -19.4978   16.0248 C   0  0  0  0  0  0  0  0  0  0  0  0
   11.0394  -19.5852   15.0437 O   0  0  0  0  0  0  0  0  0  0  0  0
   10.7200  -16.5237   18.3256 C   0  0  0  0  0  0  0  0  0  0  0  0
   11.8438  -16.1908   18.7876 O   0  0  0  0  0  0  0  0  0  0  0  0
    9.0201  -20.0599   15.9592 O   0  0  0  0  0  0  0  0  0  0  0  0
    6.7020  -12.8596   19.3041 C   0  0  0  0  0  0  0  0  0  0  0  0
    8.0657  -13.4664   19.3232 C   0  0  0  0  0  0  0  0  0  0  0  0
    8.1973  -14.6098   20.3539 C   0  0  2  0  0  0  0  0  0  0  0  0
    8.1840  -13.8518   21.6759 C   0  0  0  0  0  0  0  0  0  0  0  0
    9.5228  -15.3051   20.2154 C   0  0  2  0  0  0  0  0  0  0  0  0
    9.5886  -16.1073   19.0059 N   0  0  0  0  0  0  0  0  0  0  0  0
    9.7893  -16.1698   21.3678 C   0  0  0  0  0  0  0  0  0  0  0  0
    9.0839  -17.2585   21.5023 O   0  0  0  0  0  0  0  0  0  0  0  0
   14.4730  -18.5364   24.2965 C   0  0  0  0  0  0  0  0  0  0  0  0
   13.0490  -18.1655   24.3155 C   0  0  0  0  0  0  0  0  0  0  0  0
   12.4638  -17.3226   23.2811 C   0  0  2  0  0  0  0  0  0  0  0  0
   13.1879  -15.9777   23.1327 C   0  0  0  0  0  0  0  0  0  0  0  0
   11.0113  -16.9830   23.4001 C   0  0  2  0  0  0  0  0  0  0  0  0
   10.7495  -15.9274   22.3395 N   0  0  0  0  0  0  0  0  0  0  0  0
   10.5731  -16.4121   24.6530 C   0  0  0  0  0  0  0  0  0  0  0  0
   10.1178  -15.1185   24.8859 O   0  0  0  0  0  0  0  0  0  0  0  0
   10.5860  -17.1258   25.7234 O   0  0  0  0  0  0  0  0  0  0  0  0
  2  3  1  0
  2  1  1  1
  3  4  1  0
  4  8  1  0
  4  5  2  0
  6  2  1  0
  7  6  2  0
  9 10  1  0
 10 11  1  0
 11 13  1  0
 11 12  1  1
 13 14  1  6
 14  6  1  0
 15 22  1  0
 15 13  1  0
 16 15  2  0
 18 17  1  0
 19 21  1  0
 19 18  1  0
 19 20  1  1
 21 22  1  6
 23 24  1  0
 23 21  1  0
 25 23  2  0
M  END
$$$$
