DII.pdb
     RDKit          3D

 25 24  0  0  1  0  0  0  0  0999 V2000
    7.9409  -16.3082   21.2813 N   0  0  0  0  0  0  0  0  0  0  0  0
    9.3414  -16.3445   21.6198 C   0  0  1  0  0  0  0  0  0  0  0  0
   10.1588  -16.0797   20.4307 C   0  0  0  0  0  0  0  0  0  0  0  0
   10.1875  -17.2067   19.4775 C   0  0  0  0  0  0  0  0  0  0  0  0
    9.1222  -17.5811   18.9426 O   0  0  0  0  0  0  0  0  0  0  0  0
    9.5791  -15.5102   22.8098 C   0  0  0  0  0  0  0  0  0  0  0  0
   10.7646  -15.1309   23.0047 O   0  0  0  0  0  0  0  0  0  0  0  0
   11.3624  -17.8461   19.1705 O   0  0  0  0  0  0  0  0  0  0  0  0
    6.6330  -11.8066   26.8656 C   0  0  0  0  0  0  0  0  0  0  0  0
    7.8067  -12.6626   26.5223 C   0  0  0  0  0  0  0  0  0  0  0  0
    7.5749  -13.5154   25.2551 C   0  0  2  0  0  0  0  0  0  0  0  0
    6.4697  -14.4632   25.7051 C   0  0  0  0  0  0  0  0  0  0  0  0
    8.7961  -14.3278   24.9260 C   0  0  2  0  0  0  0  0  0  0  0  0
    8.6127  -15.1144   23.7184 N   0  0  0  0  0  0  0  0  0  0  0  0
    9.1430  -15.2305   26.0266 C   0  0  0  0  0  0  0  0  0  0  0  0
    8.3430  -16.2271   26.2868 O   0  0  0  0  0  0  0  0  0  0  0  0
   13.4892  -17.4619   25.3553 C   0  0  0  0  0  0  0  0  0  0  0  0
   12.1676  -17.1500   25.9226 C   0  0  0  0  0  0  0  0  0  0  0  0
   12.0123  -16.7039   27.3008 C   0  0  2  0  0  0  0  0  0  0  0  0
   12.4513  -17.7640   28.3199 C   0  0  0  0  0  0  0  0  0  0  0  0
   10.6504  -16.2669   27.7410 C   0  0  2  0  0  0  0  0  0  0  0  0
   10.2732  -15.1164   26.8233 N   0  0  0  0  0  0  0  0  0  0  0  0
   10.5289  -15.7627   29.0895 C   0  0  0  0  0  0  0  0  0  0  0  0
   10.4436  -14.4355   29.4975 O   0  0  0  0  0  0  0  0  0  0  0  0
   10.4971  -16.5818   30.0811 O   0  0  0  0  0  0  0  0  0  0  0  0
  2  3  1  0
  2  1  1  6
  3  4  1  0
  4  8  1  0
  4  5  2  0
  6  2  1  0
  7  6  2  0
  9 10  1  0
 10 11  1  0
 11 13  1  0
 11 12  1  1
 13 14  1  6
 14  6  1  0
 15 22  1  0
 15 13  1  0
 16 15  2  0
 18 17  1  0
 19 21  1  0
 19 18  1  0
 19 20  1  1
 21 22  1  6
 23 24  1  0
 23 21  1  0
 25 23  2  0
M  END
$$$$
