DII.pdb
     RDKit          3D

 25 24  0  0  1  0  0  0  0  0999 V2000
   12.5569  -17.1366   19.4065 N   0  0  0  0  0  0  0  0  0  0  0  0
   11.6352  -17.6738   20.3757 C   0  0  1  0  0  0  0  0  0  0  0  0
   12.2269  -18.8340   21.0512 C   0  0  0  0  0  0  0  0  0  0  0  0
   12.4742  -19.9745   20.1469 C   0  0  0  0  0  0  0  0  0  0  0  0
   11.5492  -20.7822   19.9159 O   0  0  0  0  0  0  0  0  0  0  0  0
   11.1214  -16.5823   21.2202 C   0  0  0  0  0  0  0  0  0  0  0  0
   11.9382  -15.6726   21.5243 O   0  0  0  0  0  0  0  0  0  0  0  0
   13.6998  -20.1596   19.5577 O   0  0  0  0  0  0  0  0  0  0  0  0
    6.6022  -13.8760   20.1940 C   0  0  0  0  0  0  0  0  0  0  0  0
    7.9514  -14.2120   20.7373 C   0  0  0  0  0  0  0  0  0  0  0  0
    7.8825  -15.0315   22.0452 C   0  0  2  0  0  0  0  0  0  0  0  0
    7.3055  -14.0189   23.0271 C   0  0  0  0  0  0  0  0  0  0  0  0
    9.2598  -15.4154   22.5093 C   0  0  2  0  0  0  0  0  0  0  0  0
    9.8265  -16.4792   21.6983 N   0  0  0  0  0  0  0  0  0  0  0  0
    9.2445  -15.8488   23.9088 C   0  0  0  0  0  0  0  0  0  0  0  0
    9.0700  -17.1159   24.1636 O   0  0  0  0  0  0  0  0  0  0  0  0
   10.8165  -13.6194   29.5293 C   0  0  0  0  0  0  0  0  0  0  0  0
   10.5224  -14.7146   28.5914 C   0  0  0  0  0  0  0  0  0  0  0  0
   10.2724  -14.4653   27.1778 C   0  0  2  0  0  0  0  0  0  0  0  0
    9.2509  -13.3438   26.9455 C   0  0  0  0  0  0  0  0  0  0  0  0
    9.8014  -15.6137   26.3419 C   0  0  2  0  0  0  0  0  0  0  0  0
    9.4100  -15.0119   25.0030 N   0  0  0  0  0  0  0  0  0  0  0  0
    8.6416  -16.3345   26.8137 C   0  0  0  0  0  0  0  0  0  0  0  0
    7.3192  -16.1755   26.4124 O   0  0  0  0  0  0  0  0  0  0  0  0
    8.7724  -17.2405   27.7178 O   0  0  0  0  0  0  0  0  0  0  0  0
  2  3  1  0
  2  1  1  6
  3  4  1  0
  4  8  1  0
  4  5  2  0
  6  2  1  0
  7  6  2  0
  9 10  1  0
 10 11  1  0
 11 13  1  0
 11 12  1  1
 13 14  1  6
 14  6  1  0
 15 22  1  0
 15 13  1  0
 16 15  2  0
 18 17  1  0
 19 21  1  0
 19 18  1  0
 19 20  1  1
 21 22  1  6
 23 24  1  0
 23 21  1  0
 25 23  2  0
M  END
$$$$
