DII.pdb
     RDKit          3D

 25 24  0  0  1  0  0  0  0  0999 V2000
    9.4050  -17.5412   19.0142 N   0  0  0  0  0  0  0  0  0  0  0  0
   10.0172  -17.5551   20.3189 C   0  0  1  0  0  0  0  0  0  0  0  0
   11.2505  -16.7606   20.3103 C   0  0  0  0  0  0  0  0  0  0  0  0
   12.3917  -17.4584   19.6856 C   0  0  0  0  0  0  0  0  0  0  0  0
   12.2219  -18.6004   19.2079 O   0  0  0  0  0  0  0  0  0  0  0  0
    9.0049  -17.2310   21.3381 C   0  0  0  0  0  0  0  0  0  0  0  0
    8.1344  -16.3787   21.0170 O   0  0  0  0  0  0  0  0  0  0  0  0
   13.6315  -16.8733   19.6210 O   0  0  0  0  0  0  0  0  0  0  0  0
    6.1196  -20.8308   23.9878 C   0  0  0  0  0  0  0  0  0  0  0  0
    6.5206  -19.5114   23.4163 C   0  0  0  0  0  0  0  0  0  0  0  0
    7.4846  -18.7293   24.3360 C   0  0  2  0  0  0  0  0  0  0  0  0
    6.5707  -18.3232   25.4859 C   0  0  0  0  0  0  0  0  0  0  0  0
    7.9796  -17.4832   23.6564 C   0  0  2  0  0  0  0  0  0  0  0  0
    8.9359  -17.7844   22.6050 N   0  0  0  0  0  0  0  0  0  0  0  0
    8.6080  -16.5716   24.6160 C   0  0  0  0  0  0  0  0  0  0  0  0
    9.8902  -16.6818   24.8278 O   0  0  0  0  0  0  0  0  0  0  0  0
    6.0281  -11.9234   25.9504 C   0  0  0  0  0  0  0  0  0  0  0  0
    7.1998  -12.7717   25.6796 C   0  0  0  0  0  0  0  0  0  0  0  0
    7.7825  -13.6231   26.7083 C   0  0  2  0  0  0  0  0  0  0  0  0
    8.5309  -12.8249   27.7844 C   0  0  0  0  0  0  0  0  0  0  0  0
    8.7340  -14.6917   26.2698 C   0  0  2  0  0  0  0  0  0  0  0  0
    7.9441  -15.5804   25.3243 N   0  0  0  0  0  0  0  0  0  0  0  0
    9.2588  -15.5623   27.2965 C   0  0  0  0  0  0  0  0  0  0  0  0
    8.6561  -16.6886   27.8472 O   0  0  0  0  0  0  0  0  0  0  0  0
   10.4122  -15.3230   27.8138 O   0  0  0  0  0  0  0  0  0  0  0  0
  2  3  1  0
  2  1  1  6
  3  4  1  0
  4  8  1  0
  4  5  2  0
  6  2  1  0
  7  6  2  0
  9 10  1  0
 10 11  1  0
 11 13  1  0
 11 12  1  1
 13 14  1  6
 14  6  1  0
 15 22  1  0
 15 13  1  0
 16 15  2  0
 18 17  1  0
 19 21  1  0
 19 18  1  0
 19 20  1  1
 21 22  1  6
 23 24  1  0
 23 21  1  0
 25 23  2  0
M  END
$$$$
