DII.pdb
     RDKit          3D

 25 24  0  0  1  0  0  0  0  0999 V2000
   10.4438  -16.2585   19.5427 N   0  0  0  0  0  0  0  0  0  0  0  0
   10.1868  -17.0099   20.7455 C   0  0  1  0  0  0  0  0  0  0  0  0
   11.0944  -18.1594   20.8305 C   0  0  0  0  0  0  0  0  0  0  0  0
   10.9407  -19.1104   19.7118 C   0  0  0  0  0  0  0  0  0  0  0  0
    9.8827  -19.7671   19.6097 O   0  0  0  0  0  0  0  0  0  0  0  0
   10.1405  -16.0916   21.8959 C   0  0  0  0  0  0  0  0  0  0  0  0
   11.0476  -15.2196   21.9579 O   0  0  0  0  0  0  0  0  0  0  0  0
   11.9384  -19.2825   18.7851 O   0  0  0  0  0  0  0  0  0  0  0  0
    6.2489  -13.2080   25.6671 C   0  0  0  0  0  0  0  0  0  0  0  0
    7.6141  -13.7782   25.4683 C   0  0  0  0  0  0  0  0  0  0  0  0
    7.6780  -14.7828   24.2963 C   0  0  2  0  0  0  0  0  0  0  0  0
    6.8838  -15.9630   24.8429 C   0  0  0  0  0  0  0  0  0  0  0  0
    9.0919  -15.2308   24.0520 C   0  0  2  0  0  0  0  0  0  0  0  0
    9.1885  -16.1115   22.9006 N   0  0  0  0  0  0  0  0  0  0  0  0
    9.6362  -15.9252   25.2217 C   0  0  0  0  0  0  0  0  0  0  0  0
   10.1287  -17.1218   25.0588 O   0  0  0  0  0  0  0  0  0  0  0  0
   10.3913  -12.7853   29.5540 C   0  0  0  0  0  0  0  0  0  0  0  0
   10.8340  -13.8144   28.5997 C   0  0  0  0  0  0  0  0  0  0  0  0
   10.4760  -15.2169   28.7659 C   0  0  2  0  0  0  0  0  0  0  0  0
   11.3293  -15.9246   29.8272 C   0  0  0  0  0  0  0  0  0  0  0  0
   10.5321  -16.0969   27.5569 C   0  0  2  0  0  0  0  0  0  0  0  0
    9.6787  -15.4053   26.5073 N   0  0  0  0  0  0  0  0  0  0  0  0
    9.9978  -17.4323   27.6939 C   0  0  0  0  0  0  0  0  0  0  0  0
   10.7005  -18.6108   27.9224 O   0  0  0  0  0  0  0  0  0  0  0  0
    8.7303  -17.6301   27.5970 O   0  0  0  0  0  0  0  0  0  0  0  0
  2  3  1  0
  2  1  1  6
  3  4  1  0
  4  8  1  0
  4  5  2  0
  6  2  1  0
  7  6  2  0
  9 10  1  0
 10 11  1  0
 11 13  1  0
 11 12  1  1
 13 14  1  6
 14  6  1  0
 15 22  1  0
 15 13  1  0
 16 15  2  0
 18 17  1  0
 19 21  1  0
 19 18  1  0
 19 20  1  1
 21 22  1  6
 23 24  1  0
 23 21  1  0
 25 23  2  0
M  END
$$$$
