DII.pdb
     RDKit          3D

 25 24  0  0  1  0  0  0  0  0999 V2000
    8.7569  -15.2379   20.3074 N   0  0  0  0  0  0  0  0  0  0  0  0
    8.1329  -15.8712   21.4418 C   0  0  1  0  0  0  0  0  0  0  0  0
    8.2671  -17.3291   21.3476 C   0  0  0  0  0  0  0  0  0  0  0  0
    7.6602  -17.8949   20.1265 C   0  0  0  0  0  0  0  0  0  0  0  0
    6.7868  -17.2398   19.5188 O   0  0  0  0  0  0  0  0  0  0  0  0
    8.5959  -15.2229   22.6803 C   0  0  0  0  0  0  0  0  0  0  0  0
    9.7904  -14.8227   22.6947 O   0  0  0  0  0  0  0  0  0  0  0  0
    8.0401  -19.1246   19.6500 O   0  0  0  0  0  0  0  0  0  0  0  0
    5.2688  -12.0507   25.6550 C   0  0  0  0  0  0  0  0  0  0  0  0
    6.4915  -12.6207   25.0160 C   0  0  0  0  0  0  0  0  0  0  0  0
    7.0812  -13.8094   25.8073 C   0  0  2  0  0  0  0  0  0  0  0  0
    7.6090  -13.1271   27.0635 C   0  0  0  0  0  0  0  0  0  0  0  0
    8.2416  -14.4190   25.0715 C   0  0  2  0  0  0  0  0  0  0  0  0
    7.8292  -15.0204   23.8150 N   0  0  0  0  0  0  0  0  0  0  0  0
    8.9062  -15.4401   25.8853 C   0  0  0  0  0  0  0  0  0  0  0  0
    8.3715  -16.6280   25.9477 O   0  0  0  0  0  0  0  0  0  0  0  0
   14.5703  -16.6607   28.1359 C   0  0  0  0  0  0  0  0  0  0  0  0
   13.1331  -16.9501   28.0069 C   0  0  0  0  0  0  0  0  0  0  0  0
   12.2355  -16.0606   27.2817 C   0  0  2  0  0  0  0  0  0  0  0  0
   12.2328  -14.6331   27.8452 C   0  0  0  0  0  0  0  0  0  0  0  0
   10.7950  -16.4543   27.1850 C   0  0  2  0  0  0  0  0  0  0  0  0
   10.0793  -15.2482   26.6008 N   0  0  0  0  0  0  0  0  0  0  0  0
   10.1167  -16.7644   28.4225 C   0  0  0  0  0  0  0  0  0  0  0  0
    9.3336  -15.9169   29.1994 O   0  0  0  0  0  0  0  0  0  0  0  0
   10.2105  -17.9436   28.9283 O   0  0  0  0  0  0  0  0  0  0  0  0
  2  3  1  0
  2  1  1  6
  3  4  1  0
  4  8  1  0
  4  5  2  0
  6  2  1  0
  7  6  2  0
  9 10  1  0
 10 11  1  0
 11 13  1  0
 11 12  1  1
 13 14  1  6
 14  6  1  0
 15 22  1  0
 15 13  1  0
 16 15  2  0
 18 17  1  0
 19 21  1  0
 19 18  1  0
 19 20  1  1
 21 22  1  1
 23 24  1  0
 23 21  1  0
 25 23  2  0
M  END
$$$$
