DII.pdb
     RDKit          3D

 25 24  0  0  1  0  0  0  0  0999 V2000
   12.4029  -15.2071   19.4022 N   0  0  0  0  0  0  0  0  0  0  0  0
   12.4268  -16.0498   20.5711 C   0  0  1  0  0  0  0  0  0  0  0  0
   13.7924  -16.1498   21.0979 C   0  0  0  0  0  0  0  0  0  0  0  0
   14.6554  -17.0590   20.3181 C   0  0  0  0  0  0  0  0  0  0  0  0
   14.3366  -17.3464   19.1446 O   0  0  0  0  0  0  0  0  0  0  0  0
   11.3667  -15.6265   21.5016 C   0  0  0  0  0  0  0  0  0  0  0  0
   11.0827  -14.3992   21.5118 O   0  0  0  0  0  0  0  0  0  0  0  0
   15.7986  -17.5905   20.8603 O   0  0  0  0  0  0  0  0  0  0  0  0
    5.7676  -16.7750   23.1705 C   0  0  0  0  0  0  0  0  0  0  0  0
    7.0991  -16.3433   23.6895 C   0  0  0  0  0  0  0  0  0  0  0  0
    8.2573  -16.6914   22.7281 C   0  0  2  0  0  0  0  0  0  0  0  0
    8.3237  -18.2096   22.8438 C   0  0  0  0  0  0  0  0  0  0  0  0
    9.5551  -16.1175   23.2239 C   0  0  2  0  0  0  0  0  0  0  0  0
   10.6662  -16.4626   22.3538 N   0  0  0  0  0  0  0  0  0  0  0  0
    9.8567  -16.5854   24.5792 C   0  0  0  0  0  0  0  0  0  0  0  0
   10.6065  -17.6435   24.7173 O   0  0  0  0  0  0  0  0  0  0  0  0
    9.5864  -12.7220   28.1887 C   0  0  0  0  0  0  0  0  0  0  0  0
   10.2003  -13.9387   27.6334 C   0  0  0  0  0  0  0  0  0  0  0  0
    9.7450  -15.2688   28.0161 C   0  0  2  0  0  0  0  0  0  0  0  0
   10.3054  -15.7198   29.3717 C   0  0  0  0  0  0  0  0  0  0  0  0
   10.0237  -16.3971   27.0735 C   0  0  2  0  0  0  0  0  0  0  0  0
    9.4104  -15.9832   25.7467 N   0  0  0  0  0  0  0  0  0  0  0  0
    9.4469  -17.6808   27.4006 C   0  0  0  0  0  0  0  0  0  0  0  0
   10.0516  -18.7401   28.0693 O   0  0  0  0  0  0  0  0  0  0  0  0
    8.2363  -17.9475   27.0563 O   0  0  0  0  0  0  0  0  0  0  0  0
  2  3  1  0
  2  1  1  6
  3  4  1  0
  4  8  1  0
  4  5  2  0
  6  2  1  0
  7  6  2  0
  9 10  1  0
 10 11  1  0
 11 13  1  0
 11 12  1  1
 13 14  1  6
 14  6  1  0
 15 22  1  0
 15 13  1  0
 16 15  2  0
 18 17  1  0
 19 21  1  0
 19 18  1  0
 19 20  1  1
 21 22  1  6
 23 24  1  0
 23 21  1  0
 25 23  2  0
M  END
$$$$
