DII.pdb
     RDKit          3D

 25 24  0  0  1  0  0  0  0  0999 V2000
   13.1007  -16.7419   20.0450 N   0  0  0  0  0  0  0  0  0  0  0  0
   12.0918  -17.4545   20.7877 C   0  0  1  0  0  0  0  0  0  0  0  0
   12.6392  -18.7104   21.3126 C   0  0  0  0  0  0  0  0  0  0  0  0
   13.0311  -19.6647   20.2564 C   0  0  0  0  0  0  0  0  0  0  0  0
   12.2908  -20.6406   20.0100 O   0  0  0  0  0  0  0  0  0  0  0  0
   11.4499  -16.5381   21.7451 C   0  0  0  0  0  0  0  0  0  0  0  0
   12.2008  -15.7038   22.3170 O   0  0  0  0  0  0  0  0  0  0  0  0
   14.1915  -19.4960   19.5432 O   0  0  0  0  0  0  0  0  0  0  0  0
    6.5817  -14.3521   20.6989 C   0  0  0  0  0  0  0  0  0  0  0  0
    7.9622  -14.5253   21.2398 C   0  0  0  0  0  0  0  0  0  0  0  0
    7.9959  -15.3669   22.5350 C   0  0  2  0  0  0  0  0  0  0  0  0
    7.3426  -14.4291   23.5430 C   0  0  0  0  0  0  0  0  0  0  0  0
    9.4118  -15.6236   22.9696 C   0  0  2  0  0  0  0  0  0  0  0  0
   10.1020  -16.5218   22.0600 N   0  0  0  0  0  0  0  0  0  0  0  0
    9.4557  -16.1954   24.3179 C   0  0  0  0  0  0  0  0  0  0  0  0
    9.4924  -17.4934   24.4400 O   0  0  0  0  0  0  0  0  0  0  0  0
   10.8033  -12.7249   28.3304 C   0  0  0  0  0  0  0  0  0  0  0  0
   10.8430  -13.9757   27.5561 C   0  0  0  0  0  0  0  0  0  0  0  0
    9.9188  -15.0702   27.8220 C   0  0  2  0  0  0  0  0  0  0  0  0
   10.2110  -15.7836   29.1489 C   0  0  0  0  0  0  0  0  0  0  0  0
    9.8154  -16.1572   26.7987 C   0  0  2  0  0  0  0  0  0  0  0  0
    9.4690  -15.4598   25.4942 N   0  0  0  0  0  0  0  0  0  0  0  0
    8.7918  -17.1556   27.0055 C   0  0  0  0  0  0  0  0  0  0  0  0
    7.4537  -17.0931   26.6304 O   0  0  0  0  0  0  0  0  0  0  0  0
    9.0795  -18.2551   27.6084 O   0  0  0  0  0  0  0  0  0  0  0  0
  2  3  1  0
  2  1  1  1
  3  4  1  0
  4  8  1  0
  4  5  2  0
  6  2  1  0
  7  6  2  0
  9 10  1  0
 10 11  1  0
 11 13  1  0
 11 12  1  1
 13 14  1  6
 14  6  1  0
 15 22  1  0
 15 13  1  0
 16 15  2  0
 18 17  1  0
 19 21  1  0
 19 18  1  0
 19 20  1  1
 21 22  1  6
 23 24  1  0
 23 21  1  0
 25 23  2  0
M  END
$$$$
