DII.pdb
     RDKit          3D

 25 24  0  0  1  0  0  0  0  0999 V2000
   12.7605  -16.6449   19.6761 N   0  0  0  0  0  0  0  0  0  0  0  0
   12.0533  -17.4009   20.6791 C   0  0  1  0  0  0  0  0  0  0  0  0
   12.9324  -18.4218   21.2599 C   0  0  0  0  0  0  0  0  0  0  0  0
   13.0472  -19.6366   20.4290 C   0  0  0  0  0  0  0  0  0  0  0  0
   12.5443  -19.6438   19.2852 O   0  0  0  0  0  0  0  0  0  0  0  0
   11.3792  -16.4752   21.6050 C   0  0  0  0  0  0  0  0  0  0  0  0
   11.9519  -15.3733   21.8169 O   0  0  0  0  0  0  0  0  0  0  0  0
   13.6965  -20.7537   20.8918 O   0  0  0  0  0  0  0  0  0  0  0  0
    6.3735  -14.9161   21.0646 C   0  0  0  0  0  0  0  0  0  0  0  0
    7.8023  -14.9645   21.4942 C   0  0  0  0  0  0  0  0  0  0  0  0
    8.0045  -15.7442   22.8126 C   0  0  2  0  0  0  0  0  0  0  0  0
    7.3234  -14.8357   23.8291 C   0  0  0  0  0  0  0  0  0  0  0  0
    9.4640  -15.8393   23.1596 C   0  0  2  0  0  0  0  0  0  0  0  0
   10.1794  -16.7186   22.2510 N   0  0  0  0  0  0  0  0  0  0  0  0
    9.6513  -16.3256   24.5290 C   0  0  0  0  0  0  0  0  0  0  0  0
    9.8525  -17.6011   24.7119 O   0  0  0  0  0  0  0  0  0  0  0  0
   10.3886  -12.5389   28.4349 C   0  0  0  0  0  0  0  0  0  0  0  0
   10.6341  -13.7716   27.6694 C   0  0  0  0  0  0  0  0  0  0  0  0
    9.9563  -15.0204   27.9916 C   0  0  2  0  0  0  0  0  0  0  0  0
   10.4236  -15.6217   29.3240 C   0  0  0  0  0  0  0  0  0  0  0  0
   10.0439  -16.1357   26.9978 C   0  0  2  0  0  0  0  0  0  0  0  0
    9.6397  -15.5291   25.6649 N   0  0  0  0  0  0  0  0  0  0  0  0
    9.1709  -17.2680   27.2060 C   0  0  0  0  0  0  0  0  0  0  0  0
    7.8230  -17.3749   26.8794 O   0  0  0  0  0  0  0  0  0  0  0  0
    9.6254  -18.3359   27.7613 O   0  0  0  0  0  0  0  0  0  0  0  0
  2  3  1  0
  2  1  1  6
  3  4  1  0
  4  8  1  0
  4  5  2  0
  6  2  1  0
  7  6  2  0
  9 10  1  0
 10 11  1  0
 11 13  1  0
 11 12  1  1
 13 14  1  6
 14  6  1  0
 15 22  1  0
 15 13  1  0
 16 15  2  0
 18 17  1  0
 19 21  1  0
 19 18  1  0
 19 20  1  1
 21 22  1  6
 23 24  1  0
 23 21  1  0
 25 23  2  0
M  END
$$$$
