DII.pdb
     RDKit          3D

 25 24  0  0  1  0  0  0  0  0999 V2000
    9.1105  -15.5628   20.3609 N   0  0  0  0  0  0  0  0  0  0  0  0
    8.7525  -16.3023   21.5452 C   0  0  1  0  0  0  0  0  0  0  0  0
    9.2489  -17.6798   21.4537 C   0  0  0  0  0  0  0  0  0  0  0  0
    8.7340  -18.4106   20.2788 C   0  0  0  0  0  0  0  0  0  0  0  0
    7.6513  -18.0561   19.7656 O   0  0  0  0  0  0  0  0  0  0  0  0
    9.1212  -15.5229   22.7390 C   0  0  0  0  0  0  0  0  0  0  0  0
   10.3374  -15.2165   22.8588 O   0  0  0  0  0  0  0  0  0  0  0  0
    9.4245  -19.4688   19.7432 O   0  0  0  0  0  0  0  0  0  0  0  0
    6.8111  -11.5147   26.8603 C   0  0  0  0  0  0  0  0  0  0  0  0
    7.8468  -12.5301   26.5074 C   0  0  0  0  0  0  0  0  0  0  0  0
    7.4806  -13.3448   25.2468 C   0  0  2  0  0  0  0  0  0  0  0  0
    6.2366  -14.0979   25.7028 C   0  0  0  0  0  0  0  0  0  0  0  0
    8.5546  -14.3465   24.9263 C   0  0  2  0  0  0  0  0  0  0  0  0
    8.2457  -15.1050   23.7264 N   0  0  0  0  0  0  0  0  0  0  0  0
    8.7526  -15.2826   26.0359 C   0  0  0  0  0  0  0  0  0  0  0  0
    7.8858  -16.2432   26.1989 O   0  0  0  0  0  0  0  0  0  0  0  0
   13.5873  -18.4348   26.8877 C   0  0  0  0  0  0  0  0  0  0  0  0
   12.2915  -18.0272   27.4538 C   0  0  0  0  0  0  0  0  0  0  0  0
   11.5514  -16.8874   26.9287 C   0  0  2  0  0  0  0  0  0  0  0  0
   12.3842  -15.5985   26.9083 C   0  0  0  0  0  0  0  0  0  0  0  0
   10.2667  -16.5219   27.6034 C   0  0  2  0  0  0  0  0  0  0  0  0
    9.8060  -15.2363   26.9378 N   0  0  0  0  0  0  0  0  0  0  0  0
   10.3276  -16.2424   29.0197 C   0  0  0  0  0  0  0  0  0  0  0  0
   10.4301  -17.1557   30.0638 O   0  0  0  0  0  0  0  0  0  0  0  0
   10.2789  -15.0264   29.4370 O   0  0  0  0  0  0  0  0  0  0  0  0
  2  3  1  0
  2  1  1  6
  3  4  1  0
  4  8  1  0
  4  5  2  0
  6  2  1  0
  7  6  2  0
  9 10  1  0
 10 11  1  0
 11 13  1  0
 11 12  1  1
 13 14  1  6
 14  6  1  0
 15 22  1  0
 15 13  1  0
 16 15  2  0
 18 17  1  0
 19 21  1  0
 19 18  1  0
 19 20  1  1
 21 22  1  6
 23 24  1  0
 23 21  1  0
 25 23  2  0
M  END
$$$$
