LST.pdb
     RDKit          3D

 22 21  0  0  1  0  0  0  0  0999 V2000
   28.3983  -17.3345  -15.8275 C   0  0  0  0  0  0  0  0  0  0  0  0
   28.2753  -18.7702  -16.2932 C   0  0  2  0  0  0  0  0  0  0  0  0
   28.2140  -18.8380  -17.7987 C   0  0  0  0  0  0  0  0  0  0  0  0
   27.1094  -19.4207  -15.6031 C   0  0  0  0  0  0  0  0  0  0  0  0
   27.4604  -20.5932  -14.7619 C   0  0  2  0  0  0  0  0  0  0  0  0
   28.0264  -21.7200  -15.4875 N   0  0  0  0  0  0  0  0  0  0  0  0
   26.2212  -21.0388  -14.0197 C   0  0  0  0  0  0  0  0  0  0  0  0
   25.2534  -21.5969  -14.5685 O   0  0  0  0  0  0  0  0  0  0  0  0
   26.2438  -21.5968   -9.8039 O   0  0  0  0  0  0  0  0  0  0  0  0
   25.2030  -20.8684  -10.3394 C   0  0  0  0  0  0  0  0  0  0  0  0
   24.9656  -21.0515  -11.7983 C   0  0  2  0  0  0  0  0  0  0  0  0
   26.1379  -20.8126  -12.5986 N   0  0  0  0  0  0  0  0  0  0  0  0
   23.7453  -20.4001  -12.3343 C   0  0  0  0  0  0  0  0  0  0  0  0
   23.7204  -19.1511  -12.5031 O   0  0  0  0  0  0  0  0  0  0  0  0
   22.1224  -19.9171  -15.4538 C   0  0  0  0  0  0  0  0  0  0  0  0
   21.0675  -20.5428  -14.5666 C   0  0  1  0  0  0  0  0  0  0  0  0
   20.9685  -21.8919  -14.9879 O   0  0  0  0  0  0  0  0  0  0  0  0
   21.3511  -20.4403  -13.1175 C   0  0  2  0  0  0  0  0  0  0  0  0
   22.5652  -21.1107  -12.6805 N   0  0  0  0  0  0  0  0  0  0  0  0
   20.1637  -20.9301  -12.3503 C   0  0  0  0  0  0  0  0  0  0  0  0
   20.3408  -21.8975  -11.5551 O   0  0  0  0  0  0  0  0  0  0  0  0
   18.9219  -20.3916  -12.4650 O   0  0  0  0  0  0  0  0  0  0  0  0
  2  1  1  6
  2  3  1  0
  4  2  1  0
  4  5  1  0
  5  6  1  6
  7  8  2  0
  7  5  1  0
  9 10  1  0
 11 10  1  1
 11 12  1  0
 11 13  1  0
 12  7  1  0
 13 19  1  0
 14 13  2  0
 16 17  1  0
 16 15  1  6
 18 16  1  0
 18 19  1  6
 20 18  1  0
 20 22  1  0
 21 20  2  0
M  END
$$$$
