LST.pdb
     RDKit          3D

 22 21  0  0  1  0  0  0  0  0999 V2000
   20.5986  -10.6394  -19.8007 C   0  0  0  0  0  0  0  0  0  0  0  0
   19.1417  -10.2730  -19.6094 C   0  0  2  0  0  0  0  0  0  0  0  0
   18.5708   -9.6829  -20.8746 C   0  0  0  0  0  0  0  0  0  0  0  0
   19.0040   -9.3865  -18.4038 C   0  0  0  0  0  0  0  0  0  0  0  0
   19.5525   -9.9568  -17.1470 C   0  0  2  0  0  0  0  0  0  0  0  0
   18.8302  -11.1096  -16.6313 N   0  0  0  0  0  0  0  0  0  0  0  0
   19.5831   -8.8673  -16.0996 C   0  0  0  0  0  0  0  0  0  0  0  0
   18.5619   -8.3952  -15.5672 O   0  0  0  0  0  0  0  0  0  0  0  0
   22.2424   -6.7232  -12.6637 O   0  0  0  0  0  0  0  0  0  0  0  0
   21.9867   -7.6907  -13.6119 C   0  0  0  0  0  0  0  0  0  0  0  0
   21.0275   -7.3096  -14.6858 C   0  0  2  0  0  0  0  0  0  0  0  0
   20.8555   -8.3334  -15.6828 N   0  0  0  0  0  0  0  0  0  0  0  0
   21.2163   -5.9552  -15.2606 C   0  0  0  0  0  0  0  0  0  0  0  0
   21.9198   -5.8025  -16.2955 O   0  0  0  0  0  0  0  0  0  0  0  0
   18.9108   -3.4071  -16.8846 C   0  0  0  0  0  0  0  0  0  0  0  0
   19.6159   -2.7646  -15.7094 C   0  0  1  0  0  0  0  0  0  0  0  0
   18.6544   -2.7158  -14.6700 O   0  0  0  0  0  0  0  0  0  0  0  0
   20.8494   -3.4628  -15.2830 C   0  0  2  0  0  0  0  0  0  0  0  0
   20.6406   -4.7811  -14.7061 N   0  0  0  0  0  0  0  0  0  0  0  0
   21.6107   -2.5820  -14.3431 C   0  0  0  0  0  0  0  0  0  0  0  0
   22.0212   -1.4712  -14.7871 O   0  0  0  0  0  0  0  0  0  0  0  0
   21.8772   -2.9140  -13.0532 O   0  0  0  0  0  0  0  0  0  0  0  0
  2  1  1  6
  2  3  1  0
  4  2  1  0
  4  5  1  0
  5  6  1  1
  7  8  2  0
  7  5  1  0
  9 10  1  0
 11 10  1  6
 11 12  1  0
 11 13  1  0
 12  7  1  0
 13 19  1  0
 14 13  2  0
 16 17  1  0
 16 15  1  6
 18 16  1  0
 18 19  1  1
 20 18  1  0
 20 22  1  0
 21 20  2  0
M  END
$$$$
