LST.pdb
     RDKit          3D

 22 21  0  0  1  0  0  0  0  0999 V2000
   18.1510  -14.1414  -18.9863 C   0  0  0  0  0  0  0  0  0  0  0  0
   18.4467  -14.5012  -17.5452 C   0  0  2  0  0  0  0  0  0  0  0  0
   17.4549  -15.5169  -17.0360 C   0  0  0  0  0  0  0  0  0  0  0  0
   18.5155  -13.2462  -16.7214 C   0  0  0  0  0  0  0  0  0  0  0  0
   19.5177  -12.2528  -17.1846 C   0  0  2  0  0  0  0  0  0  0  0  0
   20.8982  -12.7098  -17.1411 N   0  0  0  0  0  0  0  0  0  0  0  0
   19.3716  -11.0002  -16.3512 C   0  0  0  0  0  0  0  0  0  0  0  0
   18.2828  -10.4330  -16.1459 O   0  0  0  0  0  0  0  0  0  0  0  0
   22.9637   -9.1029  -14.6707 O   0  0  0  0  0  0  0  0  0  0  0  0
   21.7267   -9.1030  -14.0620 C   0  0  0  0  0  0  0  0  0  0  0  0
   20.5542   -9.2063  -14.9747 C   0  0  2  0  0  0  0  0  0  0  0  0
   20.5465  -10.4164  -15.7541 N   0  0  0  0  0  0  0  0  0  0  0  0
   20.2557   -7.9917  -15.7722 C   0  0  0  0  0  0  0  0  0  0  0  0
   20.8744   -7.7775  -16.8495 O   0  0  0  0  0  0  0  0  0  0  0  0
   17.4655   -6.8888  -17.8993 C   0  0  0  0  0  0  0  0  0  0  0  0
   17.6621   -5.8362  -16.8295 C   0  0  1  0  0  0  0  0  0  0  0  0
   16.6352   -6.0630  -15.8801 O   0  0  0  0  0  0  0  0  0  0  0  0
   19.0022   -5.8487  -16.2012 C   0  0  2  0  0  0  0  0  0  0  0  0
   19.2900   -7.0221  -15.3919 N   0  0  0  0  0  0  0  0  0  0  0  0
   19.1826   -4.5937  -15.4070 C   0  0  0  0  0  0  0  0  0  0  0  0
   19.1614   -3.4966  -16.0359 O   0  0  0  0  0  0  0  0  0  0  0  0
   19.3645   -4.5770  -14.0610 O   0  0  0  0  0  0  0  0  0  0  0  0
  2  1  1  6
  2  3  1  0
  4  2  1  0
  4  5  1  0
  5  6  1  1
  7  8  2  0
  7  5  1  0
  9 10  1  0
 11 10  1  6
 11 12  1  0
 11 13  1  0
 12  7  1  0
 13 19  1  0
 14 13  2  0
 16 17  1  0
 16 15  1  6
 18 16  1  0
 18 19  1  1
 20 18  1  0
 20 22  1  0
 21 20  2  0
M  END
$$$$
