LST.pdb
     RDKit          3D

 22 21  0  0  1  0  0  0  0  0999 V2000
   15.8643  -11.7631  -15.5887 C   0  0  0  0  0  0  0  0  0  0  0  0
   17.3582  -11.9987  -15.6682 C   0  0  2  0  0  0  0  0  0  0  0  0
   17.8332  -12.8064  -14.4864 C   0  0  0  0  0  0  0  0  0  0  0  0
   18.0630  -10.6817  -15.8328 C   0  0  0  0  0  0  0  0  0  0  0  0
   17.7660   -9.9722  -17.1033 C   0  0  2  0  0  0  0  0  0  0  0  0
   18.2327  -10.6468  -18.3049 N   0  0  0  0  0  0  0  0  0  0  0  0
   18.3694   -8.5881  -17.0318 C   0  0  0  0  0  0  0  0  0  0  0  0
   19.5747   -8.3513  -17.2335 O   0  0  0  0  0  0  0  0  0  0  0  0
   17.2392   -3.7910  -16.8748 O   0  0  0  0  0  0  0  0  0  0  0  0
   16.8843   -5.1204  -16.9609 C   0  0  0  0  0  0  0  0  0  0  0  0
   17.9574   -6.1010  -16.6368 C   0  0  2  0  0  0  0  0  0  0  0  0
   17.5179   -7.4695  -16.7135 N   0  0  0  0  0  0  0  0  0  0  0  0
   18.7470   -5.8048  -15.4164 C   0  0  0  0  0  0  0  0  0  0  0  0
   18.3132   -6.1537  -14.2853 O   0  0  0  0  0  0  0  0  0  0  0  0
   22.8893   -5.8909  -15.1830 C   0  0  0  0  0  0  0  0  0  0  0  0
   21.9077   -5.8424  -14.0318 C   0  0  1  0  0  0  0  0  0  0  0  0
   22.6765   -5.5032  -12.8911 O   0  0  0  0  0  0  0  0  0  0  0  0
   20.7801   -4.9047  -14.2316 C   0  0  2  0  0  0  0  0  0  0  0  0
   19.9980   -5.1326  -15.4362 N   0  0  0  0  0  0  0  0  0  0  0  0
   21.2964   -3.5011  -14.1866 C   0  0  0  0  0  0  0  0  0  0  0  0
   21.0786   -2.7662  -15.1926 O   0  0  0  0  0  0  0  0  0  0  0  0
   21.9777   -2.9858  -13.1305 O   0  0  0  0  0  0  0  0  0  0  0  0
  2  1  1  1
  2  3  1  0
  4  2  1  0
  4  5  1  0
  5  6  1  6
  7  8  2  0
  7  5  1  0
  9 10  1  0
 11 10  1  1
 11 12  1  0
 11 13  1  0
 12  7  1  0
 13 19  1  0
 14 13  2  0
 16 17  1  0
 16 15  1  6
 18 16  1  0
 18 19  1  6
 20 18  1  0
 20 22  1  0
 21 20  2  0
M  END
$$$$
