LST.pdb
     RDKit          3D

 22 21  0  0  1  0  0  0  0  0999 V2000
   17.7564   -9.8928  -20.6399 C   0  0  0  0  0  0  0  0  0  0  0  0
   18.3710  -10.9430  -19.7383 C   0  0  2  0  0  0  0  0  0  0  0  0
   17.5745  -12.2226  -19.7918 C   0  0  0  0  0  0  0  0  0  0  0  0
   18.5329  -10.3799  -18.3544 C   0  0  0  0  0  0  0  0  0  0  0  0
   19.1868  -11.2943  -17.3839 C   0  0  2  0  0  0  0  0  0  0  0  0
   18.3179  -12.3205  -16.8284 N   0  0  0  0  0  0  0  0  0  0  0  0
   19.7728  -10.4652  -16.2641 C   0  0  0  0  0  0  0  0  0  0  0  0
   19.1482  -10.1651  -15.2300 O   0  0  0  0  0  0  0  0  0  0  0  0
   23.9141   -9.2599  -14.0744 O   0  0  0  0  0  0  0  0  0  0  0  0
   23.1340   -9.9392  -14.9858 C   0  0  0  0  0  0  0  0  0  0  0  0
   21.8437   -9.2891  -15.3478 C   0  0  2  0  0  0  0  0  0  0  0  0
   21.1273   -9.9867  -16.3831 N   0  0  0  0  0  0  0  0  0  0  0  0
   21.9046   -7.8223  -15.5611 C   0  0  0  0  0  0  0  0  0  0  0  0
   22.2784   -7.3625  -16.6739 O   0  0  0  0  0  0  0  0  0  0  0  0
   19.5867   -5.0631  -16.0565 C   0  0  0  0  0  0  0  0  0  0  0  0
   20.4458   -4.6821  -14.8700 C   0  0  1  0  0  0  0  0  0  0  0  0
   19.6264   -4.8748  -13.7304 O   0  0  0  0  0  0  0  0  0  0  0  0
   21.7139   -5.4387  -14.7678 C   0  0  2  0  0  0  0  0  0  0  0  0
   21.5601   -6.8703  -14.5649 N   0  0  0  0  0  0  0  0  0  0  0  0
   22.5599   -4.8337  -13.6923 C   0  0  0  0  0  0  0  0  0  0  0  0
   22.9108   -5.5821  -12.7350 O   0  0  0  0  0  0  0  0  0  0  0  0
   22.9641   -3.5369  -13.6958 O   0  0  0  0  0  0  0  0  0  0  0  0
  2  1  1  6
  2  3  1  0
  4  2  1  0
  4  5  1  0
  5  6  1  1
  7  8  2  0
  7  5  1  0
  9 10  1  0
 11 10  1  6
 11 12  1  0
 11 13  1  0
 12  7  1  0
 13 19  1  0
 14 13  2  0
 16 17  1  0
 16 15  1  6
 18 16  1  0
 18 19  1  1
 20 18  1  0
 20 22  1  0
 21 20  2  0
M  END
$$$$
