LST.pdb
     RDKit          3D

 22 21  0  0  1  0  0  0  0  0999 V2000
   17.9967  -13.4128  -18.6643 C   0  0  0  0  0  0  0  0  0  0  0  0
   16.7768  -12.9201  -17.9144 C   0  0  2  0  0  0  0  0  0  0  0  0
   15.5498  -12.9914  -18.7887 C   0  0  0  0  0  0  0  0  0  0  0  0
   17.0525  -11.5520  -17.3568 C   0  0  0  0  0  0  0  0  0  0  0  0
   18.2381  -11.4714  -16.4659 C   0  0  2  0  0  0  0  0  0  0  0  0
   18.1927  -12.3475  -15.3054 N   0  0  0  0  0  0  0  0  0  0  0  0
   18.4010  -10.0383  -16.0135 C   0  0  0  0  0  0  0  0  0  0  0  0
   18.4443   -9.0703  -16.7949 O   0  0  0  0  0  0  0  0  0  0  0  0
   18.0818   -9.0612  -11.7333 O   0  0  0  0  0  0  0  0  0  0  0  0
   17.7177   -8.2910  -12.8172 C   0  0  0  0  0  0  0  0  0  0  0  0
   18.5661   -8.4384  -14.0324 C   0  0  2  0  0  0  0  0  0  0  0  0
   18.5145   -9.7584  -14.6041 N   0  0  0  0  0  0  0  0  0  0  0  0
   19.9438   -7.9003  -13.9196 C   0  0  0  0  0  0  0  0  0  0  0  0
   20.8610   -8.6141  -13.4312 O   0  0  0  0  0  0  0  0  0  0  0  0
   22.6067   -7.2127  -16.3093 C   0  0  0  0  0  0  0  0  0  0  0  0
   22.3598   -5.9246  -15.5535 C   0  0  1  0  0  0  0  0  0  0  0  0
   21.6077   -5.1067  -16.4325 O   0  0  0  0  0  0  0  0  0  0  0  0
   21.6778   -6.1030  -14.2520 C   0  0  2  0  0  0  0  0  0  0  0  0
   20.3115   -6.5933  -14.3368 N   0  0  0  0  0  0  0  0  0  0  0  0
   21.7388   -4.8186  -13.4871 C   0  0  0  0  0  0  0  0  0  0  0  0
   20.6453   -4.2319  -13.2429 O   0  0  0  0  0  0  0  0  0  0  0  0
   22.8969   -4.2611  -13.0478 O   0  0  0  0  0  0  0  0  0  0  0  0
  2  1  1  6
  2  3  1  0
  4  2  1  0
  4  5  1  0
  5  6  1  1
  7  8  2  0
  7  5  1  0
  9 10  1  0
 11 10  1  1
 11 12  1  0
 11 13  1  0
 12  7  1  0
 13 19  1  0
 14 13  2  0
 16 17  1  0
 16 15  1  6
 18 16  1  0
 18 19  1  6
 20 18  1  0
 20 22  1  0
 21 20  2  0
M  END
$$$$
