LST.pdb
     RDKit          3D

 22 21  0  0  1  0  0  0  0  0999 V2000
   16.9541  -13.0309  -14.6041 C   0  0  0  0  0  0  0  0  0  0  0  0
   17.6758  -12.9120  -15.9302 C   0  0  2  0  0  0  0  0  0  0  0  0
   18.8979  -13.7957  -15.9522 C   0  0  0  0  0  0  0  0  0  0  0  0
   17.9619  -11.4644  -16.2148 C   0  0  0  0  0  0  0  0  0  0  0  0
   16.7637  -10.5872  -16.2392 C   0  0  2  0  0  0  0  0  0  0  0  0
   15.7962  -10.9009  -17.2794 N   0  0  0  0  0  0  0  0  0  0  0  0
   17.2216   -9.1543  -16.3879 C   0  0  0  0  0  0  0  0  0  0  0  0
   17.5861   -8.6567  -17.4691 O   0  0  0  0  0  0  0  0  0  0  0  0
   15.8047   -6.0429  -13.9401 O   0  0  0  0  0  0  0  0  0  0  0  0
   16.5397   -5.9644  -15.1038 C   0  0  0  0  0  0  0  0  0  0  0  0
   17.6692   -6.9278  -15.2244 C   0  0  2  0  0  0  0  0  0  0  0  0
   17.2447   -8.3032  -15.2248 N   0  0  0  0  0  0  0  0  0  0  0  0
   18.8270   -6.6704  -14.3334 C   0  0  0  0  0  0  0  0  0  0  0  0
   18.8124   -7.0893  -13.1445 O   0  0  0  0  0  0  0  0  0  0  0  0
   22.2337   -8.0259  -14.1870 C   0  0  0  0  0  0  0  0  0  0  0  0
   22.3545   -6.5202  -14.2856 C   0  0  1  0  0  0  0  0  0  0  0  0
   22.6959   -6.2542  -15.6346 O   0  0  0  0  0  0  0  0  0  0  0  0
   21.1394   -5.7831  -13.8719 C   0  0  2  0  0  0  0  0  0  0  0  0
   19.9876   -5.9606  -14.7416 N   0  0  0  0  0  0  0  0  0  0  0  0
   21.4749   -4.3333  -13.7176 C   0  0  0  0  0  0  0  0  0  0  0  0
   20.8996   -3.5152  -14.4917 O   0  0  0  0  0  0  0  0  0  0  0  0
   22.3552   -3.8606  -12.7974 O   0  0  0  0  0  0  0  0  0  0  0  0
  2  1  1  1
  2  3  1  0
  4  2  1  0
  4  5  1  0
  5  6  1  6
  7  8  2  0
  7  5  1  0
  9 10  1  0
 11 10  1  1
 11 12  1  0
 11 13  1  0
 12  7  1  0
 13 19  1  0
 14 13  2  0
 16 17  1  0
 16 15  1  6
 18 16  1  0
 18 19  1  6
 20 18  1  0
 20 22  1  0
 21 20  2  0
M  END
$$$$
