LST.pdb
     RDKit          3D

 22 21  0  0  1  0  0  0  0  0999 V2000
   17.2662  -10.8822  -18.1653 C   0  0  0  0  0  0  0  0  0  0  0  0
   16.5473  -10.8682  -16.8325 C   0  0  2  0  0  0  0  0  0  0  0  0
   15.0699  -10.6354  -17.0271 C   0  0  0  0  0  0  0  0  0  0  0  0
   17.2085   -9.8748  -15.9190 C   0  0  0  0  0  0  0  0  0  0  0  0
   18.6471  -10.1341  -15.6559 C   0  0  2  0  0  0  0  0  0  0  0  0
   18.9239  -11.3566  -14.9175 N   0  0  0  0  0  0  0  0  0  0  0  0
   19.2187   -8.9503  -14.9097 C   0  0  0  0  0  0  0  0  0  0  0  0
   19.1773   -8.8318  -13.6713 O   0  0  0  0  0  0  0  0  0  0  0  0
   22.3403   -5.6905  -14.0486 O   0  0  0  0  0  0  0  0  0  0  0  0
   21.7604   -6.8339  -14.5557 C   0  0  0  0  0  0  0  0  0  0  0  0
   20.3744   -6.6815  -15.0791 C   0  0  2  0  0  0  0  0  0  0  0  0
   19.8494   -7.8910  -15.6566 N   0  0  0  0  0  0  0  0  0  0  0  0
   20.1349   -5.4793  -15.9145 C   0  0  0  0  0  0  0  0  0  0  0  0
   20.4720   -5.4789  -17.1292 O   0  0  0  0  0  0  0  0  0  0  0  0
   17.0691   -3.8672  -17.2479 C   0  0  0  0  0  0  0  0  0  0  0  0
   17.8385   -2.8220  -16.4690 C   0  0  1  0  0  0  0  0  0  0  0  0
   17.1562   -2.6898  -15.2344 O   0  0  0  0  0  0  0  0  0  0  0  0
   19.2707   -3.1400  -16.2728 C   0  0  2  0  0  0  0  0  0  0  0  0
   19.5333   -4.2903  -15.4228 N   0  0  0  0  0  0  0  0  0  0  0  0
   19.9767   -1.9243  -15.7609 C   0  0  0  0  0  0  0  0  0  0  0  0
   20.5544   -2.0133  -14.6394 O   0  0  0  0  0  0  0  0  0  0  0  0
   20.0267   -0.7461  -16.4350 O   0  0  0  0  0  0  0  0  0  0  0  0
  2  1  1  6
  2  3  1  0
  4  2  1  0
  4  5  1  0
  5  6  1  1
  7  8  2  0
  7  5  1  0
  9 10  1  0
 11 10  1  6
 11 12  1  0
 11 13  1  0
 12  7  1  0
 13 19  1  0
 14 13  2  0
 16 17  1  0
 16 15  1  6
 18 16  1  0
 18 19  1  1
 20 18  1  0
 20 22  1  0
 21 20  2  0
M  END
$$$$
