LST.pdb
     RDKit          3D

 22 21  0  0  1  0  0  0  0  0999 V2000
   17.2045  -11.1132  -19.4952 C   0  0  0  0  0  0  0  0  0  0  0  0
   16.2513  -10.5103  -18.4845 C   0  0  2  0  0  0  0  0  0  0  0  0
   15.3514   -9.4941  -19.1420 C   0  0  0  0  0  0  0  0  0  0  0  0
   17.0336   -9.9724  -17.3196 C   0  0  0  0  0  0  0  0  0  0  0  0
   17.8620  -10.9798  -16.6090 C   0  0  2  0  0  0  0  0  0  0  0  0
   17.1082  -12.0022  -15.8999 N   0  0  0  0  0  0  0  0  0  0  0  0
   18.7706  -10.2566  -15.6413 C   0  0  0  0  0  0  0  0  0  0  0  0
   18.3816   -9.7725  -14.5625 O   0  0  0  0  0  0  0  0  0  0  0  0
   23.4132   -9.3909  -14.3650 O   0  0  0  0  0  0  0  0  0  0  0  0
   22.4357  -10.0727  -15.0581 C   0  0  0  0  0  0  0  0  0  0  0  0
   21.1220   -9.3811  -15.1767 C   0  0  2  0  0  0  0  0  0  0  0  0
   20.1664  -10.1096  -15.9692 N   0  0  0  0  0  0  0  0  0  0  0  0
   21.1872   -7.9381  -15.5143 C   0  0  0  0  0  0  0  0  0  0  0  0
   21.3260   -7.5775  -16.7142 O   0  0  0  0  0  0  0  0  0  0  0  0
   19.0273   -5.1986  -16.0104 C   0  0  0  0  0  0  0  0  0  0  0  0
   19.9995   -4.7242  -14.9516 C   0  0  1  0  0  0  0  0  0  0  0  0
   19.2874   -4.7836  -13.7282 O   0  0  0  0  0  0  0  0  0  0  0  0
   21.2597   -5.4981  -14.8909 C   0  0  2  0  0  0  0  0  0  0  0  0
   21.1020   -6.9020  -14.5464 N   0  0  0  0  0  0  0  0  0  0  0  0
   22.2062   -4.8198  -13.9515 C   0  0  0  0  0  0  0  0  0  0  0  0
   22.6195   -3.6677  -14.2699 O   0  0  0  0  0  0  0  0  0  0  0  0
   22.6357   -5.3747  -12.7884 O   0  0  0  0  0  0  0  0  0  0  0  0
  2  1  1  6
  2  3  1  0
  4  2  1  0
  4  5  1  0
  5  6  1  1
  7  8  2  0
  7  5  1  0
  9 10  1  0
 11 10  1  6
 11 12  1  0
 11 13  1  0
 12  7  1  0
 13 19  1  0
 14 13  2  0
 16 17  1  0
 16 15  1  6
 18 16  1  0
 18 19  1  1
 20 18  1  0
 20 22  1  0
 21 20  2  0
M  END
$$$$
