LST.pdb
     RDKit          3D

 22 21  0  0  1  0  0  0  0  0999 V2000
   29.8657  -24.7698  -23.0059 C   0  0  0  0  0  0  0  0  0  0  0  0
   30.8018  -24.0251  -22.0771 C   0  0  2  0  0  0  0  0  0  0  0  0
   32.2298  -24.1540  -22.5451 C   0  0  0  0  0  0  0  0  0  0  0  0
   30.5761  -24.4874  -20.6651 C   0  0  0  0  0  0  0  0  0  0  0  0
   29.1577  -24.4710  -20.2250 C   0  0  2  0  0  0  0  0  0  0  0  0
   28.6288  -23.1523  -19.9122 N   0  0  0  0  0  0  0  0  0  0  0  0
   29.0197  -25.3719  -19.0191 C   0  0  0  0  0  0  0  0  0  0  0  0
   29.9087  -26.1567  -18.6406 O   0  0  0  0  0  0  0  0  0  0  0  0
   26.7357  -24.3823  -15.6986 O   0  0  0  0  0  0  0  0  0  0  0  0
   26.4688  -25.6291  -16.2228 C   0  0  0  0  0  0  0  0  0  0  0  0
   27.5084  -26.1874  -17.1315 C   0  0  2  0  0  0  0  0  0  0  0  0
   27.7986  -25.3342  -18.2540 N   0  0  0  0  0  0  0  0  0  0  0  0
   27.3321  -27.6118  -17.5062 C   0  0  0  0  0  0  0  0  0  0  0  0
   26.7906  -27.9121  -18.6043 O   0  0  0  0  0  0  0  0  0  0  0  0
   28.2092  -32.4950  -16.7479 C   0  0  0  0  0  0  0  0  0  0  0  0
   28.3645  -31.0587  -16.2960 C   0  0  1  0  0  0  0  0  0  0  0  0
   29.7537  -30.7881  -16.3614 O   0  0  0  0  0  0  0  0  0  0  0  0
   27.5781  -30.0834  -17.0842 C   0  0  2  0  0  0  0  0  0  0  0  0
   27.7443  -28.6951  -16.6851 N   0  0  0  0  0  0  0  0  0  0  0  0
   26.1357  -30.4796  -17.0549 C   0  0  0  0  0  0  0  0  0  0  0  0
   25.3982  -29.9352  -16.1835 O   0  0  0  0  0  0  0  0  0  0  0  0
   25.5881  -31.3829  -17.9089 O   0  0  0  0  0  0  0  0  0  0  0  0
  2  1  1  6
  2  3  1  0
  4  2  1  0
  4  5  1  0
  5  6  1  1
  7  8  2  0
  7  5  1  0
  9 10  1  0
 11 10  1  6
 11 12  1  0
 11 13  1  0
 12  7  1  0
 13 19  1  0
 14 13  2  0
 16 17  1  0
 16 15  1  6
 18 16  1  0
 18 19  1  1
 20 18  1  0
 20 22  1  0
 21 20  2  0
M  END
$$$$
