LST.pdb
     RDKit          3D

 22 21  0  0  1  0  0  0  0  0999 V2000
   11.9518   -9.1011   -8.7124 C   0  0  0  0  0  0  0  0  0  0  0  0
   12.5834   -8.1315   -7.7354 C   0  0  2  0  0  0  0  0  0  0  0  0
   11.5228   -7.3874   -6.9633 C   0  0  0  0  0  0  0  0  0  0  0  0
   13.5458   -7.2401   -8.4686 C   0  0  0  0  0  0  0  0  0  0  0  0
   14.5397   -7.9561   -9.3084 C   0  0  2  0  0  0  0  0  0  0  0  0
   15.5747   -8.6597   -8.5666 N   0  0  0  0  0  0  0  0  0  0  0  0
   15.1782   -6.9602  -10.2494 C   0  0  0  0  0  0  0  0  0  0  0  0
   14.5301   -6.1544  -10.9422 O   0  0  0  0  0  0  0  0  0  0  0  0
   17.8257   -3.4426  -10.5023 O   0  0  0  0  0  0  0  0  0  0  0  0
   17.0924   -4.5428  -10.1118 C   0  0  0  0  0  0  0  0  0  0  0  0
   17.3728   -5.8053  -10.8506 C   0  0  2  0  0  0  0  0  0  0  0  0
   16.6147   -6.9280  -10.3641 N   0  0  0  0  0  0  0  0  0  0  0  0
   18.8074   -6.1143  -11.0671 C   0  0  0  0  0  0  0  0  0  0  0  0
   19.5142   -6.5288  -10.1089 O   0  0  0  0  0  0  0  0  0  0  0  0
   20.7826   -8.7384  -12.7325 C   0  0  0  0  0  0  0  0  0  0  0  0
   21.1938   -7.4129  -13.3368 C   0  0  1  0  0  0  0  0  0  0  0  0
   20.5425   -7.3500  -14.5934 O   0  0  0  0  0  0  0  0  0  0  0  0
   20.8786   -6.2360  -12.4963 C   0  0  2  0  0  0  0  0  0  0  0  0
   19.4600   -5.9694  -12.3203 N   0  0  0  0  0  0  0  0  0  0  0  0
   21.5838   -5.0373  -13.0479 C   0  0  0  0  0  0  0  0  0  0  0  0
   20.8701   -4.1030  -13.5139 O   0  0  0  0  0  0  0  0  0  0  0  0
   22.9357   -4.9064  -13.0705 O   0  0  0  0  0  0  0  0  0  0  0  0
  2  1  1  6
  2  3  1  0
  4  2  1  0
  4  5  1  0
  5  6  1  1
  7  8  2  0
  7  5  1  0
  9 10  1  0
 11 10  1  1
 11 12  1  0
 11 13  1  0
 12  7  1  0
 13 19  1  0
 14 13  2  0
 16 17  1  0
 16 15  1  1
 18 16  1  0
 18 19  1  6
 20 18  1  0
 20 22  1  0
 21 20  2  0
M  END
$$$$
