LST.pdb
     RDKit          3D

 22 21  0  0  1  0  0  0  0  0999 V2000
   27.4149  -13.1918  -15.2336 C   0  0  0  0  0  0  0  0  0  0  0  0
   27.4275  -12.7674  -16.6873 C   0  0  2  0  0  0  0  0  0  0  0  0
   28.7082  -12.0431  -17.0192 C   0  0  0  0  0  0  0  0  0  0  0  0
   26.1832  -11.9802  -16.9883 C   0  0  0  0  0  0  0  0  0  0  0  0
   24.9123  -12.7025  -16.7263 C   0  0  2  0  0  0  0  0  0  0  0  0
   24.7447  -13.9384  -17.4753 N   0  0  0  0  0  0  0  0  0  0  0  0
   23.7607  -11.7694  -17.0232 C   0  0  0  0  0  0  0  0  0  0  0  0
   22.9567  -11.9435  -17.9573 O   0  0  0  0  0  0  0  0  0  0  0  0
   20.0020   -9.6607  -16.0722 O   0  0  0  0  0  0  0  0  0  0  0  0
   21.1290  -10.4543  -16.0975 C   0  0  0  0  0  0  0  0  0  0  0  0
   22.4249   -9.7366  -16.2519 C   0  0  2  0  0  0  0  0  0  0  0  0
   23.5680  -10.6091  -16.1899 N   0  0  0  0  0  0  0  0  0  0  0  0
   22.5774   -8.5091  -15.4330 C   0  0  0  0  0  0  0  0  0  0  0  0
   22.9597   -8.5945  -14.2348 O   0  0  0  0  0  0  0  0  0  0  0  0
   24.7840   -5.4135  -16.2387 C   0  0  0  0  0  0  0  0  0  0  0  0
   23.3872   -4.9743  -15.8549 C   0  0  1  0  0  0  0  0  0  0  0  0
   22.7674   -4.5784  -17.0658 O   0  0  0  0  0  0  0  0  0  0  0  0
   22.5972   -6.0061  -15.1463 C   0  0  2  0  0  0  0  0  0  0  0  0
   22.3127   -7.2023  -15.9226 N   0  0  0  0  0  0  0  0  0  0  0  0
   21.3347   -5.3891  -14.6324 C   0  0  0  0  0  0  0  0  0  0  0  0
   20.2445   -5.7820  -15.1389 O   0  0  0  0  0  0  0  0  0  0  0  0
   21.3046   -4.4408  -13.6603 O   0  0  0  0  0  0  0  0  0  0  0  0
  2  1  1  1
  2  3  1  0
  4  2  1  0
  4  5  1  0
  5  6  1  6
  7  8  2  0
  7  5  1  0
  9 10  1  0
 11 10  1  1
 11 12  1  0
 11 13  1  0
 12  7  1  0
 13 19  1  0
 14 13  2  0
 16 17  1  0
 16 15  1  6
 18 16  1  0
 18 19  1  6
 20 18  1  0
 20 22  1  0
 21 20  2  0
M  END
$$$$
