LST.pdb
     RDKit          3D

 22 21  0  0  1  0  0  0  0  0999 V2000
   17.0508  -12.3400  -18.3919 C   0  0  0  0  0  0  0  0  0  0  0  0
   17.7195  -13.0888  -17.2580 C   0  0  2  0  0  0  0  0  0  0  0  0
   16.7719  -14.0936  -16.6520 C   0  0  0  0  0  0  0  0  0  0  0  0
   18.2803  -12.1036  -16.2714 C   0  0  0  0  0  0  0  0  0  0  0  0
   19.1467  -11.0538  -16.8655 C   0  0  2  0  0  0  0  0  0  0  0  0
   20.3893  -11.5407  -17.4446 N   0  0  0  0  0  0  0  0  0  0  0  0
   19.4521  -10.0252  -15.8007 C   0  0  0  0  0  0  0  0  0  0  0  0
   18.5773   -9.4551  -15.1232 O   0  0  0  0  0  0  0  0  0  0  0  0
   22.8391   -8.4901  -12.6820 O   0  0  0  0  0  0  0  0  0  0  0  0
   22.3541   -9.3263  -13.6649 C   0  0  0  0  0  0  0  0  0  0  0  0
   21.2593   -8.7705  -14.5080 C   0  0  2  0  0  0  0  0  0  0  0  0
   20.8256   -9.6725  -15.5425 N   0  0  0  0  0  0  0  0  0  0  0  0
   21.4636   -7.3815  -14.9871 C   0  0  0  0  0  0  0  0  0  0  0  0
   22.0034   -7.1744  -16.1074 O   0  0  0  0  0  0  0  0  0  0  0  0
   19.0872   -4.5758  -15.9268 C   0  0  0  0  0  0  0  0  0  0  0  0
   20.0521   -4.0717  -14.8751 C   0  0  1  0  0  0  0  0  0  0  0  0
   19.3131   -4.0373  -13.6668 O   0  0  0  0  0  0  0  0  0  0  0  0
   21.2845   -4.8805  -14.7412 C   0  0  2  0  0  0  0  0  0  0  0  0
   21.0810   -6.2322  -14.2453 N   0  0  0  0  0  0  0  0  0  0  0  0
   22.2661   -4.1400  -13.8887 C   0  0  0  0  0  0  0  0  0  0  0  0
   22.6729   -4.7112  -12.8362 O   0  0  0  0  0  0  0  0  0  0  0  0
   22.7352   -2.9009  -14.1882 O   0  0  0  0  0  0  0  0  0  0  0  0
  2  1  1  6
  2  3  1  0
  4  2  1  0
  4  5  1  0
  5  6  1  1
  7  8  2  0
  7  5  1  0
  9 10  1  0
 11 10  1  6
 11 12  1  0
 11 13  1  0
 12  7  1  0
 13 19  1  0
 14 13  2  0
 16 17  1  0
 16 15  1  6
 18 16  1  0
 18 19  1  1
 20 18  1  0
 20 22  1  0
 21 20  2  0
M  END
$$$$
