KSV.pdb
     RDKit          3D

 23 22  0  0  1  0  0  0  0  0999 V2000
   26.8611  -21.5031  -16.1717 N   0  0  0  0  0  0  0  0  0  0  0  0
   27.7323  -20.4393  -15.7188 C   0  0  1  0  0  0  0  0  0  0  0  0
   27.8571  -19.3450  -16.7559 C   0  0  0  0  0  0  0  0  0  0  0  0
   27.9503  -19.8927  -18.1542 C   0  0  0  0  0  0  0  0  0  0  0  0
   29.1813  -20.7130  -18.3992 C   0  0  0  0  0  0  0  0  0  0  0  0
   29.3298  -21.0266  -19.8731 C   0  0  0  0  0  0  0  0  0  0  0  0
   30.4713  -21.8773  -20.1319 N   0  0  0  0  0  0  0  0  0  0  0  0
   27.1993  -19.9291  -14.4370 C   0  0  0  0  0  0  0  0  0  0  0  0
   27.6978  -18.8993  -13.9323 O   0  0  0  0  0  0  0  0  0  0  0  0
   23.7634  -21.4380  -13.0178 O   0  0  0  0  0  0  0  0  0  0  0  0
   24.0687  -20.1496  -12.6021 C   0  0  0  0  0  0  0  0  0  0  0  0
   25.5945  -20.0649  -12.4916 C   0  0  2  0  0  0  0  0  0  0  0  0
   26.1319  -20.5595  -13.7380 N   0  0  0  0  0  0  0  0  0  0  0  0
   26.0819  -20.8343  -11.3232 C   0  0  0  0  0  0  0  0  0  0  0  0
   26.3087  -22.0592  -11.4456 O   0  0  0  0  0  0  0  0  0  0  0  0
   26.2929  -18.7087   -7.5229 C   0  0  0  0  0  0  0  0  0  0  0  0
   27.0124  -20.0015   -7.8205 C   0  0  1  0  0  0  0  0  0  0  0  0
   27.2681  -20.7119   -6.5176 C   0  0  0  0  0  0  0  0  0  0  0  0
   26.2682  -20.8571   -8.8099 C   0  0  2  0  0  0  0  0  0  0  0  0
   26.2829  -20.1738  -10.0904 N   0  0  0  0  0  0  0  0  0  0  0  0
   24.9031  -21.0925   -8.3179 C   0  0  0  0  0  0  0  0  0  0  0  0
   24.7215  -22.0312   -7.3150 O   0  0  0  0  0  0  0  0  0  0  0  0
   23.8850  -20.4952   -8.7495 O   0  0  0  0  0  0  0  0  0  0  0  0
  2  1  1  6
  2  8  1  0
  3  2  1  0
  4  5  1  0
  4  3  1  0
  5  6  1  0
  6  7  1  0
  8 13  1  0
  8  9  2  0
 10 11  1  0
 12 11  1  6
 12 14  1  0
 13 12  1  0
 14 20  1  0
 14 15  2  0
 17 16  1  1
 17 19  1  0
 17 18  1  0
 19 21  1  0
 19 20  1  6
 21 22  1  0
 23 21  2  0
M  END
$$$$
