KSV.pdb
     RDKit          3D

 23 22  0  0  1  0  0  0  0  0999 V2000
   29.5228  -15.6542  -21.0368 N   0  0  0  0  0  0  0  0  0  0  0  0
   28.2107  -15.2001  -20.6267 C   0  0  1  0  0  0  0  0  0  0  0  0
   27.3322  -16.3554  -20.1999 C   0  0  0  0  0  0  0  0  0  0  0  0
   27.2040  -17.4013  -21.2739 C   0  0  0  0  0  0  0  0  0  0  0  0
   26.4371  -18.6158  -20.8438 C   0  0  0  0  0  0  0  0  0  0  0  0
   26.3451  -19.6181  -21.9751 C   0  0  0  0  0  0  0  0  0  0  0  0
   25.7932  -20.8810  -21.5343 N   0  0  0  0  0  0  0  0  0  0  0  0
   28.3898  -14.2107  -19.5421 C   0  0  0  0  0  0  0  0  0  0  0  0
   27.4699  -14.0367  -18.7130 O   0  0  0  0  0  0  0  0  0  0  0  0
   31.9586  -12.9459  -17.9378 O   0  0  0  0  0  0  0  0  0  0  0  0
   31.1795  -11.9257  -18.4653 C   0  0  0  0  0  0  0  0  0  0  0  0
   29.7227  -12.3954  -18.3992 C   0  0  2  0  0  0  0  0  0  0  0  0
   29.5733  -13.4348  -19.3913 N   0  0  0  0  0  0  0  0  0  0  0  0
   28.7934  -11.2639  -18.6243 C   0  0  0  0  0  0  0  0  0  0  0  0
   28.6369  -10.8189  -19.7837 O   0  0  0  0  0  0  0  0  0  0  0  0
   26.7864   -9.6477  -15.1810 C   0  0  0  0  0  0  0  0  0  0  0  0
   26.1397   -9.7567  -16.5402 C   0  0  1  0  0  0  0  0  0  0  0  0
   25.0382   -8.7333  -16.6239 C   0  0  0  0  0  0  0  0  0  0  0  0
   27.1357   -9.6280  -17.6610 C   0  0  2  0  0  0  0  0  0  0  0  0
   28.0990  -10.7057  -17.5276 N   0  0  0  0  0  0  0  0  0  0  0  0
   27.7681   -8.3025  -17.5985 C   0  0  0  0  0  0  0  0  0  0  0  0
   27.1585   -7.2540  -18.2685 O   0  0  0  0  0  0  0  0  0  0  0  0
   28.8308   -8.0567  -16.9741 O   0  0  0  0  0  0  0  0  0  0  0  0
  2  1  1  1
  2  8  1  0
  3  2  1  0
  4  5  1  0
  4  3  1  0
  5  6  1  0
  6  7  1  0
  8 13  1  0
  8  9  2  0
 10 11  1  0
 12 11  1  6
 12 14  1  0
 13 12  1  0
 14 20  1  0
 14 15  2  0
 17 16  1  1
 17 19  1  0
 17 18  1  0
 19 21  1  0
 19 20  1  1
 21 22  1  0
 23 21  2  0
M  END
$$$$
