KSV.pdb
     RDKit          3D

 23 22  0  0  1  0  0  0  0  0999 V2000
   20.0585  -12.7593  -16.9222 N   0  0  0  0  0  0  0  0  0  0  0  0
   18.6938  -12.2761  -16.9142 C   0  0  1  0  0  0  0  0  0  0  0  0
   17.7513  -13.2860  -16.2974 C   0  0  0  0  0  0  0  0  0  0  0  0
   17.7178  -14.5786  -17.0667 C   0  0  0  0  0  0  0  0  0  0  0  0
   18.2602  -15.7490  -16.3023 C   0  0  0  0  0  0  0  0  0  0  0  0
   18.2376  -17.0005  -17.1544 C   0  0  0  0  0  0  0  0  0  0  0  0
   19.4771  -17.1834  -17.8783 N   0  0  0  0  0  0  0  0  0  0  0  0
   18.6720  -10.9855  -16.1923 C   0  0  0  0  0  0  0  0  0  0  0  0
   17.5755  -10.4997  -15.8381 O   0  0  0  0  0  0  0  0  0  0  0  0
   22.1548   -9.3077  -15.0298 O   0  0  0  0  0  0  0  0  0  0  0  0
   21.0452   -8.9216  -14.2911 C   0  0  0  0  0  0  0  0  0  0  0  0
   19.8415   -8.9606  -15.2381 C   0  0  2  0  0  0  0  0  0  0  0  0
   19.8528  -10.2572  -15.8752 N   0  0  0  0  0  0  0  0  0  0  0  0
   19.9053   -7.8511  -16.2177 C   0  0  0  0  0  0  0  0  0  0  0  0
   20.6145   -7.9757  -17.2416 O   0  0  0  0  0  0  0  0  0  0  0  0
   16.9227   -6.3668  -17.7862 C   0  0  0  0  0  0  0  0  0  0  0  0
   17.6808   -5.2191  -17.1652 C   0  0  1  0  0  0  0  0  0  0  0  0
   16.9562   -4.7943  -15.9153 C   0  0  0  0  0  0  0  0  0  0  0  0
   19.1250   -5.5570  -16.9105 C   0  0  2  0  0  0  0  0  0  0  0  0
   19.1652   -6.6710  -15.9808 N   0  0  0  0  0  0  0  0  0  0  0  0
   19.8168   -4.3692  -16.3895 C   0  0  0  0  0  0  0  0  0  0  0  0
   20.1610   -3.3675  -17.2828 O   0  0  0  0  0  0  0  0  0  0  0  0
   20.1182   -4.2020  -15.1809 O   0  0  0  0  0  0  0  0  0  0  0  0
  2  1  1  1
  2  8  1  0
  3  2  1  0
  4  5  1  0
  4  3  1  0
  5  6  1  0
  6  7  1  0
  8 13  1  0
  8  9  2  0
 10 11  1  0
 12 11  1  1
 12 14  1  0
 13 12  1  0
 14 20  1  0
 14 15  2  0
 17 16  1  1
 17 19  1  0
 17 18  1  0
 19 21  1  0
 19 20  1  1
 21 22  1  0
 23 21  2  0
M  END
$$$$
