KSV.pdb
     RDKit          3D

 23 22  0  0  1  0  0  0  0  0999 V2000
   18.5934  -12.0417  -16.0476 N   0  0  0  0  0  0  0  0  0  0  0  0
   19.1785  -10.9263  -16.7615 C   0  0  1  0  0  0  0  0  0  0  0  0
   18.5388  -10.7399  -18.1196 C   0  0  0  0  0  0  0  0  0  0  0  0
   19.0820  -11.7005  -19.1424 C   0  0  0  0  0  0  0  0  0  0  0  0
   18.5993  -13.1087  -18.9626 C   0  0  0  0  0  0  0  0  0  0  0  0
   19.2090  -14.0200  -20.0069 C   0  0  0  0  0  0  0  0  0  0  0  0
   18.7423  -15.3831  -19.8731 N   0  0  0  0  0  0  0  0  0  0  0  0
   19.0412   -9.7215  -15.9148 C   0  0  0  0  0  0  0  0  0  0  0  0
   17.9123   -9.4013  -15.4828 O   0  0  0  0  0  0  0  0  0  0  0  0
   21.0659   -8.1562  -12.7885 O   0  0  0  0  0  0  0  0  0  0  0  0
   21.2845   -7.4987  -13.9910 C   0  0  0  0  0  0  0  0  0  0  0  0
   20.0104   -7.6587  -14.8265 C   0  0  2  0  0  0  0  0  0  0  0  0
   20.1448   -8.8954  -15.5611 N   0  0  0  0  0  0  0  0  0  0  0  0
   19.8149   -6.4922  -15.7184 C   0  0  0  0  0  0  0  0  0  0  0  0
   20.4456   -6.4318  -16.7979 O   0  0  0  0  0  0  0  0  0  0  0  0
   16.2699   -4.7257  -16.0882 C   0  0  0  0  0  0  0  0  0  0  0  0
   17.4825   -4.4178  -16.9322 C   0  0  1  0  0  0  0  0  0  0  0  0
   17.1787   -3.2061  -17.7731 C   0  0  0  0  0  0  0  0  0  0  0  0
   18.7289   -4.2510  -16.1056 C   0  0  2  0  0  0  0  0  0  0  0  0
   18.9203   -5.4672  -15.3367 N   0  0  0  0  0  0  0  0  0  0  0  0
   18.5882   -3.0647  -15.2490 C   0  0  0  0  0  0  0  0  0  0  0  0
   19.1040   -1.8626  -15.7055 O   0  0  0  0  0  0  0  0  0  0  0  0
   18.0278   -3.0696  -14.1240 O   0  0  0  0  0  0  0  0  0  0  0  0
  2  1  1  1
  2  8  1  0
  3  2  1  0
  4  5  1  0
  4  3  1  0
  5  6  1  0
  6  7  1  0
  8 13  1  0
  8  9  2  0
 10 11  1  0
 12 11  1  6
 12 14  1  0
 13 12  1  0
 14 20  1  0
 14 15  2  0
 17 16  1  1
 17 19  1  0
 17 18  1  0
 19 21  1  0
 19 20  1  1
 21 22  1  0
 23 21  2  0
M  END
$$$$
