KSV.pdb
     RDKit          3D

 23 22  0  0  1  0  0  0  0  0999 V2000
   22.7901  -17.0891  -18.8834 N   0  0  0  0  0  0  0  0  0  0  0  0
   23.2840  -16.6289  -17.6026 C   0  0  1  0  0  0  0  0  0  0  0  0
   22.1894  -15.9751  -16.7884 C   0  0  0  0  0  0  0  0  0  0  0  0
   21.1308  -16.9565  -16.3642 C   0  0  0  0  0  0  0  0  0  0  0  0
   20.0947  -16.3690  -15.4534 C   0  0  0  0  0  0  0  0  0  0  0  0
   19.0711  -17.4145  -15.0636 C   0  0  0  0  0  0  0  0  0  0  0  0
   18.1044  -16.8981  -14.1188 N   0  0  0  0  0  0  0  0  0  0  0  0
   23.8790  -17.7872  -16.9014 C   0  0  0  0  0  0  0  0  0  0  0  0
   23.2593  -18.8731  -16.8763 O   0  0  0  0  0  0  0  0  0  0  0  0
   27.6662  -17.6074  -15.0649 O   0  0  0  0  0  0  0  0  0  0  0  0
   27.2763  -18.7101  -15.8119 C   0  0  0  0  0  0  0  0  0  0  0  0
   25.7650  -18.8704  -15.6176 C   0  0  2  0  0  0  0  0  0  0  0  0
   25.1397  -17.7285  -16.2437 N   0  0  0  0  0  0  0  0  0  0  0  0
   25.4271  -18.9796  -14.1794 C   0  0  0  0  0  0  0  0  0  0  0  0
   25.1764  -17.9413  -13.5268 O   0  0  0  0  0  0  0  0  0  0  0  0
   22.8841  -21.3802  -12.7487 C   0  0  0  0  0  0  0  0  0  0  0  0
   24.1832  -21.6096  -12.0156 C   0  0  1  0  0  0  0  0  0  0  0  0
   24.7780  -22.9052  -12.5005 C   0  0  0  0  0  0  0  0  0  0  0  0
   25.1318  -20.4496  -12.1536 C   0  0  2  0  0  0  0  0  0  0  0  0
   25.3931  -20.2529  -13.5679 N   0  0  0  0  0  0  0  0  0  0  0  0
   26.3577  -20.7318  -11.3930 C   0  0  0  0  0  0  0  0  0  0  0  0
   27.5137  -21.0234  -12.0990 O   0  0  0  0  0  0  0  0  0  0  0  0
   26.4261  -20.7260  -10.1381 O   0  0  0  0  0  0  0  0  0  0  0  0
  2  1  1  6
  2  8  1  0
  3  2  1  0
  4  5  1  0
  4  3  1  0
  5  6  1  0
  6  7  1  0
  8 13  1  0
  8  9  2  0
 10 11  1  0
 12 11  1  1
 12 14  1  0
 13 12  1  0
 14 20  1  0
 14 15  2  0
 17 16  1  6
 17 19  1  0
 17 18  1  0
 19 21  1  0
 19 20  1  6
 21 22  1  0
 23 21  2  0
M  END
$$$$
