KSV.pdb
     RDKit          3D

 23 22  0  0  1  0  0  0  0  0999 V2000
   18.8029  -13.5131  -16.5068 N   0  0  0  0  0  0  0  0  0  0  0  0
   19.5809  -12.5101  -17.2029 C   0  0  1  0  0  0  0  0  0  0  0  0
   19.1393  -12.3661  -18.6426 C   0  0  0  0  0  0  0  0  0  0  0  0
   19.5601  -13.5376  -19.4879 C   0  0  0  0  0  0  0  0  0  0  0  0
   18.4132  -14.2640  -20.1246 C   0  0  0  0  0  0  0  0  0  0  0  0
   18.9163  -15.3824  -21.0130 C   0  0  0  0  0  0  0  0  0  0  0  0
   17.8296  -16.1152  -21.6262 N   0  0  0  0  0  0  0  0  0  0  0  0
   19.4577  -11.2393  -16.4564 C   0  0  0  0  0  0  0  0  0  0  0  0
   18.3261  -10.8467  -16.0969 O   0  0  0  0  0  0  0  0  0  0  0  0
   21.5103   -8.0482  -13.6003 O   0  0  0  0  0  0  0  0  0  0  0  0
   21.6476   -9.1889  -14.3788 C   0  0  0  0  0  0  0  0  0  0  0  0
   20.4747   -9.2017  -15.3644 C   0  0  2  0  0  0  0  0  0  0  0  0
   20.5779  -10.4281  -16.1209 N   0  0  0  0  0  0  0  0  0  0  0  0
   20.5017   -8.0010  -16.2316 C   0  0  0  0  0  0  0  0  0  0  0  0
   21.2947   -7.9598  -17.1993 O   0  0  0  0  0  0  0  0  0  0  0  0
   17.1775   -5.4846  -16.2819 C   0  0  0  0  0  0  0  0  0  0  0  0
   18.2745   -5.5059  -17.3181 C   0  0  1  0  0  0  0  0  0  0  0  0
   18.1681   -4.2525  -18.1459 C   0  0  0  0  0  0  0  0  0  0  0  0
   19.6380   -5.6812  -16.7058 C   0  0  2  0  0  0  0  0  0  0  0  0
   19.6327   -6.9223  -15.9530 N   0  0  0  0  0  0  0  0  0  0  0  0
   19.9446   -4.5172  -15.8621 C   0  0  0  0  0  0  0  0  0  0  0  0
   20.4767   -3.3909  -16.4687 O   0  0  0  0  0  0  0  0  0  0  0  0
   19.7547   -4.4765  -14.6204 O   0  0  0  0  0  0  0  0  0  0  0  0
  2  1  1  1
  2  8  1  0
  3  2  1  0
  4  5  1  0
  4  3  1  0
  5  6  1  0
  6  7  1  0
  8 13  1  0
  8  9  2  0
 10 11  1  0
 12 11  1  1
 12 14  1  0
 13 12  1  0
 14 20  1  0
 14 15  2  0
 17 16  1  1
 17 19  1  0
 17 18  1  0
 19 21  1  0
 19 20  1  1
 21 22  1  0
 23 21  2  0
M  END
$$$$
