KSV.pdb
     RDKit          3D

 23 22  0  0  1  0  0  0  0  0999 V2000
   19.7990  -13.3549  -16.1983 N   0  0  0  0  0  0  0  0  0  0  0  0
   19.1679  -12.3024  -16.9663 C   0  0  1  0  0  0  0  0  0  0  0  0
   17.9148  -12.7943  -17.6565 C   0  0  0  0  0  0  0  0  0  0  0  0
   18.0428  -14.2189  -18.1232 C   0  0  0  0  0  0  0  0  0  0  0  0
   16.8171  -14.7397  -18.8121 C   0  0  0  0  0  0  0  0  0  0  0  0
   17.0328  -16.1625  -19.2835 C   0  0  0  0  0  0  0  0  0  0  0  0
   15.8759  -16.6818  -19.9804 N   0  0  0  0  0  0  0  0  0  0  0  0
   18.8893  -11.1751  -16.0504 C   0  0  0  0  0  0  0  0  0  0  0  0
   18.0752  -11.3326  -15.1143 O   0  0  0  0  0  0  0  0  0  0  0  0
   21.5962   -8.6006  -15.2929 O   0  0  0  0  0  0  0  0  0  0  0  0
   20.5124   -8.6249  -14.4265 C   0  0  0  0  0  0  0  0  0  0  0  0
   19.2559   -8.7959  -15.2864 C   0  0  2  0  0  0  0  0  0  0  0  0
   19.5095   -9.9009  -16.1818 N   0  0  0  0  0  0  0  0  0  0  0  0
   18.9395   -7.5439  -16.0123 C   0  0  0  0  0  0  0  0  0  0  0  0
   19.5080   -7.3049  -17.1016 O   0  0  0  0  0  0  0  0  0  0  0  0
   15.2999   -6.3380  -16.5706 C   0  0  0  0  0  0  0  0  0  0  0  0
   16.1097   -5.2491  -15.9102 C   0  0  1  0  0  0  0  0  0  0  0  0
   15.7443   -5.2068  -14.4499 C   0  0  0  0  0  0  0  0  0  0  0  0
   17.5884   -5.4197  -16.1321 C   0  0  2  0  0  0  0  0  0  0  0  0
   18.0018   -6.6402  -15.4640 N   0  0  0  0  0  0  0  0  0  0  0  0
   18.2956   -4.2363  -15.6218 C   0  0  0  0  0  0  0  0  0  0  0  0
   18.9689   -4.3456  -14.4157 O   0  0  0  0  0  0  0  0  0  0  0  0
   18.3296   -3.1265  -16.2106 O   0  0  0  0  0  0  0  0  0  0  0  0
  2  1  1  1
  2  8  1  0
  3  2  1  0
  4  5  1  0
  4  3  1  0
  5  6  1  0
  6  7  1  0
  8 13  1  0
  8  9  2  0
 10 11  1  0
 12 11  1  6
 12 14  1  0
 13 12  1  0
 14 20  1  0
 14 15  2  0
 17 16  1  1
 17 19  1  0
 17 18  1  0
 19 21  1  0
 19 20  1  1
 21 22  1  0
 23 21  2  0
M  END
$$$$
