KSV.pdb
     RDKit          3D

 23 22  0  0  1  0  0  0  0  0999 V2000
   43.4486  -10.9988   -6.4762 N   0  0  0  0  0  0  0  0  0  0  0  0
   43.6188  -11.1229   -7.9085 C   0  0  1  0  0  0  0  0  0  0  0  0
   44.3702   -9.9418   -8.4822 C   0  0  0  0  0  0  0  0  0  0  0  0
   43.6203   -8.6493   -8.3068 C   0  0  0  0  0  0  0  0  0  0  0  0
   44.2376   -7.4912   -9.0323 C   0  0  0  0  0  0  0  0  0  0  0  0
   43.4377   -6.2268   -8.7990 C   0  0  0  0  0  0  0  0  0  0  0  0
   44.0128   -5.0898   -9.4846 N   0  0  0  0  0  0  0  0  0  0  0  0
   44.3113  -12.4021   -8.1756 C   0  0  0  0  0  0  0  0  0  0  0  0
   45.1558  -12.8249   -7.3559 O   0  0  0  0  0  0  0  0  0  0  0  0
   42.7328  -15.4743  -10.0989 O   0  0  0  0  0  0  0  0  0  0  0  0
   43.9474  -15.1552  -10.6897 C   0  0  0  0  0  0  0  0  0  0  0  0
   44.7741  -14.4087   -9.6379 C   0  0  2  0  0  0  0  0  0  0  0  0
   44.0620  -13.1887   -9.3351 N   0  0  0  0  0  0  0  0  0  0  0  0
   46.1471  -14.1518  -10.1315 C   0  0  0  0  0  0  0  0  0  0  0  0
   46.3564  -13.1734  -10.8837 O   0  0  0  0  0  0  0  0  0  0  0  0
   49.3044  -14.4156   -7.8382 C   0  0  0  0  0  0  0  0  0  0  0  0
   49.4757  -15.2717   -9.0692 C   0  0  1  0  0  0  0  0  0  0  0  0
   49.2773  -16.7116   -8.6757 C   0  0  0  0  0  0  0  0  0  0  0  0
   48.5685  -14.8483  -10.1927 C   0  0  2  0  0  0  0  0  0  0  0  0
   47.1975  -15.0145   -9.7457 N   0  0  0  0  0  0  0  0  0  0  0  0
   48.8678  -15.6512  -11.3872 C   0  0  0  0  0  0  0  0  0  0  0  0
   50.0051  -15.3418  -12.1157 O   0  0  0  0  0  0  0  0  0  0  0  0
   48.1563  -16.6044  -11.7928 O   0  0  0  0  0  0  0  0  0  0  0  0
  2  1  1  1
  2  8  1  0
  3  2  1  0
  4  5  1  0
  4  3  1  0
  5  6  1  0
  6  7  1  0
  8 13  1  0
  8  9  2  0
 10 11  1  0
 12 11  1  6
 12 14  1  0
 13 12  1  0
 14 20  1  0
 14 15  2  0
 17 16  1  1
 17 19  1  0
 17 18  1  0
 19 21  1  0
 19 20  1  1
 21 22  1  0
 23 21  2  0
M  END
$$$$
