KSV.pdb
     RDKit          3D

 23 22  0  0  1  0  0  0  0  0999 V2000
   12.5892  -11.1897  -10.0731 N   0  0  0  0  0  0  0  0  0  0  0  0
   13.9616  -10.7720  -10.2684 C   0  0  1  0  0  0  0  0  0  0  0  0
   14.4948  -11.2280  -11.6087 C   0  0  0  0  0  0  0  0  0  0  0  0
   14.8941  -12.6786  -11.5998 C   0  0  0  0  0  0  0  0  0  0  0  0
   15.4402  -13.1612  -12.9102 C   0  0  0  0  0  0  0  0  0  0  0  0
   15.7978  -14.6305  -12.8315 C   0  0  0  0  0  0  0  0  0  0  0  0
   16.4080  -15.1041  -14.0551 N   0  0  0  0  0  0  0  0  0  0  0  0
   14.0149   -9.3012  -10.1226 C   0  0  0  0  0  0  0  0  0  0  0  0
   12.9988   -8.6218  -10.3865 O   0  0  0  0  0  0  0  0  0  0  0  0
   15.9163   -5.4809   -8.0954 O   0  0  0  0  0  0  0  0  0  0  0  0
   15.7023   -6.8507   -8.1575 C   0  0  0  0  0  0  0  0  0  0  0  0
   15.2610   -7.1702   -9.5894 C   0  0  2  0  0  0  0  0  0  0  0  0
   15.1810   -8.6090   -9.6909 N   0  0  0  0  0  0  0  0  0  0  0  0
   16.2024   -6.5875  -10.5736 C   0  0  0  0  0  0  0  0  0  0  0  0
   17.3739   -7.0241  -10.6361 O   0  0  0  0  0  0  0  0  0  0  0  0
   15.5755   -6.1927  -14.3329 C   0  0  0  0  0  0  0  0  0  0  0  0
   15.8187   -4.8408  -13.7078 C   0  0  1  0  0  0  0  0  0  0  0  0
   14.4884   -4.1615  -13.5167 C   0  0  0  0  0  0  0  0  0  0  0  0
   16.6100   -4.9335  -12.4311 C   0  0  2  0  0  0  0  0  0  0  0  0
   15.7635   -5.5491  -11.4253 N   0  0  0  0  0  0  0  0  0  0  0  0
   17.0571   -3.5893  -12.0384 C   0  0  0  0  0  0  0  0  0  0  0  0
   18.1671   -3.0569  -12.6743 O   0  0  0  0  0  0  0  0  0  0  0  0
   16.4958   -2.8880  -11.1595 O   0  0  0  0  0  0  0  0  0  0  0  0
  2  1  1  6
  2  8  1  0
  3  2  1  0
  4  5  1  0
  4  3  1  0
  5  6  1  0
  6  7  1  0
  8 13  1  0
  8  9  2  0
 10 11  1  0
 12 11  1  1
 12 14  1  0
 13 12  1  0
 14 20  1  0
 14 15  2  0
 17 16  1  1
 17 19  1  0
 17 18  1  0
 19 21  1  0
 19 20  1  1
 21 22  1  0
 23 21  2  0
M  END
$$$$
