KSV.pdb
     RDKit          3D

 23 22  0  0  1  0  0  0  0  0999 V2000
   17.0125  -12.1674  -15.6004 N   0  0  0  0  0  0  0  0  0  0  0  0
   18.4204  -12.4230  -15.8207 C   0  0  1  0  0  0  0  0  0  0  0  0
   18.6388  -13.3463  -16.9990 C   0  0  0  0  0  0  0  0  0  0  0  0
   17.6514  -14.4813  -17.0246 C   0  0  0  0  0  0  0  0  0  0  0  0
   17.7889  -15.3725  -18.2226 C   0  0  0  0  0  0  0  0  0  0  0  0
   16.7232  -16.4482  -18.2134 C   0  0  0  0  0  0  0  0  0  0  0  0
   16.8098  -17.3042  -19.3769 N   0  0  0  0  0  0  0  0  0  0  0  0
   19.0961  -11.1204  -16.0053 C   0  0  0  0  0  0  0  0  0  0  0  0
   20.3281  -11.0936  -16.2175 O   0  0  0  0  0  0  0  0  0  0  0  0
   17.0634   -7.6760  -15.2804 O   0  0  0  0  0  0  0  0  0  0  0  0
   17.9501   -7.5627  -16.3419 C   0  0  0  0  0  0  0  0  0  0  0  0
   19.0565   -8.5974  -16.1130 C   0  0  2  0  0  0  0  0  0  0  0  0
   18.4055   -9.8771  -15.9531 N   0  0  0  0  0  0  0  0  0  0  0  0
   19.8824   -8.2349  -14.9377 C   0  0  0  0  0  0  0  0  0  0  0  0
   19.4209   -8.4048  -13.7867 O   0  0  0  0  0  0  0  0  0  0  0  0
   23.2232   -9.4806  -13.9853 C   0  0  0  0  0  0  0  0  0  0  0  0
   23.3527   -7.9906  -14.1872 C   0  0  1  0  0  0  0  0  0  0  0  0
   24.0017   -7.7487  -15.5243 C   0  0  0  0  0  0  0  0  0  0  0  0
   22.0357   -7.2763  -14.0454 C   0  0  2  0  0  0  0  0  0  0  0  0
   21.1768   -7.7037  -15.1347 N   0  0  0  0  0  0  0  0  0  0  0  0
   22.2675   -5.8247  -14.0532 C   0  0  0  0  0  0  0  0  0  0  0  0
   22.8928   -5.2557  -12.9554 O   0  0  0  0  0  0  0  0  0  0  0  0
   21.9340   -5.0622  -14.9950 O   0  0  0  0  0  0  0  0  0  0  0  0
  2  1  1  6
  2  8  1  0
  3  2  1  0
  4  5  1  0
  4  3  1  0
  5  6  1  0
  6  7  1  0
  8 13  1  0
  8  9  2  0
 10 11  1  0
 12 11  1  1
 12 14  1  0
 13 12  1  0
 14 20  1  0
 14 15  2  0
 17 16  1  6
 17 19  1  0
 17 18  1  0
 19 21  1  0
 19 20  1  6
 21 22  1  0
 23 21  2  0
M  END
$$$$
