KSV.pdb
     RDKit          3D

 23 22  0  0  1  0  0  0  0  0999 V2000
   17.1218  -11.8964  -14.1657 N   0  0  0  0  0  0  0  0  0  0  0  0
   16.1149  -10.8582  -14.1011 C   0  0  1  0  0  0  0  0  0  0  0  0
   14.7317  -11.4384  -13.9046 C   0  0  0  0  0  0  0  0  0  0  0  0
   14.4296  -12.5374  -14.8869 C   0  0  0  0  0  0  0  0  0  0  0  0
   13.0747  -13.1531  -14.7042 C   0  0  0  0  0  0  0  0  0  0  0  0
   12.8853  -14.3187  -15.6522 C   0  0  0  0  0  0  0  0  0  0  0  0
   12.8490  -13.8907  -17.0339 N   0  0  0  0  0  0  0  0  0  0  0  0
   16.4864   -9.9310  -13.0104 C   0  0  0  0  0  0  0  0  0  0  0  0
   16.6117  -10.3720  -11.8470 O   0  0  0  0  0  0  0  0  0  0  0  0
   18.4928   -5.7873  -11.7602 O   0  0  0  0  0  0  0  0  0  0  0  0
   18.0784   -6.6295  -12.7825 C   0  0  0  0  0  0  0  0  0  0  0  0
   17.0938   -7.6291  -12.1673 C   0  0  2  0  0  0  0  0  0  0  0  0
   16.7120   -8.5415  -13.2202 N   0  0  0  0  0  0  0  0  0  0  0  0
   15.9287   -6.9277  -11.5797 C   0  0  0  0  0  0  0  0  0  0  0  0
   15.0076   -6.5322  -12.3295 O   0  0  0  0  0  0  0  0  0  0  0  0
   14.0481   -8.0455   -8.3283 C   0  0  0  0  0  0  0  0  0  0  0  0
   14.5524   -6.6293   -8.1948 C   0  0  1  0  0  0  0  0  0  0  0  0
   15.7746   -6.6430   -7.3152 C   0  0  0  0  0  0  0  0  0  0  0  0
   14.8072   -5.9832   -9.5298 C   0  0  2  0  0  0  0  0  0  0  0  0
   15.8757   -6.7166  -10.1836 N   0  0  0  0  0  0  0  0  0  0  0  0
   15.1444   -4.5668   -9.3272 C   0  0  0  0  0  0  0  0  0  0  0  0
   14.1239   -3.6929   -8.9885 O   0  0  0  0  0  0  0  0  0  0  0  0
   16.3033   -4.0943   -9.4415 O   0  0  0  0  0  0  0  0  0  0  0  0
  2  1  1  1
  2  8  1  0
  3  2  1  0
  4  5  1  0
  4  3  1  0
  5  6  1  0
  6  7  1  0
  8 13  1  0
  8  9  2  0
 10 11  1  0
 12 11  1  6
 12 14  1  0
 13 12  1  0
 14 20  1  0
 14 15  2  0
 17 16  1  6
 17 19  1  0
 17 18  1  0
 19 21  1  0
 19 20  1  1
 21 22  1  0
 23 21  2  0
M  END
$$$$
