KSV.pdb
     RDKit          3D

 23 22  0  0  1  0  0  0  0  0999 V2000
   18.3272  -23.8612   -9.7146 N   0  0  0  0  0  0  0  0  0  0  0  0
   18.4479  -24.3945  -11.0551 C   0  0  1  0  0  0  0  0  0  0  0  0
   17.2093  -25.1632  -11.4598 C   0  0  0  0  0  0  0  0  0  0  0  0
   17.2155  -26.5725  -10.9330 C   0  0  0  0  0  0  0  0  0  0  0  0
   17.6892  -26.6835   -9.5146 C   0  0  0  0  0  0  0  0  0  0  0  0
   17.7076  -28.1306   -9.0691 C   0  0  0  0  0  0  0  0  0  0  0  0
   18.3081  -28.2856   -7.7618 N   0  0  0  0  0  0  0  0  0  0  0  0
   18.7230  -23.2662  -11.9708 C   0  0  0  0  0  0  0  0  0  0  0  0
   18.1009  -22.1915  -11.8237 O   0  0  0  0  0  0  0  0  0  0  0  0
   21.9595  -20.9556  -14.0758 O   0  0  0  0  0  0  0  0  0  0  0  0
   21.5098  -22.2678  -14.1181 C   0  0  0  0  0  0  0  0  0  0  0  0
   19.9953  -22.2293  -13.8904 C   0  0  2  0  0  0  0  0  0  0  0  0
   19.6740  -23.3420  -13.0269 N   0  0  0  0  0  0  0  0  0  0  0  0
   19.2668  -22.2876  -15.1790 C   0  0  0  0  0  0  0  0  0  0  0  0
   19.0551  -23.3987  -15.7152 O   0  0  0  0  0  0  0  0  0  0  0  0
   18.1518  -18.6213  -17.5813 C   0  0  0  0  0  0  0  0  0  0  0  0
   17.3006  -19.7451  -17.0426 C   0  0  1  0  0  0  0  0  0  0  0  0
   16.0380  -19.8163  -17.8602 C   0  0  0  0  0  0  0  0  0  0  0  0
   18.0393  -21.0556  -17.0031 C   0  0  2  0  0  0  0  0  0  0  0  0
   18.8230  -21.0892  -15.7818 N   0  0  0  0  0  0  0  0  0  0  0  0
   18.8745  -21.1785  -18.2065 C   0  0  0  0  0  0  0  0  0  0  0  0
   18.3138  -21.7510  -19.3369 O   0  0  0  0  0  0  0  0  0  0  0  0
   20.0697  -20.7964  -18.2776 O   0  0  0  0  0  0  0  0  0  0  0  0
  2  1  1  1
  2  8  1  0
  3  2  1  0
  4  5  1  0
  4  3  1  0
  5  6  1  0
  6  7  1  0
  8 13  1  0
  8  9  2  0
 10 11  1  0
 12 11  1  6
 12 14  1  0
 13 12  1  0
 14 20  1  0
 14 15  2  0
 17 16  1  6
 17 19  1  0
 17 18  1  0
 19 21  1  0
 19 20  1  1
 21 22  1  0
 23 21  2  0
M  END
$$$$
