KSV.pdb
     RDKit          3D

 23 22  0  0  1  0  0  0  0  0999 V2000
   19.3384  -11.7447  -15.5322 N   0  0  0  0  0  0  0  0  0  0  0  0
   19.4590  -10.9821  -16.7569 C   0  0  1  0  0  0  0  0  0  0  0  0
   18.4246  -11.4038  -17.7771 C   0  0  0  0  0  0  0  0  0  0  0  0
   18.0346  -12.8494  -17.6294 C   0  0  0  0  0  0  0  0  0  0  0  0
   16.7737  -13.0562  -16.8447 C   0  0  0  0  0  0  0  0  0  0  0  0
   16.3470  -14.5083  -16.8918 C   0  0  0  0  0  0  0  0  0  0  0  0
   15.1967  -14.7607  -16.0512 N   0  0  0  0  0  0  0  0  0  0  0  0
   19.3452   -9.5481  -16.4133 C   0  0  0  0  0  0  0  0  0  0  0  0
   19.5476   -8.6878  -17.2980 O   0  0  0  0  0  0  0  0  0  0  0  0
   17.5031   -6.2634  -13.4879 O   0  0  0  0  0  0  0  0  0  0  0  0
   17.6348   -7.5976  -13.8465 C   0  0  0  0  0  0  0  0  0  0  0  0
   18.8535   -7.6945  -14.7698 C   0  0  2  0  0  0  0  0  0  0  0  0
   19.0120   -9.0901  -15.1077 N   0  0  0  0  0  0  0  0  0  0  0  0
   20.0576   -7.1335  -14.1140 C   0  0  0  0  0  0  0  0  0  0  0  0
   20.5686   -7.7401  -13.1456 O   0  0  0  0  0  0  0  0  0  0  0  0
   23.2621   -6.5917  -15.6041 C   0  0  0  0  0  0  0  0  0  0  0  0
   22.8379   -5.2304  -15.1097 C   0  0  1  0  0  0  0  0  0  0  0  0
   22.3781   -4.4193  -16.2922 C   0  0  0  0  0  0  0  0  0  0  0  0
   21.7981   -5.3129  -14.0249 C   0  0  2  0  0  0  0  0  0  0  0  0
   20.6096   -5.9237  -14.5917 N   0  0  0  0  0  0  0  0  0  0  0  0
   21.5371   -3.9651  -13.4992 C   0  0  0  0  0  0  0  0  0  0  0  0
   20.3245   -3.3674  -13.8030 O   0  0  0  0  0  0  0  0  0  0  0  0
   22.3456   -3.3163  -12.7887 O   0  0  0  0  0  0  0  0  0  0  0  0
  2  1  1  1
  2  8  1  0
  3  2  1  0
  4  5  1  0
  4  3  1  0
  5  6  1  0
  6  7  1  0
  8 13  1  0
  8  9  2  0
 10 11  1  0
 12 11  1  1
 12 14  1  0
 13 12  1  0
 14 20  1  0
 14 15  2  0
 17 16  1  6
 17 19  1  0
 17 18  1  0
 19 21  1  0
 19 20  1  6
 21 22  1  0
 23 21  2  0
M  END
$$$$
