REG.pdb
     RDKit          3D

 25 24  0  0  1  0  0  0  0  0999 V2000
    8.6506  -13.3154   16.5338 N   0  0  0  0  0  0  0  0  0  0  0  0
    8.3516  -14.1307   17.6717 C   0  0  0  0  0  0  0  0  0  0  0  0
    8.2822  -15.4143   17.5664 N   0  0  0  0  0  0  0  0  0  0  0  0
    8.1217  -13.5586   18.9504 N   0  0  0  0  0  0  0  0  0  0  0  0
    7.1143  -14.0859   19.8155 C   0  0  0  0  0  0  0  0  0  0  0  0
    6.8521  -13.2960   21.0549 C   0  0  0  0  0  0  0  0  0  0  0  0
    8.0617  -13.4930   21.9768 C   0  0  0  0  0  0  0  0  0  0  0  0
    7.8768  -14.7614   22.7813 C   0  0  2  0  0  0  0  0  0  0  0  0
    6.8051  -14.6272   23.7397 N   0  0  0  0  0  0  0  0  0  0  0  0
    9.1713  -15.0642   23.4816 C   0  0  0  0  0  0  0  0  0  0  0  0
    9.6257  -14.2801   24.3648 O   0  0  0  0  0  0  0  0  0  0  0  0
    7.9745  -16.0401   18.3274 N   0  0  0  0  0  0  0  0  0  0  0  0
    9.9251  -16.2152   23.1909 C   0  0  2  0  0  0  0  0  0  0  0  0
   11.2731  -16.4174   23.7799 C   0  0  0  0  0  0  0  0  0  0  0  0
   11.2893  -17.7913   24.4052 C   0  0  0  0  0  0  0  0  0  0  0  0
   12.5967  -18.2368   24.9551 C   0  0  0  0  0  0  0  0  0  0  0  0
   12.4366  -19.6161   25.5083 O   0  0  0  0  0  0  0  0  0  0  0  0
   12.5343  -19.7802   26.7390 C   0  0  0  0  0  0  0  0  0  0  0  0
   12.2511  -16.2488   22.6881 O   0  0  0  0  0  0  0  0  0  0  0  0
   11.8943  -16.3718   21.4656 O   0  0  0  0  0  0  0  0  0  0  0  0
   12.1863  -20.6980   24.6986 N   0  0  0  0  0  0  0  0  0  0  0  0
   13.6312  -15.9422   22.8601 C   0  0  0  0  0  0  0  0  0  0  0  0
   14.4751  -15.5393   21.7526 C   0  0  0  0  0  0  0  0  0  0  0  0
   15.8724  -15.3043   22.1676 O   0  0  0  0  0  0  0  0  0  0  0  0
   16.1122  -15.3115   23.4029 O   0  0  0  0  0  0  0  0  0  0  0  0
  2  3  2  0
  2  1  1  0
  4  2  1  0
  5  4  1  0
  6  5  1  0
  7  6  1  0
  8 10  1  0
  8  7  1  0
  8  9  1  1
 10 12  1  0
 11 10  2  0
 12 13  1  0
 13 14  1  1
 14 15  1  0
 16 17  2  0
 16 15  1  0
 18 13  1  0
 19 18  2  0
 20 16  1  0
 21 18  1  0
 22 21  1  0
 23 22  1  0
 24 23  2  0
 25 23  1  0
M  END
$$$$
