REG.pdb
     RDKit          3D

 25 24  0  0  1  0  0  0  0  0999 V2000
    7.9615  -13.7067   16.8788 N   0  0  0  0  0  0  0  0  0  0  0  0
    8.1286  -13.0428   18.1359 C   0  0  0  0  0  0  0  0  0  0  0  0
    8.9064  -12.0199   18.2460 N   0  0  0  0  0  0  0  0  0  0  0  0
    7.4479  -13.4845   19.3006 N   0  0  0  0  0  0  0  0  0  0  0  0
    7.5506  -14.8416   19.7356 C   0  0  0  0  0  0  0  0  0  0  0  0
    6.7195  -15.2020   20.9222 C   0  0  0  0  0  0  0  0  0  0  0  0
    7.5833  -14.9584   22.1657 C   0  0  0  0  0  0  0  0  0  0  0  0
    8.5608  -16.1022   22.3282 C   0  0  2  0  0  0  0  0  0  0  0  0
    7.8761  -17.3557   22.5407 N   0  0  0  0  0  0  0  0  0  0  0  0
    9.4564  -15.7904   23.4937 C   0  0  0  0  0  0  0  0  0  0  0  0
    9.5584  -14.6070   23.9304 O   0  0  0  0  0  0  0  0  0  0  0  0
    9.0676  -11.5096   19.1286 N   0  0  0  0  0  0  0  0  0  0  0  0
   10.2111  -16.7846   24.1415 C   0  0  1  0  0  0  0  0  0  0  0  0
   11.2480  -16.4290   25.1430 C   0  0  0  0  0  0  0  0  0  0  0  0
   10.7544  -16.9021   26.4889 C   0  0  0  0  0  0  0  0  0  0  0  0
   10.5405  -18.3673   26.6213 C   0  0  0  0  0  0  0  0  0  0  0  0
   10.8978  -18.7777   28.0135 O   0  0  0  0  0  0  0  0  0  0  0  0
   11.1643  -17.8914   28.8468 C   0  0  0  0  0  0  0  0  0  0  0  0
   12.5042  -17.0708   24.7105 O   0  0  0  0  0  0  0  0  0  0  0  0
   12.4846  -18.1553   24.0319 O   0  0  0  0  0  0  0  0  0  0  0  0
   10.9389  -20.0982   28.3926 N   0  0  0  0  0  0  0  0  0  0  0  0
   13.8137  -16.5809   24.9810 C   0  0  0  0  0  0  0  0  0  0  0  0
   14.4678  -15.6140   24.1217 C   0  0  0  0  0  0  0  0  0  0  0  0
   15.3011  -16.2560   23.0858 O   0  0  0  0  0  0  0  0  0  0  0  0
   15.1603  -17.4960   22.9244 O   0  0  0  0  0  0  0  0  0  0  0  0
  2  3  2  0
  2  1  1  0
  4  2  1  0
  5  4  1  0
  6  5  1  0
  7  6  1  0
  8 10  1  0
  8  7  1  0
  8  9  1  1
 10 12  1  0
 11 10  2  0
 12 13  1  0
 13 14  1  6
 14 15  1  0
 16 17  2  0
 16 15  1  0
 18 13  1  0
 19 18  2  0
 20 16  1  0
 21 18  1  0
 22 21  1  0
 23 22  1  0
 24 23  2  0
 25 23  1  0
M  END
$$$$
