REG.pdb
     RDKit          3D

 25 24  0  0  1  0  0  0  0  0999 V2000
    8.0547  -12.8831   21.1398 N   0  0  0  0  0  0  0  0  0  0  0  0
    7.8914  -12.9005   19.7179 C   0  0  0  0  0  0  0  0  0  0  0  0
    6.7616  -12.5921   19.1775 N   0  0  0  0  0  0  0  0  0  0  0  0
    8.9617  -13.2563   18.8558 N   0  0  0  0  0  0  0  0  0  0  0  0
    8.7465  -14.1340   17.7491 C   0  0  0  0  0  0  0  0  0  0  0  0
    8.2948  -15.5131   18.0995 C   0  0  0  0  0  0  0  0  0  0  0  0
    9.5550  -16.3750   18.2434 C   0  0  0  0  0  0  0  0  0  0  0  0
    9.8017  -16.6605   19.7089 C   0  0  2  0  0  0  0  0  0  0  0  0
    9.2395  -15.6299   20.5496 N   0  0  0  0  0  0  0  0  0  0  0  0
   11.2857  -16.7597   19.9230 C   0  0  0  0  0  0  0  0  0  0  0  0
   11.9494  -17.7079   19.4113 O   0  0  0  0  0  0  0  0  0  0  0  0
    6.5593  -12.6852   18.1697 N   0  0  0  0  0  0  0  0  0  0  0  0
   11.9932  -15.8176   20.6908 C   0  0  2  0  0  0  0  0  0  0  0  0
   13.4592  -15.9389   20.8924 C   0  0  0  0  0  0  0  0  0  0  0  0
   14.1257  -14.9786   19.9371 C   0  0  0  0  0  0  0  0  0  0  0  0
   14.2895  -15.4634   18.5413 C   0  0  0  0  0  0  0  0  0  0  0  0
   15.2111  -14.5345   17.8187 O   0  0  0  0  0  0  0  0  0  0  0  0
   15.2411  -13.3376   18.1617 C   0  0  0  0  0  0  0  0  0  0  0  0
   13.7254  -15.6453   22.3137 O   0  0  0  0  0  0  0  0  0  0  0  0
   13.1861  -14.6356   22.8851 O   0  0  0  0  0  0  0  0  0  0  0  0
   16.0190  -14.9658   16.7939 N   0  0  0  0  0  0  0  0  0  0  0  0
   14.5657  -16.4138   23.1689 C   0  0  0  0  0  0  0  0  0  0  0  0
   14.3036  -16.5496   24.5881 C   0  0  0  0  0  0  0  0  0  0  0  0
   15.3264  -17.3648   25.2729 O   0  0  0  0  0  0  0  0  0  0  0  0
   16.0672  -18.0803   24.5499 O   0  0  0  0  0  0  0  0  0  0  0  0
  2  3  2  0
  2  1  1  0
  4  2  1  0
  5  4  1  0
  6  5  1  0
  7  6  1  0
  8 10  1  0
  8  7  1  0
  8  9  1  1
 10 12  1  0
 11 10  2  0
 12 13  1  0
 13 14  1  6
 14 15  1  0
 16 17  2  0
 16 15  1  0
 18 13  1  0
 19 18  2  0
 20 16  1  0
 21 18  1  0
 22 21  1  0
 23 22  1  0
 24 23  2  0
 25 23  1  0
M  END
$$$$
