REG.pdb
     RDKit          3D

 25 24  0  0  1  0  0  0  0  0999 V2000
    8.9542  -13.5374   20.4764 N   0  0  0  0  0  0  0  0  0  0  0  0
    8.4374  -13.4569   19.1439 C   0  0  0  0  0  0  0  0  0  0  0  0
    7.9000  -12.3688   18.7070 N   0  0  0  0  0  0  0  0  0  0  0  0
    8.4971  -14.5663   18.2602 N   0  0  0  0  0  0  0  0  0  0  0  0
    8.9330  -15.8457   18.7234 C   0  0  0  0  0  0  0  0  0  0  0  0
    8.1364  -16.4311   19.8421 C   0  0  0  0  0  0  0  0  0  0  0  0
    8.6865  -17.8400   20.0951 C   0  0  0  0  0  0  0  0  0  0  0  0
    7.9774  -18.4479   21.2860 C   0  0  2  0  0  0  0  0  0  0  0  0
    6.5430  -18.3468   21.1545 N   0  0  0  0  0  0  0  0  0  0  0  0
    8.4420  -17.7321   22.5227 C   0  0  0  0  0  0  0  0  0  0  0  0
    7.6940  -16.8907   23.1005 O   0  0  0  0  0  0  0  0  0  0  0  0
    7.4793  -12.2687   17.7698 N   0  0  0  0  0  0  0  0  0  0  0  0
    9.7105  -17.9610   23.0849 C   0  0  2  0  0  0  0  0  0  0  0  0
   10.1290  -17.2786   24.3354 C   0  0  0  0  0  0  0  0  0  0  0  0
   10.5364  -18.3499   25.3179 C   0  0  0  0  0  0  0  0  0  0  0  0
   11.1707  -17.8692   26.5735 C   0  0  0  0  0  0  0  0  0  0  0  0
   11.5495  -19.0550   27.4009 O   0  0  0  0  0  0  0  0  0  0  0  0
   11.2788  -20.1925   26.9723 C   0  0  0  0  0  0  0  0  0  0  0  0
   11.2209  -16.3529   23.9776 O   0  0  0  0  0  0  0  0  0  0  0  0
   11.5370  -15.3842   24.7513 O   0  0  0  0  0  0  0  0  0  0  0  0
   12.1839  -18.9212   28.6128 N   0  0  0  0  0  0  0  0  0  0  0  0
   12.0095  -16.4294   22.7943 C   0  0  0  0  0  0  0  0  0  0  0  0
   12.1028  -15.3272   21.8575 C   0  0  0  0  0  0  0  0  0  0  0  0
   13.1015  -15.5731   20.7983 O   0  0  0  0  0  0  0  0  0  0  0  0
   12.7090  -16.1865   19.7720 O   0  0  0  0  0  0  0  0  0  0  0  0
  2  3  2  0
  2  1  1  0
  4  2  1  0
  5  4  1  0
  6  5  1  0
  7  6  1  0
  8 10  1  0
  8  7  1  0
  8  9  1  6
 10 12  1  0
 11 10  2  0
 12 13  1  0
 13 14  1  6
 14 15  1  0
 16 17  2  0
 16 15  1  0
 18 13  1  0
 19 18  2  0
 20 16  1  0
 21 18  1  0
 22 21  1  0
 23 22  1  0
 24 23  2  0
 25 23  1  0
M  END
$$$$
