REG.pdb
     RDKit          3D

 25 24  0  0  1  0  0  0  0  0999 V2000
    7.5213  -12.9554   20.5230 N   0  0  0  0  0  0  0  0  0  0  0  0
    7.4211  -13.1441   19.1075 C   0  0  0  0  0  0  0  0  0  0  0  0
    7.2641  -12.1385   18.3152 N   0  0  0  0  0  0  0  0  0  0  0  0
    7.4904  -14.4382   18.5282 N   0  0  0  0  0  0  0  0  0  0  0  0
    7.6469  -15.5976   19.3483 C   0  0  0  0  0  0  0  0  0  0  0  0
    8.8099  -16.4714   19.0128 C   0  0  0  0  0  0  0  0  0  0  0  0
    9.8349  -15.5937   18.2841 C   0  0  0  0  0  0  0  0  0  0  0  0
   10.9976  -16.4511   17.8333 C   0  0  2  0  0  0  0  0  0  0  0  0
   10.5647  -17.7805   17.4725 N   0  0  0  0  0  0  0  0  0  0  0  0
   11.9966  -16.5114   18.9540 C   0  0  0  0  0  0  0  0  0  0  0  0
   12.0650  -17.5290   19.7032 O   0  0  0  0  0  0  0  0  0  0  0  0
    7.0959  -12.2241   17.3004 N   0  0  0  0  0  0  0  0  0  0  0  0
   12.8869  -15.4552   19.2174 C   0  0  2  0  0  0  0  0  0  0  0  0
   13.9495  -15.5870   20.2460 C   0  0  0  0  0  0  0  0  0  0  0  0
   14.9978  -14.5429   19.9462 C   0  0  0  0  0  0  0  0  0  0  0  0
   15.8475  -14.8027   18.7543 C   0  0  0  0  0  0  0  0  0  0  0  0
   16.8237  -13.6799   18.6104 O   0  0  0  0  0  0  0  0  0  0  0  0
   17.8644  -13.7030   19.2942 C   0  0  0  0  0  0  0  0  0  0  0  0
   13.3012  -15.4189   21.5607 O   0  0  0  0  0  0  0  0  0  0  0  0
   12.3607  -14.5666   21.7219 O   0  0  0  0  0  0  0  0  0  0  0  0
   16.6023  -12.6319   17.7493 N   0  0  0  0  0  0  0  0  0  0  0  0
   13.6276  -16.1501   22.7383 C   0  0  0  0  0  0  0  0  0  0  0  0
   12.8942  -15.9833   23.9774 C   0  0  0  0  0  0  0  0  0  0  0  0
   13.5206  -16.7053   25.1026 O   0  0  0  0  0  0  0  0  0  0  0  0
   14.4819  -17.4697   24.8288 O   0  0  0  0  0  0  0  0  0  0  0  0
  2  3  2  0
  2  1  1  0
  4  2  1  0
  5  4  1  0
  6  5  1  0
  7  6  1  0
  8 10  1  0
  8  7  1  0
  8  9  1  1
 10 12  1  0
 11 10  2  0
 12 13  1  0
 13 14  1  6
 14 15  1  0
 16 17  2  0
 16 15  1  0
 18 13  1  0
 19 18  2  0
 20 16  1  0
 21 18  1  0
 22 21  1  0
 23 22  1  0
 24 23  2  0
 25 23  1  0
M  END
$$$$
