REG.pdb
     RDKit          3D

 25 24  0  0  1  0  0  0  0  0999 V2000
   10.1249  -13.6972   19.8751 N   0  0  0  0  0  0  0  0  0  0  0  0
    9.1569  -13.0835   19.0176 C   0  0  0  0  0  0  0  0  0  0  0  0
    9.5196  -12.4687   17.9433 N   0  0  0  0  0  0  0  0  0  0  0  0
    7.7701  -13.1291   19.3174 N   0  0  0  0  0  0  0  0  0  0  0  0
    7.2970  -13.8101   20.4810 C   0  0  0  0  0  0  0  0  0  0  0  0
    6.3563  -14.9412   20.2270 C   0  0  0  0  0  0  0  0  0  0  0  0
    7.1961  -16.2240   20.1935 C   0  0  0  0  0  0  0  0  0  0  0  0
    7.5158  -16.6503   21.6099 C   0  0  2  0  0  0  0  0  0  0  0  0
    7.2657  -15.5843   22.5513 N   0  0  0  0  0  0  0  0  0  0  0  0
    8.9593  -17.0649   21.6592 C   0  0  0  0  0  0  0  0  0  0  0  0
    9.3923  -17.9850   20.9062 O   0  0  0  0  0  0  0  0  0  0  0  0
    8.8667  -11.9851   17.3067 N   0  0  0  0  0  0  0  0  0  0  0  0
    9.8801  -16.4584   22.5321 C   0  0  1  0  0  0  0  0  0  0  0  0
   11.2658  -16.9754   22.6641 C   0  0  0  0  0  0  0  0  0  0  0  0
   12.1932  -15.9249   22.1025 C   0  0  0  0  0  0  0  0  0  0  0  0
   13.6437  -16.2458   22.1581 C   0  0  0  0  0  0  0  0  0  0  0  0
   14.4020  -15.1436   21.4914 O   0  0  0  0  0  0  0  0  0  0  0  0
   14.1538  -14.8853   20.2986 C   0  0  0  0  0  0  0  0  0  0  0  0
   11.4860  -17.2601   24.0951 O   0  0  0  0  0  0  0  0  0  0  0  0
   11.3680  -16.3355   24.9715 O   0  0  0  0  0  0  0  0  0  0  0  0
   15.3582  -14.4148   22.1574 N   0  0  0  0  0  0  0  0  0  0  0  0
   11.8330  -18.5305   24.6371 C   0  0  0  0  0  0  0  0  0  0  0  0
   11.8589  -18.7783   26.0650 C   0  0  0  0  0  0  0  0  0  0  0  0
   13.1681  -18.4576   26.6672 O   0  0  0  0  0  0  0  0  0  0  0  0
   14.0643  -18.0284   25.8951 O   0  0  0  0  0  0  0  0  0  0  0  0
  2  3  2  0
  2  1  1  0
  4  2  1  0
  5  4  1  0
  6  5  1  0
  7  6  1  0
  8 10  1  0
  8  7  1  0
  8  9  1  1
 10 12  1  0
 11 10  2  0
 12 13  1  0
 13 14  1  6
 14 15  1  0
 16 17  2  0
 16 15  1  0
 18 13  1  0
 19 18  2  0
 20 16  1  0
 21 18  1  0
 22 21  1  0
 23 22  1  0
 24 23  2  0
 25 23  1  0
M  END
$$$$
