REG.pdb
     RDKit          3D

 25 24  0  0  1  0  0  0  0  0999 V2000
    8.1415  -12.8354   17.1436 N   0  0  0  0  0  0  0  0  0  0  0  0
    8.0051  -12.9847   18.5606 C   0  0  0  0  0  0  0  0  0  0  0  0
    8.6031  -12.1796   19.3716 N   0  0  0  0  0  0  0  0  0  0  0  0
    7.2110  -14.0192   19.1213 N   0  0  0  0  0  0  0  0  0  0  0  0
    7.0473  -14.1281   20.5365 C   0  0  0  0  0  0  0  0  0  0  0  0
    8.2977  -14.3832   21.3114 C   0  0  0  0  0  0  0  0  0  0  0  0
    8.2626  -15.8527   21.7486 C   0  0  0  0  0  0  0  0  0  0  0  0
    9.2232  -16.6520   20.8951 C   0  0  2  0  0  0  0  0  0  0  0  0
    8.5342  -17.6687   20.1356 N   0  0  0  0  0  0  0  0  0  0  0  0
   10.2452  -17.2777   21.8016 C   0  0  0  0  0  0  0  0  0  0  0  0
    9.9982  -18.3660   22.3983 O   0  0  0  0  0  0  0  0  0  0  0  0
    8.5834  -12.2753   20.3992 N   0  0  0  0  0  0  0  0  0  0  0  0
   11.5033  -16.6903   22.0250 C   0  0  2  0  0  0  0  0  0  0  0  0
   12.5050  -17.3374   22.9096 C   0  0  0  0  0  0  0  0  0  0  0  0
   13.7969  -16.5705   22.7628 C   0  0  0  0  0  0  0  0  0  0  0  0
   14.9494  -17.0879   23.5465 C   0  0  0  0  0  0  0  0  0  0  0  0
   16.1527  -16.2602   23.2286 O   0  0  0  0  0  0  0  0  0  0  0  0
   16.6507  -15.5605   24.1305 C   0  0  0  0  0  0  0  0  0  0  0  0
   11.9517  -17.3151   24.2773 O   0  0  0  0  0  0  0  0  0  0  0  0
   11.4756  -16.2358   24.7726 O   0  0  0  0  0  0  0  0  0  0  0  0
   16.7177  -16.2527   21.9757 N   0  0  0  0  0  0  0  0  0  0  0  0
   11.8840  -18.4341   25.1556 C   0  0  0  0  0  0  0  0  0  0  0  0
   11.4234  -18.3127   26.5246 C   0  0  0  0  0  0  0  0  0  0  0  0
   12.4416  -18.7487   27.5007 O   0  0  0  0  0  0  0  0  0  0  0  0
   13.5365  -19.1638   27.0398 O   0  0  0  0  0  0  0  0  0  0  0  0
  2  3  2  0
  2  1  1  0
  4  2  1  0
  5  4  1  0
  6  5  1  0
  7  6  1  0
  8 10  1  0
  8  7  1  0
  8  9  1  1
 10 12  1  0
 11 10  2  0
 12 13  1  0
 13 14  1  6
 14 15  1  0
 16 17  2  0
 16 15  1  0
 18 13  1  0
 19 18  2  0
 20 16  1  0
 21 18  1  0
 22 21  1  0
 23 22  1  0
 24 23  2  0
 25 23  1  0
M  END
$$$$
