REG.pdb
     RDKit          3D

 25 24  0  0  1  0  0  0  0  0999 V2000
    8.6415  -12.6794   17.4030 N   0  0  0  0  0  0  0  0  0  0  0  0
    7.8400  -12.2641   18.5139 C   0  0  0  0  0  0  0  0  0  0  0  0
    8.2126  -11.2888   19.2711 N   0  0  0  0  0  0  0  0  0  0  0  0
    6.6125  -12.9079   18.8206 N   0  0  0  0  0  0  0  0  0  0  0  0
    6.5971  -14.1614   19.5061 C   0  0  0  0  0  0  0  0  0  0  0  0
    7.3763  -15.2585   18.8594 C   0  0  0  0  0  0  0  0  0  0  0  0
    8.3361  -15.8122   19.9195 C   0  0  0  0  0  0  0  0  0  0  0  0
    9.1627  -16.9257   19.3137 C   0  0  2  0  0  0  0  0  0  0  0  0
    8.4054  -18.1511   19.2137 N   0  0  0  0  0  0  0  0  0  0  0  0
   10.3769  -17.1290   20.1753 C   0  0  0  0  0  0  0  0  0  0  0  0
   10.4507  -18.1163   20.9634 O   0  0  0  0  0  0  0  0  0  0  0  0
    7.6484  -10.9148   20.0503 N   0  0  0  0  0  0  0  0  0  0  0  0
   11.4693  -16.2439   20.1455 C   0  0  2  0  0  0  0  0  0  0  0  0
   12.6445  -16.4469   21.0301 C   0  0  0  0  0  0  0  0  0  0  0  0
   13.7286  -15.5073   20.5605 C   0  0  0  0  0  0  0  0  0  0  0  0
   14.9048  -15.3751   21.4601 C   0  0  0  0  0  0  0  0  0  0  0  0
   15.9053  -14.4759   20.8083 O   0  0  0  0  0  0  0  0  0  0  0  0
   15.5273  -13.7366   19.8801 C   0  0  0  0  0  0  0  0  0  0  0  0
   12.1938  -16.1927   22.4119 O   0  0  0  0  0  0  0  0  0  0  0  0
   11.4046  -15.2203   22.6739 O   0  0  0  0  0  0  0  0  0  0  0  0
   17.2208  -14.4459   21.2052 N   0  0  0  0  0  0  0  0  0  0  0  0
   12.5629  -16.9620   23.5521 C   0  0  0  0  0  0  0  0  0  0  0  0
   12.0147  -16.7011   24.8683 C   0  0  0  0  0  0  0  0  0  0  0  0
   12.5827  -17.5913   25.9001 O   0  0  0  0  0  0  0  0  0  0  0  0
   13.3815  -18.4825   25.5113 O   0  0  0  0  0  0  0  0  0  0  0  0
  2  3  2  0
  2  1  1  0
  4  2  1  0
  5  4  1  0
  6  5  1  0
  7  6  1  0
  8 10  1  0
  8  7  1  0
  8  9  1  1
 10 12  1  0
 11 10  2  0
 12 13  1  0
 13 14  1  6
 14 15  1  0
 16 17  2  0
 16 15  1  0
 18 13  1  0
 19 18  2  0
 20 16  1  0
 21 18  1  0
 22 21  1  0
 23 22  1  0
 24 23  2  0
 25 23  1  0
M  END
$$$$
