REG.pdb
     RDKit          3D

 25 24  0  0  1  0  0  0  0  0999 V2000
    8.2641  -13.3802   16.0303 N   0  0  0  0  0  0  0  0  0  0  0  0
    7.7419  -13.7440   17.3125 C   0  0  0  0  0  0  0  0  0  0  0  0
    7.6356  -12.8710   18.2559 N   0  0  0  0  0  0  0  0  0  0  0  0
    7.3246  -15.0721   17.5902 N   0  0  0  0  0  0  0  0  0  0  0  0
    7.4603  -15.6206   18.9025 C   0  0  0  0  0  0  0  0  0  0  0  0
    8.8501  -15.6511   19.4468 C   0  0  0  0  0  0  0  0  0  0  0  0
    8.7695  -16.2687   20.8482 C   0  0  0  0  0  0  0  0  0  0  0  0
    7.8139  -15.4593   21.6978 C   0  0  2  0  0  0  0  0  0  0  0  0
    7.3999  -14.2520   21.0225 N   0  0  0  0  0  0  0  0  0  0  0  0
    8.5040  -15.1264   22.9904 C   0  0  0  0  0  0  0  0  0  0  0  0
    9.5510  -14.4158   22.9983 O   0  0  0  0  0  0  0  0  0  0  0  0
    7.3235  -13.0923   19.2146 N   0  0  0  0  0  0  0  0  0  0  0  0
    8.0248  -15.5833   24.2310 C   0  0  1  0  0  0  0  0  0  0  0  0
    8.6917  -15.1962   25.4999 C   0  0  0  0  0  0  0  0  0  0  0  0
    7.8082  -14.1787   26.1803 C   0  0  0  0  0  0  0  0  0  0  0  0
    7.6066  -12.9022   25.4454 C   0  0  0  0  0  0  0  0  0  0  0  0
    6.7079  -12.0231   26.2538 O   0  0  0  0  0  0  0  0  0  0  0  0
    6.1923  -12.4871   27.2882 C   0  0  0  0  0  0  0  0  0  0  0  0
    8.8855  -16.4331   26.2807 O   0  0  0  0  0  0  0  0  0  0  0  0
    8.1911  -17.4786   26.0327 O   0  0  0  0  0  0  0  0  0  0  0  0
    6.4392  -10.7263   25.8863 N   0  0  0  0  0  0  0  0  0  0  0  0
    9.8210  -16.5979   27.3418 C   0  0  0  0  0  0  0  0  0  0  0  0
   11.2268  -16.8527   27.0974 C   0  0  0  0  0  0  0  0  0  0  0  0
   11.5183  -18.2916   26.9420 O   0  0  0  0  0  0  0  0  0  0  0  0
   11.8687  -18.9200   27.9744 O   0  0  0  0  0  0  0  0  0  0  0  0
  2  3  2  0
  2  1  1  0
  4  2  1  0
  5  4  1  0
  6  5  1  0
  7  6  1  0
  8 10  1  0
  8  7  1  0
  8  9  1  6
 10 12  1  0
 11 10  2  0
 12 13  1  0
 13 14  1  1
 14 15  1  0
 16 17  2  0
 16 15  1  0
 18 13  1  0
 19 18  2  0
 20 16  1  0
 21 18  1  0
 22 21  1  0
 23 22  1  0
 24 23  2  0
 25 23  1  0
M  END
$$$$
