ENH.pdb
     RDKit          3D

 28 28  0  0  1  0  0  0  0  0999 V2000
   10.6025  -16.1163   18.6343 N   0  0  0  0  0  0  0  0  0  0  0  0
   11.3390  -16.4655   19.8663 C   0  0  1  0  0  0  0  0  0  0  0  0
   12.3218  -15.3650   20.0817 C   0  0  0  0  0  0  0  0  0  0  0  0
   13.4993  -15.3436   19.1758 C   0  0  0  0  0  0  0  0  0  0  0  0
   14.4140  -14.2340   19.4697 C   0  0  0  0  0  0  0  0  0  0  0  0
   14.3958  -13.6114   20.5422 O   0  0  0  0  0  0  0  0  0  0  0  0
   10.3213  -16.5446   20.9484 C   0  0  0  0  0  0  0  0  0  0  0  0
    9.2957  -15.8249   20.8824 O   0  0  0  0  0  0  0  0  0  0  0  0
   15.3558  -13.8556   18.4925 O   0  0  0  0  0  0  0  0  0  0  0  0
    8.6778  -20.1221   21.0788 N   0  0  0  0  0  0  0  0  0  0  0  0
    8.2422  -19.2786   22.1222 C   0  0  0  0  0  0  0  0  0  0  0  0
    7.0885  -18.7944   22.1100 O   0  0  0  0  0  0  0  0  0  0  0  0
    9.1407  -18.9532   23.2465 C   0  0  0  0  0  0  0  0  0  0  0  0
    9.5630  -17.5043   23.1556 C   0  0  2  0  0  0  0  0  0  0  0  0
   10.4742  -17.4013   22.0419 N   0  0  0  0  0  0  0  0  0  0  0  0
   10.0981  -16.9776   24.4074 C   0  0  0  0  0  0  0  0  0  0  0  0
   11.1689  -17.4507   24.8629 O   0  0  0  0  0  0  0  0  0  0  0  0
    9.4306  -15.9432   25.1152 N   0  0  0  0  0  0  0  0  0  0  0  0
    9.4313  -15.8335   26.5719 C   0  0  1  0  0  0  0  0  0  0  0  0
    8.0359  -15.4387   27.0422 C   0  0  0  0  0  0  0  0  0  0  0  0
    7.6206  -14.1272   26.4895 C   0  0  0  0  0  0  0  0  0  0  0  0
    8.3862  -13.2421   25.7338 C   0  0  0  0  0  0  0  0  0  0  0  0
    7.6598  -12.1567   25.4150 N   0  0  0  0  0  0  0  0  0  0  0  0
    6.4443  -12.3497   25.9625 C   0  0  0  0  0  0  0  0  0  0  0  0
    6.4143  -13.5295   26.6081 N   0  0  0  0  0  0  0  0  0  0  0  0
    9.9392  -17.0442   27.2162 C   0  0  0  0  0  0  0  0  0  0  0  0
   10.1112  -17.0539   28.4584 O   0  0  0  0  0  0  0  0  0  0  0  0
   10.2417  -18.1919   26.5112 O   0  0  0  0  0  0  0  0  0  0  0  0
  2  1  1  6
  2  3  1  0
  4  3  1  0
  5  6  2  0
  5  4  1  0
  7 15  1  0
  7  2  1  0
  8  7  2  0
  9  5  1  0
 11 10  1  0
 12 11  2  0
 14 13  1  1
 13 11  1  0
 14 15  1  0
 16 14  1  0
 17 16  2  0
 18 16  1  0
 19 20  1  1
 19 18  1  0
 20 21  1  0
 21 22  2  0
 22 23  1  0
 24 23  1  0
 25 21  1  0
 25 24  2  0
 26 19  1  0
 27 26  2  0
 28 26  1  0
M  END
$$$$
