ENH.pdb
     RDKit          3D

 28 28  0  0  1  0  0  0  0  0999 V2000
   10.9102  -16.1235   16.0959 N   0  0  0  0  0  0  0  0  0  0  0  0
   10.1593  -16.8983   17.1049 C   0  0  1  0  0  0  0  0  0  0  0  0
   10.9070  -18.1766   17.2793 C   0  0  0  0  0  0  0  0  0  0  0  0
   10.1542  -19.4263   16.9984 C   0  0  0  0  0  0  0  0  0  0  0  0
    9.4874  -19.3986   15.6911 C   0  0  0  0  0  0  0  0  0  0  0  0
    9.4932  -18.4024   14.9525 O   0  0  0  0  0  0  0  0  0  0  0  0
   10.1480  -16.0684   18.3395 C   0  0  0  0  0  0  0  0  0  0  0  0
   11.2319  -15.6350   18.7996 O   0  0  0  0  0  0  0  0  0  0  0  0
    8.8089  -20.5527   15.2522 O   0  0  0  0  0  0  0  0  0  0  0  0
    8.7404  -12.9870   18.4524 N   0  0  0  0  0  0  0  0  0  0  0  0
    7.5789  -13.2072   19.2222 C   0  0  0  0  0  0  0  0  0  0  0  0
    6.5681  -12.4857   19.0704 O   0  0  0  0  0  0  0  0  0  0  0  0
    7.5369  -14.2934   20.2201 C   0  0  0  0  0  0  0  0  0  0  0  0
    8.8650  -15.0155   20.2403 C   0  0  2  0  0  0  0  0  0  0  0  0
    8.9599  -15.7551   19.0053 N   0  0  0  0  0  0  0  0  0  0  0  0
    9.0621  -15.8317   21.4343 C   0  0  0  0  0  0  0  0  0  0  0  0
    8.4019  -16.8921   21.5673 O   0  0  0  0  0  0  0  0  0  0  0  0
    9.9845  -15.4480   22.4435 N   0  0  0  0  0  0  0  0  0  0  0  0
   10.2361  -16.2367   23.6471 C   0  0  1  0  0  0  0  0  0  0  0  0
   11.6739  -16.0091   24.1002 C   0  0  0  0  0  0  0  0  0  0  0  0
   12.6497  -16.5402   23.1186 C   0  0  0  0  0  0  0  0  0  0  0  0
   12.6033  -17.7608   22.4486 C   0  0  0  0  0  0  0  0  0  0  0  0
   13.6683  -17.8850   21.6377 N   0  0  0  0  0  0  0  0  0  0  0  0
   14.3849  -16.7547   21.7902 C   0  0  0  0  0  0  0  0  0  0  0  0
   13.7793  -15.9441   22.6768 N   0  0  0  0  0  0  0  0  0  0  0  0
    9.2498  -15.9747   24.6948 C   0  0  0  0  0  0  0  0  0  0  0  0
    8.4036  -15.0642   24.5289 O   0  0  0  0  0  0  0  0  0  0  0  0
    9.2065  -16.6929   25.8729 O   0  0  0  0  0  0  0  0  0  0  0  0
  2  1  1  6
  2  3  1  0
  4  3  1  0
  5  6  2  0
  5  4  1  0
  7 15  1  0
  7  2  1  0
  8  7  2  0
  9  5  1  0
 11 10  1  0
 12 11  2  0
 14 13  1  1
 13 11  1  0
 14 15  1  0
 16 14  1  0
 17 16  2  0
 18 16  1  0
 19 20  1  1
 19 18  1  0
 20 21  1  0
 21 22  2  0
 22 23  1  0
 24 23  1  0
 25 21  1  0
 25 24  2  0
 26 19  1  0
 27 26  2  0
 28 26  1  0
M  END
$$$$
