ENH.pdb
     RDKit          3D

 28 28  0  0  1  0  0  0  0  0999 V2000
    8.2913  -17.8400   18.7195 N   0  0  0  0  0  0  0  0  0  0  0  0
    9.7510  -17.6710   18.5670 C   0  0  1  0  0  0  0  0  0  0  0  0
   10.0117  -17.6682   17.0989 C   0  0  0  0  0  0  0  0  0  0  0  0
    8.8215  -17.5577   16.2164 C   0  0  0  0  0  0  0  0  0  0  0  0
    9.1831  -17.4071   14.8019 C   0  0  0  0  0  0  0  0  0  0  0  0
    8.8474  -16.4263   14.1211 O   0  0  0  0  0  0  0  0  0  0  0  0
   10.0867  -16.3727   19.2109 C   0  0  0  0  0  0  0  0  0  0  0  0
   11.2848  -16.0040   19.2645 O   0  0  0  0  0  0  0  0  0  0  0  0
    9.9446  -18.4198   14.1858 O   0  0  0  0  0  0  0  0  0  0  0  0
    6.9067  -13.8242   17.9222 N   0  0  0  0  0  0  0  0  0  0  0  0
    8.0911  -13.3610   18.5325 C   0  0  0  0  0  0  0  0  0  0  0  0
    9.0465  -12.9488   17.8376 O   0  0  0  0  0  0  0  0  0  0  0  0
    8.2231  -13.3547   20.0021 C   0  0  0  0  0  0  0  0  0  0  0  0
    9.3418  -14.2840   20.4152 C   0  0  2  0  0  0  0  0  0  0  0  0
    9.1022  -15.5470   19.7604 N   0  0  0  0  0  0  0  0  0  0  0  0
    9.5022  -14.3897   21.8622 C   0  0  0  0  0  0  0  0  0  0  0  0
    9.7127  -13.3487   22.5328 O   0  0  0  0  0  0  0  0  0  0  0  0
    9.4242  -15.6452   22.5210 N   0  0  0  0  0  0  0  0  0  0  0  0
    9.6451  -15.8179   23.9548 C   0  0  1  0  0  0  0  0  0  0  0  0
    8.3100  -16.1020   24.6337 C   0  0  0  0  0  0  0  0  0  0  0  0
    7.5551  -14.8552   24.9046 C   0  0  0  0  0  0  0  0  0  0  0  0
    7.9725  -13.5441   24.6862 C   0  0  0  0  0  0  0  0  0  0  0  0
    7.0083  -12.6833   25.0560 N   0  0  0  0  0  0  0  0  0  0  0  0
    5.9880  -13.4393   25.5051 C   0  0  0  0  0  0  0  0  0  0  0  0
    6.3096  -14.7426   25.4168 N   0  0  0  0  0  0  0  0  0  0  0  0
   10.6658  -16.8261   24.2384 C   0  0  0  0  0  0  0  0  0  0  0  0
   10.9795  -17.6513   23.3476 O   0  0  0  0  0  0  0  0  0  0  0  0
   11.3086  -16.9125   25.4570 O   0  0  0  0  0  0  0  0  0  0  0  0
  2  1  1  6
  2  3  1  0
  4  3  1  0
  5  6  2  0
  5  4  1  0
  7 15  1  0
  7  2  1  0
  8  7  2  0
  9  5  1  0
 11 10  1  0
 12 11  2  0
 14 13  1  1
 13 11  1  0
 14 15  1  0
 16 14  1  0
 17 16  2  0
 18 16  1  0
 19 20  1  1
 19 18  1  0
 20 21  1  0
 21 22  2  0
 22 23  1  0
 24 23  1  0
 25 21  1  0
 25 24  2  0
 26 19  1  0
 27 26  2  0
 28 26  1  0
M  END
$$$$
