ENH.pdb
     RDKit          3D

 28 28  0  0  1  0  0  0  0  0999 V2000
    9.4994  -18.5052   16.9977 N   0  0  0  0  0  0  0  0  0  0  0  0
    8.3397  -17.5902   17.0108 C   0  0  1  0  0  0  0  0  0  0  0  0
    7.4078  -18.0951   15.9619 C   0  0  0  0  0  0  0  0  0  0  0  0
    8.0336  -18.6737   14.7448 C   0  0  0  0  0  0  0  0  0  0  0  0
    7.0446  -19.0351   13.7223 C   0  0  0  0  0  0  0  0  0  0  0  0
    6.5290  -18.2039   12.9598 O   0  0  0  0  0  0  0  0  0  0  0  0
    7.7618  -17.6743   18.3790 C   0  0  0  0  0  0  0  0  0  0  0  0
    6.7294  -17.0158   18.6525 O   0  0  0  0  0  0  0  0  0  0  0  0
    6.6604  -20.3849   13.5987 O   0  0  0  0  0  0  0  0  0  0  0  0
    7.2471  -21.8664   19.4495 N   0  0  0  0  0  0  0  0  0  0  0  0
    6.8964  -20.8407   20.3523 C   0  0  0  0  0  0  0  0  0  0  0  0
    5.6953  -20.5574   20.5590 O   0  0  0  0  0  0  0  0  0  0  0  0
    7.9413  -20.0842   21.0686 C   0  0  0  0  0  0  0  0  0  0  0  0
    7.8360  -18.6173   20.7184 C   0  0  2  0  0  0  0  0  0  0  0  0
    8.3374  -18.4692   19.3738 N   0  0  0  0  0  0  0  0  0  0  0  0
    8.4840  -17.7420   21.6903 C   0  0  0  0  0  0  0  0  0  0  0  0
    8.0952  -17.7588   22.8847 O   0  0  0  0  0  0  0  0  0  0  0  0
    9.5426  -16.8757   21.3090 N   0  0  0  0  0  0  0  0  0  0  0  0
   10.1504  -15.9005   22.2111 C   0  0  1  0  0  0  0  0  0  0  0  0
    9.1107  -14.8487   22.5811 C   0  0  0  0  0  0  0  0  0  0  0  0
    8.6183  -14.1195   21.3880 C   0  0  0  0  0  0  0  0  0  0  0  0
    9.0552  -14.2499   20.0715 C   0  0  0  0  0  0  0  0  0  0  0  0
    8.3656  -13.4194   19.2701 N   0  0  0  0  0  0  0  0  0  0  0  0
    7.4989  -12.7674   20.0689 C   0  0  0  0  0  0  0  0  0  0  0  0
    7.6454  -13.1827   21.3400 N   0  0  0  0  0  0  0  0  0  0  0  0
   10.7714  -16.5357   23.3729 C   0  0  0  0  0  0  0  0  0  0  0  0
   11.4082  -15.8311   24.1919 O   0  0  0  0  0  0  0  0  0  0  0  0
   10.6876  -17.8925   23.6131 O   0  0  0  0  0  0  0  0  0  0  0  0
  2  1  1  1
  2  3  1  0
  4  3  1  0
  5  6  2  0
  5  4  1  0
  7 15  1  0
  7  2  1  0
  8  7  2  0
  9  5  1  0
 11 10  1  0
 12 11  2  0
 14 13  1  1
 13 11  1  0
 14 15  1  0
 16 14  1  0
 17 16  2  0
 18 16  1  0
 19 20  1  1
 19 18  1  0
 20 21  1  0
 21 22  2  0
 22 23  1  0
 24 23  1  0
 25 21  1  0
 25 24  2  0
 26 19  1  0
 27 26  2  0
 28 26  1  0
M  END
$$$$
