ENH.pdb
     RDKit          3D

 28 28  0  0  1  0  0  0  0  0999 V2000
   10.0065  -19.4445   17.6127 N   0  0  0  0  0  0  0  0  0  0  0  0
   10.5132  -19.2613   18.9882 C   0  0  1  0  0  0  0  0  0  0  0  0
   11.6897  -18.3524   18.8736 C   0  0  0  0  0  0  0  0  0  0  0  0
   12.9118  -18.9279   18.2549 C   0  0  0  0  0  0  0  0  0  0  0  0
   14.0096  -17.9572   18.1715 C   0  0  0  0  0  0  0  0  0  0  0  0
   14.6127  -17.5345   19.1693 O   0  0  0  0  0  0  0  0  0  0  0  0
    9.3963  -18.6577   19.7636 C   0  0  0  0  0  0  0  0  0  0  0  0
    8.5326  -17.9716   19.1658 O   0  0  0  0  0  0  0  0  0  0  0  0
   14.3983  -17.4814   16.9036 O   0  0  0  0  0  0  0  0  0  0  0  0
    6.4859  -19.3202   25.0255 N   0  0  0  0  0  0  0  0  0  0  0  0
    6.5919  -19.0127   23.6528 C   0  0  0  0  0  0  0  0  0  0  0  0
    5.6852  -18.3767   23.0708 O   0  0  0  0  0  0  0  0  0  0  0  0
    7.7752  -19.4365   22.8799 C   0  0  0  0  0  0  0  0  0  0  0  0
    8.2124  -18.3148   21.9655 C   0  0  2  0  0  0  0  0  0  0  0  0
    9.2798  -18.8332   21.1451 N   0  0  0  0  0  0  0  0  0  0  0  0
    8.5572  -17.0881   22.6777 C   0  0  0  0  0  0  0  0  0  0  0  0
    9.6618  -17.0143   23.2712 O   0  0  0  0  0  0  0  0  0  0  0  0
    7.6677  -15.9817   22.7101 N   0  0  0  0  0  0  0  0  0  0  0  0
    8.0264  -14.6753   23.2568 C   0  0  1  0  0  0  0  0  0  0  0  0
    7.2935  -13.5903   22.4758 C   0  0  0  0  0  0  0  0  0  0  0  0
    7.7335  -13.5396   21.0611 C   0  0  0  0  0  0  0  0  0  0  0  0
    7.1250  -12.8648   20.0050 C   0  0  0  0  0  0  0  0  0  0  0  0
    7.8208  -13.0558   18.8707 N   0  0  0  0  0  0  0  0  0  0  0  0
    8.8615  -13.8442   19.2020 C   0  0  0  0  0  0  0  0  0  0  0  0
    8.8149  -14.1377   20.5141 N   0  0  0  0  0  0  0  0  0  0  0  0
    7.8038  -14.6012   24.7003 C   0  0  0  0  0  0  0  0  0  0  0  0
    7.1555  -15.5110   25.2701 O   0  0  0  0  0  0  0  0  0  0  0  0
    8.2808  -13.5628   25.4749 O   0  0  0  0  0  0  0  0  0  0  0  0
  2  1  1  6
  2  3  1  0
  4  3  1  0
  5  6  2  0
  5  4  1  0
  7 15  1  0
  7  2  1  0
  8  7  2  0
  9  5  1  0
 11 10  1  0
 12 11  2  0
 14 13  1  1
 13 11  1  0
 14 15  1  0
 16 14  1  0
 17 16  2  0
 18 16  1  0
 19 20  1  6
 19 18  1  0
 20 21  1  0
 21 22  2  0
 22 23  1  0
 24 23  1  0
 25 21  1  0
 25 24  2  0
 26 19  1  0
 27 26  2  0
 28 26  1  0
M  END
$$$$
