ENH.pdb
     RDKit          3D

 28 28  0  0  1  0  0  0  0  0999 V2000
   11.6047  -14.9801   17.6272 N   0  0  0  0  0  0  0  0  0  0  0  0
   12.3742  -15.4319   18.8046 C   0  0  1  0  0  0  0  0  0  0  0  0
   13.7127  -14.7846   18.6919 C   0  0  0  0  0  0  0  0  0  0  0  0
   14.6401  -15.3555   17.6812 C   0  0  0  0  0  0  0  0  0  0  0  0
   15.9364  -14.6676   17.6563 C   0  0  0  0  0  0  0  0  0  0  0  0
   16.0435  -13.4325   17.6194 O   0  0  0  0  0  0  0  0  0  0  0  0
   11.6138  -14.9716   19.9974 C   0  0  0  0  0  0  0  0  0  0  0  0
   12.2371  -14.6461   21.0365 O   0  0  0  0  0  0  0  0  0  0  0  0
   17.1141  -15.4408   17.6744 O   0  0  0  0  0  0  0  0  0  0  0  0
    7.3899  -13.2691   18.4048 N   0  0  0  0  0  0  0  0  0  0  0  0
    8.0123  -13.1599   19.6660 C   0  0  0  0  0  0  0  0  0  0  0  0
    8.5813  -12.0986   20.0056 O   0  0  0  0  0  0  0  0  0  0  0  0
    8.0025  -14.2967   20.6066 C   0  0  0  0  0  0  0  0  0  0  0  0
    9.4011  -14.5350   21.1292 C   0  0  2  0  0  0  0  0  0  0  0  0
   10.2187  -14.8901   19.9949 N   0  0  0  0  0  0  0  0  0  0  0  0
    9.4541  -15.5019   22.2215 C   0  0  0  0  0  0  0  0  0  0  0  0
    9.7415  -16.6980   21.9673 O   0  0  0  0  0  0  0  0  0  0  0  0
    9.1875  -15.1136   23.5611 N   0  0  0  0  0  0  0  0  0  0  0  0
    9.2429  -16.0351   24.6933 C   0  0  1  0  0  0  0  0  0  0  0  0
   10.1369  -15.4409   25.7758 C   0  0  0  0  0  0  0  0  0  0  0  0
   10.1279  -16.2641   27.0087 C   0  0  0  0  0  0  0  0  0  0  0  0
    9.4618  -17.4691   27.2218 C   0  0  0  0  0  0  0  0  0  0  0  0
    9.6964  -17.9140   28.4685 N   0  0  0  0  0  0  0  0  0  0  0  0
   10.5035  -17.0012   29.0426 C   0  0  0  0  0  0  0  0  0  0  0  0
   10.7661  -16.0094   28.1725 N   0  0  0  0  0  0  0  0  0  0  0  0
    7.9105  -16.3970   25.1759 C   0  0  0  0  0  0  0  0  0  0  0  0
    6.9253  -15.6946   24.8464 O   0  0  0  0  0  0  0  0  0  0  0  0
    7.6843  -17.4904   25.9878 O   0  0  0  0  0  0  0  0  0  0  0  0
  2  1  1  6
  2  3  1  0
  4  3  1  0
  5  6  2  0
  5  4  1  0
  7 15  1  0
  7  2  1  0
  8  7  2  0
  9  5  1  0
 11 10  1  0
 12 11  2  0
 14 13  1  6
 13 11  1  0
 14 15  1  0
 16 14  1  0
 17 16  2  0
 18 16  1  0
 19 20  1  1
 19 18  1  0
 20 21  1  0
 21 22  2  0
 22 23  1  0
 24 23  1  0
 25 21  1  0
 25 24  2  0
 26 19  1  0
 27 26  2  0
 28 26  1  0
M  END
$$$$
