ENH.pdb
     RDKit          3D

 28 28  0  0  1  0  0  0  0  0999 V2000
   11.8443  -20.3258   17.3625 N   0  0  0  0  0  0  0  0  0  0  0  0
   13.1565  -20.2274   18.0340 C   0  0  1  0  0  0  0  0  0  0  0  0
   13.9996  -19.3617   17.1605 C   0  0  0  0  0  0  0  0  0  0  0  0
   14.3900  -19.9310   15.8448 C   0  0  0  0  0  0  0  0  0  0  0  0
   15.1771  -18.9914   15.0374 C   0  0  0  0  0  0  0  0  0  0  0  0
   16.3941  -19.1271   14.8406 O   0  0  0  0  0  0  0  0  0  0  0  0
   12.8952  -19.6166   19.3650 C   0  0  0  0  0  0  0  0  0  0  0  0
   13.0951  -18.3887   19.5285 O   0  0  0  0  0  0  0  0  0  0  0  0
   14.5254  -17.8843   14.4590 O   0  0  0  0  0  0  0  0  0  0  0  0
    9.0737  -18.7174   20.9522 N   0  0  0  0  0  0  0  0  0  0  0  0
    9.7743  -19.9415   20.9209 C   0  0  0  0  0  0  0  0  0  0  0  0
    9.6495  -20.7220   19.9510 O   0  0  0  0  0  0  0  0  0  0  0  0
   10.6669  -20.3218   22.0325 C   0  0  0  0  0  0  0  0  0  0  0  0
   12.0725  -19.8485   21.7393 C   0  0  2  0  0  0  0  0  0  0  0  0
   12.4311  -20.3734   20.4443 N   0  0  0  0  0  0  0  0  0  0  0  0
   13.0261  -20.1770   22.7946 C   0  0  0  0  0  0  0  0  0  0  0  0
   12.9155  -19.6202   23.9151 O   0  0  0  0  0  0  0  0  0  0  0  0
   14.0720  -21.1122   22.5757 N   0  0  0  0  0  0  0  0  0  0  0  0
   15.0866  -21.4349   23.5760 C   0  0  1  0  0  0  0  0  0  0  0  0
   16.0877  -20.2881   23.6580 C   0  0  0  0  0  0  0  0  0  0  0  0
   16.7047  -20.0023   22.3406 C   0  0  0  0  0  0  0  0  0  0  0  0
   16.3799  -20.5669   21.1091 C   0  0  0  0  0  0  0  0  0  0  0  0
   17.1608  -20.0526   20.1432 N   0  0  0  0  0  0  0  0  0  0  0  0
   17.9742  -19.1698   20.7542 C   0  0  0  0  0  0  0  0  0  0  0  0
   17.7057  -19.1349   22.0720 N   0  0  0  0  0  0  0  0  0  0  0  0
   14.4965  -21.7828   24.8681 C   0  0  0  0  0  0  0  0  0  0  0  0
   14.0959  -22.9547   25.0658 O   0  0  0  0  0  0  0  0  0  0  0  0
   14.3586  -20.8692   25.8938 O   0  0  0  0  0  0  0  0  0  0  0  0
  2  1  1  6
  2  3  1  0
  4  3  1  0
  5  6  2  0
  5  4  1  0
  7 15  1  0
  7  2  1  0
  8  7  2  0
  9  5  1  0
 11 10  1  0
 12 11  2  0
 14 13  1  1
 13 11  1  0
 14 15  1  0
 16 14  1  0
 17 16  2  0
 18 16  1  0
 19 20  1  1
 19 18  1  0
 20 21  1  0
 21 22  2  0
 22 23  1  0
 24 23  1  0
 25 21  1  0
 25 24  2  0
 26 19  1  0
 27 26  2  0
 28 26  1  0
M  END
$$$$
