ENH.pdb
     RDKit          3D

 28 28  0  0  1  0  0  0  0  0999 V2000
    9.0912  -19.0337   18.8088 N   0  0  0  0  0  0  0  0  0  0  0  0
   10.2885  -19.3994   18.0245 C   0  0  1  0  0  0  0  0  0  0  0  0
    9.8613  -19.3879   16.5959 C   0  0  0  0  0  0  0  0  0  0  0  0
    8.5283  -18.7977   16.3093 C   0  0  0  0  0  0  0  0  0  0  0  0
    8.2417  -18.7291   14.8714 C   0  0  0  0  0  0  0  0  0  0  0  0
    8.4381  -17.7097   14.1929 O   0  0  0  0  0  0  0  0  0  0  0  0
   11.3122  -18.3627   18.3246 C   0  0  0  0  0  0  0  0  0  0  0  0
   12.2897  -18.2209   17.5508 O   0  0  0  0  0  0  0  0  0  0  0  0
    7.7196  -19.8695   14.2296 O   0  0  0  0  0  0  0  0  0  0  0  0
   11.4144  -12.9247   18.4173 N   0  0  0  0  0  0  0  0  0  0  0  0
   12.1238  -14.1426   18.3578 C   0  0  0  0  0  0  0  0  0  0  0  0
   13.3733  -14.1493   18.2940 O   0  0  0  0  0  0  0  0  0  0  0  0
   11.4031  -15.4302   18.3702 C   0  0  0  0  0  0  0  0  0  0  0  0
   11.8210  -16.2339   19.5806 C   0  0  2  0  0  0  0  0  0  0  0  0
   11.2171  -17.5374   19.4484 N   0  0  0  0  0  0  0  0  0  0  0  0
   11.5241  -15.5709   20.8467 C   0  0  0  0  0  0  0  0  0  0  0  0
   12.0389  -14.4506   21.0869 O   0  0  0  0  0  0  0  0  0  0  0  0
   10.6660  -16.1694   21.8068 N   0  0  0  0  0  0  0  0  0  0  0  0
   10.3203  -15.5425   23.0803 C   0  0  1  0  0  0  0  0  0  0  0  0
    8.8025  -15.4863   23.2120 C   0  0  0  0  0  0  0  0  0  0  0  0
    8.1837  -14.7134   22.1086 C   0  0  0  0  0  0  0  0  0  0  0  0
    8.8307  -13.9678   21.1255 C   0  0  0  0  0  0  0  0  0  0  0  0
    7.9293  -13.4106   20.2983 N   0  0  0  0  0  0  0  0  0  0  0  0
    6.7211  -13.7978   20.7507 C   0  0  0  0  0  0  0  0  0  0  0  0
    6.8668  -14.5793   21.8360 N   0  0  0  0  0  0  0  0  0  0  0  0
   10.9767  -16.1950   24.2127 C   0  0  0  0  0  0  0  0  0  0  0  0
   11.6925  -17.2047   24.0102 O   0  0  0  0  0  0  0  0  0  0  0  0
   10.8433  -15.7450   25.5109 O   0  0  0  0  0  0  0  0  0  0  0  0
  2  1  1  1
  2  3  1  0
  4  3  1  0
  5  6  2  0
  5  4  1  0
  7 15  1  0
  7  2  1  0
  8  7  2  0
  9  5  1  0
 11 10  1  0
 12 11  2  0
 14 13  1  6
 13 11  1  0
 14 15  1  0
 16 14  1  0
 17 16  2  0
 18 16  1  0
 19 20  1  1
 19 18  1  0
 20 21  1  0
 21 22  2  0
 22 23  1  0
 24 23  1  0
 25 21  1  0
 25 24  2  0
 26 19  1  0
 27 26  2  0
 28 26  1  0
M  END
$$$$
