ENH.pdb
     RDKit          3D

 28 28  0  0  1  0  0  0  0  0999 V2000
   16.0418  -13.1800   16.7484 N   0  0  0  0  0  0  0  0  0  0  0  0
   15.8939  -14.5553   17.2671 C   0  0  1  0  0  0  0  0  0  0  0  0
   16.9504  -14.7164   18.3071 C   0  0  0  0  0  0  0  0  0  0  0  0
   16.8727  -13.8017   19.4754 C   0  0  0  0  0  0  0  0  0  0  0  0
   17.9552  -14.0296   20.4401 C   0  0  0  0  0  0  0  0  0  0  0  0
   19.1538  -14.0262   20.1215 O   0  0  0  0  0  0  0  0  0  0  0  0
   14.5192  -14.6400   17.8291 C   0  0  0  0  0  0  0  0  0  0  0  0
   13.9311  -13.5880   18.1780 O   0  0  0  0  0  0  0  0  0  0  0  0
   17.6223  -14.2638   21.7889 O   0  0  0  0  0  0  0  0  0  0  0  0
    9.9350  -16.1575   17.5308 N   0  0  0  0  0  0  0  0  0  0  0  0
   10.6624  -17.3659   17.5051 C   0  0  0  0  0  0  0  0  0  0  0  0
   10.1353  -18.4175   17.0787 O   0  0  0  0  0  0  0  0  0  0  0  0
   12.0585  -17.4096   17.9808 C   0  0  0  0  0  0  0  0  0  0  0  0
   12.4920  -16.0261   18.4095 C   0  0  2  0  0  0  0  0  0  0  0  0
   13.8598  -15.8627   17.9807 N   0  0  0  0  0  0  0  0  0  0  0  0
   12.2839  -15.7687   19.8312 C   0  0  0  0  0  0  0  0  0  0  0  0
   12.9118  -16.4540   20.6761 O   0  0  0  0  0  0  0  0  0  0  0  0
   11.3869  -14.7600   20.2723 N   0  0  0  0  0  0  0  0  0  0  0  0
   10.6270  -14.8459   21.5171 C   0  0  1  0  0  0  0  0  0  0  0  0
    9.1781  -15.1920   21.1932 C   0  0  0  0  0  0  0  0  0  0  0  0
    8.6261  -14.3113   20.1361 C   0  0  0  0  0  0  0  0  0  0  0  0
    9.2801  -13.2862   19.4561 C   0  0  0  0  0  0  0  0  0  0  0  0
    8.4483  -12.7151   18.5677 N   0  0  0  0  0  0  0  0  0  0  0  0
    7.2770  -13.3704   18.6815 C   0  0  0  0  0  0  0  0  0  0  0  0
    7.3771  -14.3288   19.6202 N   0  0  0  0  0  0  0  0  0  0  0  0
   11.2415  -15.7628   22.4766 C   0  0  0  0  0  0  0  0  0  0  0  0
   10.7586  -15.8606   23.6298 O   0  0  0  0  0  0  0  0  0  0  0  0
   12.3426  -16.5359   22.1674 O   0  0  0  0  0  0  0  0  0  0  0  0
  2  1  1  1
  2  3  1  0
  4  3  1  0
  5  6  2  0
  5  4  1  0
  7 15  1  0
  7  2  1  0
  8  7  2  0
  9  5  1  0
 11 10  1  0
 12 11  2  0
 14 13  1  1
 13 11  1  0
 14 15  1  0
 16 14  1  0
 17 16  2  0
 18 16  1  0
 19 20  1  6
 19 18  1  0
 20 21  1  0
 21 22  2  0
 22 23  1  0
 24 23  1  0
 25 21  1  0
 25 24  2  0
 26 19  1  0
 27 26  2  0
 28 26  1  0
M  END
$$$$
