ENH.pdb
     RDKit          3D

 28 28  0  0  1  0  0  0  0  0999 V2000
   13.3262  -17.9908   15.4657 N   0  0  0  0  0  0  0  0  0  0  0  0
   12.3231  -17.0200   14.9823 C   0  0  1  0  0  0  0  0  0  0  0  0
   11.9325  -17.4797   13.6186 C   0  0  0  0  0  0  0  0  0  0  0  0
   11.3849  -18.8571   13.5170 C   0  0  0  0  0  0  0  0  0  0  0  0
   11.1266  -19.2579   12.1289 C   0  0  0  0  0  0  0  0  0  0  0  0
   10.0563  -19.0238   11.5478 O   0  0  0  0  0  0  0  0  0  0  0  0
   11.1948  -17.0742   15.9502 C   0  0  0  0  0  0  0  0  0  0  0  0
   10.1817  -16.3603   15.7549 O   0  0  0  0  0  0  0  0  0  0  0  0
   12.1365  -19.9398   11.4216 O   0  0  0  0  0  0  0  0  0  0  0  0
    9.4048  -21.0894   16.7259 N   0  0  0  0  0  0  0  0  0  0  0  0
    9.0570  -19.9088   17.4154 C   0  0  0  0  0  0  0  0  0  0  0  0
    7.9862  -19.3142   17.1598 O   0  0  0  0  0  0  0  0  0  0  0  0
    9.9511  -19.3553   18.4504 C   0  0  0  0  0  0  0  0  0  0  0  0
   10.2533  -17.9072   18.1382 C   0  0  2  0  0  0  0  0  0  0  0  0
   11.2296  -17.9012   17.0762 N   0  0  0  0  0  0  0  0  0  0  0  0
   10.6505  -17.1329   19.3102 C   0  0  0  0  0  0  0  0  0  0  0  0
   11.8278  -16.7020   19.3894 O   0  0  0  0  0  0  0  0  0  0  0  0
    9.7313  -16.8600   20.3575 N   0  0  0  0  0  0  0  0  0  0  0  0
   10.0439  -16.0080   21.5023 C   0  0  1  0  0  0  0  0  0  0  0  0
    8.8716  -15.0675   21.7581 C   0  0  0  0  0  0  0  0  0  0  0  0
    8.7802  -14.0096   20.7235 C   0  0  0  0  0  0  0  0  0  0  0  0
    9.6616  -13.7709   19.6713 C   0  0  0  0  0  0  0  0  0  0  0  0
    9.2407  -12.7221   18.9433 N   0  0  0  0  0  0  0  0  0  0  0  0
    8.1031  -12.2980   19.5266 C   0  0  0  0  0  0  0  0  0  0  0  0
    7.8214  -13.0660   20.5946 N   0  0  0  0  0  0  0  0  0  0  0  0
   10.4310  -16.7853   22.6792 C   0  0  0  0  0  0  0  0  0  0  0  0
   10.0964  -17.9914   22.7569 O   0  0  0  0  0  0  0  0  0  0  0  0
   11.1573  -16.2458   23.7218 O   0  0  0  0  0  0  0  0  0  0  0  0
  2  1  1  1
  2  3  1  0
  4  3  1  0
  5  6  2  0
  5  4  1  0
  7 15  1  0
  7  2  1  0
  8  7  2  0
  9  5  1  0
 11 10  1  0
 12 11  2  0
 14 13  1  1
 13 11  1  0
 14 15  1  0
 16 14  1  0
 17 16  2  0
 18 16  1  0
 19 20  1  1
 19 18  1  0
 20 21  1  0
 21 22  2  0
 22 23  1  0
 24 23  1  0
 25 21  1  0
 25 24  2  0
 26 19  1  0
 27 26  2  0
 28 26  1  0
M  END
$$$$
