ENH.pdb
     RDKit          3D

 28 28  0  0  1  0  0  0  0  0999 V2000
   10.7429  -16.8220   13.3742 N   0  0  0  0  0  0  0  0  0  0  0  0
   11.3555  -16.6654   14.7094 C   0  0  1  0  0  0  0  0  0  0  0  0
   12.8215  -16.5276   14.4736 C   0  0  0  0  0  0  0  0  0  0  0  0
   13.5427  -17.7583   14.0581 C   0  0  0  0  0  0  0  0  0  0  0  0
   14.9991  -17.5768   14.0398 C   0  0  0  0  0  0  0  0  0  0  0  0
   15.5533  -16.6315   13.4588 O   0  0  0  0  0  0  0  0  0  0  0  0
   10.7527  -15.4405   15.3002 C   0  0  0  0  0  0  0  0  0  0  0  0
   10.5495  -14.4409   14.5697 O   0  0  0  0  0  0  0  0  0  0  0  0
   15.8073  -18.5162   14.7101 O   0  0  0  0  0  0  0  0  0  0  0  0
    8.1826  -12.4348   18.5533 N   0  0  0  0  0  0  0  0  0  0  0  0
    7.5104  -13.5648   18.0422 C   0  0  0  0  0  0  0  0  0  0  0  0
    6.2666  -13.6628   18.1372 O   0  0  0  0  0  0  0  0  0  0  0  0
    8.2636  -14.6508   17.3862 C   0  0  0  0  0  0  0  0  0  0  0  0
    9.7217  -14.2655   17.2811 C   0  0  2  0  0  0  0  0  0  0  0  0
   10.4039  -15.3698   16.6516 N   0  0  0  0  0  0  0  0  0  0  0  0
   10.3065  -13.8589   18.5553 C   0  0  0  0  0  0  0  0  0  0  0  0
    9.7786  -12.9183   19.1991 O   0  0  0  0  0  0  0  0  0  0  0  0
   11.4574  -14.5070   19.0766 N   0  0  0  0  0  0  0  0  0  0  0  0
   11.5747  -14.9476   20.4645 C   0  0  1  0  0  0  0  0  0  0  0  0
   10.3880  -15.8419   20.8052 C   0  0  0  0  0  0  0  0  0  0  0  0
    9.2786  -15.0728   21.4180 C   0  0  0  0  0  0  0  0  0  0  0  0
    9.1785  -13.6904   21.5586 C   0  0  0  0  0  0  0  0  0  0  0  0
    8.0224  -13.3689   22.1647 N   0  0  0  0  0  0  0  0  0  0  0  0
    7.3935  -14.5351   22.4071 C   0  0  0  0  0  0  0  0  0  0  0  0
    8.1416  -15.5606   21.9617 N   0  0  0  0  0  0  0  0  0  0  0  0
   12.8686  -15.5723   20.7376 C   0  0  0  0  0  0  0  0  0  0  0  0
   13.5038  -15.2459   21.7685 O   0  0  0  0  0  0  0  0  0  0  0  0
   13.4303  -16.5170   19.9023 O   0  0  0  0  0  0  0  0  0  0  0  0
  2  1  1  6
  2  3  1  0
  4  3  1  0
  5  6  2  0
  5  4  1  0
  7 15  1  0
  7  2  1  0
  8  7  2  0
  9  5  1  0
 11 10  1  0
 12 11  2  0
 14 13  1  1
 13 11  1  0
 14 15  1  0
 16 14  1  0
 17 16  2  0
 18 16  1  0
 19 20  1  6
 19 18  1  0
 20 21  1  0
 21 22  2  0
 22 23  1  0
 24 23  1  0
 25 21  1  0
 25 24  2  0
 26 19  1  0
 27 26  2  0
 28 26  1  0
M  END
$$$$
