ENH.pdb
     RDKit          3D

 28 28  0  0  1  0  0  0  0  0999 V2000
    9.8705  -17.6434   15.3986 N   0  0  0  0  0  0  0  0  0  0  0  0
    8.9406  -16.7065   16.0617 C   0  0  1  0  0  0  0  0  0  0  0  0
    7.8046  -16.5180   15.1144 C   0  0  0  0  0  0  0  0  0  0  0  0
    8.1552  -16.4131   13.6743 C   0  0  0  0  0  0  0  0  0  0  0  0
    6.9855  -16.1436   12.8296 C   0  0  0  0  0  0  0  0  0  0  0  0
    5.8229  -16.1667   13.2609 O   0  0  0  0  0  0  0  0  0  0  0  0
    8.5257  -17.3636   17.3301 C   0  0  0  0  0  0  0  0  0  0  0  0
    7.4739  -18.0472   17.3536 O   0  0  0  0  0  0  0  0  0  0  0  0
    7.1878  -15.8458   11.4675 O   0  0  0  0  0  0  0  0  0  0  0  0
    9.0318  -21.5830   20.0347 N   0  0  0  0  0  0  0  0  0  0  0  0
   10.0088  -20.5770   19.8819 C   0  0  0  0  0  0  0  0  0  0  0  0
   11.0309  -20.5670   20.6037 O   0  0  0  0  0  0  0  0  0  0  0  0
    9.8416  -19.5189   18.8672 C   0  0  0  0  0  0  0  0  0  0  0  0
    9.3804  -18.2435   19.5354 C   0  0  2  0  0  0  0  0  0  0  0  0
    9.2767  -17.2418   18.5024 N   0  0  0  0  0  0  0  0  0  0  0  0
   10.2176  -17.8450   20.6628 C   0  0  0  0  0  0  0  0  0  0  0  0
   10.4156  -18.6609   21.5972 O   0  0  0  0  0  0  0  0  0  0  0  0
   10.8094  -16.5554   20.7198 N   0  0  0  0  0  0  0  0  0  0  0  0
   10.5565  -15.5997   21.7954 C   0  0  1  0  0  0  0  0  0  0  0  0
    9.1012  -15.1503   21.7303 C   0  0  0  0  0  0  0  0  0  0  0  0
    8.8594  -14.2350   20.5894 C   0  0  0  0  0  0  0  0  0  0  0  0
    9.8004  -13.7096   19.7067 C   0  0  0  0  0  0  0  0  0  0  0  0
    9.1966  -12.9189   18.8024 N   0  0  0  0  0  0  0  0  0  0  0  0
    7.8847  -12.9413   19.1070 C   0  0  0  0  0  0  0  0  0  0  0  0
    7.6760  -13.7288   20.1775 N   0  0  0  0  0  0  0  0  0  0  0  0
   10.9425  -16.1267   23.1039 C   0  0  0  0  0  0  0  0  0  0  0  0
   10.3008  -17.0861   23.5942 O   0  0  0  0  0  0  0  0  0  0  0  0
   11.9945  -15.6104   23.8336 O   0  0  0  0  0  0  0  0  0  0  0  0
  2  1  1  6
  2  3  1  0
  4  3  1  0
  5  6  2  0
  5  4  1  0
  7 15  1  0
  7  2  1  0
  8  7  2  0
  9  5  1  0
 11 10  1  0
 12 11  2  0
 14 13  1  6
 13 11  1  0
 14 15  1  0
 16 14  1  0
 17 16  2  0
 18 16  1  0
 19 20  1  1
 19 18  1  0
 20 21  1  0
 21 22  2  0
 22 23  1  0
 24 23  1  0
 25 21  1  0
 25 24  2  0
 26 19  1  0
 27 26  2  0
 28 26  1  0
M  END
$$$$
