ENH.pdb
     RDKit          3D

 28 28  0  0  1  0  0  0  0  0999 V2000
    7.5912  -15.7351   18.9141 N   0  0  0  0  0  0  0  0  0  0  0  0
    8.4905  -14.6320   19.3101 C   0  0  1  0  0  0  0  0  0  0  0  0
    7.9023  -13.3936   18.7238 C   0  0  0  0  0  0  0  0  0  0  0  0
    7.1552  -13.5557   17.4497 C   0  0  0  0  0  0  0  0  0  0  0  0
    7.9774  -14.1482   16.3880 C   0  0  0  0  0  0  0  0  0  0  0  0
    8.7799  -13.4891   15.7098 O   0  0  0  0  0  0  0  0  0  0  0  0
    8.4949  -14.6155   20.7976 C   0  0  0  0  0  0  0  0  0  0  0  0
    9.0800  -13.6838   21.4009 O   0  0  0  0  0  0  0  0  0  0  0  0
    7.8522  -15.5264   16.1236 O   0  0  0  0  0  0  0  0  0  0  0  0
    6.4761  -15.4653   25.3555 N   0  0  0  0  0  0  0  0  0  0  0  0
    6.3569  -16.6943   24.6732 C   0  0  0  0  0  0  0  0  0  0  0  0
    5.7165  -17.6433   25.1779 O   0  0  0  0  0  0  0  0  0  0  0  0
    6.9860  -16.8809   23.3516 C   0  0  0  0  0  0  0  0  0  0  0  0
    7.7760  -15.6446   22.9866 C   0  0  2  0  0  0  0  0  0  0  0  0
    7.8633  -15.6117   21.5469 N   0  0  0  0  0  0  0  0  0  0  0  0
    9.0692  -15.5644   23.6589 C   0  0  0  0  0  0  0  0  0  0  0  0
    9.8341  -14.6016   23.4025 O   0  0  0  0  0  0  0  0  0  0  0  0
    9.4745  -16.5530   24.5942 N   0  0  0  0  0  0  0  0  0  0  0  0
   10.1393  -16.2425   25.8575 C   0  0  1  0  0  0  0  0  0  0  0  0
    9.2692  -15.2768   26.6540 C   0  0  0  0  0  0  0  0  0  0  0  0
    9.8433  -14.9957   27.9916 C   0  0  0  0  0  0  0  0  0  0  0  0
   10.2175  -15.9173   28.9671 C   0  0  0  0  0  0  0  0  0  0  0  0
   10.6988  -15.2786   30.0477 N   0  0  0  0  0  0  0  0  0  0  0  0
   10.6314  -13.9639   29.7624 C   0  0  0  0  0  0  0  0  0  0  0  0
   10.1194  -13.7877   28.5309 N   0  0  0  0  0  0  0  0  0  0  0  0
   10.4988  -17.4485   26.6028 C   0  0  0  0  0  0  0  0  0  0  0  0
   11.1942  -17.3452   27.6412 O   0  0  0  0  0  0  0  0  0  0  0  0
   10.1026  -18.7115   26.2111 O   0  0  0  0  0  0  0  0  0  0  0  0
  2  1  1  1
  2  3  1  0
  4  3  1  0
  5  6  2  0
  5  4  1  0
  7 15  1  0
  7  2  1  0
  8  7  2  0
  9  5  1  0
 11 10  1  0
 12 11  2  0
 14 13  1  6
 13 11  1  0
 14 15  1  0
 16 14  1  0
 17 16  2  0
 18 16  1  0
 19 20  1  1
 19 18  1  0
 20 21  1  0
 21 22  2  0
 22 23  1  0
 24 23  1  0
 25 21  1  0
 25 24  2  0
 26 19  1  0
 27 26  2  0
 28 26  1  0
M  END
$$$$
