ENH.pdb
     RDKit          3D

 28 28  0  0  1  0  0  0  0  0999 V2000
    9.1015  -18.0352   20.1187 N   0  0  0  0  0  0  0  0  0  0  0  0
   10.3490  -17.4614   19.5739 C   0  0  1  0  0  0  0  0  0  0  0  0
   10.4168  -17.9049   18.1518 C   0  0  0  0  0  0  0  0  0  0  0  0
   11.5703  -17.4072   17.3585 C   0  0  0  0  0  0  0  0  0  0  0  0
   11.5311  -17.8628   15.9638 C   0  0  0  0  0  0  0  0  0  0  0  0
   10.5008  -17.8339   15.2739 O   0  0  0  0  0  0  0  0  0  0  0  0
   10.2187  -15.9856   19.7080 C   0  0  0  0  0  0  0  0  0  0  0  0
   11.1980  -15.2533   19.4270 O   0  0  0  0  0  0  0  0  0  0  0  0
   12.7141  -18.3562   15.3789 O   0  0  0  0  0  0  0  0  0  0  0  0
    8.5363  -12.4064   17.5520 N   0  0  0  0  0  0  0  0  0  0  0  0
    7.8954  -13.5426   18.0888 C   0  0  0  0  0  0  0  0  0  0  0  0
    7.5873  -14.5069   17.3534 O   0  0  0  0  0  0  0  0  0  0  0  0
    7.5775  -13.6129   19.5280 C   0  0  0  0  0  0  0  0  0  0  0  0
    8.8238  -13.9696   20.3061 C   0  0  2  0  0  0  0  0  0  0  0  0
    9.0317  -15.3874   20.1396 N   0  0  0  0  0  0  0  0  0  0  0  0
    8.7792  -13.5386   21.7000 C   0  0  0  0  0  0  0  0  0  0  0  0
    8.4779  -12.3480   21.9637 O   0  0  0  0  0  0  0  0  0  0  0  0
    9.0695  -14.4400   22.7582 N   0  0  0  0  0  0  0  0  0  0  0  0
    8.8283  -14.1341   24.1661 C   0  0  1  0  0  0  0  0  0  0  0  0
    7.3959  -13.6386   24.3298 C   0  0  0  0  0  0  0  0  0  0  0  0
    7.0992  -13.2704   25.7348 C   0  0  0  0  0  0  0  0  0  0  0  0
    7.3402  -12.0505   26.3633 C   0  0  0  0  0  0  0  0  0  0  0  0
    6.9322  -12.1002   27.6433 N   0  0  0  0  0  0  0  0  0  0  0  0
    6.4366  -13.3391   27.8271 C   0  0  0  0  0  0  0  0  0  0  0  0
    6.5337  -14.0457   26.6865 N   0  0  0  0  0  0  0  0  0  0  0  0
    9.1553  -15.2607   25.0394 C   0  0  0  0  0  0  0  0  0  0  0  0
    9.1639  -16.4225   24.5673 O   0  0  0  0  0  0  0  0  0  0  0  0
    9.4592  -15.1024   26.3767 O   0  0  0  0  0  0  0  0  0  0  0  0
  2  1  1  6
  2  3  1  0
  4  3  1  0
  5  6  2  0
  5  4  1  0
  7 15  1  0
  7  2  1  0
  8  7  2  0
  9  5  1  0
 11 10  1  0
 12 11  2  0
 14 13  1  1
 13 11  1  0
 14 15  1  0
 16 14  1  0
 17 16  2  0
 18 16  1  0
 19 20  1  6
 19 18  1  0
 20 21  1  0
 21 22  2  0
 22 23  1  0
 24 23  1  0
 25 21  1  0
 25 24  2  0
 26 19  1  0
 27 26  2  0
 28 26  1  0
M  END
$$$$
