DRQ.pdb
     RDKit          3D

 29 28  0  0  1  0  0  0  0  0999 V2000
   44.0140  -19.1688  -10.8812 N   0  0  0  0  0  0  0  0  0  0  0  0
   44.4141  -18.8438   -9.5470 C   0  0  1  0  0  0  0  0  0  0  0  0
   45.4944  -19.8121   -9.0374 C   0  0  0  0  0  0  0  0  0  0  0  0
   44.9938  -21.1908   -9.0188 C   0  0  0  0  0  0  0  0  0  0  0  0
   43.9119  -21.4966   -8.4887 O   0  0  0  0  0  0  0  0  0  0  0  0
   44.9941  -17.4893   -9.4119 C   0  0  0  0  0  0  0  0  0  0  0  0
   45.7112  -17.0619  -10.3416 O   0  0  0  0  0  0  0  0  0  0  0  0
   45.8001  -22.1515   -9.6325 O   0  0  0  0  0  0  0  0  0  0  0  0
   41.3906  -10.3555   -6.0794 N   0  0  0  0  0  0  0  0  0  0  0  0
   42.5794   -9.9795   -6.7636 C   0  0  0  0  0  0  0  0  0  0  0  0
   42.8117   -8.7343   -7.0399 N   0  0  0  0  0  0  0  0  0  0  0  0
   43.5712  -10.9375   -7.1816 N   0  0  0  0  0  0  0  0  0  0  0  0
   43.2882  -12.3405   -7.1221 C   0  0  0  0  0  0  0  0  0  0  0  0
   44.5975  -13.0720   -7.5124 C   0  0  0  0  0  0  0  0  0  0  0  0
   44.2174  -14.4946   -7.7005 C   0  0  0  0  0  0  0  0  0  0  0  0
   45.3210  -15.3819   -8.1996 C   0  0  2  0  0  0  0  0  0  0  0  0
   44.7411  -16.7147   -8.2743 N   0  0  0  0  0  0  0  0  0  0  0  0
   46.4325  -15.3709   -7.2029 C   0  0  0  0  0  0  0  0  0  0  0  0
   46.7150  -16.4518   -6.6652 O   0  0  0  0  0  0  0  0  0  0  0  0
   43.6169   -8.5204   -7.6520 N   0  0  0  0  0  0  0  0  0  0  0  0
   51.0748  -17.3583   -8.0905 C   0  0  0  0  0  0  0  0  0  0  0  0
   51.5594  -16.1231   -7.6029 O   0  0  0  0  0  0  0  0  0  0  0  0
   52.7650  -15.7607   -7.8531 C   0  0  0  0  0  0  0  0  0  0  0  0
   50.7160  -15.2306   -6.8172 C   0  0  0  0  0  0  0  0  0  0  0  0
   49.2749  -15.1759   -7.1826 C   0  0  1  0  0  0  0  0  0  0  0  0
   48.4796  -14.1975   -6.4290 N   0  0  0  0  0  0  0  0  0  0  0  0
   47.1014  -14.1616   -6.9192 C   0  0  0  0  0  0  0  0  0  0  0  0
   48.9327  -12.8285   -6.2475 O   0  0  0  0  0  0  0  0  0  0  0  0
   49.6879  -12.4714   -5.1113 O   0  0  0  0  0  0  0  0  0  0  0  0
  2  3  1  0
  2  1  1  6
  4  8  1  0
  4  3  1  0
  5  4  2  0
  6  2  1  0
  7  6  2  0
 10  9  1  0
 10 12  1  0
 11 10  2  0
 13 12  1  0
 13 14  1  0
 15 14  1  0
 16 15  1  1
 16 17  1  0
 17  6  1  0
 18 19  2  0
 18 16  1  0
 21 22  2  0
 21 20  1  0
 23 21  1  0
 24 23  1  0
 25 24  1  1
 25 26  1  0
 26 18  1  0
 27 28  1  0
 27 25  1  0
 29 27  2  0
M  END
$$$$
