DRQ.pdb
     RDKit          3D

 29 28  0  0  1  0  0  0  0  0999 V2000
   25.3660  -22.5033  -14.6552 N   0  0  0  0  0  0  0  0  0  0  0  0
   25.4888  -21.2865  -13.9135 C   0  0  1  0  0  0  0  0  0  0  0  0
   26.2619  -20.2231  -14.7107 C   0  0  0  0  0  0  0  0  0  0  0  0
   27.1211  -20.8496  -15.7211 C   0  0  0  0  0  0  0  0  0  0  0  0
   27.2726  -22.0813  -15.7917 O   0  0  0  0  0  0  0  0  0  0  0  0
   24.1910  -20.6645  -13.5696 C   0  0  0  0  0  0  0  0  0  0  0  0
   24.2007  -19.6488  -12.8419 O   0  0  0  0  0  0  0  0  0  0  0  0
   27.7660  -19.9857  -16.6085 O   0  0  0  0  0  0  0  0  0  0  0  0
   19.1351  -15.5447  -16.3742 N   0  0  0  0  0  0  0  0  0  0  0  0
   20.4540  -16.0736  -16.3136 C   0  0  0  0  0  0  0  0  0  0  0  0
   21.4801  -15.2986  -16.4793 N   0  0  0  0  0  0  0  0  0  0  0  0
   20.7212  -17.4688  -16.0721 N   0  0  0  0  0  0  0  0  0  0  0  0
   19.6384  -18.3900  -15.8961 C   0  0  0  0  0  0  0  0  0  0  0  0
   19.9242  -19.1615  -14.5828 C   0  0  0  0  0  0  0  0  0  0  0  0
   21.2584  -19.7850  -14.7700 C   0  0  0  0  0  0  0  0  0  0  0  0
   21.7389  -20.6078  -13.6097 C   0  0  2  0  0  0  0  0  0  0  0  0
   22.9920  -21.2024  -14.0505 N   0  0  0  0  0  0  0  0  0  0  0  0
   20.7389  -21.6825  -13.3377 C   0  0  0  0  0  0  0  0  0  0  0  0
   21.0947  -22.8493  -13.5598 O   0  0  0  0  0  0  0  0  0  0  0  0
   22.4192  -15.7279  -16.4278 N   0  0  0  0  0  0  0  0  0  0  0  0
   19.6920  -23.6375   -8.4866 C   0  0  0  0  0  0  0  0  0  0  0  0
   18.7808  -24.4396   -9.2110 O   0  0  0  0  0  0  0  0  0  0  0  0
   18.0892  -25.3352   -8.6054 C   0  0  0  0  0  0  0  0  0  0  0  0
   18.5946  -24.2734  -10.6473 C   0  0  0  0  0  0  0  0  0  0  0  0
   19.3700  -23.1858  -11.3023 C   0  0  2  0  0  0  0  0  0  0  0  0
   18.6103  -22.3714  -12.2603 N   0  0  0  0  0  0  0  0  0  0  0  0
   19.4607  -21.3373  -12.8507 C   0  0  0  0  0  0  0  0  0  0  0  0
   17.3397  -21.7639  -11.9012 O   0  0  0  0  0  0  0  0  0  0  0  0
   17.2842  -20.4165  -11.4887 O   0  0  0  0  0  0  0  0  0  0  0  0
  2  3  1  0
  2  1  1  6
  4  8  1  0
  4  3  1  0
  5  4  2  0
  6  2  1  0
  7  6  2  0
 10  9  1  0
 10 12  1  0
 11 10  2  0
 13 12  1  0
 13 14  1  0
 15 14  1  0
 16 15  1  6
 16 17  1  0
 17  6  1  0
 18 19  2  0
 18 16  1  0
 21 22  2  0
 21 20  1  0
 23 21  1  0
 24 23  1  0
 25 24  1  6
 25 26  1  0
 26 18  1  0
 27 28  1  0
 27 25  1  0
 29 27  2  0
M  END
$$$$
