DRQ.pdb
     RDKit          3D

 29 28  0  0  1  0  0  0  0  0999 V2000
   28.2334  -20.6608  -19.2663 N   0  0  0  0  0  0  0  0  0  0  0  0
   27.9498  -19.7554  -18.1960 C   0  0  1  0  0  0  0  0  0  0  0  0
   27.2228  -18.4999  -18.7055 C   0  0  0  0  0  0  0  0  0  0  0  0
   28.1469  -17.6166  -19.4249 C   0  0  0  0  0  0  0  0  0  0  0  0
   29.2249  -18.0229  -19.8916 O   0  0  0  0  0  0  0  0  0  0  0  0
   27.0758  -20.3268  -17.1477 C   0  0  0  0  0  0  0  0  0  0  0  0
   26.1707  -21.1124  -17.5012 O   0  0  0  0  0  0  0  0  0  0  0  0
   27.7515  -16.2844  -19.5612 O   0  0  0  0  0  0  0  0  0  0  0  0
   24.3220  -20.1944  -10.0080 N   0  0  0  0  0  0  0  0  0  0  0  0
   25.4841  -20.5970   -9.2936 C   0  0  0  0  0  0  0  0  0  0  0  0
   25.5382  -20.4713   -8.0044 N   0  0  0  0  0  0  0  0  0  0  0  0
   26.6427  -21.1532   -9.9451 N   0  0  0  0  0  0  0  0  0  0  0  0
   27.2198  -20.4921  -11.0773 C   0  0  0  0  0  0  0  0  0  0  0  0
   26.3452  -20.8669  -12.3005 C   0  0  0  0  0  0  0  0  0  0  0  0
   27.0890  -20.3745  -13.4871 C   0  0  0  0  0  0  0  0  0  0  0  0
   26.4155  -20.6294  -14.8046 C   0  0  2  0  0  0  0  0  0  0  0  0
   27.2645  -19.9942  -15.8016 N   0  0  0  0  0  0  0  0  0  0  0  0
   25.0746  -19.9730  -14.7921 C   0  0  0  0  0  0  0  0  0  0  0  0
   25.0513  -18.7413  -14.9321 O   0  0  0  0  0  0  0  0  0  0  0  0
   26.4145  -20.7489   -7.5314 N   0  0  0  0  0  0  0  0  0  0  0  0
   21.1379  -19.9827  -18.7862 C   0  0  0  0  0  0  0  0  0  0  0  0
   21.4958  -18.7944  -18.1092 O   0  0  0  0  0  0  0  0  0  0  0  0
   21.4070  -17.6618  -18.7063 C   0  0  0  0  0  0  0  0  0  0  0  0
   21.9639  -18.8156  -16.7288 C   0  0  0  0  0  0  0  0  0  0  0  0
   22.0928  -20.1507  -16.0851 C   0  0  2  0  0  0  0  0  0  0  0  0
   22.5978  -20.1292  -14.7058 N   0  0  0  0  0  0  0  0  0  0  0  0
   23.9156  -20.7601  -14.6262 C   0  0  0  0  0  0  0  0  0  0  0  0
   21.7949  -20.6133  -13.5953 O   0  0  0  0  0  0  0  0  0  0  0  0
   20.8091  -19.7887  -13.0146 O   0  0  0  0  0  0  0  0  0  0  0  0
  2  3  1  0
  2  1  1  6
  4  8  1  0
  4  3  1  0
  5  4  2  0
  6  2  1  0
  7  6  2  0
 10  9  1  0
 10 12  1  0
 11 10  2  0
 13 12  1  0
 13 14  1  0
 15 14  1  0
 16 15  1  1
 16 17  1  0
 17  6  1  0
 18 19  2  0
 18 16  1  0
 21 22  2  0
 21 20  1  0
 23 21  1  0
 24 23  1  0
 25 24  1  6
 25 26  1  0
 26 18  1  0
 27 28  1  0
 27 25  1  0
 29 27  2  0
M  END
$$$$
