DRQ.pdb
     RDKit          3D

 29 28  0  0  1  0  0  0  0  0999 V2000
   19.8269  -20.0841  -11.5815 N   0  0  0  0  0  0  0  0  0  0  0  0
   20.3708  -20.8131  -12.6854 C   0  0  1  0  0  0  0  0  0  0  0  0
   19.2579  -21.4286  -13.5497 C   0  0  0  0  0  0  0  0  0  0  0  0
   18.5771  -22.5116  -12.8317 C   0  0  0  0  0  0  0  0  0  0  0  0
   18.8620  -22.8122  -11.6597 O   0  0  0  0  0  0  0  0  0  0  0  0
   21.1809  -19.9847  -13.6056 C   0  0  0  0  0  0  0  0  0  0  0  0
   20.7838  -18.8271  -13.8577 O   0  0  0  0  0  0  0  0  0  0  0  0
   17.5835  -23.1939  -13.5365 O   0  0  0  0  0  0  0  0  0  0  0  0
   28.9183  -21.3172  -17.2991 N   0  0  0  0  0  0  0  0  0  0  0  0
   28.0227  -21.9273  -16.3779 C   0  0  0  0  0  0  0  0  0  0  0  0
   28.0910  -23.2001  -16.1413 N   0  0  0  0  0  0  0  0  0  0  0  0
   27.0097  -21.1848  -15.6717 N   0  0  0  0  0  0  0  0  0  0  0  0
   26.6764  -19.8527  -16.0797 C   0  0  0  0  0  0  0  0  0  0  0  0
   25.6658  -19.3114  -15.0370 C   0  0  0  0  0  0  0  0  0  0  0  0
   24.5179  -20.2522  -15.0700 C   0  0  0  0  0  0  0  0  0  0  0  0
   23.1667  -19.6020  -14.9939 C   0  0  2  0  0  0  0  0  0  0  0  0
   22.3571  -20.4888  -14.1716 N   0  0  0  0  0  0  0  0  0  0  0  0
   22.5929  -19.5268  -16.3702 C   0  0  0  0  0  0  0  0  0  0  0  0
   21.7880  -20.4133  -16.6919 O   0  0  0  0  0  0  0  0  0  0  0  0
   27.3945  -23.6062  -15.4942 N   0  0  0  0  0  0  0  0  0  0  0  0
   19.4591  -15.2790  -16.2890 C   0  0  0  0  0  0  0  0  0  0  0  0
   19.0704  -15.7382  -17.5682 O   0  0  0  0  0  0  0  0  0  0  0  0
   18.1710  -15.1081  -18.2324 C   0  0  0  0  0  0  0  0  0  0  0  0
   19.6745  -16.9213  -18.1688 C   0  0  0  0  0  0  0  0  0  0  0  0
   20.7331  -17.6071  -17.3801 C   0  0  1  0  0  0  0  0  0  0  0  0
   21.9841  -17.8601  -18.1074 N   0  0  0  0  0  0  0  0  0  0  0  0
   22.9790  -18.4764  -17.2292 C   0  0  0  0  0  0  0  0  0  0  0  0
   22.6411  -16.8154  -18.8751 O   0  0  0  0  0  0  0  0  0  0  0  0
   23.7752  -16.1557  -18.3578 O   0  0  0  0  0  0  0  0  0  0  0  0
  2  3  1  0
  2  1  1  1
  4  8  1  0
  4  3  1  0
  5  4  2  0
  6  2  1  0
  7  6  2  0
 10  9  1  0
 10 12  1  0
 11 10  2  0
 13 12  1  0
 13 14  1  0
 15 14  1  0
 16 15  1  6
 16 17  1  0
 17  6  1  0
 18 19  2  0
 18 16  1  0
 21 22  2  0
 21 20  1  0
 23 21  1  0
 24 23  1  0
 25 24  1  6
 25 26  1  0
 26 18  1  0
 27 28  1  0
 27 25  1  0
 29 27  2  0
M  END
$$$$
