DRQ.pdb
     RDKit          3D

 29 28  0  0  1  0  0  0  0  0999 V2000
   26.2919  -18.0175  -17.4887 N   0  0  0  0  0  0  0  0  0  0  0  0
   25.9040  -18.0332  -16.1121 C   0  0  1  0  0  0  0  0  0  0  0  0
   25.1299  -16.7589  -15.7364 C   0  0  0  0  0  0  0  0  0  0  0  0
   26.0308  -15.6038  -15.6587 C   0  0  0  0  0  0  0  0  0  0  0  0
   27.2508  -15.6982  -15.8774 O   0  0  0  0  0  0  0  0  0  0  0  0
   25.0154  -19.1614  -15.7560 C   0  0  0  0  0  0  0  0  0  0  0  0
   25.0046  -20.1603  -16.5065 O   0  0  0  0  0  0  0  0  0  0  0  0
   25.4444  -14.3815  -15.3244 O   0  0  0  0  0  0  0  0  0  0  0  0
   28.9603  -21.0426  -12.8300 N   0  0  0  0  0  0  0  0  0  0  0  0
   28.4112  -21.0800  -11.5185 C   0  0  0  0  0  0  0  0  0  0  0  0
   29.1140  -20.6897  -10.5015 N   0  0  0  0  0  0  0  0  0  0  0  0
   27.0741  -21.5446  -11.2492 N   0  0  0  0  0  0  0  0  0  0  0  0
   26.2333  -21.9828  -12.3230 C   0  0  0  0  0  0  0  0  0  0  0  0
   25.2367  -20.8295  -12.6024 C   0  0  0  0  0  0  0  0  0  0  0  0
   24.4122  -21.2854  -13.7496 C   0  0  0  0  0  0  0  0  0  0  0  0
   23.4243  -20.2753  -14.2576 C   0  0  2  0  0  0  0  0  0  0  0  0
   24.2148  -19.1051  -14.6097 N   0  0  0  0  0  0  0  0  0  0  0  0
   22.4794  -19.9320  -13.1537 C   0  0  0  0  0  0  0  0  0  0  0  0
   22.6967  -18.8791  -12.5362 O   0  0  0  0  0  0  0  0  0  0  0  0
   28.6444  -20.6472   -9.5814 N   0  0  0  0  0  0  0  0  0  0  0  0
   19.6316  -18.2333  -16.9275 C   0  0  0  0  0  0  0  0  0  0  0  0
   19.2933  -17.6111  -15.7041 O   0  0  0  0  0  0  0  0  0  0  0  0
   18.8531  -16.4055  -15.6953 C   0  0  0  0  0  0  0  0  0  0  0  0
   19.4249  -18.3104  -14.4318 C   0  0  0  0  0  0  0  0  0  0  0  0
   19.9967  -19.6831  -14.4774 C   0  0  2  0  0  0  0  0  0  0  0  0
   20.0376  -20.3822  -13.1861 N   0  0  0  0  0  0  0  0  0  0  0  0
   21.4033  -20.7970  -12.8641 C   0  0  0  0  0  0  0  0  0  0  0  0
   19.1453  -21.4918  -12.8944 O   0  0  0  0  0  0  0  0  0  0  0  0
   18.0014  -21.2961  -12.0932 O   0  0  0  0  0  0  0  0  0  0  0  0
  2  3  1  0
  2  1  1  6
  4  8  1  0
  4  3  1  0
  5  4  2  0
  6  2  1  0
  7  6  2  0
 10  9  1  0
 10 12  1  0
 11 10  2  0
 13 12  1  0
 13 14  1  0
 15 14  1  0
 16 15  1  1
 16 17  1  0
 17  6  1  0
 18 19  2  0
 18 16  1  0
 21 22  2  0
 21 20  1  0
 23 21  1  0
 24 23  1  0
 25 24  1  1
 25 26  1  0
 26 18  1  0
 27 28  1  0
 27 25  1  0
 29 27  2  0
M  END
$$$$
