DRQ.pdb
     RDKit          3D

 29 28  0  0  1  0  0  0  0  0999 V2000
   20.5670  -23.0667  -14.3387 N   0  0  0  0  0  0  0  0  0  0  0  0
   19.8923  -21.8055  -14.3261 C   0  0  1  0  0  0  0  0  0  0  0  0
   19.1772  -21.5691  -12.9855 C   0  0  0  0  0  0  0  0  0  0  0  0
   18.1608  -22.5994  -12.7464 C   0  0  0  0  0  0  0  0  0  0  0  0
   17.9349  -23.5102  -13.5616 O   0  0  0  0  0  0  0  0  0  0  0  0
   20.7927  -20.6460  -14.5099 C   0  0  0  0  0  0  0  0  0  0  0  0
   20.2918  -19.5018  -14.4753 O   0  0  0  0  0  0  0  0  0  0  0  0
   17.4536  -22.5059  -11.5461 O   0  0  0  0  0  0  0  0  0  0  0  0
   27.5330  -22.0671  -10.5759 N   0  0  0  0  0  0  0  0  0  0  0  0
   26.5756  -21.1302  -10.0981 C   0  0  0  0  0  0  0  0  0  0  0  0
   26.3674  -20.9956   -8.8256 N   0  0  0  0  0  0  0  0  0  0  0  0
   25.7978  -20.2965  -10.9792 N   0  0  0  0  0  0  0  0  0  0  0  0
   25.4593  -20.7554  -12.2933 C   0  0  0  0  0  0  0  0  0  0  0  0
   24.7329  -19.5815  -12.9975 C   0  0  0  0  0  0  0  0  0  0  0  0
   24.3653  -20.0907  -14.3426 C   0  0  0  0  0  0  0  0  0  0  0  0
   23.0143  -19.6573  -14.8339 C   0  0  2  0  0  0  0  0  0  0  0  0
   22.1645  -20.8327  -14.7141 N   0  0  0  0  0  0  0  0  0  0  0  0
   23.1302  -19.2631  -16.2692 C   0  0  0  0  0  0  0  0  0  0  0  0
   22.9575  -20.1558  -17.1121 O   0  0  0  0  0  0  0  0  0  0  0  0
   25.6995  -20.2668   -8.5228 N   0  0  0  0  0  0  0  0  0  0  0  0
   21.1316  -17.1955  -21.1447 C   0  0  0  0  0  0  0  0  0  0  0  0
   20.7181  -16.2720  -20.1575 O   0  0  0  0  0  0  0  0  0  0  0  0
   19.9888  -15.2668  -20.4816 C   0  0  0  0  0  0  0  0  0  0  0  0
   21.0953  -16.4326  -18.7585 C   0  0  0  0  0  0  0  0  0  0  0  0
   21.8374  -17.6717  -18.4023 C   0  0  1  0  0  0  0  0  0  0  0  0
   23.2277  -17.4625  -17.9766 N   0  0  0  0  0  0  0  0  0  0  0  0
   23.4240  -17.9240  -16.6019 C   0  0  0  0  0  0  0  0  0  0  0  0
   23.8799  -16.1717  -18.1197 O   0  0  0  0  0  0  0  0  0  0  0  0
   24.4523  -15.7941  -19.3520 O   0  0  0  0  0  0  0  0  0  0  0  0
  2  3  1  0
  2  1  1  1
  4  8  1  0
  4  3  1  0
  5  4  2  0
  6  2  1  0
  7  6  2  0
 10  9  1  0
 10 12  1  0
 11 10  2  0
 13 12  1  0
 13 14  1  0
 15 14  1  0
 16 15  1  6
 16 17  1  0
 17  6  1  0
 18 19  2  0
 18 16  1  0
 21 22  2  0
 21 20  1  0
 23 21  1  0
 24 23  1  0
 25 24  1  6
 25 26  1  0
 26 18  1  0
 27 28  1  0
 27 25  1  0
 29 27  2  0
M  END
$$$$
