DRQ.pdb
     RDKit          3D

 29 28  0  0  1  0  0  0  0  0999 V2000
   22.7070  -12.4749  -17.7657 N   0  0  0  0  0  0  0  0  0  0  0  0
   22.5563  -11.7442  -16.5453 C   0  0  1  0  0  0  0  0  0  0  0  0
   23.8495  -10.9975  -16.1791 C   0  0  0  0  0  0  0  0  0  0  0  0
   24.9123  -11.9407  -15.8147 C   0  0  0  0  0  0  0  0  0  0  0  0
   25.2010  -12.9207  -16.5228 O   0  0  0  0  0  0  0  0  0  0  0  0
   21.4979  -10.7114  -16.5958 C   0  0  0  0  0  0  0  0  0  0  0  0
   21.5396   -9.8721  -17.5205 O   0  0  0  0  0  0  0  0  0  0  0  0
   25.5904  -11.6802  -14.6223 O   0  0  0  0  0  0  0  0  0  0  0  0
   13.0582  -11.7410  -14.8428 N   0  0  0  0  0  0  0  0  0  0  0  0
   13.2486  -10.4532  -15.4154 C   0  0  0  0  0  0  0  0  0  0  0  0
   12.2445   -9.8014  -15.9133 N   0  0  0  0  0  0  0  0  0  0  0  0
   14.5380   -9.8130  -15.4763 N   0  0  0  0  0  0  0  0  0  0  0  0
   15.7354  -10.5979  -15.4283 C   0  0  0  0  0  0  0  0  0  0  0  0
   16.9190   -9.6063  -15.5598 C   0  0  0  0  0  0  0  0  0  0  0  0
   18.1428  -10.4464  -15.5678 C   0  0  0  0  0  0  0  0  0  0  0  0
   19.4249   -9.6919  -15.7705 C   0  0  2  0  0  0  0  0  0  0  0  0
   20.4820  -10.6829  -15.6338 N   0  0  0  0  0  0  0  0  0  0  0  0
   19.5528   -8.6663  -14.6931 C   0  0  0  0  0  0  0  0  0  0  0  0
   20.3222   -8.9287  -13.7570 O   0  0  0  0  0  0  0  0  0  0  0  0
   12.4258   -8.8566  -16.2921 N   0  0  0  0  0  0  0  0  0  0  0  0
   22.6382   -4.7683  -16.1196 C   0  0  0  0  0  0  0  0  0  0  0  0
   22.3550   -4.2280  -14.8444 O   0  0  0  0  0  0  0  0  0  0  0  0
   22.9325   -3.1480  -14.4602 C   0  0  0  0  0  0  0  0  0  0  0  0
   21.4067   -4.8666  -13.9399 C   0  0  0  0  0  0  0  0  0  0  0  0
   20.7898   -6.1382  -14.4042 C   0  0  1  0  0  0  0  0  0  0  0  0
   19.3429   -6.2467  -14.1751 N   0  0  0  0  0  0  0  0  0  0  0  0
   18.8123   -7.4687  -14.7804 C   0  0  0  0  0  0  0  0  0  0  0  0
   18.4394   -5.1535  -14.4925 O   0  0  0  0  0  0  0  0  0  0  0  0
   18.1662   -4.1531  -13.5368 O   0  0  0  0  0  0  0  0  0  0  0  0
  2  3  1  0
  2  1  1  6
  4  8  1  0
  4  3  1  0
  5  4  2  0
  6  2  1  0
  7  6  2  0
 10  9  1  0
 10 12  1  0
 11 10  2  0
 13 12  1  0
 13 14  1  0
 15 14  1  0
 16 15  1  1
 16 17  1  0
 17  6  1  0
 18 19  2  0
 18 16  1  0
 21 22  2  0
 21 20  1  0
 23 21  1  0
 24 23  1  0
 25 24  1  1
 25 26  1  0
 26 18  1  0
 27 28  1  0
 27 25  1  0
 29 27  2  0
M  END
$$$$
