DRQ.pdb
     RDKit          3D

 29 28  0  0  1  0  0  0  0  0999 V2000
   26.0193  -21.1957  -10.2358 N   0  0  0  0  0  0  0  0  0  0  0  0
   24.7538  -21.2424  -10.9008 C   0  0  1  0  0  0  0  0  0  0  0  0
   23.7757  -20.2129  -10.3111 C   0  0  0  0  0  0  0  0  0  0  0  0
   23.5669  -20.4511   -8.8788 C   0  0  0  0  0  0  0  0  0  0  0  0
   24.1899  -21.3268   -8.2542 O   0  0  0  0  0  0  0  0  0  0  0  0
   24.8291  -20.9406  -12.3474 C   0  0  0  0  0  0  0  0  0  0  0  0
   24.0798  -20.0498  -12.8016 O   0  0  0  0  0  0  0  0  0  0  0  0
   22.6253  -19.6373   -8.2458 O   0  0  0  0  0  0  0  0  0  0  0  0
   31.0744  -23.6522  -17.9932 N   0  0  0  0  0  0  0  0  0  0  0  0
   30.1855  -22.8342  -18.7439 C   0  0  0  0  0  0  0  0  0  0  0  0
   30.4289  -22.5723  -19.9901 N   0  0  0  0  0  0  0  0  0  0  0  0
   28.9916  -22.2604  -18.1768 N   0  0  0  0  0  0  0  0  0  0  0  0
   28.6460  -22.5195  -16.8109 C   0  0  0  0  0  0  0  0  0  0  0  0
   27.3804  -21.6780  -16.5085 C   0  0  0  0  0  0  0  0  0  0  0  0
   27.0380  -21.9690  -15.0936 C   0  0  0  0  0  0  0  0  0  0  0  0
   25.8746  -21.1892  -14.5526 C   0  0  2  0  0  0  0  0  0  0  0  0
   25.7173  -21.6351  -13.1762 N   0  0  0  0  0  0  0  0  0  0  0  0
   24.6551  -21.5407  -15.3389 C   0  0  0  0  0  0  0  0  0  0  0  0
   24.2305  -22.7003  -15.2278 O   0  0  0  0  0  0  0  0  0  0  0  0
   29.7729  -21.9458  -20.4860 N   0  0  0  0  0  0  0  0  0  0  0  0
   22.4899  -18.0193  -20.1505 C   0  0  0  0  0  0  0  0  0  0  0  0
   23.1776  -17.6883  -18.9606 O   0  0  0  0  0  0  0  0  0  0  0  0
   23.6615  -16.5099  -18.8034 C   0  0  0  0  0  0  0  0  0  0  0  0
   23.3513  -18.6581  -17.8861 C   0  0  0  0  0  0  0  0  0  0  0  0
   22.6865  -19.9775  -18.0602 C   0  0  2  0  0  0  0  0  0  0  0  0
   22.8666  -20.9159  -16.9445 N   0  0  0  0  0  0  0  0  0  0  0  0
   24.0485  -20.5642  -16.1567 C   0  0  0  0  0  0  0  0  0  0  0  0
   22.8727  -22.3540  -17.1547 O   0  0  0  0  0  0  0  0  0  0  0  0
   24.0345  -23.0018  -17.6232 O   0  0  0  0  0  0  0  0  0  0  0  0
  2  3  1  0
  2  1  1  1
  4  8  1  0
  4  3  1  0
  5  4  2  0
  6  2  1  0
  7  6  2  0
 10  9  1  0
 10 12  1  0
 11 10  2  0
 13 12  1  0
 13 14  1  0
 15 14  1  0
 16 15  1  6
 16 17  1  0
 17  6  1  0
 18 19  2  0
 18 16  1  0
 21 22  2  0
 21 20  1  0
 23 21  1  0
 24 23  1  0
 25 24  1  1
 25 26  1  0
 26 18  1  0
 27 28  1  0
 27 25  1  0
 29 27  2  0
M  END
$$$$
