DRQ.pdb
     RDKit          3D

 29 28  0  0  1  0  0  0  0  0999 V2000
   25.2924  -27.9889  -22.2946 N   0  0  0  0  0  0  0  0  0  0  0  0
   24.5980  -29.2294  -22.4525 C   0  0  1  0  0  0  0  0  0  0  0  0
   25.0892  -29.9891  -23.6959 C   0  0  0  0  0  0  0  0  0  0  0  0
   24.2304  -29.7099  -24.8519 C   0  0  0  0  0  0  0  0  0  0  0  0
   23.2494  -28.9499  -24.7814 O   0  0  0  0  0  0  0  0  0  0  0  0
   24.7769  -30.1612  -21.3171 C   0  0  0  0  0  0  0  0  0  0  0  0
   24.0318  -31.1624  -21.2556 O   0  0  0  0  0  0  0  0  0  0  0  0
   24.5733  -30.3458  -26.0468 O   0  0  0  0  0  0  0  0  0  0  0  0
   30.5809  -31.9892  -15.7329 N   0  0  0  0  0  0  0  0  0  0  0  0
   29.5529  -32.9705  -15.7890 C   0  0  0  0  0  0  0  0  0  0  0  0
   29.1083  -33.5181  -14.7012 N   0  0  0  0  0  0  0  0  0  0  0  0
   28.9604  -33.4049  -17.0285 N   0  0  0  0  0  0  0  0  0  0  0  0
   28.7200  -32.4636  -18.0813 C   0  0  0  0  0  0  0  0  0  0  0  0
   27.6677  -31.4604  -17.5450 C   0  0  0  0  0  0  0  0  0  0  0  0
   27.2943  -30.6161  -18.7075 C   0  0  0  0  0  0  0  0  0  0  0  0
   25.9442  -30.9115  -19.2941 C   0  0  2  0  0  0  0  0  0  0  0  0
   25.7552  -29.9228  -20.3453 N   0  0  0  0  0  0  0  0  0  0  0  0
   24.9098  -30.7243  -18.2340 C   0  0  0  0  0  0  0  0  0  0  0  0
   24.6222  -29.5571  -17.9303 O   0  0  0  0  0  0  0  0  0  0  0  0
   28.3482  -34.2133  -14.7896 N   0  0  0  0  0  0  0  0  0  0  0  0
   20.2219  -32.4838  -16.0859 C   0  0  0  0  0  0  0  0  0  0  0  0
   20.3191  -31.1925  -15.5190 O   0  0  0  0  0  0  0  0  0  0  0  0
   19.4765  -30.8160  -14.6271 C   0  0  0  0  0  0  0  0  0  0  0  0
   21.3683  -30.2624  -15.9181 C   0  0  0  0  0  0  0  0  0  0  0  0
   22.2867  -30.7115  -16.9989 C   0  0  2  0  0  0  0  0  0  0  0  0
   23.3178  -31.6701  -16.5794 N   0  0  0  0  0  0  0  0  0  0  0  0
   24.3146  -31.8543  -17.6346 C   0  0  0  0  0  0  0  0  0  0  0  0
   22.9690  -32.9783  -16.0510 O   0  0  0  0  0  0  0  0  0  0  0  0
   22.1960  -33.8747  -16.8177 O   0  0  0  0  0  0  0  0  0  0  0  0
  2  3  1  0
  2  1  1  1
  4  8  1  0
  4  3  1  0
  5  4  2  0
  6  2  1  0
  7  6  2  0
 10  9  1  0
 10 12  1  0
 11 10  2  0
 13 12  1  0
 13 14  1  0
 15 14  1  0
 16 15  1  1
 16 17  1  0
 17  6  1  0
 18 19  2  0
 18 16  1  0
 21 22  2  0
 21 20  1  0
 23 21  1  0
 24 23  1  0
 25 24  1  1
 25 26  1  0
 26 18  1  0
 27 28  1  0
 27 25  1  0
 29 27  2  0
M  END
$$$$
