DRQ.pdb
     RDKit          3D

 29 28  0  0  1  0  0  0  0  0999 V2000
   19.9559  -19.7182  -13.6412 N   0  0  0  0  0  0  0  0  0  0  0  0
   20.9161  -20.7470  -13.3852 C   0  0  1  0  0  0  0  0  0  0  0  0
   20.6219  -22.0044  -14.2198 C   0  0  0  0  0  0  0  0  0  0  0  0
   19.5071  -22.7646  -13.6445 C   0  0  0  0  0  0  0  0  0  0  0  0
   18.9064  -22.3904  -12.6226 O   0  0  0  0  0  0  0  0  0  0  0  0
   22.3055  -20.3615  -13.7174 C   0  0  0  0  0  0  0  0  0  0  0  0
   22.4883  -19.6121  -14.7003 O   0  0  0  0  0  0  0  0  0  0  0  0
   19.1503  -23.9401  -14.3083 O   0  0  0  0  0  0  0  0  0  0  0  0
   29.8300  -22.8040   -9.6394 N   0  0  0  0  0  0  0  0  0  0  0  0
   30.1135  -21.6720  -10.4523 C   0  0  0  0  0  0  0  0  0  0  0  0
   31.2472  -21.0527  -10.3427 N   0  0  0  0  0  0  0  0  0  0  0  0
   29.1790  -21.1577  -11.4211 N   0  0  0  0  0  0  0  0  0  0  0  0
   27.7695  -21.2514  -11.1833 C   0  0  0  0  0  0  0  0  0  0  0  0
   27.0700  -20.7383  -12.4674 C   0  0  0  0  0  0  0  0  0  0  0  0
   25.6190  -20.9599  -12.2456 C   0  0  0  0  0  0  0  0  0  0  0  0
   24.7278  -20.4465  -13.3394 C   0  0  2  0  0  0  0  0  0  0  0  0
   23.3782  -20.8250  -12.9476 N   0  0  0  0  0  0  0  0  0  0  0  0
   25.0928  -21.1303  -14.6155 C   0  0  0  0  0  0  0  0  0  0  0  0
   24.5441  -22.2179  -14.8463 O   0  0  0  0  0  0  0  0  0  0  0  0
   31.4094  -20.2361  -10.9557 N   0  0  0  0  0  0  0  0  0  0  0  0
   22.3843  -21.4117  -18.7184 C   0  0  0  0  0  0  0  0  0  0  0  0
   23.2533  -20.3408  -19.0286 O   0  0  0  0  0  0  0  0  0  0  0  0
   22.8698  -19.4109  -19.8258 C   0  0  0  0  0  0  0  0  0  0  0  0
   24.5914  -20.2553  -18.4564 C   0  0  0  0  0  0  0  0  0  0  0  0
   24.9861  -21.3336  -17.5105 C   0  0  1  0  0  0  0  0  0  0  0  0
   26.2571  -21.1099  -16.8088 N   0  0  0  0  0  0  0  0  0  0  0  0
   26.0240  -20.5273  -15.4869 C   0  0  0  0  0  0  0  0  0  0  0  0
   27.3542  -20.3911  -17.4348 O   0  0  0  0  0  0  0  0  0  0  0  0
   27.8525  -19.2053  -16.8566 O   0  0  0  0  0  0  0  0  0  0  0  0
  2  3  1  0
  2  1  1  6
  4  8  1  0
  4  3  1  0
  5  4  2  0
  6  2  1  0
  7  6  2  0
 10  9  1  0
 10 12  1  0
 11 10  2  0
 13 12  1  0
 13 14  1  0
 15 14  1  0
 16 15  1  1
 16 17  1  0
 17  6  1  0
 18 19  2  0
 18 16  1  0
 21 22  2  0
 21 20  1  0
 23 21  1  0
 24 23  1  0
 25 24  1  1
 25 26  1  0
 26 18  1  0
 27 28  1  0
 27 25  1  0
 29 27  2  0
M  END
$$$$
