DRQ.pdb
     RDKit          3D

 29 28  0  0  1  0  0  0  0  0999 V2000
   28.0069  -23.0768  -18.2102 N   0  0  0  0  0  0  0  0  0  0  0  0
   28.8244  -22.1225  -17.5269 C   0  0  1  0  0  0  0  0  0  0  0  0
   29.7202  -21.3505  -18.5096 C   0  0  0  0  0  0  0  0  0  0  0  0
   30.6213  -22.2624  -19.2225 C   0  0  0  0  0  0  0  0  0  0  0  0
   30.5074  -23.4981  -19.1506 O   0  0  0  0  0  0  0  0  0  0  0  0
   28.0537  -21.0937  -16.7943 C   0  0  0  0  0  0  0  0  0  0  0  0
   28.6863  -20.2668  -16.1034 O   0  0  0  0  0  0  0  0  0  0  0  0
   31.6222  -21.6680  -19.9935 O   0  0  0  0  0  0  0  0  0  0  0  0
   20.7494  -19.9296  -15.7872 N   0  0  0  0  0  0  0  0  0  0  0  0
   20.6870  -18.5186  -15.9544 C   0  0  0  0  0  0  0  0  0  0  0  0
   19.7328  -17.8342  -15.4049 N   0  0  0  0  0  0  0  0  0  0  0  0
   21.6563  -17.7843  -16.7275 N   0  0  0  0  0  0  0  0  0  0  0  0
   22.7290  -18.4734  -17.3805 C   0  0  0  0  0  0  0  0  0  0  0  0
   23.7287  -18.8865  -16.2709 C   0  0  0  0  0  0  0  0  0  0  0  0
   24.8592  -19.5399  -16.9771 C   0  0  0  0  0  0  0  0  0  0  0  0
   25.9428  -20.0671  -16.0815 C   0  0  2  0  0  0  0  0  0  0  0  0
   26.6575  -21.0528  -16.8788 N   0  0  0  0  0  0  0  0  0  0  0  0
   25.3099  -20.7333  -14.9047 C   0  0  0  0  0  0  0  0  0  0  0  0
   24.7273  -21.8076  -15.1142 O   0  0  0  0  0  0  0  0  0  0  0  0
   19.7679  -16.8048  -15.4935 N   0  0  0  0  0  0  0  0  0  0  0  0
   26.7581  -19.7939   -8.7268 C   0  0  0  0  0  0  0  0  0  0  0  0
   25.7168  -20.7494   -8.7609 O   0  0  0  0  0  0  0  0  0  0  0  0
   25.3560  -21.3469   -7.6838 C   0  0  0  0  0  0  0  0  0  0  0  0
   25.0243  -21.0775  -10.0010 C   0  0  0  0  0  0  0  0  0  0  0  0
   25.5509  -20.4581  -11.2469 C   0  0  1  0  0  0  0  0  0  0  0  0
   24.8188  -20.8071  -12.4717 N   0  0  0  0  0  0  0  0  0  0  0  0
   25.3976  -20.1300  -13.6325 C   0  0  0  0  0  0  0  0  0  0  0  0
   23.3724  -20.6891  -12.5518 O   0  0  0  0  0  0  0  0  0  0  0  0
   22.5507  -21.8108  -12.3162 O   0  0  0  0  0  0  0  0  0  0  0  0
  2  3  1  0
  2  1  1  6
  4  8  1  0
  4  3  1  0
  5  4  2  0
  6  2  1  0
  7  6  2  0
 10  9  1  0
 10 12  1  0
 11 10  2  0
 13 12  1  0
 13 14  1  0
 15 14  1  0
 16 15  1  6
 16 17  1  0
 17  6  1  0
 18 19  2  0
 18 16  1  0
 21 22  2  0
 21 20  1  0
 23 21  1  0
 24 23  1  0
 25 24  1  6
 25 26  1  0
 26 18  1  0
 27 28  1  0
 27 25  1  0
 29 27  2  0
M  END
$$$$
