KTH.pdb
     RDKit          3D

 27 27  0  0  1  0  0  0  0  0999 V2000
   20.0873  -13.1978  -19.9910 N   0  0  0  0  0  0  0  0  0  0  0  0
   20.5419  -13.6269  -18.6821 C   0  0  1  0  0  0  0  0  0  0  0  0
   21.5088  -14.7754  -18.8687 C   0  0  0  0  0  0  0  0  0  0  0  0
   20.8740  -15.8874  -19.6576 C   0  0  0  0  0  0  0  0  0  0  0  0
   20.2901  -16.9442  -18.7405 C   0  0  0  0  0  0  0  0  0  0  0  0
   19.6696  -18.0620  -19.5795 C   0  0  0  0  0  0  0  0  0  0  0  0
   20.3851  -19.3004  -19.4376 N   0  0  0  0  0  0  0  0  0  0  0  0
   21.2374  -12.4740  -18.0261 C   0  0  0  0  0  0  0  0  0  0  0  0
   21.7801  -12.6224  -16.9062 O   0  0  0  0  0  0  0  0  0  0  0  0
   23.6295  -10.2594  -19.8597 C   0  0  0  0  0  0  0  0  0  0  0  0
   22.6580   -9.2780  -19.2022 C   0  0  1  0  0  0  0  0  0  0  0  0
   21.7661   -8.8952  -20.2015 O   0  0  0  0  0  0  0  0  0  0  0  0
   21.9209  -10.0336  -18.1519 C   0  0  2  0  0  0  0  0  0  0  0  0
   21.2810  -11.2038  -18.6800 N   0  0  0  0  0  0  0  0  0  0  0  0
   20.9580   -9.2261  -17.3753 C   0  0  0  0  0  0  0  0  0  0  0  0
   19.7937   -9.1257  -17.7820 O   0  0  0  0  0  0  0  0  0  0  0  0
   21.2921   -8.5361  -16.1546 N   0  0  0  0  0  0  0  0  0  0  0  0
   20.3437   -7.7706  -15.4196 C   0  0  1  0  0  0  0  0  0  0  0  0
   19.7287   -8.3641  -14.2274 C   0  0  0  0  0  0  0  0  0  0  0  0
   18.8259   -9.5173  -14.4176 C   0  0  0  0  0  0  0  0  0  0  0  0
   18.5509  -10.1826  -15.5665 C   0  0  0  0  0  0  0  0  0  0  0  0
   17.6831  -11.1950  -15.2576 N   0  0  0  0  0  0  0  0  0  0  0  0
   17.4388  -11.1447  -13.9532 C   0  0  0  0  0  0  0  0  0  0  0  0
   18.1255  -10.1307  -13.4263 N   0  0  0  0  0  0  0  0  0  0  0  0
   20.9442   -6.4380  -15.0471 C   0  0  0  0  0  0  0  0  0  0  0  0
   22.1306   -6.1789  -15.3603 O   0  0  0  0  0  0  0  0  0  0  0  0
   20.2304   -5.4683  -14.3614 O   0  0  0  0  0  0  0  0  0  0  0  0
  2  1  1  6
  2  3  1  0
  4  3  1  0
  4  5  1  0
  5  6  1  0
  7  6  1  0
  8  9  2  0
  8  2  1  0
 11 10  1  6
 11 13  1  0
 12 11  1  0
 13 14  1  6
 14  8  1  0
 15 13  1  0
 15 17  1  0
 16 15  2  0
 18 17  1  0
 18 25  1  0
 18 19  1  1
 20 19  1  0
 21 20  2  0
 22 23  1  0
 22 21  1  0
 23 24  2  0
 24 20  1  0
 25 27  1  0
 26 25  2  0
M  END
$$$$
