KTH.pdb
     RDKit          3D

 27 27  0  0  1  0  0  0  0  0999 V2000
   17.1087  -13.4847  -16.0927 N   0  0  0  0  0  0  0  0  0  0  0  0
   18.4275  -12.9089  -16.2748 C   0  0  1  0  0  0  0  0  0  0  0  0
   19.0182  -13.4698  -17.5496 C   0  0  0  0  0  0  0  0  0  0  0  0
   18.6445  -14.9164  -17.7220 C   0  0  0  0  0  0  0  0  0  0  0  0
   19.8386  -15.7411  -18.1612 C   0  0  0  0  0  0  0  0  0  0  0  0
   19.3861  -17.1674  -18.4758 C   0  0  0  0  0  0  0  0  0  0  0  0
   20.4910  -18.0154  -18.8304 N   0  0  0  0  0  0  0  0  0  0  0  0
   18.2784  -11.4230  -16.3906 C   0  0  0  0  0  0  0  0  0  0  0  0
   17.5287  -10.9332  -17.2674 O   0  0  0  0  0  0  0  0  0  0  0  0
   16.9543   -9.0408  -14.1477 C   0  0  0  0  0  0  0  0  0  0  0  0
   18.4022   -8.5622  -14.2663 C   0  0  1  0  0  0  0  0  0  0  0  0
   19.0794   -9.1206  -13.1845 O   0  0  0  0  0  0  0  0  0  0  0  0
   18.9461   -9.1312  -15.5304 C   0  0  2  0  0  0  0  0  0  0  0  0
   18.9930  -10.5646  -15.4988 N   0  0  0  0  0  0  0  0  0  0  0  0
   20.2554   -8.5818  -15.9383 C   0  0  0  0  0  0  0  0  0  0  0  0
   21.2652   -9.2869  -15.8194 O   0  0  0  0  0  0  0  0  0  0  0  0
   20.4359   -7.2561  -16.4745 N   0  0  0  0  0  0  0  0  0  0  0  0
   21.7181   -6.7151  -16.7728 C   0  0  1  0  0  0  0  0  0  0  0  0
   22.3283   -7.0193  -18.0715 C   0  0  0  0  0  0  0  0  0  0  0  0
   23.6682   -6.4648  -18.3518 C   0  0  0  0  0  0  0  0  0  0  0  0
   24.5633   -5.9564  -17.4695 C   0  0  0  0  0  0  0  0  0  0  0  0
   25.6754   -5.5888  -18.1778 N   0  0  0  0  0  0  0  0  0  0  0  0
   25.4595   -5.8683  -19.4580 C   0  0  0  0  0  0  0  0  0  0  0  0
   24.2440   -6.4017  -19.5823 N   0  0  0  0  0  0  0  0  0  0  0  0
   21.6963   -5.2190  -16.5820 C   0  0  0  0  0  0  0  0  0  0  0  0
   20.6129   -4.6372  -16.3362 O   0  0  0  0  0  0  0  0  0  0  0  0
   22.8414   -4.4434  -16.6676 O   0  0  0  0  0  0  0  0  0  0  0  0
  2  1  1  6
  2  3  1  0
  4  3  1  0
  4  5  1  0
  5  6  1  0
  7  6  1  0
  8  9  2  0
  8  2  1  0
 11 10  1  1
 11 13  1  0
 12 11  1  0
 13 14  1  1
 14  8  1  0
 15 13  1  0
 15 17  1  0
 16 15  2  0
 18 17  1  0
 18 25  1  0
 18 19  1  6
 20 19  1  0
 21 20  2  0
 22 23  1  0
 22 21  1  0
 23 24  2  0
 24 20  1  0
 25 27  1  0
 26 25  2  0
M  END
$$$$
