KTH.pdb
     RDKit          3D

 27 27  0  0  1  0  0  0  0  0999 V2000
   27.8409  -15.0803  -19.1215 N   0  0  0  0  0  0  0  0  0  0  0  0
   27.4405  -13.7417  -19.5108 C   0  0  1  0  0  0  0  0  0  0  0  0
   26.2922  -13.8557  -20.4892 C   0  0  0  0  0  0  0  0  0  0  0  0
   26.7513  -14.4645  -21.7855 C   0  0  0  0  0  0  0  0  0  0  0  0
   25.5959  -14.6236  -22.7544 C   0  0  0  0  0  0  0  0  0  0  0  0
   26.1090  -15.2141  -24.0682 C   0  0  0  0  0  0  0  0  0  0  0  0
   25.0399  -15.4789  -24.9916 N   0  0  0  0  0  0  0  0  0  0  0  0
   26.9953  -13.0095  -18.2824 C   0  0  0  0  0  0  0  0  0  0  0  0
   26.4113  -13.6260  -17.3606 O   0  0  0  0  0  0  0  0  0  0  0  0
   28.9673  -11.3203  -15.9651 C   0  0  0  0  0  0  0  0  0  0  0  0
   28.0302  -10.1811  -16.3692 C   0  0  1  0  0  0  0  0  0  0  0  0
   28.7346   -9.4172  -17.2970 O   0  0  0  0  0  0  0  0  0  0  0  0
   26.8542  -10.8022  -17.0389 C   0  0  2  0  0  0  0  0  0  0  0  0
   27.2378  -11.6060  -18.1634 N   0  0  0  0  0  0  0  0  0  0  0  0
   25.7926   -9.8499  -17.4247 C   0  0  0  0  0  0  0  0  0  0  0  0
   25.8027   -9.3700  -18.5651 O   0  0  0  0  0  0  0  0  0  0  0  0
   24.7285   -9.4368  -16.5445 N   0  0  0  0  0  0  0  0  0  0  0  0
   23.7754   -8.4428  -16.9039 C   0  0  1  0  0  0  0  0  0  0  0  0
   22.3661   -8.6581  -16.5585 C   0  0  0  0  0  0  0  0  0  0  0  0
   21.6441   -9.7454  -17.2496 C   0  0  0  0  0  0  0  0  0  0  0  0
   22.0936  -10.5434  -18.2493 C   0  0  0  0  0  0  0  0  0  0  0  0
   21.0907  -11.4230  -18.5556 N   0  0  0  0  0  0  0  0  0  0  0  0
   20.0588  -11.1646  -17.7605 C   0  0  0  0  0  0  0  0  0  0  0  0
   20.3777  -10.1476  -16.9597 N   0  0  0  0  0  0  0  0  0  0  0  0
   24.2105   -7.1023  -16.3664 C   0  0  0  0  0  0  0  0  0  0  0  0
   23.6065   -6.0621  -16.7212 O   0  0  0  0  0  0  0  0  0  0  0  0
   25.2678   -6.9655  -15.4812 O   0  0  0  0  0  0  0  0  0  0  0  0
  2  1  1  1
  2  3  1  0
  4  3  1  0
  4  5  1  0
  5  6  1  0
  7  6  1  0
  8  9  2  0
  8  2  1  0
 11 10  1  6
 11 13  1  0
 12 11  1  0
 13 14  1  6
 14  8  1  0
 15 13  1  0
 15 17  1  0
 16 15  2  0
 18 17  1  0
 18 25  1  0
 18 19  1  1
 20 19  1  0
 21 20  2  0
 22 23  1  0
 22 21  1  0
 23 24  2  0
 24 20  1  0
 25 27  1  0
 26 25  2  0
M  END
$$$$
