KTH.pdb
     RDKit          3D

 27 27  0  0  1  0  0  0  0  0999 V2000
   18.7389  -11.1331  -15.2029 N   0  0  0  0  0  0  0  0  0  0  0  0
   17.6808  -10.2839  -14.6898 C   0  0  1  0  0  0  0  0  0  0  0  0
   16.4493  -11.1366  -14.4773 C   0  0  0  0  0  0  0  0  0  0  0  0
   15.8105  -11.4921  -15.7916 C   0  0  0  0  0  0  0  0  0  0  0  0
   14.5455  -12.3016  -15.5835 C   0  0  0  0  0  0  0  0  0  0  0  0
   13.8480  -12.5134  -16.9277 C   0  0  0  0  0  0  0  0  0  0  0  0
   12.6535  -13.3015  -16.7945 N   0  0  0  0  0  0  0  0  0  0  0  0
   18.1347   -9.7063  -13.3845 C   0  0  0  0  0  0  0  0  0  0  0  0
   18.7808  -10.4127  -12.5756 O   0  0  0  0  0  0  0  0  0  0  0  0
   20.5384   -7.6452  -12.6040 C   0  0  0  0  0  0  0  0  0  0  0  0
   19.3931   -6.7789  -12.0774 C   0  0  1  0  0  0  0  0  0  0  0  0
   19.0895   -5.8834  -13.1004 O   0  0  0  0  0  0  0  0  0  0  0  0
   18.2303   -7.6825  -11.8570 C   0  0  2  0  0  0  0  0  0  0  0  0
   17.8294   -8.3475  -13.0632 N   0  0  0  0  0  0  0  0  0  0  0  0
   17.0667   -7.0404  -11.2118 C   0  0  0  0  0  0  0  0  0  0  0  0
   16.0880   -6.7367  -11.9052 O   0  0  0  0  0  0  0  0  0  0  0  0
   16.9963   -6.7398   -9.8038 N   0  0  0  0  0  0  0  0  0  0  0  0
   15.9597   -5.9457   -9.2378 C   0  0  1  0  0  0  0  0  0  0  0  0
   15.1503   -6.5100   -8.1524 C   0  0  0  0  0  0  0  0  0  0  0  0
   14.1075   -7.4935   -8.5081 C   0  0  0  0  0  0  0  0  0  0  0  0
   13.7538   -7.9264   -9.7432 C   0  0  0  0  0  0  0  0  0  0  0  0
   12.7619   -8.8562   -9.5845 N   0  0  0  0  0  0  0  0  0  0  0  0
   12.5210   -8.9839   -8.2848 C   0  0  0  0  0  0  0  0  0  0  0  0
   13.3302   -8.1628   -7.6151 N   0  0  0  0  0  0  0  0  0  0  0  0
   16.5215   -4.6196   -8.7892 C   0  0  0  0  0  0  0  0  0  0  0  0
   17.7618   -4.4751   -8.6723 O   0  0  0  0  0  0  0  0  0  0  0  0
   15.7137   -3.5330   -8.4948 O   0  0  0  0  0  0  0  0  0  0  0  0
  2  1  1  1
  2  3  1  0
  4  3  1  0
  4  5  1  0
  5  6  1  0
  7  6  1  0
  8  9  2  0
  8  2  1  0
 11 10  1  6
 11 13  1  0
 12 11  1  0
 13 14  1  6
 14  8  1  0
 15 13  1  0
 15 17  1  0
 16 15  2  0
 18 17  1  0
 18 25  1  0
 18 19  1  1
 20 19  1  0
 21 20  2  0
 22 23  1  0
 22 21  1  0
 23 24  2  0
 24 20  1  0
 25 27  1  0
 26 25  2  0
M  END
$$$$
