KTH.pdb
     RDKit          3D

 27 27  0  0  1  0  0  0  0  0999 V2000
   29.1968  -23.6817  -16.8116 N   0  0  0  0  0  0  0  0  0  0  0  0
   27.9346  -23.1301  -17.2661 C   0  0  1  0  0  0  0  0  0  0  0  0
   26.8470  -24.1452  -16.9915 C   0  0  0  0  0  0  0  0  0  0  0  0
   27.4172  -25.3821  -16.3538 C   0  0  0  0  0  0  0  0  0  0  0  0
   27.4001  -26.5520  -17.3181 C   0  0  0  0  0  0  0  0  0  0  0  0
   27.9627  -27.7934  -16.6248 C   0  0  0  0  0  0  0  0  0  0  0  0
   26.9513  -28.5033  -15.8907 N   0  0  0  0  0  0  0  0  0  0  0  0
   27.6678  -21.8734  -16.4962 C   0  0  0  0  0  0  0  0  0  0  0  0
   28.6227  -21.1935  -16.0529 O   0  0  0  0  0  0  0  0  0  0  0  0
   27.9407  -19.3987  -17.0948 C   0  0  0  0  0  0  0  0  0  0  0  0
   26.4466  -19.1200  -16.9231 C   0  0  1  0  0  0  0  0  0  0  0  0
   25.8667  -19.3642  -18.1660 O   0  0  0  0  0  0  0  0  0  0  0  0
   25.9297  -20.1107  -15.9390 C   0  0  2  0  0  0  0  0  0  0  0  0
   26.3216  -21.4509  -16.2681 N   0  0  0  0  0  0  0  0  0  0  0  0
   24.4724  -20.0428  -15.7060 C   0  0  0  0  0  0  0  0  0  0  0  0
   23.7396  -20.8847  -16.2398 O   0  0  0  0  0  0  0  0  0  0  0  0
   23.8384  -19.0428  -14.8838 N   0  0  0  0  0  0  0  0  0  0  0  0
   22.4258  -18.9514  -14.7360 C   0  0  1  0  0  0  0  0  0  0  0  0
   21.8751  -17.9468  -13.8200 C   0  0  0  0  0  0  0  0  0  0  0  0
   20.4074  -17.7908  -13.7676 C   0  0  0  0  0  0  0  0  0  0  0  0
   19.4663  -18.5163  -14.4204 C   0  0  0  0  0  0  0  0  0  0  0  0
   18.2417  -18.0328  -14.0459 N   0  0  0  0  0  0  0  0  0  0  0  0
   18.4362  -17.0390  -13.1868 C   0  0  0  0  0  0  0  0  0  0  0  0
   19.7472  -16.8780  -13.0058 N   0  0  0  0  0  0  0  0  0  0  0  0
   21.7822  -18.7828  -16.0897 C   0  0  0  0  0  0  0  0  0  0  0  0
   22.2575  -17.9601  -16.9083 O   0  0  0  0  0  0  0  0  0  0  0  0
   20.6680  -19.5097  -16.4772 O   0  0  0  0  0  0  0  0  0  0  0  0
  2  1  1  1
  2  3  1  0
  4  3  1  0
  4  5  1  0
  5  6  1  0
  7  6  1  0
  8  9  2  0
  8  2  1  0
 11 10  1  6
 11 13  1  0
 12 11  1  0
 13 14  1  6
 14  8  1  0
 15 13  1  0
 15 17  1  0
 16 15  2  0
 18 17  1  0
 18 25  1  0
 18 19  1  1
 20 19  1  0
 21 20  2  0
 22 23  1  0
 22 21  1  0
 23 24  2  0
 24 20  1  0
 25 27  1  0
 26 25  2  0
M  END
$$$$
