KTH.pdb
     RDKit          3D

 27 27  0  0  1  0  0  0  0  0999 V2000
   15.5188   -6.0146   -8.6019 N   0  0  0  0  0  0  0  0  0  0  0  0
   15.0745   -7.3611   -8.9074 C   0  0  1  0  0  0  0  0  0  0  0  0
   13.5657   -7.3979   -8.8037 C   0  0  0  0  0  0  0  0  0  0  0  0
   13.1065   -6.8564   -7.4778 C   0  0  0  0  0  0  0  0  0  0  0  0
   11.5936   -6.8654   -7.3778 C   0  0  0  0  0  0  0  0  0  0  0  0
   11.1672   -6.2749   -6.0334 C   0  0  0  0  0  0  0  0  0  0  0  0
    9.7379   -6.2563   -5.8841 N   0  0  0  0  0  0  0  0  0  0  0  0
   15.4994   -7.6891  -10.3057 C   0  0  0  0  0  0  0  0  0  0  0  0
   15.1862   -8.7904  -10.8155 O   0  0  0  0  0  0  0  0  0  0  0  0
   14.8175   -5.4719  -13.1645 C   0  0  0  0  0  0  0  0  0  0  0  0
   16.3298   -5.6884  -13.2394 C   0  0  1  0  0  0  0  0  0  0  0  0
   16.9060   -4.5768  -12.6287 O   0  0  0  0  0  0  0  0  0  0  0  0
   16.6357   -6.9027  -12.4337 C   0  0  2  0  0  0  0  0  0  0  0  0
   16.2629   -6.7435  -11.0577 N   0  0  0  0  0  0  0  0  0  0  0  0
   18.0321   -7.3737  -12.5378 C   0  0  0  0  0  0  0  0  0  0  0  0
   18.7641   -7.3054  -11.5426 O   0  0  0  0  0  0  0  0  0  0  0  0
   18.6067   -7.9164  -13.7433 N   0  0  0  0  0  0  0  0  0  0  0  0
   19.9694   -8.3171  -13.8330 C   0  0  1  0  0  0  0  0  0  0  0  0
   20.2900   -9.7475  -13.7795 C   0  0  0  0  0  0  0  0  0  0  0  0
   21.6790  -10.1553  -14.0721 C   0  0  0  0  0  0  0  0  0  0  0  0
   22.7542   -9.3597  -14.2938 C   0  0  0  0  0  0  0  0  0  0  0  0
   23.8347  -10.1755  -14.4946 N   0  0  0  0  0  0  0  0  0  0  0  0
   23.4242  -11.4347  -14.3964 C   0  0  0  0  0  0  0  0  0  0  0  0
   22.1160  -11.4413  -14.1396 N   0  0  0  0  0  0  0  0  0  0  0  0
   20.5944   -7.7226  -15.0705 C   0  0  0  0  0  0  0  0  0  0  0  0
   19.8659   -7.3626  -16.0258 O   0  0  0  0  0  0  0  0  0  0  0  0
   21.9633   -7.5532  -15.2020 O   0  0  0  0  0  0  0  0  0  0  0  0
  2  1  1  6
  2  3  1  0
  4  3  1  0
  4  5  1  0
  5  6  1  0
  7  6  1  0
  8  9  2  0
  8  2  1  0
 11 10  1  1
 11 13  1  0
 12 11  1  0
 13 14  1  1
 14  8  1  0
 15 13  1  0
 15 17  1  0
 16 15  2  0
 18 17  1  0
 18 25  1  0
 18 19  1  6
 20 19  1  0
 21 20  2  0
 22 23  1  0
 22 21  1  0
 23 24  2  0
 24 20  1  0
 25 27  1  0
 26 25  2  0
M  END
$$$$
