KTH.pdb
     RDKit          3D

 27 27  0  0  1  0  0  0  0  0999 V2000
   26.3952  -13.7524  -19.4117 N   0  0  0  0  0  0  0  0  0  0  0  0
   25.2530  -14.1260  -18.5995 C   0  0  1  0  0  0  0  0  0  0  0  0
   23.9943  -13.8117  -19.3778 C   0  0  0  0  0  0  0  0  0  0  0  0
   24.3045  -13.5954  -20.8334 C   0  0  0  0  0  0  0  0  0  0  0  0
   23.0382  -13.3590  -21.6331 C   0  0  0  0  0  0  0  0  0  0  0  0
   23.3920  -13.1873  -23.1107 C   0  0  0  0  0  0  0  0  0  0  0  0
   22.2418  -12.8464  -23.9022 N   0  0  0  0  0  0  0  0  0  0  0  0
   25.3323  -15.5967  -18.3271 C   0  0  0  0  0  0  0  0  0  0  0  0
   25.6691  -16.3873  -19.2394 O   0  0  0  0  0  0  0  0  0  0  0  0
   27.3399  -16.8726  -15.7485 C   0  0  0  0  0  0  0  0  0  0  0  0
   26.0414  -17.6174  -15.4343 C   0  0  1  0  0  0  0  0  0  0  0  0
   25.4714  -16.9521  -14.3512 O   0  0  0  0  0  0  0  0  0  0  0  0
   25.1557  -17.4673  -16.6218 C   0  0  2  0  0  0  0  0  0  0  0  0
   25.0232  -16.0968  -17.0244 N   0  0  0  0  0  0  0  0  0  0  0  0
   23.8251  -18.0932  -16.4792 C   0  0  0  0  0  0  0  0  0  0  0  0
   22.9634  -17.5224  -15.7990 O   0  0  0  0  0  0  0  0  0  0  0  0
   23.4595  -19.3461  -17.0909 N   0  0  0  0  0  0  0  0  0  0  0  0
   22.1539  -19.9022  -16.9837 C   0  0  1  0  0  0  0  0  0  0  0  0
   20.9968  -19.0499  -17.2778 C   0  0  0  0  0  0  0  0  0  0  0  0
   20.1760  -18.5837  -16.1419 C   0  0  0  0  0  0  0  0  0  0  0  0
   20.3387  -18.8601  -14.8246 C   0  0  0  0  0  0  0  0  0  0  0  0
   19.3612  -18.1897  -14.1402 N   0  0  0  0  0  0  0  0  0  0  0  0
   18.6246  -17.5229  -15.0214 C   0  0  0  0  0  0  0  0  0  0  0  0
   19.1058  -17.7508  -16.2436 N   0  0  0  0  0  0  0  0  0  0  0  0
   22.0634  -21.1540  -17.8205 C   0  0  0  0  0  0  0  0  0  0  0  0
   21.0125  -21.8383  -17.8076 O   0  0  0  0  0  0  0  0  0  0  0  0
   23.1090  -21.5904  -18.6181 O   0  0  0  0  0  0  0  0  0  0  0  0
  2  1  1  6
  2  3  1  0
  4  3  1  0
  4  5  1  0
  5  6  1  0
  7  6  1  0
  8  9  2  0
  8  2  1  0
 11 10  1  6
 11 13  1  0
 12 11  1  0
 13 14  1  1
 14  8  1  0
 15 13  1  0
 15 17  1  0
 16 15  2  0
 18 17  1  0
 18 25  1  0
 18 19  1  6
 20 19  1  0
 21 20  2  0
 22 23  1  0
 22 21  1  0
 23 24  2  0
 24 20  1  0
 25 27  1  0
 26 25  2  0
M  END
$$$$
