SKQ.pdb
     RDKit          3D

 25 24  0  0  1  0  0  0  0  0999 V2000
   13.9933  -18.3376   14.1863 O   0  0  0  0  0  0  0  0  0  0  0  0
   12.7765  -18.0002   13.6052 C   0  0  0  0  0  0  0  0  0  0  0  0
   12.7055  -16.4952   13.4949 C   0  0  2  0  0  0  0  0  0  0  0  0
   13.7305  -15.9951   12.6976 N   0  0  0  0  0  0  0  0  0  0  0  0
   12.7072  -15.8930   14.8828 C   0  0  0  0  0  0  0  0  0  0  0  0
   13.7545  -15.5452   15.4323 O   0  0  0  0  0  0  0  0  0  0  0  0
   11.4939  -15.7390   15.5299 N   0  0  0  0  0  0  0  0  0  0  0  0
   11.1206  -15.1354   16.7440 C   0  0  1  0  0  0  0  0  0  0  0  0
    9.7038  -14.7695   17.0174 C   0  0  0  0  0  0  0  0  0  0  0  0
    9.5415  -13.9873   18.2750 C   0  0  0  0  0  0  0  0  0  0  0  0
    8.0550  -13.7176   18.5768 C   0  0  0  0  0  0  0  0  0  0  0  0
    7.9391  -12.8877   19.8484 C   0  0  0  0  0  0  0  0  0  0  0  0
    6.5538  -12.5722   20.1390 N   0  0  0  0  0  0  0  0  0  0  0  0
   11.8903  -15.6903   17.8480 C   0  0  0  0  0  0  0  0  0  0  0  0
   11.9764  -16.9281   17.9764 O   0  0  0  0  0  0  0  0  0  0  0  0
   17.5782  -14.0214   21.9787 N   0  0  0  0  0  0  0  0  0  0  0  0
   16.9625  -14.2527   20.7328 C   0  0  0  0  0  0  0  0  0  0  0  0
   17.4079  -13.7021   19.7103 O   0  0  0  0  0  0  0  0  0  0  0  0
   15.7694  -15.1750   20.6995 C   0  0  0  0  0  0  0  0  0  0  0  0
   14.6716  -14.5494   19.9082 C   0  0  0  0  0  0  0  0  0  0  0  0
   13.5064  -15.4489   19.7037 C   0  0  2  0  0  0  0  0  0  0  0  0
   12.5437  -14.8746   18.7784 N   0  0  0  0  0  0  0  0  0  0  0  0
   12.8036  -15.6840   20.9792 C   0  0  0  0  0  0  0  0  0  0  0  0
   11.5374  -15.2425   21.3120 O   0  0  0  0  0  0  0  0  0  0  0  0
   13.4147  -16.3592   21.8750 O   0  0  0  0  0  0  0  0  0  0  0  0
  2  1  1  0
  3  2  1  0
  3  4  1  6
  5  6  2  0
  5  3  1  0
  7  5  1  0
  8  7  1  0
  8  9  1  1
 10  9  1  0
 11 10  1  0
 12 11  1  0
 12 13  1  0
 14 22  1  0
 14  8  1  0
 15 14  2  0
 17 18  2  0
 17 16  1  0
 19 17  1  0
 21 20  1  1
 20 19  1  0
 21 23  1  0
 21 22  1  0
 23 24  1  0
 25 23  2  0
M  END
$$$$
