SKQ.pdb
     RDKit          3D

 25 24  0  0  1  0  0  0  0  0999 V2000
   13.8986  -15.7970   21.0212 O   0  0  0  0  0  0  0  0  0  0  0  0
   13.0441  -16.4874   20.1695 C   0  0  0  0  0  0  0  0  0  0  0  0
   11.7086  -15.7813   20.1641 C   0  0  2  0  0  0  0  0  0  0  0  0
   11.8462  -14.4361   19.8358 N   0  0  0  0  0  0  0  0  0  0  0  0
   11.0326  -15.9829   21.5025 C   0  0  0  0  0  0  0  0  0  0  0  0
   11.1153  -15.1405   22.3988 O   0  0  0  0  0  0  0  0  0  0  0  0
   10.3110  -17.1466   21.7017 N   0  0  0  0  0  0  0  0  0  0  0  0
    9.6333  -17.6806   22.8121 C   0  0  1  0  0  0  0  0  0  0  0  0
    8.7773  -18.8914   22.6815 C   0  0  0  0  0  0  0  0  0  0  0  0
    8.1489  -19.2964   23.9703 C   0  0  0  0  0  0  0  0  0  0  0  0
    7.3905  -20.6298   23.8268 C   0  0  0  0  0  0  0  0  0  0  0  0
    6.8163  -21.0335   25.1783 C   0  0  0  0  0  0  0  0  0  0  0  0
    6.1892  -22.3391   25.1079 N   0  0  0  0  0  0  0  0  0  0  0  0
   10.4507  -17.5688   24.0114 C   0  0  0  0  0  0  0  0  0  0  0  0
   11.6583  -17.8778   23.9633 O   0  0  0  0  0  0  0  0  0  0  0  0
   10.6284  -13.4673   28.5183 N   0  0  0  0  0  0  0  0  0  0  0  0
    9.3771  -14.0885   28.3357 C   0  0  0  0  0  0  0  0  0  0  0  0
    8.3410  -13.5192   28.7221 O   0  0  0  0  0  0  0  0  0  0  0  0
    9.3551  -15.4405   27.6672 C   0  0  0  0  0  0  0  0  0  0  0  0
   10.6889  -15.7260   27.0654 C   0  0  0  0  0  0  0  0  0  0  0  0
   10.7664  -17.0576   26.4099 C   0  0  2  0  0  0  0  0  0  0  0  0
    9.9231  -17.1215   25.2278 N   0  0  0  0  0  0  0  0  0  0  0  0
   10.3118  -18.1158   27.3317 C   0  0  0  0  0  0  0  0  0  0  0  0
    9.1727  -18.8863   27.1986 O   0  0  0  0  0  0  0  0  0  0  0  0
   11.0312  -18.3528   28.3603 O   0  0  0  0  0  0  0  0  0  0  0  0
  2  1  1  0
  3  2  1  0
  3  4  1  1
  5  6  2  0
  5  3  1  0
  7  5  1  0
  8  7  1  0
  8  9  1  6
 10  9  1  0
 11 10  1  0
 12 11  1  0
 12 13  1  0
 14 22  1  0
 14  8  1  0
 15 14  2  0
 17 18  2  0
 17 16  1  0
 19 17  1  0
 21 20  1  1
 20 19  1  0
 21 23  1  0
 21 22  1  0
 23 24  1  0
 25 23  2  0
M  END
$$$$
