SKQ.pdb
     RDKit          3D

 25 24  0  0  1  0  0  0  0  0999 V2000
   10.8030  -13.4185   19.8346 O   0  0  0  0  0  0  0  0  0  0  0  0
    9.9533  -14.0130   18.9091 C   0  0  0  0  0  0  0  0  0  0  0  0
    8.5317  -13.6523   19.2713 C   0  0  2  0  0  0  0  0  0  0  0  0
    8.3292  -12.2763   19.2260 N   0  0  0  0  0  0  0  0  0  0  0  0
    8.1972  -14.2410   20.6243 C   0  0  0  0  0  0  0  0  0  0  0  0
    8.0989  -13.5323   21.6282 O   0  0  0  0  0  0  0  0  0  0  0  0
    8.0017  -15.6081   20.7120 N   0  0  0  0  0  0  0  0  0  0  0  0
    7.7439  -16.4762   21.7879 C   0  0  1  0  0  0  0  0  0  0  0  0
    7.1576  -17.8260   21.5636 C   0  0  0  0  0  0  0  0  0  0  0  0
    6.9377  -18.5781   22.8307 C   0  0  0  0  0  0  0  0  0  0  0  0
    6.4343  -20.0072   22.5514 C   0  0  0  0  0  0  0  0  0  0  0  0
    6.2211  -20.7358   23.8715 C   0  0  0  0  0  0  0  0  0  0  0  0
    5.7457  -22.0876   23.6486 N   0  0  0  0  0  0  0  0  0  0  0  0
    8.7866  -16.3621   22.7973 C   0  0  0  0  0  0  0  0  0  0  0  0
    9.9746  -16.5726   22.4805 O   0  0  0  0  0  0  0  0  0  0  0  0
    8.7233  -13.3258   28.1176 N   0  0  0  0  0  0  0  0  0  0  0  0
    9.8421  -14.1374   28.3903 C   0  0  0  0  0  0  0  0  0  0  0  0
   10.5339  -13.9191   29.4007 O   0  0  0  0  0  0  0  0  0  0  0  0
   10.1522  -15.2536   27.4243 C   0  0  0  0  0  0  0  0  0  0  0  0
    9.0988  -15.3148   26.3711 C   0  0  0  0  0  0  0  0  0  0  0  0
    9.5690  -15.9303   25.1027 C   0  0  2  0  0  0  0  0  0  0  0  0
    8.4987  -16.0204   24.1234 N   0  0  0  0  0  0  0  0  0  0  0  0
   10.0610  -17.3001   25.3431 C   0  0  0  0  0  0  0  0  0  0  0  0
    9.2992  -18.3935   25.7077 O   0  0  0  0  0  0  0  0  0  0  0  0
   11.3135  -17.5106   25.2065 O   0  0  0  0  0  0  0  0  0  0  0  0
  2  1  1  0
  3  2  1  0
  3  4  1  1
  5  6  2  0
  5  3  1  0
  7  5  1  0
  8  7  1  0
  8  9  1  6
 10  9  1  0
 11 10  1  0
 12 11  1  0
 12 13  1  0
 14 22  1  0
 14  8  1  0
 15 14  2  0
 17 18  2  0
 17 16  1  0
 19 17  1  0
 21 20  1  1
 20 19  1  0
 21 23  1  0
 21 22  1  0
 23 24  1  0
 25 23  2  0
M  END
$$$$
