SKQ.pdb
     RDKit          3D

 25 24  0  0  1  0  0  0  0  0999 V2000
   10.3696  -13.7303   17.5378 O   0  0  0  0  0  0  0  0  0  0  0  0
   10.0688  -14.0256   18.8623 C   0  0  0  0  0  0  0  0  0  0  0  0
    8.6289  -13.6460   19.1169 C   0  0  2  0  0  0  0  0  0  0  0  0
    8.4280  -12.2783   18.9575 N   0  0  0  0  0  0  0  0  0  0  0  0
    8.2199  -14.1336   20.4895 C   0  0  0  0  0  0  0  0  0  0  0  0
    8.2485  -13.3895   21.4719 O   0  0  0  0  0  0  0  0  0  0  0  0
    7.8082  -15.4482   20.6203 N   0  0  0  0  0  0  0  0  0  0  0  0
    7.3444  -16.2075   21.7092 C   0  0  1  0  0  0  0  0  0  0  0  0
    6.5051  -17.4190   21.5002 C   0  0  0  0  0  0  0  0  0  0  0  0
    6.2173  -18.1481   22.7673 C   0  0  0  0  0  0  0  0  0  0  0  0
    5.2602  -19.3309   22.5257 C   0  0  0  0  0  0  0  0  0  0  0  0
    4.7760  -19.8719   23.8643 C   0  0  0  0  0  0  0  0  0  0  0  0
    3.7217  -20.8503   23.6793 N   0  0  0  0  0  0  0  0  0  0  0  0
    8.3544  -16.2692   22.7558 C   0  0  0  0  0  0  0  0  0  0  0  0
    9.4827  -16.7326   22.4946 O   0  0  0  0  0  0  0  0  0  0  0  0
    8.2748  -13.3216   28.2446 N   0  0  0  0  0  0  0  0  0  0  0  0
    9.4811  -14.0355   28.3857 C   0  0  0  0  0  0  0  0  0  0  0  0
   10.1672  -13.8948   29.4136 O   0  0  0  0  0  0  0  0  0  0  0  0
    9.8895  -14.9536   27.2608 C   0  0  0  0  0  0  0  0  0  0  0  0
    8.8502  -14.9333   26.1921 C   0  0  0  0  0  0  0  0  0  0  0  0
    9.1574  -15.8387   25.0543 C   0  0  2  0  0  0  0  0  0  0  0  0
    8.1003  -15.8215   24.0569 N   0  0  0  0  0  0  0  0  0  0  0  0
    9.2966  -17.2305   25.5231 C   0  0  0  0  0  0  0  0  0  0  0  0
   10.4634  -17.8446   25.9356 O   0  0  0  0  0  0  0  0  0  0  0  0
    8.2428  -17.9519   25.5541 O   0  0  0  0  0  0  0  0  0  0  0  0
  2  1  1  0
  3  2  1  0
  3  4  1  1
  5  6  2  0
  5  3  1  0
  7  5  1  0
  8  7  1  0
  8  9  1  6
 10  9  1  0
 11 10  1  0
 12 11  1  0
 12 13  1  0
 14 22  1  0
 14  8  1  0
 15 14  2  0
 17 18  2  0
 17 16  1  0
 19 17  1  0
 21 20  1  1
 20 19  1  0
 21 23  1  0
 21 22  1  0
 23 24  1  0
 25 23  2  0
M  END
$$$$
