SKQ.pdb
     RDKit          3D

 25 24  0  0  1  0  0  0  0  0999 V2000
    8.4803  -18.4327   20.1440 O   0  0  0  0  0  0  0  0  0  0  0  0
    7.5839  -17.5089   19.6195 C   0  0  0  0  0  0  0  0  0  0  0  0
    8.2826  -16.1730   19.5232 C   0  0  2  0  0  0  0  0  0  0  0  0
    9.2781  -16.1890   18.5510 N   0  0  0  0  0  0  0  0  0  0  0  0
    8.8132  -15.7883   20.8868 C   0  0  0  0  0  0  0  0  0  0  0  0
   10.0040  -15.9235   21.1758 O   0  0  0  0  0  0  0  0  0  0  0  0
    7.9230  -15.2755   21.8138 N   0  0  0  0  0  0  0  0  0  0  0  0
    8.0700  -14.8029   23.1300 C   0  0  1  0  0  0  0  0  0  0  0  0
    6.9979  -14.0042   23.7847 C   0  0  0  0  0  0  0  0  0  0  0  0
    7.3815  -13.5255   25.1425 C   0  0  0  0  0  0  0  0  0  0  0  0
    6.2408  -12.7201   25.7934 C   0  0  0  0  0  0  0  0  0  0  0  0
    6.7076  -12.1768   27.1373 C   0  0  0  0  0  0  0  0  0  0  0  0
    5.6276  -11.4987   27.8277 N   0  0  0  0  0  0  0  0  0  0  0  0
    8.7649  -15.7844   23.9504 C   0  0  0  0  0  0  0  0  0  0  0  0
    8.2838  -16.9279   24.0805 O   0  0  0  0  0  0  0  0  0  0  0  0
   15.6121  -17.9402   25.0512 N   0  0  0  0  0  0  0  0  0  0  0  0
   14.6013  -16.9911   24.8017 C   0  0  0  0  0  0  0  0  0  0  0  0
   14.8916  -15.8997   24.2807 O   0  0  0  0  0  0  0  0  0  0  0  0
   13.1883  -17.3524   25.1866 C   0  0  0  0  0  0  0  0  0  0  0  0
   12.2429  -16.3367   24.6413 C   0  0  0  0  0  0  0  0  0  0  0  0
   10.8343  -16.5581   25.0604 C   0  0  2  0  0  0  0  0  0  0  0  0
    9.9658  -15.4859   24.6036 N   0  0  0  0  0  0  0  0  0  0  0  0
   10.7336  -16.6086   26.5313 C   0  0  0  0  0  0  0  0  0  0  0  0
   11.1860  -17.6252   27.3503 O   0  0  0  0  0  0  0  0  0  0  0  0
   10.1731  -15.6230   27.1196 O   0  0  0  0  0  0  0  0  0  0  0  0
  2  1  1  0
  3  2  1  0
  3  4  1  6
  5  6  2  0
  5  3  1  0
  7  5  1  0
  8  7  1  0
  8  9  1  1
 10  9  1  0
 11 10  1  0
 12 11  1  0
 12 13  1  0
 14 22  1  0
 14  8  1  0
 15 14  2  0
 17 18  2  0
 17 16  1  0
 19 17  1  0
 21 20  1  1
 20 19  1  0
 21 23  1  0
 21 22  1  0
 23 24  1  0
 25 23  2  0
M  END
$$$$
