SKQ.pdb
     RDKit          3D

 25 24  0  0  1  0  0  0  0  0999 V2000
    5.5423  -19.2000   20.4472 O   0  0  0  0  0  0  0  0  0  0  0  0
    6.8590  -18.9033   20.7794 C   0  0  0  0  0  0  0  0  0  0  0  0
    7.7630  -19.5526   19.7580 C   0  0  2  0  0  0  0  0  0  0  0  0
    7.6156  -20.9363   19.7554 N   0  0  0  0  0  0  0  0  0  0  0  0
    9.1915  -19.1245   20.0127 C   0  0  0  0  0  0  0  0  0  0  0  0
    9.9461  -19.7907   20.7244 O   0  0  0  0  0  0  0  0  0  0  0  0
    9.6385  -17.9552   19.4230 N   0  0  0  0  0  0  0  0  0  0  0  0
   10.8710  -17.2783   19.4412 C   0  0  1  0  0  0  0  0  0  0  0  0
   11.2862  -16.4060   18.3087 C   0  0  0  0  0  0  0  0  0  0  0  0
   12.7240  -16.0207   18.3733 C   0  0  0  0  0  0  0  0  0  0  0  0
   13.1164  -15.1266   17.1816 C   0  0  0  0  0  0  0  0  0  0  0  0
   14.5968  -14.7818   17.2735 C   0  0  0  0  0  0  0  0  0  0  0  0
   14.9360  -13.7002   16.3690 N   0  0  0  0  0  0  0  0  0  0  0  0
   11.1796  -16.8156   20.7865 C   0  0  0  0  0  0  0  0  0  0  0  0
   10.2988  -16.2387   21.4553 O   0  0  0  0  0  0  0  0  0  0  0  0
   10.8317  -19.6785   25.0878 N   0  0  0  0  0  0  0  0  0  0  0  0
   11.6990  -18.8296   25.8034 C   0  0  0  0  0  0  0  0  0  0  0  0
   11.9182  -19.0424   27.0091 O   0  0  0  0  0  0  0  0  0  0  0  0
   12.3318  -17.6816   25.0572 C   0  0  0  0  0  0  0  0  0  0  0  0
   11.9357  -17.7356   23.6210 C   0  0  0  0  0  0  0  0  0  0  0  0
   12.6452  -16.7397   22.7764 C   0  0  2  0  0  0  0  0  0  0  0  0
   12.4426  -16.9983   21.3605 N   0  0  0  0  0  0  0  0  0  0  0  0
   14.0979  -16.7882   23.0284 C   0  0  0  0  0  0  0  0  0  0  0  0
   15.0472  -17.4097   22.2399 O   0  0  0  0  0  0  0  0  0  0  0  0
   14.5358  -16.2041   24.0766 O   0  0  0  0  0  0  0  0  0  0  0  0
  2  1  1  0
  3  2  1  0
  3  4  1  1
  5  6  2  0
  5  3  1  0
  7  5  1  0
  8  7  1  0
  8  9  1  6
 10  9  1  0
 11 10  1  0
 12 11  1  0
 12 13  1  0
 14 22  1  0
 14  8  1  0
 15 14  2  0
 17 18  2  0
 17 16  1  0
 19 17  1  0
 21 20  1  1
 20 19  1  0
 21 23  1  0
 21 22  1  0
 23 24  1  0
 25 23  2  0
M  END
$$$$
