SKQ.pdb
     RDKit          3D

 25 24  0  0  1  0  0  0  0  0999 V2000
   11.9941  -20.6906   18.6185 O   0  0  0  0  0  0  0  0  0  0  0  0
   10.7282  -21.2582   18.5326 C   0  0  0  0  0  0  0  0  0  0  0  0
    9.7044  -20.1602   18.7012 C   0  0  2  0  0  0  0  0  0  0  0  0
   10.1633  -18.9533   18.1824 N   0  0  0  0  0  0  0  0  0  0  0  0
    9.3235  -20.0536   20.1615 C   0  0  0  0  0  0  0  0  0  0  0  0
    9.7425  -19.1365   20.8708 O   0  0  0  0  0  0  0  0  0  0  0  0
    8.4850  -21.0189   20.6904 N   0  0  0  0  0  0  0  0  0  0  0  0
    7.9528  -21.2326   21.9744 C   0  0  1  0  0  0  0  0  0  0  0  0
    6.6908  -21.9983   22.1664 C   0  0  0  0  0  0  0  0  0  0  0  0
    6.2999  -22.1178   23.5991 C   0  0  0  0  0  0  0  0  0  0  0  0
    5.0697  -23.0298   23.7679 C   0  0  0  0  0  0  0  0  0  0  0  0
    4.7218  -23.1421   25.2462 C   0  0  0  0  0  0  0  0  0  0  0  0
    3.5284  -23.9429   25.4403 N   0  0  0  0  0  0  0  0  0  0  0  0
    9.0203  -21.4548   22.9390 C   0  0  0  0  0  0  0  0  0  0  0  0
    9.7417  -22.4671   22.8352 O   0  0  0  0  0  0  0  0  0  0  0  0
   14.8596  -20.1375   26.0682 N   0  0  0  0  0  0  0  0  0  0  0  0
   13.7037  -19.9866   25.2770 C   0  0  0  0  0  0  0  0  0  0  0  0
   13.7989  -19.9793   24.0369 O   0  0  0  0  0  0  0  0  0  0  0  0
   12.3811  -19.8385   25.9869 C   0  0  0  0  0  0  0  0  0  0  0  0
   11.2906  -19.6572   24.9866 C   0  0  0  0  0  0  0  0  0  0  0  0
   10.3572  -20.8116   24.9170 C   0  0  2  0  0  0  0  0  0  0  0  0
    9.2672  -20.5626   23.9883 N   0  0  0  0  0  0  0  0  0  0  0  0
    9.7570  -21.0726   26.2391 C   0  0  0  0  0  0  0  0  0  0  0  0
   10.3680  -21.6990   27.3083 O   0  0  0  0  0  0  0  0  0  0  0  0
    8.5533  -20.6891   26.4278 O   0  0  0  0  0  0  0  0  0  0  0  0
  2  1  1  0
  3  2  1  0
  3  4  1  1
  5  6  2  0
  5  3  1  0
  7  5  1  0
  8  7  1  0
  8  9  1  6
 10  9  1  0
 11 10  1  0
 12 11  1  0
 12 13  1  0
 14 22  1  0
 14  8  1  0
 15 14  2  0
 17 18  2  0
 17 16  1  0
 19 17  1  0
 21 20  1  1
 20 19  1  0
 21 23  1  0
 21 22  1  0
 23 24  1  0
 25 23  2  0
M  END
$$$$
