SKQ.pdb
     RDKit          3D

 25 24  0  0  1  0  0  0  0  0999 V2000
   15.8495  -23.2735   23.9331 O   0  0  0  0  0  0  0  0  0  0  0  0
   15.3966  -22.1375   24.5937 C   0  0  0  0  0  0  0  0  0  0  0  0
   13.9779  -21.8662   24.1513 C   0  0  2  0  0  0  0  0  0  0  0  0
   13.8749  -20.6429   23.4960 N   0  0  0  0  0  0  0  0  0  0  0  0
   13.0561  -21.9602   25.3473 C   0  0  0  0  0  0  0  0  0  0  0  0
   12.9832  -21.0512   26.1768 O   0  0  0  0  0  0  0  0  0  0  0  0
   12.2875  -23.1016   25.4920 N   0  0  0  0  0  0  0  0  0  0  0  0
   11.3508  -23.5153   26.4559 C   0  0  1  0  0  0  0  0  0  0  0  0
   10.1538  -24.3128   26.0727 C   0  0  0  0  0  0  0  0  0  0  0  0
    9.3021  -24.6739   27.2406 C   0  0  0  0  0  0  0  0  0  0  0  0
    8.1131  -25.5555   26.8131 C   0  0  0  0  0  0  0  0  0  0  0  0
    7.3024  -25.9430   28.0426 C   0  0  0  0  0  0  0  0  0  0  0  0
    6.2414  -26.8686   27.6955 N   0  0  0  0  0  0  0  0  0  0  0  0
   12.0206  -23.8737   27.6978 C   0  0  0  0  0  0  0  0  0  0  0  0
   12.6763  -24.9331   27.7590 O   0  0  0  0  0  0  0  0  0  0  0  0
   13.8883  -19.2321   30.9487 N   0  0  0  0  0  0  0  0  0  0  0  0
   14.7288  -20.3538   30.8057 C   0  0  0  0  0  0  0  0  0  0  0  0
   15.8498  -20.3602   31.3445 O   0  0  0  0  0  0  0  0  0  0  0  0
   14.2175  -21.5150   29.9900 C   0  0  0  0  0  0  0  0  0  0  0  0
   13.1921  -22.2651   30.7700 C   0  0  0  0  0  0  0  0  0  0  0  0
   12.6533  -23.4483   30.0499 C   0  0  2  0  0  0  0  0  0  0  0  0
   11.9536  -23.0622   28.8357 N   0  0  0  0  0  0  0  0  0  0  0  0
   11.6915  -24.1772   30.8983 C   0  0  0  0  0  0  0  0  0  0  0  0
   10.3331  -24.3010   30.6787 O   0  0  0  0  0  0  0  0  0  0  0  0
   12.1447  -24.7541   31.9440 O   0  0  0  0  0  0  0  0  0  0  0  0
  2  1  1  0
  3  2  1  0
  3  4  1  1
  5  6  2  0
  5  3  1  0
  7  5  1  0
  8  7  1  0
  8  9  1  6
 10  9  1  0
 11 10  1  0
 12 11  1  0
 12 13  1  0
 14 22  1  0
 14  8  1  0
 15 14  2  0
 17 18  2  0
 17 16  1  0
 19 17  1  0
 21 20  1  1
 20 19  1  0
 21 23  1  0
 21 22  1  0
 23 24  1  0
 25 23  2  0
M  END
$$$$
