SKQ.pdb
     RDKit          3D

 25 24  0  0  1  0  0  0  0  0999 V2000
   13.2156  -19.8892   20.1723 O   0  0  0  0  0  0  0  0  0  0  0  0
   12.1354  -19.1197   20.5884 C   0  0  0  0  0  0  0  0  0  0  0  0
   12.3551  -17.7012   20.1177 C   0  0  2  0  0  0  0  0  0  0  0  0
   13.6892  -17.4739   19.7938 N   0  0  0  0  0  0  0  0  0  0  0  0
   11.8449  -16.7418   21.1704 C   0  0  0  0  0  0  0  0  0  0  0  0
   12.6147  -16.1543   21.9332 O   0  0  0  0  0  0  0  0  0  0  0  0
   10.4796  -16.5355   21.2600 N   0  0  0  0  0  0  0  0  0  0  0  0
    9.6794  -15.7421   22.1013 C   0  0  1  0  0  0  0  0  0  0  0  0
    8.4019  -15.1521   21.6156 C   0  0  0  0  0  0  0  0  0  0  0  0
    8.5620  -14.3964   20.3416 C   0  0  0  0  0  0  0  0  0  0  0  0
    7.1996  -13.9295   19.7945 C   0  0  0  0  0  0  0  0  0  0  0  0
    7.3951  -13.2945   18.4242 C   0  0  0  0  0  0  0  0  0  0  0  0
    6.1306  -12.8466   17.8734 N   0  0  0  0  0  0  0  0  0  0  0  0
    9.6996  -16.2594   23.4618 C   0  0  0  0  0  0  0  0  0  0  0  0
    9.7867  -17.4894   23.6506 O   0  0  0  0  0  0  0  0  0  0  0  0
   11.8796  -15.5872   29.4944 N   0  0  0  0  0  0  0  0  0  0  0  0
   10.7788  -14.7868   29.1306 C   0  0  0  0  0  0  0  0  0  0  0  0
   10.7505  -13.5872   29.4578 O   0  0  0  0  0  0  0  0  0  0  0  0
    9.6664  -15.4371   28.3464 C   0  0  0  0  0  0  0  0  0  0  0  0
    9.6568  -14.9075   26.9528 C   0  0  0  0  0  0  0  0  0  0  0  0
    9.6575  -15.9736   25.9175 C   0  0  2  0  0  0  0  0  0  0  0  0
    9.6244  -15.4158   24.5757 N   0  0  0  0  0  0  0  0  0  0  0  0
    8.4710  -16.8379   26.0634 C   0  0  0  0  0  0  0  0  0  0  0  0
    8.3808  -17.9857   26.8272 O   0  0  0  0  0  0  0  0  0  0  0  0
    7.4158  -16.5060   25.4246 O   0  0  0  0  0  0  0  0  0  0  0  0
  2  1  1  0
  3  2  1  0
  3  4  1  1
  5  6  2  0
  5  3  1  0
  7  5  1  0
  8  7  1  0
  8  9  1  6
 10  9  1  0
 11 10  1  0
 12 11  1  0
 12 13  1  0
 14 22  1  0
 14  8  1  0
 15 14  2  0
 17 18  2  0
 17 16  1  0
 19 17  1  0
 21 20  1  1
 20 19  1  0
 21 23  1  0
 21 22  1  0
 23 24  1  0
 25 23  2  0
M  END
$$$$
