SKQ.pdb
     RDKit          3D

 25 24  0  0  1  0  0  0  0  0999 V2000
   11.5557  -17.1872   18.1568 O   0  0  0  0  0  0  0  0  0  0  0  0
   11.0357  -16.9403   19.4220 C   0  0  0  0  0  0  0  0  0  0  0  0
    9.6326  -17.4979   19.4745 C   0  0  2  0  0  0  0  0  0  0  0  0
    8.7850  -16.8242   18.6004 N   0  0  0  0  0  0  0  0  0  0  0  0
    9.1354  -17.4630   20.9030 C   0  0  0  0  0  0  0  0  0  0  0  0
    8.7714  -16.4109   21.4324 O   0  0  0  0  0  0  0  0  0  0  0  0
    9.0974  -18.6513   21.6110 N   0  0  0  0  0  0  0  0  0  0  0  0
    8.6533  -18.9885   22.9019 C   0  0  1  0  0  0  0  0  0  0  0  0
    8.0413  -20.3162   23.1825 C   0  0  0  0  0  0  0  0  0  0  0  0
    7.6765  -20.4928   24.6162 C   0  0  0  0  0  0  0  0  0  0  0  0
    7.0087  -21.8600   24.8579 C   0  0  0  0  0  0  0  0  0  0  0  0
    6.5726  -21.9600   26.3135 C   0  0  0  0  0  0  0  0  0  0  0  0
    6.0633  -23.2841   26.6141 N   0  0  0  0  0  0  0  0  0  0  0  0
    9.5507  -18.4422   23.9096 C   0  0  0  0  0  0  0  0  0  0  0  0
   10.7597  -18.7484   23.8870 O   0  0  0  0  0  0  0  0  0  0  0  0
    8.4962  -13.5626   27.6237 N   0  0  0  0  0  0  0  0  0  0  0  0
    9.7520  -13.9584   28.1249 C   0  0  0  0  0  0  0  0  0  0  0  0
   10.2949  -13.2971   29.0275 O   0  0  0  0  0  0  0  0  0  0  0  0
   10.3891  -15.1896   27.5301 C   0  0  0  0  0  0  0  0  0  0  0  0
    9.4765  -15.7876   26.5141 C   0  0  0  0  0  0  0  0  0  0  0  0
   10.0418  -16.9911   25.8504 C   0  0  2  0  0  0  0  0  0  0  0  0
    9.0989  -17.5766   24.9119 N   0  0  0  0  0  0  0  0  0  0  0  0
   10.3692  -18.0271   26.8483 C   0  0  0  0  0  0  0  0  0  0  0  0
   11.5820  -18.1960   27.4881 O   0  0  0  0  0  0  0  0  0  0  0  0
    9.4509  -18.8586   27.1599 O   0  0  0  0  0  0  0  0  0  0  0  0
  2  1  1  0
  3  2  1  0
  3  4  1  6
  5  6  2  0
  5  3  1  0
  7  5  1  0
  8  7  1  0
  8  9  1  6
 10  9  1  0
 11 10  1  0
 12 11  1  0
 12 13  1  0
 14 22  1  0
 14  8  1  0
 15 14  2  0
 17 18  2  0
 17 16  1  0
 19 17  1  0
 21 20  1  1
 20 19  1  0
 21 23  1  0
 21 22  1  0
 23 24  1  0
 25 23  2  0
M  END
$$$$
