SKQ.pdb
     RDKit          3D

 25 24  0  0  1  0  0  0  0  0999 V2000
   12.1562  -19.7880   17.7396 O   0  0  0  0  0  0  0  0  0  0  0  0
   12.3828  -18.7945   16.7942 C   0  0  0  0  0  0  0  0  0  0  0  0
   11.1849  -17.8743   16.7776 C   0  0  2  0  0  0  0  0  0  0  0  0
   11.2976  -16.9112   15.7796 N   0  0  0  0  0  0  0  0  0  0  0  0
   11.0053  -17.2649   18.1507 C   0  0  0  0  0  0  0  0  0  0  0  0
   11.7713  -16.3971   18.5750 O   0  0  0  0  0  0  0  0  0  0  0  0
    9.9507  -17.7075   18.9294 N   0  0  0  0  0  0  0  0  0  0  0  0
    9.4707  -17.3389   20.1988 C   0  0  1  0  0  0  0  0  0  0  0  0
    8.0254  -17.4513   20.5371 C   0  0  0  0  0  0  0  0  0  0  0  0
    7.2282  -18.0994   19.4580 C   0  0  0  0  0  0  0  0  0  0  0  0
    6.2467  -19.1370   20.0356 C   0  0  0  0  0  0  0  0  0  0  0  0
    5.4444  -19.7608   18.9015 C   0  0  0  0  0  0  0  0  0  0  0  0
    4.5368  -20.7747   19.4029 N   0  0  0  0  0  0  0  0  0  0  0  0
   10.4275  -17.7059   21.2327 C   0  0  0  0  0  0  0  0  0  0  0  0
   10.7404  -18.9040   21.3834 O   0  0  0  0  0  0  0  0  0  0  0  0
   14.6484  -14.2954   22.0347 N   0  0  0  0  0  0  0  0  0  0  0  0
   14.7515  -15.4601   21.2489 C   0  0  0  0  0  0  0  0  0  0  0  0
   15.4232  -15.4433   20.2021 O   0  0  0  0  0  0  0  0  0  0  0  0
   14.0278  -16.6949   21.7250 C   0  0  0  0  0  0  0  0  0  0  0  0
   13.2476  -16.3780   22.9553 C   0  0  0  0  0  0  0  0  0  0  0  0
   11.9876  -17.1574   23.0709 C   0  0  2  0  0  0  0  0  0  0  0  0
   11.0140  -16.7513   22.0709 N   0  0  0  0  0  0  0  0  0  0  0  0
   11.3702  -16.9504   24.3946 C   0  0  0  0  0  0  0  0  0  0  0  0
   10.0928  -16.4851   24.6405 O   0  0  0  0  0  0  0  0  0  0  0  0
   12.0753  -17.2220   25.4246 O   0  0  0  0  0  0  0  0  0  0  0  0
  2  1  1  0
  3  2  1  0
  3  4  1  6
  5  6  2  0
  5  3  1  0
  7  5  1  0
  8  7  1  0
  8  9  1  1
 10  9  1  0
 11 10  1  0
 12 11  1  0
 12 13  1  0
 14 22  1  0
 14  8  1  0
 15 14  2  0
 17 18  2  0
 17 16  1  0
 19 17  1  0
 21 20  1  1
 20 19  1  0
 21 23  1  0
 21 22  1  0
 23 24  1  0
 25 23  2  0
M  END
$$$$
