SKQ.pdb
     RDKit          3D

 25 24  0  0  1  0  0  0  0  0999 V2000
   10.3856  -18.9254   18.0272 O   0  0  0  0  0  0  0  0  0  0  0  0
   11.3146  -18.4312   17.1190 C   0  0  0  0  0  0  0  0  0  0  0  0
   11.1514  -16.9312   17.0434 C   0  0  2  0  0  0  0  0  0  0  0  0
   11.9838  -16.3775   16.0754 N   0  0  0  0  0  0  0  0  0  0  0  0
   11.3834  -16.3348   18.4143 C   0  0  0  0  0  0  0  0  0  0  0  0
   12.5196  -16.1956   18.8719 O   0  0  0  0  0  0  0  0  0  0  0  0
   10.2800  -15.9441   19.1523 N   0  0  0  0  0  0  0  0  0  0  0  0
   10.1274  -15.3972   20.4389 C   0  0  1  0  0  0  0  0  0  0  0  0
    8.8544  -14.7451   20.8514 C   0  0  0  0  0  0  0  0  0  0  0  0
    8.4888  -13.5908   19.9832 C   0  0  0  0  0  0  0  0  0  0  0  0
    7.8636  -14.0655   18.6575 C   0  0  0  0  0  0  0  0  0  0  0  0
    7.3602  -12.8599   17.8751 C   0  0  0  0  0  0  0  0  0  0  0  0
    6.8992  -13.2510   16.5569 N   0  0  0  0  0  0  0  0  0  0  0  0
   10.8041  -16.2232   21.4284 C   0  0  0  0  0  0  0  0  0  0  0  0
   10.7758  -17.4651   21.3154 O   0  0  0  0  0  0  0  0  0  0  0  0
   17.3444  -17.1050   23.3443 N   0  0  0  0  0  0  0  0  0  0  0  0
   16.2687  -16.1956   23.3706 C   0  0  0  0  0  0  0  0  0  0  0  0
   16.4668  -14.9947   23.1146 O   0  0  0  0  0  0  0  0  0  0  0  0
   14.9023  -16.7339   23.7147 C   0  0  0  0  0  0  0  0  0  0  0  0
   13.8619  -15.9975   22.9414 C   0  0  0  0  0  0  0  0  0  0  0  0
   12.4779  -16.4534   23.2336 C   0  0  2  0  0  0  0  0  0  0  0  0
   11.4921  -15.6660   22.5119 N   0  0  0  0  0  0  0  0  0  0  0  0
   12.1809  -16.3178   24.6722 C   0  0  0  0  0  0  0  0  0  0  0  0
   11.1901  -15.5367   25.2354 O   0  0  0  0  0  0  0  0  0  0  0  0
   12.9044  -16.9805   25.4901 O   0  0  0  0  0  0  0  0  0  0  0  0
  2  1  1  0
  3  2  1  0
  3  4  1  6
  5  6  2  0
  5  3  1  0
  7  5  1  0
  8  7  1  0
  8  9  1  1
 10  9  1  0
 11 10  1  0
 12 11  1  0
 12 13  1  0
 14 22  1  0
 14  8  1  0
 15 14  2  0
 17 18  2  0
 17 16  1  0
 19 17  1  0
 21 20  1  1
 20 19  1  0
 21 23  1  0
 21 22  1  0
 23 24  1  0
 25 23  2  0
M  END
$$$$
