VFE.pdb
     RDKit          3D

 28 28  0  0  1  0  0  0  0  0999 V2000
   28.4302  -20.7325  -19.3634 C   0  0  0  0  0  0  0  0  0  0  0  0
   27.7653  -21.4519  -18.2089 C   0  0  2  0  0  0  0  0  0  0  0  0
   27.0682  -22.6678  -18.7839 C   0  0  0  0  0  0  0  0  0  0  0  0
   26.6977  -20.5917  -17.5699 C   0  0  2  0  0  0  0  0  0  0  0  0
   27.2831  -19.2997  -17.2829 N   0  0  0  0  0  0  0  0  0  0  0  0
   26.1568  -21.2029  -16.3262 C   0  0  0  0  0  0  0  0  0  0  0  0
   25.5399  -22.2993  -16.3325 O   0  0  0  0  0  0  0  0  0  0  0  0
   26.3327  -20.5496  -15.1096 N   0  0  0  0  0  0  0  0  0  0  0  0
   25.6773  -20.9528  -13.8417 C   0  0  1  0  0  0  0  0  0  0  0  0
   26.5558  -20.3361  -12.7889 C   0  0  0  0  0  0  0  0  0  0  0  0
   25.9795  -20.4298  -11.4475 C   0  0  0  0  0  0  0  0  0  0  0  0
   26.3569  -21.4567  -10.6036 C   0  0  0  0  0  0  0  0  0  0  0  0
   25.7894  -21.5705   -9.3449 C   0  0  0  0  0  0  0  0  0  0  0  0
   24.8500  -20.6445   -8.9568 C   0  0  0  0  0  0  0  0  0  0  0  0
   24.4639  -19.6122   -9.7892 C   0  0  0  0  0  0  0  0  0  0  0  0
   25.0280  -19.5001  -11.0405 C   0  0  0  0  0  0  0  0  0  0  0  0
   24.2858  -20.5630  -13.8394 C   0  0  0  0  0  0  0  0  0  0  0  0
   23.9309  -19.4050  -14.2115 O   0  0  0  0  0  0  0  0  0  0  0  0
   23.2570  -21.4372  -13.4389 N   0  0  0  0  0  0  0  0  0  0  0  0
   21.8761  -20.9406  -13.4114 C   0  0  1  0  0  0  0  0  0  0  0  0
   21.0374  -21.7987  -14.3513 C   0  0  0  0  0  0  0  0  0  0  0  0
   19.6253  -21.2995  -14.3124 C   0  0  0  0  0  0  0  0  0  0  0  0
   18.7407  -22.1104  -15.2153 C   0  0  0  0  0  0  0  0  0  0  0  0
   17.5751  -21.6676  -15.3714 O   0  0  0  0  0  0  0  0  0  0  0  0
   21.3635  -21.0696  -12.0592 C   0  0  0  0  0  0  0  0  0  0  0  0
   20.3131  -20.5104  -11.7018 O   0  0  0  0  0  0  0  0  0  0  0  0
   19.1287  -23.2568  -15.8463 O   0  0  0  0  0  0  0  0  0  0  0  0
   22.0631  -21.8488  -11.1167 O   0  0  0  0  0  0  0  0  0  0  0  0
  2  3  1  6
  2  1  1  0
  4  2  1  0
  4  5  1  1
  6  4  1  0
  6  7  2  0
  8  6  1  0
  9  8  1  0
  9 10  1  1
 10 11  1  0
 11 12  2  0
 11 16  1  0
 12 13  1  0
 13 14  2  0
 15 14  1  0
 16 15  2  0
 17  9  1  0
 18 17  2  0
 19 17  1  0
 20 21  1  6
 20 19  1  0
 22 23  1  0
 22 21  1  0
 23 24  2  0
 25 28  1  0
 25 20  1  0
 26 25  2  0
 27 23  1  0
M  END
$$$$
