VFE.pdb
     RDKit          3D

 28 28  0  0  1  0  0  0  0  0999 V2000
   21.4186  -12.8109  -21.2783 C   0  0  0  0  0  0  0  0  0  0  0  0
   20.9573  -11.8060  -20.2439 C   0  0  2  0  0  0  0  0  0  0  0  0
   21.2026  -10.4273  -20.8218 C   0  0  0  0  0  0  0  0  0  0  0  0
   21.7793  -11.9069  -18.9781 C   0  0  2  0  0  0  0  0  0  0  0  0
   21.6580  -13.2596  -18.4781 N   0  0  0  0  0  0  0  0  0  0  0  0
   21.3382  -10.9315  -17.9452 C   0  0  0  0  0  0  0  0  0  0  0  0
   20.2199  -11.0195  -17.3755 O   0  0  0  0  0  0  0  0  0  0  0  0
   22.1817   -9.8829  -17.5889 N   0  0  0  0  0  0  0  0  0  0  0  0
   21.8097   -8.7903  -16.6574 C   0  0  1  0  0  0  0  0  0  0  0  0
   23.1245   -8.4016  -16.0404 C   0  0  0  0  0  0  0  0  0  0  0  0
   23.0207   -7.2138  -15.1929 C   0  0  0  0  0  0  0  0  0  0  0  0
   22.4086   -7.2983  -13.9570 C   0  0  0  0  0  0  0  0  0  0  0  0
   22.2768   -6.1697  -13.1644 C   0  0  0  0  0  0  0  0  0  0  0  0
   22.7664   -4.9727  -13.6314 C   0  0  0  0  0  0  0  0  0  0  0  0
   23.3816   -4.8735  -14.8640 C   0  0  0  0  0  0  0  0  0  0  0  0
   23.5117   -5.9956  -15.6516 C   0  0  0  0  0  0  0  0  0  0  0  0
   21.0836   -7.7518  -17.3520 C   0  0  0  0  0  0  0  0  0  0  0  0
   21.4329   -7.3722  -18.5093 O   0  0  0  0  0  0  0  0  0  0  0  0
   19.9562   -7.1170  -16.7962 N   0  0  0  0  0  0  0  0  0  0  0  0
   19.2970   -6.0494  -17.5576 C   0  0  1  0  0  0  0  0  0  0  0  0
   17.8540   -6.4648  -17.8184 C   0  0  0  0  0  0  0  0  0  0  0  0
   17.2143   -5.4275  -18.6899 C   0  0  0  0  0  0  0  0  0  0  0  0
   15.7711   -5.7534  -18.9471 C   0  0  0  0  0  0  0  0  0  0  0  0
   14.9573   -4.8233  -18.7201 O   0  0  0  0  0  0  0  0  0  0  0  0
   19.3098   -4.8356  -16.7610 C   0  0  0  0  0  0  0  0  0  0  0  0
   19.1473   -4.8599  -15.5294 O   0  0  0  0  0  0  0  0  0  0  0  0
   15.3231   -6.9618  -19.3968 O   0  0  0  0  0  0  0  0  0  0  0  0
   19.5140   -3.5898  -17.3864 O   0  0  0  0  0  0  0  0  0  0  0  0
  2  3  1  6
  2  1  1  0
  4  2  1  0
  4  5  1  1
  6  4  1  0
  6  7  2  0
  8  6  1  0
  9  8  1  0
  9 10  1  6
 10 11  1  0
 11 12  2  0
 11 16  1  0
 12 13  1  0
 13 14  2  0
 15 14  1  0
 16 15  2  0
 17  9  1  0
 18 17  2  0
 19 17  1  0
 20 21  1  1
 20 19  1  0
 22 23  1  0
 22 21  1  0
 23 24  2  0
 25 28  1  0
 25 20  1  0
 26 25  2  0
 27 23  1  0
M  END
$$$$
