VFE.pdb
     RDKit          3D

 28 28  0  0  1  0  0  0  0  0999 V2000
   28.0094  -20.4222  -19.2406 C   0  0  0  0  0  0  0  0  0  0  0  0
   27.1962  -20.8490  -18.0368 C   0  0  2  0  0  0  0  0  0  0  0  0
   26.3745  -19.6511  -17.6070 C   0  0  0  0  0  0  0  0  0  0  0  0
   28.0909  -21.2116  -16.8724 C   0  0  2  0  0  0  0  0  0  0  0  0
   28.9217  -22.3237  -17.2819 N   0  0  0  0  0  0  0  0  0  0  0  0
   27.3107  -21.5682  -15.6571 C   0  0  0  0  0  0  0  0  0  0  0  0
   26.6146  -22.6141  -15.5913 O   0  0  0  0  0  0  0  0  0  0  0  0
   27.3442  -20.7248  -14.5500 N   0  0  0  0  0  0  0  0  0  0  0  0
   26.5854  -20.9591  -13.2973 C   0  0  1  0  0  0  0  0  0  0  0  0
   27.4418  -20.3051  -12.2488 C   0  0  0  0  0  0  0  0  0  0  0  0
   26.8320  -20.3406  -10.9196 C   0  0  0  0  0  0  0  0  0  0  0  0
   26.9740  -21.4615  -10.1241 C   0  0  0  0  0  0  0  0  0  0  0  0
   26.3703  -21.5147   -8.8783 C   0  0  0  0  0  0  0  0  0  0  0  0
   25.6331  -20.4344   -8.4539 C   0  0  0  0  0  0  0  0  0  0  0  0
   25.4835  -19.3070   -9.2377 C   0  0  0  0  0  0  0  0  0  0  0  0
   26.0834  -19.2551  -10.4762 C   0  0  0  0  0  0  0  0  0  0  0  0
   25.2289  -20.4775  -13.4239 C   0  0  0  0  0  0  0  0  0  0  0  0
   24.9831  -19.3411  -13.9276 O   0  0  0  0  0  0  0  0  0  0  0  0
   24.1164  -21.2354  -13.0104 N   0  0  0  0  0  0  0  0  0  0  0  0
   22.7790  -20.6373  -13.0998 C   0  0  1  0  0  0  0  0  0  0  0  0
   21.9867  -21.3873  -14.1641 C   0  0  0  0  0  0  0  0  0  0  0  0
   21.6522  -20.4290  -15.2662 C   0  0  0  0  0  0  0  0  0  0  0  0
   20.1873  -20.0986  -15.2685 C   0  0  0  0  0  0  0  0  0  0  0  0
   19.9084  -18.8745  -15.2135 O   0  0  0  0  0  0  0  0  0  0  0  0
   22.1175  -20.7864  -11.8160 C   0  0  0  0  0  0  0  0  0  0  0  0
   22.5732  -21.5258  -10.9274 O   0  0  0  0  0  0  0  0  0  0  0  0
   19.1886  -21.0273  -15.3253 O   0  0  0  0  0  0  0  0  0  0  0  0
   20.9283  -20.0776  -11.5547 O   0  0  0  0  0  0  0  0  0  0  0  0
  2  3  1  1
  2  1  1  0
  4  2  1  0
  4  5  1  6
  6  4  1  0
  6  7  2  0
  8  6  1  0
  9  8  1  0
  9 10  1  1
 10 11  1  0
 11 12  2  0
 11 16  1  0
 12 13  1  0
 13 14  2  0
 15 14  1  0
 16 15  2  0
 17  9  1  0
 18 17  2  0
 19 17  1  0
 20 21  1  6
 20 19  1  0
 22 23  1  0
 22 21  1  0
 23 24  2  0
 25 28  1  0
 25 20  1  0
 26 25  2  0
 27 23  1  0
M  END
$$$$
