VFE.pdb
     RDKit          3D

 28 28  0  0  1  0  0  0  0  0999 V2000
   24.6076  -10.5272  -18.8432 C   0  0  0  0  0  0  0  0  0  0  0  0
   23.2302  -10.4072  -19.4603 C   0  0  2  0  0  0  0  0  0  0  0  0
   23.3554  -10.8187  -20.9128 C   0  0  0  0  0  0  0  0  0  0  0  0
   22.7475   -8.9737  -19.4475 C   0  0  2  0  0  0  0  0  0  0  0  0
   23.7566   -8.1610  -20.0923 N   0  0  0  0  0  0  0  0  0  0  0  0
   22.4909   -8.4820  -18.0672 C   0  0  0  0  0  0  0  0  0  0  0  0
   21.6310   -9.0115  -17.3169 O   0  0  0  0  0  0  0  0  0  0  0  0
   23.2200   -7.4013  -17.5786 N   0  0  0  0  0  0  0  0  0  0  0  0
   23.0604   -6.8317  -16.2185 C   0  0  1  0  0  0  0  0  0  0  0  0
   24.4573   -6.8692  -15.6637 C   0  0  0  0  0  0  0  0  0  0  0  0
   24.9535   -8.2326  -15.4765 C   0  0  0  0  0  0  0  0  0  0  0  0
   24.3061   -9.0903  -14.6080 C   0  0  0  0  0  0  0  0  0  0  0  0
   24.7911  -10.3714  -14.4007 C   0  0  0  0  0  0  0  0  0  0  0  0
   25.9222  -10.7675  -15.0747 C   0  0  0  0  0  0  0  0  0  0  0  0
   26.5790   -9.9214  -15.9467 C   0  0  0  0  0  0  0  0  0  0  0  0
   26.0967   -8.6479  -16.1518 C   0  0  0  0  0  0  0  0  0  0  0  0
   22.4176   -5.5389  -16.2782 C   0  0  0  0  0  0  0  0  0  0  0  0
   22.8227   -4.6438  -17.0784 O   0  0  0  0  0  0  0  0  0  0  0  0
   21.3135   -5.2060  -15.4700 N   0  0  0  0  0  0  0  0  0  0  0  0
   20.5020   -4.0359  -15.8260 C   0  0  1  0  0  0  0  0  0  0  0  0
   19.9945   -4.2180  -17.2515 C   0  0  0  0  0  0  0  0  0  0  0  0
   19.0706   -3.0829  -17.5722 C   0  0  0  0  0  0  0  0  0  0  0  0
   18.6490   -3.1202  -19.0130 C   0  0  0  0  0  0  0  0  0  0  0  0
   19.0241   -4.1296  -19.6609 O   0  0  0  0  0  0  0  0  0  0  0  0
   19.3700   -3.9634  -14.9197 C   0  0  0  0  0  0  0  0  0  0  0  0
   18.7999   -2.8880  -14.6703 O   0  0  0  0  0  0  0  0  0  0  0  0
   17.9090   -2.1496  -19.6241 O   0  0  0  0  0  0  0  0  0  0  0  0
   18.8918   -5.1356  -14.3017 O   0  0  0  0  0  0  0  0  0  0  0  0
  2  3  1  6
  2  1  1  0
  4  2  1  0
  4  5  1  1
  6  4  1  0
  6  7  2  0
  8  6  1  0
  9  8  1  0
  9 10  1  6
 10 11  1  0
 11 12  2  0
 11 16  1  0
 12 13  1  0
 13 14  2  0
 15 14  1  0
 16 15  2  0
 17  9  1  0
 18 17  2  0
 19 17  1  0
 20 21  1  6
 20 19  1  0
 22 23  1  0
 22 21  1  0
 23 24  2  0
 25 28  1  0
 25 20  1  0
 26 25  2  0
 27 23  1  0
M  END
$$$$
