VFE.pdb
     RDKit          3D

 28 28  0  0  1  0  0  0  0  0999 V2000
   20.0330  -13.2314  -16.1609 C   0  0  0  0  0  0  0  0  0  0  0  0
   20.8926  -13.0608  -17.3956 C   0  0  2  0  0  0  0  0  0  0  0  0
   20.7818  -14.3421  -18.1960 C   0  0  0  0  0  0  0  0  0  0  0  0
   22.3505  -12.8938  -17.0288 C   0  0  2  0  0  0  0  0  0  0  0  0
   22.7494  -14.0533  -16.2601 N   0  0  0  0  0  0  0  0  0  0  0  0
   22.5929  -11.6489  -16.2514 C   0  0  0  0  0  0  0  0  0  0  0  0
   22.4611  -11.6039  -15.0010 O   0  0  0  0  0  0  0  0  0  0  0  0
   22.9787  -10.4893  -16.9183 N   0  0  0  0  0  0  0  0  0  0  0  0
   23.1849   -9.1760  -16.2606 C   0  0  1  0  0  0  0  0  0  0  0  0
   24.5586   -8.7731  -16.7198 C   0  0  0  0  0  0  0  0  0  0  0  0
   25.5892   -9.7343  -16.3271 C   0  0  0  0  0  0  0  0  0  0  0  0
   26.1126   -9.7023  -15.0487 C   0  0  0  0  0  0  0  0  0  0  0  0
   27.1129  -10.5876  -14.6813 C   0  0  0  0  0  0  0  0  0  0  0  0
   27.5688  -11.4930  -15.6104 C   0  0  0  0  0  0  0  0  0  0  0  0
   27.0542  -11.5373  -16.8913 C   0  0  0  0  0  0  0  0  0  0  0  0
   26.0603  -10.6565  -17.2560 C   0  0  0  0  0  0  0  0  0  0  0  0
   22.1019   -8.2720  -16.5740 C   0  0  0  0  0  0  0  0  0  0  0  0
   21.4758   -8.3582  -17.6723 O   0  0  0  0  0  0  0  0  0  0  0  0
   21.6785   -7.2639  -15.6868 N   0  0  0  0  0  0  0  0  0  0  0  0
   20.3251   -6.7147  -15.8322 C   0  0  1  0  0  0  0  0  0  0  0  0
   19.3222   -7.8384  -15.5988 C   0  0  0  0  0  0  0  0  0  0  0  0
   17.9435   -7.2523  -15.6191 C   0  0  0  0  0  0  0  0  0  0  0  0
   16.9006   -8.3189  -15.4466 C   0  0  0  0  0  0  0  0  0  0  0  0
   15.7146   -7.9099  -15.3745 O   0  0  0  0  0  0  0  0  0  0  0  0
   20.1323   -5.6840  -14.8280 C   0  0  0  0  0  0  0  0  0  0  0  0
   19.5384   -4.6234  -15.0851 O   0  0  0  0  0  0  0  0  0  0  0  0
   17.1710   -9.6545  -15.3680 O   0  0  0  0  0  0  0  0  0  0  0  0
   20.6233   -5.8786  -13.5219 O   0  0  0  0  0  0  0  0  0  0  0  0
  2  3  1  6
  2  1  1  0
  4  2  1  0
  4  5  1  1
  6  4  1  0
  6  7  2  0
  8  6  1  0
  9  8  1  0
  9 10  1  6
 10 11  1  0
 11 12  2  0
 11 16  1  0
 12 13  1  0
 13 14  2  0
 15 14  1  0
 16 15  2  0
 17  9  1  0
 18 17  2  0
 19 17  1  0
 20 21  1  1
 20 19  1  0
 22 23  1  0
 22 21  1  0
 23 24  2  0
 25 28  1  0
 25 20  1  0
 26 25  2  0
 27 23  1  0
M  END
$$$$
