VFE.pdb
     RDKit          3D

 28 28  0  0  1  0  0  0  0  0999 V2000
   21.5329  -14.2493  -20.5129 C   0  0  0  0  0  0  0  0  0  0  0  0
   21.5552  -13.1828  -19.4383 C   0  0  2  0  0  0  0  0  0  0  0  0
   21.0031  -11.9151  -20.0573 C   0  0  0  0  0  0  0  0  0  0  0  0
   22.9700  -12.8793  -18.9976 C   0  0  2  0  0  0  0  0  0  0  0  0
   23.5549  -14.1093  -18.5084 N   0  0  0  0  0  0  0  0  0  0  0  0
   23.0150  -11.8298  -17.9443 C   0  0  0  0  0  0  0  0  0  0  0  0
   22.7142  -12.0700  -16.7466 O   0  0  0  0  0  0  0  0  0  0  0  0
   23.4011  -10.5359  -18.2830 N   0  0  0  0  0  0  0  0  0  0  0  0
   23.5450   -9.4249  -17.3109 C   0  0  1  0  0  0  0  0  0  0  0  0
   24.9994   -9.0595  -17.4188 C   0  0  0  0  0  0  0  0  0  0  0  0
   25.8678   -9.9766  -16.6806 C   0  0  0  0  0  0  0  0  0  0  0  0
   26.5242  -10.9936  -17.3471 C   0  0  0  0  0  0  0  0  0  0  0  0
   27.3209  -11.8861  -16.6484 C   0  0  0  0  0  0  0  0  0  0  0  0
   27.4437  -11.7373  -15.2870 C   0  0  0  0  0  0  0  0  0  0  0  0
   26.7946  -10.7250  -14.6078 C   0  0  0  0  0  0  0  0  0  0  0  0
   26.0023   -9.8386  -15.3028 C   0  0  0  0  0  0  0  0  0  0  0  0
   22.5880   -8.3778  -17.5863 C   0  0  0  0  0  0  0  0  0  0  0  0
   22.4104   -7.9482  -18.7650 O   0  0  0  0  0  0  0  0  0  0  0  0
   21.8012   -7.7890  -16.5777 N   0  0  0  0  0  0  0  0  0  0  0  0
   20.7507   -6.8390  -16.9627 C   0  0  1  0  0  0  0  0  0  0  0  0
   19.8186   -6.6442  -15.7727 C   0  0  0  0  0  0  0  0  0  0  0  0
   18.6841   -5.7641  -16.2009 C   0  0  0  0  0  0  0  0  0  0  0  0
   17.6609   -5.6326  -15.1095 C   0  0  0  0  0  0  0  0  0  0  0  0
   17.2010   -6.7145  -14.6654 O   0  0  0  0  0  0  0  0  0  0  0  0
   21.3724   -5.5704  -17.2972 C   0  0  0  0  0  0  0  0  0  0  0  0
   22.4225   -5.1925  -16.7511 O   0  0  0  0  0  0  0  0  0  0  0  0
   17.2268   -4.4429  -14.6004 O   0  0  0  0  0  0  0  0  0  0  0  0
   20.7829   -4.7361  -18.2675 O   0  0  0  0  0  0  0  0  0  0  0  0
  2  3  1  6
  2  1  1  0
  4  2  1  0
  4  5  1  1
  6  4  1  0
  6  7  2  0
  8  6  1  0
  9  8  1  0
  9 10  1  6
 10 11  1  0
 11 12  2  0
 11 16  1  0
 12 13  1  0
 13 14  2  0
 15 14  1  0
 16 15  2  0
 17  9  1  0
 18 17  2  0
 19 17  1  0
 20 21  1  1
 20 19  1  0
 22 23  1  0
 22 21  1  0
 23 24  2  0
 25 28  1  0
 25 20  1  0
 26 25  2  0
 27 23  1  0
M  END
$$$$
