VFE.pdb
     RDKit          3D

 28 28  0  0  1  0  0  0  0  0999 V2000
   19.6583  -10.0771  -20.5379 C   0  0  0  0  0  0  0  0  0  0  0  0
   19.3260  -11.4928  -20.1162 C   0  0  2  0  0  0  0  0  0  0  0  0
   17.8797  -11.4954  -19.6655 C   0  0  0  0  0  0  0  0  0  0  0  0
   20.1595  -11.9201  -18.9285 C   0  0  2  0  0  0  0  0  0  0  0  0
   19.8702  -13.3130  -18.6626 N   0  0  0  0  0  0  0  0  0  0  0  0
   19.8809  -11.0942  -17.7231 C   0  0  0  0  0  0  0  0  0  0  0  0
   18.8616  -11.2754  -17.0082 O   0  0  0  0  0  0  0  0  0  0  0  0
   20.7699  -10.0847  -17.3643 N   0  0  0  0  0  0  0  0  0  0  0  0
   20.5559   -9.1437  -16.2380 C   0  0  1  0  0  0  0  0  0  0  0  0
   21.9117   -9.0647  -15.5931 C   0  0  0  0  0  0  0  0  0  0  0  0
   21.9650   -8.0827  -14.5101 C   0  0  0  0  0  0  0  0  0  0  0  0
   21.5582   -8.4350  -13.2374 C   0  0  0  0  0  0  0  0  0  0  0  0
   21.5741   -7.4999  -12.2153 C   0  0  0  0  0  0  0  0  0  0  0  0
   22.0018   -6.2231  -12.4937 C   0  0  0  0  0  0  0  0  0  0  0  0
   22.4123   -5.8570  -13.7606 C   0  0  0  0  0  0  0  0  0  0  0  0
   22.3956   -6.7869  -14.7762 C   0  0  0  0  0  0  0  0  0  0  0  0
   19.9858   -7.9027  -16.7104 C   0  0  0  0  0  0  0  0  0  0  0  0
   20.4223   -7.3401  -17.7585 O   0  0  0  0  0  0  0  0  0  0  0  0
   18.9213   -7.2602  -16.0494 N   0  0  0  0  0  0  0  0  0  0  0  0
   18.4179   -5.9899  -16.5853 C   0  0  1  0  0  0  0  0  0  0  0  0
   16.9134   -6.1177  -16.7929 C   0  0  0  0  0  0  0  0  0  0  0  0
   16.4007   -4.8206  -17.3402 C   0  0  0  0  0  0  0  0  0  0  0  0
   14.9194   -4.8831  -17.5790 C   0  0  0  0  0  0  0  0  0  0  0  0
   14.2066   -4.3229  -16.7088 O   0  0  0  0  0  0  0  0  0  0  0  0
   18.6808   -4.9410  -15.6165 C   0  0  0  0  0  0  0  0  0  0  0  0
   18.6264   -5.1520  -14.3932 O   0  0  0  0  0  0  0  0  0  0  0  0
   14.3376   -5.4944  -18.6518 O   0  0  0  0  0  0  0  0  0  0  0  0
   19.0107   -3.6451  -16.0598 O   0  0  0  0  0  0  0  0  0  0  0  0
  2  3  1  1
  2  1  1  0
  4  2  1  0
  4  5  1  1
  6  4  1  0
  6  7  2  0
  8  6  1  0
  9  8  1  0
  9 10  1  6
 10 11  1  0
 11 12  2  0
 11 16  1  0
 12 13  1  0
 13 14  2  0
 15 14  1  0
 16 15  2  0
 17  9  1  0
 18 17  2  0
 19 17  1  0
 20 21  1  1
 20 19  1  0
 22 23  1  0
 22 21  1  0
 23 24  2  0
 25 28  1  0
 25 20  1  0
 26 25  2  0
 27 23  1  0
M  END
$$$$
