VFE.pdb
     RDKit          3D

 28 28  0  0  1  0  0  0  0  0999 V2000
   25.8144  -21.8251  -17.8359 C   0  0  0  0  0  0  0  0  0  0  0  0
   26.7865  -20.9459  -17.0779 C   0  0  2  0  0  0  0  0  0  0  0  0
   27.9616  -20.6851  -17.9976 C   0  0  0  0  0  0  0  0  0  0  0  0
   27.3297  -21.6558  -15.8576 C   0  0  2  0  0  0  0  0  0  0  0  0
   27.9040  -22.9104  -16.2943 N   0  0  0  0  0  0  0  0  0  0  0  0
   26.2765  -21.8965  -14.8351 C   0  0  0  0  0  0  0  0  0  0  0  0
   25.7060  -23.0109  -14.7110 O   0  0  0  0  0  0  0  0  0  0  0  0
   25.9013  -20.8624  -13.9819 N   0  0  0  0  0  0  0  0  0  0  0  0
   24.8300  -20.9674  -12.9616 C   0  0  1  0  0  0  0  0  0  0  0  0
   25.3558  -20.1371  -11.8238 C   0  0  0  0  0  0  0  0  0  0  0  0
   24.4517  -20.1189  -10.6738 C   0  0  0  0  0  0  0  0  0  0  0  0
   24.7954  -20.7870   -9.5142 C   0  0  0  0  0  0  0  0  0  0  0  0
   23.9284  -20.8021   -8.4338 C   0  0  0  0  0  0  0  0  0  0  0  0
   22.7274  -20.1410   -8.5403 C   0  0  0  0  0  0  0  0  0  0  0  0
   22.3711  -19.4680   -9.6926 C   0  0  0  0  0  0  0  0  0  0  0  0
   23.2333  -19.4540  -10.7664 C   0  0  0  0  0  0  0  0  0  0  0  0
   23.5546  -20.5772  -13.5179 C   0  0  0  0  0  0  0  0  0  0  0  0
   23.4232  -19.4866  -14.1494 O   0  0  0  0  0  0  0  0  0  0  0  0
   22.4025  -21.3785  -13.4012 N   0  0  0  0  0  0  0  0  0  0  0  0
   21.1174  -20.8434  -13.8663 C   0  0  1  0  0  0  0  0  0  0  0  0
   20.4642  -21.8802  -14.7726 C   0  0  0  0  0  0  0  0  0  0  0  0
   21.1791  -21.8734  -16.0893 C   0  0  0  0  0  0  0  0  0  0  0  0
   20.5294  -22.8158  -17.0615 C   0  0  0  0  0  0  0  0  0  0  0  0
   19.3140  -22.5991  -17.2955 O   0  0  0  0  0  0  0  0  0  0  0  0
   20.2668  -20.6113  -12.7128 C   0  0  0  0  0  0  0  0  0  0  0  0
   20.4884  -21.1537  -11.6171 O   0  0  0  0  0  0  0  0  0  0  0  0
   21.1716  -23.8519  -17.6756 O   0  0  0  0  0  0  0  0  0  0  0  0
   19.1587  -19.7481  -12.8223 O   0  0  0  0  0  0  0  0  0  0  0  0
  2  3  1  6
  2  1  1  0
  4  2  1  0
  4  5  1  6
  6  4  1  0
  6  7  2  0
  8  6  1  0
  9  8  1  0
  9 10  1  1
 10 11  1  0
 11 12  2  0
 11 16  1  0
 12 13  1  0
 13 14  2  0
 15 14  1  0
 16 15  2  0
 17  9  1  0
 18 17  2  0
 19 17  1  0
 20 21  1  6
 20 19  1  0
 22 23  1  0
 22 21  1  0
 23 24  2  0
 25 28  1  0
 25 20  1  0
 26 25  2  0
 27 23  1  0
M  END
$$$$
