VFE.pdb
     RDKit          3D

 28 28  0  0  1  0  0  0  0  0999 V2000
   28.2276  -21.0492  -19.4558 C   0  0  0  0  0  0  0  0  0  0  0  0
   27.3318  -21.4629  -18.3073 C   0  0  2  0  0  0  0  0  0  0  0  0
   26.4089  -20.2967  -18.0197 C   0  0  0  0  0  0  0  0  0  0  0  0
   28.1343  -21.7118  -17.0494 C   0  0  2  0  0  0  0  0  0  0  0  0
   29.0337  -22.8154  -17.3090 N   0  0  0  0  0  0  0  0  0  0  0  0
   27.2643  -22.0164  -15.8818 C   0  0  0  0  0  0  0  0  0  0  0  0
   26.5191  -23.0295  -15.8484 O   0  0  0  0  0  0  0  0  0  0  0  0
   27.2663  -21.1598  -14.7844 N   0  0  0  0  0  0  0  0  0  0  0  0
   26.3723  -21.3040  -13.6098 C   0  0  1  0  0  0  0  0  0  0  0  0
   27.1263  -20.6013  -12.5151 C   0  0  0  0  0  0  0  0  0  0  0  0
   26.3715  -20.5337  -11.2638 C   0  0  0  0  0  0  0  0  0  0  0  0
   25.3819  -19.5827  -11.1045 C   0  0  0  0  0  0  0  0  0  0  0  0
   24.6869  -19.4914   -9.9095 C   0  0  0  0  0  0  0  0  0  0  0  0
   25.0011  -20.3630   -8.8935 C   0  0  0  0  0  0  0  0  0  0  0  0
   25.9870  -21.3193   -9.0389 C   0  0  0  0  0  0  0  0  0  0  0  0
   26.6778  -21.4090  -10.2268 C   0  0  0  0  0  0  0  0  0  0  0  0
   25.0488  -20.8084  -13.9111 C   0  0  0  0  0  0  0  0  0  0  0  0
   24.8773  -19.6400  -14.3705 O   0  0  0  0  0  0  0  0  0  0  0  0
   23.8900  -21.5863  -13.7243 N   0  0  0  0  0  0  0  0  0  0  0  0
   22.5794  -20.9795  -13.9858 C   0  0  1  0  0  0  0  0  0  0  0  0
   21.7817  -21.9229  -14.8783 C   0  0  0  0  0  0  0  0  0  0  0  0
   20.4315  -21.3187  -15.1162 C   0  0  0  0  0  0  0  0  0  0  0  0
   19.5975  -22.1939  -16.0070 C   0  0  0  0  0  0  0  0  0  0  0  0
   20.1537  -23.2483  -16.4044 O   0  0  0  0  0  0  0  0  0  0  0  0
   21.8846  -20.8134  -12.7218 C   0  0  0  0  0  0  0  0  0  0  0  0
   21.0490  -19.9104  -12.5486 O   0  0  0  0  0  0  0  0  0  0  0  0
   18.3183  -21.9082  -16.3879 O   0  0  0  0  0  0  0  0  0  0  0  0
   22.1520  -21.6940  -11.6550 O   0  0  0  0  0  0  0  0  0  0  0  0
  2  3  1  1
  2  1  1  0
  4  2  1  0
  4  5  1  6
  6  4  1  0
  6  7  2  0
  8  6  1  0
  9  8  1  0
  9 10  1  1
 10 11  1  0
 11 12  2  0
 11 16  1  0
 12 13  1  0
 13 14  2  0
 15 14  1  0
 16 15  2  0
 17  9  1  0
 18 17  2  0
 19 17  1  0
 20 21  1  6
 20 19  1  0
 22 23  1  0
 22 21  1  0
 23 24  2  0
 25 28  1  0
 25 20  1  0
 26 25  2  0
 27 23  1  0
M  END
$$$$
