VFE.pdb
     RDKit          3D

 28 28  0  0  1  0  0  0  0  0999 V2000
   29.2975  -22.3721  -15.9863 C   0  0  0  0  0  0  0  0  0  0  0  0
   28.4367  -22.6051  -17.2099 C   0  0  2  0  0  0  0  0  0  0  0  0
   29.2072  -22.0788  -18.4033 C   0  0  0  0  0  0  0  0  0  0  0  0
   27.1493  -21.8148  -17.1320 C   0  0  2  0  0  0  0  0  0  0  0  0
   27.4899  -20.4087  -17.1678 N   0  0  0  0  0  0  0  0  0  0  0  0
   26.3737  -22.1285  -15.9020 C   0  0  0  0  0  0  0  0  0  0  0  0
   25.8202  -23.2445  -15.7259 O   0  0  0  0  0  0  0  0  0  0  0  0
   26.2493  -21.1637  -14.9062 N   0  0  0  0  0  0  0  0  0  0  0  0
   25.4786  -21.3504  -13.6528 C   0  0  1  0  0  0  0  0  0  0  0  0
   26.2396  -20.5230  -12.6544 C   0  0  0  0  0  0  0  0  0  0  0  0
   25.6258  -20.5357  -11.3265 C   0  0  0  0  0  0  0  0  0  0  0  0
   26.2177  -21.2443  -10.2985 C   0  0  0  0  0  0  0  0  0  0  0  0
   25.6234  -21.2882   -9.0479 C   0  0  0  0  0  0  0  0  0  0  0  0
   24.4405  -20.6146   -8.8538 C   0  0  0  0  0  0  0  0  0  0  0  0
   23.8380  -19.9013   -9.8716 C   0  0  0  0  0  0  0  0  0  0  0  0
   24.4291  -19.8586  -11.1147 C   0  0  0  0  0  0  0  0  0  0  0  0
   24.0878  -21.0133  -13.8532 C   0  0  0  0  0  0  0  0  0  0  0  0
   23.7532  -19.9457  -14.4480 O   0  0  0  0  0  0  0  0  0  0  0  0
   23.0384  -21.8437  -13.4147 N   0  0  0  0  0  0  0  0  0  0  0  0
   21.6565  -21.4692  -13.7376 C   0  0  1  0  0  0  0  0  0  0  0  0
   20.9827  -22.6554  -14.4172 C   0  0  0  0  0  0  0  0  0  0  0  0
   19.5764  -22.2674  -14.7588 C   0  0  0  0  0  0  0  0  0  0  0  0
   18.8656  -23.3836  -15.4688 C   0  0  0  0  0  0  0  0  0  0  0  0
   19.5251  -24.4442  -15.6068 O   0  0  0  0  0  0  0  0  0  0  0  0
   20.9577  -21.1643  -12.5020 C   0  0  0  0  0  0  0  0  0  0  0  0
   21.2137  -21.7596  -11.4419 O   0  0  0  0  0  0  0  0  0  0  0  0
   17.5909  -23.3014  -15.9501 O   0  0  0  0  0  0  0  0  0  0  0  0
   19.9624  -20.1672  -12.4882 O   0  0  0  0  0  0  0  0  0  0  0  0
  2  3  1  6
  2  1  1  0
  4  2  1  0
  4  5  1  1
  6  4  1  0
  6  7  2  0
  8  6  1  0
  9  8  1  0
  9 10  1  1
 10 11  1  0
 11 12  2  0
 11 16  1  0
 12 13  1  0
 13 14  2  0
 15 14  1  0
 16 15  2  0
 17  9  1  0
 18 17  2  0
 19 17  1  0
 20 21  1  1
 20 19  1  0
 22 23  1  0
 22 21  1  0
 23 24  2  0
 25 28  1  0
 25 20  1  0
 26 25  2  0
 27 23  1  0
M  END
$$$$
