VFE.pdb
     RDKit          3D

 28 28  0  0  1  0  0  0  0  0999 V2000
   24.1662  -33.3999   -7.2191 C   0  0  0  0  0  0  0  0  0  0  0  0
   25.2241  -32.3500   -7.4863 C   0  0  2  0  0  0  0  0  0  0  0  0
   24.7261  -31.4983   -8.6358 C   0  0  0  0  0  0  0  0  0  0  0  0
   26.5223  -32.9831   -7.9357 C   0  0  2  0  0  0  0  0  0  0  0  0
   26.2262  -33.8571   -9.0506 N   0  0  0  0  0  0  0  0  0  0  0  0
   27.1816  -33.7451   -6.8414 C   0  0  0  0  0  0  0  0  0  0  0  0
   27.2107  -35.0027   -6.8245 O   0  0  0  0  0  0  0  0  0  0  0  0
   27.7897  -33.0550   -5.7964 N   0  0  0  0  0  0  0  0  0  0  0  0
   28.4489  -33.7045   -4.6374 C   0  0  1  0  0  0  0  0  0  0  0  0
   29.8043  -33.0545   -4.6036 C   0  0  0  0  0  0  0  0  0  0  0  0
   30.8941  -34.0124   -4.7903 C   0  0  0  0  0  0  0  0  0  0  0  0
   31.3417  -34.7663   -3.7224 C   0  0  0  0  0  0  0  0  0  0  0  0
   32.3960  -35.6503   -3.8848 C   0  0  0  0  0  0  0  0  0  0  0  0
   32.9817  -35.7606   -5.1239 C   0  0  0  0  0  0  0  0  0  0  0  0
   32.5441  -35.0144   -6.2006 C   0  0  0  0  0  0  0  0  0  0  0  0
   31.4965  -34.1354   -6.0382 C   0  0  0  0  0  0  0  0  0  0  0  0
   27.6357  -33.5774   -3.4497 C   0  0  0  0  0  0  0  0  0  0  0  0
   26.8310  -32.6088   -3.3092 O   0  0  0  0  0  0  0  0  0  0  0  0
   27.6815  -34.5136   -2.3988 N   0  0  0  0  0  0  0  0  0  0  0  0
   26.7171  -34.3921   -1.2991 C   0  0  1  0  0  0  0  0  0  0  0  0
   25.3919  -34.9929   -1.7526 C   0  0  0  0  0  0  0  0  0  0  0  0
   25.6047  -36.4497   -2.0307 C   0  0  0  0  0  0  0  0  0  0  0  0
   24.3018  -37.1422   -2.3104 C   0  0  0  0  0  0  0  0  0  0  0  0
   23.4970  -37.1912   -1.3466 O   0  0  0  0  0  0  0  0  0  0  0  0
   27.2169  -35.1393   -0.1590 C   0  0  0  0  0  0  0  0  0  0  0  0
   28.2179  -35.8705   -0.2443 O   0  0  0  0  0  0  0  0  0  0  0  0
   23.9670  -37.6966   -3.5119 O   0  0  0  0  0  0  0  0  0  0  0  0
   26.5622  -35.0403    1.0845 O   0  0  0  0  0  0  0  0  0  0  0  0
  2  3  1  6
  2  1  1  0
  4  2  1  0
  4  5  1  6
  6  4  1  0
  6  7  2  0
  8  6  1  0
  9  8  1  0
  9 10  1  1
 10 11  1  0
 11 12  2  0
 11 16  1  0
 12 13  1  0
 13 14  2  0
 15 14  1  0
 16 15  2  0
 17  9  1  0
 18 17  2  0
 19 17  1  0
 20 21  1  6
 20 19  1  0
 22 23  1  0
 22 21  1  0
 23 24  2  0
 25 28  1  0
 25 20  1  0
 26 25  2  0
 27 23  1  0
M  END
$$$$
