VFE.pdb
     RDKit          3D

 28 28  0  0  1  0  0  0  0  0999 V2000
   24.1685  -20.7017  -14.4591 C   0  0  0  0  0  0  0  0  0  0  0  0
   24.3671  -21.1072  -13.0139 C   0  0  2  0  0  0  0  0  0  0  0  0
   23.4147  -20.2730  -12.1822 C   0  0  0  0  0  0  0  0  0  0  0  0
   25.7669  -20.7821  -12.5415 C   0  0  2  0  0  0  0  0  0  0  0  0
   26.6988  -21.4375  -13.4339 N   0  0  0  0  0  0  0  0  0  0  0  0
   25.9994  -21.2183  -11.1385 C   0  0  0  0  0  0  0  0  0  0  0  0
   26.0831  -22.4326  -10.8200 O   0  0  0  0  0  0  0  0  0  0  0  0
   26.1304  -20.2608  -10.1364 N   0  0  0  0  0  0  0  0  0  0  0  0
   26.3529  -20.5748   -8.7040 C   0  0  1  0  0  0  0  0  0  0  0  0
   27.3763  -19.5568   -8.2835 C   0  0  0  0  0  0  0  0  0  0  0  0
   27.7236  -19.6583   -6.8661 C   0  0  0  0  0  0  0  0  0  0  0  0
   27.3081  -18.6816   -5.9813 C   0  0  0  0  0  0  0  0  0  0  0  0
   27.6626  -18.7543   -4.6440 C   0  0  0  0  0  0  0  0  0  0  0  0
   28.4305  -19.8131   -4.2200 C   0  0  0  0  0  0  0  0  0  0  0  0
   28.8520  -20.7972   -5.0926 C   0  0  0  0  0  0  0  0  0  0  0  0
   28.4997  -20.7240   -6.4219 C   0  0  0  0  0  0  0  0  0  0  0  0
   25.1016  -20.5777   -7.9813 C   0  0  0  0  0  0  0  0  0  0  0  0
   24.2432  -19.6624   -8.1571 O   0  0  0  0  0  0  0  0  0  0  0  0
   24.7633  -21.5878   -7.0603 N   0  0  0  0  0  0  0  0  0  0  0  0
   23.4629  -21.5224   -6.3829 C   0  0  1  0  0  0  0  0  0  0  0  0
   22.5604  -22.6019   -6.9687 C   0  0  0  0  0  0  0  0  0  0  0  0
   21.2781  -22.6167   -6.1939 C   0  0  0  0  0  0  0  0  0  0  0  0
   20.1164  -22.9672   -7.0787 C   0  0  0  0  0  0  0  0  0  0  0  0
   20.4135  -23.5105   -8.1722 O   0  0  0  0  0  0  0  0  0  0  0  0
   23.6632  -21.7809   -4.9683 C   0  0  0  0  0  0  0  0  0  0  0  0
   24.7014  -22.3135   -4.5414 O   0  0  0  0  0  0  0  0  0  0  0  0
   18.8095  -22.7325   -6.7626 O   0  0  0  0  0  0  0  0  0  0  0  0
   22.6641  -21.4208   -4.0425 O   0  0  0  0  0  0  0  0  0  0  0  0
  2  3  1  1
  2  1  1  0
  4  2  1  0
  4  5  1  6
  6  4  1  0
  6  7  2  0
  8  6  1  0
  9  8  1  0
  9 10  1  1
 10 11  1  0
 11 12  2  0
 11 16  1  0
 12 13  1  0
 13 14  2  0
 15 14  1  0
 16 15  2  0
 17  9  1  0
 18 17  2  0
 19 17  1  0
 20 21  1  6
 20 19  1  0
 22 23  1  0
 22 21  1  0
 23 24  2  0
 25 28  1  0
 25 20  1  0
 26 25  2  0
 27 23  1  0
M  END
$$$$
