VFE.pdb
     RDKit          3D

 28 28  0  0  1  0  0  0  0  0999 V2000
   15.4725  -12.0692  -17.2634 C   0  0  0  0  0  0  0  0  0  0  0  0
   15.9196  -10.8755  -16.4462 C   0  0  2  0  0  0  0  0  0  0  0  0
   14.6691  -10.2055  -15.9152 C   0  0  0  0  0  0  0  0  0  0  0  0
   16.6335   -9.8582  -17.3085 C   0  0  2  0  0  0  0  0  0  0  0  0
   17.6920  -10.5441  -18.0182 N   0  0  0  0  0  0  0  0  0  0  0  0
   17.1906   -8.7366  -16.5057 C   0  0  0  0  0  0  0  0  0  0  0  0
   16.4687   -8.0197  -15.7657 O   0  0  0  0  0  0  0  0  0  0  0  0
   18.5539   -8.4616  -16.5671 N   0  0  0  0  0  0  0  0  0  0  0  0
   19.2079   -7.3190  -15.8841 C   0  0  1  0  0  0  0  0  0  0  0  0
   20.5420   -7.8795  -15.4764 C   0  0  0  0  0  0  0  0  0  0  0  0
   21.4756   -6.8457  -15.0296 C   0  0  0  0  0  0  0  0  0  0  0  0
   22.4754   -6.4053  -15.8757 C   0  0  0  0  0  0  0  0  0  0  0  0
   23.3835   -5.4511  -15.4464 C   0  0  0  0  0  0  0  0  0  0  0  0
   23.2675   -4.9550  -14.1693 C   0  0  0  0  0  0  0  0  0  0  0  0
   22.2727   -5.3849  -13.3131 C   0  0  0  0  0  0  0  0  0  0  0  0
   21.3708   -6.3339  -13.7402 C   0  0  0  0  0  0  0  0  0  0  0  0
   19.2244   -6.1541  -16.7391 C   0  0  0  0  0  0  0  0  0  0  0  0
   19.4507   -6.2584  -17.9814 O   0  0  0  0  0  0  0  0  0  0  0  0
   18.9838   -4.8553  -16.2512 N   0  0  0  0  0  0  0  0  0  0  0  0
   19.2033   -3.7111  -17.1439 C   0  0  1  0  0  0  0  0  0  0  0  0
   17.9628   -2.8265  -17.1062 C   0  0  0  0  0  0  0  0  0  0  0  0
   16.9674   -3.3673  -18.0868 C   0  0  0  0  0  0  0  0  0  0  0  0
   15.6230   -3.5543  -17.4442 C   0  0  0  0  0  0  0  0  0  0  0  0
   15.0613   -4.6545  -17.6744 O   0  0  0  0  0  0  0  0  0  0  0  0
   20.3450   -2.9566  -16.6590 C   0  0  0  0  0  0  0  0  0  0  0  0
   20.8890   -3.2193  -15.5732 O   0  0  0  0  0  0  0  0  0  0  0  0
   15.0104   -2.6236  -16.6558 O   0  0  0  0  0  0  0  0  0  0  0  0
   20.8631   -1.8977  -17.4304 O   0  0  0  0  0  0  0  0  0  0  0  0
  2  3  1  6
  2  1  1  0
  4  2  1  0
  4  5  1  1
  6  4  1  0
  6  7  2  0
  8  6  1  0
  9  8  1  0
  9 10  1  6
 10 11  1  0
 11 12  2  0
 11 16  1  0
 12 13  1  0
 13 14  2  0
 15 14  1  0
 16 15  2  0
 17  9  1  0
 18 17  2  0
 19 17  1  0
 20 21  1  1
 20 19  1  0
 22 23  1  0
 22 21  1  0
 23 24  2  0
 25 28  1  0
 25 20  1  0
 26 25  2  0
 27 23  1  0
M  END
$$$$
