VFE.pdb
     RDKit          3D

 28 28  0  0  1  0  0  0  0  0999 V2000
   28.5168  -27.0659  -18.2580 C   0  0  0  0  0  0  0  0  0  0  0  0
   29.9945  -27.2229  -17.9672 C   0  0  2  0  0  0  0  0  0  0  0  0
   30.3820  -28.6290  -18.3762 C   0  0  0  0  0  0  0  0  0  0  0  0
   30.2770  -27.0999  -16.4863 C   0  0  2  0  0  0  0  0  0  0  0  0
   29.4194  -28.0367  -15.7926 N   0  0  0  0  0  0  0  0  0  0  0  0
   30.0465  -25.7182  -15.9855 C   0  0  0  0  0  0  0  0  0  0  0  0
   29.0094  -25.4016  -15.3476 O   0  0  0  0  0  0  0  0  0  0  0  0
   31.0025  -24.7349  -16.2244 N   0  0  0  0  0  0  0  0  0  0  0  0
   30.8296  -23.3011  -15.8864 C   0  0  1  0  0  0  0  0  0  0  0  0
   32.2375  -22.8323  -15.6444 C   0  0  0  0  0  0  0  0  0  0  0  0
   32.6501  -22.9827  -14.2489 C   0  0  0  0  0  0  0  0  0  0  0  0
   32.1188  -22.1550  -13.2784 C   0  0  0  0  0  0  0  0  0  0  0  0
   32.5309  -22.2697  -11.9607 C   0  0  0  0  0  0  0  0  0  0  0  0
   33.4727  -23.2198  -11.6427 C   0  0  0  0  0  0  0  0  0  0  0  0
   34.0115  -24.0548  -12.6019 C   0  0  0  0  0  0  0  0  0  0  0  0
   33.6018  -23.9397  -13.9116 C   0  0  0  0  0  0  0  0  0  0  0  0
   30.0843  -22.6189  -16.9195 C   0  0  0  0  0  0  0  0  0  0  0  0
   30.1427  -22.9991  -18.1268 O   0  0  0  0  0  0  0  0  0  0  0  0
   29.2541  -21.5144  -16.6481 N   0  0  0  0  0  0  0  0  0  0  0  0
   28.0717  -21.2932  -17.4892 C   0  0  1  0  0  0  0  0  0  0  0  0
   27.1876  -22.5322  -17.4119 C   0  0  0  0  0  0  0  0  0  0  0  0
   25.9638  -22.2913  -18.2421 C   0  0  0  0  0  0  0  0  0  0  0  0
   25.0592  -23.4900  -18.2312 C   0  0  0  0  0  0  0  0  0  0  0  0
   23.9255  -23.3080  -17.7206 O   0  0  0  0  0  0  0  0  0  0  0  0
   27.3414  -20.1502  -16.9714 C   0  0  0  0  0  0  0  0  0  0  0  0
   26.3480  -19.6886  -17.5578 O   0  0  0  0  0  0  0  0  0  0  0  0
   25.3981  -24.7148  -18.7292 O   0  0  0  0  0  0  0  0  0  0  0  0
   27.7562  -19.5393  -15.7715 O   0  0  0  0  0  0  0  0  0  0  0  0
  2  3  1  1
  2  1  1  0
  4  2  1  0
  4  5  1  1
  6  4  1  0
  6  7  2  0
  8  6  1  0
  9  8  1  0
  9 10  1  6
 10 11  1  0
 11 12  2  0
 11 16  1  0
 12 13  1  0
 13 14  2  0
 15 14  1  0
 16 15  2  0
 17  9  1  0
 18 17  2  0
 19 17  1  0
 20 21  1  1
 20 19  1  0
 22 23  1  0
 22 21  1  0
 23 24  2  0
 25 28  1  0
 25 20  1  0
 26 25  2  0
 27 23  1  0
M  END
$$$$
