QNQ.pdb
     RDKit          3D

 27 26  0  0  1  0  0  0  0  0999 V2000
   17.5035  -12.0553  -16.0897 N   0  0  0  0  0  0  0  0  0  0  0  0
   16.6061  -12.7215  -15.2377 C   0  0  0  0  0  0  0  0  0  0  0  0
   16.3815  -13.9409  -15.3864 O   0  0  0  0  0  0  0  0  0  0  0  0
   15.8876  -12.0282  -14.1339 C   0  0  0  0  0  0  0  0  0  0  0  0
   16.2568  -10.5699  -14.0631 C   0  0  0  0  0  0  0  0  0  0  0  0
   15.4600   -9.9283  -12.9827 C   0  0  2  0  0  0  0  0  0  0  0  0
   14.0704   -9.9633  -13.2926 N   0  0  0  0  0  0  0  0  0  0  0  0
   15.9830   -8.5969  -12.5873 C   0  0  0  0  0  0  0  0  0  0  0  0
   15.5925   -7.6163  -13.2670 O   0  0  0  0  0  0  0  0  0  0  0  0
   18.7757   -4.8070  -10.4371 N   0  0  0  0  0  0  0  0  0  0  0  0
   18.2120   -5.5796   -9.4032 C   0  0  0  0  0  0  0  0  0  0  0  0
   18.2308   -5.1949   -8.2188 O   0  0  0  0  0  0  0  0  0  0  0  0
   17.5774   -6.8843   -9.7157 C   0  0  0  0  0  0  0  0  0  0  0  0
   17.5738   -7.1812  -11.1887 C   0  0  2  0  0  0  0  0  0  0  0  0
   16.8758   -8.4037  -11.5063 N   0  0  0  0  0  0  0  0  0  0  0  0
   18.9138   -7.0600  -11.7729 C   0  0  0  0  0  0  0  0  0  0  0  0
   19.8141   -7.8712  -11.5460 O   0  0  0  0  0  0  0  0  0  0  0  0
   19.3912   -3.6671  -16.8203 N   0  0  0  0  0  0  0  0  0  0  0  0
   20.7499   -4.0658  -16.7263 C   0  0  0  0  0  0  0  0  0  0  0  0
   21.5323   -3.7995  -17.6543 O   0  0  0  0  0  0  0  0  0  0  0  0
   21.2373   -4.7912  -15.5396 C   0  0  0  0  0  0  0  0  0  0  0  0
   20.0992   -5.0734  -14.6241 C   0  0  0  0  0  0  0  0  0  0  0  0
   20.4488   -5.8523  -13.3875 C   0  0  2  0  0  0  0  0  0  0  0  0
   19.2036   -5.9778  -12.6327 N   0  0  0  0  0  0  0  0  0  0  0  0
   21.5162   -5.2538  -12.5847 C   0  0  0  0  0  0  0  0  0  0  0  0
   21.2709   -4.3371  -11.5800 O   0  0  0  0  0  0  0  0  0  0  0  0
   22.7157   -5.5648  -12.7932 O   0  0  0  0  0  0  0  0  0  0  0  0
  2  3  2  0
  2  1  1  0
  4  2  1  0
  5  4  1  0
  6  5  1  0
  6  8  1  0
  6  7  1  6
  8 15  1  0
  8  9  2  0
 11 10  1  0
 12 11  2  0
 13 11  1  0
 14 13  1  1
 15 14  1  0
 16 14  1  0
 16 17  2  0
 18 19  1  0
 19 21  1  0
 20 19  2  0
 21 22  1  0
 23 22  1  6
 23 24  1  0
 24 16  1  0
 25 26  1  0
 25 23  1  0
 27 25  2  0
M  END
$$$$
