QNQ.pdb
     RDKit          3D

 27 26  0  0  1  0  0  0  0  0999 V2000
   21.9758  -19.3234   -8.7589 N   0  0  0  0  0  0  0  0  0  0  0  0
   22.1417  -20.5425   -8.0796 C   0  0  0  0  0  0  0  0  0  0  0  0
   21.1653  -21.1006   -7.5367 O   0  0  0  0  0  0  0  0  0  0  0  0
   23.4605  -21.2235   -7.9702 C   0  0  0  0  0  0  0  0  0  0  0  0
   24.5795  -20.3462   -8.4663 C   0  0  0  0  0  0  0  0  0  0  0  0
   24.6855  -20.4979   -9.9427 C   0  0  2  0  0  0  0  0  0  0  0  0
   24.7373  -21.8741  -10.3056 N   0  0  0  0  0  0  0  0  0  0  0  0
   25.7470  -19.6496  -10.5393 C   0  0  0  0  0  0  0  0  0  0  0  0
   26.3355  -18.8582   -9.7625 O   0  0  0  0  0  0  0  0  0  0  0  0
   30.5199  -19.9276  -12.2172 N   0  0  0  0  0  0  0  0  0  0  0  0
   29.6151  -20.9993  -12.3454 C   0  0  0  0  0  0  0  0  0  0  0  0
   29.9329  -22.0535  -12.9277 O   0  0  0  0  0  0  0  0  0  0  0  0
   28.2479  -20.8858  -11.7792 C   0  0  0  0  0  0  0  0  0  0  0  0
   27.4467  -19.7947  -12.4316 C   0  0  2  0  0  0  0  0  0  0  0  0
   26.1053  -19.7026  -11.9074 N   0  0  0  0  0  0  0  0  0  0  0  0
   27.5408  -19.8491  -13.8944 C   0  0  0  0  0  0  0  0  0  0  0  0
   28.6190  -19.8437  -14.4922 O   0  0  0  0  0  0  0  0  0  0  0  0
   25.4536  -24.2668  -16.4457 N   0  0  0  0  0  0  0  0  0  0  0  0
   25.3952  -23.5139  -17.6470 C   0  0  0  0  0  0  0  0  0  0  0  0
   25.1028  -24.0821  -18.7128 O   0  0  0  0  0  0  0  0  0  0  0  0
   25.6779  -22.0675  -17.6391 C   0  0  0  0  0  0  0  0  0  0  0  0
   25.9552  -21.6202  -16.2476 C   0  0  0  0  0  0  0  0  0  0  0  0
   26.3433  -20.1757  -16.1037 C   0  0  2  0  0  0  0  0  0  0  0  0
   26.3599  -19.9109  -14.6665 N   0  0  0  0  0  0  0  0  0  0  0  0
   25.4685  -19.2465  -16.8203 C   0  0  0  0  0  0  0  0  0  0  0  0
   24.6898  -18.3049  -16.1745 O   0  0  0  0  0  0  0  0  0  0  0  0
   25.3997  -19.2810  -18.0744 O   0  0  0  0  0  0  0  0  0  0  0  0
  2  3  2  0
  2  1  1  0
  4  2  1  0
  5  4  1  0
  6  5  1  0
  6  8  1  0
  6  7  1  1
  8 15  1  0
  8  9  2  0
 11 10  1  0
 12 11  2  0
 13 11  1  0
 14 13  1  1
 15 14  1  0
 16 14  1  0
 16 17  2  0
 18 19  1  0
 19 21  1  0
 20 19  2  0
 21 22  1  0
 23 22  1  1
 23 24  1  0
 24 16  1  0
 25 26  1  0
 25 23  1  0
 27 25  2  0
M  END
$$$$
