QNQ.pdb
     RDKit          3D

 27 26  0  0  1  0  0  0  0  0999 V2000
   23.2233  -20.2471  -10.3095 N   0  0  0  0  0  0  0  0  0  0  0  0
   24.0991  -20.4927   -9.2383 C   0  0  0  0  0  0  0  0  0  0  0  0
   23.6504  -20.7896   -8.1113 O   0  0  0  0  0  0  0  0  0  0  0  0
   25.5785  -20.4147   -9.3814 C   0  0  0  0  0  0  0  0  0  0  0  0
   25.9761  -19.8354  -10.7134 C   0  0  0  0  0  0  0  0  0  0  0  0
   25.8557  -20.8961  -11.7498 C   0  0  2  0  0  0  0  0  0  0  0  0
   26.8277  -21.9161  -11.5423 N   0  0  0  0  0  0  0  0  0  0  0  0
   25.7962  -20.3554  -13.1306 C   0  0  0  0  0  0  0  0  0  0  0  0
   25.0996  -19.3248  -13.3000 O   0  0  0  0  0  0  0  0  0  0  0  0
   28.4195  -19.2436  -18.0281 N   0  0  0  0  0  0  0  0  0  0  0  0
   27.6315  -20.3803  -17.7623 C   0  0  0  0  0  0  0  0  0  0  0  0
   26.9443  -20.9182  -18.6509 O   0  0  0  0  0  0  0  0  0  0  0  0
   27.6086  -20.9626  -16.3974 C   0  0  0  0  0  0  0  0  0  0  0  0
   26.4276  -20.4947  -15.5949 C   0  0  2  0  0  0  0  0  0  0  0  0
   26.4760  -20.9430  -14.2240 N   0  0  0  0  0  0  0  0  0  0  0  0
   25.1608  -20.7502  -16.2887 C   0  0  0  0  0  0  0  0  0  0  0  0
   24.5989  -21.8474  -16.2648 O   0  0  0  0  0  0  0  0  0  0  0  0
   21.2515  -16.8021  -15.1330 N   0  0  0  0  0  0  0  0  0  0  0  0
   20.4275  -17.4936  -16.0584 C   0  0  0  0  0  0  0  0  0  0  0  0
   19.2219  -17.2033  -16.1415 O   0  0  0  0  0  0  0  0  0  0  0  0
   20.9898  -18.5499  -16.9185 C   0  0  0  0  0  0  0  0  0  0  0  0
   22.4302  -18.7404  -16.5990 C   0  0  0  0  0  0  0  0  0  0  0  0
   23.1502  -19.7425  -17.4565 C   0  0  2  0  0  0  0  0  0  0  0  0
   24.5442  -19.7102  -17.0186 N   0  0  0  0  0  0  0  0  0  0  0  0
   23.0237  -19.5007  -18.8945 C   0  0  0  0  0  0  0  0  0  0  0  0
   21.9060  -19.8697  -19.6187 O   0  0  0  0  0  0  0  0  0  0  0  0
   23.9524  -18.9369  -19.5259 O   0  0  0  0  0  0  0  0  0  0  0  0
  2  3  2  0
  2  1  1  0
  4  2  1  0
  5  4  1  0
  6  5  1  0
  6  8  1  0
  6  7  1  6
  8 15  1  0
  8  9  2  0
 11 10  1  0
 12 11  2  0
 13 11  1  0
 14 13  1  6
 15 14  1  0
 16 14  1  0
 16 17  2  0
 18 19  1  0
 19 21  1  0
 20 19  2  0
 21 22  1  0
 23 22  1  1
 23 24  1  0
 24 16  1  0
 25 26  1  0
 25 23  1  0
 27 25  2  0
M  END
$$$$
