QNQ.pdb
     RDKit          3D

 27 26  0  0  1  0  0  0  0  0999 V2000
   14.3134  -12.1928  -13.9487 N   0  0  0  0  0  0  0  0  0  0  0  0
   14.6294  -12.5046  -15.2821 C   0  0  0  0  0  0  0  0  0  0  0  0
   13.8800  -13.2459  -15.9517 O   0  0  0  0  0  0  0  0  0  0  0  0
   15.8477  -11.9812  -15.9582 C   0  0  0  0  0  0  0  0  0  0  0  0
   16.6326  -11.0670  -15.0548 C   0  0  0  0  0  0  0  0  0  0  0  0
   17.7685  -10.4943  -15.8265 C   0  0  2  0  0  0  0  0  0  0  0  0
   18.6741  -11.5184  -16.2253 N   0  0  0  0  0  0  0  0  0  0  0  0
   18.3944   -9.3260  -15.1586 C   0  0  0  0  0  0  0  0  0  0  0  0
   18.6427   -9.4465  -13.9339 O   0  0  0  0  0  0  0  0  0  0  0  0
   20.2083   -7.6472  -12.7559 N   0  0  0  0  0  0  0  0  0  0  0  0
   21.2124   -8.0319  -13.6655 C   0  0  0  0  0  0  0  0  0  0  0  0
   22.2633   -8.5793  -13.2818 O   0  0  0  0  0  0  0  0  0  0  0  0
   21.0295   -7.7863  -15.1177 C   0  0  0  0  0  0  0  0  0  0  0  0
   19.7015   -7.1560  -15.4291 C   0  0  2  0  0  0  0  0  0  0  0  0
   18.7100   -8.1231  -15.8342 N   0  0  0  0  0  0  0  0  0  0  0  0
   19.8424   -5.9990  -16.3196 C   0  0  0  0  0  0  0  0  0  0  0  0
   20.3170   -6.0867  -17.4541 O   0  0  0  0  0  0  0  0  0  0  0  0
   16.0193   -1.3722  -15.5756 N   0  0  0  0  0  0  0  0  0  0  0  0
   15.7913   -2.5414  -16.3468 C   0  0  0  0  0  0  0  0  0  0  0  0
   14.6267   -2.8772  -16.6211 O   0  0  0  0  0  0  0  0  0  0  0  0
   16.9225   -3.3572  -16.8229 C   0  0  0  0  0  0  0  0  0  0  0  0
   18.2019   -2.7584  -16.3559 C   0  0  0  0  0  0  0  0  0  0  0  0
   19.4403   -3.5288  -16.7177 C   0  0  2  0  0  0  0  0  0  0  0  0
   19.4226   -4.7249  -15.8780 N   0  0  0  0  0  0  0  0  0  0  0  0
   20.6831   -2.7713  -16.5633 C   0  0  0  0  0  0  0  0  0  0  0  0
   21.0060   -1.6939  -17.3662 O   0  0  0  0  0  0  0  0  0  0  0  0
   21.5118   -3.0889  -15.6738 O   0  0  0  0  0  0  0  0  0  0  0  0
  2  3  2  0
  2  1  1  0
  4  2  1  0
  5  4  1  0
  6  5  1  0
  6  8  1  0
  6  7  1  1
  8 15  1  0
  8  9  2  0
 11 10  1  0
 12 11  2  0
 13 11  1  0
 14 13  1  6
 15 14  1  0
 16 14  1  0
 16 17  2  0
 18 19  1  0
 19 21  1  0
 20 19  2  0
 21 22  1  0
 23 22  1  1
 23 24  1  0
 24 16  1  0
 25 26  1  0
 25 23  1  0
 27 25  2  0
M  END
$$$$
