QNQ.pdb
     RDKit          3D

 27 26  0  0  1  0  0  0  0  0999 V2000
   26.8863  -21.9313  -17.2070 N   0  0  0  0  0  0  0  0  0  0  0  0
   26.9744  -21.3112  -18.4651 C   0  0  0  0  0  0  0  0  0  0  0  0
   27.4047  -21.9439  -19.4520 O   0  0  0  0  0  0  0  0  0  0  0  0
   26.5691  -19.8968  -18.6891 C   0  0  0  0  0  0  0  0  0  0  0  0
   26.0723  -19.2556  -17.4203 C   0  0  0  0  0  0  0  0  0  0  0  0
   24.5926  -19.3999  -17.3609 C   0  0  2  0  0  0  0  0  0  0  0  0
   23.9643  -18.5444  -18.3103 N   0  0  0  0  0  0  0  0  0  0  0  0
   24.0549  -19.3102  -15.9805 C   0  0  0  0  0  0  0  0  0  0  0  0
   24.5358  -18.4107  -15.2485 O   0  0  0  0  0  0  0  0  0  0  0  0
   21.4675  -19.8663  -11.6293 N   0  0  0  0  0  0  0  0  0  0  0  0
   20.6479  -20.4473  -12.6164 C   0  0  0  0  0  0  0  0  0  0  0  0
   19.4668  -20.7632  -12.3787 O   0  0  0  0  0  0  0  0  0  0  0  0
   21.1890  -20.6954  -13.9759 C   0  0  0  0  0  0  0  0  0  0  0  0
   22.6262  -20.2766  -14.1055 C   0  0  2  0  0  0  0  0  0  0  0  0
   23.0524  -20.1749  -15.4805 N   0  0  0  0  0  0  0  0  0  0  0  0
   23.5054  -21.0683  -13.2385 C   0  0  0  0  0  0  0  0  0  0  0  0
   23.5113  -22.3012  -13.2451 O   0  0  0  0  0  0  0  0  0  0  0  0
   27.6956  -18.9906  -13.7473 N   0  0  0  0  0  0  0  0  0  0  0  0
   28.0775  -20.3567  -13.7045 C   0  0  0  0  0  0  0  0  0  0  0  0
   28.8490  -20.8047  -14.5696 O   0  0  0  0  0  0  0  0  0  0  0  0
   27.5669  -21.2444  -12.6448 C   0  0  0  0  0  0  0  0  0  0  0  0
   26.6693  -20.4772  -11.7398 C   0  0  0  0  0  0  0  0  0  0  0  0
   25.3299  -21.1070  -11.4802 C   0  0  2  0  0  0  0  0  0  0  0  0
   24.3882  -20.4103  -12.3541 N   0  0  0  0  0  0  0  0  0  0  0  0
   24.9093  -21.0636  -10.0790 C   0  0  0  0  0  0  0  0  0  0  0  0
   23.8428  -20.3007   -9.6424 O   0  0  0  0  0  0  0  0  0  0  0  0
   25.5228  -21.7357   -9.2126 O   0  0  0  0  0  0  0  0  0  0  0  0
  2  3  2  0
  2  1  1  0
  4  2  1  0
  5  4  1  0
  6  5  1  0
  6  8  1  0
  6  7  1  6
  8 15  1  0
  8  9  2  0
 11 10  1  0
 12 11  2  0
 13 11  1  0
 14 13  1  6
 15 14  1  0
 16 14  1  0
 16 17  2  0
 18 19  1  0
 19 21  1  0
 20 19  2  0
 21 22  1  0
 23 22  1  1
 23 24  1  0
 24 16  1  0
 25 26  1  0
 25 23  1  0
 27 25  2  0
M  END
$$$$
