QNQ.pdb
     RDKit          3D

 27 26  0  0  1  0  0  0  0  0999 V2000
   17.8135  -14.5373  -18.2541 N   0  0  0  0  0  0  0  0  0  0  0  0
   18.6644  -13.4998  -18.6721 C   0  0  0  0  0  0  0  0  0  0  0  0
   18.6629  -13.1231  -19.8627 O   0  0  0  0  0  0  0  0  0  0  0  0
   19.5952  -12.8055  -17.7412 C   0  0  0  0  0  0  0  0  0  0  0  0
   19.1869  -11.3736  -17.5156 C   0  0  0  0  0  0  0  0  0  0  0  0
   18.4241  -11.2906  -16.2407 C   0  0  2  0  0  0  0  0  0  0  0  0
   17.1429  -11.8966  -16.3795 N   0  0  0  0  0  0  0  0  0  0  0  0
   18.4148   -9.9262  -15.6569 C   0  0  0  0  0  0  0  0  0  0  0  0
   17.5439   -9.1348  -16.0942 O   0  0  0  0  0  0  0  0  0  0  0  0
   16.4633   -7.8397  -12.7094 N   0  0  0  0  0  0  0  0  0  0  0  0
   17.5498   -8.6971  -12.4484 C   0  0  0  0  0  0  0  0  0  0  0  0
   17.3764   -9.8729  -12.0762 O   0  0  0  0  0  0  0  0  0  0  0  0
   18.9393   -8.2033  -12.6159 C   0  0  0  0  0  0  0  0  0  0  0  0
   19.3741   -8.1936  -14.0542 C   0  0  2  0  0  0  0  0  0  0  0  0
   19.3236   -9.5035  -14.6578 N   0  0  0  0  0  0  0  0  0  0  0  0
   20.6384   -7.4726  -14.2370 C   0  0  0  0  0  0  0  0  0  0  0  0
   21.7280   -7.9468  -13.9085 O   0  0  0  0  0  0  0  0  0  0  0  0
   22.6352   -3.0885  -18.1319 N   0  0  0  0  0  0  0  0  0  0  0  0
   21.7410   -4.1443  -18.4470 C   0  0  0  0  0  0  0  0  0  0  0  0
   21.5168   -4.4229  -19.6372 O   0  0  0  0  0  0  0  0  0  0  0  0
   21.0787   -4.9099  -17.3760 C   0  0  0  0  0  0  0  0  0  0  0  0
   21.4653   -4.3533  -16.0515 C   0  0  0  0  0  0  0  0  0  0  0  0
   21.8283   -5.3726  -15.0088 C   0  0  2  0  0  0  0  0  0  0  0  0
   20.6278   -6.1823  -14.8111 N   0  0  0  0  0  0  0  0  0  0  0  0
   22.3124   -4.7979  -13.7528 C   0  0  0  0  0  0  0  0  0  0  0  0
   23.5789   -4.2621  -13.6155 O   0  0  0  0  0  0  0  0  0  0  0  0
   21.5705   -4.7760  -12.7389 O   0  0  0  0  0  0  0  0  0  0  0  0
  2  3  2  0
  2  1  1  0
  4  2  1  0
  5  4  1  0
  6  5  1  0
  6  8  1  0
  6  7  1  6
  8 15  1  0
  8  9  2  0
 11 10  1  0
 12 11  2  0
 13 11  1  0
 14 13  1  1
 15 14  1  0
 16 14  1  0
 16 17  2  0
 18 19  1  0
 19 21  1  0
 20 19  2  0
 21 22  1  0
 23 22  1  6
 23 24  1  0
 24 16  1  0
 25 26  1  0
 25 23  1  0
 27 25  2  0
M  END
$$$$
