QNQ.pdb
     RDKit          3D

 27 26  0  0  1  0  0  0  0  0999 V2000
   19.2209  -17.9694  -12.1999 N   0  0  0  0  0  0  0  0  0  0  0  0
   19.2118  -19.3654  -12.0378 C   0  0  0  0  0  0  0  0  0  0  0  0
   18.1878  -19.9458  -11.6207 O   0  0  0  0  0  0  0  0  0  0  0  0
   20.3952  -20.2136  -12.3466 C   0  0  0  0  0  0  0  0  0  0  0  0
   21.5772  -19.3819  -12.7698 C   0  0  0  0  0  0  0  0  0  0  0  0
   21.7267  -19.4826  -14.2467 C   0  0  2  0  0  0  0  0  0  0  0  0
   22.1718  -20.7826  -14.6208 N   0  0  0  0  0  0  0  0  0  0  0  0
   22.5025  -18.3599  -14.8301 C   0  0  0  0  0  0  0  0  0  0  0  0
   22.2100  -17.2072  -14.4279 O   0  0  0  0  0  0  0  0  0  0  0  0
   26.9111  -19.4318  -15.5167 N   0  0  0  0  0  0  0  0  0  0  0  0
   26.5426  -18.1282  -15.9020 C   0  0  0  0  0  0  0  0  0  0  0  0
   27.0180  -17.1241  -15.3389 O   0  0  0  0  0  0  0  0  0  0  0  0
   25.5668  -17.9294  -17.0024 C   0  0  0  0  0  0  0  0  0  0  0  0
   24.2193  -17.4929  -16.5009 C   0  0  2  0  0  0  0  0  0  0  0  0
   23.5258  -18.5405  -15.7909 N   0  0  0  0  0  0  0  0  0  0  0  0
   23.4368  -16.8276  -17.5482 C   0  0  0  0  0  0  0  0  0  0  0  0
   22.4840  -17.3698  -18.1123 O   0  0  0  0  0  0  0  0  0  0  0  0
   20.2392  -14.0423  -15.0556 N   0  0  0  0  0  0  0  0  0  0  0  0
   19.9614  -13.2309  -16.1862 C   0  0  0  0  0  0  0  0  0  0  0  0
   18.9565  -12.4997  -16.1837 O   0  0  0  0  0  0  0  0  0  0  0  0
   20.8535  -13.2496  -17.3590 C   0  0  0  0  0  0  0  0  0  0  0  0
   21.8755  -14.3178  -17.1925 C   0  0  0  0  0  0  0  0  0  0  0  0
   22.7910  -14.5181  -18.3671 C   0  0  2  0  0  0  0  0  0  0  0  0
   23.7726  -15.5129  -17.9396 N   0  0  0  0  0  0  0  0  0  0  0  0
   23.4297  -13.2907  -18.8445 C   0  0  0  0  0  0  0  0  0  0  0  0
   24.7205  -12.9373  -18.4997 O   0  0  0  0  0  0  0  0  0  0  0  0
   22.8051  -12.5044  -19.5998 O   0  0  0  0  0  0  0  0  0  0  0  0
  2  3  2  0
  2  1  1  0
  4  2  1  0
  5  4  1  0
  6  5  1  0
  6  8  1  0
  6  7  1  1
  8 15  1  0
  8  9  2  0
 11 10  1  0
 12 11  2  0
 13 11  1  0
 14 13  1  6
 15 14  1  0
 16 14  1  0
 16 17  2  0
 18 19  1  0
 19 21  1  0
 20 19  2  0
 21 22  1  0
 23 22  1  1
 23 24  1  0
 24 16  1  0
 25 26  1  0
 25 23  1  0
 27 25  2  0
M  END
$$$$
