QNQ.pdb
     RDKit          3D

 27 26  0  0  1  0  0  0  0  0999 V2000
   17.5696   -8.6061  -17.2242 N   0  0  0  0  0  0  0  0  0  0  0  0
   16.5407   -9.5014  -17.5633 C   0  0  0  0  0  0  0  0  0  0  0  0
   16.3907   -9.8719  -18.7464 O   0  0  0  0  0  0  0  0  0  0  0  0
   15.5919  -10.0475  -16.5550 C   0  0  0  0  0  0  0  0  0  0  0  0
   15.7559   -9.3734  -15.2183 C   0  0  0  0  0  0  0  0  0  0  0  0
   16.7826  -10.1120  -14.4346 C   0  0  2  0  0  0  0  0  0  0  0  0
   16.4365  -11.4889  -14.3221 N   0  0  0  0  0  0  0  0  0  0  0  0
   17.1292   -9.4438  -13.1556 C   0  0  0  0  0  0  0  0  0  0  0  0
   16.4193   -9.7329  -12.1613 O   0  0  0  0  0  0  0  0  0  0  0  0
   19.3593   -6.5038   -9.5280 N   0  0  0  0  0  0  0  0  0  0  0  0
   20.2704   -6.5214  -10.6019 C   0  0  0  0  0  0  0  0  0  0  0  0
   21.3757   -5.9521  -10.5274 O   0  0  0  0  0  0  0  0  0  0  0  0
   19.9205   -7.2301  -11.8581 C   0  0  0  0  0  0  0  0  0  0  0  0
   18.5092   -7.7458  -11.8506 C   0  0  2  0  0  0  0  0  0  0  0  0
   18.1970   -8.5243  -13.0250 N   0  0  0  0  0  0  0  0  0  0  0  0
   17.5439   -6.6889  -11.5300 C   0  0  0  0  0  0  0  0  0  0  0  0
   17.2145   -5.8207  -12.3411 O   0  0  0  0  0  0  0  0  0  0  0  0
   14.6874   -8.9052   -8.1126 N   0  0  0  0  0  0  0  0  0  0  0  0
   13.6161   -8.1910   -8.7092 C   0  0  0  0  0  0  0  0  0  0  0  0
   12.5099   -8.7420   -8.8398 O   0  0  0  0  0  0  0  0  0  0  0  0
   13.8061   -6.8052   -9.1732 C   0  0  0  0  0  0  0  0  0  0  0  0
   15.1498   -6.3193   -8.7590 C   0  0  0  0  0  0  0  0  0  0  0  0
   15.9562   -5.6617   -9.8431 C   0  0  2  0  0  0  0  0  0  0  0  0
   16.9570   -6.6475  -10.2462 N   0  0  0  0  0  0  0  0  0  0  0  0
   16.5682   -4.3923   -9.4477 C   0  0  0  0  0  0  0  0  0  0  0  0
   15.8456   -3.2205   -9.3259 O   0  0  0  0  0  0  0  0  0  0  0  0
   17.7991   -4.3319   -9.2027 O   0  0  0  0  0  0  0  0  0  0  0  0
  2  3  2  0
  2  1  1  0
  4  2  1  0
  5  4  1  0
  6  5  1  0
  6  8  1  0
  6  7  1  1
  8 15  1  0
  8  9  2  0
 11 10  1  0
 12 11  2  0
 13 11  1  0
 14 13  1  6
 15 14  1  0
 16 14  1  0
 16 17  2  0
 18 19  1  0
 19 21  1  0
 20 19  2  0
 21 22  1  0
 23 22  1  1
 23 24  1  0
 24 16  1  0
 25 26  1  0
 25 23  1  0
 27 25  2  0
M  END
$$$$
