QNQ.pdb
     RDKit          3D

 27 26  0  0  1  0  0  0  0  0999 V2000
   29.4455  -16.9131  -17.7567 N   0  0  0  0  0  0  0  0  0  0  0  0
   28.4889  -16.9168  -18.7863 C   0  0  0  0  0  0  0  0  0  0  0  0
   28.7509  -16.4014  -19.8932 O   0  0  0  0  0  0  0  0  0  0  0  0
   27.1390  -17.5214  -18.6210 C   0  0  0  0  0  0  0  0  0  0  0  0
   26.8729  -17.8979  -17.1873 C   0  0  0  0  0  0  0  0  0  0  0  0
   27.2861  -19.3123  -16.9813 C   0  0  2  0  0  0  0  0  0  0  0  0
   27.4789  -19.9682  -18.2306 N   0  0  0  0  0  0  0  0  0  0  0  0
   26.4201  -20.0363  -16.0177 C   0  0  0  0  0  0  0  0  0  0  0  0
   25.4104  -20.6111  -16.4931 O   0  0  0  0  0  0  0  0  0  0  0  0
   25.6302  -22.6149  -11.0427 N   0  0  0  0  0  0  0  0  0  0  0  0
   25.5359  -21.2221  -11.2297 C   0  0  0  0  0  0  0  0  0  0  0  0
   24.7441  -20.5281  -10.5644 O   0  0  0  0  0  0  0  0  0  0  0  0
   26.3928  -20.5509  -12.2385 C   0  0  0  0  0  0  0  0  0  0  0  0
   25.7749  -20.5543  -13.6081 C   0  0  2  0  0  0  0  0  0  0  0  0
   26.6869  -20.0981  -14.6292 N   0  0  0  0  0  0  0  0  0  0  0  0
   24.4590  -19.9062  -13.6145 C   0  0  0  0  0  0  0  0  0  0  0  0
   24.3059  -18.7145  -13.8911 O   0  0  0  0  0  0  0  0  0  0  0  0
   20.8934  -19.8343  -17.5073 N   0  0  0  0  0  0  0  0  0  0  0  0
   20.6306  -18.6914  -16.7082 C   0  0  0  0  0  0  0  0  0  0  0  0
   19.9830  -17.7449  -17.1866 O   0  0  0  0  0  0  0  0  0  0  0  0
   21.1190  -18.6199  -15.3196 C   0  0  0  0  0  0  0  0  0  0  0  0
   21.8699  -19.8611  -14.9894 C   0  0  0  0  0  0  0  0  0  0  0  0
   21.9431  -20.1963  -13.5265 C   0  0  2  0  0  0  0  0  0  0  0  0
   23.3092  -20.6609  -13.2941 N   0  0  0  0  0  0  0  0  0  0  0  0
   20.9502  -21.1775  -13.0866 C   0  0  0  0  0  0  0  0  0  0  0  0
   19.6410  -20.8392  -12.8014 O   0  0  0  0  0  0  0  0  0  0  0  0
   21.2698  -22.3853  -12.9524 O   0  0  0  0  0  0  0  0  0  0  0  0
  2  3  2  0
  2  1  1  0
  4  2  1  0
  5  4  1  0
  6  5  1  0
  6  8  1  0
  6  7  1  6
  8 15  1  0
  8  9  2  0
 11 10  1  0
 12 11  2  0
 13 11  1  0
 14 13  1  1
 15 14  1  0
 16 14  1  0
 16 17  2  0
 18 19  1  0
 19 21  1  0
 20 19  2  0
 21 22  1  0
 23 22  1  6
 23 24  1  0
 24 16  1  0
 25 26  1  0
 25 23  1  0
 27 25  2  0
M  END
$$$$
