QNQ.pdb
     RDKit          3D

 27 26  0  0  1  0  0  0  0  0999 V2000
   27.6943  -27.6094  -15.4595 N   0  0  0  0  0  0  0  0  0  0  0  0
   27.7946  -27.0660  -16.7517 C   0  0  0  0  0  0  0  0  0  0  0  0
   28.4168  -27.6759  -17.6464 O   0  0  0  0  0  0  0  0  0  0  0  0
   27.1792  -25.7620  -17.1204 C   0  0  0  0  0  0  0  0  0  0  0  0
   26.4348  -25.1537  -15.9612 C   0  0  0  0  0  0  0  0  0  0  0  0
   25.1042  -24.6903  -16.4394 C   0  0  2  0  0  0  0  0  0  0  0  0
   25.2386  -23.9030  -17.6185 N   0  0  0  0  0  0  0  0  0  0  0  0
   24.2811  -24.0801  -15.3658 C   0  0  0  0  0  0  0  0  0  0  0  0
   24.0710  -24.7868  -14.3497 O   0  0  0  0  0  0  0  0  0  0  0  0
   21.6108  -20.7720  -12.4370 N   0  0  0  0  0  0  0  0  0  0  0  0
   22.0872  -20.0008  -13.5150 C   0  0  0  0  0  0  0  0  0  0  0  0
   21.8895  -18.7725  -13.5742 O   0  0  0  0  0  0  0  0  0  0  0  0
   22.8439  -20.6516  -14.6134 C   0  0  0  0  0  0  0  0  0  0  0  0
   22.8792  -22.1475  -14.4767 C   0  0  2  0  0  0  0  0  0  0  0  0
   23.7449  -22.7729  -15.4473 N   0  0  0  0  0  0  0  0  0  0  0  0
   21.5312  -22.7188  -14.3857 C   0  0  0  0  0  0  0  0  0  0  0  0
   20.8657  -23.0147  -15.3805 O   0  0  0  0  0  0  0  0  0  0  0  0
   19.6930  -24.9575   -8.9646 N   0  0  0  0  0  0  0  0  0  0  0  0
   18.5213  -25.2420   -9.7129 C   0  0  0  0  0  0  0  0  0  0  0  0
   17.6115  -25.9121   -9.1957 O   0  0  0  0  0  0  0  0  0  0  0  0
   18.3769  -24.7497  -11.0944 C   0  0  0  0  0  0  0  0  0  0  0  0
   19.6125  -24.0266  -11.4990 C   0  0  0  0  0  0  0  0  0  0  0  0
   19.6333  -23.5377  -12.9197 C   0  0  2  0  0  0  0  0  0  0  0  0
   20.9556  -22.9471  -13.1164 N   0  0  0  0  0  0  0  0  0  0  0  0
   18.5608  -22.5963  -13.2448 C   0  0  0  0  0  0  0  0  0  0  0  0
   17.3477  -22.9985  -13.7709 O   0  0  0  0  0  0  0  0  0  0  0  0
   18.7182  -21.3651  -13.0497 O   0  0  0  0  0  0  0  0  0  0  0  0
  2  3  2  0
  2  1  1  0
  4  2  1  0
  5  4  1  0
  6  5  1  0
  6  8  1  0
  6  7  1  6
  8 15  1  0
  8  9  2  0
 11 10  1  0
 12 11  2  0
 13 11  1  0
 14 13  1  6
 15 14  1  0
 16 14  1  0
 16 17  2  0
 18 19  1  0
 19 21  1  0
 20 19  2  0
 21 22  1  0
 23 22  1  1
 23 24  1  0
 24 16  1  0
 25 26  1  0
 25 23  1  0
 27 25  2  0
M  END
$$$$
