QNQ.pdb
     RDKit          3D

 27 26  0  0  1  0  0  0  0  0999 V2000
   21.8864  -18.9800  -21.1082 N   0  0  0  0  0  0  0  0  0  0  0  0
   22.6431  -17.8798  -20.6699 C   0  0  0  0  0  0  0  0  0  0  0  0
   22.7898  -16.8813  -21.4053 O   0  0  0  0  0  0  0  0  0  0  0  0
   23.2984  -17.8418  -19.3341 C   0  0  0  0  0  0  0  0  0  0  0  0
   23.0225  -19.0952  -18.5462 C   0  0  0  0  0  0  0  0  0  0  0  0
   23.6609  -18.9675  -17.2083 C   0  0  2  0  0  0  0  0  0  0  0  0
   25.0670  -18.7818  -17.3364 N   0  0  0  0  0  0  0  0  0  0  0  0
   23.2509  -20.0368  -16.2643 C   0  0  0  0  0  0  0  0  0  0  0  0
   22.6672  -21.0307  -16.7618 O   0  0  0  0  0  0  0  0  0  0  0  0
   25.6350  -21.8480  -14.6830 N   0  0  0  0  0  0  0  0  0  0  0  0
   25.4667  -21.5704  -13.3125 C   0  0  0  0  0  0  0  0  0  0  0  0
   26.4052  -21.6947  -12.5031 O   0  0  0  0  0  0  0  0  0  0  0  0
   24.1473  -21.1184  -12.8052 C   0  0  0  0  0  0  0  0  0  0  0  0
   23.1287  -20.9814  -13.9014 C   0  0  2  0  0  0  0  0  0  0  0  0
   23.4890  -19.9748  -14.8706 N   0  0  0  0  0  0  0  0  0  0  0  0
   21.7660  -20.8732  -13.3693 C   0  0  0  0  0  0  0  0  0  0  0  0
   21.4058  -19.9407  -12.6477 O   0  0  0  0  0  0  0  0  0  0  0  0
   18.4998  -20.4873  -16.8335 N   0  0  0  0  0  0  0  0  0  0  0  0
   17.5077  -20.1840  -15.8653 C   0  0  0  0  0  0  0  0  0  0  0  0
   16.6631  -19.3053  -16.1078 O   0  0  0  0  0  0  0  0  0  0  0  0
   17.4725  -20.9016  -14.5785 C   0  0  0  0  0  0  0  0  0  0  0  0
   18.6008  -21.8692  -14.5150 C   0  0  0  0  0  0  0  0  0  0  0  0
   19.4180  -21.8195  -13.2550 C   0  0  2  0  0  0  0  0  0  0  0  0
   20.8138  -21.8671  -13.6855 N   0  0  0  0  0  0  0  0  0  0  0  0
   19.1055  -22.8807  -12.2965 C   0  0  0  0  0  0  0  0  0  0  0  0
   18.0998  -22.7652  -11.3557 O   0  0  0  0  0  0  0  0  0  0  0  0
   19.7607  -23.9529  -12.3031 O   0  0  0  0  0  0  0  0  0  0  0  0
  2  3  2  0
  2  1  1  0
  4  2  1  0
  5  4  1  0
  6  5  1  0
  6  8  1  0
  6  7  1  6
  8 15  1  0
  8  9  2  0
 11 10  1  0
 12 11  2  0
 13 11  1  0
 14 13  1  1
 15 14  1  0
 16 14  1  0
 16 17  2  0
 18 19  1  0
 19 21  1  0
 20 19  2  0
 21 22  1  0
 23 22  1  6
 23 24  1  0
 24 16  1  0
 25 26  1  0
 25 23  1  0
 27 25  2  0
M  END
$$$$
