QNQ.pdb
     RDKit          3D

 27 26  0  0  1  0  0  0  0  0999 V2000
   14.3878  -10.9632  -17.1549 N   0  0  0  0  0  0  0  0  0  0  0  0
   15.0467  -12.1626  -17.4746 C   0  0  0  0  0  0  0  0  0  0  0  0
   14.4660  -13.0430  -18.1435 O   0  0  0  0  0  0  0  0  0  0  0  0
   16.4429  -12.4469  -17.0444 C   0  0  0  0  0  0  0  0  0  0  0  0
   17.0521  -11.2700  -16.3290 C   0  0  0  0  0  0  0  0  0  0  0  0
   18.4486  -11.6145  -15.9481 C   0  0  2  0  0  0  0  0  0  0  0  0
   18.4667  -12.7035  -15.0305 N   0  0  0  0  0  0  0  0  0  0  0  0
   19.2473  -10.4329  -15.5378 C   0  0  0  0  0  0  0  0  0  0  0  0
   18.7605   -9.7141  -14.6309 O   0  0  0  0  0  0  0  0  0  0  0  0
   24.1455  -11.0885  -15.2573 N   0  0  0  0  0  0  0  0  0  0  0  0
   23.2438  -10.0629  -14.9128 C   0  0  0  0  0  0  0  0  0  0  0  0
   22.8491   -9.9094  -13.7415 O   0  0  0  0  0  0  0  0  0  0  0  0
   22.7432   -9.1355  -15.9577 C   0  0  0  0  0  0  0  0  0  0  0  0
   21.2616   -8.9060  -15.8575 C   0  0  2  0  0  0  0  0  0  0  0  0
   20.4965  -10.1022  -16.1150 N   0  0  0  0  0  0  0  0  0  0  0  0
   20.8404   -7.7229  -16.6154 C   0  0  0  0  0  0  0  0  0  0  0  0
   20.5272   -7.7729  -17.8068 O   0  0  0  0  0  0  0  0  0  0  0  0
   16.2636   -6.2677  -17.5358 N   0  0  0  0  0  0  0  0  0  0  0  0
   16.6198   -4.9048  -17.7065 C   0  0  0  0  0  0  0  0  0  0  0  0
   15.7739   -4.0987  -18.1296 O   0  0  0  0  0  0  0  0  0  0  0  0
   17.9814   -4.4405  -17.3864 C   0  0  0  0  0  0  0  0  0  0  0  0
   18.7985   -5.5853  -16.9015 C   0  0  0  0  0  0  0  0  0  0  0  0
   20.2327   -5.2628  -16.5896 C   0  0  2  0  0  0  0  0  0  0  0  0
   20.7844   -6.4669  -15.9719 N   0  0  0  0  0  0  0  0  0  0  0  0
   20.4103   -4.0834  -15.7414 C   0  0  0  0  0  0  0  0  0  0  0  0
   20.2329   -2.7944  -16.2074 O   0  0  0  0  0  0  0  0  0  0  0  0
   20.7381   -4.2142  -14.5354 O   0  0  0  0  0  0  0  0  0  0  0  0
  2  3  2  0
  2  1  1  0
  4  2  1  0
  5  4  1  0
  6  5  1  0
  6  8  1  0
  6  7  1  1
  8 15  1  0
  8  9  2  0
 11 10  1  0
 12 11  2  0
 13 11  1  0
 14 13  1  6
 15 14  1  0
 16 14  1  0
 16 17  2  0
 18 19  1  0
 19 21  1  0
 20 19  2  0
 21 22  1  0
 23 22  1  1
 23 24  1  0
 24 16  1  0
 25 26  1  0
 25 23  1  0
 27 25  2  0
M  END
$$$$
