QNQ.pdb
     RDKit          3D

 27 26  0  0  1  0  0  0  0  0999 V2000
   17.7928  -16.4081  -15.1091 N   0  0  0  0  0  0  0  0  0  0  0  0
   17.0525  -16.2987  -16.2986 C   0  0  0  0  0  0  0  0  0  0  0  0
   16.5595  -17.3150  -16.8311 O   0  0  0  0  0  0  0  0  0  0  0  0
   16.8184  -14.9950  -16.9773 C   0  0  0  0  0  0  0  0  0  0  0  0
   17.4654  -13.8582  -16.2309 C   0  0  0  0  0  0  0  0  0  0  0  0
   18.1404  -12.9664  -17.2122 C   0  0  2  0  0  0  0  0  0  0  0  0
   18.8968  -13.7280  -18.1482 N   0  0  0  0  0  0  0  0  0  0  0  0
   18.8754  -11.8478  -16.5712 C   0  0  0  0  0  0  0  0  0  0  0  0
   18.2064  -11.0915  -15.8251 O   0  0  0  0  0  0  0  0  0  0  0  0
   22.5966   -8.6968  -14.8459 N   0  0  0  0  0  0  0  0  0  0  0  0
   23.2392   -9.8829  -15.2509 C   0  0  0  0  0  0  0  0  0  0  0  0
   24.4529  -10.0695  -15.0425 O   0  0  0  0  0  0  0  0  0  0  0  0
   22.4665  -10.9444  -15.9428 C   0  0  0  0  0  0  0  0  0  0  0  0
   21.0331  -10.5544  -16.1688 C   0  0  2  0  0  0  0  0  0  0  0  0
   20.2575  -11.6146  -16.7664 N   0  0  0  0  0  0  0  0  0  0  0  0
   20.9206   -9.2511  -16.8325 C   0  0  0  0  0  0  0  0  0  0  0  0
   21.3270   -9.0513  -17.9792 O   0  0  0  0  0  0  0  0  0  0  0  0
   16.0247   -6.0814  -16.2946 N   0  0  0  0  0  0  0  0  0  0  0  0
   16.7879   -5.0547  -16.9087 C   0  0  0  0  0  0  0  0  0  0  0  0
   16.2249   -4.0101  -17.2780 O   0  0  0  0  0  0  0  0  0  0  0  0
   18.2384   -5.2184  -17.1108 C   0  0  0  0  0  0  0  0  0  0  0  0
   18.6636   -6.5564  -16.6187 C   0  0  0  0  0  0  0  0  0  0  0  0
   20.1340   -6.8442  -16.7328 C   0  0  2  0  0  0  0  0  0  0  0  0
   20.3253   -8.1693  -16.1469 N   0  0  0  0  0  0  0  0  0  0  0  0
   20.9915   -5.8393  -16.1025 C   0  0  0  0  0  0  0  0  0  0  0  0
   21.4047   -4.6939  -16.7561 O   0  0  0  0  0  0  0  0  0  0  0  0
   21.3857   -5.9953  -14.9197 O   0  0  0  0  0  0  0  0  0  0  0  0
  2  3  2  0
  2  1  1  0
  4  2  1  0
  5  4  1  0
  6  5  1  0
  6  8  1  0
  6  7  1  1
  8 15  1  0
  8  9  2  0
 11 10  1  0
 12 11  2  0
 13 11  1  0
 14 13  1  6
 15 14  1  0
 16 14  1  0
 16 17  2  0
 18 19  1  0
 19 21  1  0
 20 19  2  0
 21 22  1  0
 23 22  1  1
 23 24  1  0
 24 16  1  0
 25 26  1  0
 25 23  1  0
 27 25  2  0
M  END
$$$$
