VER.pdb
     RDKit          3D

 28 27  0  0  1  0  0  0  0  0999 V2000
    6.6572  -14.4178   19.0185 C   0  0  0  0  0  0  0  0  0  0  0  0
    7.6698  -13.4176   19.4690 C   0  0  2  0  0  0  0  0  0  0  0  0
    7.6355  -12.2463   18.4812 C   0  0  0  0  0  0  0  0  0  0  0  0
    9.0840  -13.9882   19.4484 C   0  0  2  0  0  0  0  0  0  0  0  0
    9.4172  -14.4637   18.1134 N   0  0  0  0  0  0  0  0  0  0  0  0
    9.2379  -15.0976   20.4176 C   0  0  0  0  0  0  0  0  0  0  0  0
    9.0128  -14.9496   21.6401 O   0  0  0  0  0  0  0  0  0  0  0  0
    9.6543  -16.3996   19.9972 N   0  0  0  0  0  0  0  0  0  0  0  0
    9.8420  -17.5163   20.8884 C   0  0  1  0  0  0  0  0  0  0  0  0
   10.0593  -18.7587   20.0807 C   0  0  0  0  0  0  0  0  0  0  0  0
   11.2440  -18.6636   19.1580 C   0  0  0  0  0  0  0  0  0  0  0  0
   12.3575  -19.5217   19.6388 C   0  0  0  0  0  0  0  0  0  0  0  0
   12.1582  -20.2506   20.6414 O   0  0  0  0  0  0  0  0  0  0  0  0
   10.9444  -17.2577   21.8645 C   0  0  0  0  0  0  0  0  0  0  0  0
   11.9298  -16.5581   21.5288 O   0  0  0  0  0  0  0  0  0  0  0  0
   13.6076  -19.5608   19.0387 O   0  0  0  0  0  0  0  0  0  0  0  0
   10.1769  -16.4107   29.9629 N   0  0  0  0  0  0  0  0  0  0  0  0
   10.1201  -15.1480   29.3253 C   0  0  0  0  0  0  0  0  0  0  0  0
   10.4476  -14.0476   29.9074 N   0  0  0  0  0  0  0  0  0  0  0  0
    9.6837  -15.0615   27.9780 N   0  0  0  0  0  0  0  0  0  0  0  0
   10.6289  -15.0742   26.8583 C   0  0  0  0  0  0  0  0  0  0  0  0
   11.1832  -16.4182   26.6146 C   0  0  0  0  0  0  0  0  0  0  0  0
   10.8305  -17.0516   25.3499 C   0  0  0  0  0  0  0  0  0  0  0  0
   11.7737  -17.3745   24.2655 C   0  0  2  0  0  0  0  0  0  0  0  0
   10.8417  -17.8104   23.1355 N   0  0  0  0  0  0  0  0  0  0  0  0
   12.6409  -18.5497   24.3937 C   0  0  0  0  0  0  0  0  0  0  0  0
   12.2315  -19.6847   23.9659 O   0  0  0  0  0  0  0  0  0  0  0  0
   13.8974  -18.5777   24.9350 O   0  0  0  0  0  0  0  0  0  0  0  0
  2  1  1  6
  2  3  1  0
  4  2  1  0
  4  5  1  6
  6  7  2  0
  6  4  1  0
  8  6  1  0
  9  8  1  0
  9 10  1  6
 11 10  1  0
 12 11  1  0
 13 12  2  0
 14  9  1  0
 15 14  2  0
 16 12  1  0
 18 17  1  0
 19 18  2  0
 20 18  1  0
 21 20  1  0
 22 21  1  0
 23 22  1  0
 24 23  1  1
 24 25  1  0
 25 14  1  0
 26 28  1  0
 26 24  1  0
 27 26  2  0
M  END
$$$$
