VER.pdb
     RDKit          3D

 28 27  0  0  1  0  0  0  0  0999 V2000
    6.8706  -14.1371   20.9558 C   0  0  0  0  0  0  0  0  0  0  0  0
    8.0487  -13.5529   20.2492 C   0  0  2  0  0  0  0  0  0  0  0  0
    7.5632  -12.3186   19.4811 C   0  0  0  0  0  0  0  0  0  0  0  0
    8.6394  -14.5199   19.2285 C   0  0  2  0  0  0  0  0  0  0  0  0
    7.6087  -14.9704   18.3044 N   0  0  0  0  0  0  0  0  0  0  0  0
    9.2576  -15.6947   19.8855 C   0  0  0  0  0  0  0  0  0  0  0  0
    8.7209  -16.8256   19.8691 O   0  0  0  0  0  0  0  0  0  0  0  0
   10.5064  -15.5896   20.5745 N   0  0  0  0  0  0  0  0  0  0  0  0
   11.1930  -16.7025   21.1797 C   0  0  1  0  0  0  0  0  0  0  0  0
   12.6208  -16.3238   21.4267 C   0  0  0  0  0  0  0  0  0  0  0  0
   13.4568  -17.4686   21.9309 C   0  0  0  0  0  0  0  0  0  0  0  0
   14.4705  -16.9919   22.9070 C   0  0  0  0  0  0  0  0  0  0  0  0
   14.5996  -17.6194   23.9867 O   0  0  0  0  0  0  0  0  0  0  0  0
   10.4938  -17.1700   22.4156 C   0  0  0  0  0  0  0  0  0  0  0  0
   10.5161  -18.3842   22.7292 O   0  0  0  0  0  0  0  0  0  0  0  0
   15.2832  -15.8890   22.6891 O   0  0  0  0  0  0  0  0  0  0  0  0
   10.5292  -18.5694   28.2692 N   0  0  0  0  0  0  0  0  0  0  0  0
   11.3308  -17.5608   28.8559 C   0  0  0  0  0  0  0  0  0  0  0  0
   11.2069  -17.1835   30.0804 N   0  0  0  0  0  0  0  0  0  0  0  0
   12.3278  -16.9165   28.0788 N   0  0  0  0  0  0  0  0  0  0  0  0
   12.3668  -17.0383   26.6190 C   0  0  0  0  0  0  0  0  0  0  0  0
   11.2533  -16.3210   25.9719 C   0  0  0  0  0  0  0  0  0  0  0  0
   10.2463  -17.1394   25.3076 C   0  0  0  0  0  0  0  0  0  0  0  0
    9.1318  -16.6257   24.4927 C   0  0  2  0  0  0  0  0  0  0  0  0
    9.8288  -16.2286   23.1920 N   0  0  0  0  0  0  0  0  0  0  0  0
    8.4868  -15.3645   24.8711 C   0  0  0  0  0  0  0  0  0  0  0  0
    8.8467  -14.2766   24.3003 O   0  0  0  0  0  0  0  0  0  0  0  0
    7.4947  -15.2054   25.8000 O   0  0  0  0  0  0  0  0  0  0  0  0
  2  1  1  6
  2  3  1  0
  4  2  1  0
  4  5  1  6
  6  7  2  0
  6  4  1  0
  8  6  1  0
  9  8  1  0
  9 10  1  1
 11 10  1  0
 12 11  1  0
 13 12  2  0
 14  9  1  0
 15 14  2  0
 16 12  1  0
 18 17  1  0
 19 18  2  0
 20 18  1  0
 21 20  1  0
 22 21  1  0
 23 22  1  0
 24 23  1  1
 24 25  1  0
 25 14  1  0
 26 28  1  0
 26 24  1  0
 27 26  2  0
M  END
$$$$
