VER.pdb
     RDKit          3D

 28 27  0  0  1  0  0  0  0  0999 V2000
   10.6847  -13.5114   17.5275 C   0  0  0  0  0  0  0  0  0  0  0  0
   10.4055  -14.3771   18.7112 C   0  0  2  0  0  0  0  0  0  0  0  0
   11.1237  -13.7601   19.9164 C   0  0  0  0  0  0  0  0  0  0  0  0
   10.9546  -15.7882   18.5285 C   0  0  2  0  0  0  0  0  0  0  0  0
   10.2994  -16.4435   17.4058 N   0  0  0  0  0  0  0  0  0  0  0  0
   10.7714  -16.6062   19.7497 C   0  0  0  0  0  0  0  0  0  0  0  0
    9.6457  -17.0144   20.1149 O   0  0  0  0  0  0  0  0  0  0  0  0
   11.8818  -16.9701   20.5743 N   0  0  0  0  0  0  0  0  0  0  0  0
   11.7624  -17.6530   21.8375 C   0  0  1  0  0  0  0  0  0  0  0  0
   13.0540  -18.3454   22.1460 C   0  0  0  0  0  0  0  0  0  0  0  0
   13.0041  -19.1499   23.4165 C   0  0  0  0  0  0  0  0  0  0  0  0
   14.3746  -19.4359   23.9140 C   0  0  0  0  0  0  0  0  0  0  0  0
   15.1723  -20.0354   23.1522 O   0  0  0  0  0  0  0  0  0  0  0  0
   11.3285  -16.7219   22.9236 C   0  0  0  0  0  0  0  0  0  0  0  0
   11.8945  -15.6113   23.0627 O   0  0  0  0  0  0  0  0  0  0  0  0
   14.8209  -19.0754   25.1771 O   0  0  0  0  0  0  0  0  0  0  0  0
    7.6793  -14.4833   19.2922 N   0  0  0  0  0  0  0  0  0  0  0  0
    7.6593  -13.2549   19.9956 C   0  0  0  0  0  0  0  0  0  0  0  0
    8.0711  -12.1449   19.4901 N   0  0  0  0  0  0  0  0  0  0  0  0
    7.1665  -13.2160   21.3255 N   0  0  0  0  0  0  0  0  0  0  0  0
    7.1251  -14.4140   22.1684 C   0  0  0  0  0  0  0  0  0  0  0  0
    8.3490  -14.5679   22.9755 C   0  0  0  0  0  0  0  0  0  0  0  0
    8.4131  -15.7319   23.8508 C   0  0  0  0  0  0  0  0  0  0  0  0
    9.5761  -16.1227   24.6661 C   0  0  2  0  0  0  0  0  0  0  0  0
   10.2938  -17.1227   23.7603 N   0  0  0  0  0  0  0  0  0  0  0  0
    9.3687  -16.9258   25.8751 C   0  0  0  0  0  0  0  0  0  0  0  0
    9.1153  -16.3401   26.9849 O   0  0  0  0  0  0  0  0  0  0  0  0
    9.4086  -18.2909   25.9611 O   0  0  0  0  0  0  0  0  0  0  0  0
  2  1  1  6
  2  3  1  0
  4  2  1  0
  4  5  1  6
  6  7  2  0
  6  4  1  0
  8  6  1  0
  9  8  1  0
  9 10  1  1
 11 10  1  0
 12 11  1  0
 13 12  2  0
 14  9  1  0
 15 14  2  0
 16 12  1  0
 18 17  1  0
 19 18  2  0
 20 18  1  0
 21 20  1  0
 22 21  1  0
 23 22  1  0
 24 23  1  6
 24 25  1  0
 25 14  1  0
 26 28  1  0
 26 24  1  0
 27 26  2  0
M  END
$$$$
