VER.pdb
     RDKit          3D

 28 27  0  0  1  0  0  0  0  0999 V2000
    6.7360  -13.7018   19.2203 C   0  0  0  0  0  0  0  0  0  0  0  0
    7.9879  -13.0309   19.6798 C   0  0  2  0  0  0  0  0  0  0  0  0
    8.2276  -11.8225   18.7681 C   0  0  0  0  0  0  0  0  0  0  0  0
    9.2036  -13.9432   19.5542 C   0  0  2  0  0  0  0  0  0  0  0  0
    9.3761  -14.3671   18.1722 N   0  0  0  0  0  0  0  0  0  0  0  0
    9.0807  -15.1369   20.4224 C   0  0  0  0  0  0  0  0  0  0  0  0
    8.9424  -15.0462   21.6633 O   0  0  0  0  0  0  0  0  0  0  0  0
    9.1150  -16.4589   19.8779 N   0  0  0  0  0  0  0  0  0  0  0  0
    9.0930  -17.6617   20.6711 C   0  0  1  0  0  0  0  0  0  0  0  0
    9.0721  -18.8507   19.7606 C   0  0  0  0  0  0  0  0  0  0  0  0
    9.0888  -20.1611   20.4998 C   0  0  0  0  0  0  0  0  0  0  0  0
    9.0065  -21.3024   19.5522 C   0  0  0  0  0  0  0  0  0  0  0  0
    9.0509  -21.0596   18.3212 O   0  0  0  0  0  0  0  0  0  0  0  0
   10.2268  -17.6955   21.6449 C   0  0  0  0  0  0  0  0  0  0  0  0
   11.4106  -17.6502   21.2329 O   0  0  0  0  0  0  0  0  0  0  0  0
    8.8830  -22.6242   19.9550 O   0  0  0  0  0  0  0  0  0  0  0  0
   11.1057  -15.8939   29.9727 N   0  0  0  0  0  0  0  0  0  0  0  0
   10.3232  -14.9620   29.2492 C   0  0  0  0  0  0  0  0  0  0  0  0
    9.8557  -13.8800   29.7667 N   0  0  0  0  0  0  0  0  0  0  0  0
   10.0234  -15.2077   27.8844 N   0  0  0  0  0  0  0  0  0  0  0  0
   11.0719  -15.5100   26.9063 C   0  0  0  0  0  0  0  0  0  0  0  0
   11.0527  -16.9242   26.4907 C   0  0  0  0  0  0  0  0  0  0  0  0
   10.3916  -17.2256   25.2270 C   0  0  0  0  0  0  0  0  0  0  0  0
   11.0365  -17.8354   24.0513 C   0  0  2  0  0  0  0  0  0  0  0  0
    9.9290  -17.7780   22.9998 N   0  0  0  0  0  0  0  0  0  0  0  0
   11.3475  -19.2681   24.0647 C   0  0  0  0  0  0  0  0  0  0  0  0
   10.4779  -20.1058   23.6395 O   0  0  0  0  0  0  0  0  0  0  0  0
   12.5139  -19.8428   24.4909 O   0  0  0  0  0  0  0  0  0  0  0  0
  2  1  1  6
  2  3  1  0
  4  2  1  0
  4  5  1  6
  6  7  2  0
  6  4  1  0
  8  6  1  0
  9  8  1  0
  9 10  1  6
 11 10  1  0
 12 11  1  0
 13 12  2  0
 14  9  1  0
 15 14  2  0
 16 12  1  0
 18 17  1  0
 19 18  2  0
 20 18  1  0
 21 20  1  0
 22 21  1  0
 23 22  1  0
 24 23  1  1
 24 25  1  0
 25 14  1  0
 26 28  1  0
 26 24  1  0
 27 26  2  0
M  END
$$$$
