VER.pdb
     RDKit          3D

 28 27  0  0  1  0  0  0  0  0999 V2000
    8.4236  -13.2755   19.9366 C   0  0  0  0  0  0  0  0  0  0  0  0
    9.4045  -13.3633   18.8147 C   0  0  2  0  0  0  0  0  0  0  0  0
    8.9417  -12.3981   17.7178 C   0  0  0  0  0  0  0  0  0  0  0  0
    9.4482  -14.7595   18.2027 C   0  0  2  0  0  0  0  0  0  0  0  0
    8.1497  -15.1065   17.6435 N   0  0  0  0  0  0  0  0  0  0  0  0
    9.8414  -15.7800   19.2017 C   0  0  0  0  0  0  0  0  0  0  0  0
    9.0368  -16.2242   20.0516 O   0  0  0  0  0  0  0  0  0  0  0  0
   11.1696  -16.3088   19.2410 N   0  0  0  0  0  0  0  0  0  0  0  0
   11.6239  -17.2855   20.1981 C   0  0  1  0  0  0  0  0  0  0  0  0
   12.9053  -17.8901   19.7131 C   0  0  0  0  0  0  0  0  0  0  0  0
   14.0246  -16.8908   19.6007 C   0  0  0  0  0  0  0  0  0  0  0  0
   15.2679  -17.5436   19.1154 C   0  0  0  0  0  0  0  0  0  0  0  0
   15.4383  -17.6547   17.8766 O   0  0  0  0  0  0  0  0  0  0  0  0
   11.7411  -16.6963   21.5671 C   0  0  0  0  0  0  0  0  0  0  0  0
   11.9970  -15.4763   21.7064 O   0  0  0  0  0  0  0  0  0  0  0  0
   16.2521  -18.0378   19.9589 O   0  0  0  0  0  0  0  0  0  0  0  0
    6.2686  -14.5119   21.0921 N   0  0  0  0  0  0  0  0  0  0  0  0
    6.8111  -13.6161   22.0447 C   0  0  0  0  0  0  0  0  0  0  0  0
    7.0277  -12.3709   21.7999 N   0  0  0  0  0  0  0  0  0  0  0  0
    7.1423  -14.0870   23.3414 N   0  0  0  0  0  0  0  0  0  0  0  0
    7.6714  -15.4359   23.5607 C   0  0  0  0  0  0  0  0  0  0  0  0
    9.1420  -15.4460   23.6620 C   0  0  0  0  0  0  0  0  0  0  0  0
    9.7697  -16.7321   23.9395 C   0  0  0  0  0  0  0  0  0  0  0  0
   11.2200  -16.9691   24.0409 C   0  0  2  0  0  0  0  0  0  0  0  0
   11.5601  -17.5329   22.6619 N   0  0  0  0  0  0  0  0  0  0  0  0
   11.7143  -18.0348   24.9182 C   0  0  0  0  0  0  0  0  0  0  0  0
   11.7167  -19.2448   24.5002 O   0  0  0  0  0  0  0  0  0  0  0  0
   12.2027  -17.8820   26.1873 O   0  0  0  0  0  0  0  0  0  0  0  0
  2  1  1  1
  2  3  1  0
  4  2  1  0
  4  5  1  1
  6  7  2  0
  6  4  1  0
  8  6  1  0
  9  8  1  0
  9 10  1  6
 11 10  1  0
 12 11  1  0
 13 12  2  0
 14  9  1  0
 15 14  2  0
 16 12  1  0
 18 17  1  0
 19 18  2  0
 20 18  1  0
 21 20  1  0
 22 21  1  0
 23 22  1  0
 24 23  1  6
 24 25  1  0
 25 14  1  0
 26 28  1  0
 26 24  1  0
 27 26  2  0
M  END
$$$$
