VER.pdb
     RDKit          3D

 28 27  0  0  1  0  0  0  0  0999 V2000
    8.4342  -13.2227   20.3750 C   0  0  0  0  0  0  0  0  0  0  0  0
    9.0503  -12.5223   19.2095 C   0  0  2  0  0  0  0  0  0  0  0  0
    8.0007  -11.5630   18.6375 C   0  0  0  0  0  0  0  0  0  0  0  0
    9.4328  -13.4930   18.0972 C   0  0  2  0  0  0  0  0  0  0  0  0
    8.2573  -14.2127   17.6287 N   0  0  0  0  0  0  0  0  0  0  0  0
   10.4554  -14.4643   18.5497 C   0  0  0  0  0  0  0  0  0  0  0  0
   10.1590  -15.6305   18.8952 O   0  0  0  0  0  0  0  0  0  0  0  0
   11.8398  -14.1110   18.6132 N   0  0  0  0  0  0  0  0  0  0  0  0
   12.8847  -15.0062   19.0412 C   0  0  1  0  0  0  0  0  0  0  0  0
   14.1420  -14.6879   18.2923 C   0  0  0  0  0  0  0  0  0  0  0  0
   15.3024  -15.5599   18.6886 C   0  0  0  0  0  0  0  0  0  0  0  0
   16.4407  -15.3817   17.7506 C   0  0  0  0  0  0  0  0  0  0  0  0
   17.2279  -16.3445   17.5788 O   0  0  0  0  0  0  0  0  0  0  0  0
   13.0660  -14.9656   20.5246 C   0  0  0  0  0  0  0  0  0  0  0  0
   13.4261  -13.9028   21.0849 O   0  0  0  0  0  0  0  0  0  0  0  0
   16.6809  -14.2068   17.0531 O   0  0  0  0  0  0  0  0  0  0  0  0
    8.2829  -17.3309   20.5197 N   0  0  0  0  0  0  0  0  0  0  0  0
    7.4945  -16.8823   21.6065 C   0  0  0  0  0  0  0  0  0  0  0  0
    6.3687  -16.2756   21.4592 N   0  0  0  0  0  0  0  0  0  0  0  0
    7.9434  -17.0981   22.9349 N   0  0  0  0  0  0  0  0  0  0  0  0
    9.2990  -17.5740   23.2237 C   0  0  0  0  0  0  0  0  0  0  0  0
   10.3239  -16.5696   22.8864 C   0  0  0  0  0  0  0  0  0  0  0  0
   11.7109  -16.9399   23.1399 C   0  0  0  0  0  0  0  0  0  0  0  0
   12.8889  -16.1338   22.7762 C   0  0  2  0  0  0  0  0  0  0  0  0
   12.8262  -16.1269   21.2493 N   0  0  0  0  0  0  0  0  0  0  0  0
   14.2308  -16.6775   23.0075 C   0  0  0  0  0  0  0  0  0  0  0  0
   14.8462  -17.2647   22.0508 O   0  0  0  0  0  0  0  0  0  0  0  0
   14.9396  -16.6232   24.1767 O   0  0  0  0  0  0  0  0  0  0  0  0
  2  1  1  1
  2  3  1  0
  4  2  1  0
  4  5  1  1
  6  7  2  0
  6  4  1  0
  8  6  1  0
  9  8  1  0
  9 10  1  6
 11 10  1  0
 12 11  1  0
 13 12  2  0
 14  9  1  0
 15 14  2  0
 16 12  1  0
 18 17  1  0
 19 18  2  0
 20 18  1  0
 21 20  1  0
 22 21  1  0
 23 22  1  0
 24 23  1  1
 24 25  1  0
 25 14  1  0
 26 28  1  0
 26 24  1  0
 27 26  2  0
M  END
$$$$
