VER.pdb
     RDKit          3D

 28 27  0  0  1  0  0  0  0  0999 V2000
    7.2701  -12.9554   19.0260 C   0  0  0  0  0  0  0  0  0  0  0  0
    7.8823  -13.8072   20.0882 C   0  0  2  0  0  0  0  0  0  0  0  0
    9.1378  -13.0876   20.5931 C   0  0  0  0  0  0  0  0  0  0  0  0
    8.3222  -15.1641   19.5488 C   0  0  2  0  0  0  0  0  0  0  0  0
    7.1953  -15.8541   18.9379 N   0  0  0  0  0  0  0  0  0  0  0  0
    8.8983  -16.0139   20.6165 C   0  0  0  0  0  0  0  0  0  0  0  0
    8.1810  -16.6259   21.4399 O   0  0  0  0  0  0  0  0  0  0  0  0
   10.3124  -16.1753   20.7564 N   0  0  0  0  0  0  0  0  0  0  0  0
   10.9403  -16.9345   21.8079 C   0  0  1  0  0  0  0  0  0  0  0  0
   12.3443  -17.2649   21.4048 C   0  0  0  0  0  0  0  0  0  0  0  0
   12.4164  -18.1951   20.2243 C   0  0  0  0  0  0  0  0  0  0  0  0
   13.8285  -18.5122   19.8881 C   0  0  0  0  0  0  0  0  0  0  0  0
   14.0708  -19.5856   19.2836 O   0  0  0  0  0  0  0  0  0  0  0  0
   10.8652  -16.2193   23.1186 C   0  0  0  0  0  0  0  0  0  0  0  0
   10.9177  -14.9666   23.1548 O   0  0  0  0  0  0  0  0  0  0  0  0
   14.8954  -17.6847   20.2066 O   0  0  0  0  0  0  0  0  0  0  0  0
    7.0725  -10.9789   25.3685 N   0  0  0  0  0  0  0  0  0  0  0  0
    6.3704  -11.7917   26.2906 C   0  0  0  0  0  0  0  0  0  0  0  0
    5.4938  -11.3312   27.1132 N   0  0  0  0  0  0  0  0  0  0  0  0
    6.6260  -13.1867   26.3326 N   0  0  0  0  0  0  0  0  0  0  0  0
    7.6671  -13.8056   25.5076 C   0  0  0  0  0  0  0  0  0  0  0  0
    7.6544  -15.2762   25.6083 C   0  0  0  0  0  0  0  0  0  0  0  0
    8.7091  -15.9895   24.8984 C   0  0  0  0  0  0  0  0  0  0  0  0
    9.9783  -16.4455   25.4909 C   0  0  2  0  0  0  0  0  0  0  0  0
   10.7379  -16.9775   24.2763 N   0  0  0  0  0  0  0  0  0  0  0  0
    9.9803  -17.6194   26.3693 C   0  0  0  0  0  0  0  0  0  0  0  0
    9.7222  -17.4750   27.6148 O   0  0  0  0  0  0  0  0  0  0  0  0
   10.2299  -18.9125   25.9976 O   0  0  0  0  0  0  0  0  0  0  0  0
  2  1  1  6
  2  3  1  0
  4  2  1  0
  4  5  1  1
  6  7  2  0
  6  4  1  0
  8  6  1  0
  9  8  1  0
  9 10  1  6
 11 10  1  0
 12 11  1  0
 13 12  2  0
 14  9  1  0
 15 14  2  0
 16 12  1  0
 18 17  1  0
 19 18  2  0
 20 18  1  0
 21 20  1  0
 22 21  1  0
 23 22  1  0
 24 23  1  6
 24 25  1  0
 25 14  1  0
 26 28  1  0
 26 24  1  0
 27 26  2  0
M  END
$$$$
