VER.pdb
     RDKit          3D

 28 27  0  0  1  0  0  0  0  0999 V2000
    7.1698  -13.7245   21.2752 C   0  0  0  0  0  0  0  0  0  0  0  0
    8.2382  -13.3189   20.3147 C   0  0  2  0  0  0  0  0  0  0  0  0
    7.6105  -12.3521   19.3045 C   0  0  0  0  0  0  0  0  0  0  0  0
    8.7808  -14.5080   19.5290 C   0  0  2  0  0  0  0  0  0  0  0  0
    7.7272  -15.1000   18.7174 N   0  0  0  0  0  0  0  0  0  0  0  0
    9.3483  -15.5406   20.4265 C   0  0  0  0  0  0  0  0  0  0  0  0
    8.6978  -16.5530   20.7717 O   0  0  0  0  0  0  0  0  0  0  0  0
   10.6766  -15.4271   20.9441 N   0  0  0  0  0  0  0  0  0  0  0  0
   11.2827  -16.3839   21.8349 C   0  0  1  0  0  0  0  0  0  0  0  0
   12.7607  -16.4113   21.5950 C   0  0  0  0  0  0  0  0  0  0  0  0
   13.3910  -15.0457   21.6344 C   0  0  0  0  0  0  0  0  0  0  0  0
   14.7050  -15.0508   20.9410 C   0  0  0  0  0  0  0  0  0  0  0  0
   15.7042  -15.4912   21.5607 O   0  0  0  0  0  0  0  0  0  0  0  0
   10.9306  -16.1033   23.2605 C   0  0  0  0  0  0  0  0  0  0  0  0
   10.9359  -14.9244   23.6888 O   0  0  0  0  0  0  0  0  0  0  0  0
   14.8876  -14.5945   19.6438 O   0  0  0  0  0  0  0  0  0  0  0  0
    6.0707  -22.1848   24.3919 N   0  0  0  0  0  0  0  0  0  0  0  0
    5.5657  -21.0204   23.7649 C   0  0  0  0  0  0  0  0  0  0  0  0
    4.4723  -21.0016   23.0858 N   0  0  0  0  0  0  0  0  0  0  0  0
    6.2802  -19.7994   23.8734 N   0  0  0  0  0  0  0  0  0  0  0  0
    7.3431  -19.6127   24.8647 C   0  0  0  0  0  0  0  0  0  0  0  0
    8.0331  -18.3203   24.7025 C   0  0  0  0  0  0  0  0  0  0  0  0
    9.0926  -18.0201   25.6578 C   0  0  0  0  0  0  0  0  0  0  0  0
   10.1000  -16.9559   25.5075 C   0  0  2  0  0  0  0  0  0  0  0  0
   10.6030  -17.1758   24.0813 N   0  0  0  0  0  0  0  0  0  0  0  0
   11.3498  -17.0368   26.2698 C   0  0  0  0  0  0  0  0  0  0  0  0
   12.3763  -17.5888   25.7403 O   0  0  0  0  0  0  0  0  0  0  0  0
   11.5616  -16.5642   27.5364 O   0  0  0  0  0  0  0  0  0  0  0  0
  2  1  1  1
  2  3  1  0
  4  2  1  0
  4  5  1  1
  6  7  2  0
  6  4  1  0
  8  6  1  0
  9  8  1  0
  9 10  1  1
 11 10  1  0
 12 11  1  0
 13 12  2  0
 14  9  1  0
 15 14  2  0
 16 12  1  0
 18 17  1  0
 19 18  2  0
 20 18  1  0
 21 20  1  0
 22 21  1  0
 23 22  1  0
 24 23  1  1
 24 25  1  0
 25 14  1  0
 26 28  1  0
 26 24  1  0
 27 26  2  0
M  END
$$$$
