VER.pdb
     RDKit          3D

 28 27  0  0  1  0  0  0  0  0999 V2000
    7.2872  -14.8295   18.4752 C   0  0  0  0  0  0  0  0  0  0  0  0
    7.8155  -13.6499   19.2220 C   0  0  2  0  0  0  0  0  0  0  0  0
    7.7427  -12.4383   18.2861 C   0  0  0  0  0  0  0  0  0  0  0  0
    9.2774  -13.8321   19.6165 C   0  0  2  0  0  0  0  0  0  0  0  0
   10.0883  -14.1031   18.4383 N   0  0  0  0  0  0  0  0  0  0  0  0
    9.4450  -14.9339   20.5922 C   0  0  0  0  0  0  0  0  0  0  0  0
    8.8732  -14.9296   21.7058 O   0  0  0  0  0  0  0  0  0  0  0  0
   10.2748  -16.0624   20.3039 N   0  0  0  0  0  0  0  0  0  0  0  0
   10.5092  -17.1497   21.2200 C   0  0  1  0  0  0  0  0  0  0  0  0
   11.5831  -18.0353   20.6673 C   0  0  0  0  0  0  0  0  0  0  0  0
   11.8023  -19.2789   21.4853 C   0  0  0  0  0  0  0  0  0  0  0  0
   12.8981  -20.1018   20.9111 C   0  0  0  0  0  0  0  0  0  0  0  0
   13.7454  -20.5964   21.6945 O   0  0  0  0  0  0  0  0  0  0  0  0
   10.8187  -16.6497   22.5945 C   0  0  0  0  0  0  0  0  0  0  0  0
   11.8563  -15.9755   22.7991 O   0  0  0  0  0  0  0  0  0  0  0  0
   13.0356  -20.3533   19.5538 O   0  0  0  0  0  0  0  0  0  0  0  0
    4.8829  -12.0648   26.0956 N   0  0  0  0  0  0  0  0  0  0  0  0
    5.9003  -11.9372   27.0716 C   0  0  0  0  0  0  0  0  0  0  0  0
    5.8832  -11.0421   27.9967 N   0  0  0  0  0  0  0  0  0  0  0  0
    7.0059  -12.8261   27.0528 N   0  0  0  0  0  0  0  0  0  0  0  0
    7.2876  -13.6829   25.8978 C   0  0  0  0  0  0  0  0  0  0  0  0
    8.4972  -14.5018   26.0955 C   0  0  0  0  0  0  0  0  0  0  0  0
    8.8492  -15.4193   25.0187 C   0  0  0  0  0  0  0  0  0  0  0  0
   10.0443  -16.2800   24.9881 C   0  0  2  0  0  0  0  0  0  0  0  0
    9.9320  -16.9530   23.6207 N   0  0  0  0  0  0  0  0  0  0  0  0
   10.1147  -17.4434   25.8774 C   0  0  0  0  0  0  0  0  0  0  0  0
   10.4406  -17.2798   27.1046 O   0  0  0  0  0  0  0  0  0  0  0  0
    9.8546  -18.7432   25.5379 O   0  0  0  0  0  0  0  0  0  0  0  0
  2  1  1  6
  2  3  1  0
  4  2  1  0
  4  5  1  6
  6  7  2  0
  6  4  1  0
  8  6  1  0
  9  8  1  0
  9 10  1  6
 11 10  1  0
 12 11  1  0
 13 12  2  0
 14  9  1  0
 15 14  2  0
 16 12  1  0
 18 17  1  0
 19 18  2  0
 20 18  1  0
 21 20  1  0
 22 21  1  0
 23 22  1  0
 24 23  1  1
 24 25  1  0
 25 14  1  0
 26 28  1  0
 26 24  1  0
 27 26  2  0
M  END
$$$$
