VER.pdb
     RDKit          3D

 28 27  0  0  1  0  0  0  0  0999 V2000
   11.5094  -18.7152   19.7659 C   0  0  0  0  0  0  0  0  0  0  0  0
   10.3093  -19.0661   20.5815 C   0  0  2  0  0  0  0  0  0  0  0  0
    9.3459  -19.8434   19.6779 C   0  0  0  0  0  0  0  0  0  0  0  0
    9.5705  -17.8256   21.0729 C   0  0  2  0  0  0  0  0  0  0  0  0
    9.0988  -17.0382   19.9429 N   0  0  0  0  0  0  0  0  0  0  0  0
   10.4332  -16.9828   21.9328 C   0  0  0  0  0  0  0  0  0  0  0  0
   11.1582  -16.0765   21.4639 O   0  0  0  0  0  0  0  0  0  0  0  0
   10.4774  -17.1678   23.3503 N   0  0  0  0  0  0  0  0  0  0  0  0
   11.3655  -16.4541   24.2323 C   0  0  1  0  0  0  0  0  0  0  0  0
   10.9123  -16.6457   25.6468 C   0  0  0  0  0  0  0  0  0  0  0  0
   11.8552  -16.0476   26.6553 C   0  0  0  0  0  0  0  0  0  0  0  0
   11.3192  -16.1983   28.0329 C   0  0  0  0  0  0  0  0  0  0  0  0
   10.2678  -16.8652   28.1938 O   0  0  0  0  0  0  0  0  0  0  0  0
   12.7891  -16.8574   24.0187 C   0  0  0  0  0  0  0  0  0  0  0  0
   13.1016  -18.0719   23.9962 O   0  0  0  0  0  0  0  0  0  0  0  0
   11.9190  -15.6408   29.1526 O   0  0  0  0  0  0  0  0  0  0  0  0
   19.0169  -12.7568   21.0677 N   0  0  0  0  0  0  0  0  0  0  0  0
   18.9107  -13.6440   19.9698 C   0  0  0  0  0  0  0  0  0  0  0  0
   19.8691  -13.8541   19.1363 N   0  0  0  0  0  0  0  0  0  0  0  0
   17.6991  -14.3497   19.7527 N   0  0  0  0  0  0  0  0  0  0  0  0
   16.5624  -14.2315   20.6700 C   0  0  0  0  0  0  0  0  0  0  0  0
   16.7979  -14.9409   21.9405 C   0  0  0  0  0  0  0  0  0  0  0  0
   15.6839  -14.9875   22.8797 C   0  0  0  0  0  0  0  0  0  0  0  0
   15.2034  -16.1949   23.5736 C   0  0  2  0  0  0  0  0  0  0  0  0
   13.7387  -15.8570   23.8491 N   0  0  0  0  0  0  0  0  0  0  0  0
   15.6907  -16.4890   24.9247 C   0  0  0  0  0  0  0  0  0  0  0  0
   15.0181  -16.0895   25.9381 O   0  0  0  0  0  0  0  0  0  0  0  0
   16.8284  -17.1779   25.2467 O   0  0  0  0  0  0  0  0  0  0  0  0
  2  1  1  6
  2  3  1  0
  4  2  1  0
  4  5  1  6
  6  7  2  0
  6  4  1  0
  8  6  1  0
  9  8  1  0
  9 10  1  1
 11 10  1  0
 12 11  1  0
 13 12  2  0
 14  9  1  0
 15 14  2  0
 16 12  1  0
 18 17  1  0
 19 18  2  0
 20 18  1  0
 21 20  1  0
 22 21  1  0
 23 22  1  0
 24 23  1  1
 24 25  1  0
 25 14  1  0
 26 28  1  0
 26 24  1  0
 27 26  2  0
M  END
$$$$
