VER.pdb
     RDKit          3D

 28 27  0  0  1  0  0  0  0  0999 V2000
    7.3275  -12.6102   18.8787 C   0  0  0  0  0  0  0  0  0  0  0  0
    7.7865  -13.6255   19.8723 C   0  0  2  0  0  0  0  0  0  0  0  0
    8.9491  -13.0109   20.6595 C   0  0  0  0  0  0  0  0  0  0  0  0
    8.3120  -14.8880   19.1971 C   0  0  2  0  0  0  0  0  0  0  0  0
    7.2614  -15.5117   18.4055 N   0  0  0  0  0  0  0  0  0  0  0  0
    8.8247  -15.8624   20.1878 C   0  0  0  0  0  0  0  0  0  0  0  0
    8.0605  -16.5615   20.8909 O   0  0  0  0  0  0  0  0  0  0  0  0
   10.2282  -16.0504   20.3881 N   0  0  0  0  0  0  0  0  0  0  0  0
   10.7935  -16.9567   21.3552 C   0  0  1  0  0  0  0  0  0  0  0  0
   12.1624  -17.3647   20.9052 C   0  0  0  0  0  0  0  0  0  0  0  0
   12.8147  -18.3600   21.8259 C   0  0  0  0  0  0  0  0  0  0  0  0
   14.1008  -18.8403   21.2577 C   0  0  0  0  0  0  0  0  0  0  0  0
   14.7783  -19.6597   21.9253 O   0  0  0  0  0  0  0  0  0  0  0  0
   10.7854  -16.3658   22.7285 C   0  0  0  0  0  0  0  0  0  0  0  0
   11.3935  -15.2924   22.9543 O   0  0  0  0  0  0  0  0  0  0  0  0
   14.5940  -18.4313   20.0273 O   0  0  0  0  0  0  0  0  0  0  0  0
    4.8851  -12.4191   26.3363 N   0  0  0  0  0  0  0  0  0  0  0  0
    6.2260  -12.1863   26.7260 C   0  0  0  0  0  0  0  0  0  0  0  0
    6.6373  -11.0651   27.2064 N   0  0  0  0  0  0  0  0  0  0  0  0
    7.1858  -13.2224   26.5907 N   0  0  0  0  0  0  0  0  0  0  0  0
    6.8937  -14.4530   25.8505 C   0  0  0  0  0  0  0  0  0  0  0  0
    8.0293  -14.8803   25.0134 C   0  0  0  0  0  0  0  0  0  0  0  0
    8.6386  -16.1631   25.3430 C   0  0  0  0  0  0  0  0  0  0  0  0
   10.0602  -16.5036   25.1618 C   0  0  2  0  0  0  0  0  0  0  0  0
   10.0928  -17.0360   23.7297 N   0  0  0  0  0  0  0  0  0  0  0  0
   10.6284  -17.6340   25.9028 C   0  0  0  0  0  0  0  0  0  0  0  0
   10.5437  -18.8142   25.4141 O   0  0  0  0  0  0  0  0  0  0  0  0
   11.2748  -17.5740   27.1073 O   0  0  0  0  0  0  0  0  0  0  0  0
  2  1  1  6
  2  3  1  0
  4  2  1  0
  4  5  1  1
  6  7  2  0
  6  4  1  0
  8  6  1  0
  9  8  1  0
  9 10  1  6
 11 10  1  0
 12 11  1  0
 13 12  2  0
 14  9  1  0
 15 14  2  0
 16 12  1  0
 18 17  1  0
 19 18  2  0
 20 18  1  0
 21 20  1  0
 22 21  1  0
 23 22  1  0
 24 23  1  1
 24 25  1  0
 25 14  1  0
 26 28  1  0
 26 24  1  0
 27 26  2  0
M  END
$$$$
