PVF.pdb
     RDKit          3D

 26 27  0  0  1  0  0  0  0  0999 V2000
   29.6554  -30.1580  -20.3807 N   0  0  0  0  0  0  0  0  0  0  0  0
   29.7608  -29.1868  -21.4306 C   0  0  0  0  0  0  0  0  0  0  0  0
   28.7392  -28.1060  -21.1543 C   0  0  0  0  0  0  0  0  0  0  0  0
   27.7464  -28.8729  -20.2709 C   0  0  0  0  0  0  0  0  0  0  0  0
   28.7000  -29.6807  -19.4188 C   0  0  1  0  0  0  0  0  0  0  0  0
   27.9991  -30.8164  -18.7309 C   0  0  0  0  0  0  0  0  0  0  0  0
   27.7875  -31.8118  -19.4438 O   0  0  0  0  0  0  0  0  0  0  0  0
   26.9333  -33.0705  -14.4583 C   0  0  0  0  0  0  0  0  0  0  0  0
   27.6231  -31.9798  -15.2756 C   0  0  1  0  0  0  0  0  0  0  0  0
   28.9780  -32.6491  -15.6301 C   0  0  0  0  0  0  0  0  0  0  0  0
   26.9398  -31.7526  -16.5891 C   0  0  2  0  0  0  0  0  0  0  0  0
   27.6159  -30.7623  -17.4021 N   0  0  0  0  0  0  0  0  0  0  0  0
   25.5197  -31.4930  -16.5988 C   0  0  0  0  0  0  0  0  0  0  0  0
   25.1245  -30.2846  -16.8798 O   0  0  0  0  0  0  0  0  0  0  0  0
   24.4955  -32.4314  -16.3379 N   0  0  0  0  0  0  0  0  0  0  0  0
   23.0828  -32.0798  -16.4288 C   0  0  1  0  0  0  0  0  0  0  0  0
   22.8775  -31.6281  -17.8634 C   0  0  0  0  0  0  0  0  0  0  0  0
   21.4915  -31.3056  -18.2020 C   0  0  0  0  0  0  0  0  0  0  0  0
   20.9271  -30.0700  -17.9753 C   0  0  0  0  0  0  0  0  0  0  0  0
   19.6032  -29.7962  -18.3143 C   0  0  0  0  0  0  0  0  0  0  0  0
   18.8093  -30.7670  -18.8941 C   0  0  0  0  0  0  0  0  0  0  0  0
   19.3700  -32.0044  -19.1224 C   0  0  0  0  0  0  0  0  0  0  0  0
   20.6883  -32.2762  -18.7846 C   0  0  0  0  0  0  0  0  0  0  0  0
   22.2883  -33.2761  -16.0918 C   0  0  0  0  0  0  0  0  0  0  0  0
   22.8259  -34.5219  -15.9212 O   0  0  0  0  0  0  0  0  0  0  0  0
   21.0361  -33.1105  -15.9590 O   0  0  0  0  0  0  0  0  0  0  0  0
  1  2  1  0
  3  2  1  0
  4  5  1  0
  4  3  1  0
  5  6  1  6
  5  1  1  0
  6  7  2  0
  9  8  1  1
  9 10  1  0
  9 11  1  0
 11 12  1  1
 12  6  1  0
 13 11  1  0
 14 13  2  0
 15 13  1  0
 16 15  1  0
 16 24  1  0
 16 17  1  6
 18 17  1  0
 19 18  2  0
 20 19  1  0
 21 22  1  0
 21 20  2  0
 22 23  2  0
 23 18  1  0
 24 25  1  0
 26 24  2  0
M  END
$$$$
