PVF.pdb
     RDKit          3D

 26 27  0  0  1  0  0  0  0  0999 V2000
   23.2652  -12.9958  -16.1428 N   0  0  0  0  0  0  0  0  0  0  0  0
   24.2872  -14.0017  -16.1593 C   0  0  0  0  0  0  0  0  0  0  0  0
   25.5910  -13.3311  -15.7867 C   0  0  0  0  0  0  0  0  0  0  0  0
   25.2785  -11.8759  -16.1597 C   0  0  0  0  0  0  0  0  0  0  0  0
   23.8486  -11.7672  -15.6782 C   0  0  1  0  0  0  0  0  0  0  0  0
   23.1566  -10.5728  -16.2687 C   0  0  0  0  0  0  0  0  0  0  0  0
   23.4997  -10.2872  -17.4282 O   0  0  0  0  0  0  0  0  0  0  0  0
   20.3060  -10.3276  -17.6202 C   0  0  0  0  0  0  0  0  0  0  0  0
   20.0949   -9.1835  -16.6302 C   0  0  1  0  0  0  0  0  0  0  0  0
   19.3204   -9.8867  -15.4834 C   0  0  0  0  0  0  0  0  0  0  0  0
   21.3851   -8.7332  -16.0166 C   0  0  2  0  0  0  0  0  0  0  0  0
   22.2067   -9.8422  -15.5763 N   0  0  0  0  0  0  0  0  0  0  0  0
   21.3501   -7.7230  -14.9858 C   0  0  0  0  0  0  0  0  0  0  0  0
   21.1945   -8.1163  -13.7544 O   0  0  0  0  0  0  0  0  0  0  0  0
   21.4766   -6.3282  -15.1761 N   0  0  0  0  0  0  0  0  0  0  0  0
   21.4360   -5.3886  -14.0613 C   0  0  1  0  0  0  0  0  0  0  0  0
   22.8834   -5.0047  -13.8125 C   0  0  0  0  0  0  0  0  0  0  0  0
   23.5882   -4.5100  -14.9949 C   0  0  0  0  0  0  0  0  0  0  0  0
   23.5051   -3.2070  -15.4328 C   0  0  0  0  0  0  0  0  0  0  0  0
   24.1940   -2.7685  -16.5625 C   0  0  0  0  0  0  0  0  0  0  0  0
   24.9891   -3.6379  -17.2840 C   0  0  0  0  0  0  0  0  0  0  0  0
   25.0749   -4.9423  -16.8493 C   0  0  0  0  0  0  0  0  0  0  0  0
   24.3888   -5.3780  -15.7245 C   0  0  0  0  0  0  0  0  0  0  0  0
   20.6045   -4.2374  -14.4598 C   0  0  0  0  0  0  0  0  0  0  0  0
   20.0348   -4.1033  -15.6959 O   0  0  0  0  0  0  0  0  0  0  0  0
   20.4244   -3.3338  -13.5856 O   0  0  0  0  0  0  0  0  0  0  0  0
  1  2  1  0
  3  2  1  0
  4  5  1  0
  4  3  1  0
  5  6  1  6
  5  1  1  0
  6  7  2  0
  9  8  1  6
  9 10  1  0
  9 11  1  0
 11 12  1  1
 12  6  1  0
 13 11  1  0
 14 13  2  0
 15 13  1  0
 16 15  1  0
 16 24  1  0
 16 17  1  6
 18 17  1  0
 19 18  2  0
 20 19  1  0
 21 22  1  0
 21 20  2  0
 22 23  2  0
 23 18  1  0
 24 25  1  0
 26 24  2  0
M  END
$$$$
