PVF.pdb
     RDKit          3D

 26 27  0  0  1  0  0  0  0  0999 V2000
   29.9535  -24.2176  -17.2550 N   0  0  0  0  0  0  0  0  0  0  0  0
   29.9953  -25.6263  -17.5208 C   0  0  0  0  0  0  0  0  0  0  0  0
   28.5685  -26.1285  -17.5358 C   0  0  0  0  0  0  0  0  0  0  0  0
   27.8776  -25.0460  -16.6961 C   0  0  0  0  0  0  0  0  0  0  0  0
   28.5767  -23.8074  -17.2110 C   0  0  1  0  0  0  0  0  0  0  0  0
   28.3811  -22.6392  -16.2883 C   0  0  0  0  0  0  0  0  0  0  0  0
   29.0633  -22.6698  -15.2503 O   0  0  0  0  0  0  0  0  0  0  0  0
   27.1507  -17.9565  -15.5553 C   0  0  0  0  0  0  0  0  0  0  0  0
   27.4670  -19.1567  -16.4458 C   0  0  1  0  0  0  0  0  0  0  0  0
   29.0169  -19.1092  -16.5144 C   0  0  0  0  0  0  0  0  0  0  0  0
   27.1416  -20.4529  -15.7691 C   0  0  2  0  0  0  0  0  0  0  0  0
   27.5070  -21.6036  -16.5698 N   0  0  0  0  0  0  0  0  0  0  0  0
   25.8152  -20.6435  -15.2321 C   0  0  0  0  0  0  0  0  0  0  0  0
   24.8375  -20.8162  -16.0745 O   0  0  0  0  0  0  0  0  0  0  0  0
   25.4619  -20.6702  -13.8639 N   0  0  0  0  0  0  0  0  0  0  0  0
   24.0787  -20.8160  -13.4248 C   0  0  1  0  0  0  0  0  0  0  0  0
   24.1617  -21.0861  -11.9333 C   0  0  0  0  0  0  0  0  0  0  0  0
   22.8715  -21.0707  -11.2446 C   0  0  0  0  0  0  0  0  0  0  0  0
   22.5101  -20.0967  -10.3406 C   0  0  0  0  0  0  0  0  0  0  0  0
   21.2696  -20.1111   -9.7051 C   0  0  0  0  0  0  0  0  0  0  0  0
   20.3561  -21.1141   -9.9662 C   0  0  0  0  0  0  0  0  0  0  0  0
   20.7138  -22.0905  -10.8698 C   0  0  0  0  0  0  0  0  0  0  0  0
   21.9489  -22.0754  -11.5021 C   0  0  0  0  0  0  0  0  0  0  0  0
   23.3630  -19.5642  -13.7354 C   0  0  0  0  0  0  0  0  0  0  0  0
   22.0675  -19.5176  -14.1711 O   0  0  0  0  0  0  0  0  0  0  0  0
   24.0112  -18.4830  -13.5808 O   0  0  0  0  0  0  0  0  0  0  0  0
  1  2  1  0
  3  2  1  0
  4  5  1  0
  4  3  1  0
  5  6  1  1
  5  1  1  0
  6  7  2  0
  9  8  1  1
  9 10  1  0
  9 11  1  0
 11 12  1  6
 12  6  1  0
 13 11  1  0
 14 13  2  0
 15 13  1  0
 16 15  1  0
 16 24  1  0
 16 17  1  1
 18 17  1  0
 19 18  2  0
 20 19  1  0
 21 22  1  0
 21 20  2  0
 22 23  2  0
 23 18  1  0
 24 25  1  0
 26 24  2  0
M  END
$$$$
