PVF.pdb
     RDKit          3D

 26 27  0  0  1  0  0  0  0  0999 V2000
   28.0647  -19.3974  -15.4163 N   0  0  0  0  0  0  0  0  0  0  0  0
   28.3344  -18.9375  -16.7476 C   0  0  0  0  0  0  0  0  0  0  0  0
   28.2434  -17.4276  -16.7340 C   0  0  0  0  0  0  0  0  0  0  0  0
   27.3533  -17.2079  -15.5036 C   0  0  0  0  0  0  0  0  0  0  0  0
   27.9177  -18.2499  -14.5635 C   0  0  1  0  0  0  0  0  0  0  0  0
   26.9817  -18.5294  -13.4233 C   0  0  0  0  0  0  0  0  0  0  0  0
   26.5364  -17.5210  -12.8502 O   0  0  0  0  0  0  0  0  0  0  0  0
   23.7174  -21.6883  -11.4839 C   0  0  0  0  0  0  0  0  0  0  0  0
   24.7409  -21.2831  -12.5431 C   0  0  1  0  0  0  0  0  0  0  0  0
   23.8587  -20.5287  -13.5736 C   0  0  0  0  0  0  0  0  0  0  0  0
   25.7036  -20.2597  -12.0239 C   0  0  2  0  0  0  0  0  0  0  0  0
   26.6383  -19.8132  -13.0367 N   0  0  0  0  0  0  0  0  0  0  0  0
   26.4177  -20.5343  -10.7996 C   0  0  0  0  0  0  0  0  0  0  0  0
   27.4417  -21.3361  -10.8599 O   0  0  0  0  0  0  0  0  0  0  0  0
   26.1207  -20.0088   -9.5215 N   0  0  0  0  0  0  0  0  0  0  0  0
   26.7769  -20.4960   -8.3134 C   0  0  1  0  0  0  0  0  0  0  0  0
   27.5590  -19.3092   -7.7802 C   0  0  0  0  0  0  0  0  0  0  0  0
   28.1525  -19.5215   -6.4603 C   0  0  0  0  0  0  0  0  0  0  0  0
   27.5682  -19.0870   -5.2913 C   0  0  0  0  0  0  0  0  0  0  0  0
   28.1603  -19.3103   -4.0494 C   0  0  0  0  0  0  0  0  0  0  0  0
   29.3641  -19.9813   -3.9535 C   0  0  0  0  0  0  0  0  0  0  0  0
   29.9520  -20.4176   -5.1205 C   0  0  0  0  0  0  0  0  0  0  0  0
   29.3618  -20.1949   -6.3566 C   0  0  0  0  0  0  0  0  0  0  0  0
   25.7341  -20.9549   -7.3766 C   0  0  0  0  0  0  0  0  0  0  0  0
   25.9684  -21.8187   -6.3425 O   0  0  0  0  0  0  0  0  0  0  0  0
   24.5607  -20.5068   -7.5649 O   0  0  0  0  0  0  0  0  0  0  0  0
  1  2  1  0
  3  2  1  0
  4  5  1  0
  4  3  1  0
  5  6  1  1
  5  1  1  0
  6  7  2  0
  9  8  1  1
  9 10  1  0
  9 11  1  0
 11 12  1  6
 12  6  1  0
 13 11  1  0
 14 13  2  0
 15 13  1  0
 16 15  1  0
 16 24  1  0
 16 17  1  1
 18 17  1  0
 19 18  2  0
 20 19  1  0
 21 22  1  0
 21 20  2  0
 22 23  2  0
 23 18  1  0
 24 25  1  0
 26 24  2  0
M  END
$$$$
