PVF.pdb
     RDKit          3D

 26 27  0  0  1  0  0  0  0  0999 V2000
   20.2644  -13.5309  -19.3421 N   0  0  0  0  0  0  0  0  0  0  0  0
   20.4932  -14.7890  -19.9913 C   0  0  0  0  0  0  0  0  0  0  0  0
   21.6617  -14.6078  -20.9348 C   0  0  0  0  0  0  0  0  0  0  0  0
   21.6158  -13.0900  -21.1551 C   0  0  0  0  0  0  0  0  0  0  0  0
   21.2932  -12.6162  -19.7553 C   0  0  1  0  0  0  0  0  0  0  0  0
   20.8005  -11.1979  -19.7523 C   0  0  0  0  0  0  0  0  0  0  0  0
   21.6649  -10.3413  -20.0028 O   0  0  0  0  0  0  0  0  0  0  0  0
   16.8479   -8.2023  -20.1449 C   0  0  0  0  0  0  0  0  0  0  0  0
   17.5241   -9.5713  -20.1927 C   0  0  1  0  0  0  0  0  0  0  0  0
   17.8831   -9.7025  -21.6971 C   0  0  0  0  0  0  0  0  0  0  0  0
   18.8375   -9.5688  -19.4725 C   0  0  2  0  0  0  0  0  0  0  0  0
   19.4826  -10.8658  -19.4907 N   0  0  0  0  0  0  0  0  0  0  0  0
   18.8982   -9.0213  -18.1381 C   0  0  0  0  0  0  0  0  0  0  0  0
   18.8749   -9.8544  -17.1377 O   0  0  0  0  0  0  0  0  0  0  0  0
   18.9890   -7.6524  -17.7982 N   0  0  0  0  0  0  0  0  0  0  0  0
   19.1035   -7.2048  -16.4147 C   0  0  1  0  0  0  0  0  0  0  0  0
   20.4868   -7.6428  -15.9688 C   0  0  0  0  0  0  0  0  0  0  0  0
   21.3637   -6.5465  -15.5582 C   0  0  0  0  0  0  0  0  0  0  0  0
   21.3825   -6.0332  -14.2804 C   0  0  0  0  0  0  0  0  0  0  0  0
   22.2346   -4.9897  -13.9226 C   0  0  0  0  0  0  0  0  0  0  0  0
   23.0948   -4.4336  -14.8497 C   0  0  0  0  0  0  0  0  0  0  0  0
   23.0791   -4.9441  -16.1291 C   0  0  0  0  0  0  0  0  0  0  0  0
   22.2305   -5.9830  -16.4844 C   0  0  0  0  0  0  0  0  0  0  0  0
   18.9373   -5.7394  -16.3900 C   0  0  0  0  0  0  0  0  0  0  0  0
   18.5944   -5.0324  -15.2706 O   0  0  0  0  0  0  0  0  0  0  0  0
   19.1291   -5.1249  -17.4848 O   0  0  0  0  0  0  0  0  0  0  0  0
  1  2  1  0
  3  2  1  0
  4  5  1  0
  4  3  1  0
  5  6  1  6
  5  1  1  0
  6  7  2  0
  9  8  1  6
  9 10  1  0
  9 11  1  0
 11 12  1  1
 12  6  1  0
 13 11  1  0
 14 13  2  0
 15 13  1  0
 16 15  1  0
 16 24  1  0
 16 17  1  6
 18 17  1  0
 19 18  2  0
 20 19  1  0
 21 22  1  0
 21 20  2  0
 22 23  2  0
 23 18  1  0
 24 25  1  0
 26 24  2  0
M  END
$$$$
