PVF.pdb
     RDKit          3D

 26 27  0  0  1  0  0  0  0  0999 V2000
   25.7379  -14.7388  -15.0811 N   0  0  0  0  0  0  0  0  0  0  0  0
   25.8743  -13.4860  -15.7655 C   0  0  0  0  0  0  0  0  0  0  0  0
   24.8281  -13.4483  -16.8575 C   0  0  0  0  0  0  0  0  0  0  0  0
   24.5721  -14.9479  -17.0572 C   0  0  0  0  0  0  0  0  0  0  0  0
   24.5985  -15.4272  -15.6228 C   0  0  1  0  0  0  0  0  0  0  0  0
   24.7671  -16.9169  -15.5415 C   0  0  0  0  0  0  0  0  0  0  0  0
   23.7939  -17.5781  -15.9407 O   0  0  0  0  0  0  0  0  0  0  0  0
   26.8140  -18.8503  -17.3710 C   0  0  0  0  0  0  0  0  0  0  0  0
   27.2048  -19.3784  -15.9919 C   0  0  1  0  0  0  0  0  0  0  0  0
   28.5288  -18.6163  -15.7169 C   0  0  0  0  0  0  0  0  0  0  0  0
   26.2555  -18.9159  -14.9294 C   0  0  2  0  0  0  0  0  0  0  0  0
   25.9193  -17.5127  -15.0586 N   0  0  0  0  0  0  0  0  0  0  0  0
   26.5584  -19.2117  -13.5492 C   0  0  0  0  0  0  0  0  0  0  0  0
   27.1206  -18.2781  -12.8367 O   0  0  0  0  0  0  0  0  0  0  0  0
   26.2974  -20.4272  -12.8769 N   0  0  0  0  0  0  0  0  0  0  0  0
   26.6940  -20.6449  -11.4902 C   0  0  1  0  0  0  0  0  0  0  0  0
   25.8812  -19.6483  -10.6836 C   0  0  0  0  0  0  0  0  0  0  0  0
   26.0672  -19.7490   -9.2363 C   0  0  0  0  0  0  0  0  0  0  0  0
   25.4072  -20.6694   -8.4529 C   0  0  0  0  0  0  0  0  0  0  0  0
   25.6116  -20.7400   -7.0759 C   0  0  0  0  0  0  0  0  0  0  0  0
   26.4920  -19.8790   -6.4496 C   0  0  0  0  0  0  0  0  0  0  0  0
   27.1542  -18.9566   -7.2297 C   0  0  0  0  0  0  0  0  0  0  0  0
   26.9501  -18.8871   -8.6005 C   0  0  0  0  0  0  0  0  0  0  0  0
   26.3870  -22.0439  -11.1381 C   0  0  0  0  0  0  0  0  0  0  0  0
   27.0847  -22.7640  -10.2080 O   0  0  0  0  0  0  0  0  0  0  0  0
   25.4145  -22.5859  -11.7493 O   0  0  0  0  0  0  0  0  0  0  0  0
  1  2  1  0
  3  2  1  0
  4  5  1  0
  4  3  1  0
  5  6  1  6
  5  1  1  0
  6  7  2  0
  9  8  1  6
  9 10  1  0
  9 11  1  0
 11 12  1  1
 12  6  1  0
 13 11  1  0
 14 13  2  0
 15 13  1  0
 16 15  1  0
 16 24  1  0
 16 17  1  1
 18 17  1  0
 19 18  2  0
 20 19  1  0
 21 22  1  0
 21 20  2  0
 22 23  2  0
 23 18  1  0
 24 25  1  0
 26 24  2  0
M  END
$$$$
