PVF.pdb
     RDKit          3D

 26 27  0  0  1  0  0  0  0  0999 V2000
   20.5181  -13.0288  -19.2195 N   0  0  0  0  0  0  0  0  0  0  0  0
   20.3521  -14.2852  -19.8907 C   0  0  0  0  0  0  0  0  0  0  0  0
   19.2439  -15.0348  -19.1848 C   0  0  0  0  0  0  0  0  0  0  0  0
   19.2789  -14.3614  -17.8065 C   0  0  0  0  0  0  0  0  0  0  0  0
   19.5032  -12.9203  -18.2076 C   0  0  1  0  0  0  0  0  0  0  0  0
   19.9714  -12.0907  -17.0470 C   0  0  0  0  0  0  0  0  0  0  0  0
   19.1415  -11.9506  -16.1331 O   0  0  0  0  0  0  0  0  0  0  0  0
   23.8157  -10.3469  -14.4645 C   0  0  0  0  0  0  0  0  0  0  0  0
   23.2064  -11.1919  -15.5818 C   0  0  1  0  0  0  0  0  0  0  0  0
   22.9706  -12.5501  -14.8683 C   0  0  0  0  0  0  0  0  0  0  0  0
   21.8425  -10.7063  -15.9661 C   0  0  2  0  0  0  0  0  0  0  0  0
   21.2326  -11.5230  -16.9956 N   0  0  0  0  0  0  0  0  0  0  0  0
   21.6675   -9.3113  -16.2939 C   0  0  0  0  0  0  0  0  0  0  0  0
   22.0002   -8.9217  -17.4909 O   0  0  0  0  0  0  0  0  0  0  0  0
   21.1570   -8.3082  -15.4389 N   0  0  0  0  0  0  0  0  0  0  0  0
   20.8851   -6.9549  -15.9102 C   0  0  1  0  0  0  0  0  0  0  0  0
   19.8068   -7.1116  -16.9671 C   0  0  0  0  0  0  0  0  0  0  0  0
   19.3301   -5.8505  -17.5344 C   0  0  0  0  0  0  0  0  0  0  0  0
   20.1668   -4.8081  -17.8659 C   0  0  0  0  0  0  0  0  0  0  0  0
   19.6782   -3.6209  -18.4088 C   0  0  0  0  0  0  0  0  0  0  0  0
   18.3253   -3.4531  -18.6326 C   0  0  0  0  0  0  0  0  0  0  0  0
   17.4849   -4.4934  -18.3022 C   0  0  0  0  0  0  0  0  0  0  0  0
   17.9721   -5.6751  -17.7618 C   0  0  0  0  0  0  0  0  0  0  0  0
   20.4380   -6.1480  -14.7592 C   0  0  0  0  0  0  0  0  0  0  0  0
   20.5632   -4.7879  -14.6904 O   0  0  0  0  0  0  0  0  0  0  0  0
   19.9109   -6.7784  -13.7909 O   0  0  0  0  0  0  0  0  0  0  0  0
  1  2  1  0
  3  2  1  0
  4  5  1  0
  4  3  1  0
  5  6  1  1
  5  1  1  0
  6  7  2  0
  9  8  1  1
  9 10  1  0
  9 11  1  0
 11 12  1  6
 12  6  1  0
 13 11  1  0
 14 13  2  0
 15 13  1  0
 16 15  1  0
 16 24  1  0
 16 17  1  6
 18 17  1  0
 19 18  2  0
 20 19  1  0
 21 22  1  0
 21 20  2  0
 22 23  2  0
 23 18  1  0
 24 25  1  0
 26 24  2  0
M  END
$$$$
