PVF.pdb
     RDKit          3D

 26 27  0  0  1  0  0  0  0  0999 V2000
   27.8940  -21.8728  -15.3223 N   0  0  0  0  0  0  0  0  0  0  0  0
   28.0355  -22.0853  -16.7335 C   0  0  0  0  0  0  0  0  0  0  0  0
   28.2752  -20.7362  -17.3745 C   0  0  0  0  0  0  0  0  0  0  0  0
   27.6663  -19.8069  -16.3162 C   0  0  0  0  0  0  0  0  0  0  0  0
   28.1387  -20.4833  -15.0484 C   0  0  1  0  0  0  0  0  0  0  0  0
   27.3635  -20.0148  -13.8509 C   0  0  0  0  0  0  0  0  0  0  0  0
   27.5064  -18.8130  -13.5702 O   0  0  0  0  0  0  0  0  0  0  0  0
   23.2285  -20.3892  -11.3223 C   0  0  0  0  0  0  0  0  0  0  0  0
   24.1997  -20.8236  -12.4186 C   0  0  1  0  0  0  0  0  0  0  0  0
   23.8757  -19.8172  -13.5551 C   0  0  0  0  0  0  0  0  0  0  0  0
   25.6232  -20.5485  -12.0420 C   0  0  2  0  0  0  0  0  0  0  0  0
   26.5495  -20.8561  -13.1126 N   0  0  0  0  0  0  0  0  0  0  0  0
   26.1301  -21.0830  -10.8005 C   0  0  0  0  0  0  0  0  0  0  0  0
   26.4861  -22.3352  -10.7782 O   0  0  0  0  0  0  0  0  0  0  0  0
   26.2899  -20.3751   -9.5876 N   0  0  0  0  0  0  0  0  0  0  0  0
   26.8017  -21.0142   -8.3806 C   0  0  1  0  0  0  0  0  0  0  0  0
   28.1355  -20.3416   -8.1101 C   0  0  0  0  0  0  0  0  0  0  0  0
   28.3750  -20.0204   -6.7033 C   0  0  0  0  0  0  0  0  0  0  0  0
   27.9302  -18.8612   -6.1076 C   0  0  0  0  0  0  0  0  0  0  0  0
   28.1733  -18.5891   -4.7623 C   0  0  0  0  0  0  0  0  0  0  0  0
   28.8754  -19.4842   -3.9784 C   0  0  0  0  0  0  0  0  0  0  0  0
   29.3223  -20.6450   -4.5706 C   0  0  0  0  0  0  0  0  0  0  0  0
   29.0798  -20.9151   -5.9099 C   0  0  0  0  0  0  0  0  0  0  0  0
   25.8265  -20.7964   -7.2957 C   0  0  0  0  0  0  0  0  0  0  0  0
   25.7931  -21.5339   -6.1445 O   0  0  0  0  0  0  0  0  0  0  0  0
   24.9809  -19.8644   -7.4673 O   0  0  0  0  0  0  0  0  0  0  0  0
  1  2  1  0
  3  2  1  0
  4  5  1  0
  4  3  1  0
  5  6  1  1
  5  1  1  0
  6  7  2  0
  9  8  1  1
  9 10  1  0
  9 11  1  0
 11 12  1  6
 12  6  1  0
 13 11  1  0
 14 13  2  0
 15 13  1  0
 16 15  1  0
 16 24  1  0
 16 17  1  1
 18 17  1  0
 19 18  2  0
 20 19  1  0
 21 22  1  0
 21 20  2  0
 22 23  2  0
 23 18  1  0
 24 25  1  0
 26 24  2  0
M  END
$$$$
