PVF.pdb
     RDKit          3D

 26 27  0  0  1  0  0  0  0  0999 V2000
   32.6796  -22.0418  -12.3654 N   0  0  0  0  0  0  0  0  0  0  0  0
   33.8245  -22.6899  -11.7944 C   0  0  0  0  0  0  0  0  0  0  0  0
   33.3742  -23.3674  -10.5191 C   0  0  0  0  0  0  0  0  0  0  0  0
   32.1222  -22.5448  -10.1874 C   0  0  0  0  0  0  0  0  0  0  0  0
   31.5300  -22.3719  -11.5685 C   0  0  1  0  0  0  0  0  0  0  0  0
   30.5079  -21.2724  -11.5972 C   0  0  0  0  0  0  0  0  0  0  0  0
   30.9708  -20.1227  -11.5101 O   0  0  0  0  0  0  0  0  0  0  0  0
   26.3176  -19.2548  -12.8533 C   0  0  0  0  0  0  0  0  0  0  0  0
   27.4132  -20.3147  -12.9526 C   0  0  1  0  0  0  0  0  0  0  0  0
   28.5114  -19.5703  -13.7584 C   0  0  0  0  0  0  0  0  0  0  0  0
   28.0304  -20.6038  -11.6187 C   0  0  2  0  0  0  0  0  0  0  0  0
   29.1506  -21.5176  -11.7122 N   0  0  0  0  0  0  0  0  0  0  0  0
   27.1738  -21.0048  -10.5280 C   0  0  0  0  0  0  0  0  0  0  0  0
   26.8559  -22.2640  -10.4361 O   0  0  0  0  0  0  0  0  0  0  0  0
   26.6408  -20.1599   -9.5281 N   0  0  0  0  0  0  0  0  0  0  0  0
   25.8606  -20.6803   -8.4109 C   0  0  1  0  0  0  0  0  0  0  0  0
   25.9572  -19.6185   -7.3303 C   0  0  0  0  0  0  0  0  0  0  0  0
   27.1258  -19.7476   -6.4602 C   0  0  0  0  0  0  0  0  0  0  0  0
   27.4642  -20.9190   -5.8200 C   0  0  0  0  0  0  0  0  0  0  0  0
   28.5882  -21.0075   -5.0003 C   0  0  0  0  0  0  0  0  0  0  0  0
   29.4047  -19.9105   -4.8038 C   0  0  0  0  0  0  0  0  0  0  0  0
   29.0695  -18.7367   -5.4424 C   0  0  0  0  0  0  0  0  0  0  0  0
   27.9504  -18.6495   -6.2583 C   0  0  0  0  0  0  0  0  0  0  0  0
   24.4768  -20.8924   -8.8754 C   0  0  0  0  0  0  0  0  0  0  0  0
   23.5925  -21.7396   -8.2667 O   0  0  0  0  0  0  0  0  0  0  0  0
   24.1129  -20.2384   -9.9015 O   0  0  0  0  0  0  0  0  0  0  0  0
  1  2  1  0
  3  2  1  0
  4  5  1  0
  4  3  1  0
  5  6  1  1
  5  1  1  0
  6  7  2  0
  9  8  1  1
  9 10  1  0
  9 11  1  0
 11 12  1  6
 12  6  1  0
 13 11  1  0
 14 13  2  0
 15 13  1  0
 16 15  1  0
 16 24  1  0
 16 17  1  1
 18 17  1  0
 19 18  2  0
 20 19  1  0
 21 22  1  0
 21 20  2  0
 22 23  2  0
 23 18  1  0
 24 25  1  0
 26 24  2  0
M  END
$$$$
