PVF.pdb
     RDKit          3D

 26 27  0  0  1  0  0  0  0  0999 V2000
   21.9813  -12.2444  -19.5913 N   0  0  0  0  0  0  0  0  0  0  0  0
   21.7214  -13.3674  -20.4445 C   0  0  0  0  0  0  0  0  0  0  0  0
   20.4156  -13.9859  -19.9968 C   0  0  0  0  0  0  0  0  0  0  0  0
   20.3495  -13.4905  -18.5461 C   0  0  0  0  0  0  0  0  0  0  0  0
   20.8562  -12.0751  -18.7131 C   0  0  1  0  0  0  0  0  0  0  0  0
   21.2701  -11.4782  -17.3991 C   0  0  0  0  0  0  0  0  0  0  0  0
   20.3464  -11.3063  -16.5862 O   0  0  0  0  0  0  0  0  0  0  0  0
   24.2284  -12.7913  -15.4703 C   0  0  0  0  0  0  0  0  0  0  0  0
   24.4029  -11.2737  -15.4769 C   0  0  1  0  0  0  0  0  0  0  0  0
   25.4091  -11.0688  -16.6410 C   0  0  0  0  0  0  0  0  0  0  0  0
   23.1521  -10.5715  -15.9086 C   0  0  2  0  0  0  0  0  0  0  0  0
   22.5819  -11.1433  -17.1112 N   0  0  0  0  0  0  0  0  0  0  0  0
   23.1658   -9.1323  -16.0213 C   0  0  0  0  0  0  0  0  0  0  0  0
   23.6153   -8.6135  -17.1277 O   0  0  0  0  0  0  0  0  0  0  0  0
   22.7279   -8.2118  -15.0422 N   0  0  0  0  0  0  0  0  0  0  0  0
   22.6724   -6.7771  -15.2993 C   0  0  1  0  0  0  0  0  0  0  0  0
   21.6960   -6.6175  -16.4507 C   0  0  0  0  0  0  0  0  0  0  0  0
   21.3559   -5.2302  -16.7655 C   0  0  0  0  0  0  0  0  0  0  0  0
   20.2444   -4.5925  -16.2611 C   0  0  0  0  0  0  0  0  0  0  0  0
   19.9527   -3.2672  -16.5795 C   0  0  0  0  0  0  0  0  0  0  0  0
   20.7793   -2.5464  -17.4197 C   0  0  0  0  0  0  0  0  0  0  0  0
   21.8922   -3.1806  -17.9265 C   0  0  0  0  0  0  0  0  0  0  0  0
   22.1818   -4.5001  -17.6090 C   0  0  0  0  0  0  0  0  0  0  0  0
   22.2124   -6.1066  -14.0687 C   0  0  0  0  0  0  0  0  0  0  0  0
   22.5389   -4.8208  -13.7365 O   0  0  0  0  0  0  0  0  0  0  0  0
   21.4725   -6.7859  -13.2913 O   0  0  0  0  0  0  0  0  0  0  0  0
  1  2  1  0
  3  2  1  0
  4  5  1  0
  4  3  1  0
  5  6  1  1
  5  1  1  0
  6  7  2  0
  9  8  1  6
  9 10  1  0
  9 11  1  0
 11 12  1  6
 12  6  1  0
 13 11  1  0
 14 13  2  0
 15 13  1  0
 16 15  1  0
 16 24  1  0
 16 17  1  6
 18 17  1  0
 19 18  2  0
 20 19  1  0
 21 22  1  0
 21 20  2  0
 22 23  2  0
 23 18  1  0
 24 25  1  0
 26 24  2  0
M  END
$$$$
