PVF.pdb
     RDKit          3D

 26 27  0  0  1  0  0  0  0  0999 V2000
   19.3686  -12.4328  -19.0723 N   0  0  0  0  0  0  0  0  0  0  0  0
   18.4196  -12.2779  -20.1363 C   0  0  0  0  0  0  0  0  0  0  0  0
   18.6434  -10.9135  -20.7499 C   0  0  0  0  0  0  0  0  0  0  0  0
   19.3281  -10.1870  -19.5846 C   0  0  0  0  0  0  0  0  0  0  0  0
   20.2320  -11.2838  -19.0668 C   0  0  1  0  0  0  0  0  0  0  0  0
   20.7328  -10.9798  -17.6844 C   0  0  0  0  0  0  0  0  0  0  0  0
   19.9026  -11.1503  -16.7759 O   0  0  0  0  0  0  0  0  0  0  0  0
   24.3406  -10.5333  -14.4225 C   0  0  0  0  0  0  0  0  0  0  0  0
   23.7492  -10.9864  -15.7561 C   0  0  1  0  0  0  0  0  0  0  0  0
   23.0735  -12.3296  -15.3706 C   0  0  0  0  0  0  0  0  0  0  0  0
   22.6302  -10.0951  -16.2002 C   0  0  2  0  0  0  0  0  0  0  0  0
   22.0223  -10.5423  -17.4368 N   0  0  0  0  0  0  0  0  0  0  0  0
   22.8590   -8.6712  -16.2654 C   0  0  0  0  0  0  0  0  0  0  0  0
   23.4558   -8.1992  -17.3220 O   0  0  0  0  0  0  0  0  0  0  0  0
   22.4900   -7.7185  -15.2887 N   0  0  0  0  0  0  0  0  0  0  0  0
   22.6667   -6.2862  -15.4998 C   0  0  1  0  0  0  0  0  0  0  0  0
   21.7044   -5.9277  -16.6177 C   0  0  0  0  0  0  0  0  0  0  0  0
   20.2994   -5.8830  -16.2133 C   0  0  0  0  0  0  0  0  0  0  0  0
   19.4048   -6.8955  -16.4798 C   0  0  0  0  0  0  0  0  0  0  0  0
   18.0728   -6.8212  -16.0757 C   0  0  0  0  0  0  0  0  0  0  0  0
   17.6058   -5.7174  -15.3886 C   0  0  0  0  0  0  0  0  0  0  0  0
   18.4975   -4.7022  -15.1201 C   0  0  0  0  0  0  0  0  0  0  0  0
   19.8234   -4.7770  -15.5227 C   0  0  0  0  0  0  0  0  0  0  0  0
   22.3520   -5.5927  -14.2366 C   0  0  0  0  0  0  0  0  0  0  0  0
   22.5413   -4.2530  -14.0377 O   0  0  0  0  0  0  0  0  0  0  0  0
   21.8800   -6.3050  -13.2969 O   0  0  0  0  0  0  0  0  0  0  0  0
  1  2  1  0
  3  2  1  0
  4  5  1  0
  4  3  1  0
  5  6  1  1
  5  1  1  0
  6  7  2  0
  9  8  1  1
  9 10  1  0
  9 11  1  0
 11 12  1  6
 12  6  1  0
 13 11  1  0
 14 13  2  0
 15 13  1  0
 16 15  1  0
 16 24  1  0
 16 17  1  6
 18 17  1  0
 19 18  2  0
 20 19  1  0
 21 22  1  0
 21 20  2  0
 22 23  2  0
 23 18  1  0
 24 25  1  0
 26 24  2  0
M  END
$$$$
