TGE.pdb
     RDKit          3D

 21 20  0  0  1  0  0  0  0  0999 V2000
   18.9198  -15.8679  -18.1041 C   0  0  0  0  0  0  0  0  0  0  0  0
   19.1879  -14.3772  -18.1355 C   0  0  1  0  0  0  0  0  0  0  0  0
   18.3939  -13.6693  -17.2743 O   0  0  0  0  0  0  0  0  0  0  0  0
   20.6450  -14.0694  -17.9037 C   0  0  2  0  0  0  0  0  0  0  0  0
   21.0417  -14.4658  -16.5597 N   0  0  0  0  0  0  0  0  0  0  0  0
   20.9963  -12.6515  -18.0544 C   0  0  0  0  0  0  0  0  0  0  0  0
   20.9074  -12.0257  -19.1500 O   0  0  0  0  0  0  0  0  0  0  0  0
   21.4610  -11.9249  -16.9272 N   0  0  0  0  0  0  0  0  0  0  0  0
   21.8227  -10.5321  -17.0555 C   0  0  0  0  0  0  0  0  0  0  0  0
   20.9168   -9.5906  -16.3988 C   0  0  0  0  0  0  0  0  0  0  0  0
   19.8118  -10.0748  -15.9568 O   0  0  0  0  0  0  0  0  0  0  0  0
   21.1459   -8.2180  -16.2136 N   0  0  0  0  0  0  0  0  0  0  0  0
   20.1718   -7.3705  -15.4809 C   0  0  1  0  0  0  0  0  0  0  0  0
   20.8720   -6.0987  -15.0952 C   0  0  0  0  0  0  0  0  0  0  0  0
   22.0199   -6.3719  -14.1616 C   0  0  0  0  0  0  0  0  0  0  0  0
   22.6620   -5.1015  -13.7145 C   0  0  0  0  0  0  0  0  0  0  0  0
   23.7099   -4.6853  -14.2581 O   0  0  0  0  0  0  0  0  0  0  0  0
   19.0009   -7.1671  -16.3629 C   0  0  0  0  0  0  0  0  0  0  0  0
   19.1990   -7.1166  -17.6300 O   0  0  0  0  0  0  0  0  0  0  0  0
   22.0994   -4.3772  -12.6944 O   0  0  0  0  0  0  0  0  0  0  0  0
   17.6967   -7.0267  -15.9442 O   0  0  0  0  0  0  0  0  0  0  0  0
  2  1  1  1
  2  3  1  0
  4  2  1  0
  4  5  1  1
  6  4  1  0
  7  6  2  0
  8  6  1  0
  9 10  1  0
  9  8  1  0
 10 12  1  0
 11 10  2  0
 12 13  1  0
 13 18  1  0
 13 14  1  6
 15 14  1  0
 16 15  1  0
 17 16  2  0
 18 21  1  0
 19 18  2  0
 20 16  1  0
M  END
$$$$
