TGE.pdb
     RDKit          3D

 21 20  0  0  1  0  0  0  0  0999 V2000
   20.6176  -13.5771  -18.6539 C   0  0  0  0  0  0  0  0  0  0  0  0
   19.5902  -13.3845  -17.5573 C   0  0  1  0  0  0  0  0  0  0  0  0
   19.1414  -14.5637  -17.0271 O   0  0  0  0  0  0  0  0  0  0  0  0
   20.0967  -12.4642  -16.4765 C   0  0  2  0  0  0  0  0  0  0  0  0
   19.0981  -12.3127  -15.4274 N   0  0  0  0  0  0  0  0  0  0  0  0
   20.4392  -11.1140  -16.9416 C   0  0  0  0  0  0  0  0  0  0  0  0
   21.4204  -10.8681  -17.7009 O   0  0  0  0  0  0  0  0  0  0  0  0
   19.6428  -10.0128  -16.5320 N   0  0  0  0  0  0  0  0  0  0  0  0
   19.9757   -8.6732  -16.9584 C   0  0  0  0  0  0  0  0  0  0  0  0
   20.4002   -7.7677  -15.8915 C   0  0  0  0  0  0  0  0  0  0  0  0
   21.2217   -8.2476  -15.0280 O   0  0  0  0  0  0  0  0  0  0  0  0
   19.9904   -6.4349  -15.7289 N   0  0  0  0  0  0  0  0  0  0  0  0
   20.5746   -5.5777  -14.6669 C   0  0  1  0  0  0  0  0  0  0  0  0
   22.0486   -5.4619  -14.9325 C   0  0  0  0  0  0  0  0  0  0  0  0
   22.3161   -4.6349  -16.1608 C   0  0  0  0  0  0  0  0  0  0  0  0
   23.7807   -4.4387  -16.3670 C   0  0  0  0  0  0  0  0  0  0  0  0
   24.6074   -4.8235  -15.5095 O   0  0  0  0  0  0  0  0  0  0  0  0
   19.8574   -4.2833  -14.6892 C   0  0  0  0  0  0  0  0  0  0  0  0
   19.0460   -4.0575  -15.6576 O   0  0  0  0  0  0  0  0  0  0  0  0
   24.2311   -3.8288  -17.5102 O   0  0  0  0  0  0  0  0  0  0  0  0
   19.9798   -3.2827  -13.7512 O   0  0  0  0  0  0  0  0  0  0  0  0
  2  1  1  6
  2  3  1  0
  4  2  1  0
  4  5  1  1
  6  4  1  0
  7  6  2  0
  8  6  1  0
  9 10  1  0
  9  8  1  0
 10 12  1  0
 11 10  2  0
 12 13  1  0
 13 18  1  0
 13 14  1  6
 15 14  1  0
 16 15  1  0
 17 16  2  0
 18 21  1  0
 19 18  2  0
 20 16  1  0
M  END
$$$$
