TGE.pdb
     RDKit          3D

 21 20  0  0  1  0  0  0  0  0999 V2000
   24.8513  -10.7850  -18.7805 C   0  0  0  0  0  0  0  0  0  0  0  0
   23.3950  -10.9822  -19.1486 C   0  0  1  0  0  0  0  0  0  0  0  0
   23.2238  -11.6951  -20.3042 O   0  0  0  0  0  0  0  0  0  0  0  0
   22.6131  -11.5948  -18.0149 C   0  0  2  0  0  0  0  0  0  0  0  0
   21.2259  -11.8021  -18.4066 N   0  0  0  0  0  0  0  0  0  0  0  0
   22.5968  -10.7909  -16.7861 C   0  0  0  0  0  0  0  0  0  0  0  0
   23.6300  -10.5549  -16.0957 O   0  0  0  0  0  0  0  0  0  0  0  0
   21.3711  -10.2392  -16.3303 N   0  0  0  0  0  0  0  0  0  0  0  0
   21.3431   -9.3895  -15.1622 C   0  0  0  0  0  0  0  0  0  0  0  0
   21.9124   -8.0555  -15.3491 C   0  0  0  0  0  0  0  0  0  0  0  0
   22.4316   -7.8119  -16.4989 O   0  0  0  0  0  0  0  0  0  0  0  0
   21.9430   -7.0300  -14.3910 N   0  0  0  0  0  0  0  0  0  0  0  0
   22.3444   -5.6490  -14.7593 C   0  0  1  0  0  0  0  0  0  0  0  0
   21.4410   -5.1911  -15.8687 C   0  0  0  0  0  0  0  0  0  0  0  0
   21.6422   -3.7297  -16.1654 C   0  0  0  0  0  0  0  0  0  0  0  0
   20.7065   -3.2645  -17.2302 C   0  0  0  0  0  0  0  0  0  0  0  0
   20.7667   -2.0949  -17.6722 O   0  0  0  0  0  0  0  0  0  0  0  0
   22.2638   -4.8170  -13.5380 C   0  0  0  0  0  0  0  0  0  0  0  0
   22.8155   -3.6583  -13.5574 O   0  0  0  0  0  0  0  0  0  0  0  0
   19.7663   -4.1270  -17.7341 O   0  0  0  0  0  0  0  0  0  0  0  0
   21.6399   -5.1750  -12.3638 O   0  0  0  0  0  0  0  0  0  0  0  0
  2  1  1  1
  2  3  1  0
  4  2  1  0
  4  5  1  6
  6  4  1  0
  7  6  2  0
  8  6  1  0
  9 10  1  0
  9  8  1  0
 10 12  1  0
 11 10  2  0
 12 13  1  0
 13 18  1  0
 13 14  1  6
 15 14  1  0
 16 15  1  0
 17 16  2  0
 18 21  1  0
 19 18  2  0
 20 16  1  0
M  END
$$$$
