TGE.pdb
     RDKit          3D

 21 20  0  0  1  0  0  0  0  0999 V2000
   28.3347  -18.3605  -15.9536 C   0  0  0  0  0  0  0  0  0  0  0  0
   27.1264  -19.0394  -15.3420 C   0  0  1  0  0  0  0  0  0  0  0  0
   26.0622  -19.1183  -16.1990 O   0  0  0  0  0  0  0  0  0  0  0  0
   27.4736  -20.3964  -14.7855 C   0  0  2  0  0  0  0  0  0  0  0  0
   27.9563  -21.2726  -15.8438 N   0  0  0  0  0  0  0  0  0  0  0  0
   26.3547  -21.0879  -14.1324 C   0  0  0  0  0  0  0  0  0  0  0  0
   25.7361  -22.0587  -14.6565 O   0  0  0  0  0  0  0  0  0  0  0  0
   25.9281  -20.6638  -12.8468 N   0  0  0  0  0  0  0  0  0  0  0  0
   24.7584  -21.2517  -12.2357 C   0  0  0  0  0  0  0  0  0  0  0  0
   23.4782  -20.7958  -12.7758 C   0  0  0  0  0  0  0  0  0  0  0  0
   23.5336  -19.9254  -13.7192 O   0  0  0  0  0  0  0  0  0  0  0  0
   22.2076  -21.2201  -12.3557 N   0  0  0  0  0  0  0  0  0  0  0  0
   20.9745  -20.6927  -12.9923 C   0  0  1  0  0  0  0  0  0  0  0  0
   21.0148  -21.0673  -14.4464 C   0  0  0  0  0  0  0  0  0  0  0  0
   19.7445  -20.6664  -15.1463 C   0  0  0  0  0  0  0  0  0  0  0  0
   19.7685  -19.2211  -15.5157 C   0  0  0  0  0  0  0  0  0  0  0  0
   20.7926  -18.7025  -16.0149 O   0  0  0  0  0  0  0  0  0  0  0  0
   19.8165  -21.2526  -12.2603 C   0  0  0  0  0  0  0  0  0  0  0  0
   19.9850  -22.3423  -11.6034 O   0  0  0  0  0  0  0  0  0  0  0  0
   18.6555  -18.4470  -15.3070 O   0  0  0  0  0  0  0  0  0  0  0  0
   18.5546  -20.7034  -12.2157 O   0  0  0  0  0  0  0  0  0  0  0  0
  2  1  1  6
  2  3  1  0
  4  2  1  0
  4  5  1  6
  6  4  1  0
  7  6  2  0
  8  6  1  0
  9 10  1  0
  9  8  1  0
 10 12  1  0
 11 10  2  0
 12 13  1  0
 13 18  1  0
 13 14  1  6
 15 14  1  0
 16 15  1  0
 17 16  2  0
 18 21  1  0
 19 18  2  0
 20 16  1  0
M  END
$$$$
