TGE.pdb
     RDKit          3D

 21 20  0  0  1  0  0  0  0  0999 V2000
   15.4019   -6.6436   -7.9726 C   0  0  0  0  0  0  0  0  0  0  0  0
   14.1924   -7.4676   -7.5811 C   0  0  1  0  0  0  0  0  0  0  0  0
   13.3540   -6.8160   -6.7176 O   0  0  0  0  0  0  0  0  0  0  0  0
   13.4428   -7.9641   -8.7907 C   0  0  2  0  0  0  0  0  0  0  0  0
   12.3410   -8.8271   -8.3883 N   0  0  0  0  0  0  0  0  0  0  0  0
   14.2624   -8.7284   -9.7399 C   0  0  0  0  0  0  0  0  0  0  0  0
   14.0251   -9.9308  -10.0525 O   0  0  0  0  0  0  0  0  0  0  0  0
   15.3827   -8.1072  -10.3511 N   0  0  0  0  0  0  0  0  0  0  0  0
   16.2278   -8.8536  -11.2545 C   0  0  0  0  0  0  0  0  0  0  0  0
   17.3342   -8.0974  -11.8397 C   0  0  0  0  0  0  0  0  0  0  0  0
   17.3946   -6.8494  -11.5405 O   0  0  0  0  0  0  0  0  0  0  0  0
   18.3238   -8.6105  -12.6930 N   0  0  0  0  0  0  0  0  0  0  0  0
   19.4000   -7.7397  -13.2292 C   0  0  1  0  0  0  0  0  0  0  0  0
   20.4012   -8.6223  -13.9185 C   0  0  0  0  0  0  0  0  0  0  0  0
   21.5551   -7.8193  -14.4551 C   0  0  0  0  0  0  0  0  0  0  0  0
   22.5753   -8.7039  -15.0896 C   0  0  0  0  0  0  0  0  0  0  0  0
   23.0387   -9.6923  -14.4771 O   0  0  0  0  0  0  0  0  0  0  0  0
   18.7676   -6.7407  -14.1194 C   0  0  0  0  0  0  0  0  0  0  0  0
   17.7693   -7.1134  -14.8349 O   0  0  0  0  0  0  0  0  0  0  0  0
   23.0138   -8.4336  -16.3609 O   0  0  0  0  0  0  0  0  0  0  0  0
   19.1553   -5.4262  -14.2525 O   0  0  0  0  0  0  0  0  0  0  0  0
  2  1  1  6
  2  3  1  0
  4  2  1  0
  4  5  1  1
  6  4  1  0
  7  6  2  0
  8  6  1  0
  9 10  1  0
  9  8  1  0
 10 12  1  0
 11 10  2  0
 12 13  1  0
 13 18  1  0
 13 14  1  6
 15 14  1  0
 16 15  1  0
 17 16  2  0
 18 21  1  0
 19 18  2  0
 20 16  1  0
M  END
$$$$
