TGE.pdb
     RDKit          3D

 21 20  0  0  1  0  0  0  0  0999 V2000
   21.6622   -9.1836  -20.3266 C   0  0  0  0  0  0  0  0  0  0  0  0
   21.6990  -10.6686  -20.0289 C   0  0  1  0  0  0  0  0  0  0  0  0
   21.5224  -11.4451  -21.1420 O   0  0  0  0  0  0  0  0  0  0  0  0
   22.9557  -11.0570  -19.2930 C   0  0  2  0  0  0  0  0  0  0  0  0
   23.0106  -12.5001  -19.1054 N   0  0  0  0  0  0  0  0  0  0  0  0
   23.0937  -10.4458  -17.9649 C   0  0  0  0  0  0  0  0  0  0  0  0
   22.6267  -10.9631  -16.9094 O   0  0  0  0  0  0  0  0  0  0  0  0
   23.7829   -9.2119  -17.8337 N   0  0  0  0  0  0  0  0  0  0  0  0
   23.8554   -8.5496  -16.5517 C   0  0  0  0  0  0  0  0  0  0  0  0
   22.8009   -7.5691  -16.2971 C   0  0  0  0  0  0  0  0  0  0  0  0
   22.1583   -7.1415  -17.3243 O   0  0  0  0  0  0  0  0  0  0  0  0
   22.4353   -7.0580  -15.0417 N   0  0  0  0  0  0  0  0  0  0  0  0
   21.3172   -6.0911  -14.9042 C   0  0  1  0  0  0  0  0  0  0  0  0
   20.1580   -6.8181  -14.2844 C   0  0  0  0  0  0  0  0  0  0  0  0
   19.5070   -7.7464  -15.2736 C   0  0  0  0  0  0  0  0  0  0  0  0
   18.3772   -8.4922  -14.6464 C   0  0  0  0  0  0  0  0  0  0  0  0
   18.5396   -9.1260  -13.5793 O   0  0  0  0  0  0  0  0  0  0  0  0
   21.8077   -4.9487  -14.1011 C   0  0  0  0  0  0  0  0  0  0  0  0
   22.7989   -5.1462  -13.3100 O   0  0  0  0  0  0  0  0  0  0  0  0
   17.1426   -8.4855  -15.2442 O   0  0  0  0  0  0  0  0  0  0  0  0
   21.2926   -3.6720  -14.1253 O   0  0  0  0  0  0  0  0  0  0  0  0
  2  1  1  6
  2  3  1  0
  4  2  1  0
  4  5  1  1
  6  4  1  0
  7  6  2  0
  8  6  1  0
  9 10  1  0
  9  8  1  0
 10 12  1  0
 11 10  2  0
 12 13  1  0
 13 18  1  0
 13 14  1  1
 15 14  1  0
 16 15  1  0
 17 16  2  0
 18 21  1  0
 19 18  2  0
 20 16  1  0
M  END
$$$$
