TGE.pdb
     RDKit          3D

 21 20  0  0  1  0  0  0  0  0999 V2000
   25.3354  -22.8236  -15.1528 C   0  0  0  0  0  0  0  0  0  0  0  0
   25.1722  -22.8833  -13.6478 C   0  0  1  0  0  0  0  0  0  0  0  0
   25.7270  -24.0033  -13.0903 O   0  0  0  0  0  0  0  0  0  0  0  0
   25.6914  -21.6346  -12.9824 C   0  0  2  0  0  0  0  0  0  0  0  0
   25.6012  -21.7544  -11.5338 N   0  0  0  0  0  0  0  0  0  0  0  0
   24.9780  -20.4069  -13.3570 C   0  0  0  0  0  0  0  0  0  0  0  0
   23.9692  -19.9704  -12.7314 O   0  0  0  0  0  0  0  0  0  0  0  0
   25.4253  -19.6542  -14.4742 N   0  0  0  0  0  0  0  0  0  0  0  0
   24.7484  -18.4346  -14.8503 C   0  0  0  0  0  0  0  0  0  0  0  0
   23.5526  -18.6145  -15.6726 C   0  0  0  0  0  0  0  0  0  0  0  0
   23.4379  -19.7437  -16.2748 O   0  0  0  0  0  0  0  0  0  0  0  0
   22.5314  -17.6698  -15.8614 N   0  0  0  0  0  0  0  0  0  0  0  0
   21.2856  -18.0229  -16.5874 C   0  0  1  0  0  0  0  0  0  0  0  0
   20.5509  -19.0430  -15.7650 C   0  0  0  0  0  0  0  0  0  0  0  0
   20.3995  -18.5851  -14.3397 C   0  0  0  0  0  0  0  0  0  0  0  0
   18.9953  -18.7589  -13.8665 C   0  0  0  0  0  0  0  0  0  0  0  0
   18.0872  -17.9889  -14.2528 O   0  0  0  0  0  0  0  0  0  0  0  0
   20.5261  -16.7725  -16.8108 C   0  0  0  0  0  0  0  0  0  0  0  0
   20.9682  -15.6922  -16.2770 O   0  0  0  0  0  0  0  0  0  0  0  0
   18.6914  -19.7750  -12.9965 O   0  0  0  0  0  0  0  0  0  0  0  0
   19.3713  -16.6574  -17.5519 O   0  0  0  0  0  0  0  0  0  0  0  0
  2  1  1  6
  2  3  1  0
  4  2  1  0
  4  5  1  1
  6  4  1  0
  7  6  2  0
  8  6  1  0
  9 10  1  0
  9  8  1  0
 10 12  1  0
 11 10  2  0
 12 13  1  0
 13 18  1  0
 13 14  1  1
 15 14  1  0
 16 15  1  0
 17 16  2  0
 18 21  1  0
 19 18  2  0
 20 16  1  0
M  END
$$$$
