TGE.pdb
     RDKit          3D

 21 20  0  0  1  0  0  0  0  0999 V2000
   21.4684  -36.1703   -2.4471 C   0  0  0  0  0  0  0  0  0  0  0  0
   21.5065  -34.7073   -2.0557 C   0  0  1  0  0  0  0  0  0  0  0  0
   22.2408  -34.4716   -0.9251 O   0  0  0  0  0  0  0  0  0  0  0  0
   21.9753  -33.8391   -3.1952 C   0  0  2  0  0  0  0  0  0  0  0  0
   23.3172  -34.2241   -3.6100 N   0  0  0  0  0  0  0  0  0  0  0  0
   22.0164  -32.4040   -2.8864 C   0  0  0  0  0  0  0  0  0  0  0  0
   23.0561  -31.8098   -2.4792 O   0  0  0  0  0  0  0  0  0  0  0  0
   20.8422  -31.6228   -3.0461 N   0  0  0  0  0  0  0  0  0  0  0  0
   20.8493  -30.2179   -2.7091 C   0  0  0  0  0  0  0  0  0  0  0  0
   19.5859  -29.5171   -2.9353 C   0  0  0  0  0  0  0  0  0  0  0  0
   18.6757  -30.1693   -3.5654 O   0  0  0  0  0  0  0  0  0  0  0  0
   19.2853  -28.2070   -2.5304 N   0  0  0  0  0  0  0  0  0  0  0  0
   17.9561  -27.6058   -2.8058 C   0  0  1  0  0  0  0  0  0  0  0  0
   17.5361  -26.8448   -1.5806 C   0  0  0  0  0  0  0  0  0  0  0  0
   16.1405  -26.3024   -1.7296 C   0  0  0  0  0  0  0  0  0  0  0  0
   15.6795  -25.6536   -0.4677 C   0  0  0  0  0  0  0  0  0  0  0  0
   16.4190  -25.6133    0.5414 O   0  0  0  0  0  0  0  0  0  0  0  0
   18.0851  -26.7669   -4.0182 C   0  0  0  0  0  0  0  0  0  0  0  0
   19.2082  -26.1848   -4.2350 O   0  0  0  0  0  0  0  0  0  0  0  0
   14.4291  -25.0926   -0.4087 O   0  0  0  0  0  0  0  0  0  0  0  0
   17.0967  -26.5507   -4.9523 O   0  0  0  0  0  0  0  0  0  0  0  0
  2  1  1  6
  2  3  1  0
  4  2  1  0
  4  5  1  1
  6  4  1  0
  7  6  2  0
  8  6  1  0
  9 10  1  0
  9  8  1  0
 10 12  1  0
 11 10  2  0
 12 13  1  0
 13 18  1  0
 13 14  1  1
 15 14  1  0
 16 15  1  0
 17 16  2  0
 18 21  1  0
 19 18  2  0
 20 16  1  0
M  END
$$$$
