TGE.pdb
     RDKit          3D

 21 20  0  0  1  0  0  0  0  0999 V2000
   24.0090  -14.4956  -15.3561 C   0  0  0  0  0  0  0  0  0  0  0  0
   24.7209  -13.5682  -16.3196 C   0  0  1  0  0  0  0  0  0  0  0  0
   25.5375  -14.2281  -17.1976 O   0  0  0  0  0  0  0  0  0  0  0  0
   23.7514  -12.6752  -17.0504 C   0  0  2  0  0  0  0  0  0  0  0  0
   24.4632  -11.7834  -17.9553 N   0  0  0  0  0  0  0  0  0  0  0  0
   22.9275  -11.8311  -16.1756 C   0  0  0  0  0  0  0  0  0  0  0  0
   22.1236  -12.2959  -15.3168 O   0  0  0  0  0  0  0  0  0  0  0  0
   23.0212  -10.4186  -16.2800 N   0  0  0  0  0  0  0  0  0  0  0  0
   22.2528   -9.5695  -15.3993 C   0  0  0  0  0  0  0  0  0  0  0  0
   22.5911   -8.1478  -15.4538 C   0  0  0  0  0  0  0  0  0  0  0  0
   23.5562   -7.8198  -16.2360 O   0  0  0  0  0  0  0  0  0  0  0  0
   21.9615   -7.1218  -14.7316 N   0  0  0  0  0  0  0  0  0  0  0  0
   22.2181   -5.6939  -15.0470 C   0  0  1  0  0  0  0  0  0  0  0  0
   21.2272   -5.2721  -16.0942 C   0  0  0  0  0  0  0  0  0  0  0  0
   21.4558   -3.8457  -16.5155 C   0  0  0  0  0  0  0  0  0  0  0  0
   20.5081   -3.4471  -17.5967 C   0  0  0  0  0  0  0  0  0  0  0  0
   20.3272   -4.1804  -18.5950 O   0  0  0  0  0  0  0  0  0  0  0  0
   22.1176   -4.9298  -13.7835 C   0  0  0  0  0  0  0  0  0  0  0  0
   21.3505   -5.3846  -12.8604 O   0  0  0  0  0  0  0  0  0  0  0  0
   19.8241   -2.2621  -17.4991 O   0  0  0  0  0  0  0  0  0  0  0  0
   22.7828   -3.7580  -13.5003 O   0  0  0  0  0  0  0  0  0  0  0  0
  2  1  1  6
  2  3  1  0
  4  2  1  0
  4  5  1  6
  6  4  1  0
  7  6  2  0
  8  6  1  0
  9 10  1  0
  9  8  1  0
 10 12  1  0
 11 10  2  0
 12 13  1  0
 13 18  1  0
 13 14  1  6
 15 14  1  0
 16 15  1  0
 17 16  2  0
 18 21  1  0
 19 18  2  0
 20 16  1  0
M  END
$$$$
