TGE.pdb
     RDKit          3D

 21 20  0  0  1  0  0  0  0  0999 V2000
   19.1974  -16.9018  -18.4399 C   0  0  0  0  0  0  0  0  0  0  0  0
   18.8167  -15.4361  -18.3948 C   0  0  1  0  0  0  0  0  0  0  0  0
   17.8618  -15.1568  -17.4550 O   0  0  0  0  0  0  0  0  0  0  0  0
   20.0251  -14.5532  -18.2162 C   0  0  2  0  0  0  0  0  0  0  0  0
   20.6504  -14.8008  -16.9245 N   0  0  0  0  0  0  0  0  0  0  0  0
   19.7400  -13.1143  -18.2865 C   0  0  0  0  0  0  0  0  0  0  0  0
   19.2413  -12.5531  -19.3044 O   0  0  0  0  0  0  0  0  0  0  0  0
   20.0294  -12.2909  -17.1672 N   0  0  0  0  0  0  0  0  0  0  0  0
   19.7354  -10.8769  -17.2063 C   0  0  0  0  0  0  0  0  0  0  0  0
   19.9912  -10.1533  -15.9617 C   0  0  0  0  0  0  0  0  0  0  0  0
   19.6441  -10.7448  -14.8752 O   0  0  0  0  0  0  0  0  0  0  0  0
   20.5745   -8.8810  -15.8520 N   0  0  0  0  0  0  0  0  0  0  0  0
   20.8086   -8.2572  -14.5254 C   0  0  1  0  0  0  0  0  0  0  0  0
   21.5796   -6.9872  -14.7473 C   0  0  0  0  0  0  0  0  0  0  0  0
   21.8074   -6.2562  -13.4520 C   0  0  0  0  0  0  0  0  0  0  0  0
   22.5421   -4.9778  -13.6793 C   0  0  0  0  0  0  0  0  0  0  0  0
   23.4289   -4.8940  -14.5588 O   0  0  0  0  0  0  0  0  0  0  0  0
   19.4897   -8.0542  -13.8854 C   0  0  0  0  0  0  0  0  0  0  0  0
   18.4984   -7.7274  -14.6323 O   0  0  0  0  0  0  0  0  0  0  0  0
   22.2447   -3.8773  -12.9163 O   0  0  0  0  0  0  0  0  0  0  0  0
   19.2218   -8.1877  -12.5414 O   0  0  0  0  0  0  0  0  0  0  0  0
  2  1  1  1
  2  3  1  0
  4  2  1  0
  4  5  1  1
  6  4  1  0
  7  6  2  0
  8  6  1  0
  9 10  1  0
  9  8  1  0
 10 12  1  0
 11 10  2  0
 12 13  1  0
 13 18  1  0
 13 14  1  6
 15 14  1  0
 16 15  1  0
 17 16  2  0
 18 21  1  0
 19 18  2  0
 20 16  1  0
M  END
$$$$
