TGE.pdb
     RDKit          3D

 21 20  0  0  1  0  0  0  0  0999 V2000
   17.8235  -12.9744  -18.2558 C   0  0  0  0  0  0  0  0  0  0  0  0
   18.3501  -12.0492  -17.1780 C   0  0  1  0  0  0  0  0  0  0  0  0
   17.6468  -12.1321  -16.0068 O   0  0  0  0  0  0  0  0  0  0  0  0
   19.8238  -12.2561  -16.9390 C   0  0  2  0  0  0  0  0  0  0  0  0
   20.0813  -13.6191  -16.4954 N   0  0  0  0  0  0  0  0  0  0  0  0
   20.4061  -11.3596  -15.9321 C   0  0  0  0  0  0  0  0  0  0  0  0
   20.6301  -11.7081  -14.7371 O   0  0  0  0  0  0  0  0  0  0  0  0
   20.7439  -10.0296  -16.2951 N   0  0  0  0  0  0  0  0  0  0  0  0
   21.3995   -9.1588  -15.3469 C   0  0  0  0  0  0  0  0  0  0  0  0
   21.7667   -7.8407  -15.8628 C   0  0  0  0  0  0  0  0  0  0  0  0
   21.5711   -7.6434  -17.1173 O   0  0  0  0  0  0  0  0  0  0  0  0
   22.3109   -6.7845  -15.1152 N   0  0  0  0  0  0  0  0  0  0  0  0
   22.4741   -5.4322  -15.7057 C   0  0  1  0  0  0  0  0  0  0  0  0
   21.7613   -4.4553  -14.8144 C   0  0  0  0  0  0  0  0  0  0  0  0
   21.8247   -3.0608  -15.3761 C   0  0  0  0  0  0  0  0  0  0  0  0
   20.8415   -2.1649  -14.7003 C   0  0  0  0  0  0  0  0  0  0  0  0
   20.1216   -2.5884  -13.7679 O   0  0  0  0  0  0  0  0  0  0  0  0
   23.9249   -5.1731  -15.8405 C   0  0  0  0  0  0  0  0  0  0  0  0
   24.7222   -5.7512  -15.0174 O   0  0  0  0  0  0  0  0  0  0  0  0
   20.7220   -0.8592  -15.1032 O   0  0  0  0  0  0  0  0  0  0  0  0
   24.5094   -4.3577  -16.7837 O   0  0  0  0  0  0  0  0  0  0  0  0
  2  1  1  6
  2  3  1  0
  4  2  1  0
  4  5  1  1
  6  4  1  0
  7  6  2  0
  8  6  1  0
  9 10  1  0
  9  8  1  0
 10 12  1  0
 11 10  2  0
 12 13  1  0
 13 18  1  0
 13 14  1  1
 15 14  1  0
 16 15  1  0
 17 16  2  0
 18 21  1  0
 19 18  2  0
 20 16  1  0
M  END
$$$$
