TGE.pdb
     RDKit          3D

 21 20  0  0  1  0  0  0  0  0999 V2000
   15.3749  -13.3288  -17.0163 C   0  0  0  0  0  0  0  0  0  0  0  0
   16.2143  -13.5136  -15.7687 C   0  0  1  0  0  0  0  0  0  0  0  0
   15.9244  -14.6668  -15.0910 O   0  0  0  0  0  0  0  0  0  0  0  0
   17.6879  -13.4206  -16.0713 C   0  0  2  0  0  0  0  0  0  0  0  0
   18.4711  -13.6553  -14.8662 N   0  0  0  0  0  0  0  0  0  0  0  0
   18.1142  -12.1246  -16.6149 C   0  0  0  0  0  0  0  0  0  0  0  0
   18.4864  -11.9614  -17.8126 O   0  0  0  0  0  0  0  0  0  0  0  0
   18.1164  -10.9822  -15.7726 N   0  0  0  0  0  0  0  0  0  0  0  0
   18.3487   -9.6682  -16.3262 C   0  0  0  0  0  0  0  0  0  0  0  0
   18.2407   -8.5635  -15.3741 C   0  0  0  0  0  0  0  0  0  0  0  0
   17.8130   -8.8613  -14.1997 O   0  0  0  0  0  0  0  0  0  0  0  0
   18.5577   -7.2200  -15.6299 N   0  0  0  0  0  0  0  0  0  0  0  0
   18.4899   -6.1987  -14.5546 C   0  0  1  0  0  0  0  0  0  0  0  0
   19.7886   -6.2418  -13.8008 C   0  0  0  0  0  0  0  0  0  0  0  0
   20.9497   -5.9121  -14.6994 C   0  0  0  0  0  0  0  0  0  0  0  0
   22.2255   -5.8541  -13.9281 C   0  0  0  0  0  0  0  0  0  0  0  0
   22.4749   -4.8895  -13.1704 O   0  0  0  0  0  0  0  0  0  0  0  0
   18.2095   -4.8930  -15.1924 C   0  0  0  0  0  0  0  0  0  0  0  0
   17.9989   -3.8807  -14.4320 O   0  0  0  0  0  0  0  0  0  0  0  0
   23.1398   -6.8696  -14.0483 O   0  0  0  0  0  0  0  0  0  0  0  0
   18.1545   -4.6584  -16.5481 O   0  0  0  0  0  0  0  0  0  0  0  0
  2  1  1  6
  2  3  1  0
  4  2  1  0
  4  5  1  1
  6  4  1  0
  7  6  2  0
  8  6  1  0
  9 10  1  0
  9  8  1  0
 10 12  1  0
 11 10  2  0
 12 13  1  0
 13 18  1  0
 13 14  1  6
 15 14  1  0
 16 15  1  0
 17 16  2  0
 18 21  1  0
 19 18  2  0
 20 16  1  0
M  END
$$$$
