TGE.pdb
     RDKit          3D

 21 20  0  0  1  0  0  0  0  0999 V2000
   28.6374  -11.5689  -16.7352 C   0  0  0  0  0  0  0  0  0  0  0  0
   27.4132  -11.4332  -17.6172 C   0  0  1  0  0  0  0  0  0  0  0  0
   27.2677  -12.4695  -18.4993 O   0  0  0  0  0  0  0  0  0  0  0  0
   26.1602  -11.2370  -16.8027 C   0  0  2  0  0  0  0  0  0  0  0  0
   24.9868  -11.2384  -17.6651 N   0  0  0  0  0  0  0  0  0  0  0  0
   26.1268   -9.9860  -16.0341 C   0  0  0  0  0  0  0  0  0  0  0  0
   26.9512   -9.7125  -15.1147 O   0  0  0  0  0  0  0  0  0  0  0  0
   25.1281   -9.0189  -16.3201 N   0  0  0  0  0  0  0  0  0  0  0  0
   25.0246   -7.8193  -15.5217 C   0  0  0  0  0  0  0  0  0  0  0  0
   23.9252   -6.9248  -15.8818 C   0  0  0  0  0  0  0  0  0  0  0  0
   23.4322   -7.0707  -17.0593 O   0  0  0  0  0  0  0  0  0  0  0  0
   23.3694   -5.9294  -15.0625 N   0  0  0  0  0  0  0  0  0  0  0  0
   22.0269   -5.3636  -15.3478 C   0  0  1  0  0  0  0  0  0  0  0  0
   21.0501   -6.5040  -15.3911 C   0  0  0  0  0  0  0  0  0  0  0  0
   19.6610   -6.0182  -15.7053 C   0  0  0  0  0  0  0  0  0  0  0  0
   18.7015   -7.1572  -15.7946 C   0  0  0  0  0  0  0  0  0  0  0  0
   19.0594   -8.3224  -15.5098 O   0  0  0  0  0  0  0  0  0  0  0  0
   21.7310   -4.3596  -14.3015 C   0  0  0  0  0  0  0  0  0  0  0  0
   22.4162   -4.3957  -13.2169 O   0  0  0  0  0  0  0  0  0  0  0  0
   17.4093   -6.9285  -16.1938 O   0  0  0  0  0  0  0  0  0  0  0  0
   20.7747   -3.3724  -14.3852 O   0  0  0  0  0  0  0  0  0  0  0  0
  2  1  1  1
  2  3  1  0
  4  2  1  0
  4  5  1  6
  6  4  1  0
  7  6  2  0
  8  6  1  0
  9 10  1  0
  9  8  1  0
 10 12  1  0
 11 10  2  0
 12 13  1  0
 13 18  1  0
 13 14  1  1
 15 14  1  0
 16 15  1  0
 17 16  2  0
 18 21  1  0
 19 18  2  0
 20 16  1  0
M  END
$$$$
