TGE.pdb
     RDKit          3D

 21 20  0  0  1  0  0  0  0  0999 V2000
   16.2764  -13.4812  -14.6364 C   0  0  0  0  0  0  0  0  0  0  0  0
   17.1558  -12.3258  -15.0687 C   0  0  1  0  0  0  0  0  0  0  0  0
   18.3686  -12.3060  -14.4349 O   0  0  0  0  0  0  0  0  0  0  0  0
   17.3278  -12.2880  -16.5656 C   0  0  2  0  0  0  0  0  0  0  0  0
   17.9934  -13.4962  -17.0324 N   0  0  0  0  0  0  0  0  0  0  0  0
   18.1128  -11.1482  -17.0568 C   0  0  0  0  0  0  0  0  0  0  0  0
   18.8105  -11.1870  -18.1110 O   0  0  0  0  0  0  0  0  0  0  0  0
   18.1031   -9.9298  -16.3287 N   0  0  0  0  0  0  0  0  0  0  0  0
   18.8519   -8.7896  -16.8047 C   0  0  0  0  0  0  0  0  0  0  0  0
   18.6168   -7.5429  -16.0775 C   0  0  0  0  0  0  0  0  0  0  0  0
   17.6582   -7.5525  -15.2221 O   0  0  0  0  0  0  0  0  0  0  0  0
   19.3379   -6.3485  -16.2332 N   0  0  0  0  0  0  0  0  0  0  0  0
   19.0059   -5.1432  -15.4326 C   0  0  1  0  0  0  0  0  0  0  0  0
   20.2793   -4.6404  -14.8142 C   0  0  0  0  0  0  0  0  0  0  0  0
   20.8590   -5.6532  -13.8642 C   0  0  0  0  0  0  0  0  0  0  0  0
   22.1266   -5.1542  -13.2558 C   0  0  0  0  0  0  0  0  0  0  0  0
   23.1091   -4.8561  -13.9719 O   0  0  0  0  0  0  0  0  0  0  0  0
   18.3527   -4.1698  -16.3361 C   0  0  0  0  0  0  0  0  0  0  0  0
   18.5633   -4.2789  -17.5974 O   0  0  0  0  0  0  0  0  0  0  0  0
   22.2205   -5.0190  -11.8940 O   0  0  0  0  0  0  0  0  0  0  0  0
   17.5244   -3.1424  -15.9434 O   0  0  0  0  0  0  0  0  0  0  0  0
  2  1  1  6
  2  3  1  0
  4  2  1  0
  4  5  1  1
  6  4  1  0
  7  6  2  0
  8  6  1  0
  9 10  1  0
  9  8  1  0
 10 12  1  0
 11 10  2  0
 12 13  1  0
 13 18  1  0
 13 14  1  6
 15 14  1  0
 16 15  1  0
 17 16  2  0
 18 21  1  0
 19 18  2  0
 20 16  1  0
M  END
$$$$
