NPH.pdb
     RDKit          3D

 26 27  0  0  1  0  0  0  0  0999 V2000
    8.3707  -18.3714   17.6960 N   0  0  0  0  0  0  0  0  0  0  0  0
    8.3220  -17.6635   16.4710 C   0  0  0  0  0  0  0  0  0  0  0  0
    8.9135  -18.1523   15.4822 O   0  0  0  0  0  0  0  0  0  0  0  0
    7.6099  -16.3850   16.3105 C   0  0  0  0  0  0  0  0  0  0  0  0
    8.5610  -15.2215   16.0964 C   0  0  2  0  0  0  0  0  0  0  0  0
    9.4733  -15.5253   14.9826 N   0  0  0  0  0  0  0  0  0  0  0  0
    9.3380  -14.9187   17.3135 C   0  0  0  0  0  0  0  0  0  0  0  0
   10.6101  -15.0229   17.2361 O   0  0  0  0  0  0  0  0  0  0  0  0
    8.7757  -14.5221   18.5555 N   0  0  0  0  0  0  0  0  0  0  0  0
    7.3762  -14.4072   18.8924 C   0  0  0  0  0  0  0  0  0  0  0  0
    7.3496  -13.1313   19.7254 C   0  0  0  0  0  0  0  0  0  0  0  0
    8.7451  -12.9615   20.2458 C   0  0  0  0  0  0  0  0  0  0  0  0
    9.5081  -14.1397   19.7432 C   0  0  1  0  0  0  0  0  0  0  0  0
    9.5939  -15.2593   20.7035 C   0  0  0  0  0  0  0  0  0  0  0  0
    8.6002  -16.0298   20.7975 O   0  0  0  0  0  0  0  0  0  0  0  0
   10.7294  -15.5047   21.5150 N   0  0  0  0  0  0  0  0  0  0  0  0
   10.8129  -16.6836   22.3705 C   0  0  1  0  0  0  0  0  0  0  0  0
   12.0913  -17.4191   22.1829 C   0  0  0  0  0  0  0  0  0  0  0  0
   12.3115  -17.7226   20.7553 C   0  0  0  0  0  0  0  0  0  0  0  0
   11.4938  -17.4748   19.6577 C   0  0  0  0  0  0  0  0  0  0  0  0
   12.0542  -17.9290   18.5302 N   0  0  0  0  0  0  0  0  0  0  0  0
   13.2286  -18.4682   18.8949 C   0  0  0  0  0  0  0  0  0  0  0  0
   13.3995  -18.3543   20.2202 N   0  0  0  0  0  0  0  0  0  0  0  0
   10.5556  -16.3303   23.7818 C   0  0  0  0  0  0  0  0  0  0  0  0
   10.4038  -17.3363   24.7651 O   0  0  0  0  0  0  0  0  0  0  0  0
   10.4508  -15.1636   24.2281 O   0  0  0  0  0  0  0  0  0  0  0  0
  2  1  1  0
  3  2  2  0
  4  2  1  0
  5  4  1  0
  5  6  1  6
  7  5  1  0
  7  9  1  0
  8  7  2  0
  9 13  1  0
 10  9  1  0
 10 11  1  0
 11 12  1  0
 13 14  1  1
 13 12  1  0
 14 15  2  0
 16 17  1  0
 16 14  1  0
 17 18  1  1
 18 19  1  0
 19 23  1  0
 20 19  2  0
 20 21  1  0
 21 22  1  0
 23 22  2  0
 24 25  1  0
 24 17  1  0
 26 24  2  0
M  END
$$$$
