NPH.pdb
     RDKit          3D

 26 27  0  0  1  0  0  0  0  0999 V2000
    8.5591  -17.0650   18.0867 N   0  0  0  0  0  0  0  0  0  0  0  0
    8.1955  -17.1003   16.7191 C   0  0  0  0  0  0  0  0  0  0  0  0
    7.6926  -18.1542   16.2683 O   0  0  0  0  0  0  0  0  0  0  0  0
    8.3821  -15.9581   15.8092 C   0  0  0  0  0  0  0  0  0  0  0  0
    7.9957  -14.6403   16.4558 C   0  0  2  0  0  0  0  0  0  0  0  0
    7.9956  -13.5725   15.4435 N   0  0  0  0  0  0  0  0  0  0  0  0
    8.9069  -14.2848   17.5604 C   0  0  0  0  0  0  0  0  0  0  0  0
   10.0624  -13.8376   17.2443 O   0  0  0  0  0  0  0  0  0  0  0  0
    8.5922  -14.4036   18.9399 N   0  0  0  0  0  0  0  0  0  0  0  0
    7.4327  -15.0320   19.5281 C   0  0  0  0  0  0  0  0  0  0  0  0
    7.0854  -14.0715   20.6592 C   0  0  0  0  0  0  0  0  0  0  0  0
    8.3529  -13.3300   20.9607 C   0  0  0  0  0  0  0  0  0  0  0  0
    9.3807  -13.9007   20.0438 C   0  0  1  0  0  0  0  0  0  0  0  0
   10.2020  -14.9708   20.6468 C   0  0  0  0  0  0  0  0  0  0  0  0
    9.7534  -16.1484   20.6071 O   0  0  0  0  0  0  0  0  0  0  0  0
   11.4575  -14.7370   21.2611 N   0  0  0  0  0  0  0  0  0  0  0  0
   12.3190  -15.8393   21.6751 C   0  0  1  0  0  0  0  0  0  0  0  0
   13.7590  -15.4740   21.6156 C   0  0  0  0  0  0  0  0  0  0  0  0
   14.1297  -15.0422   20.2537 C   0  0  0  0  0  0  0  0  0  0  0  0
   13.4941  -15.2853   19.0405 C   0  0  0  0  0  0  0  0  0  0  0  0
   14.1697  -14.7319   18.0261 N   0  0  0  0  0  0  0  0  0  0  0  0
   15.2373  -14.1335   18.5786 C   0  0  0  0  0  0  0  0  0  0  0  0
   15.2302  -14.3083   19.9083 N   0  0  0  0  0  0  0  0  0  0  0  0
   11.9126  -16.3583   22.9973 C   0  0  0  0  0  0  0  0  0  0  0  0
   12.5468  -17.4924   23.5573 O   0  0  0  0  0  0  0  0  0  0  0  0
   11.0111  -15.8717   23.7198 O   0  0  0  0  0  0  0  0  0  0  0  0
  2  1  1  0
  3  2  2  0
  4  2  1  0
  5  4  1  0
  5  6  1  6
  7  5  1  0
  7  9  1  0
  8  7  2  0
  9 13  1  0
 10  9  1  0
 10 11  1  0
 11 12  1  0
 13 14  1  1
 13 12  1  0
 14 15  2  0
 16 17  1  0
 16 14  1  0
 17 18  1  1
 18 19  1  0
 19 23  1  0
 20 19  2  0
 20 21  1  0
 21 22  1  0
 23 22  2  0
 24 25  1  0
 24 17  1  0
 26 24  2  0
M  END
$$$$
