NPH.pdb
     RDKit          3D

 26 27  0  0  1  0  0  0  0  0999 V2000
    7.3594  -19.4016   19.0398 N   0  0  0  0  0  0  0  0  0  0  0  0
    7.3333  -18.3832   18.0568 C   0  0  0  0  0  0  0  0  0  0  0  0
    7.4651  -18.7161   16.8574 O   0  0  0  0  0  0  0  0  0  0  0  0
    7.1589  -16.9580   18.3819 C   0  0  0  0  0  0  0  0  0  0  0  0
    8.4156  -16.1502   18.1134 C   0  0  2  0  0  0  0  0  0  0  0  0
    9.4237  -17.0028   17.4636 N   0  0  0  0  0  0  0  0  0  0  0  0
    8.9701  -15.5725   19.3525 C   0  0  0  0  0  0  0  0  0  0  0  0
   10.1922  -15.8336   19.6236 O   0  0  0  0  0  0  0  0  0  0  0  0
    8.2466  -14.7527   20.2583 N   0  0  0  0  0  0  0  0  0  0  0  0
    6.8581  -14.3641   20.1785 C   0  0  0  0  0  0  0  0  0  0  0  0
    6.9071  -12.9044   20.6137 C   0  0  0  0  0  0  0  0  0  0  0  0
    8.1661  -12.7657   21.4155 C   0  0  0  0  0  0  0  0  0  0  0  0
    8.7712  -14.1278   21.4531 C   0  0  1  0  0  0  0  0  0  0  0  0
    8.4295  -14.9085   22.6601 C   0  0  0  0  0  0  0  0  0  0  0  0
    7.2529  -14.8183   23.1043 O   0  0  0  0  0  0  0  0  0  0  0  0
    9.3533  -15.7452   23.3345 N   0  0  0  0  0  0  0  0  0  0  0  0
    9.0164  -16.3844   24.6019 C   0  0  1  0  0  0  0  0  0  0  0  0
    8.5094  -17.7690   24.4106 C   0  0  0  0  0  0  0  0  0  0  0  0
    7.3407  -17.7744   23.5092 C   0  0  0  0  0  0  0  0  0  0  0  0
    6.0036  -17.5089   23.7861 C   0  0  0  0  0  0  0  0  0  0  0  0
    5.2506  -17.6439   22.6877 N   0  0  0  0  0  0  0  0  0  0  0  0
    6.0948  -17.9950   21.7043 C   0  0  0  0  0  0  0  0  0  0  0  0
    7.3474  -18.0779   22.1762 N   0  0  0  0  0  0  0  0  0  0  0  0
   10.1507  -16.3138   25.5460 C   0  0  0  0  0  0  0  0  0  0  0  0
   11.3810  -15.7318   25.1591 O   0  0  0  0  0  0  0  0  0  0  0  0
   10.1388  -16.7402   26.7247 O   0  0  0  0  0  0  0  0  0  0  0  0
  2  1  1  0
  3  2  2  0
  4  2  1  0
  5  4  1  0
  5  6  1  1
  7  5  1  0
  7  9  1  0
  8  7  2  0
  9 13  1  0
 10  9  1  0
 10 11  1  0
 11 12  1  0
 13 14  1  1
 13 12  1  0
 14 15  2  0
 16 17  1  0
 16 14  1  0
 17 18  1  6
 18 19  1  0
 19 23  1  0
 20 19  2  0
 20 21  1  0
 21 22  1  0
 23 22  2  0
 24 25  1  0
 24 17  1  0
 26 24  2  0
M  END
$$$$
