NPH.pdb
     RDKit          3D

 26 27  0  0  1  0  0  0  0  0999 V2000
    6.6229  -18.9297   16.8582 N   0  0  0  0  0  0  0  0  0  0  0  0
    6.2240  -18.7977   18.2100 C   0  0  0  0  0  0  0  0  0  0  0  0
    5.2855  -19.5161   18.6220 O   0  0  0  0  0  0  0  0  0  0  0  0
    6.8612  -17.8577   19.1468 C   0  0  0  0  0  0  0  0  0  0  0  0
    8.0008  -17.0893   18.5025 C   0  0  2  0  0  0  0  0  0  0  0  0
    8.8930  -18.0237   17.7981 N   0  0  0  0  0  0  0  0  0  0  0  0
    8.7686  -16.3141   19.4955 C   0  0  0  0  0  0  0  0  0  0  0  0
    9.9412  -16.7337   19.7852 O   0  0  0  0  0  0  0  0  0  0  0  0
    8.2996  -15.1429   20.1469 N   0  0  0  0  0  0  0  0  0  0  0  0
    6.9936  -14.5366   20.0369 C   0  0  0  0  0  0  0  0  0  0  0  0
    7.3311  -13.0510   19.9967 C   0  0  0  0  0  0  0  0  0  0  0  0
    8.6806  -12.9275   20.6375 C   0  0  0  0  0  0  0  0  0  0  0  0
    9.0551  -14.3086   21.0561 C   0  0  1  0  0  0  0  0  0  0  0  0
    8.7335  -14.6223   22.4637 C   0  0  0  0  0  0  0  0  0  0  0  0
    7.5711  -15.0367   22.7223 O   0  0  0  0  0  0  0  0  0  0  0  0
    9.6615  -14.4804   23.5253 N   0  0  0  0  0  0  0  0  0  0  0  0
    9.4792  -15.1780   24.7936 C   0  0  1  0  0  0  0  0  0  0  0  0
    8.0676  -15.5956   25.0024 C   0  0  0  0  0  0  0  0  0  0  0  0
    7.2430  -14.4468   25.4252 C   0  0  0  0  0  0  0  0  0  0  0  0
    7.6116  -13.1256   25.6566 C   0  0  0  0  0  0  0  0  0  0  0  0
    6.5606  -12.3968   26.0512 N   0  0  0  0  0  0  0  0  0  0  0  0
    5.5165  -13.2408   26.0757 C   0  0  0  0  0  0  0  0  0  0  0  0
    5.9050  -14.4696   25.7048 N   0  0  0  0  0  0  0  0  0  0  0  0
   10.4341  -16.2981   24.9213 C   0  0  0  0  0  0  0  0  0  0  0  0
   11.3394  -16.6019   23.8771 O   0  0  0  0  0  0  0  0  0  0  0  0
   10.5340  -17.0541   25.9162 O   0  0  0  0  0  0  0  0  0  0  0  0
  2  1  1  0
  3  2  2  0
  4  2  1  0
  5  4  1  0
  5  6  1  1
  7  5  1  0
  7  9  1  0
  8  7  2  0
  9 13  1  0
 10  9  1  0
 10 11  1  0
 11 12  1  0
 13 14  1  1
 13 12  1  0
 14 15  2  0
 16 17  1  0
 16 14  1  0
 17 18  1  6
 18 19  1  0
 19 23  1  0
 20 19  2  0
 20 21  1  0
 21 22  1  0
 23 22  2  0
 24 25  1  0
 24 17  1  0
 26 24  2  0
M  END
$$$$
