NPH.pdb
     RDKit          3D

 26 27  0  0  1  0  0  0  0  0999 V2000
    7.1227  -18.9660   17.2904 N   0  0  0  0  0  0  0  0  0  0  0  0
    6.6959  -18.8876   18.6378 C   0  0  0  0  0  0  0  0  0  0  0  0
    5.8827  -19.7446   19.0509 O   0  0  0  0  0  0  0  0  0  0  0  0
    7.1643  -17.8478   19.5689 C   0  0  0  0  0  0  0  0  0  0  0  0
    8.2347  -16.9656   18.9525 C   0  0  2  0  0  0  0  0  0  0  0  0
    9.2301  -17.8018   18.2632 N   0  0  0  0  0  0  0  0  0  0  0  0
    8.9006  -16.1243   19.9652 C   0  0  0  0  0  0  0  0  0  0  0  0
   10.1154  -16.4037   20.2503 O   0  0  0  0  0  0  0  0  0  0  0  0
    8.2910  -15.0339   20.6401 N   0  0  0  0  0  0  0  0  0  0  0  0
    6.9548  -14.5188   20.4543 C   0  0  0  0  0  0  0  0  0  0  0  0
    7.1776  -13.0130   20.5275 C   0  0  0  0  0  0  0  0  0  0  0  0
    8.4576  -12.8320   21.2864 C   0  0  0  0  0  0  0  0  0  0  0  0
    8.9038  -14.2058   21.6560 C   0  0  1  0  0  0  0  0  0  0  0  0
    8.4957  -14.6303   23.0111 C   0  0  0  0  0  0  0  0  0  0  0  0
    7.3198  -15.0593   23.1630 O   0  0  0  0  0  0  0  0  0  0  0  0
    9.3558  -14.5782   24.1361 N   0  0  0  0  0  0  0  0  0  0  0  0
    9.0473  -15.3030   25.3642 C   0  0  1  0  0  0  0  0  0  0  0  0
    7.5858  -15.3458   25.6341 C   0  0  0  0  0  0  0  0  0  0  0  0
    7.0859  -14.0067   26.0021 C   0  0  0  0  0  0  0  0  0  0  0  0
    7.7912  -12.8404   26.2803 C   0  0  0  0  0  0  0  0  0  0  0  0
    6.9589  -11.8408   26.5961 N   0  0  0  0  0  0  0  0  0  0  0  0
    5.7212  -12.3561   26.5229 C   0  0  0  0  0  0  0  0  0  0  0  0
    5.7772  -13.6486   26.1696 N   0  0  0  0  0  0  0  0  0  0  0  0
    9.6691  -16.6432   25.3558 C   0  0  0  0  0  0  0  0  0  0  0  0
   11.0598  -16.7987   25.5650 O   0  0  0  0  0  0  0  0  0  0  0  0
    9.0591  -17.7228   25.1720 O   0  0  0  0  0  0  0  0  0  0  0  0
  2  1  1  0
  3  2  2  0
  4  2  1  0
  5  4  1  0
  5  6  1  1
  7  5  1  0
  7  9  1  0
  8  7  2  0
  9 13  1  0
 10  9  1  0
 10 11  1  0
 11 12  1  0
 13 14  1  1
 13 12  1  0
 14 15  2  0
 16 17  1  0
 16 14  1  0
 17 18  1  6
 18 19  1  0
 19 23  1  0
 20 19  2  0
 20 21  1  0
 21 22  1  0
 23 22  2  0
 24 25  1  0
 24 17  1  0
 26 24  2  0
M  END
$$$$
