NPH.pdb
     RDKit          3D

 26 27  0  0  1  0  0  0  0  0999 V2000
    8.0645  -19.1751   16.8638 N   0  0  0  0  0  0  0  0  0  0  0  0
    7.4430  -19.3325   18.1259 C   0  0  0  0  0  0  0  0  0  0  0  0
    6.8746  -20.4199   18.3732 O   0  0  0  0  0  0  0  0  0  0  0  0
    7.4363  -18.2790   19.1542 C   0  0  0  0  0  0  0  0  0  0  0  0
    8.1038  -17.0034   18.6733 C   0  0  2  0  0  0  0  0  0  0  0  0
    8.9913  -17.3054   17.5392 N   0  0  0  0  0  0  0  0  0  0  0  0
    8.8704  -16.3475   19.7498 C   0  0  0  0  0  0  0  0  0  0  0  0
   10.1458  -16.4013   19.6758 O   0  0  0  0  0  0  0  0  0  0  0  0
    8.2946  -15.6653   20.8540 N   0  0  0  0  0  0  0  0  0  0  0  0
    6.8915  -15.4866   21.1449 C   0  0  0  0  0  0  0  0  0  0  0  0
    6.8466  -14.0461   21.6402 C   0  0  0  0  0  0  0  0  0  0  0  0
    8.2363  -13.7390   22.1109 C   0  0  0  0  0  0  0  0  0  0  0  0
    9.0141  -14.9961   21.9160 C   0  0  1  0  0  0  0  0  0  0  0  0
    9.1024  -15.8459   23.1215 C   0  0  0  0  0  0  0  0  0  0  0  0
    8.1067  -16.5645   23.4077 O   0  0  0  0  0  0  0  0  0  0  0  0
   10.2426  -15.8901   23.9619 N   0  0  0  0  0  0  0  0  0  0  0  0
   10.3914  -16.9153   24.9892 C   0  0  1  0  0  0  0  0  0  0  0  0
   11.7338  -17.5533   24.9498 C   0  0  0  0  0  0  0  0  0  0  0  0
   12.0011  -18.1193   23.6130 C   0  0  0  0  0  0  0  0  0  0  0  0
   11.2079  -18.9445   22.8225 C   0  0  0  0  0  0  0  0  0  0  0  0
   11.8300  -19.2547   21.6787 N   0  0  0  0  0  0  0  0  0  0  0  0
   13.0197  -18.6342   21.7274 C   0  0  0  0  0  0  0  0  0  0  0  0
   13.1397  -17.9512   22.8753 N   0  0  0  0  0  0  0  0  0  0  0  0
   10.0496  -16.3790   26.3227 C   0  0  0  0  0  0  0  0  0  0  0  0
    9.6310  -15.0365   26.4789 O   0  0  0  0  0  0  0  0  0  0  0  0
   10.0935  -17.0256   27.3957 O   0  0  0  0  0  0  0  0  0  0  0  0
  2  1  1  0
  3  2  2  0
  4  2  1  0
  5  4  1  0
  5  6  1  6
  7  5  1  0
  7  9  1  0
  8  7  2  0
  9 13  1  0
 10  9  1  0
 10 11  1  0
 11 12  1  0
 13 14  1  1
 13 12  1  0
 14 15  2  0
 16 17  1  0
 16 14  1  0
 17 18  1  1
 18 19  1  0
 19 23  1  0
 20 19  2  0
 20 21  1  0
 21 22  1  0
 23 22  2  0
 24 25  1  0
 24 17  1  0
 26 24  2  0
M  END
$$$$
