NPH.pdb
     RDKit          3D

 26 27  0  0  1  0  0  0  0  0999 V2000
    9.2427  -18.2960   17.6217 N   0  0  0  0  0  0  0  0  0  0  0  0
    7.8851  -17.9329   17.4515 C   0  0  0  0  0  0  0  0  0  0  0  0
    7.0104  -18.8052   17.6527 O   0  0  0  0  0  0  0  0  0  0  0  0
    7.4598  -16.5817   17.0506 C   0  0  0  0  0  0  0  0  0  0  0  0
    8.6328  -15.6284   16.9119 C   0  0  2  0  0  0  0  0  0  0  0  0
    9.6412  -16.2106   16.0123 N   0  0  0  0  0  0  0  0  0  0  0  0
    9.2444  -15.3194   18.2185 C   0  0  0  0  0  0  0  0  0  0  0  0
   10.4586  -15.6792   18.3956 O   0  0  0  0  0  0  0  0  0  0  0  0
    8.5834  -14.6548   19.2851 N   0  0  0  0  0  0  0  0  0  0  0  0
    7.2591  -14.0791   19.2786 C   0  0  0  0  0  0  0  0  0  0  0  0
    7.4661  -12.7875   20.0605 C   0  0  0  0  0  0  0  0  0  0  0  0
    8.6912  -13.0138   20.8942 C   0  0  0  0  0  0  0  0  0  0  0  0
    9.1211  -14.4121   20.6062 C   0  0  1  0  0  0  0  0  0  0  0  0
    8.6262  -15.4094   21.5776 C   0  0  0  0  0  0  0  0  0  0  0  0
    7.7167  -16.1965   21.1994 O   0  0  0  0  0  0  0  0  0  0  0  0
    9.1215  -15.5210   22.9006 N   0  0  0  0  0  0  0  0  0  0  0  0
   10.0515  -16.5798   23.2783 C   0  0  1  0  0  0  0  0  0  0  0  0
   11.2035  -16.6698   22.3427 C   0  0  0  0  0  0  0  0  0  0  0  0
   11.0634  -17.8423   21.4571 C   0  0  0  0  0  0  0  0  0  0  0  0
   10.0649  -18.8099   21.4150 C   0  0  0  0  0  0  0  0  0  0  0  0
   10.3234  -19.7246   20.4726 N   0  0  0  0  0  0  0  0  0  0  0  0
   11.4828  -19.3522   19.9071 C   0  0  0  0  0  0  0  0  0  0  0  0
   11.9398  -18.2301   20.4822 N   0  0  0  0  0  0  0  0  0  0  0  0
   10.4672  -16.4382   24.6889 C   0  0  0  0  0  0  0  0  0  0  0  0
   11.0553  -15.2384   25.1546 O   0  0  0  0  0  0  0  0  0  0  0  0
   10.3474  -17.3210   25.5708 O   0  0  0  0  0  0  0  0  0  0  0  0
  2  1  1  0
  3  2  2  0
  4  2  1  0
  5  4  1  0
  5  6  1  6
  7  5  1  0
  7  9  1  0
  8  7  2  0
  9 13  1  0
 10  9  1  0
 10 11  1  0
 11 12  1  0
 13 14  1  1
 13 12  1  0
 14 15  2  0
 16 17  1  0
 16 14  1  0
 17 18  1  6
 18 19  1  0
 19 23  1  0
 20 19  2  0
 20 21  1  0
 21 22  1  0
 23 22  2  0
 24 25  1  0
 24 17  1  0
 26 24  2  0
M  END
$$$$
