NPH.pdb
     RDKit          3D

 26 27  0  0  1  0  0  0  0  0999 V2000
   13.6616  -19.1213   18.7364 N   0  0  0  0  0  0  0  0  0  0  0  0
   12.3551  -18.9726   18.2121 C   0  0  0  0  0  0  0  0  0  0  0  0
   11.9064  -19.8808   17.4769 O   0  0  0  0  0  0  0  0  0  0  0  0
   11.5061  -17.8029   18.4923 C   0  0  0  0  0  0  0  0  0  0  0  0
   10.8526  -17.8827   19.8600 C   0  0  2  0  0  0  0  0  0  0  0  0
    9.7780  -18.8877   19.8382 N   0  0  0  0  0  0  0  0  0  0  0  0
   10.3110  -16.5777   20.2847 C   0  0  0  0  0  0  0  0  0  0  0  0
   11.1454  -15.6217   20.4424 O   0  0  0  0  0  0  0  0  0  0  0  0
    8.9378  -16.3114   20.5286 N   0  0  0  0  0  0  0  0  0  0  0  0
    7.8305  -17.2330   20.4289 C   0  0  0  0  0  0  0  0  0  0  0  0
    6.7509  -16.3702   19.7864 C   0  0  0  0  0  0  0  0  0  0  0  0
    7.1320  -14.9535   20.0943 C   0  0  0  0  0  0  0  0  0  0  0  0
    8.3693  -15.0403   20.9216 C   0  0  1  0  0  0  0  0  0  0  0  0
    8.1279  -14.9889   22.3783 C   0  0  0  0  0  0  0  0  0  0  0  0
    8.0630  -16.0829   23.0019 O   0  0  0  0  0  0  0  0  0  0  0  0
    7.9677  -13.7796   23.0995 N   0  0  0  0  0  0  0  0  0  0  0  0
    7.7050  -13.7785   24.5346 C   0  0  1  0  0  0  0  0  0  0  0  0
    6.9396  -12.5770   24.9604 C   0  0  0  0  0  0  0  0  0  0  0  0
    6.7997  -12.5437   26.4294 C   0  0  0  0  0  0  0  0  0  0  0  0
    7.7797  -12.4739   27.4141 C   0  0  0  0  0  0  0  0  0  0  0  0
    7.2334  -12.4884   28.6359 N   0  0  0  0  0  0  0  0  0  0  0  0
    5.9068  -12.5673   28.4444 C   0  0  0  0  0  0  0  0  0  0  0  0
    5.6289  -12.6014   27.1329 N   0  0  0  0  0  0  0  0  0  0  0  0
    7.0682  -15.0436   24.9551 C   0  0  0  0  0  0  0  0  0  0  0  0
    7.5724  -15.7790   26.0538 O   0  0  0  0  0  0  0  0  0  0  0  0
    6.0685  -15.5669   24.4093 O   0  0  0  0  0  0  0  0  0  0  0  0
  2  1  1  0
  3  2  2  0
  4  2  1  0
  5  4  1  0
  5  6  1  6
  7  5  1  0
  7  9  1  0
  8  7  2  0
  9 13  1  0
 10  9  1  0
 10 11  1  0
 11 12  1  0
 13 14  1  1
 13 12  1  0
 14 15  2  0
 16 17  1  0
 16 14  1  0
 17 18  1  6
 18 19  1  0
 19 23  1  0
 20 19  2  0
 20 21  1  0
 21 22  1  0
 23 22  2  0
 24 25  1  0
 24 17  1  0
 26 24  2  0
M  END
$$$$
