NPH.pdb
     RDKit          3D

 26 27  0  0  1  0  0  0  0  0999 V2000
    6.9087  -15.9477   20.1835 N   0  0  0  0  0  0  0  0  0  0  0  0
    6.2268  -16.2569   21.3848 C   0  0  0  0  0  0  0  0  0  0  0  0
    5.3919  -17.1892   21.3673 O   0  0  0  0  0  0  0  0  0  0  0  0
    6.4557  -15.5338   22.6466 C   0  0  0  0  0  0  0  0  0  0  0  0
    7.4803  -14.4242   22.4944 C   0  0  2  0  0  0  0  0  0  0  0  0
    8.4088  -14.7533   21.4014 N   0  0  0  0  0  0  0  0  0  0  0  0
    8.2338  -14.2001   23.7429 C   0  0  0  0  0  0  0  0  0  0  0  0
    9.4935  -14.4177   23.7126 O   0  0  0  0  0  0  0  0  0  0  0  0
    7.6618  -13.7624   24.9665 N   0  0  0  0  0  0  0  0  0  0  0  0
    6.3221  -13.2703   25.1866 C   0  0  0  0  0  0  0  0  0  0  0  0
    6.5579  -12.1182   26.1559 C   0  0  0  0  0  0  0  0  0  0  0  0
    7.8714  -12.4106   26.8165 C   0  0  0  0  0  0  0  0  0  0  0  0
    8.3244  -13.7140   26.2518 C   0  0  1  0  0  0  0  0  0  0  0  0
    7.9738  -14.8865   27.0797 C   0  0  0  0  0  0  0  0  0  0  0  0
    6.8033  -15.3451   26.9828 O   0  0  0  0  0  0  0  0  0  0  0  0
    8.8828  -15.5130   27.9682 N   0  0  0  0  0  0  0  0  0  0  0  0
    9.3235  -16.8883   27.7614 C   0  0  1  0  0  0  0  0  0  0  0  0
    9.7501  -17.1320   26.3582 C   0  0  0  0  0  0  0  0  0  0  0  0
    8.6849  -17.8208   25.6034 C   0  0  0  0  0  0  0  0  0  0  0  0
    7.4536  -18.2989   26.0395 C   0  0  0  0  0  0  0  0  0  0  0  0
    6.7854  -18.8854   25.0390 N   0  0  0  0  0  0  0  0  0  0  0  0
    7.5791  -18.7882   23.9603 C   0  0  0  0  0  0  0  0  0  0  0  0
    8.7180  -18.1554   24.2783 N   0  0  0  0  0  0  0  0  0  0  0  0
   10.3556  -17.2655   28.7490 C   0  0  0  0  0  0  0  0  0  0  0  0
   10.1456  -18.3429   29.6418 O   0  0  0  0  0  0  0  0  0  0  0  0
   11.4647  -16.6985   28.8889 O   0  0  0  0  0  0  0  0  0  0  0  0
  2  1  1  0
  3  2  2  0
  4  2  1  0
  5  4  1  0
  5  6  1  6
  7  5  1  0
  7  9  1  0
  8  7  2  0
  9 13  1  0
 10  9  1  0
 10 11  1  0
 11 12  1  0
 13 14  1  1
 13 12  1  0
 14 15  2  0
 16 17  1  0
 16 14  1  0
 17 18  1  6
 18 19  1  0
 19 23  1  0
 20 19  2  0
 20 21  1  0
 21 22  1  0
 23 22  2  0
 24 25  1  0
 24 17  1  0
 26 24  2  0
M  END
$$$$
