NPH.pdb
     RDKit          3D

 26 27  0  0  1  0  0  0  0  0999 V2000
    7.3137  -19.2362   16.8227 N   0  0  0  0  0  0  0  0  0  0  0  0
    6.4828  -18.7759   17.8722 C   0  0  0  0  0  0  0  0  0  0  0  0
    5.7360  -19.6037   18.4411 O   0  0  0  0  0  0  0  0  0  0  0  0
    6.4591  -17.3740   18.3211 C   0  0  0  0  0  0  0  0  0  0  0  0
    7.4713  -16.5176   17.5822 C   0  0  2  0  0  0  0  0  0  0  0  0
    8.0663  -17.2919   16.4814 N   0  0  0  0  0  0  0  0  0  0  0  0
    8.5327  -16.0262   18.4814 C   0  0  0  0  0  0  0  0  0  0  0  0
    9.7238  -16.4341   18.2577 O   0  0  0  0  0  0  0  0  0  0  0  0
    8.3253  -15.1383   19.5697 N   0  0  0  0  0  0  0  0  0  0  0  0
    7.0750  -14.5722   20.0189 C   0  0  0  0  0  0  0  0  0  0  0  0
    7.4729  -13.1401   20.3556 C   0  0  0  0  0  0  0  0  0  0  0  0
    8.9504  -13.1812   20.6056 C   0  0  0  0  0  0  0  0  0  0  0  0
    9.3451  -14.6105   20.4499 C   0  0  1  0  0  0  0  0  0  0  0  0
    9.3999  -15.3647   21.7193 C   0  0  0  0  0  0  0  0  0  0  0  0
    8.3131  -15.5828   22.3202 O   0  0  0  0  0  0  0  0  0  0  0  0
   10.6047  -15.8493   22.2865 N   0  0  0  0  0  0  0  0  0  0  0  0
   10.5977  -16.7352   23.4457 C   0  0  1  0  0  0  0  0  0  0  0  0
   11.4376  -17.9429   23.2295 C   0  0  0  0  0  0  0  0  0  0  0  0
   11.0185  -18.6551   22.0065 C   0  0  0  0  0  0  0  0  0  0  0  0
    9.7416  -18.9825   21.5622 C   0  0  0  0  0  0  0  0  0  0  0  0
    9.7942  -19.6550   20.4061 N   0  0  0  0  0  0  0  0  0  0  0  0
   11.0977  -19.7630   20.1027 C   0  0  0  0  0  0  0  0  0  0  0  0
   11.8441  -19.1718   21.0471 N   0  0  0  0  0  0  0  0  0  0  0  0
   10.9575  -15.9983   24.6747 C   0  0  0  0  0  0  0  0  0  0  0  0
   10.9312  -16.6369   25.9370 O   0  0  0  0  0  0  0  0  0  0  0  0
   11.3044  -14.7946   24.7213 O   0  0  0  0  0  0  0  0  0  0  0  0
  2  1  1  0
  3  2  2  0
  4  2  1  0
  5  4  1  0
  5  6  1  6
  7  5  1  0
  7  9  1  0
  8  7  2  0
  9 13  1  0
 10  9  1  0
 10 11  1  0
 11 12  1  0
 13 14  1  1
 13 12  1  0
 14 15  2  0
 16 17  1  0
 16 14  1  0
 17 18  1  6
 18 19  1  0
 19 23  1  0
 20 19  2  0
 20 21  1  0
 21 22  1  0
 23 22  2  0
 24 25  1  0
 24 17  1  0
 26 24  2  0
M  END
$$$$
