NPH.pdb
     RDKit          3D

 26 27  0  0  1  0  0  0  0  0999 V2000
    7.5044  -19.6977   16.9614 N   0  0  0  0  0  0  0  0  0  0  0  0
    6.9769  -18.4015   16.7478 C   0  0  0  0  0  0  0  0  0  0  0  0
    6.2900  -18.2051   15.7200 O   0  0  0  0  0  0  0  0  0  0  0  0
    7.1998  -17.2811   17.6764 C   0  0  0  0  0  0  0  0  0  0  0  0
    8.2634  -16.3220   17.1736 C   0  0  2  0  0  0  0  0  0  0  0  0
    9.1842  -17.0314   16.2713 N   0  0  0  0  0  0  0  0  0  0  0  0
    9.0193  -15.7119   18.2841 C   0  0  0  0  0  0  0  0  0  0  0  0
   10.2686  -15.9750   18.3551 O   0  0  0  0  0  0  0  0  0  0  0  0
    8.4602  -14.8589   19.2719 N   0  0  0  0  0  0  0  0  0  0  0  0
    7.0891  -14.4192   19.3826 C   0  0  0  0  0  0  0  0  0  0  0  0
    7.2513  -12.9592   19.7883 C   0  0  0  0  0  0  0  0  0  0  0  0
    8.6146  -12.8618   20.4041 C   0  0  0  0  0  0  0  0  0  0  0  0
    9.1696  -14.2453   20.3736 C   0  0  1  0  0  0  0  0  0  0  0  0
    8.9729  -15.0038   21.6262 C   0  0  0  0  0  0  0  0  0  0  0  0
    7.7890  -15.2223   22.0007 O   0  0  0  0  0  0  0  0  0  0  0  0
   10.0422  -15.4919   22.4177 N   0  0  0  0  0  0  0  0  0  0  0  0
    9.8008  -16.3037   23.6057 C   0  0  1  0  0  0  0  0  0  0  0  0
    9.5909  -17.7365   23.2686 C   0  0  0  0  0  0  0  0  0  0  0  0
   10.7608  -18.2780   22.5498 C   0  0  0  0  0  0  0  0  0  0  0  0
   11.8694  -17.6168   22.0313 C   0  0  0  0  0  0  0  0  0  0  0  0
   12.7008  -18.4752   21.4282 N   0  0  0  0  0  0  0  0  0  0  0  0
   12.1343  -19.6859   21.5550 C   0  0  0  0  0  0  0  0  0  0  0  0
   10.9750  -19.5878   22.2221 N   0  0  0  0  0  0  0  0  0  0  0  0
   10.8660  -16.1001   24.6089 C   0  0  0  0  0  0  0  0  0  0  0  0
   10.7788  -16.6944   25.8901 O   0  0  0  0  0  0  0  0  0  0  0  0
   11.9017  -15.4153   24.4360 O   0  0  0  0  0  0  0  0  0  0  0  0
  2  1  1  0
  3  2  2  0
  4  2  1  0
  5  4  1  0
  5  6  1  6
  7  5  1  0
  7  9  1  0
  8  7  2  0
  9 13  1  0
 10  9  1  0
 10 11  1  0
 11 12  1  0
 13 14  1  1
 13 12  1  0
 14 15  2  0
 16 17  1  0
 16 14  1  0
 17 18  1  6
 18 19  1  0
 19 23  1  0
 20 19  2  0
 20 21  1  0
 21 22  1  0
 23 22  2  0
 24 25  1  0
 24 17  1  0
 26 24  2  0
M  END
$$$$
