NPH.pdb
     RDKit          3D

 26 27  0  0  1  0  0  0  0  0999 V2000
    6.7132  -17.1486   16.9361 N   0  0  0  0  0  0  0  0  0  0  0  0
    7.8496  -17.8260   16.4324 C   0  0  0  0  0  0  0  0  0  0  0  0
    7.7966  -19.0721   16.3279 O   0  0  0  0  0  0  0  0  0  0  0  0
    9.0837  -17.1325   16.0282 C   0  0  0  0  0  0  0  0  0  0  0  0
    8.9975  -15.6330   16.2476 C   0  0  2  0  0  0  0  0  0  0  0  0
    9.7340  -14.9330   15.1833 N   0  0  0  0  0  0  0  0  0  0  0  0
    9.5289  -15.2414   17.5670 C   0  0  0  0  0  0  0  0  0  0  0  0
   10.7941  -15.3205   17.7347 O   0  0  0  0  0  0  0  0  0  0  0  0
    8.7391  -14.7859   18.6555 N   0  0  0  0  0  0  0  0  0  0  0  0
    7.3103  -14.5780   18.6810 C   0  0  0  0  0  0  0  0  0  0  0  0
    7.1875  -13.2864   19.4804 C   0  0  0  0  0  0  0  0  0  0  0  0
    8.4461  -13.1926   20.2893 C   0  0  0  0  0  0  0  0  0  0  0  0
    9.2217  -14.4256   19.9710 C   0  0  1  0  0  0  0  0  0  0  0  0
    9.0260  -15.5288   20.9342 C   0  0  0  0  0  0  0  0  0  0  0  0
    8.2056  -16.4363   20.6290 O   0  0  0  0  0  0  0  0  0  0  0  0
    9.7106  -15.6132   22.1721 N   0  0  0  0  0  0  0  0  0  0  0  0
   10.7326  -16.6272   22.4089 C   0  0  1  0  0  0  0  0  0  0  0  0
   11.7725  -16.6294   21.3463 C   0  0  0  0  0  0  0  0  0  0  0  0
   11.5803  -17.7732   20.4335 C   0  0  0  0  0  0  0  0  0  0  0  0
   10.6035  -18.7636   20.4432 C   0  0  0  0  0  0  0  0  0  0  0  0
   10.7975  -19.6379   19.4485 N   0  0  0  0  0  0  0  0  0  0  0  0
   11.8938  -19.2168   18.7977 C   0  0  0  0  0  0  0  0  0  0  0  0
   12.3752  -18.1045   19.3717 N   0  0  0  0  0  0  0  0  0  0  0  0
   11.2996  -16.4972   23.7669 C   0  0  0  0  0  0  0  0  0  0  0  0
   11.6417  -15.2283   24.2916 O   0  0  0  0  0  0  0  0  0  0  0  0
   11.5238  -17.4487   24.5516 O   0  0  0  0  0  0  0  0  0  0  0  0
  2  1  1  0
  3  2  2  0
  4  2  1  0
  5  4  1  0
  5  6  1  6
  7  5  1  0
  7  9  1  0
  8  7  2  0
  9 13  1  0
 10  9  1  0
 10 11  1  0
 11 12  1  0
 13 14  1  1
 13 12  1  0
 14 15  2  0
 16 17  1  0
 16 14  1  0
 17 18  1  6
 18 19  1  0
 19 23  1  0
 20 19  2  0
 20 21  1  0
 21 22  1  0
 23 22  2  0
 24 25  1  0
 24 17  1  0
 26 24  2  0
M  END
$$$$
