NPH.pdb
     RDKit          3D

 26 27  0  0  1  0  0  0  0  0999 V2000
    7.4941  -17.5338   15.0281 N   0  0  0  0  0  0  0  0  0  0  0  0
    7.3152  -18.0199   16.3455 C   0  0  0  0  0  0  0  0  0  0  0  0
    6.6605  -19.0751   16.5022 O   0  0  0  0  0  0  0  0  0  0  0  0
    7.8625  -17.3423   17.5323 C   0  0  0  0  0  0  0  0  0  0  0  0
    8.6199  -16.0770   17.1724 C   0  0  2  0  0  0  0  0  0  0  0  0
    9.6914  -16.3957   16.2155 N   0  0  0  0  0  0  0  0  0  0  0  0
    9.1903  -15.4225   18.3652 C   0  0  0  0  0  0  0  0  0  0  0  0
   10.4566  -15.4996   18.5252 O   0  0  0  0  0  0  0  0  0  0  0  0
    8.4366  -14.7179   19.3407 N   0  0  0  0  0  0  0  0  0  0  0  0
    7.0238  -14.4200   19.3163 C   0  0  0  0  0  0  0  0  0  0  0  0
    6.9865  -12.9937   19.8518 C   0  0  0  0  0  0  0  0  0  0  0  0
    8.2529  -12.8251   20.6359 C   0  0  0  0  0  0  0  0  0  0  0  0
    8.9480  -14.1423   20.5656 C   0  0  1  0  0  0  0  0  0  0  0  0
    8.6889  -15.0254   21.7215 C   0  0  0  0  0  0  0  0  0  0  0  0
    7.5459  -15.5491   21.8159 O   0  0  0  0  0  0  0  0  0  0  0  0
    9.6557  -15.3082   22.7183 N   0  0  0  0  0  0  0  0  0  0  0  0
    9.5010  -16.4366   23.6301 C   0  0  1  0  0  0  0  0  0  0  0  0
   10.3592  -17.5875   23.2435 C   0  0  0  0  0  0  0  0  0  0  0  0
   11.7844  -17.2041   23.2675 C   0  0  0  0  0  0  0  0  0  0  0  0
   12.6077  -16.7780   22.2304 C   0  0  0  0  0  0  0  0  0  0  0  0
   13.8515  -16.5492   22.6688 N   0  0  0  0  0  0  0  0  0  0  0  0
   13.8346  -16.8255   23.9827 C   0  0  0  0  0  0  0  0  0  0  0  0
   12.6085  -17.2182   24.3582 N   0  0  0  0  0  0  0  0  0  0  0  0
    9.7042  -16.0141   25.0312 C   0  0  0  0  0  0  0  0  0  0  0  0
    9.4508  -16.9046   26.1011 O   0  0  0  0  0  0  0  0  0  0  0  0
   10.1012  -14.8822   25.3953 O   0  0  0  0  0  0  0  0  0  0  0  0
  2  1  1  0
  3  2  2  0
  4  2  1  0
  5  4  1  0
  5  6  1  6
  7  5  1  0
  7  9  1  0
  8  7  2  0
  9 13  1  0
 10  9  1  0
 10 11  1  0
 11 12  1  0
 13 14  1  1
 13 12  1  0
 14 15  2  0
 16 17  1  0
 16 14  1  0
 17 18  1  6
 18 19  1  0
 19 23  1  0
 20 19  2  0
 20 21  1  0
 21 22  1  0
 23 22  2  0
 24 25  1  0
 24 17  1  0
 26 24  2  0
M  END
$$$$
