NPH.pdb
     RDKit          3D

 26 27  0  0  1  0  0  0  0  0999 V2000
    7.2171  -18.6146   15.4719 N   0  0  0  0  0  0  0  0  0  0  0  0
    6.6723  -18.6683   16.7774 C   0  0  0  0  0  0  0  0  0  0  0  0
    6.0675  -19.7082   17.1230 O   0  0  0  0  0  0  0  0  0  0  0  0
    6.7855  -17.5607   17.7406 C   0  0  0  0  0  0  0  0  0  0  0  0
    7.5408  -16.3758   17.1664 C   0  0  2  0  0  0  0  0  0  0  0  0
    8.1840  -16.7638   15.9010 N   0  0  0  0  0  0  0  0  0  0  0  0
    8.5544  -15.8642   18.1085 C   0  0  0  0  0  0  0  0  0  0  0  0
    9.7796  -16.1161   17.8429 O   0  0  0  0  0  0  0  0  0  0  0  0
    8.2662  -15.1168   19.2808 N   0  0  0  0  0  0  0  0  0  0  0  0
    6.9708  -14.6973   19.7620 C   0  0  0  0  0  0  0  0  0  0  0  0
    7.2541  -13.2843   20.2576 C   0  0  0  0  0  0  0  0  0  0  0  0
    8.7271  -13.2419   20.5322 C   0  0  0  0  0  0  0  0  0  0  0  0
    9.2317  -14.6126   20.2331 C   0  0  1  0  0  0  0  0  0  0  0  0
    9.3280  -15.4932   21.4157 C   0  0  0  0  0  0  0  0  0  0  0  0
    8.2618  -15.9990   21.8597 O   0  0  0  0  0  0  0  0  0  0  0  0
   10.5506  -15.7926   22.0668 N   0  0  0  0  0  0  0  0  0  0  0  0
   10.6217  -16.7866   23.1324 C   0  0  1  0  0  0  0  0  0  0  0  0
   11.8056  -17.6745   22.9885 C   0  0  0  0  0  0  0  0  0  0  0  0
   11.7867  -18.3577   21.6802 C   0  0  0  0  0  0  0  0  0  0  0  0
   10.7142  -18.8850   20.9684 C   0  0  0  0  0  0  0  0  0  0  0  0
   11.1268  -19.4456   19.8252 N   0  0  0  0  0  0  0  0  0  0  0  0
   12.4593  -19.2827   19.7960 C   0  0  0  0  0  0  0  0  0  0  0  0
   12.8714  -18.6351   20.8957 N   0  0  0  0  0  0  0  0  0  0  0  0
   10.5449  -16.1429   24.4600 C   0  0  0  0  0  0  0  0  0  0  0  0
   10.4545  -14.7359   24.5796 O   0  0  0  0  0  0  0  0  0  0  0  0
   10.5517  -16.7468   25.5585 O   0  0  0  0  0  0  0  0  0  0  0  0
  2  1  1  0
  3  2  2  0
  4  2  1  0
  5  4  1  0
  5  6  1  6
  7  5  1  0
  7  9  1  0
  8  7  2  0
  9 13  1  0
 10  9  1  0
 10 11  1  0
 11 12  1  0
 13 14  1  1
 13 12  1  0
 14 15  2  0
 16 17  1  0
 16 14  1  0
 17 18  1  1
 18 19  1  0
 19 23  1  0
 20 19  2  0
 20 21  1  0
 21 22  1  0
 23 22  2  0
 24 25  1  0
 24 17  1  0
 26 24  2  0
M  END
$$$$
