NPH.pdb
     RDKit          3D

 26 27  0  0  1  0  0  0  0  0999 V2000
    8.2439  -16.5187   22.0762 N   0  0  0  0  0  0  0  0  0  0  0  0
    6.8821  -16.4236   22.4511 C   0  0  0  0  0  0  0  0  0  0  0  0
    6.2371  -17.4846   22.6085 O   0  0  0  0  0  0  0  0  0  0  0  0
    6.1957  -15.1385   22.6625 C   0  0  0  0  0  0  0  0  0  0  0  0
    7.1199  -13.9529   22.4523 C   0  0  2  0  0  0  0  0  0  0  0  0
    7.7992  -14.0780   21.1530 N   0  0  0  0  0  0  0  0  0  0  0  0
    8.1187  -13.8393   23.5321 C   0  0  0  0  0  0  0  0  0  0  0  0
    9.3511  -13.9076   23.1983 O   0  0  0  0  0  0  0  0  0  0  0  0
    7.8089  -13.6603   24.9062 N   0  0  0  0  0  0  0  0  0  0  0  0
    6.5001  -13.5827   25.5114 C   0  0  0  0  0  0  0  0  0  0  0  0
    6.6872  -12.4752   26.5415 C   0  0  0  0  0  0  0  0  0  0  0  0
    8.1602  -12.4252   26.8154 C   0  0  0  0  0  0  0  0  0  0  0  0
    8.7608  -13.5083   25.9852 C   0  0  1  0  0  0  0  0  0  0  0  0
    8.9614  -14.7824   26.7061 C   0  0  0  0  0  0  0  0  0  0  0  0
    7.9428  -15.4816   26.9575 O   0  0  0  0  0  0  0  0  0  0  0  0
   10.2324  -15.2498   27.1235 N   0  0  0  0  0  0  0  0  0  0  0  0
   10.3880  -16.5376   27.7913 C   0  0  1  0  0  0  0  0  0  0  0  0
   11.5654  -17.2903   27.2837 C   0  0  0  0  0  0  0  0  0  0  0  0
   11.4841  -17.4561   25.8192 C   0  0  0  0  0  0  0  0  0  0  0  0
   10.4571  -17.1219   24.9426 C   0  0  0  0  0  0  0  0  0  0  0  0
   10.7705  -17.4596   23.6860 N   0  0  0  0  0  0  0  0  0  0  0  0
   11.9939  -18.0097   23.7475 C   0  0  0  0  0  0  0  0  0  0  0  0
   12.4361  -18.0163   25.0136 N   0  0  0  0  0  0  0  0  0  0  0  0
   10.4018  -16.3720   29.2593 C   0  0  0  0  0  0  0  0  0  0  0  0
   10.4685  -17.4967   30.1154 O   0  0  0  0  0  0  0  0  0  0  0  0
   10.3580  -15.2750   29.8643 O   0  0  0  0  0  0  0  0  0  0  0  0
  2  1  1  0
  3  2  2  0
  4  2  1  0
  5  4  1  0
  5  6  1  6
  7  5  1  0
  7  9  1  0
  8  7  2  0
  9 13  1  0
 10  9  1  0
 10 11  1  0
 11 12  1  0
 13 14  1  1
 13 12  1  0
 14 15  2  0
 16 17  1  0
 16 14  1  0
 17 18  1  6
 18 19  1  0
 19 23  1  0
 20 19  2  0
 20 21  1  0
 21 22  1  0
 23 22  2  0
 24 25  1  0
 24 17  1  0
 26 24  2  0
M  END
$$$$
