NPH.pdb
     RDKit          3D

 26 27  0  0  1  0  0  0  0  0999 V2000
    6.2571  -19.9633   16.7386 N   0  0  0  0  0  0  0  0  0  0  0  0
    6.0370  -18.7777   17.4802 C   0  0  0  0  0  0  0  0  0  0  0  0
    4.8922  -18.2721   17.4602 O   0  0  0  0  0  0  0  0  0  0  0  0
    7.0900  -18.1176   18.2694 C   0  0  0  0  0  0  0  0  0  0  0  0
    7.6454  -16.8894   17.5714 C   0  0  2  0  0  0  0  0  0  0  0  0
    8.2685  -17.2823   16.2976 N   0  0  0  0  0  0  0  0  0  0  0  0
    8.6275  -16.1791   18.4127 C   0  0  0  0  0  0  0  0  0  0  0  0
    9.8650  -16.3592   18.1456 O   0  0  0  0  0  0  0  0  0  0  0  0
    8.2966  -15.3155   19.4901 N   0  0  0  0  0  0  0  0  0  0  0  0
    6.9792  -14.9153   19.9257 C   0  0  0  0  0  0  0  0  0  0  0  0
    7.1819  -13.4399   20.2491 C   0  0  0  0  0  0  0  0  0  0  0  0
    8.6500  -13.2828   20.5083 C   0  0  0  0  0  0  0  0  0  0  0  0
    9.2313  -14.6488   20.3705 C   0  0  1  0  0  0  0  0  0  0  0  0
    9.3760  -15.3764   21.6482 C   0  0  0  0  0  0  0  0  0  0  0  0
    8.3237  -15.6906   22.2676 O   0  0  0  0  0  0  0  0  0  0  0  0
   10.6297  -15.7338   22.2039 N   0  0  0  0  0  0  0  0  0  0  0  0
   10.7230  -16.5580   23.4041 C   0  0  1  0  0  0  0  0  0  0  0  0
   11.5641  -17.7648   23.1877 C   0  0  0  0  0  0  0  0  0  0  0  0
   11.0274  -18.5805   22.0807 C   0  0  0  0  0  0  0  0  0  0  0  0
    9.7326  -18.6538   21.5776 C   0  0  0  0  0  0  0  0  0  0  0  0
    9.6569  -19.5390   20.5764 N   0  0  0  0  0  0  0  0  0  0  0  0
   10.8955  -20.0367   20.4315 C   0  0  0  0  0  0  0  0  0  0  0  0
   11.7276  -19.4760   21.3214 N   0  0  0  0  0  0  0  0  0  0  0  0
   11.1607  -15.7535   24.5634 C   0  0  0  0  0  0  0  0  0  0  0  0
   11.2118  -16.3180   25.8599 O   0  0  0  0  0  0  0  0  0  0  0  0
   11.5130  -14.5514   24.5185 O   0  0  0  0  0  0  0  0  0  0  0  0
  2  1  1  0
  3  2  2  0
  4  2  1  0
  5  4  1  0
  5  6  1  6
  7  5  1  0
  7  9  1  0
  8  7  2  0
  9 13  1  0
 10  9  1  0
 10 11  1  0
 11 12  1  0
 13 14  1  1
 13 12  1  0
 14 15  2  0
 16 17  1  0
 16 14  1  0
 17 18  1  6
 18 19  1  0
 19 23  1  0
 20 19  2  0
 20 21  1  0
 21 22  1  0
 23 22  2  0
 24 25  1  0
 24 17  1  0
 26 24  2  0
M  END
$$$$
