NPH.pdb
     RDKit          3D

 26 27  0  0  1  0  0  0  0  0999 V2000
    9.3413  -18.3740   17.5649 N   0  0  0  0  0  0  0  0  0  0  0  0
    7.9695  -18.0251   17.5415 C   0  0  0  0  0  0  0  0  0  0  0  0
    7.1422  -18.8500   17.9906 O   0  0  0  0  0  0  0  0  0  0  0  0
    7.4766  -16.7417   17.0150 C   0  0  0  0  0  0  0  0  0  0  0  0
    8.5984  -15.7431   16.7944 C   0  0  2  0  0  0  0  0  0  0  0  0
    9.6227  -16.3336   15.9184 N   0  0  0  0  0  0  0  0  0  0  0  0
    9.2110  -15.3181   18.0675 C   0  0  0  0  0  0  0  0  0  0  0  0
   10.4408  -15.6151   18.2525 O   0  0  0  0  0  0  0  0  0  0  0  0
    8.5349  -14.6071   19.0938 N   0  0  0  0  0  0  0  0  0  0  0  0
    7.1444  -14.2191   19.1279 C   0  0  0  0  0  0  0  0  0  0  0  0
    7.2163  -12.8162   19.7190 C   0  0  0  0  0  0  0  0  0  0  0  0
    8.5145  -12.7607   20.4665 C   0  0  0  0  0  0  0  0  0  0  0  0
    9.1200  -14.1155   20.3224 C   0  0  1  0  0  0  0  0  0  0  0  0
    8.8396  -15.0266   21.4514 C   0  0  0  0  0  0  0  0  0  0  0  0
    7.7657  -15.6865   21.4207 O   0  0  0  0  0  0  0  0  0  0  0  0
    9.7129  -15.1914   22.5552 N   0  0  0  0  0  0  0  0  0  0  0  0
    9.5807  -16.3218   23.4680 C   0  0  1  0  0  0  0  0  0  0  0  0
    9.9264  -17.6109   22.8127 C   0  0  0  0  0  0  0  0  0  0  0  0
   11.3554  -17.6396   22.4443 C   0  0  0  0  0  0  0  0  0  0  0  0
   12.3357  -16.6667   22.6101 C   0  0  0  0  0  0  0  0  0  0  0  0
   13.5095  -17.0800   22.1173 N   0  0  0  0  0  0  0  0  0  0  0  0
   13.2914  -18.3139   21.6346 C   0  0  0  0  0  0  0  0  0  0  0  0
   12.0106  -18.6649   21.8210 N   0  0  0  0  0  0  0  0  0  0  0  0
   10.3430  -16.0874   24.7116 C   0  0  0  0  0  0  0  0  0  0  0  0
   10.2316  -16.9741   25.8086 O   0  0  0  0  0  0  0  0  0  0  0  0
   11.1255  -15.1285   24.9108 O   0  0  0  0  0  0  0  0  0  0  0  0
  2  1  1  0
  3  2  2  0
  4  2  1  0
  5  4  1  0
  5  6  1  6
  7  5  1  0
  7  9  1  0
  8  7  2  0
  9 13  1  0
 10  9  1  0
 10 11  1  0
 11 12  1  0
 13 14  1  1
 13 12  1  0
 14 15  2  0
 16 17  1  0
 16 14  1  0
 17 18  1  6
 18 19  1  0
 19 23  1  0
 20 19  2  0
 20 21  1  0
 21 22  1  0
 23 22  2  0
 24 25  1  0
 24 17  1  0
 26 24  2  0
M  END
$$$$
