MSC.pdb
     RDKit          3D

 21 20  0  0  1  0  0  0  0  0999 V2000
    7.1983  -11.9906   27.6029 C   0  0  0  0  0  0  0  0  0  0  0  0
    6.2233  -11.7230   26.1101 S   0  0  0  0  0  0  0  0  0  0  0  0
    5.9516  -13.2707   25.2353 C   0  0  0  0  0  0  0  0  0  0  0  0
    7.1655  -14.1702   25.2780 C   0  0  0  0  0  0  0  0  0  0  0  0
    6.9289  -15.4953   24.5868 C   0  0  2  0  0  0  0  0  0  0  0  0
    5.8256  -16.2246   25.1626 N   0  0  0  0  0  0  0  0  0  0  0  0
    8.2040  -16.2531   24.6723 C   0  0  0  0  0  0  0  0  0  0  0  0
    8.3995  -16.9019   25.7311 O   0  0  0  0  0  0  0  0  0  0  0  0
   11.5924  -15.5282   22.2020 O   0  0  0  0  0  0  0  0  0  0  0  0
   11.1423  -16.8148   22.4139 C   0  0  0  0  0  0  0  0  0  0  0  0
   10.4168  -16.9955   23.7170 C   0  0  2  0  0  0  0  0  0  0  0  0
    9.1674  -16.2624   23.6316 N   0  0  0  0  0  0  0  0  0  0  0  0
   11.2513  -16.5277   24.8430 C   0  0  0  0  0  0  0  0  0  0  0  0
   11.7195  -15.3623   24.7809 O   0  0  0  0  0  0  0  0  0  0  0  0
   11.5552  -17.3078   25.9844 N   0  0  0  0  0  0  0  0  0  0  0  0
   11.7246  -16.7058   27.3027 C   0  0  1  0  0  0  0  0  0  0  0  0
   10.5495  -15.8191   27.6506 C   0  0  0  0  0  0  0  0  0  0  0  0
   11.1335  -14.3230   28.4506 S   0  0  0  0  0  0  0  0  0  0  0  0
   11.8639  -17.8167   28.2772 C   0  0  0  0  0  0  0  0  0  0  0  0
   12.5773  -17.6652   29.4647 O   0  0  0  0  0  0  0  0  0  0  0  0
   11.3412  -18.9399   28.0660 O   0  0  0  0  0  0  0  0  0  0  0  0
  2  1  1  0
  3  4  1  0
  3  2  1  0
  4  5  1  0
  5  7  1  0
  5  6  1  1
  7 12  1  0
  7  8  2  0
  9 10  1  0
 11 10  1  6
 11 13  1  0
 12 11  1  0
 13 15  1  0
 13 14  2  0
 15 16  1  0
 16 19  1  0
 16 17  1  1
 18 17  1  0
 19 20  1  0
 21 19  2  0
M  END
$$$$
