MSC.pdb
     RDKit          3D

 21 20  0  0  1  0  0  0  0  0999 V2000
    7.9290  -11.7670   20.6729 C   0  0  0  0  0  0  0  0  0  0  0  0
    7.6404  -12.5013   19.0516 S   0  0  0  0  0  0  0  0  0  0  0  0
    8.0881  -14.2432   19.0474 C   0  0  0  0  0  0  0  0  0  0  0  0
    8.1976  -14.8069   20.4456 C   0  0  0  0  0  0  0  0  0  0  0  0
    8.4257  -16.3027   20.4506 C   0  0  2  0  0  0  0  0  0  0  0  0
    7.3635  -17.0215   19.7906 N   0  0  0  0  0  0  0  0  0  0  0  0
    8.5722  -16.7057   21.8731 C   0  0  0  0  0  0  0  0  0  0  0  0
    7.5081  -16.8445   22.5279 O   0  0  0  0  0  0  0  0  0  0  0  0
   12.3338  -17.7434   23.5625 O   0  0  0  0  0  0  0  0  0  0  0  0
   11.1287  -18.2874   23.9555 C   0  0  0  0  0  0  0  0  0  0  0  0
    9.9759  -17.3276   23.8740 C   0  0  2  0  0  0  0  0  0  0  0  0
    9.8315  -16.9286   22.4863 N   0  0  0  0  0  0  0  0  0  0  0  0
   10.2062  -16.1659   24.7576 C   0  0  0  0  0  0  0  0  0  0  0  0
   10.7200  -15.1365   24.2501 O   0  0  0  0  0  0  0  0  0  0  0  0
    9.8848  -16.1400   26.1358 N   0  0  0  0  0  0  0  0  0  0  0  0
   10.2223  -14.9997   26.9814 C   0  0  1  0  0  0  0  0  0  0  0  0
    9.0549  -14.0450   27.0981 C   0  0  0  0  0  0  0  0  0  0  0  0
    9.4362  -12.7628   28.2939 S   0  0  0  0  0  0  0  0  0  0  0  0
   10.6084  -15.5381   28.3096 C   0  0  0  0  0  0  0  0  0  0  0  0
   11.3669  -14.7930   29.2106 O   0  0  0  0  0  0  0  0  0  0  0  0
   10.2639  -16.6911   28.6720 O   0  0  0  0  0  0  0  0  0  0  0  0
  2  1  1  0
  3  4  1  0
  3  2  1  0
  4  5  1  0
  5  7  1  0
  5  6  1  1
  7 12  1  0
  7  8  2  0
  9 10  1  0
 11 10  1  6
 11 13  1  0
 12 11  1  0
 13 15  1  0
 13 14  2  0
 15 16  1  0
 16 19  1  0
 16 17  1  1
 18 17  1  0
 19 20  1  0
 21 19  2  0
M  END
$$$$
