MSC.pdb
     RDKit          3D

 21 20  0  0  1  0  0  0  0  0999 V2000
    8.2142  -11.7356   19.8598 C   0  0  0  0  0  0  0  0  0  0  0  0
    8.7682  -13.2622   19.0766 S   0  0  0  0  0  0  0  0  0  0  0  0
    7.3743  -14.1863   18.4151 C   0  0  0  0  0  0  0  0  0  0  0  0
    6.7318  -15.0725   19.4574 C   0  0  0  0  0  0  0  0  0  0  0  0
    7.6890  -16.1071   20.0076 C   0  0  2  0  0  0  0  0  0  0  0  0
    7.5039  -17.4027   19.4011 N   0  0  0  0  0  0  0  0  0  0  0  0
    7.4768  -16.1436   21.4776 C   0  0  0  0  0  0  0  0  0  0  0  0
    6.2835  -16.1973   21.8695 O   0  0  0  0  0  0  0  0  0  0  0  0
   10.6620  -16.8686   24.1646 O   0  0  0  0  0  0  0  0  0  0  0  0
    9.3529  -17.2660   24.3408 C   0  0  0  0  0  0  0  0  0  0  0  0
    8.3453  -16.2696   23.8419 C   0  0  2  0  0  0  0  0  0  0  0  0
    8.5433  -16.1203   22.4122 N   0  0  0  0  0  0  0  0  0  0  0  0
    8.4937  -14.9831   24.5535 C   0  0  0  0  0  0  0  0  0  0  0  0
    9.1031  -14.0544   23.9641 O   0  0  0  0  0  0  0  0  0  0  0  0
    7.9935  -14.7321   25.8536 N   0  0  0  0  0  0  0  0  0  0  0  0
    8.2606  -13.4778   26.5498 C   0  0  1  0  0  0  0  0  0  0  0  0
    7.0410  -12.5832   26.5456 C   0  0  0  0  0  0  0  0  0  0  0  0
    5.6813  -13.4061   27.3784 S   0  0  0  0  0  0  0  0  0  0  0  0
    8.6663  -13.8235   27.9352 C   0  0  0  0  0  0  0  0  0  0  0  0
    9.1026  -12.8529   28.8351 O   0  0  0  0  0  0  0  0  0  0  0  0
    8.6310  -15.0095   28.3492 O   0  0  0  0  0  0  0  0  0  0  0  0
  2  1  1  0
  3  4  1  0
  3  2  1  0
  4  5  1  0
  5  7  1  0
  5  6  1  6
  7 12  1  0
  7  8  2  0
  9 10  1  0
 11 10  1  1
 11 13  1  0
 12 11  1  0
 13 15  1  0
 13 14  2  0
 15 16  1  0
 16 19  1  0
 16 17  1  1
 18 17  1  0
 19 20  1  0
 21 19  2  0
M  END
$$$$
