MSC.pdb
     RDKit          3D

 21 20  0  0  1  0  0  0  0  0999 V2000
    6.9022  -11.4884   25.1587 C   0  0  0  0  0  0  0  0  0  0  0  0
    5.8894  -12.4930   26.2613 S   0  0  0  0  0  0  0  0  0  0  0  0
    6.2266  -14.2438   26.0249 C   0  0  0  0  0  0  0  0  0  0  0  0
    6.3601  -14.6063   24.5636 C   0  0  0  0  0  0  0  0  0  0  0  0
    6.5339  -16.0940   24.3496 C   0  0  2  0  0  0  0  0  0  0  0  0
    5.6725  -16.8750   25.2032 N   0  0  0  0  0  0  0  0  0  0  0  0
    7.9705  -16.3923   24.5833 C   0  0  0  0  0  0  0  0  0  0  0  0
    8.2838  -16.7615   25.7434 O   0  0  0  0  0  0  0  0  0  0  0  0
   12.4296  -16.6435   22.5542 O   0  0  0  0  0  0  0  0  0  0  0  0
   11.1036  -16.2641   22.5314 C   0  0  0  0  0  0  0  0  0  0  0  0
   10.3528  -16.6117   23.7854 C   0  0  2  0  0  0  0  0  0  0  0  0
    8.9575  -16.2756   23.5716 N   0  0  0  0  0  0  0  0  0  0  0  0
   10.9192  -15.8909   24.9443 C   0  0  0  0  0  0  0  0  0  0  0  0
   11.0181  -14.6399   24.8650 O   0  0  0  0  0  0  0  0  0  0  0  0
   11.3556  -16.5197   26.1350 N   0  0  0  0  0  0  0  0  0  0  0  0
   12.1142  -15.7974   27.1508 C   0  0  1  0  0  0  0  0  0  0  0  0
   11.2277  -15.3966   28.3089 C   0  0  0  0  0  0  0  0  0  0  0  0
    9.5345  -15.2158   27.7435 S   0  0  0  0  0  0  0  0  0  0  0  0
   13.2091  -16.6934   27.5997 C   0  0  0  0  0  0  0  0  0  0  0  0
   14.1640  -16.2774   28.5257 O   0  0  0  0  0  0  0  0  0  0  0  0
   13.3157  -17.8656   27.1591 O   0  0  0  0  0  0  0  0  0  0  0  0
  2  1  1  0
  3  4  1  0
  3  2  1  0
  4  5  1  0
  5  7  1  0
  5  6  1  1
  7 12  1  0
  7  8  2  0
  9 10  1  0
 11 10  1  6
 11 13  1  0
 12 11  1  0
 13 15  1  0
 13 14  2  0
 15 16  1  0
 16 19  1  0
 16 17  1  1
 18 17  1  0
 19 20  1  0
 21 19  2  0
M  END
$$$$
