MSC.pdb
     RDKit          3D

 21 20  0  0  1  0  0  0  0  0999 V2000
    7.2462  -11.7168   26.7973 C   0  0  0  0  0  0  0  0  0  0  0  0
    5.7379  -11.9008   25.8267 S   0  0  0  0  0  0  0  0  0  0  0  0
    5.6247  -13.5526   25.1241 C   0  0  0  0  0  0  0  0  0  0  0  0
    6.9161  -14.3241   25.2710 C   0  0  0  0  0  0  0  0  0  0  0  0
    6.8543  -15.6866   24.6157 C   0  0  2  0  0  0  0  0  0  0  0  0
    5.8171  -16.5179   25.1759 N   0  0  0  0  0  0  0  0  0  0  0  0
    8.2012  -16.2943   24.7705 C   0  0  0  0  0  0  0  0  0  0  0  0
    8.4073  -16.9349   25.8324 O   0  0  0  0  0  0  0  0  0  0  0  0
   11.1094  -15.1674   22.2507 O   0  0  0  0  0  0  0  0  0  0  0  0
   11.3206  -16.4551   22.6979 C   0  0  0  0  0  0  0  0  0  0  0  0
   10.5165  -16.8125   23.9156 C   0  0  2  0  0  0  0  0  0  0  0  0
    9.2191  -16.1748   23.7903 N   0  0  0  0  0  0  0  0  0  0  0  0
   11.2202  -16.3875   25.1435 C   0  0  0  0  0  0  0  0  0  0  0  0
   12.2040  -15.6144   25.0173 O   0  0  0  0  0  0  0  0  0  0  0  0
   10.8562  -16.7950   26.4492 N   0  0  0  0  0  0  0  0  0  0  0  0
   11.6042  -16.3621   27.6249 C   0  0  1  0  0  0  0  0  0  0  0  0
   10.8082  -15.3670   28.4397 C   0  0  0  0  0  0  0  0  0  0  0  0
   10.1215  -14.1091   27.3601 S   0  0  0  0  0  0  0  0  0  0  0  0
   11.9148  -17.5773   28.4186 C   0  0  0  0  0  0  0  0  0  0  0  0
   11.5118  -18.8458   28.0055 O   0  0  0  0  0  0  0  0  0  0  0  0
   12.5556  -17.5065   29.4974 O   0  0  0  0  0  0  0  0  0  0  0  0
  2  1  1  0
  3  4  1  0
  3  2  1  0
  4  5  1  0
  5  7  1  0
  5  6  1  1
  7 12  1  0
  7  8  2  0
  9 10  1  0
 11 10  1  6
 11 13  1  0
 12 11  1  0
 13 15  1  0
 13 14  2  0
 15 16  1  0
 16 19  1  0
 16 17  1  1
 18 17  1  0
 19 20  1  0
 21 19  2  0
M  END
$$$$
