MSC.pdb
     RDKit          3D

 21 20  0  0  1  0  0  0  0  0999 V2000
    7.6635  -11.8452   20.5182 C   0  0  0  0  0  0  0  0  0  0  0  0
    7.8808  -12.7296   18.9621 S   0  0  0  0  0  0  0  0  0  0  0  0
    7.6816  -14.5014   19.1980 C   0  0  0  0  0  0  0  0  0  0  0  0
    7.9963  -14.9269   20.6138 C   0  0  0  0  0  0  0  0  0  0  0  0
    7.8125  -16.4137   20.8261 C   0  0  2  0  0  0  0  0  0  0  0  0
    6.4565  -16.8392   20.5794 N   0  0  0  0  0  0  0  0  0  0  0  0
    8.2429  -16.7008   22.2188 C   0  0  0  0  0  0  0  0  0  0  0  0
    7.3844  -16.5179   23.1187 O   0  0  0  0  0  0  0  0  0  0  0  0
   12.2937  -17.4039   23.2875 O   0  0  0  0  0  0  0  0  0  0  0  0
   11.2821  -18.1701   23.8283 C   0  0  0  0  0  0  0  0  0  0  0  0
    9.9595  -17.4615   23.9025 C   0  0  2  0  0  0  0  0  0  0  0  0
    9.5453  -17.1575   22.5455 N   0  0  0  0  0  0  0  0  0  0  0  0
   10.0719  -16.2411   24.7281 C   0  0  0  0  0  0  0  0  0  0  0  0
   10.3433  -15.1613   24.1437 O   0  0  0  0  0  0  0  0  0  0  0  0
    9.8929  -16.2124   26.1319 N   0  0  0  0  0  0  0  0  0  0  0  0
    9.9906  -14.9712   26.8928 C   0  0  1  0  0  0  0  0  0  0  0  0
    8.6366  -14.3118   27.0336 C   0  0  0  0  0  0  0  0  0  0  0  0
    8.7718  -12.8663   28.0880 S   0  0  0  0  0  0  0  0  0  0  0  0
   10.5595  -15.3146   28.2201 C   0  0  0  0  0  0  0  0  0  0  0  0
   10.8339  -16.6322   28.5816 O   0  0  0  0  0  0  0  0  0  0  0  0
   10.8156  -14.4254   29.0705 O   0  0  0  0  0  0  0  0  0  0  0  0
  2  1  1  0
  3  4  1  0
  3  2  1  0
  4  5  1  0
  5  7  1  0
  5  6  1  1
  7 12  1  0
  7  8  2  0
  9 10  1  0
 11 10  1  6
 11 13  1  0
 12 11  1  0
 13 15  1  0
 13 14  2  0
 15 16  1  0
 16 19  1  0
 16 17  1  1
 18 17  1  0
 19 20  1  0
 21 19  2  0
M  END
$$$$
