MSC.pdb
     RDKit          3D

 21 20  0  0  1  0  0  0  0  0999 V2000
    7.9404  -11.7717   20.5121 C   0  0  0  0  0  0  0  0  0  0  0  0
    7.8355  -12.5385   18.8837 S   0  0  0  0  0  0  0  0  0  0  0  0
    8.2504  -14.2864   18.9698 C   0  0  0  0  0  0  0  0  0  0  0  0
    8.3385  -14.7818   20.3951 C   0  0  0  0  0  0  0  0  0  0  0  0
    8.5779  -16.2736   20.4759 C   0  0  2  0  0  0  0  0  0  0  0  0
    7.5137  -17.0334   19.8669 N   0  0  0  0  0  0  0  0  0  0  0  0
    8.7435  -16.6003   21.9157 C   0  0  0  0  0  0  0  0  0  0  0  0
    7.7016  -16.5752   22.6187 O   0  0  0  0  0  0  0  0  0  0  0  0
   12.5738  -17.2126   23.7847 O   0  0  0  0  0  0  0  0  0  0  0  0
   11.4581  -17.9757   24.0597 C   0  0  0  0  0  0  0  0  0  0  0  0
   10.1623  -17.2319   23.9028 C   0  0  2  0  0  0  0  0  0  0  0  0
    9.9968  -16.9264   22.4939 N   0  0  0  0  0  0  0  0  0  0  0  0
   10.1637  -16.0092   24.7326 C   0  0  0  0  0  0  0  0  0  0  0  0
   10.5015  -14.9293   24.1842 O   0  0  0  0  0  0  0  0  0  0  0  0
    9.8089  -15.9785   26.1025 N   0  0  0  0  0  0  0  0  0  0  0  0
    9.9102  -14.7571   26.8944 C   0  0  1  0  0  0  0  0  0  0  0  0
    8.5960  -14.0084   26.9096 C   0  0  0  0  0  0  0  0  0  0  0  0
    8.6639  -12.6868   28.1213 S   0  0  0  0  0  0  0  0  0  0  0  0
   10.3149  -15.1562   28.2656 C   0  0  0  0  0  0  0  0  0  0  0  0
   10.0646  -16.4344   28.7613 O   0  0  0  0  0  0  0  0  0  0  0  0
   10.9009  -14.3521   29.0335 O   0  0  0  0  0  0  0  0  0  0  0  0
  2  1  1  0
  3  4  1  0
  3  2  1  0
  4  5  1  0
  5  7  1  0
  5  6  1  1
  7 12  1  0
  7  8  2  0
  9 10  1  0
 11 10  1  6
 11 13  1  0
 12 11  1  0
 13 15  1  0
 13 14  2  0
 15 16  1  0
 16 19  1  0
 16 17  1  1
 18 17  1  0
 19 20  1  0
 21 19  2  0
M  END
$$$$
