MSC.pdb
     RDKit          3D

 21 20  0  0  1  0  0  0  0  0999 V2000
    6.2239  -11.1660   25.1538 C   0  0  0  0  0  0  0  0  0  0  0  0
    6.9130  -12.0822   26.5454 S   0  0  0  0  0  0  0  0  0  0  0  0
    6.2697  -13.7612   26.5897 C   0  0  0  0  0  0  0  0  0  0  0  0
    7.2559  -14.7641   26.0365 C   0  0  0  0  0  0  0  0  0  0  0  0
    6.6678  -15.5994   24.9202 C   0  0  2  0  0  0  0  0  0  0  0  0
    5.5838  -16.4358   25.3741 N   0  0  0  0  0  0  0  0  0  0  0  0
    7.7856  -16.3950   24.3503 C   0  0  0  0  0  0  0  0  0  0  0  0
    8.0394  -17.4886   24.9159 O   0  0  0  0  0  0  0  0  0  0  0  0
   10.4353  -14.8001   21.4862 O   0  0  0  0  0  0  0  0  0  0  0  0
   10.0251  -16.1116   21.3663 C   0  0  0  0  0  0  0  0  0  0  0  0
    9.6345  -16.7454   22.6712 C   0  0  2  0  0  0  0  0  0  0  0  0
    8.5432  -15.9690   23.2295 N   0  0  0  0  0  0  0  0  0  0  0  0
   10.7929  -16.8006   23.5869 C   0  0  0  0  0  0  0  0  0  0  0  0
   11.2446  -15.7126   24.0266 O   0  0  0  0  0  0  0  0  0  0  0  0
   11.4234  -17.9991   23.9989 N   0  0  0  0  0  0  0  0  0  0  0  0
   12.5258  -17.9969   24.9549 C   0  0  1  0  0  0  0  0  0  0  0  0
   12.1526  -18.7428   26.2167 C   0  0  0  0  0  0  0  0  0  0  0  0
   10.6086  -18.1010   26.8676 S   0  0  0  0  0  0  0  0  0  0  0  0
   13.6892  -18.6288   24.2837 C   0  0  0  0  0  0  0  0  0  0  0  0
   14.9285  -18.7365   24.9119 O   0  0  0  0  0  0  0  0  0  0  0  0
   13.5987  -19.0920   23.1190 O   0  0  0  0  0  0  0  0  0  0  0  0
  2  1  1  0
  3  4  1  0
  3  2  1  0
  4  5  1  0
  5  7  1  0
  5  6  1  1
  7 12  1  0
  7  8  2  0
  9 10  1  0
 11 10  1  6
 11 13  1  0
 12 11  1  0
 13 15  1  0
 13 14  2  0
 15 16  1  0
 16 19  1  0
 16 17  1  1
 18 17  1  0
 19 20  1  0
 21 19  2  0
M  END
$$$$
