MSC.pdb
     RDKit          3D

 21 20  0  0  1  0  0  0  0  0999 V2000
    8.8277  -11.3358   20.2764 C   0  0  0  0  0  0  0  0  0  0  0  0
    8.0193  -12.1709   18.8980 S   0  0  0  0  0  0  0  0  0  0  0  0
    8.2344  -13.9528   19.0123 C   0  0  0  0  0  0  0  0  0  0  0  0
    8.1034  -14.4528   20.4326 C   0  0  0  0  0  0  0  0  0  0  0  0
    8.2337  -15.9571   20.5313 C   0  0  2  0  0  0  0  0  0  0  0  0
    7.1570  -16.6457   19.8627 N   0  0  0  0  0  0  0  0  0  0  0  0
    8.2917  -16.2848   21.9793 C   0  0  0  0  0  0  0  0  0  0  0  0
    7.1890  -16.3931   22.5731 O   0  0  0  0  0  0  0  0  0  0  0  0
   11.7910  -17.7620   23.7647 O   0  0  0  0  0  0  0  0  0  0  0  0
   10.5039  -18.0426   24.1738 C   0  0  0  0  0  0  0  0  0  0  0  0
    9.5681  -16.8716   24.0737 C   0  0  2  0  0  0  0  0  0  0  0  0
    9.5105  -16.4708   22.6803 N   0  0  0  0  0  0  0  0  0  0  0  0
   10.0255  -15.7679   24.9433 C   0  0  0  0  0  0  0  0  0  0  0  0
   10.7976  -14.9101   24.4442 O   0  0  0  0  0  0  0  0  0  0  0  0
    9.6488  -15.6167   26.2993 N   0  0  0  0  0  0  0  0  0  0  0  0
   10.2947  -14.6410   27.1711 C   0  0  1  0  0  0  0  0  0  0  0  0
    9.4020  -13.4415   27.4000 C   0  0  0  0  0  0  0  0  0  0  0  0
    7.7369  -13.9882   27.7846 S   0  0  0  0  0  0  0  0  0  0  0  0
   10.6025  -15.3308   28.4488 C   0  0  0  0  0  0  0  0  0  0  0  0
   11.2973  -14.6955   29.4763 O   0  0  0  0  0  0  0  0  0  0  0  0
   10.2461  -16.5188   28.6517 O   0  0  0  0  0  0  0  0  0  0  0  0
  2  1  1  0
  3  4  1  0
  3  2  1  0
  4  5  1  0
  5  7  1  0
  5  6  1  1
  7 12  1  0
  7  8  2  0
  9 10  1  0
 11 10  1  6
 11 13  1  0
 12 11  1  0
 13 15  1  0
 13 14  2  0
 15 16  1  0
 16 19  1  0
 16 17  1  1
 18 17  1  0
 19 20  1  0
 21 19  2  0
M  END
$$$$
