MSC.pdb
     RDKit          3D

 21 20  0  0  1  0  0  0  0  0999 V2000
    8.3177  -11.6102   19.4531 C   0  0  0  0  0  0  0  0  0  0  0  0
    7.3154  -12.8369   18.5919 S   0  0  0  0  0  0  0  0  0  0  0  0
    7.6878  -14.4958   19.1784 C   0  0  0  0  0  0  0  0  0  0  0  0
    8.7631  -14.4968   20.2406 C   0  0  0  0  0  0  0  0  0  0  0  0
    9.1694  -15.8951   20.6520 C   0  0  2  0  0  0  0  0  0  0  0  0
    8.1500  -16.8717   20.3557 N   0  0  0  0  0  0  0  0  0  0  0  0
    9.4820  -15.8374   22.1033 C   0  0  0  0  0  0  0  0  0  0  0  0
   10.6494  -15.4866   22.4107 O   0  0  0  0  0  0  0  0  0  0  0  0
    6.7061  -17.2001   24.9527 O   0  0  0  0  0  0  0  0  0  0  0  0
    7.5887  -16.1982   25.2988 C   0  0  0  0  0  0  0  0  0  0  0  0
    8.8728  -16.2267   24.5194 C   0  0  2  0  0  0  0  0  0  0  0  0
    8.5350  -16.1553   23.1100 N   0  0  0  0  0  0  0  0  0  0  0  0
    9.6442  -17.4462   24.8375 C   0  0  0  0  0  0  0  0  0  0  0  0
    9.4396  -18.4688   24.1350 O   0  0  0  0  0  0  0  0  0  0  0  0
   10.5968  -17.5340   25.8807 N   0  0  0  0  0  0  0  0  0  0  0  0
   11.2400  -18.7968   26.2283 C   0  0  1  0  0  0  0  0  0  0  0  0
   12.7463  -18.6760   26.1622 C   0  0  0  0  0  0  0  0  0  0  0  0
   13.5040  -20.1792   26.7830 S   0  0  0  0  0  0  0  0  0  0  0  0
   10.7913  -19.1549   27.5972 C   0  0  0  0  0  0  0  0  0  0  0  0
   10.8241  -20.4693   28.0591 O   0  0  0  0  0  0  0  0  0  0  0  0
   10.3634  -18.2818   28.3934 O   0  0  0  0  0  0  0  0  0  0  0  0
  2  1  1  0
  3  4  1  0
  3  2  1  0
  4  5  1  0
  5  7  1  0
  5  6  1  1
  7 12  1  0
  7  8  2  0
  9 10  1  0
 11 10  1  1
 11 13  1  0
 12 11  1  0
 13 15  1  0
 13 14  2  0
 15 16  1  0
 16 19  1  0
 16 17  1  1
 18 17  1  0
 19 20  1  0
 21 19  2  0
M  END
$$$$
