MSC.pdb
     RDKit          3D

 21 20  0  0  1  0  0  0  0  0999 V2000
    7.4401  -11.1276   25.8770 C   0  0  0  0  0  0  0  0  0  0  0  0
    5.9600  -12.0223   26.3868 S   0  0  0  0  0  0  0  0  0  0  0  0
    5.7741  -13.5437   25.4459 C   0  0  0  0  0  0  0  0  0  0  0  0
    7.0602  -14.3354   25.3825 C   0  0  0  0  0  0  0  0  0  0  0  0
    6.9120  -15.6187   24.5947 C   0  0  2  0  0  0  0  0  0  0  0  0
    5.7594  -16.3833   25.0041 N   0  0  0  0  0  0  0  0  0  0  0  0
    8.1771  -16.3765   24.7745 C   0  0  0  0  0  0  0  0  0  0  0  0
    8.2689  -17.0729   25.8171 O   0  0  0  0  0  0  0  0  0  0  0  0
   11.6176  -15.7131   22.3758 O   0  0  0  0  0  0  0  0  0  0  0  0
   11.2441  -16.9947   22.7233 C   0  0  0  0  0  0  0  0  0  0  0  0
   10.4783  -17.0733   24.0134 C   0  0  2  0  0  0  0  0  0  0  0  0
    9.2410  -16.3358   23.8376 N   0  0  0  0  0  0  0  0  0  0  0  0
   11.2849  -16.5334   25.1276 C   0  0  0  0  0  0  0  0  0  0  0  0
   11.7857  -15.3885   24.9875 O   0  0  0  0  0  0  0  0  0  0  0  0
   11.5277  -17.2232   26.3396 N   0  0  0  0  0  0  0  0  0  0  0  0
   12.3613  -16.6537   27.3931 C   0  0  1  0  0  0  0  0  0  0  0  0
   11.5994  -15.6171   28.1887 C   0  0  0  0  0  0  0  0  0  0  0  0
    9.9067  -16.1607   28.4308 S   0  0  0  0  0  0  0  0  0  0  0  0
   12.8009  -17.7762   28.2590 C   0  0  0  0  0  0  0  0  0  0  0  0
   13.7043  -17.5866   29.3031 O   0  0  0  0  0  0  0  0  0  0  0  0
   12.3726  -18.9443   28.0815 O   0  0  0  0  0  0  0  0  0  0  0  0
  2  1  1  0
  3  4  1  0
  3  2  1  0
  4  5  1  0
  5  7  1  0
  5  6  1  1
  7 12  1  0
  7  8  2  0
  9 10  1  0
 11 10  1  6
 11 13  1  0
 12 11  1  0
 13 15  1  0
 13 14  2  0
 15 16  1  0
 16 19  1  0
 16 17  1  1
 18 17  1  0
 19 20  1  0
 21 19  2  0
M  END
$$$$
