MSC.pdb
     RDKit          3D

 21 20  0  0  1  0  0  0  0  0999 V2000
    8.7592  -11.5242   20.2254 C   0  0  0  0  0  0  0  0  0  0  0  0
    7.7703  -12.4661   19.0481 S   0  0  0  0  0  0  0  0  0  0  0  0
    7.8998  -14.2310   19.3690 C   0  0  0  0  0  0  0  0  0  0  0  0
    7.7872  -14.5524   20.8416 C   0  0  0  0  0  0  0  0  0  0  0  0
    7.8477  -16.0391   21.1162 C   0  0  2  0  0  0  0  0  0  0  0  0
    6.7287  -16.7480   20.5453 N   0  0  0  0  0  0  0  0  0  0  0  0
    7.9139  -16.1966   22.5920 C   0  0  0  0  0  0  0  0  0  0  0  0
    6.8789  -15.8868   23.2349 O   0  0  0  0  0  0  0  0  0  0  0  0
   11.3309  -17.8203   24.5342 O   0  0  0  0  0  0  0  0  0  0  0  0
   10.0393  -18.0204   24.9751 C   0  0  0  0  0  0  0  0  0  0  0  0
    9.1208  -16.8629   24.7039 C   0  0  2  0  0  0  0  0  0  0  0  0
    9.0687  -16.6685   23.2668 N   0  0  0  0  0  0  0  0  0  0  0  0
    9.5947  -15.6511   25.4043 C   0  0  0  0  0  0  0  0  0  0  0  0
   10.5230  -14.9914   24.8712 O   0  0  0  0  0  0  0  0  0  0  0  0
    9.0695  -15.1882   26.6346 N   0  0  0  0  0  0  0  0  0  0  0  0
    9.7216  -14.1290   27.3974 C   0  0  1  0  0  0  0  0  0  0  0  0
    8.7246  -13.0761   27.8277 C   0  0  0  0  0  0  0  0  0  0  0  0
    7.6738  -12.6327   26.4426 S   0  0  0  0  0  0  0  0  0  0  0  0
   10.3659  -14.7680   28.5721 C   0  0  0  0  0  0  0  0  0  0  0  0
   11.1674  -14.0441   29.4529 O   0  0  0  0  0  0  0  0  0  0  0  0
   10.2115  -15.9911   28.8166 O   0  0  0  0  0  0  0  0  0  0  0  0
  2  1  1  0
  3  4  1  0
  3  2  1  0
  4  5  1  0
  5  7  1  0
  5  6  1  1
  7 12  1  0
  7  8  2  0
  9 10  1  0
 11 10  1  6
 11 13  1  0
 12 11  1  0
 13 15  1  0
 13 14  2  0
 15 16  1  0
 16 19  1  0
 16 17  1  1
 18 17  1  0
 19 20  1  0
 21 19  2  0
M  END
$$$$
