GYD.pdb
     RDKit          3D

 25 25  0  0  1  0  0  0  0  0999 V2000
   26.5633  -24.6976  -16.0764 N   0  0  0  0  0  0  0  0  0  0  0  0
   26.5411  -23.2788  -15.9186 C   0  0  0  0  0  0  0  0  0  0  0  0
   25.8434  -22.8720  -14.6465 C   0  0  0  0  0  0  0  0  0  0  0  0
   25.1589  -23.6979  -13.9990 O   0  0  0  0  0  0  0  0  0  0  0  0
   29.8884  -21.5595   -8.5361 O   0  0  0  0  0  0  0  0  0  0  0  0
   28.9249  -21.1557   -9.4765 C   0  0  0  0  0  0  0  0  0  0  0  0
   27.6436  -20.9209   -9.0721 C   0  0  0  0  0  0  0  0  0  0  0  0
   26.6926  -20.5240   -9.9927 C   0  0  0  0  0  0  0  0  0  0  0  0
   26.9943  -20.3531  -11.3261 C   0  0  0  0  0  0  0  0  0  0  0  0
   26.0037  -19.9364  -12.3106 C   0  0  0  0  0  0  0  0  0  0  0  0
   25.2526  -21.0413  -12.9832 C   0  0  2  0  0  0  0  0  0  0  0  0
   25.9409  -21.5494  -14.1482 N   0  0  0  0  0  0  0  0  0  0  0  0
   23.9290  -20.5010  -13.4193 C   0  0  0  0  0  0  0  0  0  0  0  0
   23.8106  -19.9447  -14.5384 O   0  0  0  0  0  0  0  0  0  0  0  0
   28.2916  -20.5930  -11.7231 C   0  0  0  0  0  0  0  0  0  0  0  0
   29.2603  -20.9952  -10.7987 C   0  0  0  0  0  0  0  0  0  0  0  0
   22.7696  -20.5897  -12.6078 N   0  0  0  0  0  0  0  0  0  0  0  0
   21.4724  -20.6548  -13.2144 C   0  0  1  0  0  0  0  0  0  0  0  0
   21.3005  -21.8795  -14.0870 C   0  0  0  0  0  0  0  0  0  0  0  0
   19.9549  -21.8143  -14.6947 C   0  0  0  0  0  0  0  0  0  0  0  0
   19.6556  -20.9366  -15.5297 O   0  0  0  0  0  0  0  0  0  0  0  0
   20.4095  -20.5766  -12.1869 C   0  0  0  0  0  0  0  0  0  0  0  0
   19.3635  -19.9339  -12.4237 O   0  0  0  0  0  0  0  0  0  0  0  0
   19.0063  -22.7467  -14.3301 O   0  0  0  0  0  0  0  0  0  0  0  0
   20.6018  -21.2203  -10.9820 O   0  0  0  0  0  0  0  0  0  0  0  0
  1  2  1  0
  3  4  2  0
  3  2  1  0
  6  5  1  0
  7  6  2  0
  8  7  1  0
  9  8  2  0
  9 15  1  0
 11 10  1  6
 10  9  1  0
 11 12  1  0
 12  3  1  0
 13 17  1  0
 13 11  1  0
 14 13  2  0
 15 16  2  0
 16  6  1  0
 18 22  1  0
 18 17  1  0
 18 19  1  1
 19 20  1  0
 20 21  2  0
 22 25  1  0
 23 22  2  0
 24 20  1  0
M  END
$$$$
