GYD.pdb
     RDKit          3D

 25 25  0  0  1  0  0  0  0  0999 V2000
   16.9871   -4.2807  -13.9884 N   0  0  0  0  0  0  0  0  0  0  0  0
   17.3940   -5.3550  -14.8362 C   0  0  0  0  0  0  0  0  0  0  0  0
   18.8917   -5.4005  -14.9954 C   0  0  0  0  0  0  0  0  0  0  0  0
   19.5759   -4.3535  -14.9211 O   0  0  0  0  0  0  0  0  0  0  0  0
   19.7521   -5.9820   -9.1125 O   0  0  0  0  0  0  0  0  0  0  0  0
   20.2179   -6.3561  -10.3849 C   0  0  0  0  0  0  0  0  0  0  0  0
   20.9484   -5.4721  -11.1232 C   0  0  0  0  0  0  0  0  0  0  0  0
   21.4085   -5.8350  -12.3748 C   0  0  0  0  0  0  0  0  0  0  0  0
   21.1533   -7.0768  -12.9143 C   0  0  0  0  0  0  0  0  0  0  0  0
   21.6294   -7.4756  -14.2328 C   0  0  0  0  0  0  0  0  0  0  0  0
   20.9951   -6.7738  -15.3914 C   0  0  2  0  0  0  0  0  0  0  0  0
   19.5663   -6.6234  -15.2328 N   0  0  0  0  0  0  0  0  0  0  0  0
   21.2474   -7.5883  -16.6189 C   0  0  0  0  0  0  0  0  0  0  0  0
   20.4443   -8.4933  -16.9534 O   0  0  0  0  0  0  0  0  0  0  0  0
   20.4145   -7.9614  -12.1594 C   0  0  0  0  0  0  0  0  0  0  0  0
   19.9447   -7.6028  -10.8924 C   0  0  0  0  0  0  0  0  0  0  0  0
   22.3805   -7.3819  -17.4459 N   0  0  0  0  0  0  0  0  0  0  0  0
   22.5232   -8.1219  -18.6654 C   0  0  1  0  0  0  0  0  0  0  0  0
   23.4611   -7.4504  -19.6454 C   0  0  0  0  0  0  0  0  0  0  0  0
   22.9021   -6.1200  -19.9642 C   0  0  0  0  0  0  0  0  0  0  0  0
   23.6021   -5.0879  -19.9189 O   0  0  0  0  0  0  0  0  0  0  0  0
   22.9467   -9.5129  -18.3870 C   0  0  0  0  0  0  0  0  0  0  0  0
   23.2269   -9.8539  -17.2172 O   0  0  0  0  0  0  0  0  0  0  0  0
   21.5739   -6.0163  -20.3210 O   0  0  0  0  0  0  0  0  0  0  0  0
   23.0229  -10.4064  -19.4352 O   0  0  0  0  0  0  0  0  0  0  0  0
  1  2  1  0
  3  4  2  0
  3  2  1  0
  6  5  1  0
  7  6  2  0
  8  7  1  0
  9  8  2  0
  9 15  1  0
 11 10  1  1
 10  9  1  0
 11 12  1  0
 12  3  1  0
 13 17  1  0
 13 11  1  0
 14 13  2  0
 15 16  2  0
 16  6  1  0
 18 22  1  0
 18 17  1  0
 18 19  1  6
 19 20  1  0
 20 21  2  0
 22 25  1  0
 23 22  2  0
 24 20  1  0
M  END
$$$$
