GYD.pdb
     RDKit          3D

 25 25  0  0  1  0  0  0  0  0999 V2000
   28.4670  -22.3648  -18.6124 N   0  0  0  0  0  0  0  0  0  0  0  0
   28.1687  -21.2094  -17.8285 C   0  0  0  0  0  0  0  0  0  0  0  0
   27.4595  -21.5735  -16.5498 C   0  0  0  0  0  0  0  0  0  0  0  0
   26.8626  -22.6694  -16.4380 O   0  0  0  0  0  0  0  0  0  0  0  0
   24.6646  -20.7774   -8.1062 O   0  0  0  0  0  0  0  0  0  0  0  0
   25.3219  -20.6188   -9.3385 C   0  0  0  0  0  0  0  0  0  0  0  0
   25.1396  -19.4749  -10.0587 C   0  0  0  0  0  0  0  0  0  0  0  0
   25.7833  -19.3143  -11.2709 C   0  0  0  0  0  0  0  0  0  0  0  0
   26.6165  -20.2818  -11.7885 C   0  0  0  0  0  0  0  0  0  0  0  0
   27.3021  -20.1295  -13.0657 C   0  0  0  0  0  0  0  0  0  0  0  0
   26.7282  -20.9075  -14.2070 C   0  0  2  0  0  0  0  0  0  0  0  0
   27.4472  -20.6905  -15.4420 N   0  0  0  0  0  0  0  0  0  0  0  0
   25.3145  -20.4639  -14.4035 C   0  0  0  0  0  0  0  0  0  0  0  0
   25.0683  -19.3294  -14.8813 O   0  0  0  0  0  0  0  0  0  0  0  0
   26.7931  -21.4329  -11.0524 C   0  0  0  0  0  0  0  0  0  0  0  0
   26.1457  -21.6042   -9.8251 C   0  0  0  0  0  0  0  0  0  0  0  0
   24.2086  -21.2853  -14.0674 N   0  0  0  0  0  0  0  0  0  0  0  0
   22.8724  -20.7975  -14.2446 C   0  0  1  0  0  0  0  0  0  0  0  0
   22.0601  -21.6591  -15.1872 C   0  0  0  0  0  0  0  0  0  0  0  0
   22.3646  -21.2272  -16.5674 C   0  0  0  0  0  0  0  0  0  0  0  0
   22.8919  -20.1216  -16.8061 O   0  0  0  0  0  0  0  0  0  0  0  0
   22.1927  -20.6465  -12.9380 C   0  0  0  0  0  0  0  0  0  0  0  0
   22.6579  -21.2165  -11.9271 O   0  0  0  0  0  0  0  0  0  0  0  0
   22.0586  -22.0668  -17.6179 O   0  0  0  0  0  0  0  0  0  0  0  0
   21.0520  -19.8741  -12.8679 O   0  0  0  0  0  0  0  0  0  0  0  0
  1  2  1  0
  3  4  2  0
  3  2  1  0
  6  5  1  0
  7  6  2  0
  8  7  1  0
  9  8  2  0
  9 15  1  0
 11 10  1  1
 10  9  1  0
 11 12  1  0
 12  3  1  0
 13 17  1  0
 13 11  1  0
 14 13  2  0
 15 16  2  0
 16  6  1  0
 18 22  1  0
 18 17  1  0
 18 19  1  6
 19 20  1  0
 20 21  2  0
 22 25  1  0
 23 22  2  0
 24 20  1  0
M  END
$$$$
