GYD.pdb
     RDKit          3D

 25 25  0  0  1  0  0  0  0  0999 V2000
   23.6899  -13.3148  -17.4711 N   0  0  0  0  0  0  0  0  0  0  0  0
   22.7825  -12.2538  -17.7699 C   0  0  0  0  0  0  0  0  0  0  0  0
   22.4794  -11.4219  -16.5506 C   0  0  0  0  0  0  0  0  0  0  0  0
   21.6821  -11.8338  -15.6762 O   0  0  0  0  0  0  0  0  0  0  0  0
   28.9108  -10.2609  -17.3698 O   0  0  0  0  0  0  0  0  0  0  0  0
   27.7410   -9.9740  -16.6450 C   0  0  0  0  0  0  0  0  0  0  0  0
   27.3475  -10.8083  -15.6404 C   0  0  0  0  0  0  0  0  0  0  0  0
   26.1982  -10.5308  -14.9250 C   0  0  0  0  0  0  0  0  0  0  0  0
   25.4216   -9.4246  -15.1923 C   0  0  0  0  0  0  0  0  0  0  0  0
   24.2061   -9.1176  -14.4490 C   0  0  0  0  0  0  0  0  0  0  0  0
   22.9232   -9.3191  -15.1912 C   0  0  2  0  0  0  0  0  0  0  0  0
   23.0846  -10.1554  -16.3589 N   0  0  0  0  0  0  0  0  0  0  0  0
   22.4330   -7.9796  -15.6380 C   0  0  0  0  0  0  0  0  0  0  0  0
   22.0522   -7.1318  -14.7941 O   0  0  0  0  0  0  0  0  0  0  0  0
   25.8288   -8.5890  -16.2092 C   0  0  0  0  0  0  0  0  0  0  0  0
   26.9900   -8.8621  -16.9384 C   0  0  0  0  0  0  0  0  0  0  0  0
   22.3766   -7.6108  -17.0060 N   0  0  0  0  0  0  0  0  0  0  0  0
   21.8264   -6.3425  -17.3851 C   0  0  1  0  0  0  0  0  0  0  0  0
   22.8714   -5.3993  -17.9408 C   0  0  0  0  0  0  0  0  0  0  0  0
   22.1851   -4.1543  -18.3447 C   0  0  0  0  0  0  0  0  0  0  0  0
   21.8918   -3.9253  -19.5358 O   0  0  0  0  0  0  0  0  0  0  0  0
   20.7067   -6.5212  -18.3370 C   0  0  0  0  0  0  0  0  0  0  0  0
   20.6891   -7.5156  -19.0947 O   0  0  0  0  0  0  0  0  0  0  0  0
   21.8605   -3.2222  -17.3813 O   0  0  0  0  0  0  0  0  0  0  0  0
   19.7016   -5.5768  -18.3651 O   0  0  0  0  0  0  0  0  0  0  0  0
  1  2  1  0
  3  4  2  0
  3  2  1  0
  6  5  1  0
  7  6  2  0
  8  7  1  0
  9  8  2  0
  9 15  1  0
 11 10  1  6
 10  9  1  0
 11 12  1  0
 12  3  1  0
 13 17  1  0
 13 11  1  0
 14 13  2  0
 15 16  2  0
 16  6  1  0
 18 22  1  0
 18 17  1  0
 18 19  1  6
 19 20  1  0
 20 21  2  0
 22 25  1  0
 23 22  2  0
 24 20  1  0
M  END
$$$$
