GYD.pdb
     RDKit          3D

 25 25  0  0  1  0  0  0  0  0999 V2000
   28.9077  -23.4553  -17.6042 N   0  0  0  0  0  0  0  0  0  0  0  0
   28.5332  -22.1811  -17.0799 C   0  0  0  0  0  0  0  0  0  0  0  0
   27.5667  -22.3150  -15.9316 C   0  0  0  0  0  0  0  0  0  0  0  0
   26.9637  -23.3936  -15.7243 O   0  0  0  0  0  0  0  0  0  0  0  0
   23.8929  -20.5938   -8.0281 O   0  0  0  0  0  0  0  0  0  0  0  0
   24.6213  -20.5183   -9.2279 C   0  0  0  0  0  0  0  0  0  0  0  0
   25.8752  -21.0513   -9.2912 C   0  0  0  0  0  0  0  0  0  0  0  0
   26.5955  -20.9795  -10.4683 C   0  0  0  0  0  0  0  0  0  0  0  0
   26.0868  -20.3801  -11.5997 C   0  0  0  0  0  0  0  0  0  0  0  0
   26.8330  -20.2943  -12.8488 C   0  0  0  0  0  0  0  0  0  0  0  0
   26.4309  -21.2654  -13.9129 C   0  0  2  0  0  0  0  0  0  0  0  0
   27.3132  -21.2296  -15.0572 N   0  0  0  0  0  0  0  0  0  0  0  0
   25.0545  -20.9049  -14.3707 C   0  0  0  0  0  0  0  0  0  0  0  0
   24.8670  -19.8707  -15.0571 O   0  0  0  0  0  0  0  0  0  0  0  0
   24.8193  -19.8453  -11.5241 C   0  0  0  0  0  0  0  0  0  0  0  0
   24.0834  -19.9130  -10.3373 C   0  0  0  0  0  0  0  0  0  0  0  0
   23.9202  -21.6965  -14.0588 N   0  0  0  0  0  0  0  0  0  0  0  0
   22.6242  -21.3132  -14.5368 C   0  0  1  0  0  0  0  0  0  0  0  0
   21.7945  -22.4993  -14.9788 C   0  0  0  0  0  0  0  0  0  0  0  0
   20.5005  -21.9844  -15.4735 C   0  0  0  0  0  0  0  0  0  0  0  0
   20.4400  -21.0484  -16.2966 O   0  0  0  0  0  0  0  0  0  0  0  0
   21.9086  -20.5085  -13.5209 C   0  0  0  0  0  0  0  0  0  0  0  0
   21.3073  -19.4676  -13.8647 O   0  0  0  0  0  0  0  0  0  0  0  0
   19.3306  -22.5525  -15.0143 O   0  0  0  0  0  0  0  0  0  0  0  0
   21.9238  -20.9306  -12.2077 O   0  0  0  0  0  0  0  0  0  0  0  0
  1  2  1  0
  3  4  2  0
  3  2  1  0
  6  5  1  0
  7  6  2  0
  8  7  1  0
  9  8  2  0
  9 15  1  0
 11 10  1  1
 10  9  1  0
 11 12  1  0
 12  3  1  0
 13 17  1  0
 13 11  1  0
 14 13  2  0
 15 16  2  0
 16  6  1  0
 18 22  1  0
 18 17  1  0
 18 19  1  1
 19 20  1  0
 20 21  2  0
 22 25  1  0
 23 22  2  0
 24 20  1  0
M  END
$$$$
