GYD.pdb
     RDKit          3D

 25 25  0  0  1  0  0  0  0  0999 V2000
   22.0345   -7.2890  -20.3528 N   0  0  0  0  0  0  0  0  0  0  0  0
   23.1256   -7.2277  -19.4340 C   0  0  0  0  0  0  0  0  0  0  0  0
   22.7147   -7.6695  -18.0532 C   0  0  0  0  0  0  0  0  0  0  0  0
   22.9819   -8.8231  -17.6437 O   0  0  0  0  0  0  0  0  0  0  0  0
   26.4443   -2.9776  -16.3886 O   0  0  0  0  0  0  0  0  0  0  0  0
   25.3599   -3.7818  -15.9968 C   0  0  0  0  0  0  0  0  0  0  0  0
   24.1461   -3.2080  -15.7564 C   0  0  0  0  0  0  0  0  0  0  0  0
   23.0770   -3.9942  -15.3707 C   0  0  0  0  0  0  0  0  0  0  0  0
   23.1923   -5.3585  -15.2174 C   0  0  0  0  0  0  0  0  0  0  0  0
   22.0759   -6.2023  -14.8102 C   0  0  0  0  0  0  0  0  0  0  0  0
   21.5516   -7.1342  -15.8561 C   0  0  2  0  0  0  0  0  0  0  0  0
   22.0174   -6.7967  -17.1821 N   0  0  0  0  0  0  0  0  0  0  0  0
   20.0596   -7.0461  -15.8467 C   0  0  0  0  0  0  0  0  0  0  0  0
   19.4707   -6.2117  -16.5768 O   0  0  0  0  0  0  0  0  0  0  0  0
   24.4231   -5.9269  -15.4629 C   0  0  0  0  0  0  0  0  0  0  0  0
   25.5103   -5.1394  -15.8532 C   0  0  0  0  0  0  0  0  0  0  0  0
   19.2559   -7.8827  -15.0313 N   0  0  0  0  0  0  0  0  0  0  0  0
   17.8287   -7.7507  -15.0546 C   0  0  1  0  0  0  0  0  0  0  0  0
   17.1231   -8.9859  -14.5379 C   0  0  0  0  0  0  0  0  0  0  0  0
   17.3107  -10.0615  -15.5339 C   0  0  0  0  0  0  0  0  0  0  0  0
   17.1807   -9.8510  -16.7571 O   0  0  0  0  0  0  0  0  0  0  0  0
   17.4027   -6.5419  -14.3136 C   0  0  0  0  0  0  0  0  0  0  0  0
   16.2099   -6.1707  -14.3650 O   0  0  0  0  0  0  0  0  0  0  0  0
   17.6378  -11.3295  -15.1011 O   0  0  0  0  0  0  0  0  0  0  0  0
   18.3415   -5.8481  -13.5785 O   0  0  0  0  0  0  0  0  0  0  0  0
  1  2  1  0
  3  4  2  0
  3  2  1  0
  6  5  1  0
  7  6  2  0
  8  7  1  0
  9  8  2  0
  9 15  1  0
 11 10  1  1
 10  9  1  0
 11 12  1  0
 12  3  1  0
 13 17  1  0
 13 11  1  0
 14 13  2  0
 15 16  2  0
 16  6  1  0
 18 22  1  0
 18 17  1  0
 18 19  1  1
 19 20  1  0
 20 21  2  0
 22 25  1  0
 23 22  2  0
 24 20  1  0
M  END
$$$$
