GYD.pdb
     RDKit          3D

 25 25  0  0  1  0  0  0  0  0999 V2000
   19.1419  -20.2657  -17.5378 N   0  0  0  0  0  0  0  0  0  0  0  0
   19.1300  -18.9203  -18.0153 C   0  0  0  0  0  0  0  0  0  0  0  0
   18.8082  -17.9428  -16.9146 C   0  0  0  0  0  0  0  0  0  0  0  0
   17.8565  -18.1546  -16.1277 O   0  0  0  0  0  0  0  0  0  0  0  0
   20.9062  -20.2915  -11.2731 O   0  0  0  0  0  0  0  0  0  0  0  0
   20.8190  -19.1780  -12.1266 C   0  0  0  0  0  0  0  0  0  0  0  0
   21.5024  -19.1769  -13.3069 C   0  0  0  0  0  0  0  0  0  0  0  0
   21.4202  -18.0846  -14.1494 C   0  0  0  0  0  0  0  0  0  0  0  0
   20.6612  -16.9779  -13.8374 C   0  0  0  0  0  0  0  0  0  0  0  0
   20.5643  -15.8171  -14.7133 C   0  0  0  0  0  0  0  0  0  0  0  0
   19.4061  -15.8132  -15.6598 C   0  0  2  0  0  0  0  0  0  0  0  0
   19.5696  -16.7611  -16.7387 N   0  0  0  0  0  0  0  0  0  0  0  0
   19.2973  -14.4446  -16.2506 C   0  0  0  0  0  0  0  0  0  0  0  0
   20.0277  -14.1127  -17.2162 O   0  0  0  0  0  0  0  0  0  0  0  0
   19.9752  -16.9903  -12.6426 C   0  0  0  0  0  0  0  0  0  0  0  0
   20.0528  -18.0908  -11.7840 C   0  0  0  0  0  0  0  0  0  0  0  0
   18.3838  -13.4775  -15.7598 N   0  0  0  0  0  0  0  0  0  0  0  0
   18.2880  -12.1947  -16.3925 C   0  0  1  0  0  0  0  0  0  0  0  0
   16.8573  -11.7199  -16.5280 C   0  0  0  0  0  0  0  0  0  0  0  0
   16.8844  -10.3816  -17.1545 C   0  0  0  0  0  0  0  0  0  0  0  0
   16.9259   -9.3391  -16.4700 O   0  0  0  0  0  0  0  0  0  0  0  0
   19.1178  -11.1967  -15.6805 C   0  0  0  0  0  0  0  0  0  0  0  0
   19.4103  -11.3770  -14.4784 O   0  0  0  0  0  0  0  0  0  0  0  0
   16.8637  -10.2823  -18.5300 O   0  0  0  0  0  0  0  0  0  0  0  0
   19.5510  -10.0816  -16.3674 O   0  0  0  0  0  0  0  0  0  0  0  0
  1  2  1  0
  3  4  2  0
  3  2  1  0
  6  5  1  0
  7  6  2  0
  8  7  1  0
  9  8  2  0
  9 15  1  0
 11 10  1  1
 10  9  1  0
 11 12  1  0
 12  3  1  0
 13 17  1  0
 13 11  1  0
 14 13  2  0
 15 16  2  0
 16  6  1  0
 18 22  1  0
 18 17  1  0
 18 19  1  1
 19 20  1  0
 20 21  2  0
 22 25  1  0
 23 22  2  0
 24 20  1  0
M  END
$$$$
