GYD.pdb
     RDKit          3D

 25 25  0  0  1  0  0  0  0  0999 V2000
   23.9233  -20.9261   -8.5694 N   0  0  0  0  0  0  0  0  0  0  0  0
   24.9145  -21.2202   -9.5541 C   0  0  0  0  0  0  0  0  0  0  0  0
   24.8342  -20.2734  -10.7235 C   0  0  0  0  0  0  0  0  0  0  0  0
   23.8847  -19.4625  -10.8272 O   0  0  0  0  0  0  0  0  0  0  0  0
   27.7982  -15.5696  -17.6944 O   0  0  0  0  0  0  0  0  0  0  0  0
   27.6691  -16.4563  -16.6113 C   0  0  0  0  0  0  0  0  0  0  0  0
   28.0952  -17.7455  -16.7398 C   0  0  0  0  0  0  0  0  0  0  0  0
   27.9703  -18.6212  -15.6780 C   0  0  0  0  0  0  0  0  0  0  0  0
   27.4227  -18.2351  -14.4742 C   0  0  0  0  0  0  0  0  0  0  0  0
   27.2822  -19.1455  -13.3448 C   0  0  0  0  0  0  0  0  0  0  0  0
   25.8868  -19.3512  -12.8468 C   0  0  2  0  0  0  0  0  0  0  0  0
   25.8260  -20.2730  -11.7352 N   0  0  0  0  0  0  0  0  0  0  0  0
   25.0749  -19.9147  -13.9681 C   0  0  0  0  0  0  0  0  0  0  0  0
   25.2236  -21.1113  -14.3174 O   0  0  0  0  0  0  0  0  0  0  0  0
   26.9959  -16.9304  -14.3560 C   0  0  0  0  0  0  0  0  0  0  0  0
   27.1180  -16.0377  -15.4249 C   0  0  0  0  0  0  0  0  0  0  0  0
   24.1189  -19.1418  -14.6747 N   0  0  0  0  0  0  0  0  0  0  0  0
   23.3428  -19.7412  -15.7203 C   0  0  1  0  0  0  0  0  0  0  0  0
   21.8965  -19.2956  -15.6980 C   0  0  0  0  0  0  0  0  0  0  0  0
   21.2191  -20.0194  -14.6019 C   0  0  0  0  0  0  0  0  0  0  0  0
   21.7836  -20.9422  -13.9798 O   0  0  0  0  0  0  0  0  0  0  0  0
   23.9604  -19.4876  -17.0416 C   0  0  0  0  0  0  0  0  0  0  0  0
   24.4254  -20.4416  -17.7026 O   0  0  0  0  0  0  0  0  0  0  0  0
   19.9311  -19.6662  -14.2577 O   0  0  0  0  0  0  0  0  0  0  0  0
   24.0087  -18.1927  -17.5148 O   0  0  0  0  0  0  0  0  0  0  0  0
  1  2  1  0
  3  4  2  0
  3  2  1  0
  6  5  1  0
  7  6  2  0
  8  7  1  0
  9  8  2  0
  9 15  1  0
 11 10  1  6
 10  9  1  0
 11 12  1  0
 12  3  1  0
 13 17  1  0
 13 11  1  0
 14 13  2  0
 15 16  2  0
 16  6  1  0
 18 22  1  0
 18 17  1  0
 18 19  1  6
 19 20  1  0
 20 21  2  0
 22 25  1  0
 23 22  2  0
 24 20  1  0
M  END
$$$$
