GYD.pdb
     RDKit          3D

 25 25  0  0  1  0  0  0  0  0999 V2000
   16.4425  -10.8515    9.5971 N   0  0  0  0  0  0  0  0  0  0  0  0
   17.7542  -11.3921    9.7572 C   0  0  0  0  0  0  0  0  0  0  0  0
   17.8766  -12.7515    9.1187 C   0  0  0  0  0  0  0  0  0  0  0  0
   16.8722  -13.3269    8.6392 O   0  0  0  0  0  0  0  0  0  0  0  0
   17.3238  -11.9895    2.8857 O   0  0  0  0  0  0  0  0  0  0  0  0
   18.0186  -12.6193    3.9329 C   0  0  0  0  0  0  0  0  0  0  0  0
   18.9172  -11.9071    4.6714 C   0  0  0  0  0  0  0  0  0  0  0  0
   19.6029  -12.5217    5.7018 C   0  0  0  0  0  0  0  0  0  0  0  0
   19.4101  -13.8490    6.0170 C   0  0  0  0  0  0  0  0  0  0  0  0
   20.1256  -14.5133    7.0991 C   0  0  0  0  0  0  0  0  0  0  0  0
   19.3647  -14.6756    8.3766 C   0  0  2  0  0  0  0  0  0  0  0  0
   19.1259  -13.4153    9.0427 N   0  0  0  0  0  0  0  0  0  0  0  0
   20.1723  -15.5421    9.2881 C   0  0  0  0  0  0  0  0  0  0  0  0
   21.1683  -15.0713    9.8900 O   0  0  0  0  0  0  0  0  0  0  0  0
   18.5001  -14.5584    5.2643 C   0  0  0  0  0  0  0  0  0  0  0  0
   17.8020  -13.9450    4.2198 C   0  0  0  0  0  0  0  0  0  0  0  0
   19.8586  -16.9067    9.5119 N   0  0  0  0  0  0  0  0  0  0  0  0
   20.6230  -17.6741   10.4509 C   0  0  1  0  0  0  0  0  0  0  0  0
   19.7702  -18.6474   11.2357 C   0  0  0  0  0  0  0  0  0  0  0  0
   20.6555  -19.3641   12.1774 C   0  0  0  0  0  0  0  0  0  0  0  0
   21.0513  -20.5253   11.9490 O   0  0  0  0  0  0  0  0  0  0  0  0
   21.7407  -18.3685    9.7725 C   0  0  0  0  0  0  0  0  0  0  0  0
   22.7008  -18.8033   10.4452 O   0  0  0  0  0  0  0  0  0  0  0  0
   21.0546  -18.7339   13.3375 O   0  0  0  0  0  0  0  0  0  0  0  0
   21.6951  -18.5193    8.4020 O   0  0  0  0  0  0  0  0  0  0  0  0
  1  2  1  0
  3  4  2  0
  3  2  1  0
  6  5  1  0
  7  6  2  0
  8  7  1  0
  9  8  2  0
  9 15  1  0
 11 10  1  6
 10  9  1  0
 11 12  1  0
 12  3  1  0
 13 17  1  0
 13 11  1  0
 14 13  2  0
 15 16  2  0
 16  6  1  0
 18 22  1  0
 18 17  1  0
 18 19  1  6
 19 20  1  0
 20 21  2  0
 22 25  1  0
 23 22  2  0
 24 20  1  0
M  END
$$$$
