YCM.pdb
     RDKit          3D

 27 27  0  0  1  0  0  0  0  0999 V2000
   27.7554  -15.1518  -17.3495 O   0  0  0  0  0  0  0  0  0  0  0  0
   26.6553  -14.3133  -17.4134 C   0  0  0  0  0  0  0  0  0  0  0  0
   26.7238  -13.0701  -16.8137 C   0  0  0  0  0  0  0  0  0  0  0  0
   25.6443  -12.2211  -16.8644 C   0  0  0  0  0  0  0  0  0  0  0  0
   24.4571  -12.5569  -17.5038 C   0  0  0  0  0  0  0  0  0  0  0  0
   23.3042  -11.6144  -17.5388 C   0  0  0  0  0  0  0  0  0  0  0  0
   22.5221  -11.6831  -16.2286 C   0  0  2  0  0  0  0  0  0  0  0  0
   22.0640  -13.0591  -16.1069 N   0  0  0  0  0  0  0  0  0  0  0  0
   21.3757  -10.7387  -16.2501 C   0  0  0  0  0  0  0  0  0  0  0  0
   20.1835  -11.1221  -16.3390 O   0  0  0  0  0  0  0  0  0  0  0  0
   24.3971  -13.8018  -18.1010 C   0  0  0  0  0  0  0  0  0  0  0  0
   25.4791  -14.6487  -18.0484 C   0  0  0  0  0  0  0  0  0  0  0  0
   21.5858   -9.3379  -16.1695 N   0  0  0  0  0  0  0  0  0  0  0  0
   20.4460   -8.4029  -16.1189 C   0  0  1  0  0  0  0  0  0  0  0  0
   19.6099   -8.7317  -14.9003 C   0  0  0  0  0  0  0  0  0  0  0  0
   18.3826   -7.4626  -14.5825 S   0  0  0  0  0  0  0  0  0  0  0  0
   20.9400   -7.0168  -16.1331 C   0  0  0  0  0  0  0  0  0  0  0  0
   21.7386   -6.6191  -15.2279 O   0  0  0  0  0  0  0  0  0  0  0  0
   21.6683   -4.7076  -22.6070 C   0  0  0  0  0  0  0  0  0  0  0  0
   20.7087   -4.0489  -21.2031 S   0  0  0  0  0  0  0  0  0  0  0  0
   21.3331   -4.7998  -19.6479 C   0  0  0  0  0  0  0  0  0  0  0  0
   20.6547   -4.1647  -18.4789 C   0  0  0  0  0  0  0  0  0  0  0  0
   21.0473   -4.7409  -17.1408 C   0  0  2  0  0  0  0  0  0  0  0  0
   20.5442   -6.1160  -17.1414 N   0  0  0  0  0  0  0  0  0  0  0  0
   20.3956   -4.0144  -16.0499 C   0  0  0  0  0  0  0  0  0  0  0  0
   20.8522   -2.9286  -15.5899 O   0  0  0  0  0  0  0  0  0  0  0  0
   19.2381   -4.5002  -15.4757 O   0  0  0  0  0  0  0  0  0  0  0  0
  2  1  1  0
  2 12  2  0
  3  2  1  0
  4  3  2  0
  4  5  1  0
  5 11  2  0
  6  7  1  0
  6  5  1  0
  7  9  1  0
  7  8  1  6
  9 10  2  0
  9 13  1  0
 11 12  1  0
 13 14  1  0
 14 17  1  0
 14 15  1  1
 16 15  1  0
 17 18  2  0
 20 21  1  0
 20 19  1  0
 22 21  1  0
 23 22  1  6
 24 23  1  0
 24 17  1  0
 25 27  1  0
 25 23  1  0
 26 25  2  0
M  END
$$$$
