YCM.pdb
     RDKit          3D

 27 27  0  0  1  0  0  0  0  0999 V2000
   19.6970  -23.1198   -7.4953 O   0  0  0  0  0  0  0  0  0  0  0  0
   20.5998  -22.4127   -8.2713 C   0  0  0  0  0  0  0  0  0  0  0  0
   21.5730  -21.6562   -7.6465 C   0  0  0  0  0  0  0  0  0  0  0  0
   22.4798  -20.9461   -8.3963 C   0  0  0  0  0  0  0  0  0  0  0  0
   22.4681  -20.9497   -9.7860 C   0  0  0  0  0  0  0  0  0  0  0  0
   23.4640  -20.1670  -10.5696 C   0  0  0  0  0  0  0  0  0  0  0  0
   24.8313  -20.8460  -10.5196 C   0  0  2  0  0  0  0  0  0  0  0  0
   25.3112  -20.6808   -9.1556 N   0  0  0  0  0  0  0  0  0  0  0  0
   25.7643  -20.2223  -11.4929 C   0  0  0  0  0  0  0  0  0  0  0  0
   26.3669  -19.1460  -11.2597 O   0  0  0  0  0  0  0  0  0  0  0  0
   21.4917  -21.7088  -10.4027 C   0  0  0  0  0  0  0  0  0  0  0  0
   20.5861  -22.4181   -9.6493 C   0  0  0  0  0  0  0  0  0  0  0  0
   26.0169  -20.8298  -12.7499 N   0  0  0  0  0  0  0  0  0  0  0  0
   26.9665  -20.2276  -13.7047 C   0  0  1  0  0  0  0  0  0  0  0  0
   28.2941  -20.9440  -13.5770 C   0  0  0  0  0  0  0  0  0  0  0  0
   28.7061  -21.2649  -11.8609 S   0  0  0  0  0  0  0  0  0  0  0  0
   26.4030  -20.2773  -15.0633 C   0  0  0  0  0  0  0  0  0  0  0  0
   25.4064  -21.0268  -15.3092 O   0  0  0  0  0  0  0  0  0  0  0  0
   21.5979  -16.9353  -18.4208 C   0  0  0  0  0  0  0  0  0  0  0  0
   22.6826  -17.8530  -17.2775 S   0  0  0  0  0  0  0  0  0  0  0  0
   24.3484  -17.0799  -17.2844 C   0  0  0  0  0  0  0  0  0  0  0  0
   25.2658  -17.8620  -16.4032 C   0  0  0  0  0  0  0  0  0  0  0  0
   26.0762  -18.9126  -17.1217 C   0  0  2  0  0  0  0  0  0  0  0  0
   26.9494  -19.5006  -16.1040 N   0  0  0  0  0  0  0  0  0  0  0  0
   26.9184  -18.3050  -18.1534 C   0  0  0  0  0  0  0  0  0  0  0  0
   28.0593  -17.8219  -17.9001 O   0  0  0  0  0  0  0  0  0  0  0  0
   26.4865  -18.2377  -19.4627 O   0  0  0  0  0  0  0  0  0  0  0  0
  2  1  1  0
  2 12  2  0
  3  2  1  0
  4  3  2  0
  4  5  1  0
  5 11  2  0
  6  7  1  0
  6  5  1  0
  7  9  1  0
  7  8  1  1
  9 10  2  0
  9 13  1  0
 11 12  1  0
 13 14  1  0
 14 17  1  0
 14 15  1  6
 16 15  1  0
 17 18  2  0
 20 21  1  0
 20 19  1  0
 22 21  1  0
 23 22  1  1
 24 23  1  0
 24 17  1  0
 25 27  1  0
 25 23  1  0
 26 25  2  0
M  END
$$$$
