YCM.pdb
     RDKit          3D

 27 27  0  0  1  0  0  0  0  0999 V2000
    9.8854  -24.3084   -5.6789 O   0  0  0  0  0  0  0  0  0  0  0  0
   10.8407  -24.1952   -4.6829 C   0  0  0  0  0  0  0  0  0  0  0  0
   12.0691  -24.8032   -4.8596 C   0  0  0  0  0  0  0  0  0  0  0  0
   13.0326  -24.7043   -3.8847 C   0  0  0  0  0  0  0  0  0  0  0  0
   12.8300  -24.0067   -2.6999 C   0  0  0  0  0  0  0  0  0  0  0  0
   13.8945  -23.9203   -1.6617 C   0  0  0  0  0  0  0  0  0  0  0  0
   14.5526  -22.5423   -1.6891 C   0  0  2  0  0  0  0  0  0  0  0  0
   15.1946  -22.4305   -2.9904 N   0  0  0  0  0  0  0  0  0  0  0  0
   15.5450  -22.4113   -0.5915 C   0  0  0  0  0  0  0  0  0  0  0  0
   16.6517  -23.0037   -0.6042 O   0  0  0  0  0  0  0  0  0  0  0  0
   11.5989  -23.4017   -2.5313 C   0  0  0  0  0  0  0  0  0  0  0  0
   10.6372  -23.5027   -3.5090 C   0  0  0  0  0  0  0  0  0  0  0  0
   15.2767  -21.5953    0.5378 N   0  0  0  0  0  0  0  0  0  0  0  0
   16.2872  -21.4121    1.5967 C   0  0  1  0  0  0  0  0  0  0  0  0
   16.8276  -20.0008    1.5050 C   0  0  0  0  0  0  0  0  0  0  0  0
   15.5106  -18.7855    1.5847 S   0  0  0  0  0  0  0  0  0  0  0  0
   15.6962  -21.7285    2.9068 C   0  0  0  0  0  0  0  0  0  0  0  0
   14.5374  -22.2464    2.9711 O   0  0  0  0  0  0  0  0  0  0  0  0
   13.7084  -26.1437    5.0269 C   0  0  0  0  0  0  0  0  0  0  0  0
   15.0746  -25.8923    6.2085 S   0  0  0  0  0  0  0  0  0  0  0  0
   15.2706  -24.0934    6.5212 C   0  0  0  0  0  0  0  0  0  0  0  0
   15.7238  -23.4153    5.2703 C   0  0  0  0  0  0  0  0  0  0  0  0
   15.8572  -21.9168    5.3858 C   0  0  2  0  0  0  0  0  0  0  0  0
   16.3979  -21.4695    4.1007 N   0  0  0  0  0  0  0  0  0  0  0  0
   16.8126  -21.5586    6.4353 C   0  0  0  0  0  0  0  0  0  0  0  0
   18.0107  -21.2426    6.1830 O   0  0  0  0  0  0  0  0  0  0  0  0
   16.4297  -21.5540    7.7615 O   0  0  0  0  0  0  0  0  0  0  0  0
  2  1  1  0
  2 12  2  0
  3  2  1  0
  4  3  2  0
  4  5  1  0
  5 11  2  0
  6  7  1  0
  6  5  1  0
  7  9  1  0
  7  8  1  6
  9 10  2  0
  9 13  1  0
 11 12  1  0
 13 14  1  0
 14 17  1  0
 14 15  1  1
 16 15  1  0
 17 18  2  0
 20 21  1  0
 20 19  1  0
 22 21  1  0
 23 22  1  6
 24 23  1  0
 24 17  1  0
 25 27  1  0
 25 23  1  0
 26 25  2  0
M  END
$$$$
