YCM.pdb
     RDKit          3D

 27 27  0  0  1  0  0  0  0  0999 V2000
   18.0000  -11.3394  -22.0715 O   0  0  0  0  0  0  0  0  0  0  0  0
   18.9047  -11.2910  -21.0243 C   0  0  0  0  0  0  0  0  0  0  0  0
   19.2419  -10.0639  -20.4854 C   0  0  0  0  0  0  0  0  0  0  0  0
   20.1376   -9.9916  -19.4457 C   0  0  0  0  0  0  0  0  0  0  0  0
   20.7371  -11.1176  -18.8943 C   0  0  0  0  0  0  0  0  0  0  0  0
   21.7062  -11.0048  -17.7687 C   0  0  0  0  0  0  0  0  0  0  0  0
   20.9673  -10.9799  -16.4322 C   0  0  2  0  0  0  0  0  0  0  0  0
   20.0118  -12.0765  -16.4820 N   0  0  0  0  0  0  0  0  0  0  0  0
   20.2771   -9.6790  -16.2369 C   0  0  0  0  0  0  0  0  0  0  0  0
   19.0457   -9.5929  -16.0081 O   0  0  0  0  0  0  0  0  0  0  0  0
   20.3943  -12.3406  -19.4390 C   0  0  0  0  0  0  0  0  0  0  0  0
   19.4977  -12.4092  -20.4793 C   0  0  0  0  0  0  0  0  0  0  0  0
   20.9957   -8.4575  -16.3023 N   0  0  0  0  0  0  0  0  0  0  0  0
   20.3122   -7.1653  -16.1042 C   0  0  1  0  0  0  0  0  0  0  0  0
   19.6890   -7.1591  -14.7245 C   0  0  0  0  0  0  0  0  0  0  0  0
   20.8771   -7.6245  -13.4638 S   0  0  0  0  0  0  0  0  0  0  0  0
   21.2622   -6.0628  -16.3224 C   0  0  0  0  0  0  0  0  0  0  0  0
   22.4498   -6.1520  -15.8785 O   0  0  0  0  0  0  0  0  0  0  0  0
   24.1618   -1.3939  -21.6188 C   0  0  0  0  0  0  0  0  0  0  0  0
   23.0553   -2.7316  -21.0601 S   0  0  0  0  0  0  0  0  0  0  0  0
   22.9170   -2.6674  -19.2301 C   0  0  0  0  0  0  0  0  0  0  0  0
   21.9824   -3.7340  -18.7619 C   0  0  0  0  0  0  0  0  0  0  0  0
   21.8470   -3.8309  -17.2623 C   0  0  2  0  0  0  0  0  0  0  0  0
   20.8781   -4.9024  -17.0230 N   0  0  0  0  0  0  0  0  0  0  0  0
   21.3048   -2.5897  -16.7073 C   0  0  0  0  0  0  0  0  0  0  0  0
   22.0063   -1.5475  -16.5636 O   0  0  0  0  0  0  0  0  0  0  0  0
   19.9836   -2.5144  -16.3144 O   0  0  0  0  0  0  0  0  0  0  0  0
  2  1  1  0
  2 12  2  0
  3  2  1  0
  4  3  2  0
  4  5  1  0
  5 11  2  0
  6  7  1  0
  6  5  1  0
  7  9  1  0
  7  8  1  6
  9 10  2  0
  9 13  1  0
 11 12  1  0
 13 14  1  0
 14 17  1  0
 14 15  1  1
 16 15  1  0
 17 18  2  0
 20 21  1  0
 20 19  1  0
 22 21  1  0
 23 22  1  6
 24 23  1  0
 24 17  1  0
 25 27  1  0
 25 23  1  0
 26 25  2  0
M  END
$$$$
