YCM.pdb
     RDKit          3D

 27 27  0  0  1  0  0  0  0  0999 V2000
   16.9558  -16.3566  -17.6823 O   0  0  0  0  0  0  0  0  0  0  0  0
   17.5385  -15.1912  -17.2137 C   0  0  0  0  0  0  0  0  0  0  0  0
   18.1684  -15.2037  -15.9837 C   0  0  0  0  0  0  0  0  0  0  0  0
   18.7537  -14.0589  -15.4985 C   0  0  0  0  0  0  0  0  0  0  0  0
   18.7445  -12.8586  -16.1989 C   0  0  0  0  0  0  0  0  0  0  0  0
   19.3863  -11.6345  -15.6438 C   0  0  0  0  0  0  0  0  0  0  0  0
   20.4724  -11.1282  -16.5910 C   0  0  2  0  0  0  0  0  0  0  0  0
   21.5310  -12.1263  -16.5571 N   0  0  0  0  0  0  0  0  0  0  0  0
   20.9758   -9.8011  -16.1527 C   0  0  0  0  0  0  0  0  0  0  0  0
   21.9344   -9.6704  -15.3526 O   0  0  0  0  0  0  0  0  0  0  0  0
   18.1127  -12.8549  -17.4280 C   0  0  0  0  0  0  0  0  0  0  0  0
   17.5281  -14.0022  -17.9104 C   0  0  0  0  0  0  0  0  0  0  0  0
   20.3820   -8.6042  -16.6299 N   0  0  0  0  0  0  0  0  0  0  0  0
   20.9176   -7.2859  -16.2412 C   0  0  1  0  0  0  0  0  0  0  0  0
   22.3432   -7.1814  -16.7400 C   0  0  0  0  0  0  0  0  0  0  0  0
   23.0259   -5.5492  -16.4440 S   0  0  0  0  0  0  0  0  0  0  0  0
   20.0389   -6.2224  -16.7535 C   0  0  0  0  0  0  0  0  0  0  0  0
   19.4672   -6.3604  -17.8802 O   0  0  0  0  0  0  0  0  0  0  0  0
   13.4881   -3.6727  -17.5106 C   0  0  0  0  0  0  0  0  0  0  0  0
   14.8683   -4.7974  -17.1158 S   0  0  0  0  0  0  0  0  0  0  0  0
   16.4004   -3.8090  -16.8962 C   0  0  0  0  0  0  0  0  0  0  0  0
   17.5490   -4.7225  -16.6203 C   0  0  0  0  0  0  0  0  0  0  0  0
   18.8841   -4.0290  -16.5042 C   0  0  2  0  0  0  0  0  0  0  0  0
   19.8145   -5.0464  -16.0109 N   0  0  0  0  0  0  0  0  0  0  0  0
   18.8244   -2.9464  -15.5208 C   0  0  0  0  0  0  0  0  0  0  0  0
   18.0982   -1.9237  -15.6811 O   0  0  0  0  0  0  0  0  0  0  0  0
   19.5739   -3.0071  -14.3633 O   0  0  0  0  0  0  0  0  0  0  0  0
  2  1  1  0
  2 12  2  0
  3  2  1  0
  4  3  2  0
  4  5  1  0
  5 11  2  0
  6  7  1  0
  6  5  1  0
  7  9  1  0
  7  8  1  1
  9 10  2  0
  9 13  1  0
 11 12  1  0
 13 14  1  0
 14 17  1  0
 14 15  1  6
 16 15  1  0
 17 18  2  0
 20 21  1  0
 20 19  1  0
 22 21  1  0
 23 22  1  1
 24 23  1  0
 24 17  1  0
 25 27  1  0
 25 23  1  0
 26 25  2  0
M  END
$$$$
