YCM.pdb
     RDKit          3D

 27 27  0  0  1  0  0  0  0  0999 V2000
   19.2885  -14.3536  -18.0777 O   0  0  0  0  0  0  0  0  0  0  0  0
   19.9542  -15.3281  -17.3535 C   0  0  0  0  0  0  0  0  0  0  0  0
   21.3359  -15.3488  -17.3690 C   0  0  0  0  0  0  0  0  0  0  0  0
   22.0179  -16.3068  -16.6577 C   0  0  0  0  0  0  0  0  0  0  0  0
   21.3731  -17.2807  -15.9046 C   0  0  0  0  0  0  0  0  0  0  0  0
   22.1419  -18.3068  -15.1465 C   0  0  0  0  0  0  0  0  0  0  0  0
   23.0570  -19.0876  -16.0878 C   0  0  2  0  0  0  0  0  0  0  0  0
   22.1807  -19.9139  -16.9047 N   0  0  0  0  0  0  0  0  0  0  0  0
   24.0139  -19.9233  -15.3180 C   0  0  0  0  0  0  0  0  0  0  0  0
   23.6564  -20.9310  -14.6600 O   0  0  0  0  0  0  0  0  0  0  0  0
   19.9915  -17.2527  -15.8946 C   0  0  0  0  0  0  0  0  0  0  0  0
   19.3123  -16.2928  -16.6074 C   0  0  0  0  0  0  0  0  0  0  0  0
   25.3975  -19.6104  -15.2948 N   0  0  0  0  0  0  0  0  0  0  0  0
   26.2947  -20.2184  -14.2941 C   0  0  1  0  0  0  0  0  0  0  0  0
   27.7154  -19.7981  -14.6056 C   0  0  0  0  0  0  0  0  0  0  0  0
   28.8269  -20.1817  -13.2510 S   0  0  0  0  0  0  0  0  0  0  0  0
   25.8563  -19.8419  -12.9407 C   0  0  0  0  0  0  0  0  0  0  0  0
   25.4801  -18.6511  -12.7045 O   0  0  0  0  0  0  0  0  0  0  0  0
   21.0048  -19.4338  -10.4684 C   0  0  0  0  0  0  0  0  0  0  0  0
   21.6753  -20.3372   -9.0331 S   0  0  0  0  0  0  0  0  0  0  0  0
   23.5053  -20.1835   -9.0321 C   0  0  0  0  0  0  0  0  0  0  0  0
   24.0322  -20.4792  -10.3977 C   0  0  0  0  0  0  0  0  0  0  0  0
   25.5312  -20.3645  -10.5266 C   0  0  2  0  0  0  0  0  0  0  0  0
   25.8420  -20.7851  -11.8943 N   0  0  0  0  0  0  0  0  0  0  0  0
   26.2046  -21.2774   -9.6015 C   0  0  0  0  0  0  0  0  0  0  0  0
   26.7156  -22.3707   -9.9790 O   0  0  0  0  0  0  0  0  0  0  0  0
   26.3059  -20.9690   -8.2599 O   0  0  0  0  0  0  0  0  0  0  0  0
  2  1  1  0
  2 12  2  0
  3  2  1  0
  4  3  2  0
  4  5  1  0
  5 11  2  0
  6  7  1  0
  6  5  1  0
  7  9  1  0
  7  8  1  6
  9 10  2  0
  9 13  1  0
 11 12  1  0
 13 14  1  0
 14 17  1  0
 14 15  1  6
 16 15  1  0
 17 18  2  0
 20 21  1  0
 20 19  1  0
 22 21  1  0
 23 22  1  6
 24 23  1  0
 24 17  1  0
 25 27  1  0
 25 23  1  0
 26 25  2  0
M  END
$$$$
