YCM.pdb
     RDKit          3D

 27 27  0  0  1  0  0  0  0  0999 V2000
   28.7011  -14.4376  -17.7458 O   0  0  0  0  0  0  0  0  0  0  0  0
   28.0312  -15.5027  -17.1677 C   0  0  0  0  0  0  0  0  0  0  0  0
   27.8662  -15.5264  -15.7958 C   0  0  0  0  0  0  0  0  0  0  0  0
   27.2047  -16.5734  -15.2002 C   0  0  0  0  0  0  0  0  0  0  0  0
   26.6799  -17.6367  -15.9248 C   0  0  0  0  0  0  0  0  0  0  0  0
   25.9699  -18.7579  -15.2483 C   0  0  0  0  0  0  0  0  0  0  0  0
   26.9617  -19.6251  -14.4754 C   0  0  2  0  0  0  0  0  0  0  0  0
   27.7049  -20.3743  -15.4775 N   0  0  0  0  0  0  0  0  0  0  0  0
   26.2487  -20.5387  -13.5461 C   0  0  0  0  0  0  0  0  0  0  0  0
   25.7890  -21.6496  -13.9077 O   0  0  0  0  0  0  0  0  0  0  0  0
   26.8492  -17.6052  -17.2960 C   0  0  0  0  0  0  0  0  0  0  0  0
   27.5116  -16.5560  -17.8887 C   0  0  0  0  0  0  0  0  0  0  0  0
   26.0545  -20.1859  -12.1857 N   0  0  0  0  0  0  0  0  0  0  0  0
   25.0628  -20.8935  -11.3540 C   0  0  1  0  0  0  0  0  0  0  0  0
   25.3765  -20.6216   -9.8980 C   0  0  0  0  0  0  0  0  0  0  0  0
   27.0694  -21.0587   -9.4970 S   0  0  0  0  0  0  0  0  0  0  0  0
   23.7044  -20.4854  -11.7461 C   0  0  0  0  0  0  0  0  0  0  0  0
   23.5259  -19.3919  -12.3688 O   0  0  0  0  0  0  0  0  0  0  0  0
   19.2603  -21.2656  -17.2002 C   0  0  0  0  0  0  0  0  0  0  0  0
   20.7630  -21.4193  -16.1783 S   0  0  0  0  0  0  0  0  0  0  0  0
   20.3115  -21.1877  -14.4134 C   0  0  0  0  0  0  0  0  0  0  0  0
   21.5390  -21.2777  -13.5677 C   0  0  0  0  0  0  0  0  0  0  0  0
   21.3017  -21.0431  -12.0962 C   0  0  2  0  0  0  0  0  0  0  0  0
   22.5894  -21.2923  -11.4452 N   0  0  0  0  0  0  0  0  0  0  0  0
   20.3275  -21.9990  -11.5672 C   0  0  0  0  0  0  0  0  0  0  0  0
   19.1119  -21.7000  -11.3885 O   0  0  0  0  0  0  0  0  0  0  0  0
   20.7112  -23.2838  -11.2392 O   0  0  0  0  0  0  0  0  0  0  0  0
  2  1  1  0
  2 12  2  0
  3  2  1  0
  4  3  2  0
  4  5  1  0
  5 11  2  0
  6  7  1  0
  6  5  1  0
  7  9  1  0
  7  8  1  6
  9 10  2  0
  9 13  1  0
 11 12  1  0
 13 14  1  0
 14 17  1  0
 14 15  1  1
 16 15  1  0
 17 18  2  0
 20 21  1  0
 20 19  1  0
 22 21  1  0
 23 22  1  6
 24 23  1  0
 24 17  1  0
 25 27  1  0
 25 23  1  0
 26 25  2  0
M  END
$$$$
