YCM.pdb
     RDKit          3D

 27 27  0  0  1  0  0  0  0  0999 V2000
   15.7803  -15.5452  -16.9473 O   0  0  0  0  0  0  0  0  0  0  0  0
   16.2848  -14.5168  -16.1693 C   0  0  0  0  0  0  0  0  0  0  0  0
   15.5744  -13.3349  -16.0771 C   0  0  0  0  0  0  0  0  0  0  0  0
   16.0557  -12.3006  -15.3108 C   0  0  0  0  0  0  0  0  0  0  0  0
   17.2505  -12.3840  -14.6060 C   0  0  0  0  0  0  0  0  0  0  0  0
   17.7458  -11.2434  -13.7860 C   0  0  0  0  0  0  0  0  0  0  0  0
   18.1966  -10.0967  -14.6886 C   0  0  2  0  0  0  0  0  0  0  0  0
   19.4749  -10.5074  -15.2501 N   0  0  0  0  0  0  0  0  0  0  0  0
   18.3347   -8.8384  -13.9112 C   0  0  0  0  0  0  0  0  0  0  0  0
   19.3082   -8.6153  -13.1504 O   0  0  0  0  0  0  0  0  0  0  0  0
   17.9545  -13.5693  -14.7036 C   0  0  0  0  0  0  0  0  0  0  0  0
   17.4699  -14.6021  -15.4712 C   0  0  0  0  0  0  0  0  0  0  0  0
   17.3529   -7.8180  -13.9987 N   0  0  0  0  0  0  0  0  0  0  0  0
   17.5184   -6.5438  -13.2743 C   0  0  1  0  0  0  0  0  0  0  0  0
   17.7701   -5.4461  -14.2861 C   0  0  0  0  0  0  0  0  0  0  0  0
   16.4534   -5.3566  -15.5010 S   0  0  0  0  0  0  0  0  0  0  0  0
   16.3414   -6.2987  -12.4256 C   0  0  0  0  0  0  0  0  0  0  0  0
   15.1815   -6.6019  -12.8474 O   0  0  0  0  0  0  0  0  0  0  0  0
   12.8269   -6.8330   -5.7029 C   0  0  0  0  0  0  0  0  0  0  0  0
   14.1990   -7.1803   -6.8529 S   0  0  0  0  0  0  0  0  0  0  0  0
   14.1723   -5.9400   -8.2069 C   0  0  0  0  0  0  0  0  0  0  0  0
   15.1930   -6.3009   -9.2354 C   0  0  0  0  0  0  0  0  0  0  0  0
   15.2914   -5.3289  -10.3852 C   0  0  2  0  0  0  0  0  0  0  0  0
   16.4776   -5.7334  -11.1424 N   0  0  0  0  0  0  0  0  0  0  0  0
   15.5016   -3.9649   -9.8971 C   0  0  0  0  0  0  0  0  0  0  0  0
   16.6357   -3.4059   -9.9132 O   0  0  0  0  0  0  0  0  0  0  0  0
   14.4479   -3.2293   -9.3930 O   0  0  0  0  0  0  0  0  0  0  0  0
  2  1  1  0
  2 12  2  0
  3  2  1  0
  4  3  2  0
  4  5  1  0
  5 11  2  0
  6  7  1  0
  6  5  1  0
  7  9  1  0
  7  8  1  1
  9 10  2  0
  9 13  1  0
 11 12  1  0
 13 14  1  0
 14 17  1  0
 14 15  1  6
 16 15  1  0
 17 18  2  0
 20 21  1  0
 20 19  1  0
 22 21  1  0
 23 22  1  1
 24 23  1  0
 24 17  1  0
 25 27  1  0
 25 23  1  0
 26 25  2  0
M  END
$$$$
