YCM.pdb
     RDKit          3D

 27 27  0  0  1  0  0  0  0  0999 V2000
   19.4055  -20.6281  -17.2454 O   0  0  0  0  0  0  0  0  0  0  0  0
   20.0592  -19.4077  -17.2214 C   0  0  0  0  0  0  0  0  0  0  0  0
   21.4408  -19.3862  -17.2475 C   0  0  0  0  0  0  0  0  0  0  0  0
   22.1110  -18.1867  -17.2244 C   0  0  0  0  0  0  0  0  0  0  0  0
   21.4543  -16.9629  -17.1748 C   0  0  0  0  0  0  0  0  0  0  0  0
   22.2106  -15.6800  -17.1485 C   0  0  0  0  0  0  0  0  0  0  0  0
   22.1602  -15.0057  -18.5181 C   0  0  2  0  0  0  0  0  0  0  0  0
   22.9558  -15.8409  -19.4055 N   0  0  0  0  0  0  0  0  0  0  0  0
   22.7104  -13.6277  -18.4465 C   0  0  0  0  0  0  0  0  0  0  0  0
   23.8493  -13.3293  -18.8822 O   0  0  0  0  0  0  0  0  0  0  0  0
   20.0728  -16.9935  -17.1490 C   0  0  0  0  0  0  0  0  0  0  0  0
   19.4055  -18.1955  -17.1723 C   0  0  0  0  0  0  0  0  0  0  0  0
   21.9562  -12.5725  -17.8716 N   0  0  0  0  0  0  0  0  0  0  0  0
   22.4617  -11.1867  -17.8830 C   0  0  1  0  0  0  0  0  0  0  0  0
   22.7892  -10.8076  -19.3117 C   0  0  0  0  0  0  0  0  0  0  0  0
   21.3817  -11.0526  -20.3965 S   0  0  0  0  0  0  0  0  0  0  0  0
   21.4771  -10.2938  -17.2515 C   0  0  0  0  0  0  0  0  0  0  0  0
   20.2493  -10.3784  -17.5690 O   0  0  0  0  0  0  0  0  0  0  0  0
   18.2743   -7.8956  -10.8897 C   0  0  0  0  0  0  0  0  0  0  0  0
   19.4955   -8.8677  -11.8329 S   0  0  0  0  0  0  0  0  0  0  0  0
   19.6734   -8.1386  -13.5089 C   0  0  0  0  0  0  0  0  0  0  0  0
   20.6393   -8.9509  -14.3072 C   0  0  0  0  0  0  0  0  0  0  0  0
   20.8853   -8.4340  -15.7032 C   0  0  2  0  0  0  0  0  0  0  0  0
   21.8722   -9.3420  -16.2910 N   0  0  0  0  0  0  0  0  0  0  0  0
   21.4634   -7.0897  -15.6662 C   0  0  0  0  0  0  0  0  0  0  0  0
   22.6907   -6.8728  -15.8798 O   0  0  0  0  0  0  0  0  0  0  0  0
   20.6721   -5.9925  -15.3912 O   0  0  0  0  0  0  0  0  0  0  0  0
  2  1  1  0
  2 12  2  0
  3  2  1  0
  4  3  2  0
  4  5  1  0
  5 11  2  0
  6  7  1  0
  6  5  1  0
  7  9  1  0
  7  8  1  6
  9 10  2  0
  9 13  1  0
 11 12  1  0
 13 14  1  0
 14 17  1  0
 14 15  1  6
 16 15  1  0
 17 18  2  0
 20 21  1  0
 20 19  1  0
 22 21  1  0
 23 22  1  1
 24 23  1  0
 24 17  1  0
 25 27  1  0
 25 23  1  0
 26 25  2  0
M  END
$$$$
