YCM.pdb
     RDKit          3D

 27 27  0  0  1  0  0  0  0  0999 V2000
   18.8562  -21.8941  -12.6348 O   0  0  0  0  0  0  0  0  0  0  0  0
   19.9277  -21.5085  -13.4225 C   0  0  0  0  0  0  0  0  0  0  0  0
   19.7036  -21.1809  -14.7463 C   0  0  0  0  0  0  0  0  0  0  0  0
   20.7518  -20.7954  -15.5469 C   0  0  0  0  0  0  0  0  0  0  0  0
   22.0591  -20.7162  -15.0822 C   0  0  0  0  0  0  0  0  0  0  0  0
   23.1738  -20.2969  -15.9768 C   0  0  0  0  0  0  0  0  0  0  0  0
   23.3389  -18.7787  -15.9438 C   0  0  2  0  0  0  0  0  0  0  0  0
   22.1448  -18.2320  -16.5709 N   0  0  0  0  0  0  0  0  0  0  0  0
   24.5633  -18.3667  -16.6772 C   0  0  0  0  0  0  0  0  0  0  0  0
   24.5848  -18.2026  -17.9216 O   0  0  0  0  0  0  0  0  0  0  0  0
   22.2745  -21.0454  -13.7573 C   0  0  0  0  0  0  0  0  0  0  0  0
   21.2232  -21.4307  -12.9591 C   0  0  0  0  0  0  0  0  0  0  0  0
   25.7817  -18.1375  -15.9873 N   0  0  0  0  0  0  0  0  0  0  0  0
   27.0005  -17.7374  -16.7156 C   0  0  1  0  0  0  0  0  0  0  0  0
   27.4649  -16.4015  -16.1756 C   0  0  0  0  0  0  0  0  0  0  0  0
   27.2233  -16.2888  -14.4017 S   0  0  0  0  0  0  0  0  0  0  0  0
   28.0150  -18.7978  -16.6057 C   0  0  0  0  0  0  0  0  0  0  0  0
   28.2415  -19.3443  -15.4807 O   0  0  0  0  0  0  0  0  0  0  0  0
   30.1870  -25.6029  -16.5817 C   0  0  0  0  0  0  0  0  0  0  0  0
   29.0766  -24.1568  -16.6227 S   0  0  0  0  0  0  0  0  0  0  0  0
   30.0465  -22.6722  -17.0998 C   0  0  0  0  0  0  0  0  0  0  0  0
   29.1504  -21.4780  -17.1288 C   0  0  0  0  0  0  0  0  0  0  0  0
   29.8199  -20.2062  -17.5881 C   0  0  2  0  0  0  0  0  0  0  0  0
   28.7430  -19.2248  -17.7336 N   0  0  0  0  0  0  0  0  0  0  0  0
   30.4505  -20.3929  -18.8959 C   0  0  0  0  0  0  0  0  0  0  0  0
   31.5120  -21.0630  -19.0477 O   0  0  0  0  0  0  0  0  0  0  0  0
   29.8962  -19.8324  -20.0290 O   0  0  0  0  0  0  0  0  0  0  0  0
  2  1  1  0
  2 12  2  0
  3  2  1  0
  4  3  2  0
  4  5  1  0
  5 11  2  0
  6  7  1  0
  6  5  1  0
  7  9  1  0
  7  8  1  6
  9 10  2  0
  9 13  1  0
 11 12  1  0
 13 14  1  0
 14 17  1  0
 14 15  1  1
 16 15  1  0
 17 18  2  0
 20 21  1  0
 20 19  1  0
 22 21  1  0
 23 22  1  6
 24 23  1  0
 24 17  1  0
 25 27  1  0
 25 23  1  0
 26 25  2  0
M  END
$$$$
