YCM.pdb
     RDKit          3D

 27 27  0  0  1  0  0  0  0  0999 V2000
   17.4625  -15.0869  -14.8047 O   0  0  0  0  0  0  0  0  0  0  0  0
   17.7980  -13.7793  -15.1125 C   0  0  0  0  0  0  0  0  0  0  0  0
   16.9378  -12.7618  -14.7454 C   0  0  0  0  0  0  0  0  0  0  0  0
   17.2501  -11.4565  -15.0404 C   0  0  0  0  0  0  0  0  0  0  0  0
   18.4162  -11.0977  -15.7059 C   0  0  0  0  0  0  0  0  0  0  0  0
   18.7243   -9.6730  -16.0127 C   0  0  0  0  0  0  0  0  0  0  0  0
   17.5193   -8.9976  -16.6645 C   0  0  2  0  0  0  0  0  0  0  0  0
   17.2339   -9.7627  -17.8691 N   0  0  0  0  0  0  0  0  0  0  0  0
   17.8237   -7.5808  -16.9917 C   0  0  0  0  0  0  0  0  0  0  0  0
   18.6264   -7.2524  -17.8993 O   0  0  0  0  0  0  0  0  0  0  0  0
   19.2708  -12.1211  -16.0693 C   0  0  0  0  0  0  0  0  0  0  0  0
   18.9552  -13.4261  -15.7725 C   0  0  0  0  0  0  0  0  0  0  0  0
   17.2073   -6.5210  -16.2776 N   0  0  0  0  0  0  0  0  0  0  0  0
   17.3338   -5.1248  -16.7364 C   0  0  1  0  0  0  0  0  0  0  0  0
   16.0690   -4.7473  -17.4780 C   0  0  0  0  0  0  0  0  0  0  0  0
   14.6142   -4.9673  -16.4520 S   0  0  0  0  0  0  0  0  0  0  0  0
   17.6229   -4.2496  -15.5891 C   0  0  0  0  0  0  0  0  0  0  0  0
   17.3661   -4.6457  -14.4091 O   0  0  0  0  0  0  0  0  0  0  0  0
   20.9326    2.7060  -13.6771 C   0  0  0  0  0  0  0  0  0  0  0  0
   20.6563    1.3706  -14.8880 S   0  0  0  0  0  0  0  0  0  0  0  0
   19.5481    0.1093  -14.1440 C   0  0  0  0  0  0  0  0  0  0  0  0
   19.2940   -0.9791  -15.1343 C   0  0  0  0  0  0  0  0  0  0  0  0
   18.4036   -2.0874  -14.6290 C   0  0  2  0  0  0  0  0  0  0  0  0
   18.1872   -2.9722  -15.7754 N   0  0  0  0  0  0  0  0  0  0  0  0
   17.1056   -1.5599  -14.2050 C   0  0  0  0  0  0  0  0  0  0  0  0
   16.1965   -1.2526  -15.0284 O   0  0  0  0  0  0  0  0  0  0  0  0
   16.8256   -1.3767  -12.8658 O   0  0  0  0  0  0  0  0  0  0  0  0
  2  1  1  0
  2 12  2  0
  3  2  1  0
  4  3  2  0
  4  5  1  0
  5 11  2  0
  6  7  1  0
  6  5  1  0
  7  9  1  0
  7  8  1  6
  9 10  2  0
  9 13  1  0
 11 12  1  0
 13 14  1  0
 14 17  1  0
 14 15  1  1
 16 15  1  0
 17 18  2  0
 20 21  1  0
 20 19  1  0
 22 21  1  0
 23 22  1  6
 24 23  1  0
 24 17  1  0
 25 27  1  0
 25 23  1  0
 26 25  2  0
M  END
$$$$
