YCM.pdb
     RDKit          3D

 27 27  0  0  1  0  0  0  0  0999 V2000
   20.5770  -14.5123  -19.9355 O   0  0  0  0  0  0  0  0  0  0  0  0
   20.4715  -13.2760  -19.3209 C   0  0  0  0  0  0  0  0  0  0  0  0
   21.6242  -12.6159  -18.9395 C   0  0  0  0  0  0  0  0  0  0  0  0
   21.5439  -11.3879  -18.3279 C   0  0  0  0  0  0  0  0  0  0  0  0
   20.3322  -10.7596  -18.0665 C   0  0  0  0  0  0  0  0  0  0  0  0
   20.2793   -9.4287  -17.3996 C   0  0  0  0  0  0  0  0  0  0  0  0
   20.5031   -9.5788  -15.8961 C   0  0  2  0  0  0  0  0  0  0  0  0
   19.4421  -10.4528  -15.4183 N   0  0  0  0  0  0  0  0  0  0  0  0
   20.4495   -8.2563  -15.2217 C   0  0  0  0  0  0  0  0  0  0  0  0
   19.8244   -8.0672  -14.1496 O   0  0  0  0  0  0  0  0  0  0  0  0
   19.1845  -11.4263  -18.4512 C   0  0  0  0  0  0  0  0  0  0  0  0
   19.2686  -12.6550  -19.0629 C   0  0  0  0  0  0  0  0  0  0  0  0
   21.1156   -7.1314  -15.7729 N   0  0  0  0  0  0  0  0  0  0  0  0
   21.1903   -5.8578  -15.0325 C   0  0  1  0  0  0  0  0  0  0  0  0
   21.8948   -6.1089  -13.7161 C   0  0  0  0  0  0  0  0  0  0  0  0
   22.4169   -4.5752  -12.9462 S   0  0  0  0  0  0  0  0  0  0  0  0
   21.8495   -4.8381  -15.8639 C   0  0  0  0  0  0  0  0  0  0  0  0
   23.0432   -5.0189  -16.2612 O   0  0  0  0  0  0  0  0  0  0  0  0
   20.3934    1.4928  -20.3636 C   0  0  0  0  0  0  0  0  0  0  0  0
   19.7979    0.0779  -19.3789 S   0  0  0  0  0  0  0  0  0  0  0  0
   21.2355   -0.7461  -18.5871 C   0  0  0  0  0  0  0  0  0  0  0  0
   20.7598   -1.8948  -17.7600 C   0  0  0  0  0  0  0  0  0  0  0  0
   21.8557   -2.6427  -17.0415 C   0  0  2  0  0  0  0  0  0  0  0  0
   21.1758   -3.6575  -16.2341 N   0  0  0  0  0  0  0  0  0  0  0  0
   22.5879   -1.7529  -16.1389 C   0  0  0  0  0  0  0  0  0  0  0  0
   22.1586   -1.4507  -14.9885 O   0  0  0  0  0  0  0  0  0  0  0  0
   23.7950   -1.2033  -16.5212 O   0  0  0  0  0  0  0  0  0  0  0  0
  2  1  1  0
  2 12  2  0
  3  2  1  0
  4  3  2  0
  4  5  1  0
  5 11  2  0
  6  7  1  0
  6  5  1  0
  7  9  1  0
  7  8  1  1
  9 10  2  0
  9 13  1  0
 11 12  1  0
 13 14  1  0
 14 17  1  0
 14 15  1  1
 16 15  1  0
 17 18  2  0
 20 21  1  0
 20 19  1  0
 22 21  1  0
 23 22  1  1
 24 23  1  0
 24 17  1  0
 25 27  1  0
 25 23  1  0
 26 25  2  0
M  END
$$$$
