YCM.pdb
     RDKit          3D

 27 27  0  0  1  0  0  0  0  0999 V2000
   33.4828  -30.7049  -17.1093 O   0  0  0  0  0  0  0  0  0  0  0  0
   32.1460  -30.9549  -16.8493 C   0  0  0  0  0  0  0  0  0  0  0  0
   31.8075  -32.0330  -16.0537 C   0  0  0  0  0  0  0  0  0  0  0  0
   30.4871  -32.3004  -15.7822 C   0  0  0  0  0  0  0  0  0  0  0  0
   29.4482  -31.5226  -16.2793 C   0  0  0  0  0  0  0  0  0  0  0  0
   28.0268  -31.8408  -15.9680 C   0  0  0  0  0  0  0  0  0  0  0  0
   27.7008  -33.2748  -16.3810 C   0  0  2  0  0  0  0  0  0  0  0  0
   27.7880  -33.3032  -17.8335 N   0  0  0  0  0  0  0  0  0  0  0  0
   26.3418  -33.6589  -15.9203 C   0  0  0  0  0  0  0  0  0  0  0  0
   25.3954  -33.8835  -16.7141 O   0  0  0  0  0  0  0  0  0  0  0  0
   29.7954  -30.4465  -17.0738 C   0  0  0  0  0  0  0  0  0  0  0  0
   31.1175  -30.1819  -17.3434 C   0  0  0  0  0  0  0  0  0  0  0  0
   26.0527  -33.7900  -14.5375 N   0  0  0  0  0  0  0  0  0  0  0  0
   24.7368  -34.2766  -14.0818 C   0  0  1  0  0  0  0  0  0  0  0  0
   24.5203  -35.6672  -14.6397 C   0  0  0  0  0  0  0  0  0  0  0  0
   25.7932  -36.8036  -14.0865 S   0  0  0  0  0  0  0  0  0  0  0  0
   24.6673  -34.2178  -12.6130 C   0  0  0  0  0  0  0  0  0  0  0  0
   25.7051  -34.4564  -11.9192 O   0  0  0  0  0  0  0  0  0  0  0  0
   19.5873  -31.4596   -9.7620 C   0  0  0  0  0  0  0  0  0  0  0  0
   20.0346  -32.6292   -8.4361 S   0  0  0  0  0  0  0  0  0  0  0  0
   21.7632  -33.1925   -8.6944 C   0  0  0  0  0  0  0  0  0  0  0  0
   22.0202  -33.3628  -10.1556 C   0  0  0  0  0  0  0  0  0  0  0  0
   23.4199  -33.8125  -10.4949 C   0  0  2  0  0  0  0  0  0  0  0  0
   23.4633  -33.8958  -11.9561 N   0  0  0  0  0  0  0  0  0  0  0  0
   23.6846  -35.1456   -9.9512 C   0  0  0  0  0  0  0  0  0  0  0  0
   23.3397  -36.2037  -10.5514 O   0  0  0  0  0  0  0  0  0  0  0  0
   24.3321  -35.2945   -8.7412 O   0  0  0  0  0  0  0  0  0  0  0  0
  2  1  1  0
  2 12  2  0
  3  2  1  0
  4  3  2  0
  4  5  1  0
  5 11  2  0
  6  7  1  0
  6  5  1  0
  7  9  1  0
  7  8  1  6
  9 10  2  0
  9 13  1  0
 11 12  1  0
 13 14  1  0
 14 17  1  0
 14 15  1  1
 16 15  1  0
 17 18  2  0
 20 21  1  0
 20 19  1  0
 22 21  1  0
 23 22  1  6
 24 23  1  0
 24 17  1  0
 25 27  1  0
 25 23  1  0
 26 25  2  0
M  END
$$$$
