YWR.pdb
     RDKit          3D

 38 40  0  0  1  0  0  0  0  0999 V2000
   23.3202  -14.1143  -22.6560 O   0  0  0  0  0  0  0  0  0  0  0  0
   22.9811  -15.2517  -21.8934 C   0  0  0  0  0  0  0  0  0  0  0  0
   22.7937  -15.1299  -20.5328 C   0  0  0  0  0  0  0  0  0  0  0  0
   22.4592  -16.2476  -19.7774 C   0  0  0  0  0  0  0  0  0  0  0  0
   22.3009  -17.5009  -20.3256 C   0  0  0  0  0  0  0  0  0  0  0  0
   21.9441  -18.7014  -19.5386 C   0  0  0  0  0  0  0  0  0  0  0  0
   23.0415  -19.2848  -18.7271 C   0  0  2  0  0  0  0  0  0  0  0  0
   23.9716  -20.0553  -19.5589 N   0  0  0  0  0  0  0  0  0  0  0  0
   22.6790  -20.0408  -17.5368 C   0  0  0  0  0  0  0  0  0  0  0  0
   22.5547  -21.3135  -17.6218 O   0  0  0  0  0  0  0  0  0  0  0  0
   22.4963  -17.5986  -21.7093 C   0  0  0  0  0  0  0  0  0  0  0  0
   22.8290  -16.4889  -22.4648 C   0  0  0  0  0  0  0  0  0  0  0  0
   22.4424  -19.4921  -16.2362 N   0  0  0  0  0  0  0  0  0  0  0  0
   22.1445  -20.3206  -15.1120 C   0  0  1  0  0  0  0  0  0  0  0  0
   22.4600  -19.6325  -13.7959 C   0  0  0  0  0  0  0  0  0  0  0  0
   22.2595  -20.4826  -12.6214 C   0  0  0  0  0  0  0  0  0  0  0  0
   22.8734  -21.6877  -12.3532 C   0  0  0  0  0  0  0  0  0  0  0  0
   22.4362  -22.1789  -11.1797 N   0  0  0  0  0  0  0  0  0  0  0  0
   21.5274  -21.3080  -10.6535 C   0  0  0  0  0  0  0  0  0  0  0  0
   20.7886  -21.3218   -9.4908 C   0  0  0  0  0  0  0  0  0  0  0  0
   19.9203  -20.2915   -9.1820 C   0  0  0  0  0  0  0  0  0  0  0  0
   19.8233  -19.2591  -10.0746 C   0  0  0  0  0  0  0  0  0  0  0  0
   20.5512  -19.2169  -11.2497 C   0  0  0  0  0  0  0  0  0  0  0  0
   21.4175  -20.2451  -11.5574 C   0  0  0  0  0  0  0  0  0  0  0  0
   20.7108  -20.6894  -15.0300 C   0  0  0  0  0  0  0  0  0  0  0  0
   19.8523  -19.8023  -15.2450 O   0  0  0  0  0  0  0  0  0  0  0  0
   21.0991  -27.3383  -13.3437 N   0  0  0  0  0  0  0  0  0  0  0  0
   20.5672  -27.0696  -12.0594 C   0  0  0  0  0  0  0  0  0  0  0  0
   21.2740  -27.4594  -11.0457 N   0  0  0  0  0  0  0  0  0  0  0  0
   19.3394  -26.4195  -11.8422 N   0  0  0  0  0  0  0  0  0  0  0  0
   18.5782  -25.9067  -13.0243 C   0  0  0  0  0  0  0  0  0  0  0  0
   18.6685  -24.4392  -13.0811 C   0  0  0  0  0  0  0  0  0  0  0  0
   18.7349  -23.7747  -14.3580 C   0  0  0  0  0  0  0  0  0  0  0  0
   18.8162  -22.3202  -14.5610 C   0  0  2  0  0  0  0  0  0  0  0  0
   20.2515  -21.9764  -14.7259 N   0  0  0  0  0  0  0  0  0  0  0  0
   18.2786  -21.3838  -13.6004 C   0  0  0  0  0  0  0  0  0  0  0  0
   17.0447  -21.2847  -13.0190 O   0  0  0  0  0  0  0  0  0  0  0  0
   19.0876  -20.4462  -13.1946 O   0  0  0  0  0  0  0  0  0  0  0  0
  2  1  1  0
  2 12  2  0
  3  2  1  0
  4  3  2  0
  4  5  1  0
  5 11  2  0
  6  7  1  0
  6  5  1  0
  7  8  1  6
  9  7  1  0
  9 13  1  0
 10  9  2  0
 11 12  1  0
 14 25  1  0
 14 13  1  0
 14 15  1  1
 16 15  1  0
 16 24  1  0
 17 18  1  0
 17 16  2  0
 18 19  1  0
 19 24  2  0
 19 20  1  0
 20 21  2  0
 21 22  1  0
 23 22  2  0
 24 23  1  0
 25 26  2  0
 27 28  1  0
 28 29  2  0
 30 28  1  0
 30 31  1  0
 32 33  1  0
 32 31  1  0
 34 33  1  1
 34 36  1  0
 35 34  1  0
 35 25  1  0
 36 37  1  0
 38 36  2  0
M  END
$$$$
