YWR.pdb
     RDKit          3D

 38 40  0  0  1  0  0  0  0  0999 V2000
   30.3093  -16.8059  -19.1861 O   0  0  0  0  0  0  0  0  0  0  0  0
   29.5412  -17.3499  -18.1352 C   0  0  0  0  0  0  0  0  0  0  0  0
   30.0395  -17.3394  -16.8496 C   0  0  0  0  0  0  0  0  0  0  0  0
   29.2863  -17.8738  -15.8110 C   0  0  0  0  0  0  0  0  0  0  0  0
   28.0394  -18.4273  -15.9990 C   0  0  0  0  0  0  0  0  0  0  0  0
   27.2228  -18.9996  -14.9066 C   0  0  0  0  0  0  0  0  0  0  0  0
   27.6316  -20.3481  -14.4400 C   0  0  2  0  0  0  0  0  0  0  0  0
   27.4733  -21.3516  -15.4976 N   0  0  0  0  0  0  0  0  0  0  0  0
   27.0671  -20.8348  -13.1894 C   0  0  0  0  0  0  0  0  0  0  0  0
   25.9380  -21.4409  -13.2104 O   0  0  0  0  0  0  0  0  0  0  0  0
   27.5553  -18.4259  -17.3135 C   0  0  0  0  0  0  0  0  0  0  0  0
   28.3014  -17.8948  -18.3499 C   0  0  0  0  0  0  0  0  0  0  0  0
   27.6641  -20.7057  -11.8950 N   0  0  0  0  0  0  0  0  0  0  0  0
   26.9461  -21.0155  -10.7001 C   0  0  1  0  0  0  0  0  0  0  0  0
   27.6908  -20.5696   -9.4545 C   0  0  0  0  0  0  0  0  0  0  0  0
   26.9154  -20.7081   -8.2208 C   0  0  0  0  0  0  0  0  0  0  0  0
   25.6519  -21.2441   -8.0892 C   0  0  0  0  0  0  0  0  0  0  0  0
   25.2625  -21.2008   -6.8023 N   0  0  0  0  0  0  0  0  0  0  0  0
   26.2606  -20.6364   -6.0631 C   0  0  0  0  0  0  0  0  0  0  0  0
   26.3825  -20.3604   -4.7189 C   0  0  0  0  0  0  0  0  0  0  0  0
   27.5257  -19.7736   -4.2093 C   0  0  0  0  0  0  0  0  0  0  0  0
   28.5298  -19.4782   -5.0904 C   0  0  0  0  0  0  0  0  0  0  0  0
   28.4370  -19.7428   -6.4447 C   0  0  0  0  0  0  0  0  0  0  0  0
   27.2961  -20.3282   -6.9526 C   0  0  0  0  0  0  0  0  0  0  0  0
   25.6250  -20.3461  -10.6301 C   0  0  0  0  0  0  0  0  0  0  0  0
   25.5834  -19.0962  -10.7104 O   0  0  0  0  0  0  0  0  0  0  0  0
   19.1865  -24.1135   -9.2305 N   0  0  0  0  0  0  0  0  0  0  0  0
   18.5343  -23.6194  -10.3859 C   0  0  0  0  0  0  0  0  0  0  0  0
   17.2453  -23.5053  -10.3201 N   0  0  0  0  0  0  0  0  0  0  0  0
   19.2048  -23.2601  -11.5686 N   0  0  0  0  0  0  0  0  0  0  0  0
   20.6922  -23.0990  -11.5315 C   0  0  0  0  0  0  0  0  0  0  0  0
   21.0505  -21.6919  -11.7684 C   0  0  0  0  0  0  0  0  0  0  0  0
   22.4368  -21.2984  -11.7823 C   0  0  0  0  0  0  0  0  0  0  0  0
   23.0880  -20.4288  -10.7908 C   0  0  2  0  0  0  0  0  0  0  0  0
   24.4112  -21.0271  -10.4796 N   0  0  0  0  0  0  0  0  0  0  0  0
   22.4693  -20.1207   -9.5216 C   0  0  0  0  0  0  0  0  0  0  0  0
   21.4759  -19.2437   -9.1830 O   0  0  0  0  0  0  0  0  0  0  0  0
   22.9173  -20.7758   -8.4880 O   0  0  0  0  0  0  0  0  0  0  0  0
  2  1  1  0
  2 12  2  0
  3  2  1  0
  4  3  2  0
  4  5  1  0
  5 11  2  0
  6  7  1  0
  6  5  1  0
  7  8  1  6
  9  7  1  0
  9 13  1  0
 10  9  2  0
 11 12  1  0
 14 25  1  0
 14 13  1  0
 14 15  1  1
 16 15  1  0
 16 24  1  0
 17 18  1  0
 17 16  2  0
 18 19  1  0
 19 24  2  0
 19 20  1  0
 20 21  2  0
 21 22  1  0
 23 22  2  0
 24 23  1  0
 25 26  2  0
 27 28  1  0
 28 29  2  0
 30 28  1  0
 30 31  1  0
 32 33  1  0
 32 31  1  0
 34 33  1  1
 34 36  1  0
 35 34  1  0
 35 25  1  0
 36 37  1  0
 38 36  2  0
M  END
$$$$
