YWR.pdb
     RDKit          3D

 38 40  0  0  1  0  0  0  0  0999 V2000
   28.8337  -19.1029  -20.3039 O   0  0  0  0  0  0  0  0  0  0  0  0
   28.5015  -19.6286  -19.0376 C   0  0  0  0  0  0  0  0  0  0  0  0
   29.4724  -20.2493  -18.2804 C   0  0  0  0  0  0  0  0  0  0  0  0
   29.1500  -20.7684  -17.0321 C   0  0  0  0  0  0  0  0  0  0  0  0
   27.8835  -20.6959  -16.4962 C   0  0  0  0  0  0  0  0  0  0  0  0
   27.5216  -21.2411  -15.1697 C   0  0  0  0  0  0  0  0  0  0  0  0
   27.2478  -20.2325  -14.1156 C   0  0  2  0  0  0  0  0  0  0  0  0
   28.3294  -19.2465  -14.0237 N   0  0  0  0  0  0  0  0  0  0  0  0
   26.8865  -20.7151  -12.7904 C   0  0  0  0  0  0  0  0  0  0  0  0
   25.9044  -21.5299  -12.6712 O   0  0  0  0  0  0  0  0  0  0  0  0
   26.9152  -20.0607  -17.2843 C   0  0  0  0  0  0  0  0  0  0  0  0
   27.2319  -19.5425  -18.5270 C   0  0  0  0  0  0  0  0  0  0  0  0
   27.5386  -20.3652  -11.5653 N   0  0  0  0  0  0  0  0  0  0  0  0
   26.9915  -20.7162  -10.2939 C   0  0  1  0  0  0  0  0  0  0  0  0
   27.9600  -20.4368   -9.1585 C   0  0  0  0  0  0  0  0  0  0  0  0
   27.3671  -20.5772   -7.8277 C   0  0  0  0  0  0  0  0  0  0  0  0
   26.1540  -21.1529   -7.5149 C   0  0  0  0  0  0  0  0  0  0  0  0
   25.9439  -21.0977   -6.1874 N   0  0  0  0  0  0  0  0  0  0  0  0
   27.0131  -20.4855   -5.6015 C   0  0  0  0  0  0  0  0  0  0  0  0
   27.3087  -20.1793   -4.2912 C   0  0  0  0  0  0  0  0  0  0  0  0
   28.4891  -19.5444   -3.9531 C   0  0  0  0  0  0  0  0  0  0  0  0
   29.3512  -19.2325   -4.9687 C   0  0  0  0  0  0  0  0  0  0  0  0
   29.0826  -19.5265   -6.2932 C   0  0  0  0  0  0  0  0  0  0  0  0
   27.9047  -20.1599   -6.6300 C   0  0  0  0  0  0  0  0  0  0  0  0
   25.7647  -19.9526   -9.9622 C   0  0  0  0  0  0  0  0  0  0  0  0
   25.8246  -18.7009   -9.9510 O   0  0  0  0  0  0  0  0  0  0  0  0
   21.6762  -23.8591  -15.4063 N   0  0  0  0  0  0  0  0  0  0  0  0
   21.4431  -23.8943  -14.0102 C   0  0  0  0  0  0  0  0  0  0  0  0
   21.0161  -25.0158  -13.5216 N   0  0  0  0  0  0  0  0  0  0  0  0
   21.6463  -22.7959  -13.1560 N   0  0  0  0  0  0  0  0  0  0  0  0
   22.1574  -21.5160  -13.7393 C   0  0  0  0  0  0  0  0  0  0  0  0
   22.2752  -20.4962  -12.6854 C   0  0  0  0  0  0  0  0  0  0  0  0
   23.3407  -20.5845  -11.7192 C   0  0  0  0  0  0  0  0  0  0  0  0
   23.2545  -20.1664  -10.3117 C   0  0  2  0  0  0  0  0  0  0  0  0
   24.5334  -20.5456   -9.6589 N   0  0  0  0  0  0  0  0  0  0  0  0
   22.1976  -20.6284   -9.4410 C   0  0  0  0  0  0  0  0  0  0  0  0
   20.9184  -20.1845   -9.2484 O   0  0  0  0  0  0  0  0  0  0  0  0
   22.4805  -21.6502   -8.6834 O   0  0  0  0  0  0  0  0  0  0  0  0
  2  1  1  0
  2 12  2  0
  3  2  1  0
  4  3  2  0
  4  5  1  0
  5 11  2  0
  6  7  1  0
  6  5  1  0
  7  8  1  1
  9  7  1  0
  9 13  1  0
 10  9  2  0
 11 12  1  0
 14 25  1  0
 14 13  1  0
 14 15  1  1
 16 15  1  0
 16 24  1  0
 17 18  1  0
 17 16  2  0
 18 19  1  0
 19 24  2  0
 19 20  1  0
 20 21  2  0
 21 22  1  0
 23 22  2  0
 24 23  1  0
 25 26  2  0
 27 28  1  0
 28 29  2  0
 30 28  1  0
 30 31  1  0
 32 33  1  0
 32 31  1  0
 34 33  1  6
 34 36  1  0
 35 34  1  0
 35 25  1  0
 36 37  1  0
 38 36  2  0
M  END
$$$$
