YWR.pdb
     RDKit          3D

 38 40  0  0  1  0  0  0  0  0999 V2000
   29.4592  -15.3611  -18.2279 O   0  0  0  0  0  0  0  0  0  0  0  0
   28.8119  -16.2860  -17.3819 C   0  0  0  0  0  0  0  0  0  0  0  0
   28.4935  -15.9226  -16.0904 C   0  0  0  0  0  0  0  0  0  0  0  0
   27.8555  -16.8303  -15.2533 C   0  0  0  0  0  0  0  0  0  0  0  0
   27.5154  -18.1039  -15.6516 C   0  0  0  0  0  0  0  0  0  0  0  0
   26.8354  -19.0830  -14.7760 C   0  0  0  0  0  0  0  0  0  0  0  0
   27.7239  -19.8735  -13.8877 C   0  0  2  0  0  0  0  0  0  0  0  0
   28.6894  -20.6621  -14.6601 N   0  0  0  0  0  0  0  0  0  0  0  0
   27.1009  -20.6969  -12.8613 C   0  0  0  0  0  0  0  0  0  0  0  0
   26.7367  -21.8897  -13.1566 O   0  0  0  0  0  0  0  0  0  0  0  0
   27.8492  -18.4489  -16.9675 C   0  0  0  0  0  0  0  0  0  0  0  0
   28.4839  -17.5486  -17.8040 C   0  0  0  0  0  0  0  0  0  0  0  0
   26.8476  -20.3007  -11.5095 N   0  0  0  0  0  0  0  0  0  0  0  0
   25.7799  -20.8643  -10.7470 C   0  0  1  0  0  0  0  0  0  0  0  0
   25.9515  -20.6219   -9.2581 C   0  0  0  0  0  0  0  0  0  0  0  0
   27.3313  -20.7649   -8.7911 C   0  0  0  0  0  0  0  0  0  0  0  0
   28.3626  -21.4166   -9.4333 C   0  0  0  0  0  0  0  0  0  0  0  0
   29.4868  -21.3411   -8.6985 N   0  0  0  0  0  0  0  0  0  0  0  0
   29.2176  -20.6392   -7.5600 C   0  0  0  0  0  0  0  0  0  0  0  0
   29.9971  -20.2739   -6.4844 C   0  0  0  0  0  0  0  0  0  0  0  0
   29.4721  -19.5429   -5.4352 C   0  0  0  0  0  0  0  0  0  0  0  0
   28.1503  -19.1968   -5.5065 C   0  0  0  0  0  0  0  0  0  0  0  0
   27.3424  -19.5488   -6.5724 C   0  0  0  0  0  0  0  0  0  0  0  0
   27.8668  -20.2782   -7.6189 C   0  0  0  0  0  0  0  0  0  0  0  0
   24.4578  -20.2876  -11.0903 C   0  0  0  0  0  0  0  0  0  0  0  0
   24.4234  -19.2014  -11.7141 O   0  0  0  0  0  0  0  0  0  0  0  0
   22.5345  -26.8768  -14.9076 N   0  0  0  0  0  0  0  0  0  0  0  0
   21.6350  -25.9975  -15.5575 C   0  0  0  0  0  0  0  0  0  0  0  0
   20.7378  -26.5428  -16.3169 N   0  0  0  0  0  0  0  0  0  0  0  0
   21.6738  -24.5985  -15.4212 N   0  0  0  0  0  0  0  0  0  0  0  0
   22.6517  -23.9963  -14.4617 C   0  0  0  0  0  0  0  0  0  0  0  0
   22.0041  -22.9214  -13.6937 C   0  0  0  0  0  0  0  0  0  0  0  0
   22.7170  -22.2803  -12.6179 C   0  0  0  0  0  0  0  0  0  0  0  0
   22.1845  -21.2139  -11.7561 C   0  0  2  0  0  0  0  0  0  0  0  0
   23.2355  -20.8848  -10.7598 N   0  0  0  0  0  0  0  0  0  0  0  0
   20.9538  -21.3734  -11.0156 C   0  0  0  0  0  0  0  0  0  0  0  0
   20.6871  -21.9627   -9.8105 O   0  0  0  0  0  0  0  0  0  0  0  0
   19.8809  -20.8820  -11.5683 O   0  0  0  0  0  0  0  0  0  0  0  0
  2  1  1  0
  2 12  2  0
  3  2  1  0
  4  3  2  0
  4  5  1  0
  5 11  2  0
  6  7  1  0
  6  5  1  0
  7  8  1  6
  9  7  1  0
  9 13  1  0
 10  9  2  0
 11 12  1  0
 14 25  1  0
 14 13  1  0
 14 15  1  1
 16 15  1  0
 16 24  1  0
 17 18  1  0
 17 16  2  0
 18 19  1  0
 19 24  2  0
 19 20  1  0
 20 21  2  0
 21 22  1  0
 23 22  2  0
 24 23  1  0
 25 26  2  0
 27 28  1  0
 28 29  2  0
 30 28  1  0
 30 31  1  0
 32 33  1  0
 32 31  1  0
 34 33  1  1
 34 36  1  0
 35 34  1  0
 35 25  1  0
 36 37  1  0
 38 36  2  0
M  END
$$$$
