YWR.pdb
     RDKit          3D

 38 40  0  0  1  0  0  0  0  0999 V2000
   30.3773  -16.5867  -19.3090 O   0  0  0  0  0  0  0  0  0  0  0  0
   29.6472  -17.1192  -18.2257 C   0  0  0  0  0  0  0  0  0  0  0  0
   30.3110  -17.5106  -17.0822 C   0  0  0  0  0  0  0  0  0  0  0  0
   29.5959  -18.0355  -16.0122 C   0  0  0  0  0  0  0  0  0  0  0  0
   28.2277  -18.1905  -16.0309 C   0  0  0  0  0  0  0  0  0  0  0  0
   27.4495  -18.7457  -14.9022 C   0  0  0  0  0  0  0  0  0  0  0  0
   27.8730  -20.0881  -14.4311 C   0  0  2  0  0  0  0  0  0  0  0  0
   27.7906  -21.0833  -15.5051 N   0  0  0  0  0  0  0  0  0  0  0  0
   27.2651  -20.6040  -13.2129 C   0  0  0  0  0  0  0  0  0  0  0  0
   26.0837  -21.0978  -13.2678 O   0  0  0  0  0  0  0  0  0  0  0  0
   27.5766  -17.7855  -17.2032 C   0  0  0  0  0  0  0  0  0  0  0  0
   28.2843  -17.2624  -18.2703 C   0  0  0  0  0  0  0  0  0  0  0  0
   27.8718  -20.6210  -11.9167 N   0  0  0  0  0  0  0  0  0  0  0  0
   27.1681  -21.0790  -10.7617 C   0  0  1  0  0  0  0  0  0  0  0  0
   27.9988  -20.9481   -9.4976 C   0  0  0  0  0  0  0  0  0  0  0  0
   27.2022  -20.7739   -8.2821 C   0  0  0  0  0  0  0  0  0  0  0  0
   25.8461  -20.9789   -8.1408 C   0  0  0  0  0  0  0  0  0  0  0  0
   25.4673  -20.7153   -6.8773 N   0  0  0  0  0  0  0  0  0  0  0  0
   26.5650  -20.3323   -6.1634 C   0  0  0  0  0  0  0  0  0  0  0  0
   26.7379  -19.9593   -4.8486 C   0  0  0  0  0  0  0  0  0  0  0  0
   27.9838  -19.6123   -4.3607 C   0  0  0  0  0  0  0  0  0  0  0  0
   29.0370  -19.6536   -5.2331 C   0  0  0  0  0  0  0  0  0  0  0  0
   28.8952  -20.0235   -6.5581 C   0  0  0  0  0  0  0  0  0  0  0  0
   27.6519  -20.3696   -7.0444 C   0  0  0  0  0  0  0  0  0  0  0  0
   25.9274  -20.3110  -10.4990 C   0  0  0  0  0  0  0  0  0  0  0  0
   26.0181  -19.0758  -10.3085 O   0  0  0  0  0  0  0  0  0  0  0  0
   24.5899  -20.2452  -17.2967 N   0  0  0  0  0  0  0  0  0  0  0  0
   23.5650  -20.9404  -16.6106 C   0  0  0  0  0  0  0  0  0  0  0  0
   22.8502  -21.7614  -17.3134 N   0  0  0  0  0  0  0  0  0  0  0  0
   23.2949  -20.7812  -15.2398 N   0  0  0  0  0  0  0  0  0  0  0  0
   22.8624  -19.4373  -14.7433 C   0  0  0  0  0  0  0  0  0  0  0  0
   22.5899  -19.4999  -13.2989 C   0  0  0  0  0  0  0  0  0  0  0  0
   23.5370  -20.1357  -12.4183 C   0  0  0  0  0  0  0  0  0  0  0  0
   23.4270  -20.2070  -10.9533 C   0  0  2  0  0  0  0  0  0  0  0  0
   24.6503  -20.8826  -10.4507 N   0  0  0  0  0  0  0  0  0  0  0  0
   22.3079  -20.8486  -10.3018 C   0  0  0  0  0  0  0  0  0  0  0  0
   21.2880  -21.6166  -10.7922 O   0  0  0  0  0  0  0  0  0  0  0  0
   22.2199  -20.6835   -9.0121 O   0  0  0  0  0  0  0  0  0  0  0  0
  2  1  1  0
  2 12  2  0
  3  2  1  0
  4  3  2  0
  4  5  1  0
  5 11  2  0
  6  7  1  0
  6  5  1  0
  7  8  1  6
  9  7  1  0
  9 13  1  0
 10  9  2  0
 11 12  1  0
 14 25  1  0
 14 13  1  0
 14 15  1  1
 16 15  1  0
 16 24  1  0
 17 18  1  0
 17 16  2  0
 18 19  1  0
 19 24  2  0
 19 20  1  0
 20 21  2  0
 21 22  1  0
 23 22  2  0
 24 23  1  0
 25 26  2  0
 27 28  1  0
 28 29  2  0
 30 28  1  0
 30 31  1  0
 32 33  1  0
 32 31  1  0
 34 33  1  6
 34 36  1  0
 35 34  1  0
 35 25  1  0
 36 37  1  0
 38 36  2  0
M  END
$$$$
