YWR.pdb
     RDKit          3D

 38 40  0  0  1  0  0  0  0  0999 V2000
   30.4683  -15.4130  -18.6033 O   0  0  0  0  0  0  0  0  0  0  0  0
   29.7355  -16.3443  -17.8379 C   0  0  0  0  0  0  0  0  0  0  0  0
   28.8933  -17.2347  -18.4698 C   0  0  0  0  0  0  0  0  0  0  0  0
   28.1696  -18.1543  -17.7200 C   0  0  0  0  0  0  0  0  0  0  0  0
   28.2485  -18.2275  -16.3471 C   0  0  0  0  0  0  0  0  0  0  0  0
   27.4875  -19.1995  -15.5324 C   0  0  0  0  0  0  0  0  0  0  0  0
   28.2858  -20.3002  -14.9369 C   0  0  2  0  0  0  0  0  0  0  0  0
   29.0738  -21.0020  -15.9553 N   0  0  0  0  0  0  0  0  0  0  0  0
   27.5954  -21.2549  -14.0817 C   0  0  0  0  0  0  0  0  0  0  0  0
   27.1661  -22.3498  -14.5911 O   0  0  0  0  0  0  0  0  0  0  0  0
   29.1107  -17.3129  -15.7288 C   0  0  0  0  0  0  0  0  0  0  0  0
   29.8329  -16.3963  -16.4712 C   0  0  0  0  0  0  0  0  0  0  0  0
   27.3409  -21.0942  -12.6824 N   0  0  0  0  0  0  0  0  0  0  0  0
   26.2915  -21.8022  -12.0216 C   0  0  1  0  0  0  0  0  0  0  0  0
   26.6451  -22.1356  -10.5832 C   0  0  0  0  0  0  0  0  0  0  0  0
   26.6955  -20.9686   -9.7012 C   0  0  0  0  0  0  0  0  0  0  0  0
   25.7994  -19.9217   -9.6561 C   0  0  0  0  0  0  0  0  0  0  0  0
   26.1742  -19.0315   -8.7198 N   0  0  0  0  0  0  0  0  0  0  0  0
   27.3226  -19.4745   -8.1314 C   0  0  0  0  0  0  0  0  0  0  0  0
   28.1157  -18.9582   -7.1302 C   0  0  0  0  0  0  0  0  0  0  0  0
   29.2521  -19.6199   -6.7040 C   0  0  0  0  0  0  0  0  0  0  0  0
   29.5581  -20.8057   -7.3142 C   0  0  0  0  0  0  0  0  0  0  0  0
   28.7821  -21.3492   -8.3218 C   0  0  0  0  0  0  0  0  0  0  0  0
   27.6484  -20.6886   -8.7467 C   0  0  0  0  0  0  0  0  0  0  0  0
   25.0295  -21.0277  -11.9477 C   0  0  0  0  0  0  0  0  0  0  0  0
   25.0888  -19.7789  -12.0334 O   0  0  0  0  0  0  0  0  0  0  0  0
   21.2801  -27.1030  -14.0775 N   0  0  0  0  0  0  0  0  0  0  0  0
   20.7124  -26.4443  -15.1949 C   0  0  0  0  0  0  0  0  0  0  0  0
   19.5430  -26.8521  -15.5760 N   0  0  0  0  0  0  0  0  0  0  0  0
   21.3453  -25.3990  -15.8907 N   0  0  0  0  0  0  0  0  0  0  0  0
   22.5259  -24.7279  -15.2620 C   0  0  0  0  0  0  0  0  0  0  0  0
   22.0800  -23.5823  -14.4535 C   0  0  0  0  0  0  0  0  0  0  0  0
   23.0448  -22.8104  -13.7119 C   0  0  0  0  0  0  0  0  0  0  0  0
   22.7386  -21.6513  -12.8598 C   0  0  2  0  0  0  0  0  0  0  0  0
   23.7653  -21.6074  -11.7877 N   0  0  0  0  0  0  0  0  0  0  0  0
   21.4582  -21.5003  -12.2070 C   0  0  0  0  0  0  0  0  0  0  0  0
   20.3140  -20.8545  -12.5869 O   0  0  0  0  0  0  0  0  0  0  0  0
   21.3363  -22.0661  -11.0394 O   0  0  0  0  0  0  0  0  0  0  0  0
  2  1  1  0
  2 12  2  0
  3  2  1  0
  4  3  2  0
  4  5  1  0
  5 11  2  0
  6  7  1  0
  6  5  1  0
  7  8  1  6
  9  7  1  0
  9 13  1  0
 10  9  2  0
 11 12  1  0
 14 25  1  0
 14 13  1  0
 14 15  1  1
 16 15  1  0
 16 24  1  0
 17 18  1  0
 17 16  2  0
 18 19  1  0
 19 24  2  0
 19 20  1  0
 20 21  2  0
 21 22  1  0
 23 22  2  0
 24 23  1  0
 25 26  2  0
 27 28  1  0
 28 29  2  0
 30 28  1  0
 30 31  1  0
 32 33  1  0
 32 31  1  0
 34 33  1  1
 34 36  1  0
 35 34  1  0
 35 25  1  0
 36 37  1  0
 38 36  2  0
M  END
$$$$
