YWR.pdb
     RDKit          3D

 38 40  0  0  1  0  0  0  0  0999 V2000
   17.5051  -23.4213  -14.4225 O   0  0  0  0  0  0  0  0  0  0  0  0
   18.7540  -22.8535  -14.0940 C   0  0  0  0  0  0  0  0  0  0  0  0
   19.7869  -23.6686  -13.6817 C   0  0  0  0  0  0  0  0  0  0  0  0
   21.0192  -23.1139  -13.3572 C   0  0  0  0  0  0  0  0  0  0  0  0
   21.2724  -21.7620  -13.4260 C   0  0  0  0  0  0  0  0  0  0  0  0
   22.5770  -21.1534  -13.0862 C   0  0  0  0  0  0  0  0  0  0  0  0
   22.8863  -21.0689  -11.6369 C   0  0  2  0  0  0  0  0  0  0  0  0
   21.8241  -20.3745  -10.9020 N   0  0  0  0  0  0  0  0  0  0  0  0
   24.1920  -20.5543  -11.2494 C   0  0  0  0  0  0  0  0  0  0  0  0
   24.3312  -19.2957  -11.0515 O   0  0  0  0  0  0  0  0  0  0  0  0
   20.2076  -20.9553  -13.8476 C   0  0  0  0  0  0  0  0  0  0  0  0
   18.9797  -21.5033  -14.1717 C   0  0  0  0  0  0  0  0  0  0  0  0
   25.3759  -21.3350  -11.0562 N   0  0  0  0  0  0  0  0  0  0  0  0
   26.6543  -20.7290  -10.8622 C   0  0  1  0  0  0  0  0  0  0  0  0
   27.4151  -21.3576   -9.7085 C   0  0  0  0  0  0  0  0  0  0  0  0
   27.1096  -20.7642   -8.4058 C   0  0  0  0  0  0  0  0  0  0  0  0
   25.9221  -20.1823   -8.0158 C   0  0  0  0  0  0  0  0  0  0  0  0
   26.0153  -19.7459   -6.7467 N   0  0  0  0  0  0  0  0  0  0  0  0
   27.2641  -20.0317   -6.2776 C   0  0  0  0  0  0  0  0  0  0  0  0
   27.8768  -19.8098   -5.0638 C   0  0  0  0  0  0  0  0  0  0  0  0
   29.1806  -20.2089   -4.8364 C   0  0  0  0  0  0  0  0  0  0  0  0
   29.8378  -20.8320   -5.8621 C   0  0  0  0  0  0  0  0  0  0  0  0
   29.2500  -21.0686   -7.0914 C   0  0  0  0  0  0  0  0  0  0  0  0
   27.9491  -20.6701   -7.3177 C   0  0  0  0  0  0  0  0  0  0  0  0
   27.5431  -20.8656  -12.0411 C   0  0  0  0  0  0  0  0  0  0  0  0
   28.5605  -21.5903  -11.9417 O   0  0  0  0  0  0  0  0  0  0  0  0
   26.7957  -27.0584  -16.6293 N   0  0  0  0  0  0  0  0  0  0  0  0
   27.6625  -26.2884  -17.4420 C   0  0  0  0  0  0  0  0  0  0  0  0
   28.1922  -26.8918  -18.4591 N   0  0  0  0  0  0  0  0  0  0  0  0
   27.9670  -24.9373  -17.1989 N   0  0  0  0  0  0  0  0  0  0  0  0
   27.4957  -24.3122  -15.9234 C   0  0  0  0  0  0  0  0  0  0  0  0
   27.9475  -22.9137  -15.8533 C   0  0  0  0  0  0  0  0  0  0  0  0
   27.5517  -22.0883  -14.7404 C   0  0  0  0  0  0  0  0  0  0  0  0
   27.9210  -20.6774  -14.5492 C   0  0  2  0  0  0  0  0  0  0  0  0
   27.3156  -20.2318  -13.2685 N   0  0  0  0  0  0  0  0  0  0  0  0
   27.5995  -19.6644  -15.5285 C   0  0  0  0  0  0  0  0  0  0  0  0
   28.2742  -19.2189  -16.6315 O   0  0  0  0  0  0  0  0  0  0  0  0
   26.4699  -19.0370  -15.3591 O   0  0  0  0  0  0  0  0  0  0  0  0
  2  1  1  0
  2 12  2  0
  3  2  1  0
  4  3  2  0
  4  5  1  0
  5 11  2  0
  6  7  1  0
  6  5  1  0
  7  8  1  1
  9  7  1  0
  9 13  1  0
 10  9  2  0
 11 12  1  0
 14 25  1  0
 14 13  1  0
 14 15  1  1
 16 15  1  0
 16 24  1  0
 17 18  1  0
 17 16  2  0
 18 19  1  0
 19 24  2  0
 19 20  1  0
 20 21  2  0
 21 22  1  0
 23 22  2  0
 24 23  1  0
 25 26  2  0
 27 28  1  0
 28 29  2  0
 30 28  1  0
 30 31  1  0
 32 33  1  0
 32 31  1  0
 34 33  1  6
 34 36  1  0
 35 34  1  0
 35 25  1  0
 36 37  1  0
 38 36  2  0
M  END
$$$$
