YWR.pdb
     RDKit          3D

 38 40  0  0  1  0  0  0  0  0999 V2000
   20.1422  -13.9880  -15.0477 O   0  0  0  0  0  0  0  0  0  0  0  0
   20.3639  -15.3798  -15.1106 C   0  0  0  0  0  0  0  0  0  0  0  0
   20.9216  -16.0314  -14.0310 C   0  0  0  0  0  0  0  0  0  0  0  0
   21.1417  -17.4025  -14.0881 C   0  0  0  0  0  0  0  0  0  0  0  0
   20.8262  -18.1654  -15.1904 C   0  0  0  0  0  0  0  0  0  0  0  0
   21.0517  -19.6251  -15.2694 C   0  0  0  0  0  0  0  0  0  0  0  0
   22.4667  -20.0475  -15.4200 C   0  0  2  0  0  0  0  0  0  0  0  0
   23.0940  -19.4135  -16.5841 N   0  0  0  0  0  0  0  0  0  0  0  0
   22.7559  -21.4743  -15.4013 C   0  0  0  0  0  0  0  0  0  0  0  0
   22.6349  -22.1480  -16.4849 O   0  0  0  0  0  0  0  0  0  0  0  0
   20.2609  -17.4806  -16.2737 C   0  0  0  0  0  0  0  0  0  0  0  0
   20.0399  -16.1163  -16.2209 C   0  0  0  0  0  0  0  0  0  0  0  0
   23.1793  -22.2279  -14.2606 N   0  0  0  0  0  0  0  0  0  0  0  0
   23.3658  -23.6424  -14.3194 C   0  0  1  0  0  0  0  0  0  0  0  0
   24.7612  -24.0530  -13.8841 C   0  0  0  0  0  0  0  0  0  0  0  0
   25.8174  -23.1634  -14.3692 C   0  0  0  0  0  0  0  0  0  0  0  0
   26.5858  -23.3263  -15.5023 C   0  0  0  0  0  0  0  0  0  0  0  0
   27.4558  -22.3074  -15.6221 N   0  0  0  0  0  0  0  0  0  0  0  0
   27.2772  -21.4553  -14.5716 C   0  0  0  0  0  0  0  0  0  0  0  0
   27.8912  -20.2749  -14.2146 C   0  0  0  0  0  0  0  0  0  0  0  0
   27.5138  -19.5872  -13.0764 C   0  0  0  0  0  0  0  0  0  0  0  0
   26.5083  -20.1237  -12.3194 C   0  0  0  0  0  0  0  0  0  0  0  0
   25.8731  -21.3066  -12.6514 C   0  0  0  0  0  0  0  0  0  0  0  0
   26.2501  -21.9923  -13.7872 C   0  0  0  0  0  0  0  0  0  0  0  0
   22.4411  -24.3844  -13.4291 C   0  0  0  0  0  0  0  0  0  0  0  0
   22.3270  -24.0087  -12.2391 O   0  0  0  0  0  0  0  0  0  0  0  0
   18.7742  -25.5662   -7.7322 N   0  0  0  0  0  0  0  0  0  0  0  0
   18.1793  -24.3379   -8.1091 C   0  0  0  0  0  0  0  0  0  0  0  0
   17.8572  -23.5306   -7.1481 N   0  0  0  0  0  0  0  0  0  0  0  0
   17.9276  -23.9678   -9.4421 N   0  0  0  0  0  0  0  0  0  0  0  0
   18.1391  -24.9819  -10.5222 C   0  0  0  0  0  0  0  0  0  0  0  0
   19.5558  -25.0047  -10.9185 C   0  0  0  0  0  0  0  0  0  0  0  0
   19.9083  -25.0238  -12.3156 C   0  0  0  0  0  0  0  0  0  0  0  0
   20.6230  -26.1109  -13.0017 C   0  0  2  0  0  0  0  0  0  0  0  0
   21.6804  -25.4867  -13.8369 N   0  0  0  0  0  0  0  0  0  0  0  0
   19.9378  -27.0593  -13.8500 C   0  0  0  0  0  0  0  0  0  0  0  0
   19.1895  -28.1662  -13.5578 O   0  0  0  0  0  0  0  0  0  0  0  0
   20.0315  -26.8567  -15.1339 O   0  0  0  0  0  0  0  0  0  0  0  0
  2  1  1  0
  2 12  2  0
  3  2  1  0
  4  3  2  0
  4  5  1  0
  5 11  2  0
  6  7  1  0
  6  5  1  0
  7  8  1  6
  9  7  1  0
  9 13  1  0
 10  9  2  0
 11 12  1  0
 14 25  1  0
 14 13  1  0
 14 15  1  1
 16 15  1  0
 16 24  1  0
 17 18  1  0
 17 16  2  0
 18 19  1  0
 19 24  2  0
 19 20  1  0
 20 21  2  0
 21 22  1  0
 23 22  2  0
 24 23  1  0
 25 26  2  0
 27 28  1  0
 28 29  2  0
 30 28  1  0
 30 31  1  0
 32 33  1  0
 32 31  1  0
 34 33  1  6
 34 36  1  0
 35 34  1  0
 35 25  1  0
 36 37  1  0
 38 36  2  0
M  END
$$$$
