YWR.pdb
     RDKit          3D

 38 40  0  0  1  0  0  0  0  0999 V2000
   16.2253  -21.8930  -11.8390 O   0  0  0  0  0  0  0  0  0  0  0  0
   17.5616  -21.4415  -11.8131 C   0  0  0  0  0  0  0  0  0  0  0  0
   18.1274  -21.0527  -10.6173 C   0  0  0  0  0  0  0  0  0  0  0  0
   19.4437  -20.6075  -10.5867 C   0  0  0  0  0  0  0  0  0  0  0  0
   20.2337  -20.5309  -11.7121 C   0  0  0  0  0  0  0  0  0  0  0  0
   21.6362  -20.0612  -11.6992 C   0  0  0  0  0  0  0  0  0  0  0  0
   22.6016  -20.9061  -12.4459 C   0  0  2  0  0  0  0  0  0  0  0  0
   22.4925  -22.3158  -12.0567 N   0  0  0  0  0  0  0  0  0  0  0  0
   23.9968  -20.4905  -12.4635 C   0  0  0  0  0  0  0  0  0  0  0  0
   24.2738  -19.2394  -12.4437 O   0  0  0  0  0  0  0  0  0  0  0  0
   19.6363  -20.9315  -12.9141 C   0  0  0  0  0  0  0  0  0  0  0  0
   18.3268  -21.3754  -12.9489 C   0  0  0  0  0  0  0  0  0  0  0  0
   25.1302  -21.3639  -12.4982 N   0  0  0  0  0  0  0  0  0  0  0  0
   26.4573  -20.8688  -12.6791 C   0  0  1  0  0  0  0  0  0  0  0  0
   27.4095  -21.3854  -11.6154 C   0  0  0  0  0  0  0  0  0  0  0  0
   27.1316  -20.8714  -10.2734 C   0  0  0  0  0  0  0  0  0  0  0  0
   25.9201  -20.4267   -9.7882 C   0  0  0  0  0  0  0  0  0  0  0  0
   26.0516  -20.0271   -8.5105 N   0  0  0  0  0  0  0  0  0  0  0  0
   27.3503  -20.2009   -8.1304 C   0  0  0  0  0  0  0  0  0  0  0  0
   28.0153  -19.9600   -6.9482 C   0  0  0  0  0  0  0  0  0  0  0  0
   29.3642  -20.2325   -6.8171 C   0  0  0  0  0  0  0  0  0  0  0  0
   30.0120  -20.7499   -7.9055 C   0  0  0  0  0  0  0  0  0  0  0  0
   29.3722  -21.0023   -9.1053 C   0  0  0  0  0  0  0  0  0  0  0  0
   28.0264  -20.7302   -9.2355 C   0  0  0  0  0  0  0  0  0  0  0  0
   27.0543  -21.2763  -13.9736 C   0  0  0  0  0  0  0  0  0  0  0  0
   27.4982  -22.4427  -14.0863 O   0  0  0  0  0  0  0  0  0  0  0  0
   21.6854  -19.1710  -17.5577 N   0  0  0  0  0  0  0  0  0  0  0  0
   22.6187  -18.7810  -16.5669 C   0  0  0  0  0  0  0  0  0  0  0  0
   22.1323  -18.2552  -15.4871 N   0  0  0  0  0  0  0  0  0  0  0  0
   24.0102  -18.9324  -16.7010 N   0  0  0  0  0  0  0  0  0  0  0  0
   24.5466  -19.5898  -17.9338 C   0  0  0  0  0  0  0  0  0  0  0  0
   26.0159  -19.6391  -17.8773 C   0  0  0  0  0  0  0  0  0  0  0  0
   26.6744  -20.8235  -17.3870 C   0  0  0  0  0  0  0  0  0  0  0  0
   27.7489  -20.8501  -16.3830 C   0  0  2  0  0  0  0  0  0  0  0  0
   27.1538  -20.4341  -15.0875 N   0  0  0  0  0  0  0  0  0  0  0  0
   28.9620  -20.0808  -16.5421 C   0  0  0  0  0  0  0  0  0  0  0  0
   29.2292  -18.7534  -16.3495 O   0  0  0  0  0  0  0  0  0  0  0  0
   30.0125  -20.7382  -16.9454 O   0  0  0  0  0  0  0  0  0  0  0  0
  2  1  1  0
  2 12  2  0
  3  2  1  0
  4  3  2  0
  4  5  1  0
  5 11  2  0
  6  7  1  0
  6  5  1  0
  7  8  1  1
  9  7  1  0
  9 13  1  0
 10  9  2  0
 11 12  1  0
 14 25  1  0
 14 13  1  0
 14 15  1  1
 16 15  1  0
 16 24  1  0
 17 18  1  0
 17 16  2  0
 18 19  1  0
 19 24  2  0
 19 20  1  0
 20 21  2  0
 21 22  1  0
 23 22  2  0
 24 23  1  0
 25 26  2  0
 27 28  1  0
 28 29  2  0
 30 28  1  0
 30 31  1  0
 32 33  1  0
 32 31  1  0
 34 33  1  6
 34 36  1  0
 35 34  1  0
 35 25  1  0
 36 37  1  0
 38 36  2  0
M  END
$$$$
