YWR.pdb
     RDKit          3D

 38 40  0  0  1  0  0  0  0  0999 V2000
   27.1187   -7.8784  -26.3151 O   0  0  0  0  0  0  0  0  0  0  0  0
   26.3559   -8.0397  -25.1395 C   0  0  0  0  0  0  0  0  0  0  0  0
   26.8122   -7.5085  -23.9517 C   0  0  0  0  0  0  0  0  0  0  0  0
   26.0640   -7.6646  -22.7909 C   0  0  0  0  0  0  0  0  0  0  0  0
   24.8627   -8.3372  -22.7600 C   0  0  0  0  0  0  0  0  0  0  0  0
   24.0520   -8.5126  -21.5354 C   0  0  0  0  0  0  0  0  0  0  0  0
   24.5753   -9.4979  -20.5563 C   0  0  2  0  0  0  0  0  0  0  0  0
   24.5870  -10.8538  -21.1150 N   0  0  0  0  0  0  0  0  0  0  0  0
   23.9948   -9.5037  -19.2212 C   0  0  0  0  0  0  0  0  0  0  0  0
   23.0513  -10.3297  -18.9564 O   0  0  0  0  0  0  0  0  0  0  0  0
   24.4206   -8.8674  -23.9790 C   0  0  0  0  0  0  0  0  0  0  0  0
   25.1620   -8.7141  -25.1365 C   0  0  0  0  0  0  0  0  0  0  0  0
   24.3839   -8.6564  -18.1353 N   0  0  0  0  0  0  0  0  0  0  0  0
   23.8169   -8.7939  -16.8320 C   0  0  1  0  0  0  0  0  0  0  0  0
   24.8755   -8.7760  -15.7438 C   0  0  0  0  0  0  0  0  0  0  0  0
   25.7532   -9.9473  -15.7537 C   0  0  0  0  0  0  0  0  0  0  0  0
   25.5632  -11.1339  -15.0779 C   0  0  0  0  0  0  0  0  0  0  0  0
   26.5812  -11.9770  -15.3275 N   0  0  0  0  0  0  0  0  0  0  0  0
   27.4598  -11.3626  -16.1713 C   0  0  0  0  0  0  0  0  0  0  0  0
   28.6485  -11.7694  -16.7363 C   0  0  0  0  0  0  0  0  0  0  0  0
   29.3614  -10.9387  -17.5804 C   0  0  0  0  0  0  0  0  0  0  0  0
   28.8412   -9.6985  -17.8325 C   0  0  0  0  0  0  0  0  0  0  0  0
   27.6509   -9.2615  -17.2803 C   0  0  0  0  0  0  0  0  0  0  0  0
   26.9401  -10.0909  -16.4382 C   0  0  0  0  0  0  0  0  0  0  0  0
   22.8817   -7.6954  -16.4900 C   0  0  0  0  0  0  0  0  0  0  0  0
   23.2629   -6.5131  -16.6546 O   0  0  0  0  0  0  0  0  0  0  0  0
   14.5594   -9.0728  -16.8991 N   0  0  0  0  0  0  0  0  0  0  0  0
   15.7552   -8.9801  -17.6514 C   0  0  0  0  0  0  0  0  0  0  0  0
   15.8173   -9.6925  -18.7320 N   0  0  0  0  0  0  0  0  0  0  0  0
   16.8480   -8.1740  -17.2861 N   0  0  0  0  0  0  0  0  0  0  0  0
   16.7486   -7.3488  -16.0416 C   0  0  0  0  0  0  0  0  0  0  0  0
   18.0249   -6.6603  -15.7929 C   0  0  0  0  0  0  0  0  0  0  0  0
   19.2667   -7.3727  -15.9568 C   0  0  0  0  0  0  0  0  0  0  0  0
   20.6099   -6.8008  -15.7776 C   0  0  2  0  0  0  0  0  0  0  0  0
   21.5890   -7.8967  -15.9917 N   0  0  0  0  0  0  0  0  0  0  0  0
   21.0001   -6.1361  -14.5551 C   0  0  0  0  0  0  0  0  0  0  0  0
   21.8772   -6.4901  -13.5672 O   0  0  0  0  0  0  0  0  0  0  0  0
   20.4292   -4.9896  -14.3150 O   0  0  0  0  0  0  0  0  0  0  0  0
  2  1  1  0
  2 12  2  0
  3  2  1  0
  4  3  2  0
  4  5  1  0
  5 11  2  0
  6  7  1  0
  6  5  1  0
  7  8  1  6
  9  7  1  0
  9 13  1  0
 10  9  2  0
 11 12  1  0
 14 25  1  0
 14 13  1  0
 14 15  1  1
 16 15  1  0
 16 24  1  0
 17 18  1  0
 17 16  2  0
 18 19  1  0
 19 24  2  0
 19 20  1  0
 20 21  2  0
 21 22  1  0
 23 22  2  0
 24 23  1  0
 25 26  2  0
 27 28  1  0
 28 29  2  0
 30 28  1  0
 30 31  1  0
 32 33  1  0
 32 31  1  0
 34 33  1  1
 34 36  1  0
 35 34  1  0
 35 25  1  0
 36 37  1  0
 38 36  2  0
M  END
$$$$
