YWR.pdb
     RDKit          3D

 38 40  0  0  1  0  0  0  0  0999 V2000
   30.3279  -18.6360  -21.7614 O   0  0  0  0  0  0  0  0  0  0  0  0
   29.6073  -19.2740  -20.7299 C   0  0  0  0  0  0  0  0  0  0  0  0
   29.0694  -18.5216  -19.7072 C   0  0  0  0  0  0  0  0  0  0  0  0
   28.3585  -19.1456  -18.6889 C   0  0  0  0  0  0  0  0  0  0  0  0
   28.1566  -20.5071  -18.6431 C   0  0  0  0  0  0  0  0  0  0  0  0
   27.4022  -21.1888  -17.5689 C   0  0  0  0  0  0  0  0  0  0  0  0
   28.1852  -21.5341  -16.3561 C   0  0  2  0  0  0  0  0  0  0  0  0
   29.1002  -22.6518  -16.6095 N   0  0  0  0  0  0  0  0  0  0  0  0
   27.4561  -21.7462  -15.1138 C   0  0  0  0  0  0  0  0  0  0  0  0
   27.1259  -22.9393  -14.7820 O   0  0  0  0  0  0  0  0  0  0  0  0
   28.7125  -21.2491  -19.6931 C   0  0  0  0  0  0  0  0  0  0  0  0
   29.4205  -20.6322  -20.7085 C   0  0  0  0  0  0  0  0  0  0  0  0
   27.0595  -20.7264  -14.1912 N   0  0  0  0  0  0  0  0  0  0  0  0
   26.3504  -21.0319  -12.9900 C   0  0  1  0  0  0  0  0  0  0  0  0
   26.6961  -20.0744  -11.8636 C   0  0  0  0  0  0  0  0  0  0  0  0
   27.7272  -20.5782  -10.9551 C   0  0  0  0  0  0  0  0  0  0  0  0
   28.9452  -21.1237  -11.3013 C   0  0  0  0  0  0  0  0  0  0  0  0
   29.6256  -21.4762  -10.1956 N   0  0  0  0  0  0  0  0  0  0  0  0
   28.8698  -21.1698   -9.1019 C   0  0  0  0  0  0  0  0  0  0  0  0
   29.0861  -21.3160   -7.7492 C   0  0  0  0  0  0  0  0  0  0  0  0
   28.1402  -20.9129   -6.8253 C   0  0  0  0  0  0  0  0  0  0  0  0
   26.9826  -20.3640   -7.3057 C   0  0  0  0  0  0  0  0  0  0  0  0
   26.7364  -20.2045   -8.6572 C   0  0  0  0  0  0  0  0  0  0  0  0
   27.6805  -20.6068   -9.5787 C   0  0  0  0  0  0  0  0  0  0  0  0
   24.8791  -20.9392  -13.1483 C   0  0  0  0  0  0  0  0  0  0  0  0
   24.4011  -19.9258  -13.7093 O   0  0  0  0  0  0  0  0  0  0  0  0
   18.6026  -26.4478  -12.7886 N   0  0  0  0  0  0  0  0  0  0  0  0
   18.1431  -25.2864  -13.4556 C   0  0  0  0  0  0  0  0  0  0  0  0
   16.9215  -24.9261  -13.2178 N   0  0  0  0  0  0  0  0  0  0  0  0
   18.9312  -24.5306  -14.3416 N   0  0  0  0  0  0  0  0  0  0  0  0
   20.3953  -24.3934  -14.0636 C   0  0  0  0  0  0  0  0  0  0  0  0
   20.6036  -23.5513  -12.8752 C   0  0  0  0  0  0  0  0  0  0  0  0
   21.9338  -23.1195  -12.5277 C   0  0  0  0  0  0  0  0  0  0  0  0
   22.5072  -21.7974  -12.8223 C   0  0  2  0  0  0  0  0  0  0  0  0
   23.9828  -21.9203  -12.7080 N   0  0  0  0  0  0  0  0  0  0  0  0
   22.1351  -20.6193  -12.0725 C   0  0  0  0  0  0  0  0  0  0  0  0
   21.1947  -19.6535  -12.3034 O   0  0  0  0  0  0  0  0  0  0  0  0
   22.7984  -20.4035  -10.9718 O   0  0  0  0  0  0  0  0  0  0  0  0
  2  1  1  0
  2 12  2  0
  3  2  1  0
  4  3  2  0
  4  5  1  0
  5 11  2  0
  6  7  1  0
  6  5  1  0
  7  8  1  6
  9  7  1  0
  9 13  1  0
 10  9  2  0
 11 12  1  0
 14 25  1  0
 14 13  1  0
 14 15  1  1
 16 15  1  0
 16 24  1  0
 17 18  1  0
 17 16  2  0
 18 19  1  0
 19 24  2  0
 19 20  1  0
 20 21  2  0
 21 22  1  0
 23 22  2  0
 24 23  1  0
 25 26  2  0
 27 28  1  0
 28 29  2  0
 30 28  1  0
 30 31  1  0
 32 33  1  0
 32 31  1  0
 34 33  1  1
 34 36  1  0
 35 34  1  0
 35 25  1  0
 36 37  1  0
 38 36  2  0
M  END
$$$$
