YWR.pdb
     RDKit          3D

 38 40  0  0  1  0  0  0  0  0999 V2000
   30.0761  -16.9453  -18.3410 O   0  0  0  0  0  0  0  0  0  0  0  0
   29.3170  -17.4564  -17.2673 C   0  0  0  0  0  0  0  0  0  0  0  0
   29.8618  -17.4887  -16.0010 C   0  0  0  0  0  0  0  0  0  0  0  0
   29.1177  -17.9910  -14.9400 C   0  0  0  0  0  0  0  0  0  0  0  0
   27.8350  -18.4703  -15.0866 C   0  0  0  0  0  0  0  0  0  0  0  0
   27.0274  -19.0072  -13.9698 C   0  0  0  0  0  0  0  0  0  0  0  0
   27.5136  -20.2806  -13.3821 C   0  0  2  0  0  0  0  0  0  0  0  0
   27.7401  -21.2958  -14.4159 N   0  0  0  0  0  0  0  0  0  0  0  0
   26.7630  -20.8465  -12.2703 C   0  0  0  0  0  0  0  0  0  0  0  0
   25.9809  -21.8382  -12.4882 O   0  0  0  0  0  0  0  0  0  0  0  0
   27.3041  -18.4266  -16.3821 C   0  0  0  0  0  0  0  0  0  0  0  0
   28.0410  -17.9273  -17.4407 C   0  0  0  0  0  0  0  0  0  0  0  0
   26.8119  -20.3974  -10.9122 N   0  0  0  0  0  0  0  0  0  0  0  0
   25.8252  -20.7840   -9.9551 C   0  0  1  0  0  0  0  0  0  0  0  0
   26.1515  -20.2766   -8.5618 C   0  0  0  0  0  0  0  0  0  0  0  0
   27.5452  -20.4873   -8.1673 C   0  0  0  0  0  0  0  0  0  0  0  0
   28.5212  -21.1464   -8.8841 C   0  0  0  0  0  0  0  0  0  0  0  0
   29.6801  -21.1414   -8.2012 N   0  0  0  0  0  0  0  0  0  0  0  0
   29.4897  -20.4797   -7.0233 C   0  0  0  0  0  0  0  0  0  0  0  0
   30.3308  -20.1879   -5.9720 C   0  0  0  0  0  0  0  0  0  0  0  0
   29.8819  -19.4846   -4.8699 C   0  0  0  0  0  0  0  0  0  0  0  0
   28.5718  -19.0901   -4.8639 C   0  0  0  0  0  0  0  0  0  0  0  0
   27.7032  -19.3680   -5.9036 C   0  0  0  0  0  0  0  0  0  0  0  0
   28.1517  -20.0699   -7.0030 C   0  0  0  0  0  0  0  0  0  0  0  0
   24.4785  -20.2468  -10.2647 C   0  0  0  0  0  0  0  0  0  0  0  0
   24.3226  -19.0037  -10.2915 O   0  0  0  0  0  0  0  0  0  0  0  0
   22.3261  -23.1822  -17.5768 N   0  0  0  0  0  0  0  0  0  0  0  0
   21.7237  -23.6949  -16.4025 C   0  0  0  0  0  0  0  0  0  0  0  0
   21.3991  -24.9492  -16.4175 N   0  0  0  0  0  0  0  0  0  0  0  0
   21.4671  -22.9237  -15.2550 N   0  0  0  0  0  0  0  0  0  0  0  0
   22.0117  -21.5314  -15.1877 C   0  0  0  0  0  0  0  0  0  0  0  0
   21.6555  -20.9150  -13.9001 C   0  0  0  0  0  0  0  0  0  0  0  0
   22.4831  -21.1445  -12.7430 C   0  0  0  0  0  0  0  0  0  0  0  0
   22.2296  -20.6179  -11.3932 C   0  0  2  0  0  0  0  0  0  0  0  0
   23.3610  -21.0465  -10.5320 N   0  0  0  0  0  0  0  0  0  0  0  0
   21.0203  -20.9303  -10.6662 C   0  0  0  0  0  0  0  0  0  0  0  0
   20.7955  -21.7158   -9.5695 O   0  0  0  0  0  0  0  0  0  0  0  0
   19.9235  -20.3849  -11.1109 O   0  0  0  0  0  0  0  0  0  0  0  0
  2  1  1  0
  2 12  2  0
  3  2  1  0
  4  3  2  0
  4  5  1  0
  5 11  2  0
  6  7  1  0
  6  5  1  0
  7  8  1  6
  9  7  1  0
  9 13  1  0
 10  9  2  0
 11 12  1  0
 14 25  1  0
 14 13  1  0
 14 15  1  1
 16 15  1  0
 16 24  1  0
 17 18  1  0
 17 16  2  0
 18 19  1  0
 19 24  2  0
 19 20  1  0
 20 21  2  0
 21 22  1  0
 23 22  2  0
 24 23  1  0
 25 26  2  0
 27 28  1  0
 28 29  2  0
 30 28  1  0
 30 31  1  0
 32 33  1  0
 32 31  1  0
 34 33  1  6
 34 36  1  0
 35 34  1  0
 35 25  1  0
 36 37  1  0
 38 36  2  0
M  END
$$$$
