YWR.pdb
     RDKit          3D

 38 40  0  0  1  0  0  0  0  0999 V2000
   29.4884  -17.3049  -19.7250 O   0  0  0  0  0  0  0  0  0  0  0  0
   28.8040  -17.9511  -18.6742 C   0  0  0  0  0  0  0  0  0  0  0  0
   28.8264  -17.4057  -17.4080 C   0  0  0  0  0  0  0  0  0  0  0  0
   28.1534  -18.0386  -16.3697 C   0  0  0  0  0  0  0  0  0  0  0  0
   27.4482  -19.2092  -16.5391 C   0  0  0  0  0  0  0  0  0  0  0  0
   26.7250  -19.8965  -15.4471 C   0  0  0  0  0  0  0  0  0  0  0  0
   27.5797  -20.5584  -14.4299 C   0  0  2  0  0  0  0  0  0  0  0  0
   28.3589  -21.6539  -15.0158 N   0  0  0  0  0  0  0  0  0  0  0  0
   26.9506  -20.9892  -13.1897 C   0  0  0  0  0  0  0  0  0  0  0  0
   26.1474  -21.9876  -13.2134 O   0  0  0  0  0  0  0  0  0  0  0  0
   27.4403  -19.7432  -17.8341 C   0  0  0  0  0  0  0  0  0  0  0  0
   28.1085  -19.1164  -18.8703 C   0  0  0  0  0  0  0  0  0  0  0  0
   27.1454  -20.3958  -11.9019 N   0  0  0  0  0  0  0  0  0  0  0  0
   26.2079  -20.5760  -10.8399 C   0  0  1  0  0  0  0  0  0  0  0  0
   26.5897  -19.7861   -9.6008 C   0  0  0  0  0  0  0  0  0  0  0  0
   27.6734  -20.3909   -8.8248 C   0  0  0  0  0  0  0  0  0  0  0  0
   28.7303  -21.1313   -9.3104 C   0  0  0  0  0  0  0  0  0  0  0  0
   29.5245  -21.5236   -8.2980 N   0  0  0  0  0  0  0  0  0  0  0  0
   29.0066  -21.0496   -7.1282 C   0  0  0  0  0  0  0  0  0  0  0  0
   29.4166  -21.1552   -5.8172 C   0  0  0  0  0  0  0  0  0  0  0  0
   28.6992  -20.5661   -4.7930 C   0  0  0  0  0  0  0  0  0  0  0  0
   27.5678  -19.8751   -5.1314 C   0  0  0  0  0  0  0  0  0  0  0  0
   27.1306  -19.7516   -6.4377 C   0  0  0  0  0  0  0  0  0  0  0  0
   27.8468  -20.3397   -7.4592 C   0  0  0  0  0  0  0  0  0  0  0  0
   24.8416  -20.1206  -11.1920 C   0  0  0  0  0  0  0  0  0  0  0  0
   24.7183  -19.1098  -11.9224 O   0  0  0  0  0  0  0  0  0  0  0  0
   19.3511  -23.6811  -15.1597 N   0  0  0  0  0  0  0  0  0  0  0  0
   19.7563  -24.6131  -14.1738 C   0  0  0  0  0  0  0  0  0  0  0  0
   19.7171  -25.8645  -14.5079 N   0  0  0  0  0  0  0  0  0  0  0  0
   20.1841  -24.2506  -12.8843 N   0  0  0  0  0  0  0  0  0  0  0  0
   20.3863  -22.8004  -12.5749 C   0  0  0  0  0  0  0  0  0  0  0  0
   21.7751  -22.4136  -12.8688 C   0  0  0  0  0  0  0  0  0  0  0  0
   22.2121  -21.0644  -12.6134 C   0  0  0  0  0  0  0  0  0  0  0  0
   22.3199  -20.4379  -11.2870 C   0  0  2  0  0  0  0  0  0  0  0  0
   23.6710  -20.7536  -10.7576 N   0  0  0  0  0  0  0  0  0  0  0  0
   21.3849  -20.7323  -10.2250 C   0  0  0  0  0  0  0  0  0  0  0  0
   20.0570  -20.4411  -10.0755 O   0  0  0  0  0  0  0  0  0  0  0  0
   21.8596  -21.3906   -9.2054 O   0  0  0  0  0  0  0  0  0  0  0  0
  2  1  1  0
  2 12  2  0
  3  2  1  0
  4  3  2  0
  4  5  1  0
  5 11  2  0
  6  7  1  0
  6  5  1  0
  7  8  1  6
  9  7  1  0
  9 13  1  0
 10  9  2  0
 11 12  1  0
 14 25  1  0
 14 13  1  0
 14 15  1  1
 16 15  1  0
 16 24  1  0
 17 18  1  0
 17 16  2  0
 18 19  1  0
 19 24  2  0
 19 20  1  0
 20 21  2  0
 21 22  1  0
 23 22  2  0
 24 23  1  0
 25 26  2  0
 27 28  1  0
 28 29  2  0
 30 28  1  0
 30 31  1  0
 32 33  1  0
 32 31  1  0
 34 33  1  6
 34 36  1  0
 35 34  1  0
 35 25  1  0
 36 37  1  0
 38 36  2  0
M  END
$$$$
