HCC.pdb
     RDKit          3D

 23 23  0  0  1  0  0  0  0  0999 V2000
   11.0648  -13.9049   19.5278 N   0  0  0  0  0  0  0  0  0  0  0  0
    9.7849  -14.1956   20.1205 C   0  0  1  0  0  0  0  0  0  0  0  0
    9.1001  -15.2908   19.3229 C   0  0  0  0  0  0  0  0  0  0  0  0
    8.6896  -14.6792   18.0150 C   0  0  0  0  0  0  0  0  0  0  0  0
    8.9202  -13.3883   17.5835 C   0  0  0  0  0  0  0  0  0  0  0  0
    8.3847  -13.2591   16.3546 N   0  0  0  0  0  0  0  0  0  0  0  0
    7.8221  -14.4272   15.9938 C   0  0  0  0  0  0  0  0  0  0  0  0
    8.0131  -15.2800   17.0078 N   0  0  0  0  0  0  0  0  0  0  0  0
    9.9667  -14.5583   21.5296 C   0  0  0  0  0  0  0  0  0  0  0  0
   11.0868  -14.8703   22.0318 O   0  0  0  0  0  0  0  0  0  0  0  0
    8.8506  -14.5722   22.4110 N   0  0  0  0  0  0  0  0  0  0  0  0
    8.9888  -14.8185   23.8144 C   0  0  1  0  0  0  0  0  0  0  0  0
    7.7093  -14.4566   24.5788 C   0  0  0  0  0  0  0  0  0  0  0  0
    7.5486  -12.6708   24.6967 S   0  0  0  0  0  0  0  0  0  0  0  0
    9.1924  -16.2726   24.0293 C   0  0  0  0  0  0  0  0  0  0  0  0
    8.3431  -17.0713   23.5981 O   0  0  0  0  0  0  0  0  0  0  0  0
   10.3268  -16.7939   24.7129 N   0  0  0  0  0  0  0  0  0  0  0  0
   10.4640  -18.2327   24.9152 C   0  0  1  0  0  0  0  0  0  0  0  0
   11.9290  -18.5895   24.6506 C   0  0  0  0  0  0  0  0  0  0  0  0
   12.2895  -18.1350   22.9479 S   0  0  0  0  0  0  0  0  0  0  0  0
   10.1576  -18.4999   26.3456 C   0  0  0  0  0  0  0  0  0  0  0  0
    9.8862  -17.5054   27.0701 O   0  0  0  0  0  0  0  0  0  0  0  0
   10.1519  -19.7446   26.9188 O   0  0  0  0  0  0  0  0  0  0  0  0
  2  1  1  6
  2  3  1  0
  4  5  2  0
  4  3  1  0
  6  5  1  0
  7  8  2  0
  7  6  1  0
  8  4  1  0
  9  2  1  0
 10  9  2  0
 11  9  1  0
 12 11  1  0
 12 13  1  1
 14 13  1  0
 15 17  1  0
 15 12  1  0
 16 15  2  0
 18 19  1  1
 18 17  1  0
 19 20  1  0
 21 18  1  0
 21 23  1  0
 22 21  2  0
M  END
$$$$
