HCC.pdb
     RDKit          3D

 23 23  0  0  1  0  0  0  0  0999 V2000
   10.0716  -17.8106   16.9132 N   0  0  0  0  0  0  0  0  0  0  0  0
    9.8411  -18.6845   18.0343 C   0  0  1  0  0  0  0  0  0  0  0  0
   10.3547  -20.0737   17.7011 C   0  0  0  0  0  0  0  0  0  0  0  0
    9.4636  -20.6153   16.6214 C   0  0  0  0  0  0  0  0  0  0  0  0
    8.3795  -21.4568   16.7720 C   0  0  0  0  0  0  0  0  0  0  0  0
    7.8654  -21.6947   15.5503 N   0  0  0  0  0  0  0  0  0  0  0  0
    8.5892  -21.0306   14.6303 C   0  0  0  0  0  0  0  0  0  0  0  0
    9.5548  -20.3802   15.2912 N   0  0  0  0  0  0  0  0  0  0  0  0
   10.4750  -18.1249   19.2323 C   0  0  0  0  0  0  0  0  0  0  0  0
   11.6288  -17.6027   19.2331 O   0  0  0  0  0  0  0  0  0  0  0  0
    9.7900  -18.1509   20.4785 N   0  0  0  0  0  0  0  0  0  0  0  0
   10.3716  -17.6354   21.6806 C   0  0  1  0  0  0  0  0  0  0  0  0
    9.3230  -16.9493   22.5649 C   0  0  0  0  0  0  0  0  0  0  0  0
   10.1152  -16.2181   24.0025 S   0  0  0  0  0  0  0  0  0  0  0  0
   10.9010  -18.7666   22.4819 C   0  0  0  0  0  0  0  0  0  0  0  0
   10.6787  -19.9298   22.1044 O   0  0  0  0  0  0  0  0  0  0  0  0
   11.6573  -18.5737   23.6721 N   0  0  0  0  0  0  0  0  0  0  0  0
   12.6705  -19.5484   24.0633 C   0  0  1  0  0  0  0  0  0  0  0  0
   13.9253  -19.2535   23.2373 C   0  0  0  0  0  0  0  0  0  0  0  0
   14.3505  -20.7630   22.3561 S   0  0  0  0  0  0  0  0  0  0  0  0
   12.9746  -19.3045   25.4984 C   0  0  0  0  0  0  0  0  0  0  0  0
   12.7271  -18.1548   25.9504 O   0  0  0  0  0  0  0  0  0  0  0  0
   13.5007  -20.2401   26.3503 O   0  0  0  0  0  0  0  0  0  0  0  0
  2  1  1  6
  2  3  1  0
  4  5  2  0
  4  3  1  0
  6  5  1  0
  7  8  2  0
  7  6  1  0
  8  4  1  0
  9  2  1  0
 10  9  2  0
 11  9  1  0
 12 11  1  0
 12 13  1  1
 14 13  1  0
 15 17  1  0
 15 12  1  0
 16 15  2  0
 18 19  1  6
 18 17  1  0
 19 20  1  0
 21 18  1  0
 21 23  1  0
 22 21  2  0
M  END
$$$$
