HCC.pdb
     RDKit          3D

 23 23  0  0  1  0  0  0  0  0999 V2000
   10.5550  -17.4416   17.8858 N   0  0  0  0  0  0  0  0  0  0  0  0
    9.5956  -17.8604   18.8746 C   0  0  1  0  0  0  0  0  0  0  0  0
    9.6989  -19.3624   19.0690 C   0  0  0  0  0  0  0  0  0  0  0  0
    9.1308  -19.9972   17.8329 C   0  0  0  0  0  0  0  0  0  0  0  0
    7.9609  -19.6635   17.1805 C   0  0  0  0  0  0  0  0  0  0  0  0
    7.8289  -20.4820   16.1193 N   0  0  0  0  0  0  0  0  0  0  0  0
    8.8782  -21.3238   16.0786 C   0  0  0  0  0  0  0  0  0  0  0  0
    9.6603  -21.0205   17.1219 N   0  0  0  0  0  0  0  0  0  0  0  0
    9.8163  -17.1175   20.1194 C   0  0  0  0  0  0  0  0  0  0  0  0
   10.9621  -16.9217   20.6223 O   0  0  0  0  0  0  0  0  0  0  0  0
    8.7109  -16.5725   20.8291 N   0  0  0  0  0  0  0  0  0  0  0  0
    8.8742  -15.8174   22.0342 C   0  0  1  0  0  0  0  0  0  0  0  0
    7.5678  -15.1298   22.4499 C   0  0  0  0  0  0  0  0  0  0  0  0
    7.8126  -14.2193   23.9796 S   0  0  0  0  0  0  0  0  0  0  0  0
    9.2142  -16.7458   23.1407 C   0  0  0  0  0  0  0  0  0  0  0  0
    8.6491  -17.8516   23.1960 O   0  0  0  0  0  0  0  0  0  0  0  0
   10.1664  -16.4208   24.1475 N   0  0  0  0  0  0  0  0  0  0  0  0
   10.4364  -17.3591   25.2320 C   0  0  1  0  0  0  0  0  0  0  0  0
   11.6589  -16.8355   25.9901 C   0  0  0  0  0  0  0  0  0  0  0  0
   11.9347  -17.9383   27.3842 S   0  0  0  0  0  0  0  0  0  0  0  0
    9.2590  -17.3222   26.1397 C   0  0  0  0  0  0  0  0  0  0  0  0
    8.5966  -16.2510   26.1774 O   0  0  0  0  0  0  0  0  0  0  0  0
    8.8537  -18.3670   26.9283 O   0  0  0  0  0  0  0  0  0  0  0  0
  2  1  1  6
  2  3  1  0
  4  5  2  0
  4  3  1  0
  6  5  1  0
  7  8  2  0
  7  6  1  0
  8  4  1  0
  9  2  1  0
 10  9  2  0
 11  9  1  0
 12 11  1  0
 12 13  1  1
 14 13  1  0
 15 17  1  0
 15 12  1  0
 16 15  2  0
 18 19  1  1
 18 17  1  0
 19 20  1  0
 21 18  1  0
 21 23  1  0
 22 21  2  0
M  END
$$$$
