HCC.pdb
     RDKit          3D

 23 23  0  0  1  0  0  0  0  0999 V2000
    9.1222  -15.1471   13.6795 N   0  0  0  0  0  0  0  0  0  0  0  0
    8.8130  -15.6924   14.9760 C   0  0  1  0  0  0  0  0  0  0  0  0
    9.1806  -17.1651   15.0012 C   0  0  0  0  0  0  0  0  0  0  0  0
    8.2324  -17.8621   14.0693 C   0  0  0  0  0  0  0  0  0  0  0  0
    8.5256  -18.4335   12.8472 C   0  0  0  0  0  0  0  0  0  0  0  0
    7.3870  -18.9488   12.3457 N   0  0  0  0  0  0  0  0  0  0  0  0
    6.3817  -18.7220   13.2112 C   0  0  0  0  0  0  0  0  0  0  0  0
    6.9060  -18.0630   14.2517 N   0  0  0  0  0  0  0  0  0  0  0  0
    9.5096  -14.9230   16.0118 C   0  0  0  0  0  0  0  0  0  0  0  0
   10.7338  -14.6059   15.9421 O   0  0  0  0  0  0  0  0  0  0  0  0
    8.8079  -14.4915   17.1712 N   0  0  0  0  0  0  0  0  0  0  0  0
    9.4625  -13.8262   18.2566 C   0  0  1  0  0  0  0  0  0  0  0  0
    8.4516  -13.2272   19.2424 C   0  0  0  0  0  0  0  0  0  0  0  0
    7.3130  -14.4991   19.8034 S   0  0  0  0  0  0  0  0  0  0  0  0
   10.2427  -14.8230   19.0309 C   0  0  0  0  0  0  0  0  0  0  0  0
    9.8983  -16.0169   18.9977 O   0  0  0  0  0  0  0  0  0  0  0  0
   11.3761  -14.4666   19.8147 N   0  0  0  0  0  0  0  0  0  0  0  0
   12.1255  -15.4943   20.5302 C   0  0  1  0  0  0  0  0  0  0  0  0
   13.5311  -14.9403   20.7774 C   0  0  0  0  0  0  0  0  0  0  0  0
   14.3535  -14.8408   19.1807 S   0  0  0  0  0  0  0  0  0  0  0  0
   11.4508  -15.6886   21.8411 C   0  0  0  0  0  0  0  0  0  0  0  0
   11.9538  -16.5364   22.6256 O   0  0  0  0  0  0  0  0  0  0  0  0
   10.3298  -15.0118   22.2449 O   0  0  0  0  0  0  0  0  0  0  0  0
  2  1  1  6
  2  3  1  0
  4  5  2  0
  4  3  1  0
  6  5  1  0
  7  8  2  0
  7  6  1  0
  8  4  1  0
  9  2  1  0
 10  9  2  0
 11  9  1  0
 12 11  1  0
 12 13  1  1
 14 13  1  0
 15 17  1  0
 15 12  1  0
 16 15  2  0
 18 19  1  1
 18 17  1  0
 19 20  1  0
 21 18  1  0
 21 23  1  0
 22 21  2  0
M  END
$$$$
