HCC.pdb
     RDKit          3D

 23 23  0  0  1  0  0  0  0  0999 V2000
    7.1221  -14.7962   20.9531 N   0  0  0  0  0  0  0  0  0  0  0  0
    8.4637  -15.2322   21.2427 C   0  0  1  0  0  0  0  0  0  0  0  0
    9.4137  -14.6493   20.2122 C   0  0  0  0  0  0  0  0  0  0  0  0
    8.5745  -14.2311   19.0399 C   0  0  0  0  0  0  0  0  0  0  0  0
    7.2030  -14.3250   18.9142 C   0  0  0  0  0  0  0  0  0  0  0  0
    6.8622  -13.8373   17.7061 N   0  0  0  0  0  0  0  0  0  0  0  0
    7.9743  -13.4374   17.0623 C   0  0  0  0  0  0  0  0  0  0  0  0
    9.0056  -13.6810   17.8803 N   0  0  0  0  0  0  0  0  0  0  0  0
    8.8198  -14.8503   22.6129 C   0  0  0  0  0  0  0  0  0  0  0  0
    9.9994  -14.9086   23.0702 O   0  0  0  0  0  0  0  0  0  0  0  0
    7.8157  -14.3849   23.5062 N   0  0  0  0  0  0  0  0  0  0  0  0
    8.0935  -14.0849   24.8780 C   0  0  1  0  0  0  0  0  0  0  0  0
    6.9562  -13.2810   25.5206 C   0  0  0  0  0  0  0  0  0  0  0  0
    7.3432  -12.9369   27.2413 S   0  0  0  0  0  0  0  0  0  0  0  0
    8.1741  -15.3551   25.6410 C   0  0  0  0  0  0  0  0  0  0  0  0
    7.1390  -16.0204   25.8166 O   0  0  0  0  0  0  0  0  0  0  0  0
    9.3950  -15.8461   26.1832 N   0  0  0  0  0  0  0  0  0  0  0  0
    9.3988  -17.0469   27.0126 C   0  0  1  0  0  0  0  0  0  0  0  0
   10.3542  -18.0473   26.3569 C   0  0  0  0  0  0  0  0  0  0  0  0
    9.6631  -18.4707   24.7511 S   0  0  0  0  0  0  0  0  0  0  0  0
    9.9506  -16.6564   28.3372 C   0  0  0  0  0  0  0  0  0  0  0  0
   10.0575  -17.5638   29.2047 O   0  0  0  0  0  0  0  0  0  0  0  0
   10.3454  -15.3870   28.6700 O   0  0  0  0  0  0  0  0  0  0  0  0
  2  1  1  6
  2  3  1  0
  4  5  2  0
  4  3  1  0
  6  5  1  0
  7  8  2  0
  7  6  1  0
  8  4  1  0
  9  2  1  0
 10  9  2  0
 11  9  1  0
 12 11  1  0
 12 13  1  1
 14 13  1  0
 15 17  1  0
 15 12  1  0
 16 15  2  0
 18 19  1  6
 18 17  1  0
 19 20  1  0
 21 18  1  0
 21 23  1  0
 22 21  2  0
M  END
$$$$
