HCC.pdb
     RDKit          3D

 23 23  0  0  1  0  0  0  0  0999 V2000
   10.0479  -16.1723   20.4842 N   0  0  0  0  0  0  0  0  0  0  0  0
    9.0521  -16.4773   21.4788 C   0  0  1  0  0  0  0  0  0  0  0  0
    9.1869  -17.9313   21.8939 C   0  0  0  0  0  0  0  0  0  0  0  0
    8.5135  -18.7479   20.8295 C   0  0  0  0  0  0  0  0  0  0  0  0
    8.3860  -18.4387   19.4901 C   0  0  0  0  0  0  0  0  0  0  0  0
    7.7146  -19.4425   18.8941 N   0  0  0  0  0  0  0  0  0  0  0  0
    7.4127  -20.3779   19.8134 C   0  0  0  0  0  0  0  0  0  0  0  0
    7.9019  -19.9460   20.9822 N   0  0  0  0  0  0  0  0  0  0  0  0
    9.1898  -15.5559   22.6111 C   0  0  0  0  0  0  0  0  0  0  0  0
   10.2627  -14.9410   22.8850 O   0  0  0  0  0  0  0  0  0  0  0  0
    8.0829  -15.3133   23.4705 N   0  0  0  0  0  0  0  0  0  0  0  0
    8.1781  -14.4605   24.6163 C   0  0  1  0  0  0  0  0  0  0  0  0
    6.7923  -14.0786   25.1513 C   0  0  0  0  0  0  0  0  0  0  0  0
    6.9610  -13.0287   26.5998 S   0  0  0  0  0  0  0  0  0  0  0  0
    8.8464  -15.2029   25.7136 C   0  0  0  0  0  0  0  0  0  0  0  0
    8.7234  -16.4386   25.7688 O   0  0  0  0  0  0  0  0  0  0  0  0
    9.6271  -14.5547   26.7118 N   0  0  0  0  0  0  0  0  0  0  0  0
   10.5903  -15.3173   27.4994 C   0  0  1  0  0  0  0  0  0  0  0  0
   11.2236  -14.3488   28.5017 C   0  0  0  0  0  0  0  0  0  0  0  0
    9.8829  -13.5921   29.4322 S   0  0  0  0  0  0  0  0  0  0  0  0
    9.8199  -16.3449   28.2489 C   0  0  0  0  0  0  0  0  0  0  0  0
    8.5658  -16.3224   28.1297 O   0  0  0  0  0  0  0  0  0  0  0  0
   10.3810  -17.3036   29.0515 O   0  0  0  0  0  0  0  0  0  0  0  0
  2  1  1  6
  2  3  1  0
  4  5  2  0
  4  3  1  0
  6  5  1  0
  7  8  2  0
  7  6  1  0
  8  4  1  0
  9  2  1  0
 10  9  2  0
 11  9  1  0
 12 11  1  0
 12 13  1  1
 14 13  1  0
 15 17  1  0
 15 12  1  0
 16 15  2  0
 18 19  1  1
 18 17  1  0
 19 20  1  0
 21 18  1  0
 21 23  1  0
 22 21  2  0
M  END
$$$$
