HCC.pdb
     RDKit          3D

 23 23  0  0  1  0  0  0  0  0999 V2000
    7.9159  -19.4073   20.5084 N   0  0  0  0  0  0  0  0  0  0  0  0
    8.8469  -18.4283   21.0069 C   0  0  1  0  0  0  0  0  0  0  0  0
    9.3441  -17.5761   19.8533 C   0  0  0  0  0  0  0  0  0  0  0  0
   10.5077  -18.3063   19.2479 C   0  0  0  0  0  0  0  0  0  0  0  0
   11.5457  -18.9279   19.9128 C   0  0  0  0  0  0  0  0  0  0  0  0
   12.3713  -19.4583   18.9905 N   0  0  0  0  0  0  0  0  0  0  0  0
   11.8893  -19.1925   17.7624 C   0  0  0  0  0  0  0  0  0  0  0  0
   10.7598  -18.4940   17.9311 N   0  0  0  0  0  0  0  0  0  0  0  0
    8.2062  -17.6309   22.0575 C   0  0  0  0  0  0  0  0  0  0  0  0
    7.2714  -16.8056   21.8362 O   0  0  0  0  0  0  0  0  0  0  0  0
    8.6288  -17.7627   23.4091 N   0  0  0  0  0  0  0  0  0  0  0  0
    8.0331  -17.0116   24.4722 C   0  0  1  0  0  0  0  0  0  0  0  0
    7.1040  -17.8832   25.3264 C   0  0  0  0  0  0  0  0  0  0  0  0
    7.9791  -19.3499   25.8847 S   0  0  0  0  0  0  0  0  0  0  0  0
    9.1030  -16.5416   25.3868 C   0  0  0  0  0  0  0  0  0  0  0  0
   10.2513  -16.9996   25.2581 O   0  0  0  0  0  0  0  0  0  0  0  0
    8.8674  -15.5823   26.4115 N   0  0  0  0  0  0  0  0  0  0  0  0
    9.9638  -15.1369   27.2655 C   0  0  1  0  0  0  0  0  0  0  0  0
    9.4770  -13.8951   28.0167 C   0  0  0  0  0  0  0  0  0  0  0  0
   10.8221  -13.3548   29.0819 S   0  0  0  0  0  0  0  0  0  0  0  0
   10.2148  -16.2232   28.2495 C   0  0  0  0  0  0  0  0  0  0  0  0
    9.2514  -16.9901   28.5163 O   0  0  0  0  0  0  0  0  0  0  0  0
   11.4135  -16.4404   28.8770 O   0  0  0  0  0  0  0  0  0  0  0  0
  2  1  1  6
  2  3  1  0
  4  5  2  0
  4  3  1  0
  6  5  1  0
  7  8  2  0
  7  6  1  0
  8  4  1  0
  9  2  1  0
 10  9  2  0
 11  9  1  0
 12 11  1  0
 12 13  1  1
 14 13  1  0
 15 17  1  0
 15 12  1  0
 16 15  2  0
 18 19  1  1
 18 17  1  0
 19 20  1  0
 21 18  1  0
 21 23  1  0
 22 21  2  0
M  END
$$$$
