HCC.pdb
     RDKit          3D

 23 23  0  0  1  0  0  0  0  0999 V2000
   10.5710  -22.3160   15.5705 N   0  0  0  0  0  0  0  0  0  0  0  0
   11.3627  -21.1626   15.9119 C   0  0  1  0  0  0  0  0  0  0  0  0
   11.1196  -20.0671   14.8896 C   0  0  0  0  0  0  0  0  0  0  0  0
   11.7605  -20.5212   13.6103 C   0  0  0  0  0  0  0  0  0  0  0  0
   12.9276  -21.2446   13.4675 C   0  0  0  0  0  0  0  0  0  0  0  0
   13.1389  -21.4366   12.1515 N   0  0  0  0  0  0  0  0  0  0  0  0
   12.1428  -20.8578   11.4559 C   0  0  0  0  0  0  0  0  0  0  0  0
   11.3137  -20.3063   12.3505 N   0  0  0  0  0  0  0  0  0  0  0  0
   11.0450  -20.7351   17.2781 C   0  0  0  0  0  0  0  0  0  0  0  0
   11.4922  -19.6707   17.7989 O   0  0  0  0  0  0  0  0  0  0  0  0
   10.1932  -21.5305   18.0932 N   0  0  0  0  0  0  0  0  0  0  0  0
    9.8782  -21.1750   19.4436 C   0  0  1  0  0  0  0  0  0  0  0  0
    8.4441  -21.5751   19.8119 C   0  0  0  0  0  0  0  0  0  0  0  0
    8.1832  -23.3179   19.4606 S   0  0  0  0  0  0  0  0  0  0  0  0
   10.7608  -21.9387   20.3599 C   0  0  0  0  0  0  0  0  0  0  0  0
   11.4659  -22.8519   19.8972 O   0  0  0  0  0  0  0  0  0  0  0  0
   10.8339  -21.6674   21.7552 N   0  0  0  0  0  0  0  0  0  0  0  0
   12.0010  -22.0877   22.5240 C   0  0  1  0  0  0  0  0  0  0  0  0
   13.1527  -21.1525   22.1466 C   0  0  0  0  0  0  0  0  0  0  0  0
   14.5496  -21.5755   23.1980 S   0  0  0  0  0  0  0  0  0  0  0  0
   11.6703  -21.8838   23.9594 C   0  0  0  0  0  0  0  0  0  0  0  0
   10.7606  -21.0539   24.2267 O   0  0  0  0  0  0  0  0  0  0  0  0
   12.2849  -22.5336   24.9976 O   0  0  0  0  0  0  0  0  0  0  0  0
  2  1  1  6
  2  3  1  0
  4  5  2  0
  4  3  1  0
  6  5  1  0
  7  8  2  0
  7  6  1  0
  8  4  1  0
  9  2  1  0
 10  9  2  0
 11  9  1  0
 12 11  1  0
 12 13  1  1
 14 13  1  0
 15 17  1  0
 15 12  1  0
 16 15  2  0
 18 19  1  6
 18 17  1  0
 19 20  1  0
 21 18  1  0
 21 23  1  0
 22 21  2  0
M  END
$$$$
