HCC.pdb
     RDKit          3D

 23 23  0  0  1  0  0  0  0  0999 V2000
    8.6507  -15.9608   20.6671 N   0  0  0  0  0  0  0  0  0  0  0  0
    8.1719  -14.7770   21.3329 C   0  0  1  0  0  0  0  0  0  0  0  0
    6.9538  -14.2467   20.5984 C   0  0  0  0  0  0  0  0  0  0  0  0
    7.3742  -14.0168   19.1758 C   0  0  0  0  0  0  0  0  0  0  0  0
    8.0447  -12.9232   18.6656 C   0  0  0  0  0  0  0  0  0  0  0  0
    8.2223  -13.1235   17.3458 N   0  0  0  0  0  0  0  0  0  0  0  0
    7.6856  -14.3093   17.0036 C   0  0  0  0  0  0  0  0  0  0  0  0
    7.1748  -14.8414   18.1207 N   0  0  0  0  0  0  0  0  0  0  0  0
    7.8894  -15.0839   22.7386 C   0  0  0  0  0  0  0  0  0  0  0  0
    7.3235  -14.2735   23.5306 O   0  0  0  0  0  0  0  0  0  0  0  0
    8.2549  -16.3476   23.2790 N   0  0  0  0  0  0  0  0  0  0  0  0
    8.1155  -16.6523   24.6707 C   0  0  1  0  0  0  0  0  0  0  0  0
    8.0263  -18.1646   24.9104 C   0  0  0  0  0  0  0  0  0  0  0  0
    6.3208  -18.6379   25.2207 S   0  0  0  0  0  0  0  0  0  0  0  0
    9.3340  -16.1992   25.3862 C   0  0  0  0  0  0  0  0  0  0  0  0
   10.4412  -16.3329   24.8373 O   0  0  0  0  0  0  0  0  0  0  0  0
    9.2872  -15.6141   26.6829 N   0  0  0  0  0  0  0  0  0  0  0  0
   10.5138  -15.1488   27.3224 C   0  0  1  0  0  0  0  0  0  0  0  0
   10.3113  -13.6716   27.6693 C   0  0  0  0  0  0  0  0  0  0  0  0
    8.6430  -13.5003   28.3196 S   0  0  0  0  0  0  0  0  0  0  0  0
   10.6635  -15.9204   28.5848 C   0  0  0  0  0  0  0  0  0  0  0  0
    9.7583  -16.7526   28.8598 O   0  0  0  0  0  0  0  0  0  0  0  0
   11.7112  -15.7851   29.4576 O   0  0  0  0  0  0  0  0  0  0  0  0
  2  1  1  6
  2  3  1  0
  4  5  2  0
  4  3  1  0
  6  5  1  0
  7  8  2  0
  7  6  1  0
  8  4  1  0
  9  2  1  0
 10  9  2  0
 11  9  1  0
 12 11  1  0
 12 13  1  6
 14 13  1  0
 15 17  1  0
 15 12  1  0
 16 15  2  0
 18 19  1  1
 18 17  1  0
 19 20  1  0
 21 18  1  0
 21 23  1  0
 22 21  2  0
M  END
$$$$
