HCC.pdb
     RDKit          3D

 23 23  0  0  1  0  0  0  0  0999 V2000
    9.3056  -15.0412   20.4804 N   0  0  0  0  0  0  0  0  0  0  0  0
    8.3541  -15.2158   21.5471 C   0  0  1  0  0  0  0  0  0  0  0  0
    7.8863  -16.6598   21.5704 C   0  0  0  0  0  0  0  0  0  0  0  0
    7.2157  -16.9171   20.2522 C   0  0  0  0  0  0  0  0  0  0  0  0
    7.0903  -16.0439   19.1903 C   0  0  0  0  0  0  0  0  0  0  0  0
    6.4211  -16.6774   18.2083 N   0  0  0  0  0  0  0  0  0  0  0  0
    6.1184  -17.9243   18.6143 C   0  0  0  0  0  0  0  0  0  0  0  0
    6.6049  -18.0580   19.8543 N   0  0  0  0  0  0  0  0  0  0  0  0
    8.9582  -14.8017   22.8174 C   0  0  0  0  0  0  0  0  0  0  0  0
   10.1968  -14.8949   23.0653 O   0  0  0  0  0  0  0  0  0  0  0  0
    8.1437  -14.2620   23.8508 N   0  0  0  0  0  0  0  0  0  0  0  0
    8.6251  -14.0807   25.1867 C   0  0  1  0  0  0  0  0  0  0  0  0
    7.7238  -13.1320   25.9867 C   0  0  0  0  0  0  0  0  0  0  0  0
    5.9965  -13.5093   25.6659 S   0  0  0  0  0  0  0  0  0  0  0  0
    8.5752  -15.3829   25.8964 C   0  0  0  0  0  0  0  0  0  0  0  0
    8.1139  -16.3747   25.3061 O   0  0  0  0  0  0  0  0  0  0  0  0
    9.0364  -15.5442   27.2333 N   0  0  0  0  0  0  0  0  0  0  0  0
    9.7082  -16.7763   27.6337 C   0  0  1  0  0  0  0  0  0  0  0  0
   10.9974  -16.8761   26.8142 C   0  0  0  0  0  0  0  0  0  0  0  0
   11.9011  -18.3109   27.4144 S   0  0  0  0  0  0  0  0  0  0  0  0
   10.0647  -16.6279   29.0698 C   0  0  0  0  0  0  0  0  0  0  0  0
   10.2928  -15.4612   29.4871 O   0  0  0  0  0  0  0  0  0  0  0  0
   10.1598  -17.6676   29.9574 O   0  0  0  0  0  0  0  0  0  0  0  0
  2  1  1  6
  2  3  1  0
  4  5  2  0
  4  3  1  0
  6  5  1  0
  7  8  2  0
  7  6  1  0
  8  4  1  0
  9  2  1  0
 10  9  2  0
 11  9  1  0
 12 11  1  0
 12 13  1  1
 14 13  1  0
 15 17  1  0
 15 12  1  0
 16 15  2  0
 18 19  1  6
 18 17  1  0
 19 20  1  0
 21 18  1  0
 21 23  1  0
 22 21  2  0
M  END
$$$$
