HCC.pdb
     RDKit          3D

 23 23  0  0  1  0  0  0  0  0999 V2000
    9.5764  -16.9270   17.6906 N   0  0  0  0  0  0  0  0  0  0  0  0
    8.5572  -17.0745   18.6973 C   0  0  1  0  0  0  0  0  0  0  0  0
    8.2463  -18.5486   18.8838 C   0  0  0  0  0  0  0  0  0  0  0  0
    7.3825  -18.9569   17.7260 C   0  0  0  0  0  0  0  0  0  0  0  0
    6.9547  -18.1659   16.6786 C   0  0  0  0  0  0  0  0  0  0  0  0
    6.2017  -18.9281   15.8629 N   0  0  0  0  0  0  0  0  0  0  0  0
    6.1387  -20.1771   16.3602 C   0  0  0  0  0  0  0  0  0  0  0  0
    6.8580  -20.1824   17.4892 N   0  0  0  0  0  0  0  0  0  0  0  0
    8.9973  -16.4327   19.9401 C   0  0  0  0  0  0  0  0  0  0  0  0
   10.2110  -16.3524   20.2931 O   0  0  0  0  0  0  0  0  0  0  0  0
    8.0411  -15.8582   20.8222 N   0  0  0  0  0  0  0  0  0  0  0  0
    8.4152  -15.2500   22.0629 C   0  0  1  0  0  0  0  0  0  0  0  0
    7.2253  -14.5456   22.7267 C   0  0  0  0  0  0  0  0  0  0  0  0
    7.7145  -13.8888   24.3261 S   0  0  0  0  0  0  0  0  0  0  0  0
    8.8385  -16.3111   23.0099 C   0  0  0  0  0  0  0  0  0  0  0  0
    8.2563  -17.4090   22.9859 O   0  0  0  0  0  0  0  0  0  0  0  0
    9.8902  -16.1226   23.9504 N   0  0  0  0  0  0  0  0  0  0  0  0
   10.3733  -17.2469   24.7455 C   0  0  1  0  0  0  0  0  0  0  0  0
   11.3458  -18.0381   23.8671 C   0  0  0  0  0  0  0  0  0  0  0  0
   12.6733  -16.9183   23.3988 S   0  0  0  0  0  0  0  0  0  0  0  0
   11.1242  -16.6739   25.8941 C   0  0  0  0  0  0  0  0  0  0  0  0
   11.6810  -17.4871   26.6791 O   0  0  0  0  0  0  0  0  0  0  0  0
   11.2475  -15.3333   26.1497 O   0  0  0  0  0  0  0  0  0  0  0  0
  2  1  1  6
  2  3  1  0
  4  5  2  0
  4  3  1  0
  6  5  1  0
  7  8  2  0
  7  6  1  0
  8  4  1  0
  9  2  1  0
 10  9  2  0
 11  9  1  0
 12 11  1  0
 12 13  1  1
 14 13  1  0
 15 17  1  0
 15 12  1  0
 16 15  2  0
 18 19  1  6
 18 17  1  0
 19 20  1  0
 21 18  1  0
 21 23  1  0
 22 21  2  0
M  END
$$$$
