HCC.pdb
     RDKit          3D

 23 23  0  0  1  0  0  0  0  0999 V2000
    8.1729  -13.4638   20.0764 N   0  0  0  0  0  0  0  0  0  0  0  0
    8.1865  -14.5480   21.0241 C   0  0  1  0  0  0  0  0  0  0  0  0
    9.2587  -15.5470   20.6278 C   0  0  0  0  0  0  0  0  0  0  0  0
    8.6917  -16.3651   19.5042 C   0  0  0  0  0  0  0  0  0  0  0  0
    7.4629  -16.2137   18.8934 C   0  0  0  0  0  0  0  0  0  0  0  0
    7.3562  -17.1546   17.9359 N   0  0  0  0  0  0  0  0  0  0  0  0
    8.4784  -17.8974   17.9205 C   0  0  0  0  0  0  0  0  0  0  0  0
    9.2802  -17.4096   18.8751 N   0  0  0  0  0  0  0  0  0  0  0  0
    8.3872  -14.0169   22.3760 C   0  0  0  0  0  0  0  0  0  0  0  0
    9.2140  -13.0974   22.6497 O   0  0  0  0  0  0  0  0  0  0  0  0
    7.6325  -14.5355   23.4642 N   0  0  0  0  0  0  0  0  0  0  0  0
    7.8190  -14.0805   24.8086 C   0  0  1  0  0  0  0  0  0  0  0  0
    6.5254  -14.1902   25.6253 C   0  0  0  0  0  0  0  0  0  0  0  0
    6.7062  -13.3129   27.1831 S   0  0  0  0  0  0  0  0  0  0  0  0
    8.8012  -14.9648   25.4833 C   0  0  0  0  0  0  0  0  0  0  0  0
    8.9964  -16.1060   25.0310 O   0  0  0  0  0  0  0  0  0  0  0  0
    9.5336  -14.5579   26.6339 N   0  0  0  0  0  0  0  0  0  0  0  0
   10.5353  -15.4445   27.2171 C   0  0  1  0  0  0  0  0  0  0  0  0
   11.0569  -14.7658   28.4863 C   0  0  0  0  0  0  0  0  0  0  0  0
   11.3674  -13.0412   28.0797 S   0  0  0  0  0  0  0  0  0  0  0  0
    9.8335  -16.6986   27.5995 C   0  0  0  0  0  0  0  0  0  0  0  0
    8.5879  -16.7388   27.4141 O   0  0  0  0  0  0  0  0  0  0  0  0
   10.4485  -17.8002   28.1343 O   0  0  0  0  0  0  0  0  0  0  0  0
  2  1  1  6
  2  3  1  0
  4  5  2  0
  4  3  1  0
  6  5  1  0
  7  8  2  0
  7  6  1  0
  8  4  1  0
  9  2  1  0
 10  9  2  0
 11  9  1  0
 12 11  1  0
 12 13  1  1
 14 13  1  0
 15 17  1  0
 15 12  1  0
 16 15  2  0
 18 19  1  1
 18 17  1  0
 19 20  1  0
 21 18  1  0
 21 23  1  0
 22 21  2  0
M  END
$$$$
