HCC.pdb
     RDKit          3D

 23 23  0  0  1  0  0  0  0  0999 V2000
    8.4965  -15.1670   20.2432 N   0  0  0  0  0  0  0  0  0  0  0  0
    8.2244  -15.9114   21.4456 C   0  0  1  0  0  0  0  0  0  0  0  0
    8.9431  -17.2469   21.3819 C   0  0  0  0  0  0  0  0  0  0  0  0
    8.2470  -18.0615   20.3306 C   0  0  0  0  0  0  0  0  0  0  0  0
    6.9174  -18.4316   20.3000 C   0  0  0  0  0  0  0  0  0  0  0  0
    6.7133  -19.1555   19.1830 N   0  0  0  0  0  0  0  0  0  0  0  0
    7.8713  -19.2558   18.5047 C   0  0  0  0  0  0  0  0  0  0  0  0
    8.7935  -18.5891   19.2098 N   0  0  0  0  0  0  0  0  0  0  0  0
    8.6177  -15.1182   22.6145 C   0  0  0  0  0  0  0  0  0  0  0  0
    9.7904  -14.6754   22.7959 O   0  0  0  0  0  0  0  0  0  0  0  0
    7.6605  -14.8085   23.6197 N   0  0  0  0  0  0  0  0  0  0  0  0
    8.0072  -14.0925   24.8098 C   0  0  1  0  0  0  0  0  0  0  0  0
    6.7599  -13.6182   25.5659 C   0  0  0  0  0  0  0  0  0  0  0  0
    7.2412  -12.7834   27.0825 S   0  0  0  0  0  0  0  0  0  0  0  0
    8.7170  -15.0114   25.7339 C   0  0  0  0  0  0  0  0  0  0  0  0
    8.4845  -16.2308   25.6692 O   0  0  0  0  0  0  0  0  0  0  0  0
    9.6586  -14.5517   26.6971 N   0  0  0  0  0  0  0  0  0  0  0  0
   10.6984  -15.4480   27.1923 C   0  0  1  0  0  0  0  0  0  0  0  0
   11.5935  -14.6306   28.1272 C   0  0  0  0  0  0  0  0  0  0  0  0
   10.5116  -13.6898   29.2136 S   0  0  0  0  0  0  0  0  0  0  0  0
   10.0169  -16.5050   27.9859 C   0  0  0  0  0  0  0  0  0  0  0  0
    8.7679  -16.4070   28.1197 O   0  0  0  0  0  0  0  0  0  0  0  0
   10.6539  -17.5663   28.5739 O   0  0  0  0  0  0  0  0  0  0  0  0
  2  1  1  6
  2  3  1  0
  4  5  2  0
  4  3  1  0
  6  5  1  0
  7  8  2  0
  7  6  1  0
  8  4  1  0
  9  2  1  0
 10  9  2  0
 11  9  1  0
 12 11  1  0
 12 13  1  1
 14 13  1  0
 15 17  1  0
 15 12  1  0
 16 15  2  0
 18 19  1  1
 18 17  1  0
 19 20  1  0
 21 18  1  0
 21 23  1  0
 22 21  2  0
M  END
$$$$
