HCC.pdb
     RDKit          3D

 23 23  0  0  1  0  0  0  0  0999 V2000
    7.0260  -16.5229   20.0687 N   0  0  0  0  0  0  0  0  0  0  0  0
    7.4878  -15.5432   21.0178 C   0  0  1  0  0  0  0  0  0  0  0  0
    6.8481  -14.2023   20.7057 C   0  0  0  0  0  0  0  0  0  0  0  0
    7.3943  -13.7626   19.3784 C   0  0  0  0  0  0  0  0  0  0  0  0
    6.6905  -13.2312   18.3162 C   0  0  0  0  0  0  0  0  0  0  0  0
    7.5651  -12.9760   17.3245 N   0  0  0  0  0  0  0  0  0  0  0  0
    8.8006  -13.3288   17.7246 C   0  0  0  0  0  0  0  0  0  0  0  0
    8.6846  -13.8041   18.9706 N   0  0  0  0  0  0  0  0  0  0  0  0
    7.1939  -16.0012   22.3794 C   0  0  0  0  0  0  0  0  0  0  0  0
    6.1060  -16.5596   22.7092 O   0  0  0  0  0  0  0  0  0  0  0  0
    8.1559  -15.8272   23.4124 N   0  0  0  0  0  0  0  0  0  0  0  0
    7.9303  -16.2826   24.7507 C   0  0  1  0  0  0  0  0  0  0  0  0
    8.0213  -17.8105   24.8490 C   0  0  0  0  0  0  0  0  0  0  0  0
    7.7857  -18.3315   26.5525 S   0  0  0  0  0  0  0  0  0  0  0  0
    9.0062  -15.7547   25.6257 C   0  0  0  0  0  0  0  0  0  0  0  0
   10.1920  -15.9276   25.2954 O   0  0  0  0  0  0  0  0  0  0  0  0
    8.7351  -15.0545   26.8348 N   0  0  0  0  0  0  0  0  0  0  0  0
    9.8280  -14.4669   27.6029 C   0  0  1  0  0  0  0  0  0  0  0  0
    9.2112  -13.4374   28.5534 C   0  0  0  0  0  0  0  0  0  0  0  0
    8.0675  -12.4389   27.5887 S   0  0  0  0  0  0  0  0  0  0  0  0
   10.4286  -15.5625   28.4093 C   0  0  0  0  0  0  0  0  0  0  0  0
    9.8794  -16.6944   28.3390 O   0  0  0  0  0  0  0  0  0  0  0  0
   11.5284  -15.4208   29.2143 O   0  0  0  0  0  0  0  0  0  0  0  0
  2  1  1  6
  2  3  1  0
  4  5  2  0
  4  3  1  0
  6  5  1  0
  7  8  2  0
  7  6  1  0
  8  4  1  0
  9  2  1  0
 10  9  2  0
 11  9  1  0
 12 11  1  0
 12 13  1  6
 14 13  1  0
 15 17  1  0
 15 12  1  0
 16 15  2  0
 18 19  1  1
 18 17  1  0
 19 20  1  0
 21 18  1  0
 21 23  1  0
 22 21  2  0
M  END
$$$$
