HCC.pdb
     RDKit          3D

 23 23  0  0  1  0  0  0  0  0999 V2000
    8.2580  -17.4083   21.2127 N   0  0  0  0  0  0  0  0  0  0  0  0
    9.0829  -16.2531   20.9701 C   0  0  1  0  0  0  0  0  0  0  0  0
    8.6107  -15.5562   19.7069 C   0  0  0  0  0  0  0  0  0  0  0  0
    9.0187  -16.4282   18.5551 C   0  0  0  0  0  0  0  0  0  0  0  0
   10.0579  -17.3362   18.5174 C   0  0  0  0  0  0  0  0  0  0  0  0
   10.0713  -17.9019   17.2954 N   0  0  0  0  0  0  0  0  0  0  0  0
    9.0735  -17.3811   16.5576 C   0  0  0  0  0  0  0  0  0  0  0  0
    8.4426  -16.4894   17.3314 N   0  0  0  0  0  0  0  0  0  0  0  0
    9.0516  -15.3719   22.1417 C   0  0  0  0  0  0  0  0  0  0  0  0
    9.6841  -14.2767   22.2093 O   0  0  0  0  0  0  0  0  0  0  0  0
    8.2819  -15.7310   23.2825 N   0  0  0  0  0  0  0  0  0  0  0  0
    8.2442  -14.9230   24.4635 C   0  0  1  0  0  0  0  0  0  0  0  0
    6.8344  -14.8698   25.0653 C   0  0  0  0  0  0  0  0  0  0  0  0
    6.8078  -13.7488   26.4694 S   0  0  0  0  0  0  0  0  0  0  0  0
    9.1045  -15.5461   25.4997 C   0  0  0  0  0  0  0  0  0  0  0  0
    9.2499  -16.7806   25.5010 O   0  0  0  0  0  0  0  0  0  0  0  0
    9.7742  -14.7842   26.4981 N   0  0  0  0  0  0  0  0  0  0  0  0
   10.6939  -15.4365   27.4247 C   0  0  1  0  0  0  0  0  0  0  0  0
   11.2024  -14.3623   28.3895 C   0  0  0  0  0  0  0  0  0  0  0  0
    9.7673  -13.4502   28.9765 S   0  0  0  0  0  0  0  0  0  0  0  0
    9.9005  -16.4324   28.1929 C   0  0  0  0  0  0  0  0  0  0  0  0
    8.6561  -16.4497   27.9967 O   0  0  0  0  0  0  0  0  0  0  0  0
   10.4311  -17.3220   29.0901 O   0  0  0  0  0  0  0  0  0  0  0  0
  2  1  1  1
  2  3  1  0
  4  5  2  0
  4  3  1  0
  6  5  1  0
  7  8  2  0
  7  6  1  0
  8  4  1  0
  9  2  1  0
 10  9  2  0
 11  9  1  0
 12 11  1  0
 12 13  1  1
 14 13  1  0
 15 17  1  0
 15 12  1  0
 16 15  2  0
 18 19  1  1
 18 17  1  0
 19 20  1  0
 21 18  1  0
 21 23  1  0
 22 21  2  0
M  END
$$$$
