DGI.pdb
     RDKit          3D

 21 20  0  0  1  0  0  0  0  0999 V2000
    6.8213  -16.7830   20.6813 N   0  0  0  0  0  0  0  0  0  0  0  0
    7.9845  -17.1073   19.9179 C   0  0  1  0  0  0  0  0  0  0  0  0
    7.8446  -16.6074   18.5115 C   0  0  0  0  0  0  0  0  0  0  0  0
    7.1991  -17.6482   17.6797 C   0  0  0  0  0  0  0  0  0  0  0  0
    6.7093  -18.7078   18.1256 O   0  0  0  0  0  0  0  0  0  0  0  0
    9.2394  -16.6072   20.5410 C   0  0  0  0  0  0  0  0  0  0  0  0
   10.3249  -16.8843   19.9931 O   0  0  0  0  0  0  0  0  0  0  0  0
    7.1349  -17.4270   16.2991 O   0  0  0  0  0  0  0  0  0  0  0  0
    9.1742  -15.8343   21.7323 N   0  0  0  0  0  0  0  0  0  0  0  0
   10.3725  -15.3887   22.4095 C   0  0  0  0  0  0  0  0  0  0  0  0
   10.1384  -15.1822   23.8537 C   0  0  0  0  0  0  0  0  0  0  0  0
   11.0929  -14.9972   24.6785 O   0  0  0  0  0  0  0  0  0  0  0  0
    6.4834  -11.9259   25.2348 C   0  0  0  0  0  0  0  0  0  0  0  0
    7.6203  -12.8988   25.0578 C   0  0  0  0  0  0  0  0  0  0  0  0
    7.4774  -14.0440   26.0304 C   0  0  2  0  0  0  0  0  0  0  0  0
    7.4443  -13.5433   27.4388 C   0  0  0  0  0  0  0  0  0  0  0  0
    8.5899  -15.0522   25.7896 C   0  0  2  0  0  0  0  0  0  0  0  0
    8.8344  -15.1837   24.3685 N   0  0  0  0  0  0  0  0  0  0  0  0
    8.1106  -16.3523   26.3194 C   0  0  0  0  0  0  0  0  0  0  0  0
    7.2556  -17.0204   25.7042 O   0  0  0  0  0  0  0  0  0  0  0  0
    8.6107  -16.8431   27.5125 O   0  0  0  0  0  0  0  0  0  0  0  0
  2  1  1  1
  2  3  1  0
  3  4  1  0
  4  5  2  0
  4  8  1  0
  6  7  2  0
  6  2  1  0
  9  6  1  0
 10  9  1  0
 11 10  1  0
 11 18  1  0
 12 11  2  0
 13 14  1  0
 15 16  1  1
 15 14  1  0
 17 18  1  6
 17 15  1  0
 19 17  1  0
 20 19  2  0
 21 19  1  0
M  END
$$$$
