DGI.pdb
     RDKit          3D

 21 20  0  0  1  0  0  0  0  0999 V2000
   10.0346  -17.6109   19.3284 N   0  0  0  0  0  0  0  0  0  0  0  0
    8.6913  -17.5428   18.8470 C   0  0  1  0  0  0  0  0  0  0  0  0
    8.1968  -18.9092   18.4784 C   0  0  0  0  0  0  0  0  0  0  0  0
    9.3476  -19.7738   18.1321 C   0  0  0  0  0  0  0  0  0  0  0  0
   10.0669  -19.6237   17.1214 O   0  0  0  0  0  0  0  0  0  0  0  0
    7.7686  -16.8812   19.8082 C   0  0  0  0  0  0  0  0  0  0  0  0
    6.5741  -16.7369   19.4801 O   0  0  0  0  0  0  0  0  0  0  0  0
    9.6479  -20.8311   18.9986 O   0  0  0  0  0  0  0  0  0  0  0  0
    8.2627  -16.4338   21.0638 N   0  0  0  0  0  0  0  0  0  0  0  0
    7.3883  -15.8373   22.0500 C   0  0  0  0  0  0  0  0  0  0  0  0
    8.1346  -15.3998   23.2478 C   0  0  0  0  0  0  0  0  0  0  0  0
    9.3823  -15.6198   23.3905 O   0  0  0  0  0  0  0  0  0  0  0  0
    5.5850  -11.5550   26.2040 C   0  0  0  0  0  0  0  0  0  0  0  0
    6.5635  -12.3589   25.3875 C   0  0  0  0  0  0  0  0  0  0  0  0
    7.2953  -13.3375   26.2734 C   0  0  2  0  0  0  0  0  0  0  0  0
    8.0253  -12.6223   27.3647 C   0  0  0  0  0  0  0  0  0  0  0  0
    8.2103  -14.2027   25.4212 C   0  0  2  0  0  0  0  0  0  0  0  0
    7.4792  -14.7169   24.2820 N   0  0  0  0  0  0  0  0  0  0  0  0
    8.6390  -15.3391   26.2727 C   0  0  0  0  0  0  0  0  0  0  0  0
    7.8746  -16.2996   26.4944 O   0  0  0  0  0  0  0  0  0  0  0  0
    9.9028  -15.3472   26.8360 O   0  0  0  0  0  0  0  0  0  0  0  0
  2  1  1  1
  2  3  1  0
  3  4  1  0
  4  5  2  0
  4  8  1  0
  6  7  2  0
  6  2  1  0
  9  6  1  0
 10  9  1  0
 11 10  1  0
 11 18  1  0
 12 11  2  0
 13 14  1  0
 15 16  1  1
 15 14  1  0
 17 18  1  6
 17 15  1  0
 19 17  1  0
 20 19  2  0
 21 19  1  0
M  END
$$$$
