DGI.pdb
     RDKit          3D

 21 20  0  0  1  0  0  0  0  0999 V2000
    8.7196  -18.6979   19.7383 N   0  0  0  0  0  0  0  0  0  0  0  0
    9.2099  -17.3799   19.4867 C   0  0  1  0  0  0  0  0  0  0  0  0
    9.0301  -17.0208   18.0424 C   0  0  0  0  0  0  0  0  0  0  0  0
    9.9508  -17.8318   17.2138 C   0  0  0  0  0  0  0  0  0  0  0  0
    9.5886  -18.5916   16.2902 O   0  0  0  0  0  0  0  0  0  0  0  0
    8.5921  -16.3573   20.3731 C   0  0  0  0  0  0  0  0  0  0  0  0
    9.0421  -15.1946   20.3406 O   0  0  0  0  0  0  0  0  0  0  0  0
   11.3204  -17.7387   17.4865 O   0  0  0  0  0  0  0  0  0  0  0  0
    7.5161  -16.7235   21.2269 N   0  0  0  0  0  0  0  0  0  0  0  0
    6.9452  -15.7839   22.1671 C   0  0  0  0  0  0  0  0  0  0  0  0
    7.8546  -15.5279   23.3032 C   0  0  0  0  0  0  0  0  0  0  0  0
    9.1032  -15.7792   23.2458 O   0  0  0  0  0  0  0  0  0  0  0  0
    5.8024  -11.5008   26.1883 C   0  0  0  0  0  0  0  0  0  0  0  0
    6.7321  -12.3701   25.3819 C   0  0  0  0  0  0  0  0  0  0  0  0
    7.4427  -13.3465   26.2871 C   0  0  2  0  0  0  0  0  0  0  0  0
    8.2878  -12.6248   27.2871 C   0  0  0  0  0  0  0  0  0  0  0  0
    8.2387  -14.3294   25.4430 C   0  0  2  0  0  0  0  0  0  0  0  0
    7.3608  -14.9906   24.5002 N   0  0  0  0  0  0  0  0  0  0  0  0
    8.7955  -15.3402   26.3751 C   0  0  0  0  0  0  0  0  0  0  0  0
    9.9706  -15.2571   26.7850 O   0  0  0  0  0  0  0  0  0  0  0  0
    8.0111  -16.3960   26.8044 O   0  0  0  0  0  0  0  0  0  0  0  0
  2  1  1  6
  2  3  1  0
  3  4  1  0
  4  5  2  0
  4  8  1  0
  6  7  2  0
  6  2  1  0
  9  6  1  0
 10  9  1  0
 11 10  1  0
 11 18  1  0
 12 11  2  0
 13 14  1  0
 15 16  1  1
 15 14  1  0
 17 18  1  6
 17 15  1  0
 19 17  1  0
 20 19  2  0
 21 19  1  0
M  END
$$$$
