DGI.pdb
     RDKit          3D

 21 20  0  0  1  0  0  0  0  0999 V2000
    7.9978  -18.2321   20.5507 N   0  0  0  0  0  0  0  0  0  0  0  0
    9.0030  -17.2582   20.2640 C   0  0  1  0  0  0  0  0  0  0  0  0
    8.5026  -16.2705   19.2534 C   0  0  0  0  0  0  0  0  0  0  0  0
    8.3568  -16.9388   17.9403 C   0  0  0  0  0  0  0  0  0  0  0  0
    9.3103  -17.3528   17.2470 O   0  0  0  0  0  0  0  0  0  0  0  0
    9.5009  -16.5690   21.4847 C   0  0  0  0  0  0  0  0  0  0  0  0
   10.2863  -15.6102   21.3456 O   0  0  0  0  0  0  0  0  0  0  0  0
    7.0602  -17.1175   17.4444 O   0  0  0  0  0  0  0  0  0  0  0  0
    9.0758  -17.0129   22.7665 N   0  0  0  0  0  0  0  0  0  0  0  0
   10.0259  -17.3039   23.8179 C   0  0  0  0  0  0  0  0  0  0  0  0
   10.1117  -16.2004   24.7968 C   0  0  0  0  0  0  0  0  0  0  0  0
   11.0871  -16.0859   25.6098 O   0  0  0  0  0  0  0  0  0  0  0  0
    5.6861  -12.6859   26.2224 C   0  0  0  0  0  0  0  0  0  0  0  0
    6.7367  -13.7604   26.1135 C   0  0  0  0  0  0  0  0  0  0  0  0
    8.0215  -13.1755   25.5795 C   0  0  2  0  0  0  0  0  0  0  0  0
    7.8777  -12.8057   24.1381 C   0  0  0  0  0  0  0  0  0  0  0  0
    9.1611  -14.1514   25.8265 C   0  0  2  0  0  0  0  0  0  0  0  0
    9.1032  -15.2288   24.8608 N   0  0  0  0  0  0  0  0  0  0  0  0
    8.9585  -14.7099   27.1858 C   0  0  0  0  0  0  0  0  0  0  0  0
    9.2626  -14.0531   28.2017 O   0  0  0  0  0  0  0  0  0  0  0  0
    8.4254  -15.9769   27.3440 O   0  0  0  0  0  0  0  0  0  0  0  0
  2  1  1  1
  2  3  1  0
  3  4  1  0
  4  5  2  0
  4  8  1  0
  6  7  2  0
  6  2  1  0
  9  6  1  0
 10  9  1  0
 11 10  1  0
 11 18  1  0
 12 11  2  0
 13 14  1  0
 15 16  1  6
 15 14  1  0
 17 18  1  6
 17 15  1  0
 19 17  1  0
 20 19  2  0
 21 19  1  0
M  END
$$$$
