DGI.pdb
     RDKit          3D

 21 20  0  0  1  0  0  0  0  0999 V2000
    6.8945  -17.3371   21.2306 N   0  0  0  0  0  0  0  0  0  0  0  0
    7.9869  -17.8116   20.4416 C   0  0  1  0  0  0  0  0  0  0  0  0
    7.7396  -17.5415   18.9879 C   0  0  0  0  0  0  0  0  0  0  0  0
    6.7344  -18.4982   18.4722 C   0  0  0  0  0  0  0  0  0  0  0  0
    6.4145  -19.5640   19.0407 O   0  0  0  0  0  0  0  0  0  0  0  0
    9.2952  -17.2516   20.8748 C   0  0  0  0  0  0  0  0  0  0  0  0
   10.3293  -17.6492   20.3021 O   0  0  0  0  0  0  0  0  0  0  0  0
    6.1006  -18.1842   17.2644 O   0  0  0  0  0  0  0  0  0  0  0  0
    9.3373  -16.2877   21.9189 N   0  0  0  0  0  0  0  0  0  0  0  0
   10.5853  -15.6977   22.3516 C   0  0  0  0  0  0  0  0  0  0  0  0
   10.4773  -15.1280   23.7107 C   0  0  0  0  0  0  0  0  0  0  0  0
   11.4832  -14.6476   24.3294 O   0  0  0  0  0  0  0  0  0  0  0  0
    6.2044  -12.3223   24.7804 C   0  0  0  0  0  0  0  0  0  0  0  0
    7.5834  -12.9261   24.7159 C   0  0  0  0  0  0  0  0  0  0  0  0
    7.7929  -13.8629   25.8805 C   0  0  2  0  0  0  0  0  0  0  0  0
    7.6846  -13.1287   27.1784 C   0  0  0  0  0  0  0  0  0  0  0  0
    9.1241  -14.5796   25.7183 C   0  0  2  0  0  0  0  0  0  0  0  0
    9.2414  -15.0990   24.3718 N   0  0  0  0  0  0  0  0  0  0  0  0
    9.1183  -15.7137   26.6745 C   0  0  0  0  0  0  0  0  0  0  0  0
    9.4626  -15.5534   27.8627 O   0  0  0  0  0  0  0  0  0  0  0  0
    8.7275  -16.9733   26.2561 O   0  0  0  0  0  0  0  0  0  0  0  0
  2  1  1  1
  2  3  1  0
  3  4  1  0
  4  5  2  0
  4  8  1  0
  6  7  2  0
  6  2  1  0
  9  6  1  0
 10  9  1  0
 11 10  1  0
 11 18  1  0
 12 11  2  0
 13 14  1  0
 15 16  1  1
 15 14  1  0
 17 18  1  6
 17 15  1  0
 19 17  1  0
 20 19  2  0
 21 19  1  0
M  END
$$$$
