DGI.pdb
     RDKit          3D

 21 20  0  0  1  0  0  0  0  0999 V2000
    9.7879  -17.7906   19.4481 N   0  0  0  0  0  0  0  0  0  0  0  0
    8.4864  -17.5591   18.9063 C   0  0  1  0  0  0  0  0  0  0  0  0
    7.8198  -18.8591   18.5703 C   0  0  0  0  0  0  0  0  0  0  0  0
    8.4498  -19.4392   17.3627 C   0  0  0  0  0  0  0  0  0  0  0  0
    9.5506  -19.0772   16.8952 O   0  0  0  0  0  0  0  0  0  0  0  0
    7.6299  -16.7338   19.7997 C   0  0  0  0  0  0  0  0  0  0  0  0
    6.4991  -16.3991   19.3938 O   0  0  0  0  0  0  0  0  0  0  0  0
    7.7623  -20.4635   16.7015 O   0  0  0  0  0  0  0  0  0  0  0  0
    8.1132  -16.3496   21.0802 N   0  0  0  0  0  0  0  0  0  0  0  0
    7.2734  -15.6440   22.0234 C   0  0  0  0  0  0  0  0  0  0  0  0
    7.9924  -15.3493   23.2802 C   0  0  0  0  0  0  0  0  0  0  0  0
    9.1602  -15.8019   23.5186 O   0  0  0  0  0  0  0  0  0  0  0  0
    5.6296  -11.4687   26.4033 C   0  0  0  0  0  0  0  0  0  0  0  0
    6.5926  -12.2604   25.5571 C   0  0  0  0  0  0  0  0  0  0  0  0
    7.2183  -13.3615   26.3782 C   0  0  2  0  0  0  0  0  0  0  0  0
    7.9508  -12.7968   27.5528 C   0  0  0  0  0  0  0  0  0  0  0  0
    8.1053  -14.2147   25.4853 C   0  0  2  0  0  0  0  0  0  0  0  0
    7.3993  -14.5478   24.2658 N   0  0  0  0  0  0  0  0  0  0  0  0
    8.3911  -15.4629   26.2341 C   0  0  0  0  0  0  0  0  0  0  0  0
    7.5407  -16.3719   26.3154 O   0  0  0  0  0  0  0  0  0  0  0  0
    9.6147  -15.6350   26.8566 O   0  0  0  0  0  0  0  0  0  0  0  0
  2  1  1  1
  2  3  1  0
  3  4  1  0
  4  5  2  0
  4  8  1  0
  6  7  2  0
  6  2  1  0
  9  6  1  0
 10  9  1  0
 11 10  1  0
 11 18  1  0
 12 11  2  0
 13 14  1  0
 15 16  1  1
 15 14  1  0
 17 18  1  6
 17 15  1  0
 19 17  1  0
 20 19  2  0
 21 19  1  0
M  END
$$$$
