DGI.pdb
     RDKit          3D

 21 20  0  0  1  0  0  0  0  0999 V2000
    9.3945  -16.3093   19.7838 N   0  0  0  0  0  0  0  0  0  0  0  0
    8.0475  -16.2588   20.2574 C   0  0  1  0  0  0  0  0  0  0  0  0
    7.1927  -17.2388   19.5117 C   0  0  0  0  0  0  0  0  0  0  0  0
    7.6293  -17.2991   18.0983 C   0  0  0  0  0  0  0  0  0  0  0  0
    7.3584  -16.4358   17.2364 O   0  0  0  0  0  0  0  0  0  0  0  0
    7.9460  -16.4696   21.7265 C   0  0  0  0  0  0  0  0  0  0  0  0
    6.8828  -16.1567   22.2984 O   0  0  0  0  0  0  0  0  0  0  0  0
    8.3981  -18.4001   17.7037 O   0  0  0  0  0  0  0  0  0  0  0  0
    9.0492  -17.0164   22.4370 N   0  0  0  0  0  0  0  0  0  0  0  0
    8.9802  -17.2693   23.8597 C   0  0  0  0  0  0  0  0  0  0  0  0
    9.4136  -16.0947   24.6445 C   0  0  0  0  0  0  0  0  0  0  0  0
   10.5791  -15.5909   24.5287 O   0  0  0  0  0  0  0  0  0  0  0  0
    5.7252  -12.4341   25.9735 C   0  0  0  0  0  0  0  0  0  0  0  0
    6.9690  -13.1851   25.5746 C   0  0  0  0  0  0  0  0  0  0  0  0
    7.7695  -13.5490   26.8012 C   0  0  2  0  0  0  0  0  0  0  0  0
    8.1525  -12.3238   27.5677 C   0  0  0  0  0  0  0  0  0  0  0  0
    8.9704  -14.3861   26.3899 C   0  0  2  0  0  0  0  0  0  0  0  0
    8.5384  -15.4887   25.5568 N   0  0  0  0  0  0  0  0  0  0  0  0
    9.5621  -14.9269   27.6381 C   0  0  0  0  0  0  0  0  0  0  0  0
   10.2776  -14.2146   28.3706 O   0  0  0  0  0  0  0  0  0  0  0  0
    9.3252  -16.2391   28.0075 O   0  0  0  0  0  0  0  0  0  0  0  0
  2  1  1  6
  2  3  1  0
  3  4  1  0
  4  5  2  0
  4  8  1  0
  6  7  2  0
  6  2  1  0
  9  6  1  0
 10  9  1  0
 11 10  1  0
 11 18  1  0
 12 11  2  0
 13 14  1  0
 15 16  1  6
 15 14  1  0
 17 18  1  6
 17 15  1  0
 19 17  1  0
 20 19  2  0
 21 19  1  0
M  END
$$$$
