DGI.pdb
     RDKit          3D

 21 20  0  0  1  0  0  0  0  0999 V2000
    9.1415  -17.2461   18.8084 N   0  0  0  0  0  0  0  0  0  0  0  0
    9.3728  -18.0563   19.9622 C   0  0  1  0  0  0  0  0  0  0  0  0
   10.8434  -18.2397   20.1876 C   0  0  0  0  0  0  0  0  0  0  0  0
   11.4446  -18.9029   19.0083 C   0  0  0  0  0  0  0  0  0  0  0  0
   10.8116  -19.6073   18.1931 O   0  0  0  0  0  0  0  0  0  0  0  0
    8.7069  -17.5243   21.1814 C   0  0  0  0  0  0  0  0  0  0  0  0
    8.7436  -18.2085   22.2235 O   0  0  0  0  0  0  0  0  0  0  0  0
   12.8165  -18.7267   18.7948 O   0  0  0  0  0  0  0  0  0  0  0  0
    8.0517  -16.2637   21.1324 N   0  0  0  0  0  0  0  0  0  0  0  0
    7.2234  -15.8006   22.2243 C   0  0  0  0  0  0  0  0  0  0  0  0
    8.0366  -15.3156   23.3586 C   0  0  0  0  0  0  0  0  0  0  0  0
    9.3112  -15.3124   23.3303 O   0  0  0  0  0  0  0  0  0  0  0  0
    5.7048  -11.4480   26.2734 C   0  0  0  0  0  0  0  0  0  0  0  0
    6.6438  -12.3288   25.4907 C   0  0  0  0  0  0  0  0  0  0  0  0
    7.3183  -13.3146   26.4133 C   0  0  2  0  0  0  0  0  0  0  0  0
    8.0772  -12.6031   27.4871 C   0  0  0  0  0  0  0  0  0  0  0  0
    8.1929  -14.2529   25.5966 C   0  0  2  0  0  0  0  0  0  0  0  0
    7.4177  -14.8355   24.5213 N   0  0  0  0  0  0  0  0  0  0  0  0
    8.6342  -15.3323   26.5135 C   0  0  0  0  0  0  0  0  0  0  0  0
    7.9010  -16.3132   26.7504 O   0  0  0  0  0  0  0  0  0  0  0  0
    9.8749  -15.2629   27.1220 O   0  0  0  0  0  0  0  0  0  0  0  0
  2  1  1  6
  2  3  1  0
  3  4  1  0
  4  5  2  0
  4  8  1  0
  6  7  2  0
  6  2  1  0
  9  6  1  0
 10  9  1  0
 11 10  1  0
 11 18  1  0
 12 11  2  0
 13 14  1  0
 15 16  1  1
 15 14  1  0
 17 18  1  6
 17 15  1  0
 19 17  1  0
 20 19  2  0
 21 19  1  0
M  END
$$$$
