DGI.pdb
     RDKit          3D

 21 20  0  0  1  0  0  0  0  0999 V2000
    7.8356  -19.6282   20.9266 N   0  0  0  0  0  0  0  0  0  0  0  0
    6.4098  -19.6695   21.0074 C   0  0  1  0  0  0  0  0  0  0  0  0
    5.9318  -21.0864   21.1130 C   0  0  0  0  0  0  0  0  0  0  0  0
    6.5868  -21.9074   20.0695 C   0  0  0  0  0  0  0  0  0  0  0  0
    6.4920  -21.6984   18.8412 O   0  0  0  0  0  0  0  0  0  0  0  0
    5.8723  -18.8393   22.1186 C   0  0  0  0  0  0  0  0  0  0  0  0
    4.6605  -18.9350   22.3978 O   0  0  0  0  0  0  0  0  0  0  0  0
    7.3650  -22.9915   20.4913 O   0  0  0  0  0  0  0  0  0  0  0  0
    6.7408  -17.9662   22.8287 N   0  0  0  0  0  0  0  0  0  0  0  0
    6.2720  -17.1848   23.9523 C   0  0  0  0  0  0  0  0  0  0  0  0
    7.3543  -16.3666   24.5375 C   0  0  0  0  0  0  0  0  0  0  0  0
    8.5520  -16.4104   24.1027 O   0  0  0  0  0  0  0  0  0  0  0  0
    5.6666  -11.7545   26.6512 C   0  0  0  0  0  0  0  0  0  0  0  0
    6.3608  -12.8959   25.9543 C   0  0  0  0  0  0  0  0  0  0  0  0
    7.4733  -13.4320   26.8219 C   0  0  2  0  0  0  0  0  0  0  0  0
    8.4564  -12.3545   27.1503 C   0  0  0  0  0  0  0  0  0  0  0  0
    8.1164  -14.6272   26.1363 C   0  0  2  0  0  0  0  0  0  0  0  0
    7.0899  -15.5016   25.6086 N   0  0  0  0  0  0  0  0  0  0  0  0
    8.8829  -15.3554   27.1768 C   0  0  0  0  0  0  0  0  0  0  0  0
    8.3395  -16.2307   27.8799 O   0  0  0  0  0  0  0  0  0  0  0  0
   10.2212  -15.0696   27.3814 O   0  0  0  0  0  0  0  0  0  0  0  0
  2  1  1  1
  2  3  1  0
  3  4  1  0
  4  5  2  0
  4  8  1  0
  6  7  2  0
  6  2  1  0
  9  6  1  0
 10  9  1  0
 11 10  1  0
 11 18  1  0
 12 11  2  0
 13 14  1  0
 15 16  1  6
 15 14  1  0
 17 18  1  1
 17 15  1  0
 19 17  1  0
 20 19  2  0
 21 19  1  0
M  END
$$$$
