DGI.pdb
     RDKit          3D

 21 20  0  0  1  0  0  0  0  0999 V2000
    4.3544  -19.7519   21.8314 N   0  0  0  0  0  0  0  0  0  0  0  0
    4.0268  -18.4251   21.4150 C   0  0  1  0  0  0  0  0  0  0  0  0
    2.5472  -18.2886   21.2158 C   0  0  0  0  0  0  0  0  0  0  0  0
    2.0102  -19.5394   20.6335 C   0  0  0  0  0  0  0  0  0  0  0  0
    2.6088  -20.6363   20.6377 O   0  0  0  0  0  0  0  0  0  0  0  0
    4.5389  -17.3862   22.3486 C   0  0  0  0  0  0  0  0  0  0  0  0
    4.4684  -16.1904   22.0016 O   0  0  0  0  0  0  0  0  0  0  0  0
    0.7446  -19.4861   20.0382 O   0  0  0  0  0  0  0  0  0  0  0  0
    5.0905  -17.7747   23.5999 N   0  0  0  0  0  0  0  0  0  0  0  0
    6.5156  -17.9516   23.7743 C   0  0  0  0  0  0  0  0  0  0  0  0
    7.2043  -16.6611   23.9830 C   0  0  0  0  0  0  0  0  0  0  0  0
    7.9418  -16.1305   23.0885 O   0  0  0  0  0  0  0  0  0  0  0  0
    5.9134  -12.1073   26.4797 C   0  0  0  0  0  0  0  0  0  0  0  0
    6.5601  -13.1954   25.6623 C   0  0  0  0  0  0  0  0  0  0  0  0
    7.5202  -13.9845   26.5186 C   0  0  2  0  0  0  0  0  0  0  0  0
    8.5584  -13.0892   27.1151 C   0  0  0  0  0  0  0  0  0  0  0  0
    8.1190  -15.1142   25.6955 C   0  0  2  0  0  0  0  0  0  0  0  0
    7.0636  -15.9695   25.1943 N   0  0  0  0  0  0  0  0  0  0  0  0
    8.9827  -15.8990   26.6113 C   0  0  0  0  0  0  0  0  0  0  0  0
    8.4965  -16.7593   27.3725 O   0  0  0  0  0  0  0  0  0  0  0  0
   10.3493  -15.6842   26.6319 O   0  0  0  0  0  0  0  0  0  0  0  0
  2  1  1  1
  2  3  1  0
  3  4  1  0
  4  5  2  0
  4  8  1  0
  6  7  2  0
  6  2  1  0
  9  6  1  0
 10  9  1  0
 11 10  1  0
 11 18  1  0
 12 11  2  0
 13 14  1  0
 15 16  1  6
 15 14  1  0
 17 18  1  1
 17 15  1  0
 19 17  1  0
 20 19  2  0
 21 19  1  0
M  END
$$$$
