DGI.pdb
     RDKit          3D

 21 20  0  0  1  0  0  0  0  0999 V2000
    8.8840  -19.0971   20.1772 N   0  0  0  0  0  0  0  0  0  0  0  0
    9.2864  -17.8113   19.7018 C   0  0  1  0  0  0  0  0  0  0  0  0
    8.9267  -17.6513   18.2553 C   0  0  0  0  0  0  0  0  0  0  0  0
   10.1261  -17.8861   17.4197 C   0  0  0  0  0  0  0  0  0  0  0  0
   11.0667  -18.6480   17.7297 O   0  0  0  0  0  0  0  0  0  0  0  0
    8.7323  -16.6973   20.5173 C   0  0  0  0  0  0  0  0  0  0  0  0
    9.1640  -15.5444   20.3174 O   0  0  0  0  0  0  0  0  0  0  0  0
   10.2087  -17.2063   16.1990 O   0  0  0  0  0  0  0  0  0  0  0  0
    7.7356  -16.9680   21.4941 N   0  0  0  0  0  0  0  0  0  0  0  0
    7.0994  -15.9032   22.2385 C   0  0  0  0  0  0  0  0  0  0  0  0
    7.9498  -15.4313   23.3510 C   0  0  0  0  0  0  0  0  0  0  0  0
    9.2194  -15.5469   23.3338 O   0  0  0  0  0  0  0  0  0  0  0  0
    5.5322  -11.6253   26.2920 C   0  0  0  0  0  0  0  0  0  0  0  0
    6.5472  -12.3825   25.4755 C   0  0  0  0  0  0  0  0  0  0  0  0
    7.3463  -13.3018   26.3668 C   0  0  2  0  0  0  0  0  0  0  0  0
    8.1570  -12.5173   27.3479 C   0  0  0  0  0  0  0  0  0  0  0  0
    8.1943  -14.2261   25.5073 C   0  0  2  0  0  0  0  0  0  0  0  0
    7.3736  -14.8313   24.4794 N   0  0  0  0  0  0  0  0  0  0  0  0
    8.7087  -15.2904   26.4034 C   0  0  0  0  0  0  0  0  0  0  0  0
    7.9973  -16.2663   26.7156 O   0  0  0  0  0  0  0  0  0  0  0  0
    9.9948  -15.2126   26.9078 O   0  0  0  0  0  0  0  0  0  0  0  0
  2  1  1  1
  2  3  1  0
  3  4  1  0
  4  5  2  0
  4  8  1  0
  6  7  2  0
  6  2  1  0
  9  6  1  0
 10  9  1  0
 11 10  1  0
 11 18  1  0
 12 11  2  0
 13 14  1  0
 15 16  1  1
 15 14  1  0
 17 18  1  6
 17 15  1  0
 19 17  1  0
 20 19  2  0
 21 19  1  0
M  END
$$$$
