DGI.pdb
     RDKit          3D

 21 20  0  0  1  0  0  0  0  0999 V2000
   10.1341  -18.2902   20.1514 N   0  0  0  0  0  0  0  0  0  0  0  0
    9.5571  -17.1775   19.4659 C   0  0  1  0  0  0  0  0  0  0  0  0
    8.6628  -17.6501   18.3595 C   0  0  0  0  0  0  0  0  0  0  0  0
    9.4087  -17.6337   17.0807 C   0  0  0  0  0  0  0  0  0  0  0  0
    9.2726  -16.7650   16.1929 O   0  0  0  0  0  0  0  0  0  0  0  0
    8.8350  -16.2510   20.3787 C   0  0  0  0  0  0  0  0  0  0  0  0
    8.9481  -15.0235   20.1887 O   0  0  0  0  0  0  0  0  0  0  0  0
   10.3289  -18.6636   16.8539 O   0  0  0  0  0  0  0  0  0  0  0  0
    8.0421  -16.7785   21.4340 N   0  0  0  0  0  0  0  0  0  0  0  0
    7.2618  -15.9169   22.2952 C   0  0  0  0  0  0  0  0  0  0  0  0
    8.0513  -15.4386   23.4489 C   0  0  0  0  0  0  0  0  0  0  0  0
    9.2802  -15.7402   23.6049 O   0  0  0  0  0  0  0  0  0  0  0  0
    5.6936  -11.9405   27.3558 C   0  0  0  0  0  0  0  0  0  0  0  0
    6.2257  -13.1020   26.5570 C   0  0  0  0  0  0  0  0  0  0  0  0
    7.5721  -12.7532   25.9710 C   0  0  2  0  0  0  0  0  0  0  0  0
    7.4336  -11.7164   24.9028 C   0  0  0  0  0  0  0  0  0  0  0  0
    8.2510  -14.0210   25.4770 C   0  0  2  0  0  0  0  0  0  0  0  0
    7.4600  -14.6235   24.4243 N   0  0  0  0  0  0  0  0  0  0  0  0
    8.3090  -14.9520   26.6304 C   0  0  0  0  0  0  0  0  0  0  0  0
    7.5259  -15.9193   26.7148 O   0  0  0  0  0  0  0  0  0  0  0  0
    9.2403  -14.7567   27.6348 O   0  0  0  0  0  0  0  0  0  0  0  0
  2  1  1  1
  2  3  1  0
  3  4  1  0
  4  5  2  0
  4  8  1  0
  6  7  2  0
  6  2  1  0
  9  6  1  0
 10  9  1  0
 11 10  1  0
 11 18  1  0
 12 11  2  0
 13 14  1  0
 15 16  1  6
 15 14  1  0
 17 18  1  6
 17 15  1  0
 19 17  1  0
 20 19  2  0
 21 19  1  0
M  END
$$$$
