DGI.pdb
     RDKit          3D

 21 20  0  0  1  0  0  0  0  0999 V2000
    9.9109  -16.8520   18.9336 N   0  0  0  0  0  0  0  0  0  0  0  0
    8.5481  -16.9786   18.5240 C   0  0  1  0  0  0  0  0  0  0  0  0
    8.2222  -18.4105   18.2231 C   0  0  0  0  0  0  0  0  0  0  0  0
    9.2502  -19.2882   18.8271 C   0  0  0  0  0  0  0  0  0  0  0  0
   10.1245  -18.9037   19.6328 O   0  0  0  0  0  0  0  0  0  0  0  0
    7.5946  -16.4096   19.5141 C   0  0  0  0  0  0  0  0  0  0  0  0
    6.3927  -16.3169   19.1944 O   0  0  0  0  0  0  0  0  0  0  0  0
    9.2392  -20.6411   18.4687 O   0  0  0  0  0  0  0  0  0  0  0  0
    8.0687  -15.9893   20.7867 N   0  0  0  0  0  0  0  0  0  0  0  0
    7.1570  -15.6205   21.8476 C   0  0  0  0  0  0  0  0  0  0  0  0
    7.8785  -15.2458   23.0815 C   0  0  0  0  0  0  0  0  0  0  0  0
    9.1424  -15.0803   23.1075 O   0  0  0  0  0  0  0  0  0  0  0  0
    5.5150  -11.6633   26.0722 C   0  0  0  0  0  0  0  0  0  0  0  0
    6.4272  -12.6000   25.3234 C   0  0  0  0  0  0  0  0  0  0  0  0
    6.9600  -13.6596   26.2569 C   0  0  2  0  0  0  0  0  0  0  0  0
    7.6499  -13.0370   27.4280 C   0  0  0  0  0  0  0  0  0  0  0  0
    7.8581  -14.6102   25.4811 C   0  0  2  0  0  0  0  0  0  0  0  0
    7.1802  -15.0581   24.2825 N   0  0  0  0  0  0  0  0  0  0  0  0
    8.1055  -15.7784   26.3611 C   0  0  0  0  0  0  0  0  0  0  0  0
    7.2484  -16.6747   26.4944 O   0  0  0  0  0  0  0  0  0  0  0  0
    9.3002  -15.8884   27.0503 O   0  0  0  0  0  0  0  0  0  0  0  0
  2  1  1  1
  2  3  1  0
  3  4  1  0
  4  5  2  0
  4  8  1  0
  6  7  2  0
  6  2  1  0
  9  6  1  0
 10  9  1  0
 11 10  1  0
 11 18  1  0
 12 11  2  0
 13 14  1  0
 15 16  1  1
 15 14  1  0
 17 18  1  6
 17 15  1  0
 19 17  1  0
 20 19  2  0
 21 19  1  0
M  END
$$$$
