MCP.pdb
     RDKit          3D

 22 22  0  0  1  0  0  0  0  0999 V2000
   18.0476  -15.0617  -21.5733 C   0  0  0  0  0  0  0  0  0  0  0  0
   18.1896  -14.3618  -19.9078 S   0  0  0  0  0  0  0  0  0  0  0  0
   19.4994  -13.1136  -19.8341 C   0  0  0  0  0  0  0  0  0  0  0  0
   19.5815  -12.4782  -18.4521 C   0  0  0  0  0  0  0  0  0  0  0  0
   20.7695  -11.5460  -18.4806 C   0  0  2  0  0  0  0  0  0  0  0  0
   21.9523  -12.3750  -18.5733 N   0  0  0  0  0  0  0  0  0  0  0  0
   20.8650  -10.6873  -17.3026 C   0  0  0  0  0  0  0  0  0  0  0  0
   19.8141  -10.1527  -16.8624 O   0  0  0  0  0  0  0  0  0  0  0  0
   22.0386  -10.3943  -16.5994 N   0  0  0  0  0  0  0  0  0  0  0  0
   22.0441   -9.5426  -15.4318 C   0  0  1  0  0  0  0  0  0  0  0  0
   23.2986   -9.7122  -14.6199 C   0  0  0  0  0  0  0  0  0  0  0  0
   23.3227  -11.3874  -13.8611 S   0  0  0  0  0  0  0  0  0  0  0  0
   21.9141   -8.1187  -15.8092 C   0  0  0  0  0  0  0  0  0  0  0  0
   22.4182   -7.8043  -16.9445 O   0  0  0  0  0  0  0  0  0  0  0  0
   21.2849   -7.1703  -14.9943 N   0  0  0  0  0  0  0  0  0  0  0  0
   20.6959   -7.2989  -13.6965 C   0  0  0  0  0  0  0  0  0  0  0  0
   19.5414   -6.2775  -13.6743 C   0  0  0  0  0  0  0  0  0  0  0  0
   19.6364   -5.5805  -15.0134 C   0  0  0  0  0  0  0  0  0  0  0  0
   21.0980   -5.7736  -15.3598 C   0  0  1  0  0  0  0  0  0  0  0  0
   21.8886   -4.8466  -14.5311 C   0  0  0  0  0  0  0  0  0  0  0  0
   22.4423   -5.3254  -13.5001 O   0  0  0  0  0  0  0  0  0  0  0  0
   22.0840   -3.5083  -14.7688 O   0  0  0  0  0  0  0  0  0  0  0  0
  2  1  1  0
  3  4  1  0
  3  2  1  0
  4  5  1  0
  5  7  1  0
  5  6  1  1
  7  8  2  0
  9  7  1  0
  9 10  1  0
 10 13  1  0
 10 11  1  6
 12 11  1  0
 13 14  2  0
 13 15  1  0
 15 16  1  0
 16 17  1  0
 18 17  1  0
 19 15  1  0
 19 18  1  0
 19 20  1  1
 21 20  2  0
 22 20  1  0
M  END
$$$$
