MCP.pdb
     RDKit          3D

 22 22  0  0  1  0  0  0  0  0999 V2000
   21.3548  -25.0298  -15.4212 C   0  0  0  0  0  0  0  0  0  0  0  0
   19.7565  -24.2144  -15.1676 S   0  0  0  0  0  0  0  0  0  0  0  0
   19.8838  -22.9006  -13.9279 C   0  0  0  0  0  0  0  0  0  0  0  0
   21.1571  -22.0853  -14.1140 C   0  0  0  0  0  0  0  0  0  0  0  0
   21.3310  -21.2716  -12.8536 C   0  0  2  0  0  0  0  0  0  0  0  0
   20.2825  -20.2740  -12.8491 N   0  0  0  0  0  0  0  0  0  0  0  0
   22.6323  -20.6141  -12.7593 C   0  0  0  0  0  0  0  0  0  0  0  0
   22.7546  -19.4539  -13.2315 O   0  0  0  0  0  0  0  0  0  0  0  0
   23.7831  -21.1615  -12.1815 N   0  0  0  0  0  0  0  0  0  0  0  0
   25.0977  -20.6063  -12.4099 C   0  0  1  0  0  0  0  0  0  0  0  0
   26.1233  -21.1923  -11.4791 C   0  0  0  0  0  0  0  0  0  0  0  0
   25.6377  -20.8618   -9.7362 S   0  0  0  0  0  0  0  0  0  0  0  0
   25.5387  -20.8338  -13.8029 C   0  0  0  0  0  0  0  0  0  0  0  0
   24.8712  -21.7141  -14.4522 O   0  0  0  0  0  0  0  0  0  0  0  0
   26.6070  -20.1418  -14.3851 N   0  0  0  0  0  0  0  0  0  0  0  0
   27.6069  -19.3036  -13.7974 C   0  0  0  0  0  0  0  0  0  0  0  0
   27.9437  -18.2580  -14.8791 C   0  0  0  0  0  0  0  0  0  0  0  0
   27.1040  -18.6698  -16.0679 C   0  0  0  0  0  0  0  0  0  0  0  0
   26.9064  -20.1489  -15.8098 C   0  0  1  0  0  0  0  0  0  0  0  0
   28.1668  -20.8400  -16.1338 C   0  0  0  0  0  0  0  0  0  0  0  0
   28.5562  -20.7937  -17.3359 O   0  0  0  0  0  0  0  0  0  0  0  0
   28.9634  -21.5326  -15.2555 O   0  0  0  0  0  0  0  0  0  0  0  0
  2  1  1  0
  3  4  1  0
  3  2  1  0
  4  5  1  0
  5  7  1  0
  5  6  1  6
  7  8  2  0
  9  7  1  0
  9 10  1  0
 10 13  1  0
 10 11  1  1
 12 11  1  0
 13 14  2  0
 13 15  1  0
 15 16  1  0
 16 17  1  0
 18 17  1  0
 19 15  1  0
 19 18  1  0
 19 20  1  1
 21 20  2  0
 22 20  1  0
M  END
$$$$
