MCP.pdb
     RDKit          3D

 22 22  0  0  1  0  0  0  0  0999 V2000
   19.3273  -33.9063  -16.6595 C   0  0  0  0  0  0  0  0  0  0  0  0
   18.1037  -33.4682  -15.3967 S   0  0  0  0  0  0  0  0  0  0  0  0
   18.7623  -32.2290  -14.2523 C   0  0  0  0  0  0  0  0  0  0  0  0
   20.2663  -32.3879  -14.0697 C   0  0  0  0  0  0  0  0  0  0  0  0
   20.6545  -31.4872  -12.9212 C   0  0  2  0  0  0  0  0  0  0  0  0
   21.0911  -30.2339  -13.4987 N   0  0  0  0  0  0  0  0  0  0  0  0
   21.7177  -32.0366  -12.0833 C   0  0  0  0  0  0  0  0  0  0  0  0
   22.8825  -32.0999  -12.5557 O   0  0  0  0  0  0  0  0  0  0  0  0
   21.5636  -32.5105  -10.7759 N   0  0  0  0  0  0  0  0  0  0  0  0
   22.6864  -32.6839   -9.8827 C   0  0  1  0  0  0  0  0  0  0  0  0
   23.5102  -31.4309   -9.7676 C   0  0  0  0  0  0  0  0  0  0  0  0
   24.9742  -31.7489   -8.7006 S   0  0  0  0  0  0  0  0  0  0  0  0
   22.2369  -33.0800   -8.5307 C   0  0  0  0  0  0  0  0  0  0  0  0
   21.2091  -32.4545   -8.0897 O   0  0  0  0  0  0  0  0  0  0  0  0
   22.8781  -34.0687   -7.7752 N   0  0  0  0  0  0  0  0  0  0  0  0
   24.1435  -34.7106   -7.9604 C   0  0  0  0  0  0  0  0  0  0  0  0
   23.9591  -36.1352   -7.4005 C   0  0  0  0  0  0  0  0  0  0  0  0
   22.5469  -36.1413   -6.8586 C   0  0  0  0  0  0  0  0  0  0  0  0
   22.3182  -34.6715   -6.5742 C   0  0  1  0  0  0  0  0  0  0  0  0
   23.0615  -34.3235   -5.3504 C   0  0  0  0  0  0  0  0  0  0  0  0
   24.1699  -33.7335   -5.4982 O   0  0  0  0  0  0  0  0  0  0  0  0
   22.6675  -34.5781   -4.0597 O   0  0  0  0  0  0  0  0  0  0  0  0
  2  1  1  0
  3  4  1  0
  3  2  1  0
  4  5  1  0
  5  7  1  0
  5  6  1  6
  7  8  2  0
  9  7  1  0
  9 10  1  0
 10 13  1  0
 10 11  1  1
 12 11  1  0
 13 14  2  0
 13 15  1  0
 15 16  1  0
 16 17  1  0
 18 17  1  0
 19 15  1  0
 19 18  1  0
 19 20  1  1
 21 20  2  0
 22 20  1  0
M  END
$$$$
