MCP.pdb
     RDKit          3D

 22 22  0  0  1  0  0  0  0  0999 V2000
    8.2637  -10.3897  -11.5541 C   0  0  0  0  0  0  0  0  0  0  0  0
    8.5544  -12.1628  -11.7892 S   0  0  0  0  0  0  0  0  0  0  0  0
   10.2625  -12.4820  -12.2985 C   0  0  0  0  0  0  0  0  0  0  0  0
   11.2550  -11.9437  -11.2758 C   0  0  0  0  0  0  0  0  0  0  0  0
   12.6289  -12.1326  -11.8738 C   0  0  2  0  0  0  0  0  0  0  0  0
   12.9578  -13.5354  -11.7370 N   0  0  0  0  0  0  0  0  0  0  0  0
   13.6609  -11.3230  -11.2303 C   0  0  0  0  0  0  0  0  0  0  0  0
   14.0150  -11.6210  -10.0599 O   0  0  0  0  0  0  0  0  0  0  0  0
   14.3093  -10.2228  -11.8018 N   0  0  0  0  0  0  0  0  0  0  0  0
   15.2668   -9.4270  -11.0679 C   0  0  1  0  0  0  0  0  0  0  0  0
   16.6648   -9.6068  -11.5926 C   0  0  0  0  0  0  0  0  0  0  0  0
   17.8439   -8.6549  -10.5505 S   0  0  0  0  0  0  0  0  0  0  0  0
   14.9219   -7.9901  -11.1245 C   0  0  0  0  0  0  0  0  0  0  0  0
   14.3505   -7.6058  -12.2052 O   0  0  0  0  0  0  0  0  0  0  0  0
   15.1924   -7.1012  -10.0777 N   0  0  0  0  0  0  0  0  0  0  0  0
   15.8013   -7.3203   -8.8014 C   0  0  0  0  0  0  0  0  0  0  0  0
   15.1320   -6.3036   -7.8551 C   0  0  0  0  0  0  0  0  0  0  0  0
   14.2048   -5.5151   -8.7532 C   0  0  0  0  0  0  0  0  0  0  0  0
   14.8666   -5.6826  -10.1050 C   0  0  1  0  0  0  0  0  0  0  0  0
   16.0571   -4.8150  -10.1397 C   0  0  0  0  0  0  0  0  0  0  0  0
   17.1856   -5.3849  -10.1223 O   0  0  0  0  0  0  0  0  0  0  0  0
   16.0618   -3.4426  -10.1889 O   0  0  0  0  0  0  0  0  0  0  0  0
  2  1  1  0
  3  4  1  0
  3  2  1  0
  4  5  1  0
  5  7  1  0
  5  6  1  1
  7  8  2  0
  9  7  1  0
  9 10  1  0
 10 13  1  0
 10 11  1  6
 12 11  1  0
 13 14  2  0
 13 15  1  0
 15 16  1  0
 16 17  1  0
 18 17  1  0
 19 15  1  0
 19 18  1  0
 19 20  1  1
 21 20  2  0
 22 20  1  0
M  END
$$$$
