MCP.pdb
     RDKit          3D

 22 22  0  0  1  0  0  0  0  0999 V2000
   32.0807  -20.6265    5.6569 C   0  0  0  0  0  0  0  0  0  0  0  0
   31.8955  -21.2953    3.9830 S   0  0  0  0  0  0  0  0  0  0  0  0
   33.0878  -22.6230    3.6753 C   0  0  0  0  0  0  0  0  0  0  0  0
   33.8939  -22.9443    4.9274 C   0  0  0  0  0  0  0  0  0  0  0  0
   34.8657  -24.0341    4.5415 C   0  0  2  0  0  0  0  0  0  0  0  0
   34.0812  -25.2184    4.2644 N   0  0  0  0  0  0  0  0  0  0  0  0
   35.8504  -24.3312    5.5791 C   0  0  0  0  0  0  0  0  0  0  0  0
   35.5038  -25.0598    6.5449 O   0  0  0  0  0  0  0  0  0  0  0  0
   37.1725  -23.8738    5.6043 N   0  0  0  0  0  0  0  0  0  0  0  0
   38.0641  -24.1573    6.7057 C   0  0  1  0  0  0  0  0  0  0  0  0
   39.4981  -24.2387    6.2597 C   0  0  0  0  0  0  0  0  0  0  0  0
   39.6255  -25.3261    4.7819 S   0  0  0  0  0  0  0  0  0  0  0  0
   37.9549  -23.1262    7.7601 C   0  0  0  0  0  0  0  0  0  0  0  0
   37.2874  -22.0810    7.4375 O   0  0  0  0  0  0  0  0  0  0  0  0
   38.5328  -23.2695    9.0269 N   0  0  0  0  0  0  0  0  0  0  0  0
   39.3294  -24.3242    9.5752 C   0  0  0  0  0  0  0  0  0  0  0  0
   38.9917  -24.3448   11.0793 C   0  0  0  0  0  0  0  0  0  0  0  0
   38.0332  -23.1887   11.2606 C   0  0  0  0  0  0  0  0  0  0  0  0
   38.4063  -22.2922   10.0984 C   0  0  1  0  0  0  0  0  0  0  0  0
   39.6784  -21.6254   10.4280 C   0  0  0  0  0  0  0  0  0  0  0  0
   40.7432  -22.2175   10.0901 O   0  0  0  0  0  0  0  0  0  0  0  0
   39.8219  -20.4193   11.0688 O   0  0  0  0  0  0  0  0  0  0  0  0
  2  1  1  0
  3  4  1  0
  3  2  1  0
  4  5  1  0
  5  7  1  0
  5  6  1  1
  7  8  2  0
  9  7  1  0
  9 10  1  0
 10 13  1  0
 10 11  1  6
 12 11  1  0
 13 14  2  0
 13 15  1  0
 15 16  1  0
 16 17  1  0
 18 17  1  0
 19 15  1  0
 19 18  1  0
 19 20  1  1
 21 20  2  0
 22 20  1  0
M  END
$$$$
