MCP.pdb
     RDKit          3D

 22 22  0  0  1  0  0  0  0  0999 V2000
   12.7537  -14.7807  -11.1869 C   0  0  0  0  0  0  0  0  0  0  0  0
   13.2348  -13.1783  -11.8830 S   0  0  0  0  0  0  0  0  0  0  0  0
   13.7141  -12.0177  -10.5782 C   0  0  0  0  0  0  0  0  0  0  0  0
   14.2410  -10.7136  -11.1634 C   0  0  0  0  0  0  0  0  0  0  0  0
   14.5763   -9.8238   -9.9900 C   0  0  2  0  0  0  0  0  0  0  0  0
   13.3362   -9.5671   -9.2892 N   0  0  0  0  0  0  0  0  0  0  0  0
   15.1911   -8.5562  -10.3768 C   0  0  0  0  0  0  0  0  0  0  0  0
   14.5236   -7.4982  -10.2391 O   0  0  0  0  0  0  0  0  0  0  0  0
   16.4804   -8.4001  -10.8976 N   0  0  0  0  0  0  0  0  0  0  0  0
   17.2012   -7.1508  -10.8065 C   0  0  1  0  0  0  0  0  0  0  0  0
   17.3222   -6.6756   -9.3848 C   0  0  0  0  0  0  0  0  0  0  0  0
   18.4181   -5.2001   -9.3169 S   0  0  0  0  0  0  0  0  0  0  0  0
   18.5584   -7.2744  -11.3808 C   0  0  0  0  0  0  0  0  0  0  0  0
   19.2627   -8.2406  -10.9196 O   0  0  0  0  0  0  0  0  0  0  0  0
   19.0513   -6.4058  -12.3614 N   0  0  0  0  0  0  0  0  0  0  0  0
   18.4851   -5.2196  -12.9272 C   0  0  0  0  0  0  0  0  0  0  0  0
   19.0006   -5.1796  -14.3796 C   0  0  0  0  0  0  0  0  0  0  0  0
   19.9167   -6.3788  -14.4818 C   0  0  0  0  0  0  0  0  0  0  0  0
   20.3288   -6.5773  -13.0381 C   0  0  1  0  0  0  0  0  0  0  0  0
   21.3104   -5.5325  -12.6970 C   0  0  0  0  0  0  0  0  0  0  0  0
   22.4639   -5.6388  -13.2038 O   0  0  0  0  0  0  0  0  0  0  0  0
   21.0951   -4.4504  -11.8794 O   0  0  0  0  0  0  0  0  0  0  0  0
  2  1  1  0
  3  4  1  0
  3  2  1  0
  4  5  1  0
  5  7  1  0
  5  6  1  6
  7  8  2  0
  9  7  1  0
  9 10  1  0
 10 13  1  0
 10 11  1  1
 12 11  1  0
 13 14  2  0
 13 15  1  0
 15 16  1  0
 16 17  1  0
 18 17  1  0
 19 15  1  0
 19 18  1  0
 19 20  1  1
 21 20  2  0
 22 20  1  0
M  END
$$$$
