MCP.pdb
     RDKit          3D

 22 22  0  0  1  0  0  0  0  0999 V2000
   14.9958  -13.9636  -12.8204 C   0  0  0  0  0  0  0  0  0  0  0  0
   13.7174  -14.3107  -11.5839 S   0  0  0  0  0  0  0  0  0  0  0  0
   13.5927  -12.9647  -10.3789 C   0  0  0  0  0  0  0  0  0  0  0  0
   13.9370  -11.6221  -11.0110 C   0  0  0  0  0  0  0  0  0  0  0  0
   13.8453  -10.5948   -9.9077 C   0  0  2  0  0  0  0  0  0  0  0  0
   12.4379  -10.3913   -9.6385 N   0  0  0  0  0  0  0  0  0  0  0  0
   14.4682   -9.3177  -10.2473 C   0  0  0  0  0  0  0  0  0  0  0  0
   13.8055   -8.4867  -10.9211 O   0  0  0  0  0  0  0  0  0  0  0  0
   15.7604   -8.9189   -9.8880 N   0  0  0  0  0  0  0  0  0  0  0  0
   16.3385   -7.6768  -10.3480 C   0  0  1  0  0  0  0  0  0  0  0  0
   16.6220   -6.7350   -9.2103 C   0  0  0  0  0  0  0  0  0  0  0  0
   15.1177   -6.5537   -8.1677 S   0  0  0  0  0  0  0  0  0  0  0  0
   17.5959   -7.9153  -11.0888 C   0  0  0  0  0  0  0  0  0  0  0  0
   18.3433   -8.8426  -10.6159 O   0  0  0  0  0  0  0  0  0  0  0  0
   17.9562   -7.1884  -12.2294 N   0  0  0  0  0  0  0  0  0  0  0  0
   17.3029   -6.0973  -12.8855 C   0  0  0  0  0  0  0  0  0  0  0  0
   17.6524   -6.2566  -14.3786 C   0  0  0  0  0  0  0  0  0  0  0  0
   18.5793   -7.4513  -14.4176 C   0  0  0  0  0  0  0  0  0  0  0  0
   19.1541   -7.4430  -13.0165 C   0  0  1  0  0  0  0  0  0  0  0  0
   20.1428   -6.3533  -12.9365 C   0  0  0  0  0  0  0  0  0  0  0  0
   19.7473   -5.2509  -12.4602 O   0  0  0  0  0  0  0  0  0  0  0  0
   21.4568   -6.4172  -13.3302 O   0  0  0  0  0  0  0  0  0  0  0  0
  2  1  1  0
  3  4  1  0
  3  2  1  0
  4  5  1  0
  5  7  1  0
  5  6  1  6
  7  8  2  0
  9  7  1  0
  9 10  1  0
 10 13  1  0
 10 11  1  1
 12 11  1  0
 13 14  2  0
 13 15  1  0
 15 16  1  0
 16 17  1  0
 18 17  1  0
 19 15  1  0
 19 18  1  0
 19 20  1  6
 21 20  2  0
 22 20  1  0
M  END
$$$$
