MCP.pdb
     RDKit          3D

 22 22  0  0  1  0  0  0  0  0999 V2000
   22.7793  -14.0769    1.4357 C   0  0  0  0  0  0  0  0  0  0  0  0
   22.0975  -15.3938    0.3942 S   0  0  0  0  0  0  0  0  0  0  0  0
   20.3138  -15.5715    0.6514 C   0  0  0  0  0  0  0  0  0  0  0  0
   20.0130  -16.3434    1.9298 C   0  0  0  0  0  0  0  0  0  0  0  0
   18.5102  -16.3512    2.0802 C   0  0  2  0  0  0  0  0  0  0  0  0
   18.1196  -15.0129    2.4691 N   0  0  0  0  0  0  0  0  0  0  0  0
   18.0288  -17.3092    3.0725 C   0  0  0  0  0  0  0  0  0  0  0  0
   18.0590  -16.9818    4.2874 O   0  0  0  0  0  0  0  0  0  0  0  0
   17.5254  -18.5854    2.7975 N   0  0  0  0  0  0  0  0  0  0  0  0
   17.1936  -19.5242    3.8450 C   0  0  1  0  0  0  0  0  0  0  0  0
   15.8664  -20.1888    3.6027 C   0  0  0  0  0  0  0  0  0  0  0  0
   15.7966  -20.8199    1.8766 S   0  0  0  0  0  0  0  0  0  0  0  0
   18.2304  -20.5711    3.9717 C   0  0  0  0  0  0  0  0  0  0  0  0
   18.9604  -20.7481    2.9335 O   0  0  0  0  0  0  0  0  0  0  0  0
   18.4143  -21.3221    5.1385 N   0  0  0  0  0  0  0  0  0  0  0  0
   17.7462  -21.2611    6.4025 C   0  0  0  0  0  0  0  0  0  0  0  0
   18.8102  -21.6676    7.4414 C   0  0  0  0  0  0  0  0  0  0  0  0
   20.0291  -22.0055    6.6119 C   0  0  0  0  0  0  0  0  0  0  0  0
   19.4056  -22.3784    5.2831 C   0  0  1  0  0  0  0  0  0  0  0  0
   18.8088  -23.7186    5.4205 C   0  0  0  0  0  0  0  0  0  0  0  0
   19.6047  -24.6974    5.5052 O   0  0  0  0  0  0  0  0  0  0  0  0
   17.4677  -24.0108    5.4654 O   0  0  0  0  0  0  0  0  0  0  0  0
  2  1  1  0
  3  4  1  0
  3  2  1  0
  4  5  1  0
  5  7  1  0
  5  6  1  1
  7  8  2  0
  9  7  1  0
  9 10  1  0
 10 13  1  0
 10 11  1  6
 12 11  1  0
 13 14  2  0
 13 15  1  0
 15 16  1  0
 16 17  1  0
 18 17  1  0
 19 15  1  0
 19 18  1  0
 19 20  1  1
 21 20  2  0
 22 20  1  0
M  END
$$$$
