MCP.pdb
     RDKit          3D

 22 22  0  0  1  0  0  0  0  0999 V2000
   24.5768  -11.0497  -22.5189 C   0  0  0  0  0  0  0  0  0  0  0  0
   23.0071  -11.9344  -22.7113 S   0  0  0  0  0  0  0  0  0  0  0  0
   22.5687  -12.8225  -21.1953 C   0  0  0  0  0  0  0  0  0  0  0  0
   22.1053  -11.8635  -20.1062 C   0  0  0  0  0  0  0  0  0  0  0  0
   22.8984  -12.2082  -18.8680 C   0  0  2  0  0  0  0  0  0  0  0  0
   22.5741  -13.5773  -18.5285 N   0  0  0  0  0  0  0  0  0  0  0  0
   22.6083  -11.3399  -17.7295 C   0  0  0  0  0  0  0  0  0  0  0  0
   21.5138  -11.4868  -17.1257 O   0  0  0  0  0  0  0  0  0  0  0  0
   23.4485  -10.3372  -17.2331 N   0  0  0  0  0  0  0  0  0  0  0  0
   23.0949   -9.5360  -16.0835 C   0  0  1  0  0  0  0  0  0  0  0  0
   24.0436   -9.7513  -14.9366 C   0  0  0  0  0  0  0  0  0  0  0  0
   25.7680   -9.4350  -15.4925 S   0  0  0  0  0  0  0  0  0  0  0  0
   23.0797   -8.0962  -16.4205 C   0  0  0  0  0  0  0  0  0  0  0  0
   23.8458   -7.7517  -17.3882 O   0  0  0  0  0  0  0  0  0  0  0  0
   22.2873   -7.1641  -15.7403 N   0  0  0  0  0  0  0  0  0  0  0  0
   21.3707   -7.3343  -14.6547 C   0  0  0  0  0  0  0  0  0  0  0  0
   20.2851   -6.2612  -14.8712 C   0  0  0  0  0  0  0  0  0  0  0  0
   20.7549   -5.4982  -16.0898 C   0  0  0  0  0  0  0  0  0  0  0  0
   22.2490   -5.7424  -16.0508 C   0  0  1  0  0  0  0  0  0  0  0  0
   22.8202   -4.9006  -14.9847 C   0  0  0  0  0  0  0  0  0  0  0  0
   23.1195   -5.4727  -13.8976 O   0  0  0  0  0  0  0  0  0  0  0  0
   23.0602   -3.5504  -15.0556 O   0  0  0  0  0  0  0  0  0  0  0  0
  2  1  1  0
  3  4  1  0
  3  2  1  0
  4  5  1  0
  5  7  1  0
  5  6  1  1
  7  8  2  0
  9  7  1  0
  9 10  1  0
 10 13  1  0
 10 11  1  1
 12 11  1  0
 13 14  2  0
 13 15  1  0
 15 16  1  0
 16 17  1  0
 18 17  1  0
 19 15  1  0
 19 18  1  0
 19 20  1  1
 21 20  2  0
 22 20  1  0
M  END
$$$$
