MCP.pdb
     RDKit          3D

 22 22  0  0  1  0  0  0  0  0999 V2000
   28.3446  -18.8581   -4.5066 C   0  0  0  0  0  0  0  0  0  0  0  0
   27.7062  -20.4972   -4.9416 S   0  0  0  0  0  0  0  0  0  0  0  0
   26.3884  -20.3771   -6.1778 C   0  0  0  0  0  0  0  0  0  0  0  0
   26.7933  -19.4695   -7.3323 C   0  0  0  0  0  0  0  0  0  0  0  0
   25.8415  -19.7699   -8.4657 C   0  0  2  0  0  0  0  0  0  0  0  0
   25.3910  -21.1336   -8.2862 N   0  0  0  0  0  0  0  0  0  0  0  0
   26.4453  -19.6241   -9.7880 C   0  0  0  0  0  0  0  0  0  0  0  0
   27.1072  -18.5824  -10.0345 O   0  0  0  0  0  0  0  0  0  0  0  0
   26.3575  -20.5517  -10.8319 N   0  0  0  0  0  0  0  0  0  0  0  0
   27.0217  -20.3493  -12.0994 C   0  0  1  0  0  0  0  0  0  0  0  0
   27.6637  -21.6123  -12.6040 C   0  0  0  0  0  0  0  0  0  0  0  0
   28.9446  -22.1749  -11.4101 S   0  0  0  0  0  0  0  0  0  0  0  0
   26.0767  -19.8570  -13.1248 C   0  0  0  0  0  0  0  0  0  0  0  0
   24.8364  -20.0403  -12.8601 O   0  0  0  0  0  0  0  0  0  0  0  0
   26.4936  -19.2307  -14.3051 N   0  0  0  0  0  0  0  0  0  0  0  0
   27.8038  -19.0417  -14.8486 C   0  0  0  0  0  0  0  0  0  0  0  0
   27.7333  -17.7067  -15.6166 C   0  0  0  0  0  0  0  0  0  0  0  0
   26.2888  -17.2779  -15.4841 C   0  0  0  0  0  0  0  0  0  0  0  0
   25.5917  -18.6036  -15.2604 C   0  0  1  0  0  0  0  0  0  0  0  0
   25.5324  -19.3105  -16.5519 C   0  0  0  0  0  0  0  0  0  0  0  0
   26.3708  -20.2381  -16.7396 O   0  0  0  0  0  0  0  0  0  0  0  0
   24.6528  -19.0599  -17.5763 O   0  0  0  0  0  0  0  0  0  0  0  0
  2  1  1  0
  3  4  1  0
  3  2  1  0
  4  5  1  0
  5  7  1  0
  5  6  1  1
  7  8  2  0
  9  7  1  0
  9 10  1  0
 10 13  1  0
 10 11  1  6
 12 11  1  0
 13 14  2  0
 13 15  1  0
 15 16  1  0
 16 17  1  0
 18 17  1  0
 19 15  1  0
 19 18  1  0
 19 20  1  6
 21 20  2  0
 22 20  1  0
M  END
$$$$
