MCP.pdb
     RDKit          3D

 22 22  0  0  1  0  0  0  0  0999 V2000
   16.9770  -16.9727  -14.3033 C   0  0  0  0  0  0  0  0  0  0  0  0
   16.1427  -17.3574  -15.8652 S   0  0  0  0  0  0  0  0  0  0  0  0
   16.7953  -16.3477  -17.2194 C   0  0  0  0  0  0  0  0  0  0  0  0
   18.2154  -15.8805  -16.9269 C   0  0  0  0  0  0  0  0  0  0  0  0
   18.6357  -15.0302  -18.1022 C   0  0  2  0  0  0  0  0  0  0  0  0
   18.9481  -15.9366  -19.1865 N   0  0  0  0  0  0  0  0  0  0  0  0
   19.7927  -14.1826  -17.8243 C   0  0  0  0  0  0  0  0  0  0  0  0
   20.8824  -14.4477  -18.3954 O   0  0  0  0  0  0  0  0  0  0  0  0
   19.8078  -13.0787  -16.9647 N   0  0  0  0  0  0  0  0  0  0  0  0
   20.9451  -12.1919  -16.8706 C   0  0  1  0  0  0  0  0  0  0  0  0
   21.2955  -11.5861  -18.2018 C   0  0  0  0  0  0  0  0  0  0  0  0
   19.7910  -10.8505  -18.9619 S   0  0  0  0  0  0  0  0  0  0  0  0
   20.6922  -11.0999  -15.9061 C   0  0  0  0  0  0  0  0  0  0  0  0
   19.4582  -10.8121  -15.7152 O   0  0  0  0  0  0  0  0  0  0  0  0
   21.7188  -10.4210  -15.2394 N   0  0  0  0  0  0  0  0  0  0  0  0
   23.1343  -10.4317  -15.4491 C   0  0  0  0  0  0  0  0  0  0  0  0
   23.7506  -10.2110  -14.0533 C   0  0  0  0  0  0  0  0  0  0  0  0
   22.5558  -10.0167  -13.1462 C   0  0  0  0  0  0  0  0  0  0  0  0
   21.5074   -9.5170  -14.1181 C   0  0  1  0  0  0  0  0  0  0  0  0
   21.8171   -8.1126  -14.4394 C   0  0  0  0  0  0  0  0  0  0  0  0
   21.6007   -7.2543  -13.5366 O   0  0  0  0  0  0  0  0  0  0  0  0
   22.3193   -7.6421  -15.6278 O   0  0  0  0  0  0  0  0  0  0  0  0
  2  1  1  0
  3  4  1  0
  3  2  1  0
  4  5  1  0
  5  7  1  0
  5  6  1  6
  7  8  2  0
  9  7  1  0
  9 10  1  0
 10 13  1  0
 10 11  1  6
 12 11  1  0
 13 14  2  0
 13 15  1  0
 15 16  1  0
 16 17  1  0
 18 17  1  0
 19 15  1  0
 19 18  1  0
 19 20  1  6
 21 20  2  0
 22 20  1  0
M  END
$$$$
