MCP.pdb
     RDKit          3D

 22 22  0  0  1  0  0  0  0  0999 V2000
   19.0050  -19.0904  -14.3167 C   0  0  0  0  0  0  0  0  0  0  0  0
   18.7484  -18.2382  -15.8953 S   0  0  0  0  0  0  0  0  0  0  0  0
   20.3012  -18.0856  -16.8142 C   0  0  0  0  0  0  0  0  0  0  0  0
   21.4337  -18.8263  -16.1146 C   0  0  0  0  0  0  0  0  0  0  0  0
   22.6625  -18.6352  -16.9716 C   0  0  2  0  0  0  0  0  0  0  0  0
   22.4346  -19.3630  -18.2017 N   0  0  0  0  0  0  0  0  0  0  0  0
   23.8919  -19.1111  -16.3421 C   0  0  0  0  0  0  0  0  0  0  0  0
   24.1231  -20.3483  -16.3352 O   0  0  0  0  0  0  0  0  0  0  0  0
   24.8604  -18.3067  -15.7316 N   0  0  0  0  0  0  0  0  0  0  0  0
   25.8998  -18.8568  -14.8915 C   0  0  1  0  0  0  0  0  0  0  0  0
   27.0021  -17.8647  -14.6411 C   0  0  0  0  0  0  0  0  0  0  0  0
   26.2840  -16.2786  -14.0484 S   0  0  0  0  0  0  0  0  0  0  0  0
   25.3560  -19.2980  -13.5891 C   0  0  0  0  0  0  0  0  0  0  0  0
   24.1767  -18.8771  -13.3166 O   0  0  0  0  0  0  0  0  0  0  0  0
   26.0673  -20.1196  -12.7069 N   0  0  0  0  0  0  0  0  0  0  0  0
   27.4264  -20.5662  -12.7382 C   0  0  0  0  0  0  0  0  0  0  0  0
   27.4083  -21.9602  -12.0799 C   0  0  0  0  0  0  0  0  0  0  0  0
   25.9699  -22.1506  -11.6527 C   0  0  0  0  0  0  0  0  0  0  0  0
   25.4978  -20.7188  -11.5086 C   0  0  1  0  0  0  0  0  0  0  0  0
   26.0660  -20.1753  -10.2624 C   0  0  0  0  0  0  0  0  0  0  0  0
   25.5287  -20.5401   -9.1776 O   0  0  0  0  0  0  0  0  0  0  0  0
   27.1259  -19.3078  -10.1627 O   0  0  0  0  0  0  0  0  0  0  0  0
  2  1  1  0
  3  4  1  0
  3  2  1  0
  4  5  1  0
  5  7  1  0
  5  6  1  6
  7  8  2  0
  9  7  1  0
  9 10  1  0
 10 13  1  0
 10 11  1  1
 12 11  1  0
 13 14  2  0
 13 15  1  0
 15 16  1  0
 16 17  1  0
 18 17  1  0
 19 15  1  0
 19 18  1  0
 19 20  1  1
 21 20  2  0
 22 20  1  0
M  END
$$$$
