MCP.pdb
     RDKit          3D

 22 22  0  0  1  0  0  0  0  0999 V2000
   14.8609   -9.7139  -18.0399 C   0  0  0  0  0  0  0  0  0  0  0  0
   14.0370  -11.3211  -18.1877 S   0  0  0  0  0  0  0  0  0  0  0  0
   15.1845  -12.6773  -17.8367 C   0  0  0  0  0  0  0  0  0  0  0  0
   16.2574  -12.2514  -16.8427 C   0  0  0  0  0  0  0  0  0  0  0  0
   17.2283  -13.4040  -16.7426 C   0  0  2  0  0  0  0  0  0  0  0  0
   16.6844  -14.3287  -15.7710 N   0  0  0  0  0  0  0  0  0  0  0  0
   18.5720  -13.0005  -16.3352 C   0  0  0  0  0  0  0  0  0  0  0  0
   18.8304  -12.9283  -15.1055 O   0  0  0  0  0  0  0  0  0  0  0  0
   19.6245  -12.6788  -17.1992 N   0  0  0  0  0  0  0  0  0  0  0  0
   20.9296  -12.2936  -16.7124 C   0  0  1  0  0  0  0  0  0  0  0  0
   21.9926  -12.4646  -17.7624 C   0  0  0  0  0  0  0  0  0  0  0  0
   22.3100  -14.2555  -18.0354 S   0  0  0  0  0  0  0  0  0  0  0  0
   20.9360  -10.8863  -16.2581 C   0  0  0  0  0  0  0  0  0  0  0  0
   19.9724  -10.1644  -16.6968 O   0  0  0  0  0  0  0  0  0  0  0  0
   21.9179  -10.3664  -15.4068 N   0  0  0  0  0  0  0  0  0  0  0  0
   23.1134  -10.9588  -14.8896 C   0  0  0  0  0  0  0  0  0  0  0  0
   23.3155  -10.3155  -13.5032 C   0  0  0  0  0  0  0  0  0  0  0  0
   22.1885   -9.3129  -13.3912 C   0  0  0  0  0  0  0  0  0  0  0  0
   21.8863   -9.0231  -14.8466 C   0  0  1  0  0  0  0  0  0  0  0  0
   22.9541   -8.1520  -15.3686 C   0  0  0  0  0  0  0  0  0  0  0  0
   22.9811   -6.9596  -14.9489 O   0  0  0  0  0  0  0  0  0  0  0  0
   23.9268   -8.5090  -16.2698 O   0  0  0  0  0  0  0  0  0  0  0  0
  2  1  1  0
  3  4  1  0
  3  2  1  0
  4  5  1  0
  5  7  1  0
  5  6  1  1
  7  8  2  0
  9  7  1  0
  9 10  1  0
 10 13  1  0
 10 11  1  6
 12 11  1  0
 13 14  2  0
 13 15  1  0
 15 16  1  0
 16 17  1  0
 18 17  1  0
 19 15  1  0
 19 18  1  0
 19 20  1  6
 21 20  2  0
 22 20  1  0
M  END
$$$$
