MCP.pdb
     RDKit          3D

 22 22  0  0  1  0  0  0  0  0999 V2000
   17.8555  -14.2453  -21.9584 C   0  0  0  0  0  0  0  0  0  0  0  0
   17.5060  -13.2594  -20.4787 S   0  0  0  0  0  0  0  0  0  0  0  0
   19.0311  -12.8500  -19.5923 C   0  0  0  0  0  0  0  0  0  0  0  0
   18.7422  -12.0230  -18.3460 C   0  0  0  0  0  0  0  0  0  0  0  0
   20.0827  -11.6820  -17.7397 C   0  0  2  0  0  0  0  0  0  0  0  0
   20.6049  -12.9014  -17.1609 N   0  0  0  0  0  0  0  0  0  0  0  0
   20.0112  -10.6447  -16.7134 C   0  0  0  0  0  0  0  0  0  0  0  0
   19.3766  -10.8902  -15.6546 O   0  0  0  0  0  0  0  0  0  0  0  0
   20.5934   -9.3750  -16.7947 N   0  0  0  0  0  0  0  0  0  0  0  0
   20.4259   -8.3836  -15.7565 C   0  0  1  0  0  0  0  0  0  0  0  0
   21.7428   -7.9666  -15.1617 C   0  0  0  0  0  0  0  0  0  0  0  0
   22.2974   -9.2265  -13.9421 S   0  0  0  0  0  0  0  0  0  0  0  0
   19.7384   -7.1805  -16.2731 C   0  0  0  0  0  0  0  0  0  0  0  0
   20.0161   -6.8683  -17.4845 O   0  0  0  0  0  0  0  0  0  0  0  0
   18.8429   -6.4275  -15.5048 N   0  0  0  0  0  0  0  0  0  0  0  0
   18.3952   -6.6008  -14.1567 C   0  0  0  0  0  0  0  0  0  0  0  0
   16.9509   -6.0617  -14.1387 C   0  0  0  0  0  0  0  0  0  0  0  0
   16.7309   -5.5422  -15.5421 C   0  0  0  0  0  0  0  0  0  0  0  0
   18.1473   -5.2431  -15.9870 C   0  0  1  0  0  0  0  0  0  0  0  0
   18.5820   -4.0035  -15.3194 C   0  0  0  0  0  0  0  0  0  0  0  0
   18.0139   -2.9302  -15.6716 O   0  0  0  0  0  0  0  0  0  0  0  0
   19.5476   -3.8984  -14.3486 O   0  0  0  0  0  0  0  0  0  0  0  0
  2  1  1  0
  3  4  1  0
  3  2  1  0
  4  5  1  0
  5  7  1  0
  5  6  1  1
  7  8  2  0
  9  7  1  0
  9 10  1  0
 10 13  1  0
 10 11  1  6
 12 11  1  0
 13 14  2  0
 13 15  1  0
 15 16  1  0
 16 17  1  0
 18 17  1  0
 19 15  1  0
 19 18  1  0
 19 20  1  1
 21 20  2  0
 22 20  1  0
M  END
$$$$
