MCP.pdb
     RDKit          3D

 22 22  0  0  1  0  0  0  0  0999 V2000
   17.2561  -13.7711  -20.9184 C   0  0  0  0  0  0  0  0  0  0  0  0
   18.4080  -14.6105  -19.7992 S   0  0  0  0  0  0  0  0  0  0  0  0
   19.0999  -13.4552  -18.5886 C   0  0  0  0  0  0  0  0  0  0  0  0
   18.0069  -12.6235  -17.9295 C   0  0  0  0  0  0  0  0  0  0  0  0
   18.6920  -11.7586  -16.8981 C   0  0  2  0  0  0  0  0  0  0  0  0
   19.2153  -12.6484  -15.8837 N   0  0  0  0  0  0  0  0  0  0  0  0
   17.8046  -10.7777  -16.2779 C   0  0  0  0  0  0  0  0  0  0  0  0
   16.7213  -11.1790  -15.7786 O   0  0  0  0  0  0  0  0  0  0  0  0
   18.0474   -9.4030  -16.1827 N   0  0  0  0  0  0  0  0  0  0  0  0
   17.1331   -8.5042  -15.5156 C   0  0  1  0  0  0  0  0  0  0  0  0
   17.0132   -8.8133  -14.0487 C   0  0  0  0  0  0  0  0  0  0  0  0
   18.6668   -8.6894  -13.2532 S   0  0  0  0  0  0  0  0  0  0  0  0
   17.5608   -7.0970  -15.6689 C   0  0  0  0  0  0  0  0  0  0  0  0
   18.7978   -6.9284  -15.9577 O   0  0  0  0  0  0  0  0  0  0  0  0
   16.6862   -6.0151  -15.5144 N   0  0  0  0  0  0  0  0  0  0  0  0
   15.3340   -5.9675  -15.0485 C   0  0  0  0  0  0  0  0  0  0  0  0
   14.6831   -4.8005  -15.8173 C   0  0  0  0  0  0  0  0  0  0  0  0
   15.8124   -4.2227  -16.6412 C   0  0  0  0  0  0  0  0  0  0  0  0
   17.0263   -4.6366  -15.8357 C   0  0  1  0  0  0  0  0  0  0  0  0
   17.1032   -3.7667  -14.6488 C   0  0  0  0  0  0  0  0  0  0  0  0
   16.7545   -4.2701  -13.5426 O   0  0  0  0  0  0  0  0  0  0  0  0
   17.5176   -2.4577  -14.6256 O   0  0  0  0  0  0  0  0  0  0  0  0
  2  1  1  0
  3  4  1  0
  3  2  1  0
  4  5  1  0
  5  7  1  0
  5  6  1  1
  7  8  2  0
  9  7  1  0
  9 10  1  0
 10 13  1  0
 10 11  1  1
 12 11  1  0
 13 14  2  0
 13 15  1  0
 15 16  1  0
 16 17  1  0
 18 17  1  0
 19 15  1  0
 19 18  1  0
 19 20  1  1
 21 20  2  0
 22 20  1  0
M  END
$$$$
