FNM.pdb
     RDKit          3D

 28 28  0  0  1  0  0  0  0  0999 V2000
    6.3590  -18.2007   20.2423 N   0  0  0  0  0  0  0  0  0  0  0  0
    7.0873  -16.9666   20.2788 C   0  0  1  0  0  0  0  0  0  0  0  0
    6.1515  -15.8962   20.7966 C   0  0  0  0  0  0  0  0  0  0  0  0
    6.7419  -14.5587   20.8631 C   0  0  0  0  0  0  0  0  0  0  0  0
    7.0863  -13.8767   19.6998 C   0  0  0  0  0  0  0  0  0  0  0  0
    7.6421  -12.6227   19.7748 C   0  0  0  0  0  0  0  0  0  0  0  0
    7.8811  -11.9920   20.9805 C   0  0  0  0  0  0  0  0  0  0  0  0
    7.5432  -12.6600   22.1309 C   0  0  0  0  0  0  0  0  0  0  0  0
    6.9801  -13.9295   22.0576 C   0  0  0  0  0  0  0  0  0  0  0  0
    8.3213  -17.0627   21.0935 C   0  0  0  0  0  0  0  0  0  0  0  0
    8.2764  -17.7961   22.1402 O   0  0  0  0  0  0  0  0  0  0  0  0
   12.7447  -13.9648   20.8862 N   0  0  0  0  0  0  0  0  0  0  0  0
   12.0370  -15.0225   20.2918 C   0  0  0  0  0  0  0  0  0  0  0  0
   11.3585  -14.7219   19.2591 O   0  0  0  0  0  0  0  0  0  0  0  0
   11.9894  -16.4164   20.7172 C   0  0  0  0  0  0  0  0  0  0  0  0
   10.7201  -16.7697   21.5092 C   0  0  2  0  0  0  0  0  0  0  0  0
    9.5341  -16.4130   20.8072 N   0  0  0  0  0  0  0  0  0  0  0  0
   10.8129  -16.2181   22.8691 C   0  0  0  0  0  0  0  0  0  0  0  0
   11.9474  -16.1275   23.4326 O   0  0  0  0  0  0  0  0  0  0  0  0
    7.2076  -11.9471   27.0788 C   0  0  0  0  0  0  0  0  0  0  0  0
    6.4242  -13.1201   25.9154 S   0  0  0  0  0  0  0  0  0  0  0  0
    7.5054  -14.5126   25.5335 C   0  0  0  0  0  0  0  0  0  0  0  0
    8.9304  -14.1959   25.3033 C   0  0  0  0  0  0  0  0  0  0  0  0
    9.8217  -15.3133   25.0311 C   0  0  2  0  0  0  0  0  0  0  0  0
    9.7202  -15.7626   23.6323 N   0  0  0  0  0  0  0  0  0  0  0  0
    9.7552  -16.4430   25.9397 C   0  0  0  0  0  0  0  0  0  0  0  0
    9.2381  -17.5283   25.6054 O   0  0  0  0  0  0  0  0  0  0  0  0
   10.2715  -16.3594   27.2323 O   0  0  0  0  0  0  0  0  0  0  0  0
  2  1  1  1
  2  3  1  0
  3  4  1  0
  4  5  2  0
  5  6  1  0
  7  6  2  0
  8  7  1  0
  9  8  2  0
  9  4  1  0
 10 11  2  0
 10  2  1  0
 13 15  1  0
 13 12  1  0
 14 13  2  0
 16 15  1  6
 16 17  1  0
 17 10  1  0
 18 16  1  0
 18 25  1  0
 19 18  2  0
 21 20  1  0
 22 21  1  0
 23 22  1  0
 24 23  1  1
 24 25  1  0
 26 28  1  0
 26 24  1  0
 27 26  2  0
M  END
$$$$
