FNM.pdb
     RDKit          3D

 28 28  0  0  1  0  0  0  0  0999 V2000
    7.1254  -17.2276   25.5290 N   0  0  0  0  0  0  0  0  0  0  0  0
    6.7744  -17.0642   24.1487 C   0  0  1  0  0  0  0  0  0  0  0  0
    5.8775  -15.8501   24.0435 C   0  0  0  0  0  0  0  0  0  0  0  0
    6.4383  -14.6324   24.6304 C   0  0  0  0  0  0  0  0  0  0  0  0
    6.1131  -14.2569   25.9305 C   0  0  0  0  0  0  0  0  0  0  0  0
    6.6438  -13.1104   26.4700 C   0  0  0  0  0  0  0  0  0  0  0  0
    7.5059  -12.2930   25.7648 C   0  0  0  0  0  0  0  0  0  0  0  0
    7.8301  -12.6588   24.4822 C   0  0  0  0  0  0  0  0  0  0  0  0
    7.2944  -13.8192   23.9339 C   0  0  0  0  0  0  0  0  0  0  0  0
    7.9641  -16.9496   23.2730 C   0  0  0  0  0  0  0  0  0  0  0  0
    7.7679  -16.9916   22.0099 O   0  0  0  0  0  0  0  0  0  0  0  0
   11.7234  -14.2175   20.3374 N   0  0  0  0  0  0  0  0  0  0  0  0
   11.2121  -15.4413   20.7994 C   0  0  0  0  0  0  0  0  0  0  0  0
   11.8120  -16.4829   20.3840 O   0  0  0  0  0  0  0  0  0  0  0  0
   10.0810  -15.6566   21.6941 C   0  0  0  0  0  0  0  0  0  0  0  0
   10.3544  -16.7087   22.7811 C   0  0  2  0  0  0  0  0  0  0  0  0
    9.2879  -16.7985   23.7199 N   0  0  0  0  0  0  0  0  0  0  0  0
   11.6761  -16.4726   23.3805 C   0  0  0  0  0  0  0  0  0  0  0  0
   12.6910  -17.0814   22.9198 O   0  0  0  0  0  0  0  0  0  0  0  0
    9.7140  -13.0572   28.3328 C   0  0  0  0  0  0  0  0  0  0  0  0
   10.4418  -14.5569   29.0841 S   0  0  0  0  0  0  0  0  0  0  0  0
   10.4634  -15.9444   27.9315 C   0  0  0  0  0  0  0  0  0  0  0  0
   10.6315  -15.6102   26.5018 C   0  0  0  0  0  0  0  0  0  0  0  0
   11.8835  -16.0023   25.8728 C   0  0  2  0  0  0  0  0  0  0  0  0
   11.9308  -15.6004   24.4568 N   0  0  0  0  0  0  0  0  0  0  0  0
   12.2913  -17.3865   26.0278 C   0  0  0  0  0  0  0  0  0  0  0  0
   11.8414  -18.2921   25.2967 O   0  0  0  0  0  0  0  0  0  0  0  0
   13.2100  -17.7615   27.0075 O   0  0  0  0  0  0  0  0  0  0  0  0
  2  1  1  1
  2  3  1  0
  3  4  1  0
  4  5  2  0
  5  6  1  0
  7  6  2  0
  8  7  1  0
  9  8  2  0
  9  4  1  0
 10 11  2  0
 10  2  1  0
 13 15  1  0
 13 12  1  0
 14 13  2  0
 16 15  1  6
 16 17  1  0
 17 10  1  0
 18 16  1  0
 18 25  1  0
 19 18  2  0
 21 20  1  0
 22 21  1  0
 23 22  1  0
 24 23  1  6
 24 25  1  0
 26 28  1  0
 26 24  1  0
 27 26  2  0
M  END
$$$$
