FNM.pdb
     RDKit          3D

 28 28  0  0  1  0  0  0  0  0999 V2000
    7.1123  -16.5821   25.5516 N   0  0  0  0  0  0  0  0  0  0  0  0
    6.6601  -16.8190   24.2121 C   0  0  1  0  0  0  0  0  0  0  0  0
    5.6020  -15.7850   23.8948 C   0  0  0  0  0  0  0  0  0  0  0  0
    5.8509  -14.4671   24.4805 C   0  0  0  0  0  0  0  0  0  0  0  0
    5.4921  -14.1970   25.7978 C   0  0  0  0  0  0  0  0  0  0  0  0
    5.7286  -12.9554   26.3359 C   0  0  0  0  0  0  0  0  0  0  0  0
    6.3201  -11.9378   25.6126 C   0  0  0  0  0  0  0  0  0  0  0  0
    6.6761  -12.1987   24.3130 C   0  0  0  0  0  0  0  0  0  0  0  0
    6.4381  -13.4550   23.7660 C   0  0  0  0  0  0  0  0  0  0  0  0
    7.7685  -16.7948   23.2290 C   0  0  0  0  0  0  0  0  0  0  0  0
    7.9295  -17.8347   22.5022 O   0  0  0  0  0  0  0  0  0  0  0  0
    8.0099  -12.8005   20.7893 N   0  0  0  0  0  0  0  0  0  0  0  0
    8.6307  -14.0519   20.6432 C   0  0  0  0  0  0  0  0  0  0  0  0
    8.0412  -14.8747   19.8733 O   0  0  0  0  0  0  0  0  0  0  0  0
    9.8644  -14.5156   21.2670 C   0  0  0  0  0  0  0  0  0  0  0  0
    9.6928  -15.8190   22.0638 C   0  0  2  0  0  0  0  0  0  0  0  0
    8.6543  -15.7217   23.0327 N   0  0  0  0  0  0  0  0  0  0  0  0
   10.9920  -16.2466   22.6034 C   0  0  0  0  0  0  0  0  0  0  0  0
   11.5579  -17.2802   22.1298 O   0  0  0  0  0  0  0  0  0  0  0  0
   11.0143  -13.6374   28.8514 C   0  0  0  0  0  0  0  0  0  0  0  0
   11.8954  -15.2094   28.5420 S   0  0  0  0  0  0  0  0  0  0  0  0
   11.0513  -16.2233   27.3118 C   0  0  0  0  0  0  0  0  0  0  0  0
   10.9699  -15.6680   25.9447 C   0  0  0  0  0  0  0  0  0  0  0  0
   11.9268  -16.1672   24.9689 C   0  0  2  0  0  0  0  0  0  0  0  0
   11.6940  -15.5911   23.6338 N   0  0  0  0  0  0  0  0  0  0  0  0
   12.0899  -17.6070   24.8859 C   0  0  0  0  0  0  0  0  0  0  0  0
   11.1553  -18.3573   24.5387 O   0  0  0  0  0  0  0  0  0  0  0  0
   13.3076  -18.2130   25.1928 O   0  0  0  0  0  0  0  0  0  0  0  0
  2  1  1  1
  2  3  1  0
  3  4  1  0
  4  5  2  0
  5  6  1  0
  7  6  2  0
  8  7  1  0
  9  8  2  0
  9  4  1  0
 10 11  2  0
 10  2  1  0
 13 15  1  0
 13 12  1  0
 14 13  2  0
 16 15  1  1
 16 17  1  0
 17 10  1  0
 18 16  1  0
 18 25  1  0
 19 18  2  0
 21 20  1  0
 22 21  1  0
 23 22  1  0
 24 23  1  1
 24 25  1  0
 26 28  1  0
 26 24  1  0
 27 26  2  0
M  END
$$$$
