FNM.pdb
     RDKit          3D

 28 28  0  0  1  0  0  0  0  0999 V2000
    6.1966  -17.8557   22.7433 N   0  0  0  0  0  0  0  0  0  0  0  0
    7.2513  -16.8973   22.5880 C   0  0  1  0  0  0  0  0  0  0  0  0
    6.6695  -15.5266   22.8568 C   0  0  0  0  0  0  0  0  0  0  0  0
    7.0069  -14.5195   21.8500 C   0  0  0  0  0  0  0  0  0  0  0  0
    7.6699  -14.8799   20.6806 C   0  0  0  0  0  0  0  0  0  0  0  0
    7.9835  -13.9254   19.7437 C   0  0  0  0  0  0  0  0  0  0  0  0
    7.6640  -12.5920   19.9129 C   0  0  0  0  0  0  0  0  0  0  0  0
    7.0099  -12.2310   21.0643 C   0  0  0  0  0  0  0  0  0  0  0  0
    6.6910  -13.1956   22.0140 C   0  0  0  0  0  0  0  0  0  0  0  0
    8.4110  -17.1866   23.4636 C   0  0  0  0  0  0  0  0  0  0  0  0
    8.1619  -17.5734   24.6569 O   0  0  0  0  0  0  0  0  0  0  0  0
   12.0317  -19.0989   21.5232 N   0  0  0  0  0  0  0  0  0  0  0  0
   12.1350  -17.7869   22.0138 C   0  0  0  0  0  0  0  0  0  0  0  0
   12.1967  -16.8711   21.1336 O   0  0  0  0  0  0  0  0  0  0  0  0
   12.1795  -17.3542   23.4055 C   0  0  0  0  0  0  0  0  0  0  0  0
   10.7904  -17.2415   24.0543 C   0  0  2  0  0  0  0  0  0  0  0  0
    9.7599  -17.0699   23.0871 N   0  0  0  0  0  0  0  0  0  0  0  0
   10.8151  -16.2158   25.1074 C   0  0  0  0  0  0  0  0  0  0  0  0
   11.5004  -15.1600   24.9381 O   0  0  0  0  0  0  0  0  0  0  0  0
    8.0922  -11.0869   25.2625 C   0  0  0  0  0  0  0  0  0  0  0  0
    7.9730  -12.3997   26.5295 S   0  0  0  0  0  0  0  0  0  0  0  0
    9.4710  -13.4020   26.6032 C   0  0  0  0  0  0  0  0  0  0  0  0
    9.5524  -14.3844   27.7042 C   0  0  0  0  0  0  0  0  0  0  0  0
   10.4621  -15.5057   27.5255 C   0  0  2  0  0  0  0  0  0  0  0  0
   10.1225  -16.2976   26.3312 N   0  0  0  0  0  0  0  0  0  0  0  0
   10.6727  -16.3700   28.6722 C   0  0  0  0  0  0  0  0  0  0  0  0
   11.0200  -15.9191   29.7826 O   0  0  0  0  0  0  0  0  0  0  0  0
   10.4930  -17.7495   28.5773 O   0  0  0  0  0  0  0  0  0  0  0  0
  2  1  1  1
  2  3  1  0
  3  4  1  0
  4  5  2  0
  5  6  1  0
  7  6  2  0
  8  7  1  0
  9  8  2  0
  9  4  1  0
 10 11  2  0
 10  2  1  0
 13 15  1  0
 13 12  1  0
 14 13  2  0
 16 15  1  6
 16 17  1  0
 17 10  1  0
 18 16  1  0
 18 25  1  0
 19 18  2  0
 21 20  1  0
 22 21  1  0
 23 22  1  0
 24 23  1  1
 24 25  1  0
 26 28  1  0
 26 24  1  0
 27 26  2  0
M  END
$$$$
