FNM.pdb
     RDKit          3D

 28 28  0  0  1  0  0  0  0  0999 V2000
    6.8242  -18.2752   20.7881 N   0  0  0  0  0  0  0  0  0  0  0  0
    7.5390  -17.0550   21.0229 C   0  0  1  0  0  0  0  0  0  0  0  0
    6.5622  -16.0545   21.6012 C   0  0  0  0  0  0  0  0  0  0  0  0
    7.1069  -14.7065   21.7687 C   0  0  0  0  0  0  0  0  0  0  0  0
    7.1625  -14.1154   23.0274 C   0  0  0  0  0  0  0  0  0  0  0  0
    7.6737  -12.8485   23.1720 C   0  0  0  0  0  0  0  0  0  0  0  0
    8.1461  -12.1163   22.1000 C   0  0  0  0  0  0  0  0  0  0  0  0
    8.0937  -12.6946   20.8563 C   0  0  0  0  0  0  0  0  0  0  0  0
    7.5770  -13.9771   20.7074 C   0  0  0  0  0  0  0  0  0  0  0  0
    8.7157  -17.2498   21.9021 C   0  0  0  0  0  0  0  0  0  0  0  0
    8.6722  -18.2220   22.7319 O   0  0  0  0  0  0  0  0  0  0  0  0
   12.2279  -18.1767   20.3465 N   0  0  0  0  0  0  0  0  0  0  0  0
   12.6883  -16.9474   20.8460 C   0  0  0  0  0  0  0  0  0  0  0  0
   13.5300  -16.3346   20.1157 O   0  0  0  0  0  0  0  0  0  0  0  0
   12.3167  -16.2952   22.0960 C   0  0  0  0  0  0  0  0  0  0  0  0
   10.9978  -16.8176   22.6884 C   0  0  2  0  0  0  0  0  0  0  0  0
    9.8730  -16.4526   21.8958 N   0  0  0  0  0  0  0  0  0  0  0  0
   10.8992  -16.4282   24.1028 C   0  0  0  0  0  0  0  0  0  0  0  0
   11.9587  -16.2792   24.7871 O   0  0  0  0  0  0  0  0  0  0  0  0
    5.7456  -12.7510   26.1296 C   0  0  0  0  0  0  0  0  0  0  0  0
    7.4867  -12.3795   26.5466 S   0  0  0  0  0  0  0  0  0  0  0  0
    8.6144  -13.6335   25.9066 C   0  0  0  0  0  0  0  0  0  0  0  0
    8.5405  -14.9684   26.5363 C   0  0  0  0  0  0  0  0  0  0  0  0
    9.6143  -15.9030   26.2355 C   0  0  2  0  0  0  0  0  0  0  0  0
    9.6946  -16.1949   24.7943 N   0  0  0  0  0  0  0  0  0  0  0  0
    9.6545  -17.1291   27.0111 C   0  0  0  0  0  0  0  0  0  0  0  0
    9.7456  -17.1193   28.2555 O   0  0  0  0  0  0  0  0  0  0  0  0
    9.5917  -18.3763   26.3908 O   0  0  0  0  0  0  0  0  0  0  0  0
  2  1  1  1
  2  3  1  0
  3  4  1  0
  4  5  2  0
  5  6  1  0
  7  6  2  0
  8  7  1  0
  9  8  2  0
  9  4  1  0
 10 11  2  0
 10  2  1  0
 13 15  1  0
 13 12  1  0
 14 13  2  0
 16 15  1  6
 16 17  1  0
 17 10  1  0
 18 16  1  0
 18 25  1  0
 19 18  2  0
 21 20  1  0
 22 21  1  0
 23 22  1  0
 24 23  1  6
 24 25  1  0
 26 28  1  0
 26 24  1  0
 27 26  2  0
M  END
$$$$
