FNM.pdb
     RDKit          3D

 28 28  0  0  1  0  0  0  0  0999 V2000
    6.1188  -18.2354   22.9926 N   0  0  0  0  0  0  0  0  0  0  0  0
    6.8180  -17.0270   23.3180 C   0  0  1  0  0  0  0  0  0  0  0  0
    6.2233  -16.4829   24.5985 C   0  0  0  0  0  0  0  0  0  0  0  0
    6.8062  -15.2168   25.0447 C   0  0  0  0  0  0  0  0  0  0  0  0
    7.7124  -15.1862   26.1006 C   0  0  0  0  0  0  0  0  0  0  0  0
    8.2512  -13.9914   26.5122 C   0  0  0  0  0  0  0  0  0  0  0  0
    7.9271  -12.7898   25.9123 C   0  0  0  0  0  0  0  0  0  0  0  0
    7.0342  -12.8143   24.8703 C   0  0  0  0  0  0  0  0  0  0  0  0
    6.4876  -14.0226   24.4516 C   0  0  0  0  0  0  0  0  0  0  0  0
    8.2807  -17.2340   23.4325 C   0  0  0  0  0  0  0  0  0  0  0  0
    8.6787  -18.2255   24.1355 O   0  0  0  0  0  0  0  0  0  0  0  0
   11.0031  -15.6381   19.5049 N   0  0  0  0  0  0  0  0  0  0  0  0
   11.3226  -16.4295   20.6203 C   0  0  0  0  0  0  0  0  0  0  0  0
   11.4424  -17.6758   20.3976 O   0  0  0  0  0  0  0  0  0  0  0  0
   11.5319  -15.9925   21.9956 C   0  0  0  0  0  0  0  0  0  0  0  0
   10.6429  -16.7278   23.0116 C   0  0  2  0  0  0  0  0  0  0  0  0
    9.2628  -16.4288   22.8308 N   0  0  0  0  0  0  0  0  0  0  0  0
   11.1446  -16.4923   24.3735 C   0  0  0  0  0  0  0  0  0  0  0  0
   11.4297  -15.3104   24.7407 O   0  0  0  0  0  0  0  0  0  0  0  0
   10.6807  -12.8876   28.5705 C   0  0  0  0  0  0  0  0  0  0  0  0
   10.3240  -14.4522   29.4470 S   0  0  0  0  0  0  0  0  0  0  0  0
   11.2402  -15.8396   28.7473 C   0  0  0  0  0  0  0  0  0  0  0  0
   11.0292  -16.1101   27.3099 C   0  0  0  0  0  0  0  0  0  0  0  0
   11.7647  -17.2238   26.7306 C   0  0  2  0  0  0  0  0  0  0  0  0
   11.3441  -17.4924   25.3450 N   0  0  0  0  0  0  0  0  0  0  0  0
   11.8101  -18.4529   27.5011 C   0  0  0  0  0  0  0  0  0  0  0  0
   12.5220  -18.5665   28.5196 O   0  0  0  0  0  0  0  0  0  0  0  0
   11.0532  -19.5638   27.1307 O   0  0  0  0  0  0  0  0  0  0  0  0
  2  1  1  1
  2  3  1  0
  3  4  1  0
  4  5  2  0
  5  6  1  0
  7  6  2  0
  8  7  1  0
  9  8  2  0
  9  4  1  0
 10 11  2  0
 10  2  1  0
 13 15  1  0
 13 12  1  0
 14 13  2  0
 16 15  1  6
 16 17  1  0
 17 10  1  0
 18 16  1  0
 18 25  1  0
 19 18  2  0
 21 20  1  0
 22 21  1  0
 23 22  1  0
 24 23  1  1
 24 25  1  0
 26 28  1  0
 26 24  1  0
 27 26  2  0
M  END
$$$$
