FNM.pdb
     RDKit          3D

 28 28  0  0  1  0  0  0  0  0999 V2000
    5.7350  -17.2603   22.7910 N   0  0  0  0  0  0  0  0  0  0  0  0
    6.7667  -17.5835   21.8496 C   0  0  1  0  0  0  0  0  0  0  0  0
    6.6317  -16.6366   20.6772 C   0  0  0  0  0  0  0  0  0  0  0  0
    6.9385  -15.2403   20.9904 C   0  0  0  0  0  0  0  0  0  0  0  0
    7.1949  -14.8471   22.3006 C   0  0  0  0  0  0  0  0  0  0  0  0
    7.4794  -13.5331   22.5829 C   0  0  0  0  0  0  0  0  0  0  0  0
    7.5234  -12.5603   21.6029 C   0  0  0  0  0  0  0  0  0  0  0  0
    7.2714  -12.9426   20.3090 C   0  0  0  0  0  0  0  0  0  0  0  0
    6.9835  -14.2723   20.0206 C   0  0  0  0  0  0  0  0  0  0  0  0
    8.1192  -17.5273   22.4522 C   0  0  0  0  0  0  0  0  0  0  0  0
    8.2738  -18.0771   23.5965 O   0  0  0  0  0  0  0  0  0  0  0  0
   13.1265  -18.3849   22.8132 N   0  0  0  0  0  0  0  0  0  0  0  0
   12.8827  -17.4897   21.7587 C   0  0  0  0  0  0  0  0  0  0  0  0
   13.8443  -17.3206   20.9439 O   0  0  0  0  0  0  0  0  0  0  0  0
   11.6637  -16.7360   21.4902 C   0  0  0  0  0  0  0  0  0  0  0  0
   10.5240  -17.0483   22.4735 C   0  0  2  0  0  0  0  0  0  0  0  0
    9.2427  -16.9191   21.8668 N   0  0  0  0  0  0  0  0  0  0  0  0
   10.6986  -16.2613   23.7032 C   0  0  0  0  0  0  0  0  0  0  0  0
   11.1105  -15.0624   23.6268 O   0  0  0  0  0  0  0  0  0  0  0  0
    7.4313  -11.3402   27.6386 C   0  0  0  0  0  0  0  0  0  0  0  0
    7.3816  -12.8196   26.5653 S   0  0  0  0  0  0  0  0  0  0  0  0
    8.7184  -13.9704   26.9430 C   0  0  0  0  0  0  0  0  0  0  0  0
    9.1632  -14.8479   25.8402 C   0  0  0  0  0  0  0  0  0  0  0  0
   10.1638  -15.8552   26.1577 C   0  0  2  0  0  0  0  0  0  0  0  0
   10.4402  -16.7303   25.0059 N   0  0  0  0  0  0  0  0  0  0  0  0
    9.9475  -16.6403   27.3591 C   0  0  0  0  0  0  0  0  0  0  0  0
    9.9335  -16.1198   28.4931 O   0  0  0  0  0  0  0  0  0  0  0  0
    9.7443  -18.0182   27.2926 O   0  0  0  0  0  0  0  0  0  0  0  0
  2  1  1  1
  2  3  1  0
  3  4  1  0
  4  5  2  0
  5  6  1  0
  7  6  2  0
  8  7  1  0
  9  8  2  0
  9  4  1  0
 10 11  2  0
 10  2  1  0
 13 15  1  0
 13 12  1  0
 14 13  2  0
 16 15  1  6
 16 17  1  0
 17 10  1  0
 18 16  1  0
 18 25  1  0
 19 18  2  0
 21 20  1  0
 22 21  1  0
 23 22  1  0
 24 23  1  6
 24 25  1  0
 26 28  1  0
 26 24  1  0
 27 26  2  0
M  END
$$$$
