FNM.pdb
     RDKit          3D

 28 28  0  0  1  0  0  0  0  0999 V2000
    5.6787  -17.2885   24.2259 N   0  0  0  0  0  0  0  0  0  0  0  0
    6.7588  -16.3499   24.1398 C   0  0  1  0  0  0  0  0  0  0  0  0
    7.0481  -15.8531   25.5395 C   0  0  0  0  0  0  0  0  0  0  0  0
    6.9425  -14.4021   25.6989 C   0  0  0  0  0  0  0  0  0  0  0  0
    7.8796  -13.5545   25.1156 C   0  0  0  0  0  0  0  0  0  0  0  0
    7.7716  -12.1941   25.2742 C   0  0  0  0  0  0  0  0  0  0  0  0
    6.7515  -11.6147   26.0037 C   0  0  0  0  0  0  0  0  0  0  0  0
    5.8245  -12.4460   26.5810 C   0  0  0  0  0  0  0  0  0  0  0  0
    5.9314  -13.8235   26.4217 C   0  0  0  0  0  0  0  0  0  0  0  0
    7.9624  -16.9308   23.5000 C   0  0  0  0  0  0  0  0  0  0  0  0
    8.3201  -18.0992   23.8774 O   0  0  0  0  0  0  0  0  0  0  0  0
   10.1798  -17.9698   19.0304 N   0  0  0  0  0  0  0  0  0  0  0  0
    9.8844  -16.7879   19.7292 C   0  0  0  0  0  0  0  0  0  0  0  0
    8.8901  -16.1237   19.2961 O   0  0  0  0  0  0  0  0  0  0  0  0
   10.5796  -16.2363   20.8862 C   0  0  0  0  0  0  0  0  0  0  0  0
   10.0524  -16.7718   22.2273 C   0  0  2  0  0  0  0  0  0  0  0  0
    8.7399  -16.3006   22.5135 N   0  0  0  0  0  0  0  0  0  0  0  0
   11.0377  -16.5136   23.2877 C   0  0  0  0  0  0  0  0  0  0  0  0
   11.6768  -15.4162   23.2957 O   0  0  0  0  0  0  0  0  0  0  0  0
   11.0264  -13.3910   29.7701 C   0  0  0  0  0  0  0  0  0  0  0  0
   10.3783  -14.0293   28.1840 S   0  0  0  0  0  0  0  0  0  0  0  0
   11.4095  -15.3513   27.5187 C   0  0  0  0  0  0  0  0  0  0  0  0
   11.0272  -15.8807   26.1929 C   0  0  0  0  0  0  0  0  0  0  0  0
   11.8224  -16.9781   25.6635 C   0  0  2  0  0  0  0  0  0  0  0  0
   11.3489  -17.4024   24.3352 N   0  0  0  0  0  0  0  0  0  0  0  0
   12.0175  -18.1258   26.5301 C   0  0  0  0  0  0  0  0  0  0  0  0
   11.2724  -19.1254   26.4780 O   0  0  0  0  0  0  0  0  0  0  0  0
   13.0542  -18.1569   27.4621 O   0  0  0  0  0  0  0  0  0  0  0  0
  2  1  1  1
  2  3  1  0
  3  4  1  0
  4  5  2  0
  5  6  1  0
  7  6  2  0
  8  7  1  0
  9  8  2  0
  9  4  1  0
 10 11  2  0
 10  2  1  0
 13 15  1  0
 13 12  1  0
 14 13  2  0
 16 15  1  6
 16 17  1  0
 17 10  1  0
 18 16  1  0
 18 25  1  0
 19 18  2  0
 21 20  1  0
 22 21  1  0
 23 22  1  0
 24 23  1  1
 24 25  1  0
 26 28  1  0
 26 24  1  0
 27 26  2  0
M  END
$$$$
