FNM.pdb
     RDKit          3D

 28 28  0  0  1  0  0  0  0  0999 V2000
    5.6057  -18.7449   23.8787 N   0  0  0  0  0  0  0  0  0  0  0  0
    5.9522  -17.3626   24.0334 C   0  0  1  0  0  0  0  0  0  0  0  0
    6.4202  -17.1630   25.4584 C   0  0  0  0  0  0  0  0  0  0  0  0
    6.6659  -15.7672   25.8233 C   0  0  0  0  0  0  0  0  0  0  0  0
    7.9204  -15.3607   26.2681 C   0  0  0  0  0  0  0  0  0  0  0  0
    8.1386  -14.0482   26.6102 C   0  0  0  0  0  0  0  0  0  0  0  0
    7.1464  -13.0901   26.5315 C   0  0  0  0  0  0  0  0  0  0  0  0
    5.9073  -13.4855   26.0933 C   0  0  0  0  0  0  0  0  0  0  0  0
    5.6840  -14.8136   25.7461 C   0  0  0  0  0  0  0  0  0  0  0  0
    6.9702  -16.9220   23.0509 C   0  0  0  0  0  0  0  0  0  0  0  0
    8.0532  -17.5990   22.9861 O   0  0  0  0  0  0  0  0  0  0  0  0
    9.3086  -12.2386   19.7556 N   0  0  0  0  0  0  0  0  0  0  0  0
    8.7376  -13.5080   19.9431 C   0  0  0  0  0  0  0  0  0  0  0  0
    9.1206  -14.4111   19.1338 O   0  0  0  0  0  0  0  0  0  0  0  0
    7.7632  -13.9096   20.9508 C   0  0  0  0  0  0  0  0  0  0  0  0
    7.9660  -15.3469   21.4570 C   0  0  2  0  0  0  0  0  0  0  0  0
    6.8395  -15.8216   22.1866 N   0  0  0  0  0  0  0  0  0  0  0  0
    9.2442  -15.4448   22.1771 C   0  0  0  0  0  0  0  0  0  0  0  0
   10.2727  -15.8796   21.5720 O   0  0  0  0  0  0  0  0  0  0  0  0
   10.3229  -13.2246   28.3946 C   0  0  0  0  0  0  0  0  0  0  0  0
   11.6382  -14.4806   28.2062 S   0  0  0  0  0  0  0  0  0  0  0  0
   11.7764  -15.0604   26.5036 C   0  0  0  0  0  0  0  0  0  0  0  0
   10.6185  -14.7995   25.6232 C   0  0  0  0  0  0  0  0  0  0  0  0
   10.7075  -15.2787   24.2523 C   0  0  2  0  0  0  0  0  0  0  0  0
    9.4416  -15.0864   23.5249 N   0  0  0  0  0  0  0  0  0  0  0  0
   11.2117  -16.6259   24.0588 C   0  0  0  0  0  0  0  0  0  0  0  0
   12.3581  -16.9591   24.4219 O   0  0  0  0  0  0  0  0  0  0  0  0
   10.4281  -17.6087   23.4552 O   0  0  0  0  0  0  0  0  0  0  0  0
  2  1  1  6
  2  3  1  0
  3  4  1  0
  4  5  2  0
  5  6  1  0
  7  6  2  0
  8  7  1  0
  9  8  2  0
  9  4  1  0
 10 11  2  0
 10  2  1  0
 13 15  1  0
 13 12  1  0
 14 13  2  0
 16 15  1  1
 16 17  1  0
 17 10  1  0
 18 16  1  0
 18 25  1  0
 19 18  2  0
 21 20  1  0
 22 21  1  0
 23 22  1  0
 24 23  1  1
 24 25  1  0
 26 28  1  0
 26 24  1  0
 27 26  2  0
M  END
$$$$
