FNM.pdb
     RDKit          3D

 28 28  0  0  1  0  0  0  0  0999 V2000
    6.7059  -18.9856   23.1575 N   0  0  0  0  0  0  0  0  0  0  0  0
    7.2968  -17.6893   23.3169 C   0  0  1  0  0  0  0  0  0  0  0  0
    6.4596  -16.9229   24.3175 C   0  0  0  0  0  0  0  0  0  0  0  0
    6.8893  -15.5403   24.5311 C   0  0  0  0  0  0  0  0  0  0  0  0
    7.3077  -14.7544   23.4615 C   0  0  0  0  0  0  0  0  0  0  0  0
    7.7112  -13.4586   23.6745 C   0  0  0  0  0  0  0  0  0  0  0  0
    7.7214  -12.8858   24.9317 C   0  0  0  0  0  0  0  0  0  0  0  0
    7.3095  -13.6564   25.9901 C   0  0  0  0  0  0  0  0  0  0  0  0
    6.9003  -14.9684   25.7770 C   0  0  0  0  0  0  0  0  0  0  0  0
    8.7185  -17.7631   23.7276 C   0  0  0  0  0  0  0  0  0  0  0  0
    9.0092  -18.5501   24.6928 O   0  0  0  0  0  0  0  0  0  0  0  0
   10.3948  -17.2148   20.5078 N   0  0  0  0  0  0  0  0  0  0  0  0
   11.4593  -16.5457   21.1337 C   0  0  0  0  0  0  0  0  0  0  0  0
   11.9084  -15.5263   20.5200 O   0  0  0  0  0  0  0  0  0  0  0  0
   12.1062  -16.8806   22.3968 C   0  0  0  0  0  0  0  0  0  0  0  0
   11.1200  -17.3294   23.4873 C   0  0  2  0  0  0  0  0  0  0  0  0
    9.7701  -17.0382   23.1414 N   0  0  0  0  0  0  0  0  0  0  0  0
   11.5439  -16.7969   24.7907 C   0  0  0  0  0  0  0  0  0  0  0  0
   12.7378  -16.9787   25.1838 O   0  0  0  0  0  0  0  0  0  0  0  0
    8.3867  -11.5191   26.7659 C   0  0  0  0  0  0  0  0  0  0  0  0
    8.5633  -12.5969   28.2323 S   0  0  0  0  0  0  0  0  0  0  0  0
    9.2144  -14.2222   27.7986 C   0  0  0  0  0  0  0  0  0  0  0  0
   10.5958  -14.2598   27.2749 C   0  0  0  0  0  0  0  0  0  0  0  0
   11.1595  -15.5698   26.9866 C   0  0  2  0  0  0  0  0  0  0  0  0
   10.7188  -16.0759   25.6757 N   0  0  0  0  0  0  0  0  0  0  0  0
   11.0080  -16.5894   28.0083 C   0  0  0  0  0  0  0  0  0  0  0  0
   11.4268  -16.4239   29.1720 O   0  0  0  0  0  0  0  0  0  0  0  0
   10.3826  -17.8036   27.7273 O   0  0  0  0  0  0  0  0  0  0  0  0
  2  1  1  1
  2  3  1  0
  3  4  1  0
  4  5  2  0
  5  6  1  0
  7  6  2  0
  8  7  1  0
  9  8  2  0
  9  4  1  0
 10 11  2  0
 10  2  1  0
 13 15  1  0
 13 12  1  0
 14 13  2  0
 16 15  1  6
 16 17  1  0
 17 10  1  0
 18 16  1  0
 18 25  1  0
 19 18  2  0
 21 20  1  0
 22 21  1  0
 23 22  1  0
 24 23  1  1
 24 25  1  0
 26 28  1  0
 26 24  1  0
 27 26  2  0
M  END
$$$$
