FNM.pdb
     RDKit          3D

 28 28  0  0  1  0  0  0  0  0999 V2000
    6.2243  -18.5999   22.4627 N   0  0  0  0  0  0  0  0  0  0  0  0
    6.8900  -17.3977   22.8707 C   0  0  1  0  0  0  0  0  0  0  0  0
    6.2951  -16.9700   24.1946 C   0  0  0  0  0  0  0  0  0  0  0  0
    6.6762  -15.6228   24.6207 C   0  0  0  0  0  0  0  0  0  0  0  0
    7.3166  -14.7552   23.7409 C   0  0  0  0  0  0  0  0  0  0  0  0
    7.6718  -13.4937   24.1529 C   0  0  0  0  0  0  0  0  0  0  0  0
    7.4168  -13.0354   25.4310 C   0  0  0  0  0  0  0  0  0  0  0  0
    6.7852  -13.8869   26.3027 C   0  0  0  0  0  0  0  0  0  0  0  0
    6.4244  -15.1644   25.8879 C   0  0  0  0  0  0  0  0  0  0  0  0
    8.3597  -17.5661   22.9542 C   0  0  0  0  0  0  0  0  0  0  0  0
    8.7965  -18.6530   23.4674 O   0  0  0  0  0  0  0  0  0  0  0  0
   10.7782  -15.6665   19.2760 N   0  0  0  0  0  0  0  0  0  0  0  0
   11.3604  -16.4360   20.2965 C   0  0  0  0  0  0  0  0  0  0  0  0
   11.7636  -17.5927   19.9548 O   0  0  0  0  0  0  0  0  0  0  0  0
   11.5559  -16.0666   21.6935 C   0  0  0  0  0  0  0  0  0  0  0  0
   10.6998  -16.8913   22.6683 C   0  0  2  0  0  0  0  0  0  0  0  0
    9.3093  -16.6279   22.5147 N   0  0  0  0  0  0  0  0  0  0  0  0
   11.2047  -16.7222   24.0389 C   0  0  0  0  0  0  0  0  0  0  0  0
   12.4456  -16.8608   24.2713 O   0  0  0  0  0  0  0  0  0  0  0  0
    9.5612  -12.1220   28.0464 C   0  0  0  0  0  0  0  0  0  0  0  0
   10.3165  -13.2318   29.2877 S   0  0  0  0  0  0  0  0  0  0  0  0
   10.8005  -14.8142   28.5698 C   0  0  0  0  0  0  0  0  0  0  0  0
   10.4620  -15.0226   27.1464 C   0  0  0  0  0  0  0  0  0  0  0  0
   10.9382  -16.2489   26.5249 C   0  0  2  0  0  0  0  0  0  0  0  0
   10.4109  -16.4076   25.1591 N   0  0  0  0  0  0  0  0  0  0  0  0
   10.7767  -17.4755   27.2837 C   0  0  0  0  0  0  0  0  0  0  0  0
    9.9148  -18.3269   26.9849 O   0  0  0  0  0  0  0  0  0  0  0  0
   11.5856  -17.7533   28.3850 O   0  0  0  0  0  0  0  0  0  0  0  0
  2  1  1  1
  2  3  1  0
  3  4  1  0
  4  5  2  0
  5  6  1  0
  7  6  2  0
  8  7  1  0
  9  8  2  0
  9  4  1  0
 10 11  2  0
 10  2  1  0
 13 15  1  0
 13 12  1  0
 14 13  2  0
 16 15  1  6
 16 17  1  0
 17 10  1  0
 18 16  1  0
 18 25  1  0
 19 18  2  0
 21 20  1  0
 22 21  1  0
 23 22  1  0
 24 23  1  1
 24 25  1  0
 26 28  1  0
 26 24  1  0
 27 26  2  0
M  END
$$$$
