FNM.pdb
     RDKit          3D

 28 28  0  0  1  0  0  0  0  0999 V2000
    6.1366  -18.3852   20.7986 N   0  0  0  0  0  0  0  0  0  0  0  0
    6.9151  -17.1826   20.8501 C   0  0  1  0  0  0  0  0  0  0  0  0
    5.9848  -16.0489   21.2227 C   0  0  0  0  0  0  0  0  0  0  0  0
    6.6069  -14.7244   21.1976 C   0  0  0  0  0  0  0  0  0  0  0  0
    7.0566  -14.1746   20.0008 C   0  0  0  0  0  0  0  0  0  0  0  0
    7.6411  -12.9314   19.9900 C   0  0  0  0  0  0  0  0  0  0  0  0
    7.8075  -12.1839   21.1398 C   0  0  0  0  0  0  0  0  0  0  0  0
    7.3656  -12.7213   22.3229 C   0  0  0  0  0  0  0  0  0  0  0  0
    6.7732  -13.9795   22.3364 C   0  0  0  0  0  0  0  0  0  0  0  0
    8.0585  -17.2894   21.7864 C   0  0  0  0  0  0  0  0  0  0  0  0
    7.9501  -18.1227   22.7505 O   0  0  0  0  0  0  0  0  0  0  0  0
   13.3162  -18.7067   21.9842 N   0  0  0  0  0  0  0  0  0  0  0  0
   12.9087  -17.3825   21.7537 C   0  0  0  0  0  0  0  0  0  0  0  0
   13.7603  -16.4838   22.0443 O   0  0  0  0  0  0  0  0  0  0  0  0
   11.6316  -16.9199   21.2235 C   0  0  0  0  0  0  0  0  0  0  0  0
   10.4650  -17.0853   22.2109 C   0  0  2  0  0  0  0  0  0  0  0  0
    9.2498  -16.5490   21.6987 N   0  0  0  0  0  0  0  0  0  0  0  0
   10.8528  -16.5651   23.5303 C   0  0  0  0  0  0  0  0  0  0  0  0
   11.5743  -17.2756   24.2968 O   0  0  0  0  0  0  0  0  0  0  0  0
    7.5164  -11.5138   27.1459 C   0  0  0  0  0  0  0  0  0  0  0  0
    6.6021  -12.8646   26.3197 S   0  0  0  0  0  0  0  0  0  0  0  0
    7.5606  -14.3918   26.2664 C   0  0  0  0  0  0  0  0  0  0  0  0
    8.4154  -14.5916   25.0776 C   0  0  0  0  0  0  0  0  0  0  0  0
    9.7565  -15.1080   25.3053 C   0  0  2  0  0  0  0  0  0  0  0  0
   10.4862  -15.3048   24.0414 N   0  0  0  0  0  0  0  0  0  0  0  0
    9.8740  -16.2794   26.1541 C   0  0  0  0  0  0  0  0  0  0  0  0
    9.4234  -16.2982   27.3176 O   0  0  0  0  0  0  0  0  0  0  0  0
   10.4996  -17.4393   25.6987 O   0  0  0  0  0  0  0  0  0  0  0  0
  2  1  1  1
  2  3  1  0
  3  4  1  0
  4  5  2  0
  5  6  1  0
  7  6  2  0
  8  7  1  0
  9  8  2  0
  9  4  1  0
 10 11  2  0
 10  2  1  0
 13 15  1  0
 13 12  1  0
 14 13  2  0
 16 15  1  6
 16 17  1  0
 17 10  1  0
 18 16  1  0
 18 25  1  0
 19 18  2  0
 21 20  1  0
 22 21  1  0
 23 22  1  0
 24 23  1  6
 24 25  1  0
 26 28  1  0
 26 24  1  0
 27 26  2  0
M  END
$$$$
