FNM.pdb
     RDKit          3D

 28 28  0  0  1  0  0  0  0  0999 V2000
    6.1519  -18.7701   22.7654 N   0  0  0  0  0  0  0  0  0  0  0  0
    6.9204  -17.5973   23.0637 C   0  0  1  0  0  0  0  0  0  0  0  0
    6.1926  -16.8351   24.1495 C   0  0  0  0  0  0  0  0  0  0  0  0
    6.7359  -15.5034   24.4202 C   0  0  0  0  0  0  0  0  0  0  0  0
    6.6773  -14.9604   25.7003 C   0  0  0  0  0  0  0  0  0  0  0  0
    7.1884  -13.7083   25.9420 C   0  0  0  0  0  0  0  0  0  0  0  0
    7.7715  -12.9448   24.9492 C   0  0  0  0  0  0  0  0  0  0  0  0
    7.8321  -13.4756   23.6850 C   0  0  0  0  0  0  0  0  0  0  0  0
    7.3157  -14.7431   23.4378 C   0  0  0  0  0  0  0  0  0  0  0  0
    8.3135  -17.9186   23.4531 C   0  0  0  0  0  0  0  0  0  0  0  0
    8.4769  -18.7588   24.4034 O   0  0  0  0  0  0  0  0  0  0  0  0
   11.2419  -15.7121   20.6840 N   0  0  0  0  0  0  0  0  0  0  0  0
   12.0143  -16.4067   21.6293 C   0  0  0  0  0  0  0  0  0  0  0  0
   13.0301  -15.7858   22.0765 O   0  0  0  0  0  0  0  0  0  0  0  0
   11.7896  -17.7480   22.1551 C   0  0  0  0  0  0  0  0  0  0  0  0
   10.7571  -17.7923   23.2932 C   0  0  2  0  0  0  0  0  0  0  0  0
    9.4664  -17.3745   22.8619 N   0  0  0  0  0  0  0  0  0  0  0  0
   11.2742  -17.0656   24.4622 C   0  0  0  0  0  0  0  0  0  0  0  0
   12.4152  -16.5112   24.4013 O   0  0  0  0  0  0  0  0  0  0  0  0
    9.9167  -13.2730   29.7237 C   0  0  0  0  0  0  0  0  0  0  0  0
    9.0028  -13.4933   28.1555 S   0  0  0  0  0  0  0  0  0  0  0  0
    9.5409  -14.9663   27.2640 C   0  0  0  0  0  0  0  0  0  0  0  0
   10.8453  -15.5363   27.6609 C   0  0  0  0  0  0  0  0  0  0  0  0
   11.2680  -16.7550   26.9879 C   0  0  2  0  0  0  0  0  0  0  0  0
   10.5958  -16.9205   25.6881 N   0  0  0  0  0  0  0  0  0  0  0  0
   11.2090  -17.9844   27.7570 C   0  0  0  0  0  0  0  0  0  0  0  0
   12.1656  -18.3688   28.4599 O   0  0  0  0  0  0  0  0  0  0  0  0
   10.0713  -18.7905   27.7409 O   0  0  0  0  0  0  0  0  0  0  0  0
  2  1  1  1
  2  3  1  0
  3  4  1  0
  4  5  2  0
  5  6  1  0
  7  6  2  0
  8  7  1  0
  9  8  2  0
  9  4  1  0
 10 11  2  0
 10  2  1  0
 13 15  1  0
 13 12  1  0
 14 13  2  0
 16 15  1  6
 16 17  1  0
 17 10  1  0
 18 16  1  0
 18 25  1  0
 19 18  2  0
 21 20  1  0
 22 21  1  0
 23 22  1  0
 24 23  1  1
 24 25  1  0
 26 28  1  0
 26 24  1  0
 27 26  2  0
M  END
$$$$
