FNM.pdb
     RDKit          3D

 28 28  0  0  1  0  0  0  0  0999 V2000
    7.0421  -16.7670   21.4604 N   0  0  0  0  0  0  0  0  0  0  0  0
    8.2395  -16.4111   22.1636 C   0  0  1  0  0  0  0  0  0  0  0  0
    8.2019  -14.9184   22.4085 C   0  0  0  0  0  0  0  0  0  0  0  0
    7.9156  -14.1181   21.2171 C   0  0  0  0  0  0  0  0  0  0  0  0
    7.9120  -12.7278   21.2806 C   0  0  0  0  0  0  0  0  0  0  0  0
    7.6395  -11.9871   20.1561 C   0  0  0  0  0  0  0  0  0  0  0  0
    7.3618  -12.5725   18.9359 C   0  0  0  0  0  0  0  0  0  0  0  0
    7.3642  -13.9433   18.8677 C   0  0  0  0  0  0  0  0  0  0  0  0
    7.6401  -14.6954   20.0045 C   0  0  0  0  0  0  0  0  0  0  0  0
    8.4026  -17.1736   23.4236 C   0  0  0  0  0  0  0  0  0  0  0  0
    7.8152  -18.3069   23.5025 O   0  0  0  0  0  0  0  0  0  0  0  0
   12.6058  -19.6332   23.0050 N   0  0  0  0  0  0  0  0  0  0  0  0
   11.4071  -18.9116   23.1281 C   0  0  0  0  0  0  0  0  0  0  0  0
   10.3420  -19.5650   22.8917 O   0  0  0  0  0  0  0  0  0  0  0  0
   11.2414  -17.5096   23.4929 C   0  0  0  0  0  0  0  0  0  0  0  0
   10.4366  -17.3067   24.7868 C   0  0  2  0  0  0  0  0  0  0  0  0
    9.1503  -16.7508   24.5358 N   0  0  0  0  0  0  0  0  0  0  0  0
   11.2439  -16.5596   25.7626 C   0  0  0  0  0  0  0  0  0  0  0  0
   12.1317  -17.1671   26.4376 O   0  0  0  0  0  0  0  0  0  0  0  0
    7.0134  -11.0769   26.3851 C   0  0  0  0  0  0  0  0  0  0  0  0
    6.6853  -12.6987   27.1631 S   0  0  0  0  0  0  0  0  0  0  0  0
    8.2013  -13.4868   27.7414 C   0  0  0  0  0  0  0  0  0  0  0  0
    9.1160  -13.9988   26.6997 C   0  0  0  0  0  0  0  0  0  0  0  0
   10.3503  -14.6231   27.1508 C   0  0  2  0  0  0  0  0  0  0  0  0
   11.1206  -15.1816   26.0267 N   0  0  0  0  0  0  0  0  0  0  0  0
   10.2424  -15.5882   28.2294 C   0  0  0  0  0  0  0  0  0  0  0  0
   10.4130  -15.2651   29.4225 O   0  0  0  0  0  0  0  0  0  0  0  0
    9.9407  -16.9251   27.9725 O   0  0  0  0  0  0  0  0  0  0  0  0
  2  1  1  1
  2  3  1  0
  3  4  1  0
  4  5  2  0
  5  6  1  0
  7  6  2  0
  8  7  1  0
  9  8  2  0
  9  4  1  0
 10 11  2  0
 10  2  1  0
 13 15  1  0
 13 12  1  0
 14 13  2  0
 16 15  1  6
 16 17  1  0
 17 10  1  0
 18 16  1  0
 18 25  1  0
 19 18  2  0
 21 20  1  0
 22 21  1  0
 23 22  1  0
 24 23  1  6
 24 25  1  0
 26 28  1  0
 26 24  1  0
 27 26  2  0
M  END
$$$$
