FNM.pdb
     RDKit          3D

 28 28  0  0  1  0  0  0  0  0999 V2000
    6.6130  -17.2544   23.2875 N   0  0  0  0  0  0  0  0  0  0  0  0
    7.6766  -16.7827   24.1249 C   0  0  1  0  0  0  0  0  0  0  0  0
    7.0509  -16.0834   25.3119 C   0  0  0  0  0  0  0  0  0  0  0  0
    6.6225  -14.7094   25.0463 C   0  0  0  0  0  0  0  0  0  0  0  0
    5.7121  -14.0754   25.8866 C   0  0  0  0  0  0  0  0  0  0  0  0
    5.3154  -12.7862   25.6258 C   0  0  0  0  0  0  0  0  0  0  0  0
    5.7895  -12.0729   24.5418 C   0  0  0  0  0  0  0  0  0  0  0  0
    6.6878  -12.6934   23.7099 C   0  0  0  0  0  0  0  0  0  0  0  0
    7.0911  -13.9983   23.9720 C   0  0  0  0  0  0  0  0  0  0  0  0
    8.5909  -17.8708   24.5437 C   0  0  0  0  0  0  0  0  0  0  0  0
    8.2909  -18.5099   25.6101 O   0  0  0  0  0  0  0  0  0  0  0  0
   12.0684  -16.9517   21.1721 N   0  0  0  0  0  0  0  0  0  0  0  0
   11.2194  -16.0079   21.7731 C   0  0  0  0  0  0  0  0  0  0  0  0
   10.9703  -14.9697   21.0821 O   0  0  0  0  0  0  0  0  0  0  0  0
   10.5937  -16.0783   23.0882 C   0  0  0  0  0  0  0  0  0  0  0  0
   10.8884  -17.3894   23.8348 C   0  0  2  0  0  0  0  0  0  0  0  0
    9.7587  -18.2552   23.8631 N   0  0  0  0  0  0  0  0  0  0  0  0
   11.4615  -17.0915   25.1557 C   0  0  0  0  0  0  0  0  0  0  0  0
   12.6184  -16.5736   25.2347 O   0  0  0  0  0  0  0  0  0  0  0  0
   10.7411  -11.7888   27.5438 C   0  0  0  0  0  0  0  0  0  0  0  0
   10.7593  -13.2740   28.6099 S   0  0  0  0  0  0  0  0  0  0  0  0
   11.2034  -14.7593   27.6876 C   0  0  0  0  0  0  0  0  0  0  0  0
   11.1045  -16.0411   28.4163 C   0  0  0  0  0  0  0  0  0  0  0  0
   11.4917  -17.2443   27.6957 C   0  0  2  0  0  0  0  0  0  0  0  0
   10.8222  -17.3345   26.3871 N   0  0  0  0  0  0  0  0  0  0  0  0
   11.3886  -18.5016   28.4133 C   0  0  0  0  0  0  0  0  0  0  0  0
   10.6950  -19.4481   27.9886 O   0  0  0  0  0  0  0  0  0  0  0  0
   12.0668  -18.7032   29.6148 O   0  0  0  0  0  0  0  0  0  0  0  0
  2  1  1  6
  2  3  1  0
  3  4  1  0
  4  5  2  0
  5  6  1  0
  7  6  2  0
  8  7  1  0
  9  8  2  0
  9  4  1  0
 10 11  2  0
 10  2  1  0
 13 15  1  0
 13 12  1  0
 14 13  2  0
 16 15  1  1
 16 17  1  0
 17 10  1  0
 18 16  1  0
 18 25  1  0
 19 18  2  0
 21 20  1  0
 22 21  1  0
 23 22  1  0
 24 23  1  1
 24 25  1  0
 26 28  1  0
 26 24  1  0
 27 26  2  0
M  END
$$$$
