FNM.pdb
     RDKit          3D

 28 28  0  0  1  0  0  0  0  0999 V2000
    5.8191  -17.5030   21.4789 N   0  0  0  0  0  0  0  0  0  0  0  0
    7.0089  -17.3597   20.6923 C   0  0  1  0  0  0  0  0  0  0  0  0
    6.9007  -16.0578   19.9287 C   0  0  0  0  0  0  0  0  0  0  0  0
    7.1869  -14.8645   20.7263 C   0  0  0  0  0  0  0  0  0  0  0  0
    7.9312  -13.8166   20.1927 C   0  0  0  0  0  0  0  0  0  0  0  0
    8.1956  -12.7025   20.9517 C   0  0  0  0  0  0  0  0  0  0  0  0
    7.7462  -12.5711   22.2515 C   0  0  0  0  0  0  0  0  0  0  0  0
    7.0115  -13.6016   22.7826 C   0  0  0  0  0  0  0  0  0  0  0  0
    6.7422  -14.7304   22.0161 C   0  0  0  0  0  0  0  0  0  0  0  0
    8.2402  -17.4171   21.5146 C   0  0  0  0  0  0  0  0  0  0  0  0
    8.4190  -18.4625   22.2292 O   0  0  0  0  0  0  0  0  0  0  0  0
   11.8371  -18.3233   20.5756 N   0  0  0  0  0  0  0  0  0  0  0  0
   12.2847  -17.0304   20.8928 C   0  0  0  0  0  0  0  0  0  0  0  0
   13.3781  -16.6753   20.3491 O   0  0  0  0  0  0  0  0  0  0  0  0
   11.6468  -16.0533   21.7671 C   0  0  0  0  0  0  0  0  0  0  0  0
   10.3556  -16.5710   22.4214 C   0  0  2  0  0  0  0  0  0  0  0  0
    9.2247  -16.4158   21.5708 N   0  0  0  0  0  0  0  0  0  0  0  0
   10.2009  -15.9746   23.7564 C   0  0  0  0  0  0  0  0  0  0  0  0
   10.2460  -14.7122   23.8880 O   0  0  0  0  0  0  0  0  0  0  0  0
    7.3076  -11.8501   26.6661 C   0  0  0  0  0  0  0  0  0  0  0  0
    6.9538  -13.1162   25.3954 S   0  0  0  0  0  0  0  0  0  0  0  0
    8.3260  -14.2698   25.1943 C   0  0  0  0  0  0  0  0  0  0  0  0
    8.4429  -15.3373   26.2095 C   0  0  0  0  0  0  0  0  0  0  0  0
    9.6928  -16.0811   26.2476 C   0  0  2  0  0  0  0  0  0  0  0  0
    9.9982  -16.6999   24.9467 N   0  0  0  0  0  0  0  0  0  0  0  0
    9.8531  -17.0416   27.3237 C   0  0  0  0  0  0  0  0  0  0  0  0
    9.7234  -16.7172   28.5216 O   0  0  0  0  0  0  0  0  0  0  0  0
   10.1601  -18.3757   27.0589 O   0  0  0  0  0  0  0  0  0  0  0  0
  2  1  1  1
  2  3  1  0
  3  4  1  0
  4  5  2  0
  5  6  1  0
  7  6  2  0
  8  7  1  0
  9  8  2  0
  9  4  1  0
 10 11  2  0
 10  2  1  0
 13 15  1  0
 13 12  1  0
 14 13  2  0
 16 15  1  6
 16 17  1  0
 17 10  1  0
 18 16  1  0
 18 25  1  0
 19 18  2  0
 21 20  1  0
 22 21  1  0
 23 22  1  0
 24 23  1  6
 24 25  1  0
 26 28  1  0
 26 24  1  0
 27 26  2  0
M  END
$$$$
