KTP.pdb
     RDKit          3D

 24 24  0  0  1  0  0  0  0  0999 V2000
   14.5514  -23.4376   -0.3681 N   0  0  0  0  0  0  0  0  0  0  0  0
   14.1205  -23.2473    0.9543 C   0  0  1  0  0  0  0  0  0  0  0  0
   14.4852  -24.2108    2.0050 C   0  0  0  0  0  0  0  0  0  0  0  0
   15.5676  -25.1692    1.8829 C   0  0  0  0  0  0  0  0  0  0  0  0
   15.4580  -26.6079    1.7575 C   0  0  0  0  0  0  0  0  0  0  0  0
   16.6036  -27.5268    1.7498 C   0  0  0  0  0  0  0  0  0  0  0  0
   15.9907  -28.8966    1.5785 N   0  0  0  0  0  0  0  0  0  0  0  0
   14.5242  -21.8525    1.3682 C   0  0  0  0  0  0  0  0  0  0  0  0
   15.4625  -21.3038    0.7518 O   0  0  0  0  0  0  0  0  0  0  0  0
   13.1169  -17.7542    3.6671 C   0  0  0  0  0  0  0  0  0  0  0  0
   12.8676  -19.1045    3.0554 C   0  0  1  0  0  0  0  0  0  0  0  0
   12.2572  -18.8846    1.7939 O   0  0  0  0  0  0  0  0  0  0  0  0
   14.2169  -19.7836    2.7612 C   0  0  2  0  0  0  0  0  0  0  0  0
   13.8736  -21.1630    2.4220 N   0  0  0  0  0  0  0  0  0  0  0  0
   15.0326  -19.7386    4.0159 C   0  0  0  0  0  0  0  0  0  0  0  0
   14.5800  -20.3096    5.0211 O   0  0  0  0  0  0  0  0  0  0  0  0
   16.2527  -19.0689    4.0143 N   0  0  0  0  0  0  0  0  0  0  0  0
   17.0048  -18.6708    2.7791 C   0  0  0  0  0  0  0  0  0  0  0  0
   17.2619  -17.2336    3.0815 C   0  0  0  0  0  0  0  0  0  0  0  0
   17.3347  -17.1189    4.5879 C   0  0  0  0  0  0  0  0  0  0  0  0
   17.1092  -18.5733    5.0387 C   0  0  1  0  0  0  0  0  0  0  0  0
   16.6811  -18.6206    6.4252 C   0  0  0  0  0  0  0  0  0  0  0  0
   15.6376  -18.0030    7.0441 O   0  0  0  0  0  0  0  0  0  0  0  0
   17.4015  -19.3628    7.1970 O   0  0  0  0  0  0  0  0  0  0  0  0
  2  1  1  6
  3  2  1  0
  4  3  1  0
  5  4  1  0
  5  6  1  0
  7  6  1  0
  8  2  1  0
  8  9  2  0
 11 10  1  6
 11 13  1  0
 11 12  1  0
 13 14  1  1
 14  8  1  0
 15 13  1  0
 16 15  2  0
 17 15  1  0
 17 18  1  0
 19 18  1  0
 20 21  1  0
 20 19  1  0
 21 17  1  0
 21 22  1  1
 23 22  1  0
 24 22  2  0
M  END
$$$$
