KTP.pdb
     RDKit          3D

 24 24  0  0  1  0  0  0  0  0999 V2000
   27.0188  -23.6569  -16.0864 N   0  0  0  0  0  0  0  0  0  0  0  0
   26.8829  -22.3946  -15.4872 C   0  0  1  0  0  0  0  0  0  0  0  0
   26.8092  -21.1792  -16.3135 C   0  0  0  0  0  0  0  0  0  0  0  0
   27.6952  -20.9051  -17.4293 C   0  0  0  0  0  0  0  0  0  0  0  0
   28.8939  -21.6291  -17.7986 C   0  0  0  0  0  0  0  0  0  0  0  0
   29.7678  -21.2637  -18.9210 C   0  0  0  0  0  0  0  0  0  0  0  0
   30.8703  -22.2957  -18.8955 N   0  0  0  0  0  0  0  0  0  0  0  0
   25.6976  -22.4589  -14.5542 C   0  0  0  0  0  0  0  0  0  0  0  0
   25.0041  -23.4984  -14.5541 O   0  0  0  0  0  0  0  0  0  0  0  0
   25.6547  -21.5979  -10.8557 C   0  0  0  0  0  0  0  0  0  0  0  0
   24.6087  -20.7530  -11.5278 C   0  0  1  0  0  0  0  0  0  0  0  0
   25.2344  -19.5373  -11.9059 O   0  0  0  0  0  0  0  0  0  0  0  0
   24.1748  -21.4326  -12.8387 C   0  0  2  0  0  0  0  0  0  0  0  0
   25.3598  -21.3851  -13.6928 N   0  0  0  0  0  0  0  0  0  0  0  0
   23.0679  -20.6163  -13.4302 C   0  0  0  0  0  0  0  0  0  0  0  0
   23.2299  -19.3875  -13.5022 O   0  0  0  0  0  0  0  0  0  0  0  0
   21.9116  -21.2517  -13.8734 N   0  0  0  0  0  0  0  0  0  0  0  0
   21.7601  -22.7362  -14.0259 C   0  0  0  0  0  0  0  0  0  0  0  0
   20.4864  -22.9468  -13.2798 C   0  0  0  0  0  0  0  0  0  0  0  0
   19.6934  -21.6661  -13.4155 C   0  0  0  0  0  0  0  0  0  0  0  0
   20.6246  -20.7935  -14.2760 C   0  0  1  0  0  0  0  0  0  0  0  0
   20.2821  -19.3891  -14.1411 C   0  0  0  0  0  0  0  0  0  0  0  0
   20.9395  -18.3816  -13.5037 O   0  0  0  0  0  0  0  0  0  0  0  0
   19.1803  -19.0355  -14.7127 O   0  0  0  0  0  0  0  0  0  0  0  0
  2  1  1  6
  3  2  1  0
  4  3  1  0
  5  4  1  0
  5  6  1  0
  7  6  1  0
  8  2  1  0
  8  9  2  0
 11 10  1  6
 11 13  1  0
 11 12  1  0
 13 14  1  6
 14  8  1  0
 15 13  1  0
 16 15  2  0
 17 15  1  0
 17 18  1  0
 19 18  1  0
 20 21  1  0
 20 19  1  0
 21 17  1  0
 21 22  1  1
 23 22  1  0
 24 22  2  0
M  END
$$$$
