KTP.pdb
     RDKit          3D

 24 24  0  0  1  0  0  0  0  0999 V2000
   19.6501  -14.4483  -17.6363 N   0  0  0  0  0  0  0  0  0  0  0  0
   19.0568  -13.1936  -17.8467 C   0  0  1  0  0  0  0  0  0  0  0  0
   17.6312  -12.9818  -17.5497 C   0  0  0  0  0  0  0  0  0  0  0  0
   16.6917  -14.0559  -17.2876 C   0  0  0  0  0  0  0  0  0  0  0  0
   15.9924  -14.3296  -16.0492 C   0  0  0  0  0  0  0  0  0  0  0  0
   15.0313  -15.4251  -15.8671 C   0  0  0  0  0  0  0  0  0  0  0  0
   14.7069  -15.4045  -14.3921 N   0  0  0  0  0  0  0  0  0  0  0  0
   19.8945  -12.1669  -17.1229 C   0  0  0  0  0  0  0  0  0  0  0  0
   20.5115  -12.5273  -16.0978 O   0  0  0  0  0  0  0  0  0  0  0  0
   22.6181  -10.5401  -18.5870 C   0  0  0  0  0  0  0  0  0  0  0  0
   21.8167   -9.3804  -18.0650 C   0  0  1  0  0  0  0  0  0  0  0  0
   20.9580   -8.9612  -19.1134 O   0  0  0  0  0  0  0  0  0  0  0  0
   20.8964   -9.8701  -16.9328 C   0  0  2  0  0  0  0  0  0  0  0  0
   19.9954  -10.8265  -17.5726 N   0  0  0  0  0  0  0  0  0  0  0  0
   20.1319   -8.6878  -16.4237 C   0  0  0  0  0  0  0  0  0  0  0  0
   19.2545   -8.2060  -17.1582 O   0  0  0  0  0  0  0  0  0  0  0  0
   20.4250   -8.1756  -15.1632 N   0  0  0  0  0  0  0  0  0  0  0  0
   21.2264   -8.8923  -14.1172 C   0  0  0  0  0  0  0  0  0  0  0  0
   22.2096   -7.8277  -13.7663 C   0  0  0  0  0  0  0  0  0  0  0  0
   21.5165   -6.5061  -14.0127 C   0  0  0  0  0  0  0  0  0  0  0  0
   20.1260   -6.9511  -14.5001 C   0  0  1  0  0  0  0  0  0  0  0  0
   19.4683   -5.8783  -15.2243 C   0  0  0  0  0  0  0  0  0  0  0  0
   18.3305   -5.1899  -14.9328 O   0  0  0  0  0  0  0  0  0  0  0  0
   20.0495   -5.5180  -16.3189 O   0  0  0  0  0  0  0  0  0  0  0  0
  2  1  1  1
  3  2  1  0
  4  3  1  0
  5  4  1  0
  5  6  1  0
  7  6  1  0
  8  2  1  0
  8  9  2  0
 11 10  1  6
 11 13  1  0
 11 12  1  0
 13 14  1  6
 14  8  1  0
 15 13  1  0
 16 15  2  0
 17 15  1  0
 17 18  1  0
 19 18  1  0
 20 21  1  0
 20 19  1  0
 21 17  1  0
 21 22  1  6
 23 22  1  0
 24 22  2  0
M  END
$$$$
