KTP.pdb
     RDKit          3D

 24 24  0  0  1  0  0  0  0  0999 V2000
   18.8264  -21.6108  -12.6732 N   0  0  0  0  0  0  0  0  0  0  0  0
   20.0472  -21.3801  -13.3267 C   0  0  1  0  0  0  0  0  0  0  0  0
   20.8373  -22.5046  -13.8527 C   0  0  0  0  0  0  0  0  0  0  0  0
   20.3107  -23.8428  -14.0451 C   0  0  0  0  0  0  0  0  0  0  0  0
   19.3856  -24.2849  -15.0680 C   0  0  0  0  0  0  0  0  0  0  0  0
   19.7775  -25.0318  -16.2702 C   0  0  0  0  0  0  0  0  0  0  0  0
   18.5073  -25.1417  -17.0800 N   0  0  0  0  0  0  0  0  0  0  0  0
   19.7947  -20.3690  -14.4191 C   0  0  0  0  0  0  0  0  0  0  0  0
   18.6625  -20.3432  -14.9473 O   0  0  0  0  0  0  0  0  0  0  0  0
   18.2241  -18.2310  -14.8408 C   0  0  0  0  0  0  0  0  0  0  0  0
   19.5049  -17.4799  -15.0751 C   0  0  1  0  0  0  0  0  0  0  0  0
   20.0740  -17.2187  -13.8023 O   0  0  0  0  0  0  0  0  0  0  0  0
   20.5024  -18.3963  -15.8058 C   0  0  2  0  0  0  0  0  0  0  0  0
   20.7959  -19.4634  -14.8514 N   0  0  0  0  0  0  0  0  0  0  0  0
   21.7335  -17.5935  -16.0912 C   0  0  0  0  0  0  0  0  0  0  0  0
   22.2377  -16.9542  -15.1539 O   0  0  0  0  0  0  0  0  0  0  0  0
   22.2645  -17.5904  -17.3778 N   0  0  0  0  0  0  0  0  0  0  0  0
   21.7486  -18.4219  -18.5147 C   0  0  0  0  0  0  0  0  0  0  0  0
   21.6055  -17.3712  -19.5629 C   0  0  0  0  0  0  0  0  0  0  0  0
   22.6461  -16.3168  -19.2578 C   0  0  0  0  0  0  0  0  0  0  0  0
   23.3331  -16.8874  -18.0041 C   0  0  1  0  0  0  0  0  0  0  0  0
   24.0325  -15.8407  -17.2807 C   0  0  0  0  0  0  0  0  0  0  0  0
   25.3665  -15.6393  -17.0984 O   0  0  0  0  0  0  0  0  0  0  0  0
   23.2738  -14.9609  -16.7186 O   0  0  0  0  0  0  0  0  0  0  0  0
  2  1  1  6
  3  2  1  0
  4  3  1  0
  5  4  1  0
  5  6  1  0
  7  6  1  0
  8  2  1  0
  8  9  2  0
 11 10  1  1
 11 13  1  0
 11 12  1  0
 13 14  1  1
 14  8  1  0
 15 13  1  0
 16 15  2  0
 17 15  1  0
 17 18  1  0
 19 18  1  0
 20 21  1  0
 20 19  1  0
 21 17  1  0
 21 22  1  1
 23 22  1  0
 24 22  2  0
M  END
$$$$
