KTP.pdb
     RDKit          3D

 24 24  0  0  1  0  0  0  0  0999 V2000
   22.1915  -21.5551  -12.2651 N   0  0  0  0  0  0  0  0  0  0  0  0
   22.4456  -20.3954  -11.5159 C   0  0  1  0  0  0  0  0  0  0  0  0
   21.9620  -20.2796  -10.1310 C   0  0  0  0  0  0  0  0  0  0  0  0
   20.6108  -20.6070   -9.7162 C   0  0  0  0  0  0  0  0  0  0  0  0
   20.1487  -21.8448   -9.1231 C   0  0  0  0  0  0  0  0  0  0  0  0
   20.1299  -22.1134   -7.6794 C   0  0  0  0  0  0  0  0  0  0  0  0
   19.4759  -23.4690   -7.5537 N   0  0  0  0  0  0  0  0  0  0  0  0
   23.9321  -20.1362  -11.5687 C   0  0  0  0  0  0  0  0  0  0  0  0
   24.4131  -19.3028  -10.7715 O   0  0  0  0  0  0  0  0  0  0  0  0
   27.2548  -21.2939  -11.2659 C   0  0  0  0  0  0  0  0  0  0  0  0
   27.1203  -21.1256  -12.7536 C   0  0  1  0  0  0  0  0  0  0  0  0
   26.7253  -22.3816  -13.2814 O   0  0  0  0  0  0  0  0  0  0  0  0
   25.9616  -20.1572  -13.0506 C   0  0  2  0  0  0  0  0  0  0  0  0
   24.7799  -20.8060  -12.4861 N   0  0  0  0  0  0  0  0  0  0  0  0
   25.8362  -20.0395  -14.5379 C   0  0  0  0  0  0  0  0  0  0  0  0
   25.3332  -20.9931  -15.1535 O   0  0  0  0  0  0  0  0  0  0  0  0
   26.2803  -18.8828  -15.1718 N   0  0  0  0  0  0  0  0  0  0  0  0
   26.6591  -17.6152  -14.4648 C   0  0  0  0  0  0  0  0  0  0  0  0
   27.9935  -17.3617  -15.0798 C   0  0  0  0  0  0  0  0  0  0  0  0
   27.9475  -17.9631  -16.4668 C   0  0  0  0  0  0  0  0  0  0  0  0
   26.5178  -18.5299  -16.5311 C   0  0  1  0  0  0  0  0  0  0  0  0
   26.4118  -19.5391  -17.5694 C   0  0  0  0  0  0  0  0  0  0  0  0
   26.9519  -20.7868  -17.6406 O   0  0  0  0  0  0  0  0  0  0  0  0
   25.6944  -19.2045  -18.5888 O   0  0  0  0  0  0  0  0  0  0  0  0
  2  1  1  1
  3  2  1  0
  4  3  1  0
  5  4  1  0
  5  6  1  0
  7  6  1  0
  8  2  1  0
  8  9  2  0
 11 10  1  1
 11 13  1  0
 11 12  1  0
 13 14  1  6
 14  8  1  0
 15 13  1  0
 16 15  2  0
 17 15  1  0
 17 18  1  0
 19 18  1  0
 20 21  1  0
 20 19  1  0
 21 17  1  0
 21 22  1  6
 23 22  1  0
 24 22  2  0
M  END
$$$$
