KTP.pdb
     RDKit          3D

 24 24  0  0  1  0  0  0  0  0999 V2000
   25.4062  -21.2052   -9.4422 N   0  0  0  0  0  0  0  0  0  0  0  0
   24.8077  -20.8837  -10.6707 C   0  0  1  0  0  0  0  0  0  0  0  0
   23.5928  -20.0547  -10.7159 C   0  0  0  0  0  0  0  0  0  0  0  0
   22.3564  -20.4661  -11.3538 C   0  0  0  0  0  0  0  0  0  0  0  0
   22.1909  -20.9944  -12.6921 C   0  0  0  0  0  0  0  0  0  0  0  0
   20.8913  -21.2819  -13.3127 C   0  0  0  0  0  0  0  0  0  0  0  0
   20.1393  -22.0744  -12.2698 N   0  0  0  0  0  0  0  0  0  0  0  0
   25.8758  -20.2856  -11.5545 C   0  0  0  0  0  0  0  0  0  0  0  0
   26.9479  -19.9270  -11.0220 O   0  0  0  0  0  0  0  0  0  0  0  0
   28.1670  -21.1371  -12.2035 C   0  0  0  0  0  0  0  0  0  0  0  0
   27.7664  -21.0540  -13.6499 C   0  0  1  0  0  0  0  0  0  0  0  0
   26.9990  -22.2119  -13.9373 O   0  0  0  0  0  0  0  0  0  0  0  0
   26.8182  -19.8575  -13.8445 C   0  0  2  0  0  0  0  0  0  0  0  0
   25.6931  -20.1248  -12.9509 N   0  0  0  0  0  0  0  0  0  0  0  0
   26.3676  -19.8610  -15.2722 C   0  0  0  0  0  0  0  0  0  0  0  0
   25.8502  -20.8999  -15.7132 O   0  0  0  0  0  0  0  0  0  0  0  0
   26.5402  -18.7172  -16.0462 N   0  0  0  0  0  0  0  0  0  0  0  0
   27.0343  -17.4009  -15.5234 C   0  0  0  0  0  0  0  0  0  0  0  0
   28.1150  -17.1167  -16.5106 C   0  0  0  0  0  0  0  0  0  0  0  0
   27.7022  -17.7860  -17.8026 C   0  0  0  0  0  0  0  0  0  0  0  0
   26.3511  -18.4201  -17.4262 C   0  0  1  0  0  0  0  0  0  0  0  0
   26.0061  -19.4822  -18.3541 C   0  0  0  0  0  0  0  0  0  0  0  0
   26.1526  -20.8309  -18.2396 O   0  0  0  0  0  0  0  0  0  0  0  0
   25.4784  -19.0907  -19.4649 O   0  0  0  0  0  0  0  0  0  0  0  0
  2  1  1  1
  3  2  1  0
  4  3  1  0
  5  4  1  0
  5  6  1  0
  7  6  1  0
  8  2  1  0
  8  9  2  0
 11 10  1  1
 11 13  1  0
 11 12  1  0
 13 14  1  1
 14  8  1  0
 15 13  1  0
 16 15  2  0
 17 15  1  0
 17 18  1  0
 19 18  1  0
 20 21  1  0
 20 19  1  0
 21 17  1  0
 21 22  1  6
 23 22  1  0
 24 22  2  0
M  END
$$$$
