KTP.pdb
     RDKit          3D

 24 24  0  0  1  0  0  0  0  0999 V2000
   15.2504   -6.4906   -7.4518 N   0  0  0  0  0  0  0  0  0  0  0  0
   15.1241   -6.4154   -8.8480 C   0  0  1  0  0  0  0  0  0  0  0  0
   14.8861   -5.1220   -9.5082 C   0  0  0  0  0  0  0  0  0  0  0  0
   13.6746   -4.3408   -9.3433 C   0  0  0  0  0  0  0  0  0  0  0  0
   12.3074   -4.8129   -9.4160 C   0  0  0  0  0  0  0  0  0  0  0  0
   11.1266   -3.9512   -9.2748 C   0  0  0  0  0  0  0  0  0  0  0  0
    9.9536   -4.8718   -9.5149 N   0  0  0  0  0  0  0  0  0  0  0  0
   16.3329   -7.0898   -9.4512 C   0  0  0  0  0  0  0  0  0  0  0  0
   17.3891   -7.1117   -8.7839 O   0  0  0  0  0  0  0  0  0  0  0  0
   16.7748  -10.5628  -10.7885 C   0  0  0  0  0  0  0  0  0  0  0  0
   17.0389   -9.6107  -11.9214 C   0  0  1  0  0  0  0  0  0  0  0  0
   15.7956   -9.3663  -12.5592 O   0  0  0  0  0  0  0  0  0  0  0  0
   17.4954   -8.2571  -11.3489 C   0  0  2  0  0  0  0  0  0  0  0  0
   16.2968   -7.6889  -10.7353 N   0  0  0  0  0  0  0  0  0  0  0  0
   17.9516   -7.4084  -12.4948 C   0  0  0  0  0  0  0  0  0  0  0  0
   17.1119   -7.0972  -13.3547 O   0  0  0  0  0  0  0  0  0  0  0  0
   19.2813   -7.0022  -12.5576 N   0  0  0  0  0  0  0  0  0  0  0  0
   20.2538   -7.0896  -11.4189 C   0  0  0  0  0  0  0  0  0  0  0  0
   21.3906   -7.7749  -12.0981 C   0  0  0  0  0  0  0  0  0  0  0  0
   21.3226   -7.3758  -13.5555 C   0  0  0  0  0  0  0  0  0  0  0  0
   20.0970   -6.4451  -13.5836 C   0  0  1  0  0  0  0  0  0  0  0  0
   19.5772   -6.3213  -14.9336 C   0  0  0  0  0  0  0  0  0  0  0  0
   19.8549   -5.4051  -15.9015 O   0  0  0  0  0  0  0  0  0  0  0  0
   18.7140   -7.2185  -15.2738 O   0  0  0  0  0  0  0  0  0  0  0  0
  2  1  1  1
  3  2  1  0
  4  3  1  0
  5  4  1  0
  5  6  1  0
  7  6  1  0
  8  2  1  0
  8  9  2  0
 11 10  1  1
 11 13  1  0
 11 12  1  0
 13 14  1  6
 14  8  1  0
 15 13  1  0
 16 15  2  0
 17 15  1  0
 17 18  1  0
 19 18  1  0
 20 21  1  0
 20 19  1  0
 21 17  1  0
 21 22  1  6
 23 22  1  0
 24 22  2  0
M  END
$$$$
