KTP.pdb
     RDKit          3D

 24 24  0  0  1  0  0  0  0  0999 V2000
   26.1679  -22.5744  -11.9450 N   0  0  0  0  0  0  0  0  0  0  0  0
   25.3220  -21.4773  -12.1724 C   0  0  1  0  0  0  0  0  0  0  0  0
   24.5293  -20.9045  -11.0728 C   0  0  0  0  0  0  0  0  0  0  0  0
   23.0834  -20.7862  -11.0947 C   0  0  0  0  0  0  0  0  0  0  0  0
   22.2111  -20.8774  -12.2471 C   0  0  0  0  0  0  0  0  0  0  0  0
   20.7472  -20.7773  -12.1860 C   0  0  0  0  0  0  0  0  0  0  0  0
   20.3193  -21.9667  -11.3593 N   0  0  0  0  0  0  0  0  0  0  0  0
   26.1445  -20.3980  -12.8345 C   0  0  0  0  0  0  0  0  0  0  0  0
   27.2863  -20.1672  -12.3825 O   0  0  0  0  0  0  0  0  0  0  0  0
   28.4037  -20.2540  -14.0762 C   0  0  0  0  0  0  0  0  0  0  0  0
   27.6516  -19.6613  -15.2349 C   0  0  1  0  0  0  0  0  0  0  0  0
   27.0065  -20.7322  -15.9050 O   0  0  0  0  0  0  0  0  0  0  0  0
   26.5273  -18.7572  -14.6991 C   0  0  2  0  0  0  0  0  0  0  0  0
   25.6589  -19.6538  -13.9388 N   0  0  0  0  0  0  0  0  0  0  0  0
   25.7965  -18.1923  -15.8774 C   0  0  0  0  0  0  0  0  0  0  0  0
   25.4441  -18.9787  -16.7711 O   0  0  0  0  0  0  0  0  0  0  0  0
   25.5398  -16.8254  -15.9313 N   0  0  0  0  0  0  0  0  0  0  0  0
   25.7277  -15.8771  -14.7844 C   0  0  0  0  0  0  0  0  0  0  0  0
   26.5380  -14.8179  -15.4513 C   0  0  0  0  0  0  0  0  0  0  0  0
   26.1419  -14.8304  -16.9110 C   0  0  0  0  0  0  0  0  0  0  0  0
   25.0817  -15.9456  -16.9533 C   0  0  1  0  0  0  0  0  0  0  0  0
   24.9088  -16.4384  -18.3080 C   0  0  0  0  0  0  0  0  0  0  0  0
   23.8281  -16.3780  -19.1337 O   0  0  0  0  0  0  0  0  0  0  0  0
   25.9392  -17.0292  -18.8128 O   0  0  0  0  0  0  0  0  0  0  0  0
  2  1  1  1
  3  2  1  0
  4  3  1  0
  5  4  1  0
  5  6  1  0
  7  6  1  0
  8  2  1  0
  8  9  2  0
 11 10  1  1
 11 13  1  0
 11 12  1  0
 13 14  1  1
 14  8  1  0
 15 13  1  0
 16 15  2  0
 17 15  1  0
 17 18  1  0
 19 18  1  0
 20 21  1  0
 20 19  1  0
 21 17  1  0
 21 22  1  6
 23 22  1  0
 24 22  2  0
M  END
$$$$
