KTP.pdb
     RDKit          3D

 24 24  0  0  1  0  0  0  0  0999 V2000
   19.0598  -14.0036  -16.2710 N   0  0  0  0  0  0  0  0  0  0  0  0
   18.8103  -12.6859  -16.6861 C   0  0  1  0  0  0  0  0  0  0  0  0
   17.4511  -12.1261  -16.6193 C   0  0  0  0  0  0  0  0  0  0  0  0
   16.2480  -12.8888  -16.8949 C   0  0  0  0  0  0  0  0  0  0  0  0
   15.2974  -13.4091  -15.9341 C   0  0  0  0  0  0  0  0  0  0  0  0
   14.0996  -14.1805  -16.2906 C   0  0  0  0  0  0  0  0  0  0  0  0
   13.5395  -14.6455  -14.9673 N   0  0  0  0  0  0  0  0  0  0  0  0
   19.7770  -11.7871  -15.9531 C   0  0  0  0  0  0  0  0  0  0  0  0
   20.0234  -12.0405  -14.7546 O   0  0  0  0  0  0  0  0  0  0  0  0
   23.0104  -11.7313  -16.1845 C   0  0  0  0  0  0  0  0  0  0  0  0
   22.7443  -10.2884  -16.5109 C   0  0  1  0  0  0  0  0  0  0  0  0
   22.5707  -10.2039  -17.9162 O   0  0  0  0  0  0  0  0  0  0  0  0
   21.3995   -9.8690  -15.8912 C   0  0  2  0  0  0  0  0  0  0  0  0
   20.4010  -10.6814  -16.5833 N   0  0  0  0  0  0  0  0  0  0  0  0
   21.1936   -8.4165  -16.1898 C   0  0  0  0  0  0  0  0  0  0  0  0
   21.0093   -8.0894  -17.3733 O   0  0  0  0  0  0  0  0  0  0  0  0
   21.2147   -7.4946  -15.1473 N   0  0  0  0  0  0  0  0  0  0  0  0
   21.2486   -7.8550  -13.6916 C   0  0  0  0  0  0  0  0  0  0  0  0
   22.3898   -7.0086  -13.2394 C   0  0  0  0  0  0  0  0  0  0  0  0
   22.4157   -5.8016  -14.1506 C   0  0  0  0  0  0  0  0  0  0  0  0
   21.2238   -6.0717  -15.0864 C   0  0  1  0  0  0  0  0  0  0  0  0
   21.3441   -5.2963  -16.3079 C   0  0  0  0  0  0  0  0  0  0  0  0
   22.3652   -5.2235  -17.2055 O   0  0  0  0  0  0  0  0  0  0  0  0
   20.3252   -4.5564  -16.5909 O   0  0  0  0  0  0  0  0  0  0  0  0
  2  1  1  1
  3  2  1  0
  4  3  1  0
  5  4  1  0
  5  6  1  0
  7  6  1  0
  8  2  1  0
  8  9  2  0
 11 10  1  6
 11 13  1  0
 11 12  1  0
 13 14  1  6
 14  8  1  0
 15 13  1  0
 16 15  2  0
 17 15  1  0
 17 18  1  0
 19 18  1  0
 20 21  1  0
 20 19  1  0
 21 17  1  0
 21 22  1  6
 23 22  1  0
 24 22  2  0
M  END
$$$$
