KTP.pdb
     RDKit          3D

 24 24  0  0  1  0  0  0  0  0999 V2000
   19.2686  -13.5638  -17.0243 N   0  0  0  0  0  0  0  0  0  0  0  0
   19.6744  -12.3315  -17.5605 C   0  0  1  0  0  0  0  0  0  0  0  0
   18.7086  -11.4636  -18.2530 C   0  0  0  0  0  0  0  0  0  0  0  0
   17.8485  -11.9109  -19.3324 C   0  0  0  0  0  0  0  0  0  0  0  0
   16.4830  -12.3826  -19.2305 C   0  0  0  0  0  0  0  0  0  0  0  0
   15.6403  -12.7306  -20.3819 C   0  0  0  0  0  0  0  0  0  0  0  0
   14.3515  -13.2295  -19.7725 N   0  0  0  0  0  0  0  0  0  0  0  0
   20.3659  -11.5622  -16.4606 C   0  0  0  0  0  0  0  0  0  0  0  0
   20.0140  -11.7769  -15.2810 O   0  0  0  0  0  0  0  0  0  0  0  0
   23.6184  -11.6611  -15.2639 C   0  0  0  0  0  0  0  0  0  0  0  0
   23.4864  -10.2245  -15.6862 C   0  0  1  0  0  0  0  0  0  0  0  0
   23.8939  -10.1494  -17.0428 O   0  0  0  0  0  0  0  0  0  0  0  0
   22.0001   -9.8259  -15.6669 C   0  0  2  0  0  0  0  0  0  0  0  0
   21.3881  -10.6183  -16.7315 N   0  0  0  0  0  0  0  0  0  0  0  0
   21.9160   -8.3652  -15.9847 C   0  0  0  0  0  0  0  0  0  0  0  0
   22.1729   -8.0100  -17.1462 O   0  0  0  0  0  0  0  0  0  0  0  0
   21.5578   -7.4674  -14.9833 N   0  0  0  0  0  0  0  0  0  0  0  0
   21.0220   -7.8600  -13.6384 C   0  0  0  0  0  0  0  0  0  0  0  0
   21.9225   -7.0641  -12.7559 C   0  0  0  0  0  0  0  0  0  0  0  0
   22.3250   -5.8394  -13.5470 C   0  0  0  0  0  0  0  0  0  0  0  0
   21.5772   -6.0473  -14.8762 C   0  0  1  0  0  0  0  0  0  0  0  0
   22.1755   -5.2505  -15.9321 C   0  0  0  0  0  0  0  0  0  0  0  0
   23.1434   -5.5715  -16.8341 O   0  0  0  0  0  0  0  0  0  0  0  0
   21.7226   -4.0463  -16.0346 O   0  0  0  0  0  0  0  0  0  0  0  0
  2  1  1  1
  3  2  1  0
  4  3  1  0
  5  4  1  0
  5  6  1  0
  7  6  1  0
  8  2  1  0
  8  9  2  0
 11 10  1  6
 11 13  1  0
 11 12  1  0
 13 14  1  6
 14  8  1  0
 15 13  1  0
 16 15  2  0
 17 15  1  0
 17 18  1  0
 19 18  1  0
 20 21  1  0
 20 19  1  0
 21 17  1  0
 21 22  1  6
 23 22  1  0
 24 22  2  0
M  END
$$$$
