YPK.pdb
     RDKit          3D

 29 30  0  0  1  0  0  0  0  0999 V2000
   31.0117  -16.3484  -18.3971 O   0  0  0  0  0  0  0  0  0  0  0  0
   29.9653  -16.9595  -17.6986 C   0  0  0  0  0  0  0  0  0  0  0  0
   28.6522  -16.8118  -18.0814 C   0  0  0  0  0  0  0  0  0  0  0  0
   27.6346  -17.4330  -17.3650 C   0  0  0  0  0  0  0  0  0  0  0  0
   27.9065  -18.2095  -16.2586 C   0  0  0  0  0  0  0  0  0  0  0  0
   26.8473  -18.8827  -15.4759 C   0  0  0  0  0  0  0  0  0  0  0  0
   27.1614  -20.3366  -15.2070 C   0  0  2  0  0  0  0  0  0  0  0  0
   27.4660  -20.9796  -16.4781 N   0  0  0  0  0  0  0  0  0  0  0  0
   25.9209  -20.9444  -14.6139 C   0  0  0  0  0  0  0  0  0  0  0  0
   24.9342  -21.0760  -15.3647 O   0  0  0  0  0  0  0  0  0  0  0  0
   29.2315  -18.3397  -15.8982 C   0  0  0  0  0  0  0  0  0  0  0  0
   30.2555  -17.7293  -16.5989 C   0  0  0  0  0  0  0  0  0  0  0  0
   25.8484  -21.3567  -13.2740 N   0  0  0  0  0  0  0  0  0  0  0  0
   26.9499  -22.0453  -12.5254 C   0  0  0  0  0  0  0  0  0  0  0  0
   27.0668  -21.1028  -11.3530 C   0  0  0  0  0  0  0  0  0  0  0  0
   25.6282  -20.6064  -11.1401 C   0  0  0  0  0  0  0  0  0  0  0  0
   24.8611  -21.3301  -12.2401 C   0  0  1  0  0  0  0  0  0  0  0  0
   23.5583  -20.7790  -12.4947 C   0  0  0  0  0  0  0  0  0  0  0  0
   23.1903  -19.6132  -12.6704 O   0  0  0  0  0  0  0  0  0  0  0  0
   22.4660  -21.7468  -12.5612 N   0  0  0  0  0  0  0  0  0  0  0  0
   21.1142  -21.3414  -12.7462 C   0  0  1  0  0  0  0  0  0  0  0  0
   20.3786  -22.4461  -13.4725 C   0  0  0  0  0  0  0  0  0  0  0  0
   18.9410  -22.0686  -13.7568 C   0  0  0  0  0  0  0  0  0  0  0  0
   18.3012  -23.2106  -14.5211 C   0  0  0  0  0  0  0  0  0  0  0  0
   16.8461  -22.9255  -14.8229 C   0  0  0  0  0  0  0  0  0  0  0  0
   16.3227  -24.0947  -15.5297 N   0  0  0  0  0  0  0  0  0  0  0  0
   20.4031  -21.0319  -11.4896 C   0  0  0  0  0  0  0  0  0  0  0  0
   19.4015  -20.0719  -11.5487 O   0  0  0  0  0  0  0  0  0  0  0  0
   20.6321  -21.5642  -10.3849 O   0  0  0  0  0  0  0  0  0  0  0  0
  2  3  2  0
  2  1  1  0
  4  3  1  0
  5  4  2  0
  6  5  1  0
  7  6  1  0
  7  8  1  6
  9  7  1  0
 10  9  2  0
 11  5  1  0
 11 12  2  0
 12  2  1  0
 13 17  1  0
 13  9  1  0
 14 15  1  0
 14 13  1  0
 15 16  1  0
 17 16  1  0
 18 20  1  0
 17 18  1  6
 19 18  2  0
 21 27  1  0
 21 20  1  0
 21 22  1  1
 23 22  1  0
 24 23  1  0
 25 24  1  0
 25 26  1  0
 27 28  1  0
 29 27  2  0
M  END
$$$$
