YPK.pdb
     RDKit          3D

 29 30  0  0  1  0  0  0  0  0999 V2000
   20.0269  -18.3129  -16.9208 O   0  0  0  0  0  0  0  0  0  0  0  0
   20.9468  -18.6465  -15.9214 C   0  0  0  0  0  0  0  0  0  0  0  0
   22.1978  -18.0769  -15.8657 C   0  0  0  0  0  0  0  0  0  0  0  0
   23.0894  -18.4305  -14.8585 C   0  0  0  0  0  0  0  0  0  0  0  0
   22.7515  -19.3544  -13.8924 C   0  0  0  0  0  0  0  0  0  0  0  0
   23.6768  -19.7515  -12.8090 C   0  0  0  0  0  0  0  0  0  0  0  0
   24.8868  -20.4963  -13.3248 C   0  0  2  0  0  0  0  0  0  0  0  0
   24.4299  -21.5168  -14.2585 N   0  0  0  0  0  0  0  0  0  0  0  0
   25.5328  -21.1488  -12.1344 C   0  0  0  0  0  0  0  0  0  0  0  0
   24.7825  -21.7214  -11.3197 O   0  0  0  0  0  0  0  0  0  0  0  0
   21.4911  -19.9088  -13.9732 C   0  0  0  0  0  0  0  0  0  0  0  0
   20.5923  -19.5689  -14.9676 C   0  0  0  0  0  0  0  0  0  0  0  0
   26.9206  -21.1305  -11.9238 N   0  0  0  0  0  0  0  0  0  0  0  0
   27.9426  -21.6662  -12.8810 C   0  0  0  0  0  0  0  0  0  0  0  0
   28.7956  -20.4312  -13.0349 C   0  0  0  0  0  0  0  0  0  0  0  0
   28.7109  -19.7562  -11.6571 C   0  0  0  0  0  0  0  0  0  0  0  0
   27.7986  -20.6986  -10.8813 C   0  0  1  0  0  0  0  0  0  0  0  0
   27.2666  -20.1253   -9.6754 C   0  0  0  0  0  0  0  0  0  0  0  0
   26.6624  -19.0665   -9.4779 O   0  0  0  0  0  0  0  0  0  0  0  0
   27.4633  -20.9143   -8.4617 N   0  0  0  0  0  0  0  0  0  0  0  0
   27.1474  -20.4000   -7.1727 C   0  0  1  0  0  0  0  0  0  0  0  0
   26.5791  -21.5245   -6.3350 C   0  0  0  0  0  0  0  0  0  0  0  0
   26.2098  -21.0552   -4.9446 C   0  0  0  0  0  0  0  0  0  0  0  0
   25.6390  -22.2388   -4.1890 C   0  0  0  0  0  0  0  0  0  0  0  0
   25.2617  -21.8596   -2.7735 C   0  0  0  0  0  0  0  0  0  0  0  0
   24.7920  -23.0807   -2.1185 N   0  0  0  0  0  0  0  0  0  0  0  0
   28.2988  -19.8045   -6.4654 C   0  0  0  0  0  0  0  0  0  0  0  0
   28.0894  -18.5905   -5.8247 O   0  0  0  0  0  0  0  0  0  0  0  0
   29.4391  -20.3061   -6.3999 O   0  0  0  0  0  0  0  0  0  0  0  0
  2  3  2  0
  2  1  1  0
  4  3  1  0
  5  4  2  0
  6  5  1  0
  7  6  1  0
  7  8  1  6
  9  7  1  0
 10  9  2  0
 11  5  1  0
 11 12  2  0
 12  2  1  0
 13 17  1  0
 13  9  1  0
 14 15  1  0
 14 13  1  0
 15 16  1  0
 17 16  1  0
 18 20  1  0
 17 18  1  1
 19 18  2  0
 21 27  1  0
 21 20  1  0
 21 22  1  1
 23 22  1  0
 24 23  1  0
 25 24  1  0
 25 26  1  0
 27 28  1  0
 29 27  2  0
M  END
$$$$
