YPK.pdb
     RDKit          3D

 29 30  0  0  1  0  0  0  0  0999 V2000
   20.4172  -21.1848   -7.8190 O   0  0  0  0  0  0  0  0  0  0  0  0
   21.4648  -21.3448   -8.7318 C   0  0  0  0  0  0  0  0  0  0  0  0
   22.7533  -21.5986   -8.3221 C   0  0  0  0  0  0  0  0  0  0  0  0
   23.7727  -21.7526   -9.2557 C   0  0  0  0  0  0  0  0  0  0  0  0
   23.5272  -21.6567  -10.6090 C   0  0  0  0  0  0  0  0  0  0  0  0
   24.5891  -21.8152  -11.6264 C   0  0  0  0  0  0  0  0  0  0  0  0
   25.7927  -20.9443  -11.3476 C   0  0  2  0  0  0  0  0  0  0  0  0
   25.5226  -20.1643  -10.1473 N   0  0  0  0  0  0  0  0  0  0  0  0
   25.9442  -20.0255  -12.5278 C   0  0  0  0  0  0  0  0  0  0  0  0
   24.9683  -19.3073  -12.8216 O   0  0  0  0  0  0  0  0  0  0  0  0
   22.2265  -21.4017  -10.9905 C   0  0  0  0  0  0  0  0  0  0  0  0
   21.2009  -21.2458  -10.0760 C   0  0  0  0  0  0  0  0  0  0  0  0
   27.1243  -19.9574  -13.2853 N   0  0  0  0  0  0  0  0  0  0  0  0
   28.4994  -19.7662  -12.7193 C   0  0  0  0  0  0  0  0  0  0  0  0
   29.1757  -20.9718  -13.3240 C   0  0  0  0  0  0  0  0  0  0  0  0
   28.4722  -21.1423  -14.6794 C   0  0  0  0  0  0  0  0  0  0  0  0
   27.4607  -20.0025  -14.6741 C   0  0  1  0  0  0  0  0  0  0  0  0
   26.4301  -20.1400  -15.6665 C   0  0  0  0  0  0  0  0  0  0  0  0
   25.7793  -21.1247  -16.0297 O   0  0  0  0  0  0  0  0  0  0  0  0
   26.0753  -18.9162  -16.3811 N   0  0  0  0  0  0  0  0  0  0  0  0
   25.0243  -18.8851  -17.3403 C   0  0  1  0  0  0  0  0  0  0  0  0
   23.7495  -18.4685  -16.6400 C   0  0  0  0  0  0  0  0  0  0  0  0
   22.5486  -18.5721  -17.5549 C   0  0  0  0  0  0  0  0  0  0  0  0
   21.3167  -18.2059  -16.7511 C   0  0  0  0  0  0  0  0  0  0  0  0
   20.0583  -18.3332  -17.5816 C   0  0  0  0  0  0  0  0  0  0  0  0
   18.9361  -17.9968  -16.7051 N   0  0  0  0  0  0  0  0  0  0  0  0
   25.2734  -17.9724  -18.4741 C   0  0  0  0  0  0  0  0  0  0  0  0
   24.7921  -18.3610  -19.7174 O   0  0  0  0  0  0  0  0  0  0  0  0
   25.8798  -16.8848  -18.4008 O   0  0  0  0  0  0  0  0  0  0  0  0
  2  3  2  0
  2  1  1  0
  4  3  1  0
  5  4  2  0
  6  5  1  0
  7  6  1  0
  7  8  1  1
  9  7  1  0
 10  9  2  0
 11  5  1  0
 11 12  2  0
 12  2  1  0
 13 17  1  0
 13  9  1  0
 14 15  1  0
 14 13  1  0
 15 16  1  0
 17 16  1  0
 18 20  1  0
 17 18  1  6
 19 18  2  0
 21 27  1  0
 21 20  1  0
 21 22  1  1
 23 22  1  0
 24 23  1  0
 25 24  1  0
 25 26  1  0
 27 28  1  0
 29 27  2  0
M  END
$$$$
