YPK.pdb
     RDKit          3D

 29 30  0  0  1  0  0  0  0  0999 V2000
   20.8562  -12.7638  -20.2397 O   0  0  0  0  0  0  0  0  0  0  0  0
   21.3462  -13.8376  -19.4892 C   0  0  0  0  0  0  0  0  0  0  0  0
   20.9894  -15.1378  -19.7621 C   0  0  0  0  0  0  0  0  0  0  0  0
   21.4946  -16.1833  -18.9964 C   0  0  0  0  0  0  0  0  0  0  0  0
   22.3611  -15.9525  -17.9491 C   0  0  0  0  0  0  0  0  0  0  0  0
   22.9153  -17.0421  -17.1163 C   0  0  0  0  0  0  0  0  0  0  0  0
   24.2586  -17.5249  -17.6134 C   0  0  2  0  0  0  0  0  0  0  0  0
   24.0725  -18.1091  -18.9347 N   0  0  0  0  0  0  0  0  0  0  0  0
   24.7214  -18.5824  -16.6503 C   0  0  0  0  0  0  0  0  0  0  0  0
   24.0398  -19.6238  -16.5746 O   0  0  0  0  0  0  0  0  0  0  0  0
   22.7013  -14.6394  -17.6987 C   0  0  0  0  0  0  0  0  0  0  0  0
   22.2085  -13.5881  -18.4497 C   0  0  0  0  0  0  0  0  0  0  0  0
   25.8699  -18.4312  -15.8573 N   0  0  0  0  0  0  0  0  0  0  0  0
   27.1796  -17.8814  -16.3369 C   0  0  0  0  0  0  0  0  0  0  0  0
   27.3583  -16.7754  -15.3262 C   0  0  0  0  0  0  0  0  0  0  0  0
   26.7132  -17.3399  -14.0509 C   0  0  0  0  0  0  0  0  0  0  0  0
   26.2308  -18.7130  -14.5028 C   0  0  1  0  0  0  0  0  0  0  0  0
   25.2799  -19.3146  -13.6086 C   0  0  0  0  0  0  0  0  0  0  0  0
   24.2535  -18.8626  -13.0913 O   0  0  0  0  0  0  0  0  0  0  0  0
   25.5553  -20.6994  -13.2334 N   0  0  0  0  0  0  0  0  0  0  0  0
   24.7679  -21.3859  -12.2667 C   0  0  1  0  0  0  0  0  0  0  0  0
   24.2033  -22.6342  -12.9088 C   0  0  0  0  0  0  0  0  0  0  0  0
   25.0986  -23.1487  -14.0149 C   0  0  0  0  0  0  0  0  0  0  0  0
   24.4400  -24.3746  -14.6159 C   0  0  0  0  0  0  0  0  0  0  0  0
   25.2592  -24.9373  -15.7569 C   0  0  0  0  0  0  0  0  0  0  0  0
   24.5674  -26.1393  -16.2230 N   0  0  0  0  0  0  0  0  0  0  0  0
   25.5095  -21.7629  -11.0467 C   0  0  0  0  0  0  0  0  0  0  0  0
   24.7598  -22.1603   -9.9474 O   0  0  0  0  0  0  0  0  0  0  0  0
   26.7513  -21.7518  -10.9288 O   0  0  0  0  0  0  0  0  0  0  0  0
  2  3  2  0
  2  1  1  0
  4  3  1  0
  5  4  2  0
  6  5  1  0
  7  6  1  0
  7  8  1  6
  9  7  1  0
 10  9  2  0
 11  5  1  0
 11 12  2  0
 12  2  1  0
 13 17  1  0
 13  9  1  0
 14 15  1  0
 14 13  1  0
 15 16  1  0
 17 16  1  0
 18 20  1  0
 17 18  1  1
 19 18  2  0
 21 27  1  0
 21 20  1  0
 21 22  1  6
 23 22  1  0
 24 23  1  0
 25 24  1  0
 25 26  1  0
 27 28  1  0
 29 27  2  0
M  END
$$$$
