YPK.pdb
     RDKit          3D

 29 30  0  0  1  0  0  0  0  0999 V2000
   28.5179  -19.9768   -6.8247 O   0  0  0  0  0  0  0  0  0  0  0  0
   27.6194  -20.3891   -7.8142 C   0  0  0  0  0  0  0  0  0  0  0  0
   26.2666  -20.1633   -7.7070 C   0  0  0  0  0  0  0  0  0  0  0  0
   25.3995  -20.5862   -8.7090 C   0  0  0  0  0  0  0  0  0  0  0  0
   25.8634  -21.2390   -9.8313 C   0  0  0  0  0  0  0  0  0  0  0  0
   24.9675  -21.7012  -10.9137 C   0  0  0  0  0  0  0  0  0  0  0  0
   25.3926  -21.1951  -12.2730 C   0  0  2  0  0  0  0  0  0  0  0  0
   25.5609  -19.7505  -12.1893 N   0  0  0  0  0  0  0  0  0  0  0  0
   24.2761  -21.5226  -13.2250 C   0  0  0  0  0  0  0  0  0  0  0  0
   23.1624  -21.0103  -12.9972 O   0  0  0  0  0  0  0  0  0  0  0  0
   27.2239  -21.4515   -9.9117 C   0  0  0  0  0  0  0  0  0  0  0  0
   28.1001  -21.0379   -8.9251 C   0  0  0  0  0  0  0  0  0  0  0  0
   24.4516  -22.3665  -14.3331 N   0  0  0  0  0  0  0  0  0  0  0  0
   25.4950  -22.1861  -15.3944 C   0  0  0  0  0  0  0  0  0  0  0  0
   26.1510  -23.5427  -15.3169 C   0  0  0  0  0  0  0  0  0  0  0  0
   24.9949  -24.4856  -14.9488 C   0  0  0  0  0  0  0  0  0  0  0  0
   23.8087  -23.5340  -14.8507 C   0  0  1  0  0  0  0  0  0  0  0  0
   22.6713  -24.0960  -14.1752 C   0  0  0  0  0  0  0  0  0  0  0  0
   22.4965  -24.3923  -12.9891 O   0  0  0  0  0  0  0  0  0  0  0  0
   21.5104  -24.3725  -15.0178 N   0  0  0  0  0  0  0  0  0  0  0  0
   20.3097  -24.9203  -14.4850 C   0  0  1  0  0  0  0  0  0  0  0  0
   19.6698  -23.8857  -13.5854 C   0  0  0  0  0  0  0  0  0  0  0  0
   18.3540  -24.3734  -13.0190 C   0  0  0  0  0  0  0  0  0  0  0  0
   17.7782  -23.2670  -12.1576 C   0  0  0  0  0  0  0  0  0  0  0  0
   16.4477  -23.6693  -11.5597 C   0  0  0  0  0  0  0  0  0  0  0  0
   15.9304  -22.4989  -10.8503 N   0  0  0  0  0  0  0  0  0  0  0  0
   19.3337  -25.3386  -15.5112 C   0  0  0  0  0  0  0  0  0  0  0  0
   19.4717  -24.7874  -16.7783 O   0  0  0  0  0  0  0  0  0  0  0  0
   18.3997  -26.1448  -15.3278 O   0  0  0  0  0  0  0  0  0  0  0  0
  2  3  2  0
  2  1  1  0
  4  3  1  0
  5  4  2  0
  6  5  1  0
  7  6  1  0
  7  8  1  1
  9  7  1  0
 10  9  2  0
 11  5  1  0
 11 12  2  0
 12  2  1  0
 13 17  1  0
 13  9  1  0
 14 15  1  0
 14 13  1  0
 15 16  1  0
 17 16  1  0
 18 20  1  0
 17 18  1  1
 19 18  2  0
 21 27  1  0
 21 20  1  0
 21 22  1  1
 23 22  1  0
 24 23  1  0
 25 24  1  0
 25 26  1  0
 27 28  1  0
 29 27  2  0
M  END
$$$$
