YPK.pdb
     RDKit          3D

 29 30  0  0  1  0  0  0  0  0999 V2000
   18.8862  -21.8713  -12.0661 O   0  0  0  0  0  0  0  0  0  0  0  0
   20.1781  -21.8427  -12.6014 C   0  0  0  0  0  0  0  0  0  0  0  0
   20.7799  -22.9711  -13.1083 C   0  0  0  0  0  0  0  0  0  0  0  0
   22.0663  -22.9088  -13.6336 C   0  0  0  0  0  0  0  0  0  0  0  0
   22.7731  -21.7254  -13.6630 C   0  0  0  0  0  0  0  0  0  0  0  0
   24.1420  -21.6264  -14.2145 C   0  0  0  0  0  0  0  0  0  0  0  0
   24.2070  -20.7592  -15.4508 C   0  0  2  0  0  0  0  0  0  0  0  0
   23.1243  -21.1540  -16.3418 N   0  0  0  0  0  0  0  0  0  0  0  0
   25.5314  -21.0379  -16.1052 C   0  0  0  0  0  0  0  0  0  0  0  0
   25.6262  -22.0812  -16.7813 O   0  0  0  0  0  0  0  0  0  0  0  0
   22.1448  -20.6106  -13.1482 C   0  0  0  0  0  0  0  0  0  0  0  0
   20.8667  -20.6545  -12.6221 C   0  0  0  0  0  0  0  0  0  0  0  0
   26.6326  -20.1764  -15.9783 N   0  0  0  0  0  0  0  0  0  0  0  0
   26.5690  -18.6811  -16.0666 C   0  0  0  0  0  0  0  0  0  0  0  0
   27.2136  -18.3367  -14.7466 C   0  0  0  0  0  0  0  0  0  0  0  0
   28.2383  -19.4625  -14.5371 C   0  0  0  0  0  0  0  0  0  0  0  0
   28.0400  -20.3267  -15.7766 C   0  0  1  0  0  0  0  0  0  0  0  0
   28.6217  -21.6364  -15.6670 C   0  0  0  0  0  0  0  0  0  0  0  0
   28.8431  -22.3463  -14.6809 O   0  0  0  0  0  0  0  0  0  0  0  0
   29.0287  -22.2533  -16.9271 N   0  0  0  0  0  0  0  0  0  0  0  0
   29.6545  -23.5309  -16.9697 C   0  0  1  0  0  0  0  0  0  0  0  0
   28.5759  -24.5900  -17.0338 C   0  0  0  0  0  0  0  0  0  0  0  0
   29.1619  -25.9851  -17.0549 C   0  0  0  0  0  0  0  0  0  0  0  0
   28.0151  -26.9712  -17.1565 C   0  0  0  0  0  0  0  0  0  0  0  0
   28.5167  -28.3982  -17.1970 C   0  0  0  0  0  0  0  0  0  0  0  0
   27.3416  -29.2565  -17.3489 N   0  0  0  0  0  0  0  0  0  0  0  0
   30.5763  -23.7101  -18.1092 C   0  0  0  0  0  0  0  0  0  0  0  0
   31.6740  -24.5374  -17.9118 O   0  0  0  0  0  0  0  0  0  0  0  0
   30.4451  -23.1779  -19.2298 O   0  0  0  0  0  0  0  0  0  0  0  0
  2  3  2  0
  2  1  1  0
  4  3  1  0
  5  4  2  0
  6  5  1  0
  7  6  1  0
  7  8  1  6
  9  7  1  0
 10  9  2  0
 11  5  1  0
 11 12  2  0
 12  2  1  0
 13 17  1  0
 13  9  1  0
 14 15  1  0
 14 13  1  0
 15 16  1  0
 17 16  1  0
 18 20  1  0
 17 18  1  1
 19 18  2  0
 21 27  1  0
 21 20  1  0
 21 22  1  6
 23 22  1  0
 24 23  1  0
 25 24  1  0
 25 26  1  0
 27 28  1  0
 29 27  2  0
M  END
$$$$
