YPK.pdb
     RDKit          3D

 29 30  0  0  1  0  0  0  0  0999 V2000
   28.8959  -19.2989   -5.6179 O   0  0  0  0  0  0  0  0  0  0  0  0
   28.3401  -19.7793   -6.8081 C   0  0  0  0  0  0  0  0  0  0  0  0
   29.0597  -20.5596   -7.6832 C   0  0  0  0  0  0  0  0  0  0  0  0
   28.4774  -21.0215   -8.8588 C   0  0  0  0  0  0  0  0  0  0  0  0
   27.1726  -20.7151   -9.1821 C   0  0  0  0  0  0  0  0  0  0  0  0
   26.5250  -21.1905  -10.4241 C   0  0  0  0  0  0  0  0  0  0  0  0
   25.7541  -20.0985  -11.1298 C   0  0  2  0  0  0  0  0  0  0  0  0
   24.4264  -20.0210  -10.5355 N   0  0  0  0  0  0  0  0  0  0  0  0
   25.6427  -20.5102  -12.5713 C   0  0  0  0  0  0  0  0  0  0  0  0
   24.6982  -21.2639  -12.8788 O   0  0  0  0  0  0  0  0  0  0  0  0
   26.4755  -19.9314   -8.2864 C   0  0  0  0  0  0  0  0  0  0  0  0
   27.0388  -19.4637   -7.1132 C   0  0  0  0  0  0  0  0  0  0  0  0
   26.5496  -20.0787  -13.5522 N   0  0  0  0  0  0  0  0  0  0  0  0
   27.3245  -18.7961  -13.5020 C   0  0  0  0  0  0  0  0  0  0  0  0
   28.7182  -19.3535  -13.6555 C   0  0  0  0  0  0  0  0  0  0  0  0
   28.5228  -20.5777  -14.5634 C   0  0  0  0  0  0  0  0  0  0  0  0
   27.0189  -20.5718  -14.8095 C   0  0  1  0  0  0  0  0  0  0  0  0
   26.5149  -21.8101  -15.3372 C   0  0  0  0  0  0  0  0  0  0  0  0
   26.8276  -22.9809  -15.0993 O   0  0  0  0  0  0  0  0  0  0  0  0
   25.4480  -21.6860  -16.3275 N   0  0  0  0  0  0  0  0  0  0  0  0
   24.7992  -22.8266  -16.8787 C   0  0  1  0  0  0  0  0  0  0  0  0
   23.6908  -23.2474  -15.9387 C   0  0  0  0  0  0  0  0  0  0  0  0
   23.0164  -24.5201  -16.4025 C   0  0  0  0  0  0  0  0  0  0  0  0
   21.8455  -24.7910  -15.4788 C   0  0  0  0  0  0  0  0  0  0  0  0
   21.3251  -26.2018  -15.6471 C   0  0  0  0  0  0  0  0  0  0  0  0
   20.2183  -26.3608  -14.7035 N   0  0  0  0  0  0  0  0  0  0  0  0
   24.2332  -22.6033  -18.2242 C   0  0  0  0  0  0  0  0  0  0  0  0
   24.0298  -23.7234  -19.0194 O   0  0  0  0  0  0  0  0  0  0  0  0
   23.9254  -21.4914  -18.6985 O   0  0  0  0  0  0  0  0  0  0  0  0
  2  3  2  0
  2  1  1  0
  4  3  1  0
  5  4  2  0
  6  5  1  0
  7  6  1  0
  7  8  1  1
  9  7  1  0
 10  9  2  0
 11  5  1  0
 11 12  2  0
 12  2  1  0
 13 17  1  0
 13  9  1  0
 14 15  1  0
 14 13  1  0
 15 16  1  0
 17 16  1  0
 18 20  1  0
 17 18  1  1
 19 18  2  0
 21 27  1  0
 21 20  1  0
 21 22  1  1
 23 22  1  0
 24 23  1  0
 25 24  1  0
 25 26  1  0
 27 28  1  0
 29 27  2  0
M  END
$$$$
