YPK.pdb
     RDKit          3D

 29 30  0  0  1  0  0  0  0  0999 V2000
   17.5735  -23.9524   -8.2490 O   0  0  0  0  0  0  0  0  0  0  0  0
   18.5777  -23.5071   -9.1149 C   0  0  0  0  0  0  0  0  0  0  0  0
   18.4548  -23.6048  -10.4816 C   0  0  0  0  0  0  0  0  0  0  0  0
   19.4721  -23.1525  -11.3153 C   0  0  0  0  0  0  0  0  0  0  0  0
   20.6256  -22.5968  -10.8037 C   0  0  0  0  0  0  0  0  0  0  0  0
   21.7252  -22.1070  -11.6632 C   0  0  0  0  0  0  0  0  0  0  0  0
   21.7832  -20.5978  -11.7254 C   0  0  2  0  0  0  0  0  0  0  0  0
   20.5942  -20.1243  -12.4211 N   0  0  0  0  0  0  0  0  0  0  0  0
   23.0108  -20.2446  -12.5181 C   0  0  0  0  0  0  0  0  0  0  0  0
   22.8470  -19.9219  -13.7113 O   0  0  0  0  0  0  0  0  0  0  0  0
   20.7212  -22.5117   -9.4304 C   0  0  0  0  0  0  0  0  0  0  0  0
   19.7197  -22.9564   -8.5869 C   0  0  0  0  0  0  0  0  0  0  0  0
   24.3003  -20.2677  -11.9637 N   0  0  0  0  0  0  0  0  0  0  0  0
   24.6602  -19.7533  -10.6022 C   0  0  0  0  0  0  0  0  0  0  0  0
   25.3072  -20.9957  -10.0414 C   0  0  0  0  0  0  0  0  0  0  0  0
   25.9658  -21.6481  -11.2668 C   0  0  0  0  0  0  0  0  0  0  0  0
   25.5981  -20.6881  -12.3918 C   0  0  1  0  0  0  0  0  0  0  0  0
   25.7858  -21.2389  -13.7060 C   0  0  0  0  0  0  0  0  0  0  0  0
   25.3765  -22.2884  -14.2122 O   0  0  0  0  0  0  0  0  0  0  0  0
   26.5976  -20.4353  -14.6167 N   0  0  0  0  0  0  0  0  0  0  0  0
   26.9130  -20.8796  -15.9316 C   0  0  1  0  0  0  0  0  0  0  0  0
   27.6621  -19.7744  -16.6432 C   0  0  0  0  0  0  0  0  0  0  0  0
   28.0164  -20.1621  -18.0624 C   0  0  0  0  0  0  0  0  0  0  0  0
   28.8223  -19.0300  -18.6679 C   0  0  0  0  0  0  0  0  0  0  0  0
   29.2705  -19.3627  -20.0743 C   0  0  0  0  0  0  0  0  0  0  0  0
   30.0870  -18.2397  -20.5359 N   0  0  0  0  0  0  0  0  0  0  0  0
   27.7219  -22.1144  -15.9700 C   0  0  0  0  0  0  0  0  0  0  0  0
   28.7360  -22.2366  -15.0294 O   0  0  0  0  0  0  0  0  0  0  0  0
   27.5647  -23.0511  -16.7787 O   0  0  0  0  0  0  0  0  0  0  0  0
  2  3  2  0
  2  1  1  0
  4  3  1  0
  5  4  2  0
  6  5  1  0
  7  6  1  0
  7  8  1  6
  9  7  1  0
 10  9  2  0
 11  5  1  0
 11 12  2  0
 12  2  1  0
 13 17  1  0
 13  9  1  0
 14 15  1  0
 14 13  1  0
 15 16  1  0
 17 16  1  0
 18 20  1  0
 17 18  1  6
 19 18  2  0
 21 27  1  0
 21 20  1  0
 21 22  1  1
 23 22  1  0
 24 23  1  0
 25 24  1  0
 25 26  1  0
 27 28  1  0
 29 27  2  0
M  END
$$$$
