YPK.pdb
     RDKit          3D

 29 30  0  0  1  0  0  0  0  0999 V2000
   26.8934  -20.2515   -6.5460 O   0  0  0  0  0  0  0  0  0  0  0  0
   26.7333  -20.5516   -7.9027 C   0  0  0  0  0  0  0  0  0  0  0  0
   27.7514  -21.0939   -8.6521 C   0  0  0  0  0  0  0  0  0  0  0  0
   27.5597  -21.3808   -9.9996 C   0  0  0  0  0  0  0  0  0  0  0  0
   26.3544  -21.1333  -10.6217 C   0  0  0  0  0  0  0  0  0  0  0  0
   26.1191  -21.4268  -12.0522 C   0  0  0  0  0  0  0  0  0  0  0  0
   26.9225  -20.5310  -12.9669 C   0  0  2  0  0  0  0  0  0  0  0  0
   26.5987  -19.1468  -12.6488 N   0  0  0  0  0  0  0  0  0  0  0  0
   26.4875  -20.8453  -14.3712 C   0  0  0  0  0  0  0  0  0  0  0  0
   25.2741  -20.7286  -14.6329 O   0  0  0  0  0  0  0  0  0  0  0  0
   25.3520  -20.5895   -9.8458 C   0  0  0  0  0  0  0  0  0  0  0  0
   25.5254  -20.2981   -8.5052 C   0  0  0  0  0  0  0  0  0  0  0  0
   27.3884  -21.2544  -15.3672 N   0  0  0  0  0  0  0  0  0  0  0  0
   28.7110  -20.6070  -15.6487 C   0  0  0  0  0  0  0  0  0  0  0  0
   29.6010  -21.8191  -15.5246 C   0  0  0  0  0  0  0  0  0  0  0  0
   28.7204  -22.9709  -16.0336 C   0  0  0  0  0  0  0  0  0  0  0  0
   27.4158  -22.2634  -16.3797 C   0  0  1  0  0  0  0  0  0  0  0  0
   26.3011  -23.1555  -16.5457 C   0  0  0  0  0  0  0  0  0  0  0  0
   26.0205  -24.2176  -15.9815 O   0  0  0  0  0  0  0  0  0  0  0  0
   25.3181  -22.7565  -17.5501 N   0  0  0  0  0  0  0  0  0  0  0  0
   24.1661  -23.5451  -17.8276 C   0  0  1  0  0  0  0  0  0  0  0  0
   22.9577  -22.8505  -17.2390 C   0  0  0  0  0  0  0  0  0  0  0  0
   21.7115  -23.7011  -17.3549 C   0  0  0  0  0  0  0  0  0  0  0  0
   20.5591  -22.9252  -16.7487 C   0  0  0  0  0  0  0  0  0  0  0  0
   19.2882  -23.7464  -16.7343 C   0  0  0  0  0  0  0  0  0  0  0  0
   18.2475  -22.9066  -16.1408 N   0  0  0  0  0  0  0  0  0  0  0  0
   23.9339  -23.7828  -19.2663 C   0  0  0  0  0  0  0  0  0  0  0  0
   23.4258  -25.0231  -19.6293 O   0  0  0  0  0  0  0  0  0  0  0  0
   24.1581  -22.9590  -20.1758 O   0  0  0  0  0  0  0  0  0  0  0  0
  2  3  2  0
  2  1  1  0
  4  3  1  0
  5  4  2  0
  6  5  1  0
  7  6  1  0
  7  8  1  1
  9  7  1  0
 10  9  2  0
 11  5  1  0
 11 12  2  0
 12  2  1  0
 13 17  1  0
 13  9  1  0
 14 15  1  0
 14 13  1  0
 15 16  1  0
 17 16  1  0
 18 20  1  0
 17 18  1  1
 19 18  2  0
 21 27  1  0
 21 20  1  0
 21 22  1  6
 23 22  1  0
 24 23  1  0
 25 24  1  0
 25 26  1  0
 27 28  1  0
 29 27  2  0
M  END
$$$$
