YPK.pdb
     RDKit          3D

 29 30  0  0  1  0  0  0  0  0999 V2000
   27.6380  -19.6971   -5.5847 O   0  0  0  0  0  0  0  0  0  0  0  0
   27.2505  -20.0154   -6.8904 C   0  0  0  0  0  0  0  0  0  0  0  0
   25.9512  -20.3410   -7.2039 C   0  0  0  0  0  0  0  0  0  0  0  0
   25.5984  -20.6526   -8.5128 C   0  0  0  0  0  0  0  0  0  0  0  0
   26.5307  -20.6453   -9.5286 C   0  0  0  0  0  0  0  0  0  0  0  0
   26.1874  -20.9721  -10.9297 C   0  0  0  0  0  0  0  0  0  0  0  0
   25.4877  -19.8331  -11.6353 C   0  0  2  0  0  0  0  0  0  0  0  0
   24.1026  -19.8004  -11.1854 N   0  0  0  0  0  0  0  0  0  0  0  0
   25.5376  -20.1398  -13.1061 C   0  0  0  0  0  0  0  0  0  0  0  0
   24.5732  -20.7625  -13.5928 O   0  0  0  0  0  0  0  0  0  0  0  0
   27.8251  -20.3152   -9.1850 C   0  0  0  0  0  0  0  0  0  0  0  0
   28.1932  -20.0028   -7.8892 C   0  0  0  0  0  0  0  0  0  0  0  0
   26.6123  -19.7527  -13.9223 N   0  0  0  0  0  0  0  0  0  0  0  0
   27.5940  -18.6682  -13.5940 C   0  0  0  0  0  0  0  0  0  0  0  0
   28.8733  -19.4578  -13.7226 C   0  0  0  0  0  0  0  0  0  0  0  0
   28.5652  -20.4714  -14.8357 C   0  0  0  0  0  0  0  0  0  0  0  0
   27.1244  -20.1354  -15.2011 C   0  0  1  0  0  0  0  0  0  0  0  0
   26.4692  -21.1588  -15.9687 C   0  0  0  0  0  0  0  0  0  0  0  0
   26.4144  -22.3824  -15.8103 O   0  0  0  0  0  0  0  0  0  0  0  0
   25.7356  -20.6939  -17.1434 N   0  0  0  0  0  0  0  0  0  0  0  0
   24.9613  -21.5802  -17.9439 C   0  0  1  0  0  0  0  0  0  0  0  0
   23.5491  -21.6050  -17.4012 C   0  0  0  0  0  0  0  0  0  0  0  0
   23.2387  -22.9139  -16.7081 C   0  0  0  0  0  0  0  0  0  0  0  0
   21.8173  -22.8400  -16.1866 C   0  0  0  0  0  0  0  0  0  0  0  0
   21.4032  -24.1379  -15.5282 C   0  0  0  0  0  0  0  0  0  0  0  0
   20.0441  -23.9421  -15.0229 N   0  0  0  0  0  0  0  0  0  0  0  0
   24.9228  -21.2180  -19.3749 C   0  0  0  0  0  0  0  0  0  0  0  0
   24.7484  -22.2519  -20.2853 O   0  0  0  0  0  0  0  0  0  0  0  0
   25.0345  -20.0603  -19.8260 O   0  0  0  0  0  0  0  0  0  0  0  0
  2  3  2  0
  2  1  1  0
  4  3  1  0
  5  4  2  0
  6  5  1  0
  7  6  1  0
  7  8  1  1
  9  7  1  0
 10  9  2  0
 11  5  1  0
 11 12  2  0
 12  2  1  0
 13 17  1  0
 13  9  1  0
 14 15  1  0
 14 13  1  0
 15 16  1  0
 17 16  1  0
 18 20  1  0
 17 18  1  1
 19 18  2  0
 21 27  1  0
 21 20  1  0
 21 22  1  1
 23 22  1  0
 24 23  1  0
 25 24  1  0
 25 26  1  0
 27 28  1  0
 29 27  2  0
M  END
$$$$
