YPK.pdb
     RDKit          3D

 29 30  0  0  1  0  0  0  0  0999 V2000
   25.6450  -21.1303   -7.2396 O   0  0  0  0  0  0  0  0  0  0  0  0
   25.8696  -20.9386   -8.6067 C   0  0  0  0  0  0  0  0  0  0  0  0
   25.7498  -19.7014   -9.1963 C   0  0  0  0  0  0  0  0  0  0  0  0
   25.9801  -19.5444  -10.5590 C   0  0  0  0  0  0  0  0  0  0  0  0
   26.3324  -20.6134  -11.3553 C   0  0  0  0  0  0  0  0  0  0  0  0
   26.5837  -20.4792  -12.8068 C   0  0  0  0  0  0  0  0  0  0  0  0
   25.3563  -20.0333  -13.5681 C   0  0  2  0  0  0  0  0  0  0  0  0
   24.3751  -21.1089  -13.5209 N   0  0  0  0  0  0  0  0  0  0  0  0
   25.7893  -19.8019  -14.9890 C   0  0  0  0  0  0  0  0  0  0  0  0
   25.8796  -20.8016  -15.7287 O   0  0  0  0  0  0  0  0  0  0  0  0
   26.4450  -21.8413  -10.7372 C   0  0  0  0  0  0  0  0  0  0  0  0
   26.2198  -22.0154   -9.3840 C   0  0  0  0  0  0  0  0  0  0  0  0
   26.0853  -18.5243  -15.4898 N   0  0  0  0  0  0  0  0  0  0  0  0
   25.4246  -17.2532  -15.0474 C   0  0  0  0  0  0  0  0  0  0  0  0
   26.6536  -16.4677  -14.6612 C   0  0  0  0  0  0  0  0  0  0  0  0
   27.7242  -16.9578  -15.6485 C   0  0  0  0  0  0  0  0  0  0  0  0
   26.9641  -17.9842  -16.4799 C   0  0  1  0  0  0  0  0  0  0  0  0
   27.8157  -18.8524  -17.2458 C   0  0  0  0  0  0  0  0  0  0  0  0
   28.9097  -18.6501  -17.7820 O   0  0  0  0  0  0  0  0  0  0  0  0
   27.3215  -20.2142  -17.4351 N   0  0  0  0  0  0  0  0  0  0  0  0
   28.1054  -21.2148  -18.0754 C   0  0  1  0  0  0  0  0  0  0  0  0
   28.4242  -22.2933  -17.0633 C   0  0  0  0  0  0  0  0  0  0  0  0
   29.2682  -23.3951  -17.6663 C   0  0  0  0  0  0  0  0  0  0  0  0
   29.6239  -24.3687  -16.5603 C   0  0  0  0  0  0  0  0  0  0  0  0
   30.5396  -25.4635  -17.0626 C   0  0  0  0  0  0  0  0  0  0  0  0
   30.7720  -26.3708  -15.9385 N   0  0  0  0  0  0  0  0  0  0  0  0
   27.4519  -21.8302  -19.2479 C   0  0  0  0  0  0  0  0  0  0  0  0
   28.2789  -22.3952  -20.2098 O   0  0  0  0  0  0  0  0  0  0  0  0
   26.2203  -21.8811  -19.4393 O   0  0  0  0  0  0  0  0  0  0  0  0
  2  3  2  0
  2  1  1  0
  4  3  1  0
  5  4  2  0
  6  5  1  0
  7  6  1  0
  7  8  1  6
  9  7  1  0
 10  9  2  0
 11  5  1  0
 11 12  2  0
 12  2  1  0
 13 17  1  0
 13  9  1  0
 14 15  1  0
 14 13  1  0
 15 16  1  0
 17 16  1  0
 18 20  1  0
 17 18  1  1
 19 18  2  0
 21 27  1  0
 21 20  1  0
 21 22  1  1
 23 22  1  0
 24 23  1  0
 25 24  1  0
 25 26  1  0
 27 28  1  0
 29 27  2  0
M  END
$$$$
