YPK.pdb
     RDKit          3D

 29 30  0  0  1  0  0  0  0  0999 V2000
   30.2322  -15.8453  -20.3699 O   0  0  0  0  0  0  0  0  0  0  0  0
   29.5779  -16.4731  -19.3049 C   0  0  0  0  0  0  0  0  0  0  0  0
   28.2079  -16.5894  -19.2607 C   0  0  0  0  0  0  0  0  0  0  0  0
   27.5879  -17.2196  -18.1870 C   0  0  0  0  0  0  0  0  0  0  0  0
   28.3194  -17.7433  -17.1421 C   0  0  0  0  0  0  0  0  0  0  0  0
   27.6901  -18.4188  -15.9865 C   0  0  0  0  0  0  0  0  0  0  0  0
   28.0740  -19.8775  -15.8889 C   0  0  2  0  0  0  0  0  0  0  0  0
   27.5534  -20.5652  -17.0628 N   0  0  0  0  0  0  0  0  0  0  0  0
   27.4148  -20.4162  -14.6499 C   0  0  0  0  0  0  0  0  0  0  0  0
   26.1683  -20.4303  -14.6261 O   0  0  0  0  0  0  0  0  0  0  0  0
   29.6906  -17.6122  -17.2133 C   0  0  0  0  0  0  0  0  0  0  0  0
   30.3234  -16.9887  -18.2731 C   0  0  0  0  0  0  0  0  0  0  0  0
   28.1473  -20.8911  -13.5504 N   0  0  0  0  0  0  0  0  0  0  0  0
   29.3532  -21.7774  -13.6388 C   0  0  0  0  0  0  0  0  0  0  0  0
   30.3277  -20.9328  -12.8554 C   0  0  0  0  0  0  0  0  0  0  0  0
   29.4468  -20.2427  -11.8023 C   0  0  0  0  0  0  0  0  0  0  0  0
   28.0582  -20.7795  -12.1278 C   0  0  1  0  0  0  0  0  0  0  0  0
   26.9921  -20.0281  -11.5240 C   0  0  0  0  0  0  0  0  0  0  0  0
   26.7008  -18.8301  -11.5970 O   0  0  0  0  0  0  0  0  0  0  0  0
   26.0842  -20.7935  -10.6730 N   0  0  0  0  0  0  0  0  0  0  0  0
   25.0044  -20.1760   -9.9812 C   0  0  1  0  0  0  0  0  0  0  0  0
   23.8799  -19.9375  -10.9649 C   0  0  0  0  0  0  0  0  0  0  0  0
   23.2220  -21.2329  -11.3880 C   0  0  0  0  0  0  0  0  0  0  0  0
   22.4375  -20.9650  -12.6571 C   0  0  0  0  0  0  0  0  0  0  0  0
   21.7584  -22.2197  -13.1610 C   0  0  0  0  0  0  0  0  0  0  0  0
   20.9480  -21.8290  -14.3148 N   0  0  0  0  0  0  0  0  0  0  0  0
   24.4917  -20.9646   -8.8429 C   0  0  0  0  0  0  0  0  0  0  0  0
   23.5791  -20.3423   -8.0014 O   0  0  0  0  0  0  0  0  0  0  0  0
   24.8140  -22.1409   -8.5808 O   0  0  0  0  0  0  0  0  0  0  0  0
  2  3  2  0
  2  1  1  0
  4  3  1  0
  5  4  2  0
  6  5  1  0
  7  6  1  0
  7  8  1  6
  9  7  1  0
 10  9  2  0
 11  5  1  0
 11 12  2  0
 12  2  1  0
 13 17  1  0
 13  9  1  0
 14 15  1  0
 14 13  1  0
 15 16  1  0
 17 16  1  0
 18 20  1  0
 17 18  1  6
 19 18  2  0
 21 27  1  0
 21 20  1  0
 21 22  1  6
 23 22  1  0
 24 23  1  0
 25 24  1  0
 25 26  1  0
 27 28  1  0
 29 27  2  0
M  END
$$$$
