VIS.pdb
     RDKit          3D

 22 21  0  0  1  0  0  0  0  0999 V2000
    7.4995  -17.5054   21.4322 C   0  0  0  0  0  0  0  0  0  0  0  0
    6.4914  -16.3954   21.4345 C   0  0  2  0  0  0  0  0  0  0  0  0
    5.5710  -16.5036   20.2386 C   0  0  0  0  0  0  0  0  0  0  0  0
    7.1172  -15.0274   21.4127 C   0  0  2  0  0  0  0  0  0  0  0  0
    7.8190  -14.7428   20.1979 N   0  0  0  0  0  0  0  0  0  0  0  0
    7.9883  -14.7676   22.5686 C   0  0  0  0  0  0  0  0  0  0  0  0
    9.2405  -14.7224   22.5126 O   0  0  0  0  0  0  0  0  0  0  0  0
    6.0538  -11.4457   26.1225 C   0  0  0  0  0  0  0  0  0  0  0  0
    7.0070  -12.2212   25.2694 C   0  0  0  0  0  0  0  0  0  0  0  0
    7.2837  -13.5505   25.9712 C   0  0  2  0  0  0  0  0  0  0  0  0
    7.9011  -13.2323   27.2868 C   0  0  0  0  0  0  0  0  0  0  0  0
    8.1676  -14.4186   25.0661 C   0  0  2  0  0  0  0  0  0  0  0  0
    7.3885  -14.5518   23.8371 N   0  0  0  0  0  0  0  0  0  0  0  0
    8.5074  -15.7126   25.6439 C   0  0  0  0  0  0  0  0  0  0  0  0
    7.6143  -16.5472   26.0343 O   0  0  0  0  0  0  0  0  0  0  0  0
   11.2403  -17.8381   24.2556 O   0  0  0  0  0  0  0  0  0  0  0  0
   11.3672  -17.9883   25.6228 C   0  0  0  0  0  0  0  0  0  0  0  0
   10.1234  -17.4847   26.3569 C   0  0  2  0  0  0  0  0  0  0  0  0
    9.8458  -16.1413   25.8131 N   0  0  0  0  0  0  0  0  0  0  0  0
   10.4606  -17.4030   27.7931 C   0  0  0  0  0  0  0  0  0  0  0  0
   10.7415  -18.5523   28.4856 O   0  0  0  0  0  0  0  0  0  0  0  0
   10.4961  -16.3053   28.3953 O   0  0  0  0  0  0  0  0  0  0  0  0
  2  1  1  6
  2  3  1  0
  4  2  1  0
  4  5  1  6
  4  6  1  0
  6 13  1  0
  6  7  2  0
  8  9  1  0
  9 10  1  0
 10 12  1  0
 10 11  1  1
 12 14  1  0
 12 13  1  6
 14 15  2  0
 16 17  1  0
 18 17  1  6
 18 20  1  0
 19 14  1  0
 19 18  1  0
 20 21  1  0
 22 20  2  0
M  END
$$$$
