VIS.pdb
     RDKit          3D

 22 21  0  0  1  0  0  0  0  0999 V2000
    7.8284  -17.1352   21.0304 C   0  0  0  0  0  0  0  0  0  0  0  0
    6.7569  -16.0941   21.1581 C   0  0  2  0  0  0  0  0  0  0  0  0
    5.8304  -16.1277   19.9625 C   0  0  0  0  0  0  0  0  0  0  0  0
    7.3010  -14.6967   21.2808 C   0  0  2  0  0  0  0  0  0  0  0  0
    7.9903  -14.2503   20.1083 N   0  0  0  0  0  0  0  0  0  0  0  0
    8.1499  -14.5049   22.4661 C   0  0  0  0  0  0  0  0  0  0  0  0
    9.4031  -14.4632   22.4374 O   0  0  0  0  0  0  0  0  0  0  0  0
    5.9446  -11.5423   26.2756 C   0  0  0  0  0  0  0  0  0  0  0  0
    6.9915  -12.1455   25.3936 C   0  0  0  0  0  0  0  0  0  0  0  0
    7.3103  -13.5386   25.9356 C   0  0  2  0  0  0  0  0  0  0  0  0
    7.8469  -13.3621   27.3119 C   0  0  0  0  0  0  0  0  0  0  0  0
    8.2830  -14.2371   24.9765 C   0  0  2  0  0  0  0  0  0  0  0  0
    7.5257  -14.3557   23.7324 N   0  0  0  0  0  0  0  0  0  0  0  0
    8.7552  -15.5292   25.4573 C   0  0  0  0  0  0  0  0  0  0  0  0
    7.9539  -16.4841   25.7620 O   0  0  0  0  0  0  0  0  0  0  0  0
   12.4647  -18.6079   25.8713 O   0  0  0  0  0  0  0  0  0  0  0  0
   11.9492  -17.3843   25.4906 C   0  0  0  0  0  0  0  0  0  0  0  0
   10.5464  -17.1685   26.0609 C   0  0  2  0  0  0  0  0  0  0  0  0
   10.1303  -15.8232   25.6198 N   0  0  0  0  0  0  0  0  0  0  0  0
   10.6551  -17.2205   27.5335 C   0  0  0  0  0  0  0  0  0  0  0  0
   10.8169  -18.4319   28.1547 O   0  0  0  0  0  0  0  0  0  0  0  0
   10.6028  -16.1812   28.2305 O   0  0  0  0  0  0  0  0  0  0  0  0
  2  1  1  6
  2  3  1  0
  4  2  1  0
  4  5  1  6
  4  6  1  0
  6 13  1  0
  6  7  2  0
  8  9  1  0
  9 10  1  0
 10 12  1  0
 10 11  1  1
 12 14  1  0
 12 13  1  6
 14 15  2  0
 16 17  1  0
 18 17  1  6
 18 20  1  0
 19 14  1  0
 19 18  1  0
 20 21  1  0
 22 20  2  0
M  END
$$$$
