VIS.pdb
     RDKit          3D

 22 21  0  0  1  0  0  0  0  0999 V2000
    8.0978  -17.7291   21.4882 C   0  0  0  0  0  0  0  0  0  0  0  0
    6.9187  -16.8053   21.5573 C   0  0  2  0  0  0  0  0  0  0  0  0
    5.9769  -17.0492   20.3985 C   0  0  0  0  0  0  0  0  0  0  0  0
    7.3043  -15.3511   21.5401 C   0  0  2  0  0  0  0  0  0  0  0  0
    7.9012  -14.9360   20.3070 N   0  0  0  0  0  0  0  0  0  0  0  0
    8.1628  -14.9634   22.6693 C   0  0  0  0  0  0  0  0  0  0  0  0
    9.4006  -14.7801   22.5842 O   0  0  0  0  0  0  0  0  0  0  0  0
    6.0437  -11.7134   26.1798 C   0  0  0  0  0  0  0  0  0  0  0  0
    7.0654  -12.4219   25.3479 C   0  0  0  0  0  0  0  0  0  0  0  0
    7.4119  -13.7328   26.0533 C   0  0  2  0  0  0  0  0  0  0  0  0
    7.9996  -13.3791   27.3735 C   0  0  0  0  0  0  0  0  0  0  0  0
    8.3511  -14.5496   25.1562 C   0  0  2  0  0  0  0  0  0  0  0  0
    7.5671  -14.7810   23.9450 N   0  0  0  0  0  0  0  0  0  0  0  0
    8.8062  -15.7945   25.7620 C   0  0  0  0  0  0  0  0  0  0  0  0
    7.9916  -16.6874   26.1932 O   0  0  0  0  0  0  0  0  0  0  0  0
   11.9013  -17.7711   24.5868 O   0  0  0  0  0  0  0  0  0  0  0  0
   11.9400  -17.7373   25.9670 C   0  0  0  0  0  0  0  0  0  0  0  0
   10.5742  -17.3775   26.5545 C   0  0  2  0  0  0  0  0  0  0  0  0
   10.1781  -16.1078   25.9155 N   0  0  0  0  0  0  0  0  0  0  0  0
   10.7538  -17.1916   28.0092 C   0  0  0  0  0  0  0  0  0  0  0  0
   11.1153  -18.2621   28.7856 O   0  0  0  0  0  0  0  0  0  0  0  0
   10.5832  -16.0759   28.5522 O   0  0  0  0  0  0  0  0  0  0  0  0
  2  1  1  6
  2  3  1  0
  4  2  1  0
  4  5  1  6
  4  6  1  0
  6 13  1  0
  6  7  2  0
  8  9  1  0
  9 10  1  0
 10 12  1  0
 10 11  1  1
 12 14  1  0
 12 13  1  6
 14 15  2  0
 16 17  1  0
 18 17  1  6
 18 20  1  0
 19 14  1  0
 19 18  1  0
 20 21  1  0
 22 20  2  0
M  END
$$$$
