VIS.pdb
     RDKit          3D

 22 21  0  0  1  0  0  0  0  0999 V2000
    6.1995  -16.5463   19.6279 C   0  0  0  0  0  0  0  0  0  0  0  0
    7.0425  -16.3520   20.8526 C   0  0  2  0  0  0  0  0  0  0  0  0
    6.4738  -17.1229   22.0237 C   0  0  0  0  0  0  0  0  0  0  0  0
    7.1641  -14.9101   21.2649 C   0  0  2  0  0  0  0  0  0  0  0  0
    7.5771  -14.0475   20.1998 N   0  0  0  0  0  0  0  0  0  0  0  0
    8.0297  -14.7111   22.4368 C   0  0  0  0  0  0  0  0  0  0  0  0
    9.2817  -14.6535   22.3877 O   0  0  0  0  0  0  0  0  0  0  0  0
    6.1761  -11.4921   26.1170 C   0  0  0  0  0  0  0  0  0  0  0  0
    7.1055  -12.2648   25.2355 C   0  0  0  0  0  0  0  0  0  0  0  0
    7.3226  -13.6353   25.8763 C   0  0  2  0  0  0  0  0  0  0  0  0
    7.9181  -13.4026   27.2197 C   0  0  0  0  0  0  0  0  0  0  0  0
    8.1998  -14.4868   24.9492 C   0  0  2  0  0  0  0  0  0  0  0  0
    7.4245  -14.5735   23.7136 N   0  0  0  0  0  0  0  0  0  0  0  0
    8.5212  -15.8016   25.4892 C   0  0  0  0  0  0  0  0  0  0  0  0
    7.6287  -16.5767   25.9887 O   0  0  0  0  0  0  0  0  0  0  0  0
   12.1943  -17.3555   24.9046 O   0  0  0  0  0  0  0  0  0  0  0  0
   11.1924  -18.2712   25.1604 C   0  0  0  0  0  0  0  0  0  0  0  0
   10.0957  -17.6668   26.0388 C   0  0  2  0  0  0  0  0  0  0  0  0
    9.8393  -16.3176   25.4990 N   0  0  0  0  0  0  0  0  0  0  0  0
   10.6278  -17.5821   27.4146 C   0  0  0  0  0  0  0  0  0  0  0  0
   10.9148  -18.7353   28.0981 O   0  0  0  0  0  0  0  0  0  0  0  0
   10.8236  -16.4785   27.9735 O   0  0  0  0  0  0  0  0  0  0  0  0
  2  1  1  6
  2  3  1  0
  4  2  1  0
  4  5  1  6
  4  6  1  0
  6 13  1  0
  6  7  2  0
  8  9  1  0
  9 10  1  0
 10 12  1  0
 10 11  1  1
 12 14  1  0
 12 13  1  6
 14 15  2  0
 16 17  1  0
 18 17  1  6
 18 20  1  0
 19 14  1  0
 19 18  1  0
 20 21  1  0
 22 20  2  0
M  END
$$$$
