VIS.pdb
     RDKit          3D

 22 21  0  0  1  0  0  0  0  0999 V2000
    6.3383  -16.8992   19.7140 C   0  0  0  0  0  0  0  0  0  0  0  0
    7.2098  -16.6360   20.9055 C   0  0  2  0  0  0  0  0  0  0  0  0
    6.7628  -17.4632   22.0909 C   0  0  0  0  0  0  0  0  0  0  0  0
    7.2158  -15.1917   21.3270 C   0  0  2  0  0  0  0  0  0  0  0  0
    7.5033  -14.2880   20.2547 N   0  0  0  0  0  0  0  0  0  0  0  0
    8.1076  -14.9213   22.4645 C   0  0  0  0  0  0  0  0  0  0  0  0
    9.3442  -14.7373   22.3636 O   0  0  0  0  0  0  0  0  0  0  0  0
    6.1362  -11.7833   26.0913 C   0  0  0  0  0  0  0  0  0  0  0  0
    7.0923  -12.5162   25.2044 C   0  0  0  0  0  0  0  0  0  0  0  0
    7.4449  -13.8358   25.8904 C   0  0  2  0  0  0  0  0  0  0  0  0
    8.0640  -13.4980   27.2003 C   0  0  0  0  0  0  0  0  0  0  0  0
    8.3583  -14.6509   24.9656 C   0  0  2  0  0  0  0  0  0  0  0  0
    7.5481  -14.8615   23.7679 N   0  0  0  0  0  0  0  0  0  0  0  0
    8.8138  -15.9066   25.5482 C   0  0  0  0  0  0  0  0  0  0  0  0
    8.0067  -16.7499   26.0813 O   0  0  0  0  0  0  0  0  0  0  0  0
   12.7437  -16.8554   25.3915 O   0  0  0  0  0  0  0  0  0  0  0  0
   11.8985  -17.9474   25.3668 C   0  0  0  0  0  0  0  0  0  0  0  0
   10.5595  -17.6314   26.0354 C   0  0  2  0  0  0  0  0  0  0  0  0
   10.1774  -16.2859   25.5653 N   0  0  0  0  0  0  0  0  0  0  0  0
   10.7851  -17.6256   27.4957 C   0  0  0  0  0  0  0  0  0  0  0  0
   11.1539  -18.7863   28.1250 O   0  0  0  0  0  0  0  0  0  0  0  0
   10.6470  -16.5823   28.1747 O   0  0  0  0  0  0  0  0  0  0  0  0
  2  1  1  6
  2  3  1  0
  4  2  1  0
  4  5  1  6
  4  6  1  0
  6 13  1  0
  6  7  2  0
  8  9  1  0
  9 10  1  0
 10 12  1  0
 10 11  1  1
 12 14  1  0
 12 13  1  6
 14 15  2  0
 16 17  1  0
 18 17  1  6
 18 20  1  0
 19 14  1  0
 19 18  1  0
 20 21  1  0
 22 20  2  0
M  END
$$$$
