VIS.pdb
     RDKit          3D

 22 21  0  0  1  0  0  0  0  0999 V2000
    6.4906  -16.0457   19.2555 C   0  0  0  0  0  0  0  0  0  0  0  0
    7.2932  -15.9487   20.5183 C   0  0  2  0  0  0  0  0  0  0  0  0
    6.7133  -16.8418   21.5931 C   0  0  0  0  0  0  0  0  0  0  0  0
    7.3635  -14.5503   21.0690 C   0  0  2  0  0  0  0  0  0  0  0  0
    7.7777  -13.5790   20.1024 N   0  0  0  0  0  0  0  0  0  0  0  0
    8.1943  -14.4420   22.2775 C   0  0  0  0  0  0  0  0  0  0  0  0
    9.4450  -14.3490   22.2681 O   0  0  0  0  0  0  0  0  0  0  0  0
    5.9777  -11.6078   26.0821 C   0  0  0  0  0  0  0  0  0  0  0  0
    7.0173  -12.2282   25.2034 C   0  0  0  0  0  0  0  0  0  0  0  0
    7.3106  -13.6268   25.7459 C   0  0  2  0  0  0  0  0  0  0  0  0
    7.8250  -13.4611   27.1320 C   0  0  0  0  0  0  0  0  0  0  0  0
    8.2920  -14.3331   24.8015 C   0  0  2  0  0  0  0  0  0  0  0  0
    7.5542  -14.4413   23.5447 N   0  0  0  0  0  0  0  0  0  0  0  0
    8.7429  -15.6310   25.2870 C   0  0  0  0  0  0  0  0  0  0  0  0
    7.9255  -16.5620   25.6213 O   0  0  0  0  0  0  0  0  0  0  0  0
   12.4215  -18.7627   25.6661 O   0  0  0  0  0  0  0  0  0  0  0  0
   11.8967  -17.5552   25.2485 C   0  0  0  0  0  0  0  0  0  0  0  0
   10.5071  -17.3163   25.8415 C   0  0  2  0  0  0  0  0  0  0  0  0
   10.1137  -15.9574   25.4220 N   0  0  0  0  0  0  0  0  0  0  0  0
   10.6355  -17.3881   27.3117 C   0  0  0  0  0  0  0  0  0  0  0  0
   10.5265  -16.2409   28.0543 O   0  0  0  0  0  0  0  0  0  0  0  0
   10.8423  -18.4754   27.8979 O   0  0  0  0  0  0  0  0  0  0  0  0
  2  1  1  6
  2  3  1  0
  4  2  1  0
  4  5  1  6
  4  6  1  0
  6 13  1  0
  6  7  2  0
  8  9  1  0
  9 10  1  0
 10 12  1  0
 10 11  1  1
 12 14  1  0
 12 13  1  6
 14 15  2  0
 16 17  1  0
 18 17  1  6
 18 20  1  0
 19 14  1  0
 19 18  1  0
 20 21  1  0
 22 20  2  0
M  END
$$$$
