VIS.pdb
     RDKit          3D

 22 21  0  0  1  0  0  0  0  0999 V2000
    7.9870  -15.8158   20.1333 C   0  0  0  0  0  0  0  0  0  0  0  0
    6.9458  -14.7514   20.3102 C   0  0  2  0  0  0  0  0  0  0  0  0
    6.2438  -14.4642   19.0010 C   0  0  0  0  0  0  0  0  0  0  0  0
    7.5070  -13.4545   20.8267 C   0  0  2  0  0  0  0  0  0  0  0  0
    8.3695  -12.7964   19.8927 N   0  0  0  0  0  0  0  0  0  0  0  0
    8.1829  -13.5894   22.1257 C   0  0  0  0  0  0  0  0  0  0  0  0
    9.4267  -13.5475   22.2817 O   0  0  0  0  0  0  0  0  0  0  0  0
    5.6269  -11.3964   26.1431 C   0  0  0  0  0  0  0  0  0  0  0  0
    6.7165  -11.9087   25.2553 C   0  0  0  0  0  0  0  0  0  0  0  0
    6.9102  -13.3928   25.5656 C   0  0  2  0  0  0  0  0  0  0  0  0
    7.2735  -13.4967   27.0045 C   0  0  0  0  0  0  0  0  0  0  0  0
    7.9698  -13.9673   24.6163 C   0  0  2  0  0  0  0  0  0  0  0  0
    7.3904  -13.7798   23.2880 N   0  0  0  0  0  0  0  0  0  0  0  0
    8.2996  -15.3621   24.8797 C   0  0  0  0  0  0  0  0  0  0  0  0
    7.4106  -16.2874   24.8973 O   0  0  0  0  0  0  0  0  0  0  0  0
   11.2648  -16.8829   23.4109 O   0  0  0  0  0  0  0  0  0  0  0  0
   11.2077  -17.5275   24.6312 C   0  0  0  0  0  0  0  0  0  0  0  0
    9.8965  -17.2275   25.3595 C   0  0  2  0  0  0  0  0  0  0  0  0
    9.6233  -15.7953   25.1324 N   0  0  0  0  0  0  0  0  0  0  0  0
   10.1186  -17.4913   26.7962 C   0  0  0  0  0  0  0  0  0  0  0  0
   10.4109  -18.7652   27.2099 O   0  0  0  0  0  0  0  0  0  0  0  0
   10.0459  -16.5762   27.6482 O   0  0  0  0  0  0  0  0  0  0  0  0
  2  1  1  6
  2  3  1  0
  4  2  1  0
  4  5  1  6
  4  6  1  0
  6 13  1  0
  6  7  2  0
  8  9  1  0
  9 10  1  0
 10 12  1  0
 10 11  1  1
 12 14  1  0
 12 13  1  6
 14 15  2  0
 16 17  1  0
 18 17  1  6
 18 20  1  0
 19 14  1  0
 19 18  1  0
 20 21  1  0
 22 20  2  0
M  END
$$$$
