VIS.pdb
     RDKit          3D

 22 21  0  0  1  0  0  0  0  0999 V2000
    7.6094  -19.6572   24.3073 C   0  0  0  0  0  0  0  0  0  0  0  0
    6.2430  -19.0558   24.4475 C   0  0  2  0  0  0  0  0  0  0  0  0
    5.1756  -20.0470   24.0382 C   0  0  0  0  0  0  0  0  0  0  0  0
    6.0568  -17.8109   23.6233 C   0  0  2  0  0  0  0  0  0  0  0  0
    5.9913  -18.0655   22.2162 N   0  0  0  0  0  0  0  0  0  0  0  0
    7.0623  -16.7742   23.8999 C   0  0  0  0  0  0  0  0  0  0  0  0
    8.0097  -16.4867   23.1300 O   0  0  0  0  0  0  0  0  0  0  0  0
    5.5689  -12.4054   26.3662 C   0  0  0  0  0  0  0  0  0  0  0  0
    6.4468  -13.2599   25.5078 C   0  0  0  0  0  0  0  0  0  0  0  0
    7.3103  -14.1168   26.4331 C   0  0  2  0  0  0  0  0  0  0  0  0
    8.2215  -13.1944   27.1626 C   0  0  0  0  0  0  0  0  0  0  0  0
    8.0407  -15.1752   25.5963 C   0  0  2  0  0  0  0  0  0  0  0  0
    6.9685  -16.0425   25.1128 N   0  0  0  0  0  0  0  0  0  0  0  0
    9.0527  -15.9153   26.3391 C   0  0  0  0  0  0  0  0  0  0  0  0
    8.7613  -16.6616   27.3415 O   0  0  0  0  0  0  0  0  0  0  0  0
   12.4989  -17.0546   24.6046 O   0  0  0  0  0  0  0  0  0  0  0  0
   12.6894  -16.6642   25.9157 C   0  0  0  0  0  0  0  0  0  0  0  0
   11.3865  -16.7357   26.7138 C   0  0  2  0  0  0  0  0  0  0  0  0
   10.4277  -15.8651   26.0066 N   0  0  0  0  0  0  0  0  0  0  0  0
   11.6664  -16.2081   28.0652 C   0  0  0  0  0  0  0  0  0  0  0  0
   12.5204  -16.8915   28.8917 O   0  0  0  0  0  0  0  0  0  0  0  0
   11.1405  -15.1480   28.4755 O   0  0  0  0  0  0  0  0  0  0  0  0
  2  1  1  6
  2  3  1  0
  4  2  1  0
  4  5  1  6
  4  6  1  0
  6 13  1  0
  6  7  2  0
  8  9  1  0
  9 10  1  0
 10 12  1  0
 10 11  1  6
 12 14  1  0
 12 13  1  1
 14 15  2  0
 16 17  1  0
 18 17  1  6
 18 20  1  0
 19 14  1  0
 19 18  1  0
 20 21  1  0
 22 20  2  0
M  END
$$$$
