VIS.pdb
     RDKit          3D

 22 21  0  0  1  0  0  0  0  0999 V2000
    6.0539  -16.5824   19.7582 C   0  0  0  0  0  0  0  0  0  0  0  0
    6.9473  -16.3588   20.9415 C   0  0  2  0  0  0  0  0  0  0  0  0
    6.4132  -17.0777   22.1610 C   0  0  0  0  0  0  0  0  0  0  0  0
    7.1075  -14.9055   21.2961 C   0  0  2  0  0  0  0  0  0  0  0  0
    7.5331  -14.0955   20.1952 N   0  0  0  0  0  0  0  0  0  0  0  0
    7.9870  -14.6824   22.4533 C   0  0  0  0  0  0  0  0  0  0  0  0
    9.2366  -14.6003   22.3845 O   0  0  0  0  0  0  0  0  0  0  0  0
    5.9856  -11.5088   26.0944 C   0  0  0  0  0  0  0  0  0  0  0  0
    6.9542  -12.2341   25.2150 C   0  0  0  0  0  0  0  0  0  0  0  0
    7.2775  -13.5707   25.8823 C   0  0  2  0  0  0  0  0  0  0  0  0
    7.8839  -13.2654   27.2061 C   0  0  0  0  0  0  0  0  0  0  0  0
    8.1908  -14.3836   24.9555 C   0  0  2  0  0  0  0  0  0  0  0  0
    7.3989  -14.5494   23.7386 N   0  0  0  0  0  0  0  0  0  0  0  0
    8.6091  -15.6618   25.5168 C   0  0  0  0  0  0  0  0  0  0  0  0
    7.7756  -16.4969   26.0214 O   0  0  0  0  0  0  0  0  0  0  0  0
   12.4598  -16.8628   25.0777 O   0  0  0  0  0  0  0  0  0  0  0  0
   11.5105  -17.8641   25.1411 C   0  0  0  0  0  0  0  0  0  0  0  0
   10.3071  -17.4389   25.9842 C   0  0  2  0  0  0  0  0  0  0  0  0
    9.9632  -16.0734   25.5432 N   0  0  0  0  0  0  0  0  0  0  0  0
   10.7373  -17.4341   27.3978 C   0  0  0  0  0  0  0  0  0  0  0  0
   11.0899  -18.6147   27.9987 O   0  0  0  0  0  0  0  0  0  0  0  0
   10.7878  -16.3738   28.0626 O   0  0  0  0  0  0  0  0  0  0  0  0
  2  1  1  6
  2  3  1  0
  4  2  1  0
  4  5  1  6
  4  6  1  0
  6 13  1  0
  6  7  2  0
  8  9  1  0
  9 10  1  0
 10 12  1  0
 10 11  1  1
 12 14  1  0
 12 13  1  6
 14 15  2  0
 16 17  1  0
 18 17  1  6
 18 20  1  0
 19 14  1  0
 19 18  1  0
 20 21  1  0
 22 20  2  0
M  END
$$$$
