VIS.pdb
     RDKit          3D

 22 21  0  0  1  0  0  0  0  0999 V2000
    9.1275  -19.8126   18.4961 C   0  0  0  0  0  0  0  0  0  0  0  0
    8.1097  -18.8936   17.8897 C   0  0  2  0  0  0  0  0  0  0  0  0
    7.4240  -19.5533   16.7133 C   0  0  0  0  0  0  0  0  0  0  0  0
    8.6964  -17.5933   17.4117 C   0  0  2  0  0  0  0  0  0  0  0  0
    9.6043  -17.7483   16.3158 N   0  0  0  0  0  0  0  0  0  0  0  0
    9.3318  -16.8128   18.4838 C   0  0  0  0  0  0  0  0  0  0  0  0
   10.5709  -16.7384   18.6632 O   0  0  0  0  0  0  0  0  0  0  0  0
    6.8799  -12.3145   19.8420 C   0  0  0  0  0  0  0  0  0  0  0  0
    7.9766  -13.3051   19.6102 C   0  0  0  0  0  0  0  0  0  0  0  0
    7.9882  -14.2718   20.7941 C   0  0  2  0  0  0  0  0  0  0  0  0
    8.2534  -13.4660   22.0163 C   0  0  0  0  0  0  0  0  0  0  0  0
    9.0320  -15.3660   20.5353 C   0  0  2  0  0  0  0  0  0  0  0  0
    8.5027  -16.0910   19.3822 N   0  0  0  0  0  0  0  0  0  0  0  0
    9.2599  -16.2420   21.6773 C   0  0  0  0  0  0  0  0  0  0  0  0
    8.3138  -16.9075   22.2330 O   0  0  0  0  0  0  0  0  0  0  0  0
   13.0374  -16.7901   23.1260 O   0  0  0  0  0  0  0  0  0  0  0  0
   12.1633  -17.8444   23.3052 C   0  0  0  0  0  0  0  0  0  0  0  0
   10.7140  -17.3608   23.3785 C   0  0  2  0  0  0  0  0  0  0  0  0
   10.5405  -16.4227   22.2529 N   0  0  0  0  0  0  0  0  0  0  0  0
   10.5467  -16.6595   24.6682 C   0  0  0  0  0  0  0  0  0  0  0  0
   10.2769  -15.3154   24.6742 O   0  0  0  0  0  0  0  0  0  0  0  0
   10.6458  -17.2653   25.7600 O   0  0  0  0  0  0  0  0  0  0  0  0
  2  1  1  6
  2  3  1  0
  4  2  1  0
  4  5  1  6
  4  6  1  0
  6 13  1  0
  6  7  2  0
  8  9  1  0
  9 10  1  0
 10 12  1  0
 10 11  1  1
 12 14  1  0
 12 13  1  6
 14 15  2  0
 16 17  1  0
 18 17  1  1
 18 20  1  0
 19 14  1  0
 19 18  1  0
 20 21  1  0
 22 20  2  0
M  END
$$$$
