VIS.pdb
     RDKit          3D

 22 21  0  0  1  0  0  0  0  0999 V2000
    7.5229  -20.1974   24.0430 C   0  0  0  0  0  0  0  0  0  0  0  0
    6.4119  -19.6850   24.9100 C   0  0  2  0  0  0  0  0  0  0  0  0
    5.4674  -20.8043   25.2898 C   0  0  0  0  0  0  0  0  0  0  0  0
    5.6016  -18.6002   24.2542 C   0  0  2  0  0  0  0  0  0  0  0  0
    4.8526  -19.0557   23.1225 N   0  0  0  0  0  0  0  0  0  0  0  0
    6.3983  -17.4200   23.8871 C   0  0  0  0  0  0  0  0  0  0  0  0
    6.7411  -17.1368   22.7143 O   0  0  0  0  0  0  0  0  0  0  0  0
    5.8369  -13.0057   26.7723 C   0  0  0  0  0  0  0  0  0  0  0  0
    6.1458  -13.8779   25.5969 C   0  0  0  0  0  0  0  0  0  0  0  0
    7.5363  -14.4746   25.8130 C   0  0  2  0  0  0  0  0  0  0  0  0
    8.4998  -13.3415   25.8473 C   0  0  0  0  0  0  0  0  0  0  0  0
    7.8198  -15.4952   24.7031 C   0  0  2  0  0  0  0  0  0  0  0  0
    6.8142  -16.5339   24.9153 N   0  0  0  0  0  0  0  0  0  0  0  0
    9.1753  -16.0296   24.7292 C   0  0  0  0  0  0  0  0  0  0  0  0
    9.6306  -16.7012   25.7234 O   0  0  0  0  0  0  0  0  0  0  0  0
   10.9960  -16.8116   21.2666 O   0  0  0  0  0  0  0  0  0  0  0  0
   11.9170  -16.4367   22.2252 C   0  0  0  0  0  0  0  0  0  0  0  0
   11.3519  -16.6034   23.6368 C   0  0  2  0  0  0  0  0  0  0  0  0
   10.0846  -15.8479   23.6596 N   0  0  0  0  0  0  0  0  0  0  0  0
   12.3261  -16.0099   24.5759 C   0  0  0  0  0  0  0  0  0  0  0  0
   13.5320  -16.6301   24.7768 O   0  0  0  0  0  0  0  0  0  0  0  0
   12.0759  -14.9502   25.1949 O   0  0  0  0  0  0  0  0  0  0  0  0
  2  1  1  6
  2  3  1  0
  4  2  1  0
  4  5  1  6
  4  6  1  0
  6 13  1  0
  6  7  2  0
  8  9  1  0
  9 10  1  0
 10 12  1  0
 10 11  1  6
 12 14  1  0
 12 13  1  1
 14 15  2  0
 16 17  1  0
 18 17  1  6
 18 20  1  0
 19 14  1  0
 19 18  1  0
 20 21  1  0
 22 20  2  0
M  END
$$$$
