VIS.pdb
     RDKit          3D

 22 21  0  0  1  0  0  0  0  0999 V2000
    7.6943  -17.7040   21.5596 C   0  0  0  0  0  0  0  0  0  0  0  0
    6.6024  -16.6777   21.6127 C   0  0  2  0  0  0  0  0  0  0  0  0
    5.6333  -16.8649   20.4659 C   0  0  0  0  0  0  0  0  0  0  0  0
    7.1152  -15.2643   21.5572 C   0  0  2  0  0  0  0  0  0  0  0  0
    7.7332  -14.9326   20.3093 N   0  0  0  0  0  0  0  0  0  0  0  0
    8.0168  -14.9285   22.6692 C   0  0  0  0  0  0  0  0  0  0  0  0
    9.2580  -14.7895   22.5540 O   0  0  0  0  0  0  0  0  0  0  0  0
    6.1397  -11.5924   26.1568 C   0  0  0  0  0  0  0  0  0  0  0  0
    7.1197  -12.3609   25.3281 C   0  0  0  0  0  0  0  0  0  0  0  0
    7.4254  -13.6669   26.0611 C   0  0  2  0  0  0  0  0  0  0  0  0
    8.0817  -13.3058   27.3465 C   0  0  0  0  0  0  0  0  0  0  0  0
    8.2854  -14.5583   25.1557 C   0  0  2  0  0  0  0  0  0  0  0  0
    7.4620  -14.7465   23.9632 N   0  0  0  0  0  0  0  0  0  0  0  0
    8.6634  -15.8257   25.7676 C   0  0  0  0  0  0  0  0  0  0  0  0
    7.8038  -16.6149   26.3015 O   0  0  0  0  0  0  0  0  0  0  0  0
   12.4660  -17.1345   25.4249 O   0  0  0  0  0  0  0  0  0  0  0  0
   11.5249  -18.1249   25.6276 C   0  0  0  0  0  0  0  0  0  0  0  0
   10.3154  -17.5952   26.3998 C   0  0  2  0  0  0  0  0  0  0  0  0
   10.0043  -16.2769   25.8144 N   0  0  0  0  0  0  0  0  0  0  0  0
   10.7217  -17.4517   27.8132 C   0  0  0  0  0  0  0  0  0  0  0  0
   11.0532  -18.5687   28.5356 O   0  0  0  0  0  0  0  0  0  0  0  0
   10.7706  -16.3305   28.3692 O   0  0  0  0  0  0  0  0  0  0  0  0
  2  1  1  6
  2  3  1  0
  4  2  1  0
  4  5  1  6
  4  6  1  0
  6 13  1  0
  6  7  2  0
  8  9  1  0
  9 10  1  0
 10 12  1  0
 10 11  1  1
 12 14  1  0
 12 13  1  6
 14 15  2  0
 16 17  1  0
 18 17  1  6
 18 20  1  0
 19 14  1  0
 19 18  1  0
 20 21  1  0
 22 20  2  0
M  END
$$$$
