VIS.pdb
     RDKit          3D

 22 21  0  0  1  0  0  0  0  0999 V2000
    7.6441  -17.1971   21.1473 C   0  0  0  0  0  0  0  0  0  0  0  0
    6.5733  -16.1484   21.1896 C   0  0  2  0  0  0  0  0  0  0  0  0
    5.6771  -16.2468   19.9745 C   0  0  0  0  0  0  0  0  0  0  0  0
    7.1187  -14.7474   21.2482 C   0  0  2  0  0  0  0  0  0  0  0  0
    7.8169  -14.3593   20.0603 N   0  0  0  0  0  0  0  0  0  0  0  0
    7.9595  -14.4993   22.4288 C   0  0  0  0  0  0  0  0  0  0  0  0
    9.2069  -14.3736   22.3929 O   0  0  0  0  0  0  0  0  0  0  0  0
    5.9822  -11.3716   26.1331 C   0  0  0  0  0  0  0  0  0  0  0  0
    6.9547  -12.1022   25.2623 C   0  0  0  0  0  0  0  0  0  0  0  0
    7.1760  -13.4864   25.8716 C   0  0  2  0  0  0  0  0  0  0  0  0
    7.7325  -13.2816   27.2361 C   0  0  0  0  0  0  0  0  0  0  0  0
    8.0902  -14.2993   24.9456 C   0  0  2  0  0  0  0  0  0  0  0  0
    7.3340  -14.3927   23.6987 N   0  0  0  0  0  0  0  0  0  0  0  0
    8.4435  -15.6110   25.4732 C   0  0  0  0  0  0  0  0  0  0  0  0
    7.5601  -16.4915   25.7748 O   0  0  0  0  0  0  0  0  0  0  0  0
   11.1497  -17.7443   24.0838 O   0  0  0  0  0  0  0  0  0  0  0  0
   11.3217  -17.8364   25.4512 C   0  0  0  0  0  0  0  0  0  0  0  0
   10.0783  -17.3588   26.2030 C   0  0  2  0  0  0  0  0  0  0  0  0
    9.7853  -16.0074   25.6880 N   0  0  0  0  0  0  0  0  0  0  0  0
   10.4241  -17.3027   27.6385 C   0  0  0  0  0  0  0  0  0  0  0  0
   10.7031  -18.4647   28.3101 O   0  0  0  0  0  0  0  0  0  0  0  0
   10.4686  -16.2154   28.2586 O   0  0  0  0  0  0  0  0  0  0  0  0
  2  1  1  6
  2  3  1  0
  4  2  1  0
  4  5  1  6
  4  6  1  0
  6 13  1  0
  6  7  2  0
  8  9  1  0
  9 10  1  0
 10 12  1  0
 10 11  1  1
 12 14  1  0
 12 13  1  6
 14 15  2  0
 16 17  1  0
 18 17  1  6
 18 20  1  0
 19 14  1  0
 19 18  1  0
 20 21  1  0
 22 20  2  0
M  END
$$$$
