VIS.pdb
     RDKit          3D

 22 21  0  0  1  0  0  0  0  0999 V2000
    7.6853  -17.3783   21.2100 C   0  0  0  0  0  0  0  0  0  0  0  0
    6.6875  -16.2592   21.2290 C   0  0  2  0  0  0  0  0  0  0  0  0
    5.8141  -16.2976   19.9941 C   0  0  0  0  0  0  0  0  0  0  0  0
    7.3254  -14.8984   21.3006 C   0  0  2  0  0  0  0  0  0  0  0  0
    8.0761  -14.5605   20.1295 N   0  0  0  0  0  0  0  0  0  0  0  0
    8.1533  -14.7064   22.5006 C   0  0  0  0  0  0  0  0  0  0  0  0
    9.4063  -14.7604   22.5096 O   0  0  0  0  0  0  0  0  0  0  0  0
    6.0060  -11.5201   26.1450 C   0  0  0  0  0  0  0  0  0  0  0  0
    7.0252  -12.2164   25.2998 C   0  0  0  0  0  0  0  0  0  0  0  0
    7.2910  -13.5856   25.9250 C   0  0  2  0  0  0  0  0  0  0  0  0
    7.8435  -13.3472   27.2856 C   0  0  0  0  0  0  0  0  0  0  0  0
    8.2283  -14.3804   25.0065 C   0  0  2  0  0  0  0  0  0  0  0  0
    7.5075  -14.4419   23.7369 N   0  0  0  0  0  0  0  0  0  0  0  0
    8.5622  -15.7054   25.5132 C   0  0  0  0  0  0  0  0  0  0  0  0
    7.6655  -16.5509   25.8707 O   0  0  0  0  0  0  0  0  0  0  0  0
   12.3072  -17.1413   25.1307 O   0  0  0  0  0  0  0  0  0  0  0  0
   11.3048  -18.0723   25.3207 C   0  0  0  0  0  0  0  0  0  0  0  0
   10.1706  -17.5039   26.1752 C   0  0  2  0  0  0  0  0  0  0  0  0
    9.8982  -16.1542   25.6447 N   0  0  0  0  0  0  0  0  0  0  0  0
   10.6624  -17.4245   27.5663 C   0  0  0  0  0  0  0  0  0  0  0  0
   10.9897  -18.5773   28.2320 O   0  0  0  0  0  0  0  0  0  0  0  0
   10.7880  -16.3255   28.1540 O   0  0  0  0  0  0  0  0  0  0  0  0
  2  1  1  6
  2  3  1  0
  4  2  1  0
  4  5  1  6
  4  6  1  0
  6 13  1  0
  6  7  2  0
  8  9  1  0
  9 10  1  0
 10 12  1  0
 10 11  1  1
 12 14  1  0
 12 13  1  6
 14 15  2  0
 16 17  1  0
 18 17  1  6
 18 20  1  0
 19 14  1  0
 19 18  1  0
 20 21  1  0
 22 20  2  0
M  END
$$$$
