SHL.pdb
     RDKit          3D

 25 25  0  0  1  0  0  0  0  0999 V2000
   10.5236  -12.3373   18.0945 O   0  0  0  0  0  0  0  0  0  0  0  0
    9.7325  -12.5790   19.2222 C   0  0  0  0  0  0  0  0  0  0  0  0
    8.9162  -13.8211   18.9536 C   0  0  2  0  0  0  0  0  0  0  0  0
    7.7703  -13.5389   18.1126 N   0  0  0  0  0  0  0  0  0  0  0  0
    8.5397  -14.5293   20.1933 C   0  0  0  0  0  0  0  0  0  0  0  0
    7.4879  -14.2154   20.8151 O   0  0  0  0  0  0  0  0  0  0  0  0
    9.3135  -15.5804   20.7525 N   0  0  0  0  0  0  0  0  0  0  0  0
    8.9812  -16.3101   21.9336 C   0  0  1  0  0  0  0  0  0  0  0  0
    9.7158  -17.6007   22.0831 C   0  0  0  0  0  0  0  0  0  0  0  0
    9.2872  -18.3705   23.2770 C   0  0  0  0  0  0  0  0  0  0  0  0
    8.3191  -18.0045   24.1855 C   0  0  0  0  0  0  0  0  0  0  0  0
    8.2361  -18.9701   25.1091 N   0  0  0  0  0  0  0  0  0  0  0  0
    9.1210  -19.9395   24.8172 C   0  0  0  0  0  0  0  0  0  0  0  0
    9.7605  -19.5671   23.6963 N   0  0  0  0  0  0  0  0  0  0  0  0
    9.0738  -15.5158   23.1667 C   0  0  0  0  0  0  0  0  0  0  0  0
   10.0895  -14.8080   23.3728 O   0  0  0  0  0  0  0  0  0  0  0  0
    8.0506  -11.8761   26.4613 C   0  0  0  0  0  0  0  0  0  0  0  0
    6.7437  -12.4432   25.9316 C   0  0  2  0  0  0  0  0  0  0  0  0
    5.7342  -12.5369   27.0109 C   0  0  0  0  0  0  0  0  0  0  0  0
    6.9130  -13.5990   25.0278 C   0  0  0  0  0  0  0  0  0  0  0  0
    8.0595  -14.5142   25.2214 C   0  0  2  0  0  0  0  0  0  0  0  0
    8.0414  -15.5244   24.1406 N   0  0  0  0  0  0  0  0  0  0  0  0
    8.1630  -15.2218   26.4942 C   0  0  0  0  0  0  0  0  0  0  0  0
    7.5734  -16.4787   26.6264 O   0  0  0  0  0  0  0  0  0  0  0  0
    8.7580  -14.7442   27.4653 O   0  0  0  0  0  0  0  0  0  0  0  0
  2  1  1  0
  3  2  1  0
  3  5  1  0
  3  4  1  1
  5  6  2  0
  5  7  1  0
  7  8  1  0
  8 15  1  0
  8  9  1  1
  9 10  1  0
 10 11  2  0
 10 14  1  0
 11 12  1  0
 12 13  1  0
 14 13  2  0
 15 22  1  0
 15 16  2  0
 18 17  1  1
 18 19  1  0
 18 20  1  0
 21 20  1  1
 21 23  1  0
 22 21  1  0
 23 24  1  0
 25 23  2  0
M  END
$$$$
