SHL.pdb
     RDKit          3D

 25 25  0  0  1  0  0  0  0  0999 V2000
    3.6652  -18.7343   23.6257 O   0  0  0  0  0  0  0  0  0  0  0  0
    3.5182  -17.7989   22.5963 C   0  0  0  0  0  0  0  0  0  0  0  0
    4.4573  -18.1918   21.4806 C   0  0  2  0  0  0  0  0  0  0  0  0
    4.2968  -19.5831   21.1086 N   0  0  0  0  0  0  0  0  0  0  0  0
    5.8628  -17.8506   21.7779 C   0  0  0  0  0  0  0  0  0  0  0  0
    6.5883  -18.6451   22.4366 O   0  0  0  0  0  0  0  0  0  0  0  0
    6.4742  -16.6408   21.3551 N   0  0  0  0  0  0  0  0  0  0  0  0
    7.8067  -16.2368   21.6697 C   0  0  1  0  0  0  0  0  0  0  0  0
    8.4901  -15.4785   20.5809 C   0  0  0  0  0  0  0  0  0  0  0  0
    9.9672  -15.4779   20.7212 C   0  0  0  0  0  0  0  0  0  0  0  0
   10.6956  -16.0593   21.7352 C   0  0  0  0  0  0  0  0  0  0  0  0
   11.9925  -15.8334   21.4912 N   0  0  0  0  0  0  0  0  0  0  0  0
   12.1127  -15.1265   20.3538 C   0  0  0  0  0  0  0  0  0  0  0  0
   10.8713  -14.9122   19.8879 N   0  0  0  0  0  0  0  0  0  0  0  0
    7.9230  -15.5232   22.9494 C   0  0  0  0  0  0  0  0  0  0  0  0
    7.3401  -14.4219   23.0997 O   0  0  0  0  0  0  0  0  0  0  0  0
    7.6261  -12.6746   25.4600 C   0  0  0  0  0  0  0  0  0  0  0  0
    6.6451  -13.8221   25.6358 C   0  0  2  0  0  0  0  0  0  0  0  0
    5.5778  -13.4603   26.5964 C   0  0  0  0  0  0  0  0  0  0  0  0
    7.2866  -15.1461   25.7664 C   0  0  0  0  0  0  0  0  0  0  0  0
    8.6867  -15.3248   25.3223 C   0  0  2  0  0  0  0  0  0  0  0  0
    8.6809  -16.0450   24.0300 N   0  0  0  0  0  0  0  0  0  0  0  0
    9.6054  -16.0206   26.2186 C   0  0  0  0  0  0  0  0  0  0  0  0
   10.1139  -15.3496   27.3304 O   0  0  0  0  0  0  0  0  0  0  0  0
    9.9513  -17.1905   26.0265 O   0  0  0  0  0  0  0  0  0  0  0  0
  2  1  1  0
  3  2  1  0
  3  5  1  0
  3  4  1  1
  5  6  2  0
  5  7  1  0
  7  8  1  0
  8 15  1  0
  8  9  1  6
  9 10  1  0
 10 11  2  0
 10 14  1  0
 11 12  1  0
 12 13  1  0
 14 13  2  0
 15 22  1  0
 15 16  2  0
 18 17  1  1
 18 19  1  0
 18 20  1  0
 21 20  1  1
 21 23  1  0
 22 21  1  0
 23 24  1  0
 25 23  2  0
M  END
$$$$
