SHL.pdb
     RDKit          3D

 25 25  0  0  1  0  0  0  0  0999 V2000
    4.4029  -18.9207   22.2402 O   0  0  0  0  0  0  0  0  0  0  0  0
    5.5626  -18.1892   22.5160 C   0  0  0  0  0  0  0  0  0  0  0  0
    6.2808  -17.9556   21.2081 C   0  0  2  0  0  0  0  0  0  0  0  0
    6.4936  -19.1927   20.4840 N   0  0  0  0  0  0  0  0  0  0  0  0
    7.5288  -17.1849   21.3780 C   0  0  0  0  0  0  0  0  0  0  0  0
    8.6241  -17.7774   21.5799 O   0  0  0  0  0  0  0  0  0  0  0  0
    7.5784  -15.7668   21.3273 N   0  0  0  0  0  0  0  0  0  0  0  0
    8.7405  -14.9736   21.5690 C   0  0  1  0  0  0  0  0  0  0  0  0
    8.7718  -13.6870   20.8131 C   0  0  0  0  0  0  0  0  0  0  0  0
    8.4778  -13.8619   19.3693 C   0  0  0  0  0  0  0  0  0  0  0  0
    7.5481  -13.1644   18.6305 C   0  0  0  0  0  0  0  0  0  0  0  0
    7.5952  -13.6219   17.3732 N   0  0  0  0  0  0  0  0  0  0  0  0
    8.5256  -14.5888   17.2882 C   0  0  0  0  0  0  0  0  0  0  0  0
    9.0615  -14.7310   18.5116 N   0  0  0  0  0  0  0  0  0  0  0  0
    9.0149  -14.7434   22.9944 C   0  0  0  0  0  0  0  0  0  0  0  0
   10.0335  -14.0925   23.3319 O   0  0  0  0  0  0  0  0  0  0  0  0
    8.3362  -12.9095   27.6203 C   0  0  0  0  0  0  0  0  0  0  0  0
    7.2778  -12.6295   26.5661 C   0  0  2  0  0  0  0  0  0  0  0  0
    6.0417  -12.1016   27.1878 C   0  0  0  0  0  0  0  0  0  0  0  0
    7.1516  -13.6894   25.5452 C   0  0  0  0  0  0  0  0  0  0  0  0
    8.2465  -14.6697   25.3729 C   0  0  2  0  0  0  0  0  0  0  0  0
    8.1567  -15.2390   24.0104 N   0  0  0  0  0  0  0  0  0  0  0  0
    8.3260  -15.7799   26.3178 C   0  0  0  0  0  0  0  0  0  0  0  0
    7.5299  -16.9070   26.1154 O   0  0  0  0  0  0  0  0  0  0  0  0
    9.0781  -15.7570   27.2971 O   0  0  0  0  0  0  0  0  0  0  0  0
  2  1  1  0
  3  2  1  0
  3  5  1  0
  3  4  1  1
  5  6  2  0
  5  7  1  0
  7  8  1  0
  8 15  1  0
  8  9  1  6
  9 10  1  0
 10 11  2  0
 10 14  1  0
 11 12  1  0
 12 13  1  0
 14 13  2  0
 15 22  1  0
 15 16  2  0
 18 17  1  1
 18 19  1  0
 18 20  1  0
 21 20  1  1
 21 23  1  0
 22 21  1  0
 23 24  1  0
 25 23  2  0
M  END
$$$$
