SHL.pdb
     RDKit          3D

 25 25  0  0  1  0  0  0  0  0999 V2000
    7.3921  -18.7178   23.3807 O   0  0  0  0  0  0  0  0  0  0  0  0
    7.6688  -19.5163   22.2663 C   0  0  0  0  0  0  0  0  0  0  0  0
    7.5488  -18.6474   21.0368 C   0  0  2  0  0  0  0  0  0  0  0  0
    7.8022  -19.3970   19.8228 N   0  0  0  0  0  0  0  0  0  0  0  0
    8.3755  -17.4271   21.1240 C   0  0  0  0  0  0  0  0  0  0  0  0
    9.6309  -17.4962   21.0202 O   0  0  0  0  0  0  0  0  0  0  0  0
    7.8292  -16.1319   21.3246 N   0  0  0  0  0  0  0  0  0  0  0  0
    8.5854  -14.9258   21.4308 C   0  0  1  0  0  0  0  0  0  0  0  0
    8.0104  -13.7740   20.6755 C   0  0  0  0  0  0  0  0  0  0  0  0
    8.1910  -13.9019   19.2083 C   0  0  0  0  0  0  0  0  0  0  0  0
    8.9448  -14.8506   18.5537 C   0  0  0  0  0  0  0  0  0  0  0  0
    8.8447  -14.6193   17.2388 N   0  0  0  0  0  0  0  0  0  0  0  0
    8.0510  -13.5532   17.0356 C   0  0  0  0  0  0  0  0  0  0  0  0
    7.6546  -13.1190   18.2433 N   0  0  0  0  0  0  0  0  0  0  0  0
    8.8895  -14.5370   22.8152 C   0  0  0  0  0  0  0  0  0  0  0  0
    9.4073  -13.4169   23.0446 O   0  0  0  0  0  0  0  0  0  0  0  0
    5.5154  -12.8540   26.6530 C   0  0  0  0  0  0  0  0  0  0  0  0
    6.9857  -13.2284   26.5629 C   0  0  2  0  0  0  0  0  0  0  0  0
    7.8410  -12.1293   27.0659 C   0  0  0  0  0  0  0  0  0  0  0  0
    7.3616  -13.8850   25.2944 C   0  0  0  0  0  0  0  0  0  0  0  0
    8.5064  -14.8222   25.2699 C   0  0  2  0  0  0  0  0  0  0  0  0
    8.6140  -15.3964   23.9106 N   0  0  0  0  0  0  0  0  0  0  0  0
    8.5068  -15.9272   26.2241 C   0  0  0  0  0  0  0  0  0  0  0  0
    9.3737  -15.8861   27.3158 O   0  0  0  0  0  0  0  0  0  0  0  0
    7.7619  -16.9042   26.0987 O   0  0  0  0  0  0  0  0  0  0  0  0
  2  1  1  0
  3  2  1  0
  3  5  1  0
  3  4  1  6
  5  6  2  0
  5  7  1  0
  7  8  1  0
  8 15  1  0
  8  9  1  1
  9 10  1  0
 10 11  2  0
 10 14  1  0
 11 12  1  0
 12 13  1  0
 14 13  2  0
 15 22  1  0
 15 16  2  0
 18 17  1  6
 18 19  1  0
 18 20  1  0
 21 20  1  6
 21 23  1  0
 22 21  1  0
 23 24  1  0
 25 23  2  0
M  END
$$$$
