SHL.pdb
     RDKit          3D

 25 25  0  0  1  0  0  0  0  0999 V2000
    9.2447  -11.8348   18.3963 O   0  0  0  0  0  0  0  0  0  0  0  0
    8.5997  -12.5096   19.4378 C   0  0  0  0  0  0  0  0  0  0  0  0
    8.5194  -13.9696   19.0596 C   0  0  2  0  0  0  0  0  0  0  0  0
    7.5107  -14.2071   18.0467 N   0  0  0  0  0  0  0  0  0  0  0  0
    8.3518  -14.8494   20.2335 C   0  0  0  0  0  0  0  0  0  0  0  0
    7.1988  -15.1581   20.6420 O   0  0  0  0  0  0  0  0  0  0  0  0
    9.4449  -15.3910   20.9602 N   0  0  0  0  0  0  0  0  0  0  0  0
    9.3354  -16.2446   22.0991 C   0  0  1  0  0  0  0  0  0  0  0  0
   10.2598  -17.4162   22.0775 C   0  0  0  0  0  0  0  0  0  0  0  0
   10.0051  -18.3276   20.9346 C   0  0  0  0  0  0  0  0  0  0  0  0
    8.8349  -19.0032   20.6684 C   0  0  0  0  0  0  0  0  0  0  0  0
    9.0167  -19.7149   19.5492 N   0  0  0  0  0  0  0  0  0  0  0  0
   10.2660  -19.5139   19.0944 C   0  0  0  0  0  0  0  0  0  0  0  0
   10.8652  -18.6650   19.9456 N   0  0  0  0  0  0  0  0  0  0  0  0
    9.4290  -15.5349   23.3828 C   0  0  0  0  0  0  0  0  0  0  0  0
   10.0472  -14.4444   23.4440 O   0  0  0  0  0  0  0  0  0  0  0  0
    8.2020  -12.6438   27.1476 C   0  0  0  0  0  0  0  0  0  0  0  0
    7.1839  -12.9851   26.0720 C   0  0  2  0  0  0  0  0  0  0  0  0
    5.8150  -13.0231   26.6353 C   0  0  0  0  0  0  0  0  0  0  0  0
    7.6032  -14.0803   25.1740 C   0  0  0  0  0  0  0  0  0  0  0  0
    8.5235  -15.1240   25.6773 C   0  0  2  0  0  0  0  0  0  0  0  0
    8.8371  -16.0488   24.5659 N   0  0  0  0  0  0  0  0  0  0  0  0
    8.0909  -15.9254   26.8183 C   0  0  0  0  0  0  0  0  0  0  0  0
    8.7492  -15.7852   28.0398 O   0  0  0  0  0  0  0  0  0  0  0  0
    7.1564  -16.7290   26.7407 O   0  0  0  0  0  0  0  0  0  0  0  0
  2  1  1  0
  3  2  1  0
  3  5  1  0
  3  4  1  6
  5  6  2  0
  5  7  1  0
  7  8  1  0
  8 15  1  0
  8  9  1  6
  9 10  1  0
 10 11  2  0
 10 14  1  0
 11 12  1  0
 12 13  1  0
 14 13  2  0
 15 22  1  0
 15 16  2  0
 18 17  1  1
 18 19  1  0
 18 20  1  0
 21 20  1  6
 21 23  1  0
 22 21  1  0
 23 24  1  0
 25 23  2  0
M  END
$$$$
