SHL.pdb
     RDKit          3D

 25 25  0  0  1  0  0  0  0  0999 V2000
   11.3193  -12.7762   19.0827 O   0  0  0  0  0  0  0  0  0  0  0  0
   10.1295  -12.5880   19.7933 C   0  0  0  0  0  0  0  0  0  0  0  0
    9.1553  -13.6533   19.3493 C   0  0  2  0  0  0  0  0  0  0  0  0
    8.1555  -13.1230   18.4442 N   0  0  0  0  0  0  0  0  0  0  0  0
    8.5529  -14.3779   20.4861 C   0  0  0  0  0  0  0  0  0  0  0  0
    7.4016  -14.0724   20.9016 O   0  0  0  0  0  0  0  0  0  0  0  0
    9.2097  -15.4362   21.1680 N   0  0  0  0  0  0  0  0  0  0  0  0
    8.6662  -16.1742   22.2625 C   0  0  1  0  0  0  0  0  0  0  0  0
    8.9980  -17.6292   22.2448 C   0  0  0  0  0  0  0  0  0  0  0  0
    8.3206  -18.3594   21.1451 C   0  0  0  0  0  0  0  0  0  0  0  0
    7.4738  -17.8211   20.2018 C   0  0  0  0  0  0  0  0  0  0  0  0
    7.0786  -18.8109   19.3916 N   0  0  0  0  0  0  0  0  0  0  0  0
    7.6472  -19.9626   19.7893 C   0  0  0  0  0  0  0  0  0  0  0  0
    8.4051  -19.6801   20.8617 N   0  0  0  0  0  0  0  0  0  0  0  0
    8.9659  -15.5906   23.5777 C   0  0  0  0  0  0  0  0  0  0  0  0
   10.1263  -15.1803   23.8235 O   0  0  0  0  0  0  0  0  0  0  0  0
    8.1345  -11.9733   26.1587 C   0  0  0  0  0  0  0  0  0  0  0  0
    6.9410  -12.9121   26.0944 C   0  0  2  0  0  0  0  0  0  0  0  0
    5.7219  -12.2509   26.6133 C   0  0  0  0  0  0  0  0  0  0  0  0
    7.2353  -14.2892   26.5400 C   0  0  0  0  0  0  0  0  0  0  0  0
    8.3713  -15.0228   25.9393 C   0  0  2  0  0  0  0  0  0  0  0  0
    7.9755  -15.4758   24.5877 N   0  0  0  0  0  0  0  0  0  0  0  0
    8.8996  -16.1764   26.6615 C   0  0  0  0  0  0  0  0  0  0  0  0
    8.7891  -17.4459   26.0947 O   0  0  0  0  0  0  0  0  0  0  0  0
    9.4448  -16.0682   27.7644 O   0  0  0  0  0  0  0  0  0  0  0  0
  2  1  1  0
  3  2  1  0
  3  5  1  0
  3  4  1  1
  5  6  2  0
  5  7  1  0
  7  8  1  0
  8 15  1  0
  8  9  1  1
  9 10  1  0
 10 11  2  0
 10 14  1  0
 11 12  1  0
 12 13  1  0
 14 13  2  0
 15 22  1  0
 15 16  2  0
 18 17  1  1
 18 19  1  0
 18 20  1  0
 21 20  1  1
 21 23  1  0
 22 21  1  0
 23 24  1  0
 25 23  2  0
M  END
$$$$
