SHL.pdb
     RDKit          3D

 25 25  0  0  1  0  0  0  0  0999 V2000
    9.3874  -14.9963   18.7261 O   0  0  0  0  0  0  0  0  0  0  0  0
    8.2619  -14.8013   19.5331 C   0  0  0  0  0  0  0  0  0  0  0  0
    7.7499  -16.1613   19.9445 C   0  0  2  0  0  0  0  0  0  0  0  0
    6.6400  -16.5900   19.1172 N   0  0  0  0  0  0  0  0  0  0  0  0
    7.4350  -16.2349   21.3853 C   0  0  0  0  0  0  0  0  0  0  0  0
    6.3044  -15.8731   21.8122 O   0  0  0  0  0  0  0  0  0  0  0  0
    8.3566  -16.7038   22.3584 N   0  0  0  0  0  0  0  0  0  0  0  0
    8.0642  -16.9045   23.7412 C   0  0  1  0  0  0  0  0  0  0  0  0
    8.3873  -18.2724   24.2432 C   0  0  0  0  0  0  0  0  0  0  0  0
    7.3624  -19.2782   23.8695 C   0  0  0  0  0  0  0  0  0  0  0  0
    6.1852  -19.0392   23.1959 C   0  0  0  0  0  0  0  0  0  0  0  0
    5.5465  -20.2077   23.0573 N   0  0  0  0  0  0  0  0  0  0  0  0
    6.2800  -21.1831   23.6215 C   0  0  0  0  0  0  0  0  0  0  0  0
    7.3888  -20.6086   24.1164 N   0  0  0  0  0  0  0  0  0  0  0  0
    8.6402  -15.8798   24.6234 C   0  0  0  0  0  0  0  0  0  0  0  0
    9.8171  -15.4879   24.4320 O   0  0  0  0  0  0  0  0  0  0  0  0
    7.3621  -11.7338   25.4157 C   0  0  0  0  0  0  0  0  0  0  0  0
    6.6202  -12.6721   26.3533 C   0  0  2  0  0  0  0  0  0  0  0  0
    5.4717  -11.9846   26.9866 C   0  0  0  0  0  0  0  0  0  0  0  0
    7.5043  -13.4914   27.2069 C   0  0  0  0  0  0  0  0  0  0  0  0
    8.5537  -14.3257   26.5807 C   0  0  2  0  0  0  0  0  0  0  0  0
    7.9008  -15.3146   25.6949 N   0  0  0  0  0  0  0  0  0  0  0  0
    9.4693  -15.0474   27.4595 C   0  0  0  0  0  0  0  0  0  0  0  0
    9.4590  -16.4420   27.4591 O   0  0  0  0  0  0  0  0  0  0  0  0
   10.2584  -14.4635   28.2089 O   0  0  0  0  0  0  0  0  0  0  0  0
  2  1  1  0
  3  2  1  0
  3  5  1  0
  3  4  1  6
  5  6  2  0
  5  7  1  0
  7  8  1  0
  8 15  1  0
  8  9  1  1
  9 10  1  0
 10 11  2  0
 10 14  1  0
 11 12  1  0
 12 13  1  0
 14 13  2  0
 15 22  1  0
 15 16  2  0
 18 17  1  1
 18 19  1  0
 18 20  1  0
 21 20  1  1
 21 23  1  0
 22 21  1  0
 23 24  1  0
 25 23  2  0
M  END
$$$$
