SHL.pdb
     RDKit          3D

 25 25  0  0  1  0  0  0  0  0999 V2000
    9.8475  -14.5832   19.3335 O   0  0  0  0  0  0  0  0  0  0  0  0
    9.6213  -15.6043   18.4049 C   0  0  0  0  0  0  0  0  0  0  0  0
    9.6577  -16.9184   19.1486 C   0  0  2  0  0  0  0  0  0  0  0  0
    9.4961  -18.0465   18.2534 N   0  0  0  0  0  0  0  0  0  0  0  0
    8.7043  -16.9571   20.2754 C   0  0  0  0  0  0  0  0  0  0  0  0
    7.5259  -17.3729   20.1023 O   0  0  0  0  0  0  0  0  0  0  0  0
    9.0398  -16.5409   21.5909 N   0  0  0  0  0  0  0  0  0  0  0  0
    8.1724  -16.6074   22.7228 C   0  0  1  0  0  0  0  0  0  0  0  0
    7.6864  -17.9819   23.0421 C   0  0  0  0  0  0  0  0  0  0  0  0
    8.7896  -18.9663   23.1676 C   0  0  0  0  0  0  0  0  0  0  0  0
   10.1353  -18.7146   23.0181 C   0  0  0  0  0  0  0  0  0  0  0  0
   10.7925  -19.8649   23.2110 N   0  0  0  0  0  0  0  0  0  0  0  0
    9.9075  -20.8412   23.4786 C   0  0  0  0  0  0  0  0  0  0  0  0
    8.6849  -20.2857   23.4506 N   0  0  0  0  0  0  0  0  0  0  0  0
    8.7155  -15.9581   23.9244 C   0  0  0  0  0  0  0  0  0  0  0  0
    9.9564  -15.9386   24.1107 O   0  0  0  0  0  0  0  0  0  0  0  0
    8.1876  -11.7559   25.3102 C   0  0  0  0  0  0  0  0  0  0  0  0
    7.0583  -12.6224   25.8430 C   0  0  2  0  0  0  0  0  0  0  0  0
    5.9508  -11.7857   26.3589 C   0  0  0  0  0  0  0  0  0  0  0  0
    7.5126  -13.7657   26.6603 C   0  0  0  0  0  0  0  0  0  0  0  0
    8.4783  -14.7311   26.0904 C   0  0  2  0  0  0  0  0  0  0  0  0
    7.8728  -15.3471   24.8893 N   0  0  0  0  0  0  0  0  0  0  0  0
    8.9591  -15.8075   26.9517 C   0  0  0  0  0  0  0  0  0  0  0  0
    9.9689  -15.5426   27.8764 O   0  0  0  0  0  0  0  0  0  0  0  0
    8.5007  -16.9526   26.8907 O   0  0  0  0  0  0  0  0  0  0  0  0
  2  1  1  0
  3  2  1  0
  3  5  1  0
  3  4  1  6
  5  6  2  0
  5  7  1  0
  7  8  1  0
  8 15  1  0
  8  9  1  1
  9 10  1  0
 10 11  2  0
 10 14  1  0
 11 12  1  0
 12 13  1  0
 14 13  2  0
 15 22  1  0
 15 16  2  0
 18 17  1  1
 18 19  1  0
 18 20  1  0
 21 20  1  1
 21 23  1  0
 22 21  1  0
 23 24  1  0
 25 23  2  0
M  END
$$$$
