SHL.pdb
     RDKit          3D

 25 25  0  0  1  0  0  0  0  0999 V2000
    8.4340  -14.9558   15.2870 O   0  0  0  0  0  0  0  0  0  0  0  0
    9.4028  -14.1786   14.6440 C   0  0  0  0  0  0  0  0  0  0  0  0
   10.6277  -15.0402   14.4480 C   0  0  2  0  0  0  0  0  0  0  0  0
   10.3503  -16.1829   13.6012 N   0  0  0  0  0  0  0  0  0  0  0  0
   11.2551  -15.4302   15.7265 C   0  0  0  0  0  0  0  0  0  0  0  0
   10.9841  -16.5410   16.2594 O   0  0  0  0  0  0  0  0  0  0  0  0
   12.1785  -14.6053   16.4216 N   0  0  0  0  0  0  0  0  0  0  0  0
   12.7168  -14.8791   17.7151 C   0  0  1  0  0  0  0  0  0  0  0  0
   14.1539  -14.5077   17.8715 C   0  0  0  0  0  0  0  0  0  0  0  0
   15.0520  -15.3099   17.0047 C   0  0  0  0  0  0  0  0  0  0  0  0
   14.8263  -16.5905   16.5510 C   0  0  0  0  0  0  0  0  0  0  0  0
   15.8741  -16.9510   15.7997 N   0  0  0  0  0  0  0  0  0  0  0  0
   16.7599  -15.9402   15.7607 C   0  0  0  0  0  0  0  0  0  0  0  0
   16.2518  -14.9399   16.4993 N   0  0  0  0  0  0  0  0  0  0  0  0
   11.9168  -14.3290   18.8185 C   0  0  0  0  0  0  0  0  0  0  0  0
   11.5475  -13.1302   18.7782 O   0  0  0  0  0  0  0  0  0  0  0  0
    6.8634  -13.7272   19.8771 C   0  0  0  0  0  0  0  0  0  0  0  0
    8.0871  -13.8086   20.7749 C   0  0  2  0  0  0  0  0  0  0  0  0
    8.1593  -12.6347   21.6747 C   0  0  0  0  0  0  0  0  0  0  0  0
    9.3173  -14.2334   20.0766 C   0  0  0  0  0  0  0  0  0  0  0  0
   10.5096  -14.6133   20.8661 C   0  0  2  0  0  0  0  0  0  0  0  0
   11.5457  -15.1180   19.9384 N   0  0  0  0  0  0  0  0  0  0  0  0
   10.3409  -15.6001   21.9288 C   0  0  0  0  0  0  0  0  0  0  0  0
   10.2584  -15.1701   23.2529 O   0  0  0  0  0  0  0  0  0  0  0  0
   10.2681  -16.8107   21.6960 O   0  0  0  0  0  0  0  0  0  0  0  0
  2  1  1  0
  3  2  1  0
  3  5  1  0
  3  4  1  1
  5  6  2  0
  5  7  1  0
  7  8  1  0
  8 15  1  0
  8  9  1  6
  9 10  1  0
 10 11  2  0
 10 14  1  0
 11 12  1  0
 12 13  1  0
 14 13  2  0
 15 22  1  0
 15 16  2  0
 18 17  1  6
 18 19  1  0
 18 20  1  0
 21 20  1  6
 21 23  1  0
 22 21  1  0
 23 24  1  0
 25 23  2  0
M  END
$$$$
