SHL.pdb
     RDKit          3D

 25 25  0  0  1  0  0  0  0  0999 V2000
    6.7859  -18.7918   26.2283 O   0  0  0  0  0  0  0  0  0  0  0  0
    5.8702  -19.0371   25.1999 C   0  0  0  0  0  0  0  0  0  0  0  0
    6.6529  -19.4531   23.9770 C   0  0  2  0  0  0  0  0  0  0  0  0
    7.5187  -20.5821   24.2521 N   0  0  0  0  0  0  0  0  0  0  0  0
    7.3816  -18.3259   23.3617 C   0  0  0  0  0  0  0  0  0  0  0  0
    8.6200  -18.1829   23.5552 O   0  0  0  0  0  0  0  0  0  0  0  0
    6.7559  -17.3556   22.5351 N   0  0  0  0  0  0  0  0  0  0  0  0
    7.3769  -16.1682   22.0430 C   0  0  1  0  0  0  0  0  0  0  0  0
    6.6902  -15.5609   20.8652 C   0  0  0  0  0  0  0  0  0  0  0  0
    7.4985  -14.5015   20.2125 C   0  0  0  0  0  0  0  0  0  0  0  0
    8.7697  -14.1053   20.5639 C   0  0  0  0  0  0  0  0  0  0  0  0
    9.1408  -13.1267   19.7290 N   0  0  0  0  0  0  0  0  0  0  0  0
    8.1456  -12.8873   18.8570 C   0  0  0  0  0  0  0  0  0  0  0  0
    7.1445  -13.7308   19.1577 N   0  0  0  0  0  0  0  0  0  0  0  0
    7.6219  -15.1546   23.0788 C   0  0  0  0  0  0  0  0  0  0  0  0
    7.0733  -14.0295   22.9867 O   0  0  0  0  0  0  0  0  0  0  0  0
    5.7390  -12.5948   27.1230 C   0  0  0  0  0  0  0  0  0  0  0  0
    7.1717  -12.8873   26.7084 C   0  0  2  0  0  0  0  0  0  0  0  0
    7.9529  -11.6347   26.5926 C   0  0  0  0  0  0  0  0  0  0  0  0
    7.2924  -13.8910   25.6315 C   0  0  0  0  0  0  0  0  0  0  0  0
    8.6332  -14.3680   25.2263 C   0  0  2  0  0  0  0  0  0  0  0  0
    8.4671  -15.4105   24.1899 N   0  0  0  0  0  0  0  0  0  0  0  0
    9.5114  -14.9028   26.2628 C   0  0  0  0  0  0  0  0  0  0  0  0
    9.4135  -16.2493   26.6126 O   0  0  0  0  0  0  0  0  0  0  0  0
   10.3438  -14.2009   26.8456 O   0  0  0  0  0  0  0  0  0  0  0  0
  2  1  1  0
  3  2  1  0
  3  5  1  0
  3  4  1  1
  5  6  2  0
  5  7  1  0
  7  8  1  0
  8 15  1  0
  8  9  1  6
  9 10  1  0
 10 11  2  0
 10 14  1  0
 11 12  1  0
 12 13  1  0
 14 13  2  0
 15 22  1  0
 15 16  2  0
 18 17  1  6
 18 19  1  0
 18 20  1  0
 21 20  1  1
 21 23  1  0
 22 21  1  0
 23 24  1  0
 25 23  2  0
M  END
$$$$
