VPN.pdb
     RDKit          3D

 23 23  0  0  1  0  0  0  0  0999 V2000
   10.9632  -15.0361   27.8595 C   0  0  0  0  0  0  0  0  0  0  0  0
    9.7782  -14.3647   28.5012 C   0  0  2  0  0  0  0  0  0  0  0  0
   10.1628  -13.6426   29.7415 C   0  0  0  0  0  0  0  0  0  0  0  0
    8.6097  -15.3503   28.6981 C   0  0  2  0  0  0  0  0  0  0  0  0
    9.2557  -16.5065   29.3388 N   0  0  0  0  0  0  0  0  0  0  0  0
    8.1633  -15.7913   27.3517 C   0  0  0  0  0  0  0  0  0  0  0  0
    7.9156  -17.0474   27.2447 O   0  0  0  0  0  0  0  0  0  0  0  0
    8.0044  -14.9435   26.2430 N   0  0  0  0  0  0  0  0  0  0  0  0
    8.2443  -13.5388   26.2348 C   0  0  0  0  0  0  0  0  0  0  0  0
    7.2256  -13.0192   25.2464 C   0  0  0  0  0  0  0  0  0  0  0  0
    6.5637  -14.2306   24.6321 C   0  0  0  0  0  0  0  0  0  0  0  0
    7.5810  -15.3065   24.9422 C   0  0  1  0  0  0  0  0  0  0  0  0
    8.6663  -15.1632   23.9127 C   0  0  0  0  0  0  0  0  0  0  0  0
    9.5074  -14.2285   23.9290 O   0  0  0  0  0  0  0  0  0  0  0  0
    9.7650  -19.5700   23.8862 N   0  0  0  0  0  0  0  0  0  0  0  0
   10.5344  -18.4431   23.5131 C   0  0  0  0  0  0  0  0  0  0  0  0
   11.3983  -18.0214   24.3023 O   0  0  0  0  0  0  0  0  0  0  0  0
   10.2989  -17.8120   22.2300 C   0  0  0  0  0  0  0  0  0  0  0  0
   10.1206  -16.3221   22.2273 C   0  0  2  0  0  0  0  0  0  0  0  0
    8.8006  -16.0962   22.8463 N   0  0  0  0  0  0  0  0  0  0  0  0
   10.0983  -15.7352   20.8772 C   0  0  0  0  0  0  0  0  0  0  0  0
   11.1995  -15.4898   20.0848 O   0  0  0  0  0  0  0  0  0  0  0  0
    8.9781  -15.4045   20.3467 O   0  0  0  0  0  0  0  0  0  0  0  0
  2  1  1  1
  2  3  1  0
  4  2  1  0
  4  6  1  0
  4  5  1  1
  6  7  2  0
  8  6  1  0
  8 12  1  0
  9  8  1  0
 10  9  1  0
 10 11  1  0
 11 12  1  0
 12 13  1  6
 13 20  1  0
 13 14  2  0
 16 18  1  0
 16 15  1  0
 17 16  2  0
 19 21  1  0
 19 18  1  6
 20 19  1  0
 21 22  1  0
 23 21  2  0
M  END
$$$$
