VPN.pdb
     RDKit          3D

 23 23  0  0  1  0  0  0  0  0999 V2000
    8.1007  -15.4948   20.3131 C   0  0  0  0  0  0  0  0  0  0  0  0
    6.9314  -14.5817   20.5692 C   0  0  2  0  0  0  0  0  0  0  0  0
    6.0421  -14.4843   19.3829 C   0  0  0  0  0  0  0  0  0  0  0  0
    7.3918  -13.2135   21.1094 C   0  0  2  0  0  0  0  0  0  0  0  0
    8.1944  -12.6728   20.0012 N   0  0  0  0  0  0  0  0  0  0  0  0
    8.3230  -13.4675   22.2384 C   0  0  0  0  0  0  0  0  0  0  0  0
    9.5693  -13.3331   21.9568 O   0  0  0  0  0  0  0  0  0  0  0  0
    7.9276  -13.8282   23.5372 N   0  0  0  0  0  0  0  0  0  0  0  0
    6.5851  -14.0450   23.9628 C   0  0  0  0  0  0  0  0  0  0  0  0
    6.5997  -13.5851   25.4026 C   0  0  0  0  0  0  0  0  0  0  0  0
    8.0389  -13.2745   25.7416 C   0  0  0  0  0  0  0  0  0  0  0  0
    8.7650  -14.0410   24.6583 C   0  0  1  0  0  0  0  0  0  0  0  0
    8.7886  -15.4751   25.1067 C   0  0  0  0  0  0  0  0  0  0  0  0
    7.7714  -16.2144   25.0928 O   0  0  0  0  0  0  0  0  0  0  0  0
   12.8652  -16.9241   23.6261 N   0  0  0  0  0  0  0  0  0  0  0  0
   11.7508  -17.7298   23.9575 C   0  0  0  0  0  0  0  0  0  0  0  0
   11.0837  -18.2349   23.0373 O   0  0  0  0  0  0  0  0  0  0  0  0
   11.4160  -17.9454   25.3509 C   0  0  0  0  0  0  0  0  0  0  0  0
   10.0393  -17.5408   25.7901 C   0  0  2  0  0  0  0  0  0  0  0  0
    9.9865  -16.0816   25.5787 N   0  0  0  0  0  0  0  0  0  0  0  0
    9.7750  -17.8058   27.2140 C   0  0  0  0  0  0  0  0  0  0  0  0
    9.5065  -19.0385   27.7700 O   0  0  0  0  0  0  0  0  0  0  0  0
    9.7831  -16.8354   28.0530 O   0  0  0  0  0  0  0  0  0  0  0  0
  2  1  1  6
  2  3  1  0
  4  2  1  0
  4  6  1  0
  4  5  1  6
  6  7  2  0
  8  6  1  0
  8 12  1  0
  9  8  1  0
 10  9  1  0
 10 11  1  0
 11 12  1  0
 12 13  1  1
 13 20  1  0
 13 14  2  0
 16 18  1  0
 16 15  1  0
 17 16  2  0
 19 21  1  0
 19 18  1  1
 20 19  1  0
 21 22  1  0
 23 21  2  0
M  END
$$$$
