VPN.pdb
     RDKit          3D

 23 23  0  0  1  0  0  0  0  0999 V2000
    7.2100  -15.4227   21.2581 C   0  0  0  0  0  0  0  0  0  0  0  0
    7.2574  -13.9183   21.2925 C   0  0  2  0  0  0  0  0  0  0  0  0
    6.9946  -13.3310   19.9533 C   0  0  0  0  0  0  0  0  0  0  0  0
    8.5579  -13.4098   21.9450 C   0  0  2  0  0  0  0  0  0  0  0  0
    9.6040  -13.9431   21.0585 N   0  0  0  0  0  0  0  0  0  0  0  0
    8.7024  -14.0985   23.2531 C   0  0  0  0  0  0  0  0  0  0  0  0
    9.7286  -14.8648   23.3544 O   0  0  0  0  0  0  0  0  0  0  0  0
    7.8161  -13.9591   24.3340 N   0  0  0  0  0  0  0  0  0  0  0  0
    6.5705  -13.2678   24.2983 C   0  0  0  0  0  0  0  0  0  0  0  0
    6.4469  -12.7045   25.6955 C   0  0  0  0  0  0  0  0  0  0  0  0
    7.6007  -13.2684   26.4916 C   0  0  0  0  0  0  0  0  0  0  0  0
    7.9809  -14.4638   25.6460 C   0  0  1  0  0  0  0  0  0  0  0  0
    6.9938  -15.5449   25.9849 C   0  0  0  0  0  0  0  0  0  0  0  0
    5.8669  -15.6413   25.4350 O   0  0  0  0  0  0  0  0  0  0  0  0
    9.4116  -19.4125   23.7485 N   0  0  0  0  0  0  0  0  0  0  0  0
    8.2200  -18.9115   24.3231 C   0  0  0  0  0  0  0  0  0  0  0  0
    7.1420  -19.4639   24.0405 O   0  0  0  0  0  0  0  0  0  0  0  0
    8.2838  -17.7753   25.2204 C   0  0  0  0  0  0  0  0  0  0  0  0
    7.5951  -17.9160   26.5462 C   0  0  2  0  0  0  0  0  0  0  0  0
    7.2896  -16.5345   26.9642 N   0  0  0  0  0  0  0  0  0  0  0  0
    8.4385  -18.5313   27.5842 C   0  0  0  0  0  0  0  0  0  0  0  0
    8.2930  -19.8042   28.0937 O   0  0  0  0  0  0  0  0  0  0  0  0
    9.4086  -17.8636   28.0929 O   0  0  0  0  0  0  0  0  0  0  0  0
  2  1  1  6
  2  3  1  0
  4  2  1  0
  4  6  1  0
  4  5  1  6
  6  7  2  0
  8  6  1  0
  8 12  1  0
  9  8  1  0
 10  9  1  0
 10 11  1  0
 11 12  1  0
 12 13  1  1
 13 20  1  0
 13 14  2  0
 16 18  1  0
 16 15  1  0
 17 16  2  0
 19 21  1  0
 19 18  1  6
 20 19  1  0
 21 22  1  0
 23 21  2  0
M  END
$$$$
