VPN.pdb
     RDKit          3D

 23 23  0  0  1  0  0  0  0  0999 V2000
    7.8242  -13.6607   27.1073 C   0  0  0  0  0  0  0  0  0  0  0  0
    6.9890  -12.8466   26.1553 C   0  0  2  0  0  0  0  0  0  0  0  0
    6.3818  -11.6693   26.8282 C   0  0  0  0  0  0  0  0  0  0  0  0
    5.9668  -13.7257   25.4084 C   0  0  2  0  0  0  0  0  0  0  0  0
    5.2256  -14.3738   26.5016 N   0  0  0  0  0  0  0  0  0  0  0  0
    6.7231  -14.7917   24.7027 C   0  0  0  0  0  0  0  0  0  0  0  0
    6.6055  -15.9675   25.2072 O   0  0  0  0  0  0  0  0  0  0  0  0
    7.5208  -14.5884   23.5645 N   0  0  0  0  0  0  0  0  0  0  0  0
    7.6869  -13.3488   22.8815 C   0  0  0  0  0  0  0  0  0  0  0  0
    7.8670  -13.7686   21.4407 C   0  0  0  0  0  0  0  0  0  0  0  0
    7.9453  -15.2775   21.4376 C   0  0  0  0  0  0  0  0  0  0  0  0
    8.2996  -15.5534   22.8822 C   0  0  1  0  0  0  0  0  0  0  0  0
    9.7766  -15.3050   23.0039 C   0  0  0  0  0  0  0  0  0  0  0  0
   10.2600  -14.3678   23.6890 O   0  0  0  0  0  0  0  0  0  0  0  0
   10.4321  -18.0064   26.4802 N   0  0  0  0  0  0  0  0  0  0  0  0
   11.2419  -17.3758   25.5067 C   0  0  0  0  0  0  0  0  0  0  0  0
   12.1212  -16.5814   25.8843 O   0  0  0  0  0  0  0  0  0  0  0  0
   11.0287  -17.6688   24.1035 C   0  0  0  0  0  0  0  0  0  0  0  0
   11.7722  -16.8232   23.1116 C   0  0  2  0  0  0  0  0  0  0  0  0
   10.7223  -16.1340   22.3373 N   0  0  0  0  0  0  0  0  0  0  0  0
   12.5937  -17.6045   22.1723 C   0  0  0  0  0  0  0  0  0  0  0  0
   13.9712  -17.6611   22.1581 O   0  0  0  0  0  0  0  0  0  0  0  0
   12.0239  -18.3118   21.2664 O   0  0  0  0  0  0  0  0  0  0  0  0
  2  1  1  1
  2  3  1  0
  4  2  1  0
  4  6  1  0
  4  5  1  1
  6  7  2  0
  8  6  1  0
  8 12  1  0
  9  8  1  0
 10  9  1  0
 10 11  1  0
 11 12  1  0
 12 13  1  6
 13 20  1  0
 13 14  2  0
 16 18  1  0
 16 15  1  0
 17 16  2  0
 19 21  1  0
 19 18  1  1
 20 19  1  0
 21 22  1  0
 23 21  2  0
M  END
$$$$
