VPN.pdb
     RDKit          3D

 23 23  0  0  1  0  0  0  0  0999 V2000
    8.9474  -16.2600   17.4272 C   0  0  0  0  0  0  0  0  0  0  0  0
    7.9812  -15.1247   17.6373 C   0  0  2  0  0  0  0  0  0  0  0  0
    7.1669  -14.8660   16.4217 C   0  0  0  0  0  0  0  0  0  0  0  0
    8.6939  -13.8708   18.1809 C   0  0  2  0  0  0  0  0  0  0  0  0
    9.7353  -13.6183   17.1728 N   0  0  0  0  0  0  0  0  0  0  0  0
    9.3873  -14.2580   19.4362 C   0  0  0  0  0  0  0  0  0  0  0  0
   10.6607  -14.3951   19.3346 O   0  0  0  0  0  0  0  0  0  0  0  0
    8.7508  -14.4698   20.6704 N   0  0  0  0  0  0  0  0  0  0  0  0
    7.3464  -14.3947   20.9003 C   0  0  0  0  0  0  0  0  0  0  0  0
    7.2547  -13.8778   22.3177 C   0  0  0  0  0  0  0  0  0  0  0  0
    8.6659  -13.8432   22.8564 C   0  0  0  0  0  0  0  0  0  0  0  0
    9.3638  -14.7902   21.9053 C   0  0  1  0  0  0  0  0  0  0  0  0
    9.0326  -16.1769   22.3800 C   0  0  0  0  0  0  0  0  0  0  0  0
    8.0839  -16.4236   23.1677 O   0  0  0  0  0  0  0  0  0  0  0  0
   14.1634  -17.4909   22.4267 N   0  0  0  0  0  0  0  0  0  0  0  0
   13.2961  -16.4599   22.8579 C   0  0  0  0  0  0  0  0  0  0  0  0
   13.7256  -15.6160   23.6643 O   0  0  0  0  0  0  0  0  0  0  0  0
   11.9384  -16.4126   22.3534 C   0  0  0  0  0  0  0  0  0  0  0  0
   11.0770  -17.6152   22.6051 C   0  0  2  0  0  0  0  0  0  0  0  0
    9.7903  -17.3040   21.9539 N   0  0  0  0  0  0  0  0  0  0  0  0
   10.8178  -17.8641   24.0328 C   0  0  0  0  0  0  0  0  0  0  0  0
   10.4370  -16.9189   24.9615 O   0  0  0  0  0  0  0  0  0  0  0  0
   10.9451  -19.0504   24.5042 O   0  0  0  0  0  0  0  0  0  0  0  0
  2  1  1  6
  2  3  1  0
  4  2  1  0
  4  6  1  0
  4  5  1  6
  6  7  2  0
  8  6  1  0
  8 12  1  0
  9  8  1  0
 10  9  1  0
 10 11  1  0
 11 12  1  0
 12 13  1  1
 13 20  1  0
 13 14  2  0
 16 18  1  0
 16 15  1  0
 17 16  2  0
 19 21  1  0
 19 18  1  1
 20 19  1  0
 21 22  1  0
 23 21  2  0
M  END
$$$$
