VPN.pdb
     RDKit          3D

 23 23  0  0  1  0  0  0  0  0999 V2000
    7.9022  -13.4281   26.9320 C   0  0  0  0  0  0  0  0  0  0  0  0
    7.1289  -12.6397   25.9088 C   0  0  2  0  0  0  0  0  0  0  0  0
    6.5824  -11.3833   26.4836 C   0  0  0  0  0  0  0  0  0  0  0  0
    6.0674  -13.5113   25.2095 C   0  0  2  0  0  0  0  0  0  0  0  0
    5.2911  -14.0549   26.3349 N   0  0  0  0  0  0  0  0  0  0  0  0
    6.7728  -14.6540   24.5745 C   0  0  0  0  0  0  0  0  0  0  0  0
    6.6295  -15.7822   25.1722 O   0  0  0  0  0  0  0  0  0  0  0  0
    7.5502  -14.5669   23.4077 N   0  0  0  0  0  0  0  0  0  0  0  0
    7.8164  -13.3719   22.6785 C   0  0  0  0  0  0  0  0  0  0  0  0
    7.9081  -13.8521   21.2482 C   0  0  0  0  0  0  0  0  0  0  0  0
    7.8363  -15.3606   21.2943 C   0  0  0  0  0  0  0  0  0  0  0  0
    8.2074  -15.6257   22.7367 C   0  0  1  0  0  0  0  0  0  0  0  0
    9.7049  -15.5227   22.8075 C   0  0  0  0  0  0  0  0  0  0  0  0
   10.3051  -14.4630   23.1209 O   0  0  0  0  0  0  0  0  0  0  0  0
   12.3512  -17.3502   26.5349 N   0  0  0  0  0  0  0  0  0  0  0  0
   11.3538  -18.0791   25.8458 C   0  0  0  0  0  0  0  0  0  0  0  0
   11.0898  -19.2345   26.2233 O   0  0  0  0  0  0  0  0  0  0  0  0
   10.6690  -17.4665   24.7252 C   0  0  0  0  0  0  0  0  0  0  0  0
   11.5018  -17.1208   23.5257 C   0  0  2  0  0  0  0  0  0  0  0  0
   10.5365  -16.6410   22.5184 N   0  0  0  0  0  0  0  0  0  0  0  0
   12.2204  -18.2732   22.9572 C   0  0  0  0  0  0  0  0  0  0  0  0
   13.5726  -18.5176   23.0696 O   0  0  0  0  0  0  0  0  0  0  0  0
   11.5751  -19.1568   22.2874 O   0  0  0  0  0  0  0  0  0  0  0  0
  2  1  1  1
  2  3  1  0
  4  2  1  0
  4  6  1  0
  4  5  1  1
  6  7  2  0
  8  6  1  0
  8 12  1  0
  9  8  1  0
 10  9  1  0
 10 11  1  0
 11 12  1  0
 12 13  1  6
 13 20  1  0
 13 14  2  0
 16 18  1  0
 16 15  1  0
 17 16  2  0
 19 21  1  0
 19 18  1  1
 20 19  1  0
 21 22  1  0
 23 21  2  0
M  END
$$$$
