VPN.pdb
     RDKit          3D

 23 23  0  0  1  0  0  0  0  0999 V2000
    7.9871  -13.4462   26.9140 C   0  0  0  0  0  0  0  0  0  0  0  0
    7.0492  -12.7589   25.9576 C   0  0  2  0  0  0  0  0  0  0  0  0
    6.4287  -11.5550   26.5685 C   0  0  0  0  0  0  0  0  0  0  0  0
    6.0259  -13.7466   25.3635 C   0  0  2  0  0  0  0  0  0  0  0  0
    5.4269  -14.3617   26.5582 N   0  0  0  0  0  0  0  0  0  0  0  0
    6.7864  -14.8112   24.6600 C   0  0  0  0  0  0  0  0  0  0  0  0
    6.7524  -15.9661   25.2218 O   0  0  0  0  0  0  0  0  0  0  0  0
    7.5051  -14.6272   23.4672 N   0  0  0  0  0  0  0  0  0  0  0  0
    7.6188  -13.4006   22.7508 C   0  0  0  0  0  0  0  0  0  0  0  0
    7.7041  -13.8479   21.3095 C   0  0  0  0  0  0  0  0  0  0  0  0
    7.7895  -15.3563   21.3303 C   0  0  0  0  0  0  0  0  0  0  0  0
    8.2412  -15.6025   22.7529 C   0  0  1  0  0  0  0  0  0  0  0  0
    9.7218  -15.3463   22.7704 C   0  0  0  0  0  0  0  0  0  0  0  0
   10.2171  -14.1933   22.8528 O   0  0  0  0  0  0  0  0  0  0  0  0
   11.2786  -17.1407   27.1500 N   0  0  0  0  0  0  0  0  0  0  0  0
   10.8564  -17.9502   26.0694 C   0  0  0  0  0  0  0  0  0  0  0  0
   10.9085  -19.1867   26.1930 O   0  0  0  0  0  0  0  0  0  0  0  0
   10.3772  -17.3237   24.8537 C   0  0  0  0  0  0  0  0  0  0  0  0
   11.4146  -16.8200   23.8936 C   0  0  2  0  0  0  0  0  0  0  0  0
   10.6574  -16.4162   22.6935 N   0  0  0  0  0  0  0  0  0  0  0  0
   12.3921  -17.8455   23.4932 C   0  0  0  0  0  0  0  0  0  0  0  0
   12.1841  -18.8393   22.5605 O   0  0  0  0  0  0  0  0  0  0  0  0
   13.5560  -17.8587   24.0325 O   0  0  0  0  0  0  0  0  0  0  0  0
  2  1  1  1
  2  3  1  0
  4  2  1  0
  4  6  1  0
  4  5  1  1
  6  7  2  0
  8  6  1  0
  8 12  1  0
  9  8  1  0
 10  9  1  0
 10 11  1  0
 11 12  1  0
 12 13  1  6
 13 20  1  0
 13 14  2  0
 16 18  1  0
 16 15  1  0
 17 16  2  0
 19 21  1  0
 19 18  1  1
 20 19  1  0
 21 22  1  0
 23 21  2  0
M  END
$$$$
