VPN.pdb
     RDKit          3D

 23 23  0  0  1  0  0  0  0  0999 V2000
    8.3879  -14.1564   26.4658 C   0  0  0  0  0  0  0  0  0  0  0  0
    7.6112  -13.0394   25.8210 C   0  0  2  0  0  0  0  0  0  0  0  0
    7.3764  -11.9180   26.7669 C   0  0  0  0  0  0  0  0  0  0  0  0
    6.3250  -13.5607   25.1504 C   0  0  2  0  0  0  0  0  0  0  0  0
    5.6390  -14.2599   26.2481 N   0  0  0  0  0  0  0  0  0  0  0  0
    6.7229  -14.5919   24.1581 C   0  0  0  0  0  0  0  0  0  0  0  0
    6.3672  -15.7920   24.4478 O   0  0  0  0  0  0  0  0  0  0  0  0
    7.4333  -14.3326   22.9743 N   0  0  0  0  0  0  0  0  0  0  0  0
    8.1282  -13.1251   22.6744 C   0  0  0  0  0  0  0  0  0  0  0  0
    7.9761  -13.0011   21.1757 C   0  0  0  0  0  0  0  0  0  0  0  0
    7.3134  -14.2738   20.7026 C   0  0  0  0  0  0  0  0  0  0  0  0
    7.5949  -15.1984   21.8664 C   0  0  1  0  0  0  0  0  0  0  0  0
    9.0119  -15.6676   21.6928 C   0  0  0  0  0  0  0  0  0  0  0  0
    9.5326  -15.8741   20.5669 O   0  0  0  0  0  0  0  0  0  0  0  0
   12.1036  -15.1941   19.6228 N   0  0  0  0  0  0  0  0  0  0  0  0
   12.5863  -14.7223   20.8660 C   0  0  0  0  0  0  0  0  0  0  0  0
   13.7745  -14.3641   20.9487 O   0  0  0  0  0  0  0  0  0  0  0  0
   11.6912  -14.6682   22.0044 C   0  0  0  0  0  0  0  0  0  0  0  0
   11.3164  -15.9759   22.6377 C   0  0  2  0  0  0  0  0  0  0  0  0
    9.8535  -15.9065   22.8155 N   0  0  0  0  0  0  0  0  0  0  0  0
   11.9279  -16.1850   23.9605 C   0  0  0  0  0  0  0  0  0  0  0  0
   11.3165  -15.9663   25.1767 O   0  0  0  0  0  0  0  0  0  0  0  0
   13.1367  -16.6067   24.0422 O   0  0  0  0  0  0  0  0  0  0  0  0
  2  1  1  1
  2  3  1  0
  4  2  1  0
  4  6  1  0
  4  5  1  1
  6  7  2  0
  8  6  1  0
  8 12  1  0
  9  8  1  0
 10  9  1  0
 10 11  1  0
 11 12  1  0
 12 13  1  6
 13 20  1  0
 13 14  2  0
 16 18  1  0
 16 15  1  0
 17 16  2  0
 19 21  1  0
 19 18  1  1
 20 19  1  0
 21 22  1  0
 23 21  2  0
M  END
$$$$
