VPN.pdb
     RDKit          3D

 23 23  0  0  1  0  0  0  0  0999 V2000
    8.2197  -13.3576   26.9547 C   0  0  0  0  0  0  0  0  0  0  0  0
    7.2069  -12.7200   26.0412 C   0  0  2  0  0  0  0  0  0  0  0  0
    6.5816  -11.5254   26.6652 C   0  0  0  0  0  0  0  0  0  0  0  0
    6.1856  -13.7519   25.5238 C   0  0  2  0  0  0  0  0  0  0  0  0
    5.6647  -14.3522   26.7619 N   0  0  0  0  0  0  0  0  0  0  0  0
    6.9419  -14.8125   24.8099 C   0  0  0  0  0  0  0  0  0  0  0  0
    6.9870  -15.9471   25.4109 O   0  0  0  0  0  0  0  0  0  0  0  0
    7.5786  -14.6451   23.5690 N   0  0  0  0  0  0  0  0  0  0  0  0
    7.6369  -13.4302   22.8266 C   0  0  0  0  0  0  0  0  0  0  0  0
    7.6289  -13.9012   21.3904 C   0  0  0  0  0  0  0  0  0  0  0  0
    7.7247  -15.4086   21.4303 C   0  0  0  0  0  0  0  0  0  0  0  0
    8.2715  -15.6286   22.8235 C   0  0  1  0  0  0  0  0  0  0  0  0
    9.7484  -15.3647   22.7381 C   0  0  0  0  0  0  0  0  0  0  0  0
   10.2583  -14.2390   22.9711 O   0  0  0  0  0  0  0  0  0  0  0  0
   12.4968  -17.6397   26.1951 N   0  0  0  0  0  0  0  0  0  0  0  0
   11.4251  -18.2553   25.5069 C   0  0  0  0  0  0  0  0  0  0  0  0
   11.0903  -19.4084   25.8312 O   0  0  0  0  0  0  0  0  0  0  0  0
   10.7484  -17.5327   24.4486 C   0  0  0  0  0  0  0  0  0  0  0  0
   11.6108  -16.9173   23.3860 C   0  0  2  0  0  0  0  0  0  0  0  0
   10.6634  -16.3954   22.3826 N   0  0  0  0  0  0  0  0  0  0  0  0
   12.4984  -17.8829   22.7171 C   0  0  0  0  0  0  0  0  0  0  0  0
   12.0995  -19.0334   22.0706 O   0  0  0  0  0  0  0  0  0  0  0  0
   13.7652  -17.6811   22.7084 O   0  0  0  0  0  0  0  0  0  0  0  0
  2  1  1  1
  2  3  1  0
  4  2  1  0
  4  6  1  0
  4  5  1  1
  6  7  2  0
  8  6  1  0
  8 12  1  0
  9  8  1  0
 10  9  1  0
 10 11  1  0
 11 12  1  0
 12 13  1  6
 13 20  1  0
 13 14  2  0
 16 18  1  0
 16 15  1  0
 17 16  2  0
 19 21  1  0
 19 18  1  1
 20 19  1  0
 21 22  1  0
 23 21  2  0
M  END
$$$$
