VPN.pdb
     RDKit          3D

 23 23  0  0  1  0  0  0  0  0999 V2000
    8.3523  -14.8683   26.1557 C   0  0  0  0  0  0  0  0  0  0  0  0
    7.7342  -13.5619   25.7335 C   0  0  2  0  0  0  0  0  0  0  0  0
    7.6680  -12.5972   26.8616 C   0  0  0  0  0  0  0  0  0  0  0  0
    6.3815  -13.7799   25.0277 C   0  0  2  0  0  0  0  0  0  0  0  0
    5.6135  -14.5543   26.0152 N   0  0  0  0  0  0  0  0  0  0  0  0
    6.6211  -14.6726   23.8648 C   0  0  0  0  0  0  0  0  0  0  0  0
    6.2374  -15.8883   24.0238 O   0  0  0  0  0  0  0  0  0  0  0  0
    7.2163  -14.2723   22.6571 N   0  0  0  0  0  0  0  0  0  0  0  0
    7.8449  -13.0152   22.4215 C   0  0  0  0  0  0  0  0  0  0  0  0
    7.5578  -12.7528   20.9609 C   0  0  0  0  0  0  0  0  0  0  0  0
    6.8952  -13.9986   20.4209 C   0  0  0  0  0  0  0  0  0  0  0  0
    7.3061  -15.0198   21.4586 C   0  0  1  0  0  0  0  0  0  0  0  0
    8.7159  -15.4144   21.1198 C   0  0  0  0  0  0  0  0  0  0  0  0
    9.0133  -16.0863   20.0993 O   0  0  0  0  0  0  0  0  0  0  0  0
   11.0572  -13.0717   19.1385 N   0  0  0  0  0  0  0  0  0  0  0  0
   11.6529  -14.2712   19.5939 C   0  0  0  0  0  0  0  0  0  0  0  0
   11.9579  -15.1414   18.7592 O   0  0  0  0  0  0  0  0  0  0  0  0
   11.8915  -14.4555   21.0113 C   0  0  0  0  0  0  0  0  0  0  0  0
   11.1558  -15.5767   21.6848 C   0  0  2  0  0  0  0  0  0  0  0  0
    9.8079  -15.0401   21.9525 N   0  0  0  0  0  0  0  0  0  0  0  0
   11.7498  -15.9814   22.9697 C   0  0  0  0  0  0  0  0  0  0  0  0
   12.7686  -16.8952   23.1365 O   0  0  0  0  0  0  0  0  0  0  0  0
   11.3142  -15.4668   24.0610 O   0  0  0  0  0  0  0  0  0  0  0  0
  2  1  1  1
  2  3  1  0
  4  2  1  0
  4  6  1  0
  4  5  1  1
  6  7  2  0
  8  6  1  0
  8 12  1  0
  9  8  1  0
 10  9  1  0
 10 11  1  0
 11 12  1  0
 12 13  1  6
 13 20  1  0
 13 14  2  0
 16 18  1  0
 16 15  1  0
 17 16  2  0
 19 21  1  0
 19 18  1  1
 20 19  1  0
 21 22  1  0
 23 21  2  0
M  END
$$$$
