VPN.pdb
     RDKit          3D

 23 23  0  0  1  0  0  0  0  0999 V2000
    7.9361  -13.2972   26.9489 C   0  0  0  0  0  0  0  0  0  0  0  0
    6.9842  -12.6462   25.9811 C   0  0  2  0  0  0  0  0  0  0  0  0
    6.3183  -11.4611   26.5807 C   0  0  0  0  0  0  0  0  0  0  0  0
    5.9999  -13.6703   25.3829 C   0  0  2  0  0  0  0  0  0  0  0  0
    5.3823  -14.2718   26.5751 N   0  0  0  0  0  0  0  0  0  0  0  0
    6.8029  -14.7328   24.7249 C   0  0  0  0  0  0  0  0  0  0  0  0
    6.8295  -15.8576   25.3451 O   0  0  0  0  0  0  0  0  0  0  0  0
    7.4999  -14.5768   23.5154 N   0  0  0  0  0  0  0  0  0  0  0  0
    7.5755  -13.3750   22.7534 C   0  0  0  0  0  0  0  0  0  0  0  0
    7.6500  -13.8727   21.3281 C   0  0  0  0  0  0  0  0  0  0  0  0
    7.7697  -15.3770   21.4022 C   0  0  0  0  0  0  0  0  0  0  0  0
    8.2474  -15.5611   22.8257 C   0  0  1  0  0  0  0  0  0  0  0  0
    9.7220  -15.2719   22.8113 C   0  0  0  0  0  0  0  0  0  0  0  0
   10.2003  -14.1362   23.0618 O   0  0  0  0  0  0  0  0  0  0  0  0
   10.8215  -17.7170   27.0261 N   0  0  0  0  0  0  0  0  0  0  0  0
   11.2301  -18.0741   25.7197 C   0  0  0  0  0  0  0  0  0  0  0  0
   12.1056  -18.9472   25.5851 O   0  0  0  0  0  0  0  0  0  0  0  0
   10.6229  -17.4190   24.5786 C   0  0  0  0  0  0  0  0  0  0  0  0
   11.5523  -16.8133   23.5681 C   0  0  2  0  0  0  0  0  0  0  0  0
   10.6709  -16.2884   22.5078 N   0  0  0  0  0  0  0  0  0  0  0  0
   12.4718  -17.7873   22.9571 C   0  0  0  0  0  0  0  0  0  0  0  0
   13.8293  -17.8690   23.1836 O   0  0  0  0  0  0  0  0  0  0  0  0
   12.0179  -18.6585   22.1320 O   0  0  0  0  0  0  0  0  0  0  0  0
  2  1  1  1
  2  3  1  0
  4  2  1  0
  4  6  1  0
  4  5  1  1
  6  7  2  0
  8  6  1  0
  8 12  1  0
  9  8  1  0
 10  9  1  0
 10 11  1  0
 11 12  1  0
 12 13  1  6
 13 20  1  0
 13 14  2  0
 16 18  1  0
 16 15  1  0
 17 16  2  0
 19 21  1  0
 19 18  1  1
 20 19  1  0
 21 22  1  0
 23 21  2  0
M  END
$$$$
