VPN.pdb
     RDKit          3D

 23 23  0  0  1  0  0  0  0  0999 V2000
    8.1436  -13.4884   26.9563 C   0  0  0  0  0  0  0  0  0  0  0  0
    7.3031  -12.6039   26.0743 C   0  0  2  0  0  0  0  0  0  0  0  0
    6.9412  -11.3347   26.7567 C   0  0  0  0  0  0  0  0  0  0  0  0
    6.0906  -13.3652   25.5034 C   0  0  2  0  0  0  0  0  0  0  0  0
    5.4531  -13.9227   26.7065 N   0  0  0  0  0  0  0  0  0  0  0  0
    6.6114  -14.5115   24.7153 C   0  0  0  0  0  0  0  0  0  0  0  0
    6.2588  -15.6707   25.1425 O   0  0  0  0  0  0  0  0  0  0  0  0
    7.4297  -14.3967   23.5793 N   0  0  0  0  0  0  0  0  0  0  0  0
    7.9126  -13.1745   23.0280 C   0  0  0  0  0  0  0  0  0  0  0  0
    7.9700  -13.4623   21.5452 C   0  0  0  0  0  0  0  0  0  0  0  0
    7.6491  -14.9292   21.3777 C   0  0  0  0  0  0  0  0  0  0  0  0
    7.9247  -15.4483   22.7717 C   0  0  1  0  0  0  0  0  0  0  0  0
    9.4157  -15.6086   22.8696 C   0  0  0  0  0  0  0  0  0  0  0  0
   10.2266  -14.8624   22.2638 O   0  0  0  0  0  0  0  0  0  0  0  0
   11.2059  -19.3118   25.4035 N   0  0  0  0  0  0  0  0  0  0  0  0
   10.5440  -18.1789   25.9323 C   0  0  0  0  0  0  0  0  0  0  0  0
    9.4817  -18.3451   26.5574 O   0  0  0  0  0  0  0  0  0  0  0  0
   11.1157  -16.8621   25.7341 C   0  0  0  0  0  0  0  0  0  0  0  0
   11.3041  -16.4087   24.3161 C   0  0  2  0  0  0  0  0  0  0  0  0
    9.9974  -16.6327   23.6688 N   0  0  0  0  0  0  0  0  0  0  0  0
   12.3169  -17.1840   23.5808 C   0  0  0  0  0  0  0  0  0  0  0  0
   12.0825  -17.9803   22.4799 O   0  0  0  0  0  0  0  0  0  0  0  0
   13.5420  -17.1496   23.9599 O   0  0  0  0  0  0  0  0  0  0  0  0
  2  1  1  1
  2  3  1  0
  4  2  1  0
  4  6  1  0
  4  5  1  1
  6  7  2  0
  8  6  1  0
  8 12  1  0
  9  8  1  0
 10  9  1  0
 10 11  1  0
 11 12  1  0
 12 13  1  6
 13 20  1  0
 13 14  2  0
 16 18  1  0
 16 15  1  0
 17 16  2  0
 19 21  1  0
 19 18  1  1
 20 19  1  0
 21 22  1  0
 23 21  2  0
M  END
$$$$
