RMT.pdb
     RDKit          3D

 27 26  0  0  1  0  0  0  0  0999 V2000
   18.9292  -25.5025   -8.6192 N   0  0  0  0  0  0  0  0  0  0  0  0
   18.6265  -24.3641   -7.8169 C   0  0  0  0  0  0  0  0  0  0  0  0
   18.4541  -24.4506   -6.5378 N   0  0  0  0  0  0  0  0  0  0  0  0
   18.5179  -23.1017   -8.4597 N   0  0  0  0  0  0  0  0  0  0  0  0
   18.7334  -23.0416   -9.8807 C   0  0  0  0  0  0  0  0  0  0  0  0
   20.2258  -23.1861  -10.1980 C   0  0  0  0  0  0  0  0  0  0  0  0
   20.5508  -22.4400  -11.4765 C   0  0  0  0  0  0  0  0  0  0  0  0
   20.7396  -20.9724  -11.1554 C   0  0  2  0  0  0  0  0  0  0  0  0
   19.8917  -20.2337  -12.0524 N   0  0  0  0  0  0  0  0  0  0  0  0
   22.1630  -20.5743  -11.2728 C   0  0  0  0  0  0  0  0  0  0  0  0
   22.5494  -19.6536  -12.0688 O   0  0  0  0  0  0  0  0  0  0  0  0
   18.2791  -23.5656   -6.0187 C   0  0  0  0  0  0  0  0  0  0  0  0
   26.7686  -19.3554   -6.5419 S   0  0  0  0  0  0  0  0  0  0  0  0
   27.4874  -20.5786   -7.6582 C   0  0  0  0  0  0  0  0  0  0  0  0
   26.7160  -20.5120   -9.2999 C   0  0  0  0  0  0  0  0  0  0  0  0
   25.2801  -21.0358   -9.2375 C   0  0  2  0  0  0  0  0  0  0  0  0
   24.5492  -20.7938  -10.5033 N   0  0  0  0  0  0  0  0  0  0  0  0
   23.1718  -21.1852  -10.5170 C   0  0  0  0  0  0  0  0  0  0  0  0
   25.2371  -21.5248  -11.5989 O   0  0  0  0  0  0  0  0  0  0  0  0
   25.5418  -22.7632  -11.4942 C   0  0  0  0  0  0  0  0  0  0  0  0
   24.3719  -21.8194  -15.3801 C   0  0  2  0  0  0  0  0  0  0  0  0
   25.7521  -21.2250  -15.1957 O   0  0  0  0  0  0  0  0  0  0  0  0
   25.7348  -19.8385  -15.2721 C   0  0  2  0  0  0  0  0  0  0  0  0
   26.3582  -21.6520  -13.8582 N   0  0  0  0  0  0  0  0  0  0  0  0
   25.6114  -20.9302  -12.8359 C   0  0  0  0  0  0  0  0  0  0  0  0
   27.7879  -21.3810  -13.8129 O   0  0  0  0  0  0  0  0  0  0  0  0
   28.2387  -20.4840  -13.0710 O   0  0  0  0  0  0  0  0  0  0  0  0
  2  1  1  0
  3  2  2  0
  4  2  1  0
  5  4  1  0
  6  5  1  0
  7  8  1  0
  7  6  1  0
  8 10  1  0
  8  9  1  6
 10 17  1  0
 11 10  2  0
 13 14  1  0
 13 12  1  0
 14 15  1  0
 16 15  1  1
 17 16  1  0
 18 19  2  0
 18 16  1  0
 21 20  1  6
 21 23  1  0
 21 22  1  0
 23 24  1  6
 24 18  1  0
 25 27  1  0
 25 23  1  0
 26 25  2  0
M  END
$$$$
