RMT.pdb
     RDKit          3D

 27 26  0  0  1  0  0  0  0  0999 V2000
   23.4707  -32.4879   -1.7429 N   0  0  0  0  0  0  0  0  0  0  0  0
   23.8516  -31.3639   -2.5321 C   0  0  0  0  0  0  0  0  0  0  0  0
   23.3973  -30.1752   -2.3000 N   0  0  0  0  0  0  0  0  0  0  0  0
   24.7631  -31.5745   -3.6016 N   0  0  0  0  0  0  0  0  0  0  0  0
   25.1109  -32.9283   -3.9416 C   0  0  0  0  0  0  0  0  0  0  0  0
   26.6286  -33.1235   -3.8585 C   0  0  0  0  0  0  0  0  0  0  0  0
   26.9860  -34.5350   -4.2790 C   0  0  0  0  0  0  0  0  0  0  0  0
   28.4886  -34.7054   -4.2033 C   0  0  2  0  0  0  0  0  0  0  0  0
   28.8415  -35.7409   -5.1373 N   0  0  0  0  0  0  0  0  0  0  0  0
   28.9256  -35.0223   -2.8224 C   0  0  0  0  0  0  0  0  0  0  0  0
   28.5867  -36.1025   -2.2316 O   0  0  0  0  0  0  0  0  0  0  0  0
   23.7962  -29.3938   -2.8600 C   0  0  0  0  0  0  0  0  0  0  0  0
   33.4602  -31.5351    0.7823 S   0  0  0  0  0  0  0  0  0  0  0  0
   33.3741  -33.1729    1.5369 C   0  0  0  0  0  0  0  0  0  0  0  0
   31.8337  -34.0258    1.0959 C   0  0  0  0  0  0  0  0  0  0  0  0
   31.4471  -33.7169   -0.3515 C   0  0  2  0  0  0  0  0  0  0  0  0
   30.1786  -34.3784   -0.7368 N   0  0  0  0  0  0  0  0  0  0  0  0
   29.7374  -34.1546   -2.0807 C   0  0  0  0  0  0  0  0  0  0  0  0
   29.1017  -33.9133    0.1753 O   0  0  0  0  0  0  0  0  0  0  0  0
   28.1717  -33.1309   -0.2252 C   0  0  0  0  0  0  0  0  0  0  0  0
   26.7389  -35.9494    1.6813 C   0  0  1  0  0  0  0  0  0  0  0  0
   26.6415  -34.4420    1.7840 O   0  0  0  0  0  0  0  0  0  0  0  0
   25.5386  -34.0423    2.5271 C   0  0  1  0  0  0  0  0  0  0  0  0
   27.9102  -33.8518    2.4011 N   0  0  0  0  0  0  0  0  0  0  0  0
   29.0066  -34.2860    1.5449 C   0  0  0  0  0  0  0  0  0  0  0  0
   28.0719  -34.2719    3.7856 O   0  0  0  0  0  0  0  0  0  0  0  0
   28.9055  -35.1509    4.0869 O   0  0  0  0  0  0  0  0  0  0  0  0
  2  1  1  0
  3  2  2  0
  4  2  1  0
  5  4  1  0
  6  5  1  0
  7  8  1  0
  7  6  1  0
  8 10  1  0
  8  9  1  6
 10 17  1  0
 11 10  2  0
 13 14  1  0
 13 12  1  0
 14 15  1  0
 16 15  1  6
 17 16  1  0
 18 19  2  0
 18 16  1  0
 21 20  1  6
 21 23  1  0
 21 22  1  0
 23 24  1  6
 24 18  1  0
 25 27  1  0
 25 23  1  0
 26 25  2  0
M  END
$$$$
