RMT.pdb
     RDKit          3D

 27 26  0  0  1  0  0  0  0  0999 V2000
   17.6646  -16.0099  -14.9350 N   0  0  0  0  0  0  0  0  0  0  0  0
   17.5601  -16.2954  -16.3274 C   0  0  0  0  0  0  0  0  0  0  0  0
   16.5282  -16.8907  -16.8316 N   0  0  0  0  0  0  0  0  0  0  0  0
   18.6319  -15.9031  -17.1737 N   0  0  0  0  0  0  0  0  0  0  0  0
   19.7596  -15.2376  -16.5782 C   0  0  0  0  0  0  0  0  0  0  0  0
   19.7511  -13.7491  -16.9428 C   0  0  0  0  0  0  0  0  0  0  0  0
   20.9340  -13.0577  -16.2952 C   0  0  0  0  0  0  0  0  0  0  0  0
   20.9191  -11.5933  -16.6800 C   0  0  2  0  0  0  0  0  0  0  0  0
   21.3629  -11.5133  -18.0459 N   0  0  0  0  0  0  0  0  0  0  0  0
   21.7653  -10.7881  -15.7667 C   0  0  0  0  0  0  0  0  0  0  0  0
   21.4494  -10.5863  -14.5461 O   0  0  0  0  0  0  0  0  0  0  0  0
   16.5474  -17.0976  -17.8515 C   0  0  0  0  0  0  0  0  0  0  0  0
   27.9323   -9.9475  -17.2281 S   0  0  0  0  0  0  0  0  0  0  0  0
   27.5741  -10.9770  -15.7890 C   0  0  0  0  0  0  0  0  0  0  0  0
   25.8278  -10.8590  -15.3078 C   0  0  0  0  0  0  0  0  0  0  0  0
   25.2682   -9.4797  -15.6605 C   0  0  2  0  0  0  0  0  0  0  0  0
   23.8172   -9.3841  -15.3764 N   0  0  0  0  0  0  0  0  0  0  0  0
   22.9641  -10.1988  -16.1882 C   0  0  0  0  0  0  0  0  0  0  0  0
   23.3895   -7.9714  -15.5481 O   0  0  0  0  0  0  0  0  0  0  0  0
   23.5449   -7.3511  -16.6565 C   0  0  0  0  0  0  0  0  0  0  0  0
   20.0799   -6.8694  -15.1174 C   0  0  1  0  0  0  0  0  0  0  0  0
   21.1275   -5.9299  -15.6762 O   0  0  0  0  0  0  0  0  0  0  0  0
   20.6153   -4.6602  -15.9086 C   0  0  1  0  0  0  0  0  0  0  0  0
   22.3294   -5.8280  -14.7361 N   0  0  0  0  0  0  0  0  0  0  0  0
   22.7819   -7.1966  -14.5214 C   0  0  0  0  0  0  0  0  0  0  0  0
   21.9787   -5.1465  -13.4983 O   0  0  0  0  0  0  0  0  0  0  0  0
   22.0288   -5.7507  -12.4072 O   0  0  0  0  0  0  0  0  0  0  0  0
  2  1  1  0
  3  2  2  0
  4  2  1  0
  5  4  1  0
  6  5  1  0
  7  8  1  0
  7  6  1  0
  8 10  1  0
  8  9  1  6
 10 17  1  0
 11 10  2  0
 13 14  1  0
 13 12  1  0
 14 15  1  0
 16 15  1  1
 17 16  1  0
 18 19  2  0
 18 16  1  0
 21 20  1  6
 21 23  1  0
 21 22  1  0
 23 24  1  6
 24 18  1  0
 25 27  1  0
 25 23  1  0
 26 25  2  0
M  END
$$$$
