RMT.pdb
     RDKit          3D

 27 26  0  0  1  0  0  0  0  0999 V2000
   19.0861  -24.0358   -6.9982 N   0  0  0  0  0  0  0  0  0  0  0  0
   18.2257  -23.8865   -8.1246 C   0  0  0  0  0  0  0  0  0  0  0  0
   17.1608  -24.6051   -8.2763 N   0  0  0  0  0  0  0  0  0  0  0  0
   18.5628  -22.9100   -9.1000 N   0  0  0  0  0  0  0  0  0  0  0  0
   19.8077  -23.0558   -9.8059 C   0  0  0  0  0  0  0  0  0  0  0  0
   19.5751  -22.9610  -11.3177 C   0  0  0  0  0  0  0  0  0  0  0  0
   20.8158  -22.4108  -11.9920 C   0  0  0  0  0  0  0  0  0  0  0  0
   21.2183  -21.1223  -11.3062 C   0  0  2  0  0  0  0  0  0  0  0  0
   20.2967  -20.1081  -11.7433 N   0  0  0  0  0  0  0  0  0  0  0  0
   22.6263  -20.7690  -11.6077 C   0  0  0  0  0  0  0  0  0  0  0  0
   22.9369  -19.9073  -12.4975 O   0  0  0  0  0  0  0  0  0  0  0  0
   16.5646  -24.4060   -9.1059 C   0  0  0  0  0  0  0  0  0  0  0  0
   27.0620  -20.1928   -7.5660 S   0  0  0  0  0  0  0  0  0  0  0  0
   28.2554  -20.4345   -8.8989 C   0  0  0  0  0  0  0  0  0  0  0  0
   27.4630  -21.1179  -10.3822 C   0  0  0  0  0  0  0  0  0  0  0  0
   26.0166  -21.5142  -10.0810 C   0  0  1  0  0  0  0  0  0  0  0  0
   25.0825  -21.0247  -11.1217 N   0  0  0  0  0  0  0  0  0  0  0  0
   23.7030  -21.3601  -10.9342 C   0  0  0  0  0  0  0  0  0  0  0  0
   25.5051  -21.5708  -12.4374 O   0  0  0  0  0  0  0  0  0  0  0  0
   25.4108  -22.8173  -12.7104 C   0  0  0  0  0  0  0  0  0  0  0  0
   24.7083  -20.1120  -16.0539 C   0  0  2  0  0  0  0  0  0  0  0  0
   26.1946  -20.2706  -15.8127 O   0  0  0  0  0  0  0  0  0  0  0  0
   26.7862  -19.0787  -15.4154 C   0  0  2  0  0  0  0  0  0  0  0  0
   26.4671  -21.3475  -14.7617 N   0  0  0  0  0  0  0  0  0  0  0  0
   26.0404  -20.7776  -13.4901 C   0  0  0  0  0  0  0  0  0  0  0  0
   27.8670  -21.7472  -14.7621 O   0  0  0  0  0  0  0  0  0  0  0  0
   28.6117  -21.4449  -13.8069 O   0  0  0  0  0  0  0  0  0  0  0  0
  2  1  1  0
  3  2  2  0
  4  2  1  0
  5  4  1  0
  6  5  1  0
  7  8  1  0
  7  6  1  0
  8 10  1  0
  8  9  1  6
 10 17  1  0
 11 10  2  0
 13 14  1  0
 13 12  1  0
 14 15  1  0
 16 15  1  1
 17 16  1  0
 18 19  2  0
 18 16  1  0
 21 20  1  6
 21 23  1  0
 21 22  1  0
 23 24  1  6
 24 18  1  0
 25 27  1  0
 25 23  1  0
 26 25  2  0
M  END
$$$$
