RMT.pdb
     RDKit          3D

 27 26  0  0  1  0  0  0  0  0999 V2000
   25.2671  -18.2736  -17.4592 N   0  0  0  0  0  0  0  0  0  0  0  0
   26.0539  -17.1098  -17.6993 C   0  0  0  0  0  0  0  0  0  0  0  0
   25.5200  -15.9597  -17.9556 N   0  0  0  0  0  0  0  0  0  0  0  0
   27.4683  -17.2353  -17.6480 N   0  0  0  0  0  0  0  0  0  0  0  0
   28.0657  -17.6974  -16.4236 C   0  0  0  0  0  0  0  0  0  0  0  0
   27.6823  -19.1583  -16.1640 C   0  0  0  0  0  0  0  0  0  0  0  0
   27.1859  -19.3109  -14.7403 C   0  0  0  0  0  0  0  0  0  0  0  0
   27.9340  -20.4483  -14.0776 C   0  0  2  0  0  0  0  0  0  0  0  0
   28.3596  -21.3378  -15.1249 N   0  0  0  0  0  0  0  0  0  0  0  0
   27.0899  -21.1323  -13.0687 C   0  0  0  0  0  0  0  0  0  0  0  0
   26.1864  -21.9740  -13.3941 O   0  0  0  0  0  0  0  0  0  0  0  0
   26.1653  -15.1639  -18.1389 C   0  0  0  0  0  0  0  0  0  0  0  0
   27.0120  -19.3190   -6.4466 S   0  0  0  0  0  0  0  0  0  0  0  0
   26.0074  -20.8056   -6.6467 C   0  0  0  0  0  0  0  0  0  0  0  0
   25.4109  -20.9779   -8.3524 C   0  0  0  0  0  0  0  0  0  0  0  0
   26.5204  -20.6258   -9.3448 C   0  0  2  0  0  0  0  0  0  0  0  0
   26.2255  -21.1339  -10.7050 N   0  0  0  0  0  0  0  0  0  0  0  0
   27.2321  -20.8962  -11.6953 C   0  0  0  0  0  0  0  0  0  0  0  0
   24.9646  -20.5106  -11.1842 O   0  0  0  0  0  0  0  0  0  0  0  0
   24.8802  -19.2550  -11.4160 C   0  0  0  0  0  0  0  0  0  0  0  0
   22.3937  -22.6708  -13.4214 C   0  0  2  0  0  0  0  0  0  0  0  0
   22.4693  -21.1586  -13.4228 O   0  0  0  0  0  0  0  0  0  0  0  0
   21.3739  -20.5846  -14.0545 C   0  0  1  0  0  0  0  0  0  0  0  0
   22.5761  -20.6141  -11.9977 N   0  0  0  0  0  0  0  0  0  0  0  0
   23.7637  -21.2344  -11.4243 C   0  0  0  0  0  0  0  0  0  0  0  0
   21.3682  -20.8885  -11.2329 O   0  0  0  0  0  0  0  0  0  0  0  0
   21.4205  -21.5764  -10.1926 O   0  0  0  0  0  0  0  0  0  0  0  0
  2  1  1  0
  3  2  2  0
  4  2  1  0
  5  4  1  0
  6  5  1  0
  7  8  1  0
  7  6  1  0
  8 10  1  0
  8  9  1  6
 10 17  1  0
 11 10  2  0
 13 14  1  0
 13 12  1  0
 14 15  1  0
 16 15  1  1
 17 16  1  0
 18 19  2  0
 18 16  1  0
 21 20  1  6
 21 23  1  0
 21 22  1  0
 23 24  1  6
 24 18  1  0
 25 27  1  0
 25 23  1  0
 26 25  2  0
M  END
$$$$
