RMT.pdb
     RDKit          3D

 27 26  0  0  1  0  0  0  0  0999 V2000
   29.0868  -16.5702  -17.8927 N   0  0  0  0  0  0  0  0  0  0  0  0
   27.6739  -16.3961  -17.8244 C   0  0  0  0  0  0  0  0  0  0  0  0
   26.9849  -15.9643  -18.8306 N   0  0  0  0  0  0  0  0  0  0  0  0
   27.0180  -16.7153  -16.6052 N   0  0  0  0  0  0  0  0  0  0  0  0
   27.7722  -17.3932  -15.5849 C   0  0  0  0  0  0  0  0  0  0  0  0
   28.0640  -18.8362  -16.0108 C   0  0  0  0  0  0  0  0  0  0  0  0
   26.9408  -19.7425  -15.5483 C   0  0  0  0  0  0  0  0  0  0  0  0
   27.5283  -20.8836  -14.7451 C   0  0  2  0  0  0  0  0  0  0  0  0
   27.8306  -21.9393  -15.6743 N   0  0  0  0  0  0  0  0  0  0  0  0
   26.5992  -21.3247  -13.6772 C   0  0  0  0  0  0  0  0  0  0  0  0
   25.6655  -22.1688  -13.8925 O   0  0  0  0  0  0  0  0  0  0  0  0
   25.9625  -15.8322  -18.6876 C   0  0  0  0  0  0  0  0  0  0  0  0
   26.6961  -19.1279   -7.2567 S   0  0  0  0  0  0  0  0  0  0  0  0
   25.7217  -20.6476   -7.2370 C   0  0  0  0  0  0  0  0  0  0  0  0
   25.1317  -21.0784   -8.8987 C   0  0  0  0  0  0  0  0  0  0  0  0
   26.1988  -20.7538   -9.9455 C   0  0  1  0  0  0  0  0  0  0  0  0
   25.7636  -21.1289  -11.3113 N   0  0  0  0  0  0  0  0  0  0  0  0
   26.6890  -20.8413  -12.3656 C   0  0  0  0  0  0  0  0  0  0  0  0
   24.4942  -20.4206  -11.6190 O   0  0  0  0  0  0  0  0  0  0  0  0
   24.4079  -19.1446  -11.5762 C   0  0  0  0  0  0  0  0  0  0  0  0
   22.6832  -19.9141  -14.5504 C   0  0  2  0  0  0  0  0  0  0  0  0
   21.6588  -20.5599  -13.6417 O   0  0  0  0  0  0  0  0  0  0  0  0
   21.5131  -21.9157  -13.9042 C   0  0  2  0  0  0  0  0  0  0  0  0
   22.0305  -20.3648  -12.1712 N   0  0  0  0  0  0  0  0  0  0  0  0
   23.2865  -21.0792  -11.9815 C   0  0  0  0  0  0  0  0  0  0  0  0
   20.9722  -20.8354  -11.2893 O   0  0  0  0  0  0  0  0  0  0  0  0
   21.1433  -21.8481  -10.5798 O   0  0  0  0  0  0  0  0  0  0  0  0
  2  1  1  0
  3  2  2  0
  4  2  1  0
  5  4  1  0
  6  5  1  0
  7  8  1  0
  7  6  1  0
  8 10  1  0
  8  9  1  6
 10 17  1  0
 11 10  2  0
 13 14  1  0
 13 12  1  0
 14 15  1  0
 16 15  1  1
 17 16  1  0
 18 19  2  0
 18 16  1  0
 21 20  1  6
 21 23  1  0
 21 22  1  0
 23 24  1  1
 24 18  1  0
 25 27  1  0
 25 23  1  0
 26 25  2  0
M  END
$$$$
