RMT.pdb
     RDKit          3D

 27 26  0  0  1  0  0  0  0  0999 V2000
   16.4251  -14.3476  -17.0508 N   0  0  0  0  0  0  0  0  0  0  0  0
   17.2431  -15.5137  -17.0986 C   0  0  0  0  0  0  0  0  0  0  0  0
   16.7931  -16.6830  -16.7767 N   0  0  0  0  0  0  0  0  0  0  0  0
   18.5925  -15.3683  -17.5191 N   0  0  0  0  0  0  0  0  0  0  0  0
   19.0624  -14.0501  -17.8519 C   0  0  0  0  0  0  0  0  0  0  0  0
   19.2011  -13.2000  -16.5844 C   0  0  0  0  0  0  0  0  0  0  0  0
   20.6640  -12.8966  -16.3302 C   0  0  0  0  0  0  0  0  0  0  0  0
   20.9835  -11.5211  -16.8765 C   0  0  2  0  0  0  0  0  0  0  0  0
   21.6425  -11.7137  -18.1405 N   0  0  0  0  0  0  0  0  0  0  0  0
   21.8118  -10.7427  -15.9245 C   0  0  0  0  0  0  0  0  0  0  0  0
   21.4628  -10.5592  -14.7100 O   0  0  0  0  0  0  0  0  0  0  0  0
   17.4181  -17.4981  -16.9449 C   0  0  0  0  0  0  0  0  0  0  0  0
   28.2257  -12.6502  -15.7528 S   0  0  0  0  0  0  0  0  0  0  0  0
   27.6059  -10.9592  -15.8769 C   0  0  0  0  0  0  0  0  0  0  0  0
   25.8205  -10.8826  -15.5583 C   0  0  0  0  0  0  0  0  0  0  0  0
   25.3147   -9.4452  -15.6927 C   0  0  2  0  0  0  0  0  0  0  0  0
   23.8551   -9.3497  -15.4567 N   0  0  0  0  0  0  0  0  0  0  0  0
   23.0290  -10.1601  -16.3002 C   0  0  0  0  0  0  0  0  0  0  0  0
   23.4342   -7.9360  -15.6362 O   0  0  0  0  0  0  0  0  0  0  0  0
   23.3896   -7.3886  -16.7919 C   0  0  0  0  0  0  0  0  0  0  0  0
   20.3423   -6.6671  -15.0619 C   0  0  1  0  0  0  0  0  0  0  0  0
   21.3976   -5.7661  -15.6676 O   0  0  0  0  0  0  0  0  0  0  0  0
   20.9189   -4.4814  -15.8885 C   0  0  1  0  0  0  0  0  0  0  0  0
   22.6381   -5.6991  -14.7759 N   0  0  0  0  0  0  0  0  0  0  0  0
   23.0506   -7.0810  -14.5659 C   0  0  0  0  0  0  0  0  0  0  0  0
   22.3602   -4.9955  -13.5320 O   0  0  0  0  0  0  0  0  0  0  0  0
   22.3638   -5.6078  -12.4442 O   0  0  0  0  0  0  0  0  0  0  0  0
  2  1  1  0
  3  2  2  0
  4  2  1  0
  5  4  1  0
  6  5  1  0
  7  8  1  0
  7  6  1  0
  8 10  1  0
  8  9  1  6
 10 17  1  0
 11 10  2  0
 13 14  1  0
 13 12  1  0
 14 15  1  0
 16 15  1  1
 17 16  1  0
 18 19  2  0
 18 16  1  0
 21 20  1  6
 21 23  1  0
 21 22  1  0
 23 24  1  6
 24 18  1  0
 25 27  1  0
 25 23  1  0
 26 25  2  0
M  END
$$$$
