RMT.pdb
     RDKit          3D

 27 26  0  0  1  0  0  0  0  0999 V2000
   25.1419  -20.1441  -20.5346 N   0  0  0  0  0  0  0  0  0  0  0  0
   24.9892  -18.8363  -19.9890 C   0  0  0  0  0  0  0  0  0  0  0  0
   24.5400  -17.8467  -20.6907 N   0  0  0  0  0  0  0  0  0  0  0  0
   25.3437  -18.6328  -18.6283 N   0  0  0  0  0  0  0  0  0  0  0  0
   25.5384  -19.7899  -17.7962 C   0  0  0  0  0  0  0  0  0  0  0  0
   24.2284  -20.5738  -17.6618 C   0  0  0  0  0  0  0  0  0  0  0  0
   24.4221  -21.7322  -16.7040 C   0  0  0  0  0  0  0  0  0  0  0  0
   24.6996  -21.1850  -15.3197 C   0  0  2  0  0  0  0  0  0  0  0  0
   25.8856  -21.8414  -14.8385 N   0  0  0  0  0  0  0  0  0  0  0  0
   23.5404  -21.3885  -14.4180 C   0  0  0  0  0  0  0  0  0  0  0  0
   23.1759  -22.5485  -14.0282 O   0  0  0  0  0  0  0  0  0  0  0  0
   24.4815  -16.9182  -20.2241 C   0  0  0  0  0  0  0  0  0  0  0  0
   22.4018  -20.6523   -8.5122 S   0  0  0  0  0  0  0  0  0  0  0  0
   20.8756  -19.8857   -9.0971 C   0  0  0  0  0  0  0  0  0  0  0  0
   20.5612  -20.2811  -10.8406 C   0  0  0  0  0  0  0  0  0  0  0  0
   21.8134  -20.0251  -11.6810 C   0  0  2  0  0  0  0  0  0  0  0  0
   21.6247  -20.4372  -13.0916 N   0  0  0  0  0  0  0  0  0  0  0  0
   22.7732  -20.3190  -13.9386 C   0  0  0  0  0  0  0  0  0  0  0  0
   20.5381  -19.6170  -13.6871 O   0  0  0  0  0  0  0  0  0  0  0  0
   20.6628  -18.3546  -13.8553 C   0  0  0  0  0  0  0  0  0  0  0  0
   18.9298  -19.6910  -16.9976 C   0  0  2  0  0  0  0  0  0  0  0  0
   17.8277  -19.8979  -15.9803 O   0  0  0  0  0  0  0  0  0  0  0  0
   17.5127  -21.2410  -15.8220 C   0  0  2  0  0  0  0  0  0  0  0  0
   18.2144  -19.3041  -14.6252 N   0  0  0  0  0  0  0  0  0  0  0  0
   19.2891  -20.1462  -14.1155 C   0  0  0  0  0  0  0  0  0  0  0  0
   17.0701  -19.2406  -13.7275 O   0  0  0  0  0  0  0  0  0  0  0  0
   17.0490  -19.9194  -12.6802 O   0  0  0  0  0  0  0  0  0  0  0  0
  2  1  1  0
  3  2  2  0
  4  2  1  0
  5  4  1  0
  6  5  1  0
  7  8  1  0
  7  6  1  0
  8 10  1  0
  8  9  1  1
 10 17  1  0
 11 10  2  0
 13 14  1  0
 13 12  1  0
 14 15  1  0
 16 15  1  1
 17 16  1  0
 18 19  2  0
 18 16  1  0
 21 20  1  6
 21 23  1  0
 21 22  1  0
 23 24  1  1
 24 18  1  0
 25 27  1  0
 25 23  1  0
 26 25  2  0
M  END
$$$$
