RMT.pdb
     RDKit          3D

 27 26  0  0  1  0  0  0  0  0999 V2000
   18.6064  -21.9800  -16.0786 N   0  0  0  0  0  0  0  0  0  0  0  0
   18.2078  -22.0883  -14.7146 C   0  0  0  0  0  0  0  0  0  0  0  0
   16.9679  -22.0154  -14.3528 N   0  0  0  0  0  0  0  0  0  0  0  0
   19.2180  -22.2859  -13.7353 N   0  0  0  0  0  0  0  0  0  0  0  0
   20.5928  -22.1952  -14.1491 C   0  0  0  0  0  0  0  0  0  0  0  0
   21.5227  -22.5431  -12.9817 C   0  0  0  0  0  0  0  0  0  0  0  0
   22.5215  -21.4226  -12.7727 C   0  0  0  0  0  0  0  0  0  0  0  0
   22.4091  -20.9225  -11.3480 C   0  0  2  0  0  0  0  0  0  0  0  0
   21.2775  -20.0356  -11.3021 N   0  0  0  0  0  0  0  0  0  0  0  0
   23.6605  -20.2587  -10.9101 C   0  0  0  0  0  0  0  0  0  0  0  0
   24.1562  -19.2605  -11.5333 O   0  0  0  0  0  0  0  0  0  0  0  0
   16.7478  -22.2260  -13.3575 C   0  0  0  0  0  0  0  0  0  0  0  0
   27.5455  -21.0333   -4.9813 S   0  0  0  0  0  0  0  0  0  0  0  0
   27.3880  -19.4001   -5.7344 C   0  0  0  0  0  0  0  0  0  0  0  0
   27.2148  -19.5156   -7.5376 C   0  0  0  0  0  0  0  0  0  0  0  0
   25.9128  -20.2297   -7.9049 C   0  0  2  0  0  0  0  0  0  0  0  0
   25.6413  -20.1678   -9.3601 N   0  0  0  0  0  0  0  0  0  0  0  0
   24.3763  -20.6873   -9.7849 C   0  0  0  0  0  0  0  0  0  0  0  0
   26.7026  -20.9221  -10.0761 O   0  0  0  0  0  0  0  0  0  0  0  0
   26.8932  -22.1712   -9.8743 C   0  0  0  0  0  0  0  0  0  0  0  0
   27.6929  -20.9251  -13.9656 C   0  0  2  0  0  0  0  0  0  0  0  0
   28.8242  -20.4918  -13.0574 O   0  0  0  0  0  0  0  0  0  0  0  0
   28.9121  -19.1093  -12.9608 C   0  0  2  0  0  0  0  0  0  0  0  0
   28.6634  -21.0891  -11.6588 N   0  0  0  0  0  0  0  0  0  0  0  0
   27.5834  -20.3398  -11.0295 C   0  0  0  0  0  0  0  0  0  0  0  0
   29.9092  -21.0257  -10.9083 O   0  0  0  0  0  0  0  0  0  0  0  0
   30.0058  -20.2920   -9.9031 O   0  0  0  0  0  0  0  0  0  0  0  0
  2  1  1  0
  3  2  2  0
  4  2  1  0
  5  4  1  0
  6  5  1  0
  7  8  1  0
  7  6  1  0
  8 10  1  0
  8  9  1  6
 10 17  1  0
 11 10  2  0
 13 14  1  0
 13 12  1  0
 14 15  1  0
 16 15  1  1
 17 16  1  0
 18 19  2  0
 18 16  1  0
 21 20  1  6
 21 23  1  0
 21 22  1  0
 23 24  1  1
 24 18  1  0
 25 27  1  0
 25 23  1  0
 26 25  2  0
M  END
$$$$
