RMT.pdb
     RDKit          3D

 27 26  0  0  1  0  0  0  0  0999 V2000
   31.2606  -24.5724  -15.2098 N   0  0  0  0  0  0  0  0  0  0  0  0
   30.4283  -24.8667  -16.3287 C   0  0  0  0  0  0  0  0  0  0  0  0
   30.0460  -26.0717  -16.6031 N   0  0  0  0  0  0  0  0  0  0  0  0
   30.0125  -23.7890  -17.1559 N   0  0  0  0  0  0  0  0  0  0  0  0
   30.1293  -22.4514  -16.6395 C   0  0  0  0  0  0  0  0  0  0  0  0
   29.5061  -22.3655  -15.2421 C   0  0  0  0  0  0  0  0  0  0  0  0
   29.5674  -20.9360  -14.7424 C   0  0  0  0  0  0  0  0  0  0  0  0
   28.1925  -20.3133  -14.8625 C   0  0  2  0  0  0  0  0  0  0  0  0
   28.3475  -18.9035  -14.6230 N   0  0  0  0  0  0  0  0  0  0  0  0
   27.2334  -20.9405  -13.9217 C   0  0  0  0  0  0  0  0  0  0  0  0
   26.8746  -22.1613  -14.0278 O   0  0  0  0  0  0  0  0  0  0  0  0
   29.4447  -26.2023  -17.4426 C   0  0  0  0  0  0  0  0  0  0  0  0
   26.6657  -19.2622   -7.7476 S   0  0  0  0  0  0  0  0  0  0  0  0
   25.2932  -20.4327   -7.8220 C   0  0  0  0  0  0  0  0  0  0  0  0
   24.9958  -20.9984   -9.5210 C   0  0  0  0  0  0  0  0  0  0  0  0
   25.9863  -20.3418  -10.4840 C   0  0  2  0  0  0  0  0  0  0  0  0
   25.7666  -20.7774  -11.8831 N   0  0  0  0  0  0  0  0  0  0  0  0
   26.6615  -20.2306  -12.8582 C   0  0  0  0  0  0  0  0  0  0  0  0
   24.3833  -20.4126  -12.2848 O   0  0  0  0  0  0  0  0  0  0  0  0
   24.0251  -19.1932  -12.4330 C   0  0  0  0  0  0  0  0  0  0  0  0
   22.5751  -21.4804  -15.3481 C   0  0  2  0  0  0  0  0  0  0  0  0
   21.6913  -21.8418  -14.1731 O   0  0  0  0  0  0  0  0  0  0  0  0
   21.8098  -23.1813  -13.8269 C   0  0  2  0  0  0  0  0  0  0  0  0
   22.0144  -20.9727  -12.9570 N   0  0  0  0  0  0  0  0  0  0  0  0
   23.3542  -21.3620  -12.5361 C   0  0  0  0  0  0  0  0  0  0  0  0
   21.0200  -21.1389  -11.9068 O   0  0  0  0  0  0  0  0  0  0  0  0
   21.3224  -21.6955  -10.8312 O   0  0  0  0  0  0  0  0  0  0  0  0
  2  1  1  0
  3  2  2  0
  4  2  1  0
  5  4  1  0
  6  5  1  0
  7  8  1  0
  7  6  1  0
  8 10  1  0
  8  9  1  1
 10 17  1  0
 11 10  2  0
 13 14  1  0
 13 12  1  0
 14 15  1  0
 16 15  1  1
 17 16  1  0
 18 19  2  0
 18 16  1  0
 21 20  1  6
 21 23  1  0
 21 22  1  0
 23 24  1  1
 24 18  1  0
 25 27  1  0
 25 23  1  0
 26 25  2  0
M  END
$$$$
