RMT.pdb
     RDKit          3D

 27 26  0  0  1  0  0  0  0  0999 V2000
   30.8852  -19.7108  -19.6173 N   0  0  0  0  0  0  0  0  0  0  0  0
   30.9489  -21.1241  -19.4447 C   0  0  0  0  0  0  0  0  0  0  0  0
   32.0694  -21.7701  -19.4702 N   0  0  0  0  0  0  0  0  0  0  0  0
   29.7329  -21.8287  -19.2357 N   0  0  0  0  0  0  0  0  0  0  0  0
   28.5118  -21.0714  -19.1663 C   0  0  0  0  0  0  0  0  0  0  0  0
   28.4165  -20.3397  -17.8231 C   0  0  0  0  0  0  0  0  0  0  0  0
   27.1249  -20.7175  -17.1260 C   0  0  0  0  0  0  0  0  0  0  0  0
   27.3920  -21.8768  -16.1895 C   0  0  2  0  0  0  0  0  0  0  0  0
   27.3610  -23.0750  -16.9846 N   0  0  0  0  0  0  0  0  0  0  0  0
   26.4067  -21.9123  -15.0821 C   0  0  0  0  0  0  0  0  0  0  0  0
   25.2691  -22.4801  -15.2004 O   0  0  0  0  0  0  0  0  0  0  0  0
   32.0320  -22.7975  -19.3082 C   0  0  0  0  0  0  0  0  0  0  0  0
   25.0520  -20.7498   -7.3026 S   0  0  0  0  0  0  0  0  0  0  0  0
   26.1340  -20.4526   -8.7169 C   0  0  0  0  0  0  0  0  0  0  0  0
   25.4001  -21.0761  -10.2555 C   0  0  0  0  0  0  0  0  0  0  0  0
   26.3578  -20.8635  -11.4291 C   0  0  2  0  0  0  0  0  0  0  0  0
   25.7954  -21.3772  -12.7000 N   0  0  0  0  0  0  0  0  0  0  0  0
   26.6641  -21.3239  -13.8372 C   0  0  0  0  0  0  0  0  0  0  0  0
   24.5725  -20.6000  -13.0292 O   0  0  0  0  0  0  0  0  0  0  0  0
   24.6026  -19.3297  -13.1804 C   0  0  0  0  0  0  0  0  0  0  0  0
   22.6649  -20.1582  -15.8399 C   0  0  2  0  0  0  0  0  0  0  0  0
   21.6406  -20.6635  -14.8459 O   0  0  0  0  0  0  0  0  0  0  0  0
   21.3984  -22.0227  -14.9955 C   0  0  2  0  0  0  0  0  0  0  0  0
   22.0855  -20.3823  -13.4101 N   0  0  0  0  0  0  0  0  0  0  0  0
   23.2861  -21.1820  -13.2031 C   0  0  0  0  0  0  0  0  0  0  0  0
   21.0287  -20.6898  -12.4572 O   0  0  0  0  0  0  0  0  0  0  0  0
   21.1630  -21.6271  -11.6439 O   0  0  0  0  0  0  0  0  0  0  0  0
  2  1  1  0
  3  2  2  0
  4  2  1  0
  5  4  1  0
  6  5  1  0
  7  8  1  0
  7  6  1  0
  8 10  1  0
  8  9  1  6
 10 17  1  0
 11 10  2  0
 13 14  1  0
 13 12  1  0
 14 15  1  0
 16 15  1  1
 17 16  1  0
 18 19  2  0
 18 16  1  0
 21 20  1  6
 21 23  1  0
 21 22  1  0
 23 24  1  1
 24 18  1  0
 25 27  1  0
 25 23  1  0
 26 25  2  0
M  END
$$$$
