RMT.pdb
     RDKit          3D

 27 26  0  0  1  0  0  0  0  0999 V2000
   30.8724  -25.8831  -15.6335 N   0  0  0  0  0  0  0  0  0  0  0  0
   31.7838  -25.2574  -16.5329 C   0  0  0  0  0  0  0  0  0  0  0  0
   33.0077  -25.6565  -16.6598 N   0  0  0  0  0  0  0  0  0  0  0  0
   31.3143  -24.1639  -17.3091 N   0  0  0  0  0  0  0  0  0  0  0  0
   29.8961  -23.9288  -17.3642 C   0  0  0  0  0  0  0  0  0  0  0  0
   29.4071  -23.3202  -16.0454 C   0  0  0  0  0  0  0  0  0  0  0  0
   27.9854  -22.8214  -16.2091 C   0  0  0  0  0  0  0  0  0  0  0  0
   27.1795  -23.8669  -16.9506 C   0  0  2  0  0  0  0  0  0  0  0  0
   27.5058  -23.7374  -18.3456 N   0  0  0  0  0  0  0  0  0  0  0  0
   25.7274  -23.7073  -16.6967 C   0  0  0  0  0  0  0  0  0  0  0  0
   24.9580  -23.0895  -17.5071 O   0  0  0  0  0  0  0  0  0  0  0  0
   33.5598  -25.2605  -17.4482 C   0  0  0  0  0  0  0  0  0  0  0  0
   22.4450  -27.4442  -12.4352 S   0  0  0  0  0  0  0  0  0  0  0  0
   21.0708  -26.5819  -13.2273 C   0  0  0  0  0  0  0  0  0  0  0  0
   21.6605  -25.2554  -14.3169 C   0  0  0  0  0  0  0  0  0  0  0  0
   23.1846  -25.3017  -14.4389 C   0  0  2  0  0  0  0  0  0  0  0  0
   23.7040  -24.2009  -15.2838 N   0  0  0  0  0  0  0  0  0  0  0  0
   25.1107  -24.2251  -15.5505 C   0  0  0  0  0  0  0  0  0  0  0  0
   23.3914  -22.9059  -14.6256 O   0  0  0  0  0  0  0  0  0  0  0  0
   23.9468  -22.5581  -13.5266 C   0  0  0  0  0  0  0  0  0  0  0  0
   24.0872  -19.4875  -15.2520 C   0  0  2  0  0  0  0  0  0  0  0  0
   22.5760  -19.5789  -15.2665 O   0  0  0  0  0  0  0  0  0  0  0  0
   22.0759  -19.7072  -16.5556 C   0  0  2  0  0  0  0  0  0  0  0  0
   22.0899  -20.7520  -14.4144 N   0  0  0  0  0  0  0  0  0  0  0  0
   22.4684  -21.9555  -15.1439 C   0  0  0  0  0  0  0  0  0  0  0  0
   20.6583  -20.6683  -14.1634 O   0  0  0  0  0  0  0  0  0  0  0  0
   19.8850  -21.5387  -14.6135 O   0  0  0  0  0  0  0  0  0  0  0  0
  2  1  1  0
  3  2  2  0
  4  2  1  0
  5  4  1  0
  6  5  1  0
  7  8  1  0
  7  6  1  0
  8 10  1  0
  8  9  1  6
 10 17  1  0
 11 10  2  0
 13 14  1  0
 13 12  1  0
 14 15  1  0
 16 15  1  6
 17 16  1  0
 18 19  2  0
 18 16  1  0
 21 20  1  6
 21 23  1  0
 21 22  1  0
 23 24  1  1
 24 18  1  0
 25 27  1  0
 25 23  1  0
 26 25  2  0
M  END
$$$$
