RMT.pdb
     RDKit          3D

 27 26  0  0  1  0  0  0  0  0999 V2000
   30.2166  -23.9794  -17.2626 N   0  0  0  0  0  0  0  0  0  0  0  0
   29.8357  -23.5240  -18.5583 C   0  0  0  0  0  0  0  0  0  0  0  0
   30.3686  -23.9977  -19.6377 N   0  0  0  0  0  0  0  0  0  0  0  0
   28.8348  -22.5195  -18.6477 N   0  0  0  0  0  0  0  0  0  0  0  0
   28.2267  -22.0556  -17.4293 C   0  0  0  0  0  0  0  0  0  0  0  0
   29.1670  -21.0893  -16.7010 C   0  0  0  0  0  0  0  0  0  0  0  0
   28.8720  -21.1123  -15.2146 C   0  0  0  0  0  0  0  0  0  0  0  0
   27.5947  -20.3420  -14.9545 C   0  0  2  0  0  0  0  0  0  0  0  0
   27.9734  -18.9830  -14.6739 N   0  0  0  0  0  0  0  0  0  0  0  0
   26.8167  -20.9479  -13.8472 C   0  0  0  0  0  0  0  0  0  0  0  0
   26.3423  -22.1314  -13.9160 O   0  0  0  0  0  0  0  0  0  0  0  0
   30.0319  -23.6137  -20.5446 C   0  0  0  0  0  0  0  0  0  0  0  0
   27.1089  -20.5461   -6.8488 S   0  0  0  0  0  0  0  0  0  0  0  0
   25.5385  -19.9858   -7.5412 C   0  0  0  0  0  0  0  0  0  0  0  0
   25.1971  -20.7795   -9.1376 C   0  0  0  0  0  0  0  0  0  0  0  0
   26.0508  -20.1511  -10.2404 C   0  0  2  0  0  0  0  0  0  0  0  0
   25.7751  -20.7570  -11.5641 N   0  0  0  0  0  0  0  0  0  0  0  0
   26.5541  -20.2576  -12.6570 C   0  0  0  0  0  0  0  0  0  0  0  0
   24.3425  -20.5451  -11.8968 O   0  0  0  0  0  0  0  0  0  0  0  0
   23.8946  -19.3976  -12.2434 C   0  0  0  0  0  0  0  0  0  0  0  0
   20.1680  -22.5336  -13.5522 C   0  0  2  0  0  0  0  0  0  0  0  0
   21.6458  -22.5132  -13.2236 O   0  0  0  0  0  0  0  0  0  0  0  0
   22.4305  -22.4221  -14.3657 C   0  0  1  0  0  0  0  0  0  0  0  0
   21.9820  -21.3551  -12.2832 N   0  0  0  0  0  0  0  0  0  0  0  0
   23.3600  -21.5733  -11.8622 C   0  0  0  0  0  0  0  0  0  0  0  0
   21.0513  -21.2919  -11.1654 O   0  0  0  0  0  0  0  0  0  0  0  0
   21.3670  -21.7596  -10.0520 O   0  0  0  0  0  0  0  0  0  0  0  0
  2  1  1  0
  3  2  2  0
  4  2  1  0
  5  4  1  0
  6  5  1  0
  7  8  1  0
  7  6  1  0
  8 10  1  0
  8  9  1  1
 10 17  1  0
 11 10  2  0
 13 14  1  0
 13 12  1  0
 14 15  1  0
 16 15  1  1
 17 16  1  0
 18 19  2  0
 18 16  1  0
 21 20  1  6
 21 23  1  0
 21 22  1  0
 23 24  1  1
 24 18  1  0
 25 27  1  0
 25 23  1  0
 26 25  2  0
M  END
$$$$
