PGS.pdb
     RDKit          3D

 18 18  0  0  1  0  0  0  0  0999 V2000
    7.3014  -14.8384   20.7254 N   0  0  0  0  0  0  0  0  0  0  0  0
    6.6173  -13.7023   20.1919 C   0  0  0  0  0  0  0  0  0  0  0  0
    7.6802  -12.6499   19.8781 C   0  0  0  0  0  0  0  0  0  0  0  0
    8.7697  -13.0670   20.8751 C   0  0  0  0  0  0  0  0  0  0  0  0
    8.7082  -14.5858   20.7065 C   0  0  1  0  0  0  0  0  0  0  0  0
    9.3871  -15.2914   21.7951 C   0  0  0  0  0  0  0  0  0  0  0  0
   10.6438  -15.2959   21.8309 O   0  0  0  0  0  0  0  0  0  0  0  0
    8.6629  -15.9765   22.8204 N   0  0  0  0  0  0  0  0  0  0  0  0
    9.4032  -16.5794   23.8844 C   0  0  0  0  0  0  0  0  0  0  0  0
    9.9528  -15.5343   24.8207 C   0  0  0  0  0  0  0  0  0  0  0  0
   11.1051  -15.0540   24.6619 O   0  0  0  0  0  0  0  0  0  0  0  0
    7.3345  -13.8106   27.0328 O   0  0  0  0  0  0  0  0  0  0  0  0
    8.5674  -13.2841   27.3755 C   0  0  0  0  0  0  0  0  0  0  0  0
    9.7028  -14.2234   26.9564 C   0  0  2  0  0  0  0  0  0  0  0  0
    9.1955  -15.0541   25.9121 N   0  0  0  0  0  0  0  0  0  0  0  0
   10.1015  -14.9896   28.1639 C   0  0  0  0  0  0  0  0  0  0  0  0
   10.6718  -14.3703   29.2644 O   0  0  0  0  0  0  0  0  0  0  0  0
    9.9351  -16.2355   28.2321 O   0  0  0  0  0  0  0  0  0  0  0  0
  1  5  1  0
  1  2  1  0
  2  3  1  0
  4  3  1  0
  5  4  1  0
  6  8  1  0
  5  6  1  1
  7  6  2  0
  9  8  1  0
 10  9  1  0
 11 10  2  0
 12 13  1  0
 14 13  1  1
 14 16  1  0
 14 15  1  0
 15 10  1  0
 16 17  1  0
 18 16  2  0
M  END
$$$$
