PGS.pdb
     RDKit          3D

 18 18  0  0  1  0  0  0  0  0999 V2000
    7.2319  -14.5969   19.5358 N   0  0  0  0  0  0  0  0  0  0  0  0
    7.0362  -13.4814   18.6636 C   0  0  0  0  0  0  0  0  0  0  0  0
    8.3682  -12.7358   18.5889 C   0  0  0  0  0  0  0  0  0  0  0  0
    8.9776  -13.1449   19.9366 C   0  0  0  0  0  0  0  0  0  0  0  0
    8.5985  -14.6266   19.9539 C   0  0  1  0  0  0  0  0  0  0  0  0
    8.7310  -15.2161   21.2876 C   0  0  0  0  0  0  0  0  0  0  0  0
    9.8794  -15.4651   21.7347 O   0  0  0  0  0  0  0  0  0  0  0  0
    7.5921  -15.5177   22.0982 N   0  0  0  0  0  0  0  0  0  0  0  0
    7.8121  -15.9114   23.4547 C   0  0  0  0  0  0  0  0  0  0  0  0
    8.2065  -14.7303   24.3034 C   0  0  0  0  0  0  0  0  0  0  0  0
    9.3850  -14.2890   24.3040 O   0  0  0  0  0  0  0  0  0  0  0  0
    5.2748  -13.1875   26.7354 O   0  0  0  0  0  0  0  0  0  0  0  0
    6.2927  -12.3119   26.4007 C   0  0  0  0  0  0  0  0  0  0  0  0
    7.5890  -13.0674   26.0911 C   0  0  2  0  0  0  0  0  0  0  0  0
    7.2684  -14.0735   25.1304 N   0  0  0  0  0  0  0  0  0  0  0  0
    8.0827  -13.6280   27.3741 C   0  0  0  0  0  0  0  0  0  0  0  0
    8.5390  -12.8132   28.3977 O   0  0  0  0  0  0  0  0  0  0  0  0
    8.1048  -14.8697   27.5795 O   0  0  0  0  0  0  0  0  0  0  0  0
  1  5  1  0
  1  2  1  0
  2  3  1  0
  4  3  1  0
  5  4  1  0
  6  8  1  0
  5  6  1  1
  7  6  2  0
  9  8  1  0
 10  9  1  0
 11 10  2  0
 12 13  1  0
 14 13  1  1
 14 16  1  0
 14 15  1  0
 15 10  1  0
 16 17  1  0
 18 16  2  0
M  END
$$$$
