PGS.pdb
     RDKit          3D

 18 18  0  0  1  0  0  0  0  0999 V2000
    7.3440  -14.8536   19.7016 N   0  0  0  0  0  0  0  0  0  0  0  0
    6.4898  -13.7086   19.6491 C   0  0  0  0  0  0  0  0  0  0  0  0
    7.3626  -12.5204   19.2463 C   0  0  0  0  0  0  0  0  0  0  0  0
    8.7265  -13.0090   19.7521 C   0  0  0  0  0  0  0  0  0  0  0  0
    8.6619  -14.4696   19.3031 C   0  0  1  0  0  0  0  0  0  0  0  0
    9.6756  -15.2962   19.9613 C   0  0  0  0  0  0  0  0  0  0  0  0
   10.8910  -15.0205   19.7960 O   0  0  0  0  0  0  0  0  0  0  0  0
    9.3244  -16.4093   20.7877 N   0  0  0  0  0  0  0  0  0  0  0  0
   10.3769  -17.1429   21.4180 C   0  0  0  0  0  0  0  0  0  0  0  0
   10.6734  -16.5930   22.7894 C   0  0  0  0  0  0  0  0  0  0  0  0
   11.8077  -16.7274   23.3175 O   0  0  0  0  0  0  0  0  0  0  0  0
    7.5091  -14.9317   24.7067 O   0  0  0  0  0  0  0  0  0  0  0  0
    8.7264  -14.4441   25.1482 C   0  0  0  0  0  0  0  0  0  0  0  0
    9.8524  -15.4466   24.8761 C   0  0  2  0  0  0  0  0  0  0  0  0
    9.6894  -15.9058   23.5342 N   0  0  0  0  0  0  0  0  0  0  0  0
    9.7200  -16.5324   25.8799 C   0  0  0  0  0  0  0  0  0  0  0  0
   10.0010  -16.3235   27.2205 O   0  0  0  0  0  0  0  0  0  0  0  0
    9.3459  -17.6876   25.5479 O   0  0  0  0  0  0  0  0  0  0  0  0
  1  5  1  0
  1  2  1  0
  2  3  1  0
  4  3  1  0
  5  4  1  0
  6  8  1  0
  5  6  1  1
  7  6  2  0
  9  8  1  0
 10  9  1  0
 11 10  2  0
 12 13  1  0
 14 13  1  1
 14 16  1  0
 14 15  1  0
 15 10  1  0
 16 17  1  0
 18 16  2  0
M  END
$$$$
