PGS.pdb
     RDKit          3D

 18 18  0  0  1  0  0  0  0  0999 V2000
    7.0166  -14.5567   19.9196 N   0  0  0  0  0  0  0  0  0  0  0  0
    6.8504  -13.3996   19.0969 C   0  0  0  0  0  0  0  0  0  0  0  0
    8.2008  -12.6852   19.0557 C   0  0  0  0  0  0  0  0  0  0  0  0
    8.7975  -13.1679   20.3845 C   0  0  0  0  0  0  0  0  0  0  0  0
    8.3813  -14.6389   20.3368 C   0  0  1  0  0  0  0  0  0  0  0  0
    8.4968  -15.2893   21.6436 C   0  0  0  0  0  0  0  0  0  0  0  0
    9.6379  -15.5840   22.0812 O   0  0  0  0  0  0  0  0  0  0  0  0
    7.3491  -15.5999   22.4382 N   0  0  0  0  0  0  0  0  0  0  0  0
    7.5568  -16.0717   23.7716 C   0  0  0  0  0  0  0  0  0  0  0  0
    8.0144  -14.9557   24.6749 C   0  0  0  0  0  0  0  0  0  0  0  0
    9.2299  -14.6425   24.7644 O   0  0  0  0  0  0  0  0  0  0  0  0
    5.2782  -12.4230   25.8259 O   0  0  0  0  0  0  0  0  0  0  0  0
    6.1591  -12.5605   26.8841 C   0  0  0  0  0  0  0  0  0  0  0  0
    7.4543  -13.2454   26.4367 C   0  0  2  0  0  0  0  0  0  0  0  0
    7.0963  -14.2187   25.4555 N   0  0  0  0  0  0  0  0  0  0  0  0
    8.0709  -13.8434   27.6476 C   0  0  0  0  0  0  0  0  0  0  0  0
    8.2474  -15.2118   27.7752 O   0  0  0  0  0  0  0  0  0  0  0  0
    8.4575  -13.1257   28.6067 O   0  0  0  0  0  0  0  0  0  0  0  0
  1  5  1  0
  1  2  1  0
  2  3  1  0
  4  3  1  0
  5  4  1  0
  6  8  1  0
  5  6  1  1
  7  6  2  0
  9  8  1  0
 10  9  1  0
 11 10  2  0
 12 13  1  0
 14 13  1  1
 14 16  1  0
 14 15  1  0
 15 10  1  0
 16 17  1  0
 18 16  2  0
M  END
$$$$
