PGS.pdb
     RDKit          3D

 18 18  0  0  1  0  0  0  0  0999 V2000
    7.2680  -15.0664   19.8952 N   0  0  0  0  0  0  0  0  0  0  0  0
    6.3473  -13.9827   19.7496 C   0  0  0  0  0  0  0  0  0  0  0  0
    7.1182  -12.8263   19.1140 C   0  0  0  0  0  0  0  0  0  0  0  0
    8.5413  -13.1713   19.5731 C   0  0  0  0  0  0  0  0  0  0  0  0
    8.5291  -14.6832   19.3421 C   0  0  1  0  0  0  0  0  0  0  0  0
    9.6340  -15.3565   20.0275 C   0  0  0  0  0  0  0  0  0  0  0  0
   10.8162  -15.0654   19.7140 O   0  0  0  0  0  0  0  0  0  0  0  0
    9.4088  -16.3367   21.0442 N   0  0  0  0  0  0  0  0  0  0  0  0
   10.5456  -16.9516   21.6550 C   0  0  0  0  0  0  0  0  0  0  0  0
   10.7355  -16.4564   23.0656 C   0  0  0  0  0  0  0  0  0  0  0  0
   11.8279  -16.6089   23.6715 O   0  0  0  0  0  0  0  0  0  0  0  0
    7.4614  -14.7128   24.8879 O   0  0  0  0  0  0  0  0  0  0  0  0
    8.7083  -14.2900   25.3135 C   0  0  0  0  0  0  0  0  0  0  0  0
    9.7563  -15.3918   25.1273 C   0  0  2  0  0  0  0  0  0  0  0  0
    9.6947  -15.8022   23.7613 N   0  0  0  0  0  0  0  0  0  0  0  0
    9.4147  -16.4818   26.0755 C   0  0  0  0  0  0  0  0  0  0  0  0
    9.5961  -16.3422   27.4420 O   0  0  0  0  0  0  0  0  0  0  0  0
    8.9457  -17.5775   25.6705 O   0  0  0  0  0  0  0  0  0  0  0  0
  1  5  1  0
  1  2  1  0
  2  3  1  0
  4  3  1  0
  5  4  1  0
  6  8  1  0
  5  6  1  1
  7  6  2  0
  9  8  1  0
 10  9  1  0
 11 10  2  0
 12 13  1  0
 14 13  1  6
 14 16  1  0
 14 15  1  0
 15 10  1  0
 16 17  1  0
 18 16  2  0
M  END
$$$$
