PGS.pdb
     RDKit          3D

 18 18  0  0  1  0  0  0  0  0999 V2000
    7.8514  -14.4851   18.9908 N   0  0  0  0  0  0  0  0  0  0  0  0
    7.7013  -13.1045   18.6520 C   0  0  0  0  0  0  0  0  0  0  0  0
    7.8353  -12.3104   19.9509 C   0  0  0  0  0  0  0  0  0  0  0  0
    7.3964  -13.3784   20.9617 C   0  0  0  0  0  0  0  0  0  0  0  0
    8.1273  -14.5938   20.3891 C   0  0  1  0  0  0  0  0  0  0  0  0
    7.6163  -15.8536   20.9328 C   0  0  0  0  0  0  0  0  0  0  0  0
    8.2938  -16.9024   20.7861 O   0  0  0  0  0  0  0  0  0  0  0  0
    6.3680  -15.9272   21.6268 N   0  0  0  0  0  0  0  0  0  0  0  0
    5.9498  -17.1964   22.1344 C   0  0  0  0  0  0  0  0  0  0  0  0
    6.8997  -17.6951   23.1927 C   0  0  0  0  0  0  0  0  0  0  0  0
    6.9648  -18.9159   23.4912 O   0  0  0  0  0  0  0  0  0  0  0  0
    9.1491  -14.8634   25.2363 O   0  0  0  0  0  0  0  0  0  0  0  0
    9.7325  -16.0964   25.0033 C   0  0  0  0  0  0  0  0  0  0  0  0
    8.6723  -17.1983   24.9114 C   0  0  2  0  0  0  0  0  0  0  0  0
    7.7531  -16.8114   23.8898 N   0  0  0  0  0  0  0  0  0  0  0  0
    8.0390  -17.3055   26.2499 C   0  0  0  0  0  0  0  0  0  0  0  0
    8.7406  -17.7643   27.3531 O   0  0  0  0  0  0  0  0  0  0  0  0
    6.8362  -16.9818   26.4319 O   0  0  0  0  0  0  0  0  0  0  0  0
  1  5  1  0
  1  2  1  0
  2  3  1  0
  4  3  1  0
  5  4  1  0
  6  8  1  0
  5  6  1  1
  7  6  2  0
  9  8  1  0
 10  9  1  0
 11 10  2  0
 12 13  1  0
 14 13  1  1
 14 16  1  0
 14 15  1  0
 15 10  1  0
 16 17  1  0
 18 16  2  0
M  END
$$$$
