PGS.pdb
     RDKit          3D

 18 18  0  0  1  0  0  0  0  0999 V2000
    7.0035  -14.1232   19.4524 N   0  0  0  0  0  0  0  0  0  0  0  0
    6.9651  -12.7743   18.9811 C   0  0  0  0  0  0  0  0  0  0  0  0
    8.3315  -12.4797   18.3631 C   0  0  0  0  0  0  0  0  0  0  0  0
    9.1961  -13.4818   19.1400 C   0  0  0  0  0  0  0  0  0  0  0  0
    8.2686  -14.6977   19.1166 C   0  0  1  0  0  0  0  0  0  0  0  0
    8.6642  -15.7142   20.0935 C   0  0  0  0  0  0  0  0  0  0  0  0
    9.7352  -16.3484   19.9164 O   0  0  0  0  0  0  0  0  0  0  0  0
    7.8679  -16.0078   21.2445 N   0  0  0  0  0  0  0  0  0  0  0  0
    8.2858  -17.0717   22.1030 C   0  0  0  0  0  0  0  0  0  0  0  0
    9.3931  -16.6224   23.0211 C   0  0  0  0  0  0  0  0  0  0  0  0
   10.4404  -16.0888   22.5716 O   0  0  0  0  0  0  0  0  0  0  0  0
    8.5441  -15.3587   26.5465 O   0  0  0  0  0  0  0  0  0  0  0  0
    9.8523  -15.2105   26.1207 C   0  0  0  0  0  0  0  0  0  0  0  0
   10.3254  -16.4497   25.3542 C   0  0  2  0  0  0  0  0  0  0  0  0
    9.2976  -16.7831   24.4212 N   0  0  0  0  0  0  0  0  0  0  0  0
   10.5648  -17.5169   26.3581 C   0  0  0  0  0  0  0  0  0  0  0  0
   11.5743  -17.4162   27.3019 O   0  0  0  0  0  0  0  0  0  0  0  0
    9.8562  -18.5568   26.3885 O   0  0  0  0  0  0  0  0  0  0  0  0
  1  5  1  0
  1  2  1  0
  2  3  1  0
  4  3  1  0
  5  4  1  0
  6  8  1  0
  5  6  1  1
  7  6  2  0
  9  8  1  0
 10  9  1  0
 11 10  2  0
 12 13  1  0
 14 13  1  1
 14 16  1  0
 14 15  1  0
 15 10  1  0
 16 17  1  0
 18 16  2  0
M  END
$$$$
