PGS.pdb
     RDKit          3D

 18 18  0  0  1  0  0  0  0  0999 V2000
    7.3599  -14.7796   19.4211 N   0  0  0  0  0  0  0  0  0  0  0  0
    6.5721  -13.6029   19.2264 C   0  0  0  0  0  0  0  0  0  0  0  0
    7.5462  -12.4494   18.9894 C   0  0  0  0  0  0  0  0  0  0  0  0
    8.7810  -12.9892   19.7235 C   0  0  0  0  0  0  0  0  0  0  0  0
    8.7408  -14.4468   19.2618 C   0  0  1  0  0  0  0  0  0  0  0  0
    9.5915  -15.3108   20.0826 C   0  0  0  0  0  0  0  0  0  0  0  0
   10.8387  -15.1580   20.0417 O   0  0  0  0  0  0  0  0  0  0  0  0
    9.0457  -16.3247   20.9307 N   0  0  0  0  0  0  0  0  0  0  0  0
    9.9505  -17.1429   21.6760 C   0  0  0  0  0  0  0  0  0  0  0  0
   10.3776  -16.4567   22.9478 C   0  0  0  0  0  0  0  0  0  0  0  0
   11.5822  -16.1598   23.1588 O   0  0  0  0  0  0  0  0  0  0  0  0
    7.4057  -15.2726   25.4540 O   0  0  0  0  0  0  0  0  0  0  0  0
    8.6395  -14.6858   25.6736 C   0  0  0  0  0  0  0  0  0  0  0  0
    9.7767  -15.6186   25.2454 C   0  0  2  0  0  0  0  0  0  0  0  0
    9.4423  -16.1206   23.9515 N   0  0  0  0  0  0  0  0  0  0  0  0
    9.8744  -16.6856   26.2731 C   0  0  0  0  0  0  0  0  0  0  0  0
   10.2822  -16.4138   27.5691 O   0  0  0  0  0  0  0  0  0  0  0  0
    9.5889  -17.8815   26.0030 O   0  0  0  0  0  0  0  0  0  0  0  0
  1  5  1  0
  1  2  1  0
  2  3  1  0
  4  3  1  0
  5  4  1  0
  6  8  1  0
  5  6  1  1
  7  6  2  0
  9  8  1  0
 10  9  1  0
 11 10  2  0
 12 13  1  0
 14 13  1  1
 14 16  1  0
 14 15  1  0
 15 10  1  0
 16 17  1  0
 18 16  2  0
M  END
$$$$
