PGS.pdb
     RDKit          3D

 18 18  0  0  1  0  0  0  0  0999 V2000
    7.1573  -14.7011   20.0288 N   0  0  0  0  0  0  0  0  0  0  0  0
    6.4155  -13.6018   19.4953 C   0  0  0  0  0  0  0  0  0  0  0  0
    6.9560  -13.3405   18.0899 C   0  0  0  0  0  0  0  0  0  0  0  0
    8.3766  -13.9004   18.2432 C   0  0  0  0  0  0  0  0  0  0  0  0
    8.0702  -15.1725   19.0351 C   0  0  1  0  0  0  0  0  0  0  0  0
    9.2703  -15.7451   19.6482 C   0  0  0  0  0  0  0  0  0  0  0  0
   10.1371  -16.2806   18.9116 O   0  0  0  0  0  0  0  0  0  0  0  0
    9.4866  -15.7136   21.0615 N   0  0  0  0  0  0  0  0  0  0  0  0
   10.7684  -16.1048   21.5588 C   0  0  0  0  0  0  0  0  0  0  0  0
   10.8031  -16.0527   23.0645 C   0  0  0  0  0  0  0  0  0  0  0  0
   11.8530  -16.3202   23.7047 O   0  0  0  0  0  0  0  0  0  0  0  0
    8.1868  -13.7676   24.7284 O   0  0  0  0  0  0  0  0  0  0  0  0
    8.3622  -14.8219   25.6072 C   0  0  0  0  0  0  0  0  0  0  0  0
    9.6013  -15.6444   25.2397 C   0  0  2  0  0  0  0  0  0  0  0  0
    9.6587  -15.7017   23.8143 N   0  0  0  0  0  0  0  0  0  0  0  0
    9.4385  -16.9802   25.8668 C   0  0  0  0  0  0  0  0  0  0  0  0
    9.3647  -18.1372   25.1080 O   0  0  0  0  0  0  0  0  0  0  0  0
    9.3612  -17.1107   27.1164 O   0  0  0  0  0  0  0  0  0  0  0  0
  1  5  1  0
  1  2  1  0
  2  3  1  0
  4  3  1  0
  5  4  1  0
  6  8  1  0
  5  6  1  1
  7  6  2  0
  9  8  1  0
 10  9  1  0
 11 10  2  0
 12 13  1  0
 14 13  1  6
 14 16  1  0
 14 15  1  0
 15 10  1  0
 16 17  1  0
 18 16  2  0
M  END
$$$$
