CLL.pdb
     RDKit          3D

 23 22  0  0  1  0  0  0  0  0999 V2000
   20.8821  -19.7257   -8.7013 N   0  0  0  0  0  0  0  0  0  0  0  0
   21.9386  -20.6643   -8.4929 C   0  0  1  0  0  0  0  0  0  0  0  0
   21.4883  -22.0569   -8.8368 C   0  0  0  0  0  0  0  0  0  0  0  0
   21.5442  -23.0349   -7.3011 S   0  0  0  0  0  0  0  0  0  0  0  0
   23.1645  -20.2642   -9.2429 C   0  0  0  0  0  0  0  0  0  0  0  0
   23.0257  -19.5827  -10.2719 O   0  0  0  0  0  0  0  0  0  0  0  0
   26.9890  -18.4852   -7.5397 C   0  0  0  0  0  0  0  0  0  0  0  0
   26.7776  -19.9687   -7.2981 C   0  0  2  0  0  0  0  0  0  0  0  0
   27.9312  -20.4565   -6.4505 C   0  0  0  0  0  0  0  0  0  0  0  0
   26.8599  -20.6507   -8.6477 C   0  0  0  0  0  0  0  0  0  0  0  0
   25.6858  -20.3267   -9.5086 C   0  0  2  0  0  0  0  0  0  0  0  0
   24.4650  -20.6407   -8.8111 N   0  0  0  0  0  0  0  0  0  0  0  0
   25.7040  -21.0395  -10.8105 C   0  0  0  0  0  0  0  0  0  0  0  0
   25.4688  -22.2688  -10.8470 O   0  0  0  0  0  0  0  0  0  0  0  0
   25.4017  -21.7285  -16.3059 C   0  0  0  0  0  0  0  0  0  0  0  0
   24.4164  -21.0922  -15.3772 C   0  0  2  0  0  0  0  0  0  0  0  0
   23.4178  -20.2418  -16.1765 C   0  0  0  0  0  0  0  0  0  0  0  0
   24.9333  -20.3806  -14.2022 C   0  0  0  0  0  0  0  0  0  0  0  0
   25.9004  -21.0715  -13.3465 C   0  0  2  0  0  0  0  0  0  0  0  0
   25.9782  -20.3873  -12.0300 N   0  0  0  0  0  0  0  0  0  0  0  0
   27.2619  -21.1433  -13.8256 C   0  0  0  0  0  0  0  0  0  0  0  0
   28.1552  -20.2654  -13.7962 O   0  0  0  0  0  0  0  0  0  0  0  0
   27.6932  -22.3632  -14.4210 O   0  0  0  0  0  0  0  0  0  0  0  0
  2  1  1  6
  2  5  1  0
  3  2  1  0
  4  3  1  0
  5 12  1  0
  5  6  2  0
  8  7  1  6
  8 10  1  0
  8  9  1  0
 11 10  1  1
 11 13  1  0
 12 11  1  0
 13 14  2  0
 16 18  1  0
 16 15  1  6
 17 16  1  0
 19 18  1  6
 19 21  1  0
 20 13  1  0
 20 19  1  0
 21 23  1  0
 22 21  2  0
M  END
$$$$
