CLL.pdb
     RDKit          3D

 23 22  0  0  1  0  0  0  0  0999 V2000
   14.1001  -11.5085  -10.7359 N   0  0  0  0  0  0  0  0  0  0  0  0
   15.3155  -10.8113  -10.4581 C   0  0  1  0  0  0  0  0  0  0  0  0
   16.4156  -11.2756  -11.3715 C   0  0  0  0  0  0  0  0  0  0  0  0
   17.9746  -10.5858  -10.7297 S   0  0  0  0  0  0  0  0  0  0  0  0
   15.1113   -9.3350  -10.5223 C   0  0  0  0  0  0  0  0  0  0  0  0
   14.5457   -8.8646  -11.5230 O   0  0  0  0  0  0  0  0  0  0  0  0
   14.1318   -4.6148   -6.9285 C   0  0  0  0  0  0  0  0  0  0  0  0
   14.7281   -5.0123   -8.2665 C   0  0  2  0  0  0  0  0  0  0  0  0
   13.7223   -4.6461   -9.3350 C   0  0  0  0  0  0  0  0  0  0  0  0
   14.8765   -6.5193   -8.2522 C   0  0  0  0  0  0  0  0  0  0  0  0
   15.4703   -7.0331   -9.5203 C   0  0  2  0  0  0  0  0  0  0  0  0
   15.5435   -8.4713   -9.4798 N   0  0  0  0  0  0  0  0  0  0  0  0
   16.8201   -6.4811   -9.7968 C   0  0  0  0  0  0  0  0  0  0  0  0
   17.7370   -6.6373   -8.9585 O   0  0  0  0  0  0  0  0  0  0  0  0
   21.2625   -5.3327  -12.7734 C   0  0  0  0  0  0  0  0  0  0  0  0
   20.7292   -6.4131  -11.8866 C   0  0  2  0  0  0  0  0  0  0  0  0
   21.4045   -7.7501  -12.2268 C   0  0  0  0  0  0  0  0  0  0  0  0
   19.2733   -6.5455  -11.7568 C   0  0  0  0  0  0  0  0  0  0  0  0
   18.5070   -5.3684  -11.3419 C   0  0  2  0  0  0  0  0  0  0  0  0
   17.1252   -5.7765  -10.9793 N   0  0  0  0  0  0  0  0  0  0  0  0
   18.3547   -4.3119  -12.3160 C   0  0  0  0  0  0  0  0  0  0  0  0
   19.0529   -3.2847  -12.4805 O   0  0  0  0  0  0  0  0  0  0  0  0
   17.2746   -4.4101  -13.2392 O   0  0  0  0  0  0  0  0  0  0  0  0
  2  1  1  6
  2  5  1  0
  3  2  1  0
  4  3  1  0
  5 12  1  0
  5  6  2  0
  8  7  1  1
  8 10  1  0
  8  9  1  0
 11 10  1  1
 11 13  1  0
 12 11  1  0
 13 14  2  0
 16 18  1  0
 16 15  1  6
 17 16  1  0
 19 18  1  6
 19 21  1  0
 20 13  1  0
 20 19  1  0
 21 23  1  0
 22 21  2  0
M  END
$$$$
