CLL.pdb
     RDKit          3D

 23 22  0  0  1  0  0  0  0  0999 V2000
   27.9726  -24.8608  -17.8644 N   0  0  0  0  0  0  0  0  0  0  0  0
   27.9093  -26.1124  -17.1791 C   0  0  1  0  0  0  0  0  0  0  0  0
   26.5035  -26.4041  -16.7331 C   0  0  0  0  0  0  0  0  0  0  0  0
   26.1199  -25.2515  -15.3756 S   0  0  0  0  0  0  0  0  0  0  0  0
   28.4769  -27.2092  -18.0159 C   0  0  0  0  0  0  0  0  0  0  0  0
   28.1499  -27.2622  -19.2129 O   0  0  0  0  0  0  0  0  0  0  0  0
   32.2779  -28.1037  -19.8175 C   0  0  0  0  0  0  0  0  0  0  0  0
   32.2082  -28.0879  -18.3013 C   0  0  2  0  0  0  0  0  0  0  0  0
   33.6235  -28.2138  -17.7834 C   0  0  0  0  0  0  0  0  0  0  0  0
   31.4390  -29.3235  -17.8829 C   0  0  0  0  0  0  0  0  0  0  0  0
   29.9943  -29.2287  -18.2411 C   0  0  2  0  0  0  0  0  0  0  0  0
   29.3686  -28.1774  -17.4803 N   0  0  0  0  0  0  0  0  0  0  0  0
   29.2559  -30.4978  -18.0232 C   0  0  0  0  0  0  0  0  0  0  0  0
   29.5986  -31.5287  -18.6457 O   0  0  0  0  0  0  0  0  0  0  0  0
   24.8721  -32.7179  -14.2467 C   0  0  0  0  0  0  0  0  0  0  0  0
   26.1196  -32.9827  -15.0287 C   0  0  2  0  0  0  0  0  0  0  0  0
   26.9863  -34.0180  -14.2964 C   0  0  0  0  0  0  0  0  0  0  0  0
   26.9040  -31.8312  -15.4902 C   0  0  0  0  0  0  0  0  0  0  0  0
   27.4899  -31.8875  -16.8313 C   0  0  2  0  0  0  0  0  0  0  0  0
   28.1674  -30.6002  -17.1330 N   0  0  0  0  0  0  0  0  0  0  0  0
   26.5809  -32.1129  -17.9319 C   0  0  0  0  0  0  0  0  0  0  0  0
   25.9119  -31.2792  -18.5852 O   0  0  0  0  0  0  0  0  0  0  0  0
   26.3882  -33.4543  -18.3702 O   0  0  0  0  0  0  0  0  0  0  0  0
  2  1  1  6
  2  5  1  0
  3  2  1  0
  4  3  1  0
  5 12  1  0
  5  6  2  0
  8  7  1  6
  8 10  1  0
  8  9  1  0
 11 10  1  1
 11 13  1  0
 12 11  1  0
 13 14  2  0
 16 18  1  0
 16 15  1  1
 17 16  1  0
 19 18  1  1
 19 21  1  0
 20 13  1  0
 20 19  1  0
 21 23  1  0
 22 21  2  0
M  END
$$$$
