CLL.pdb
     RDKit          3D

 23 22  0  0  1  0  0  0  0  0999 V2000
   16.8797  -12.3455  -15.1472 N   0  0  0  0  0  0  0  0  0  0  0  0
   17.3171  -11.3052  -16.0228 C   0  0  1  0  0  0  0  0  0  0  0  0
   16.1690  -10.7783  -16.8380 C   0  0  0  0  0  0  0  0  0  0  0  0
   15.7578  -12.0517  -18.0738 S   0  0  0  0  0  0  0  0  0  0  0  0
   18.0151  -10.2266  -15.2645 C   0  0  0  0  0  0  0  0  0  0  0  0
   17.5256   -9.8591  -14.1839 O   0  0  0  0  0  0  0  0  0  0  0  0
   21.7224   -9.0416  -12.8369 C   0  0  0  0  0  0  0  0  0  0  0  0
   21.8495   -9.6748  -14.2106 C   0  0  2  0  0  0  0  0  0  0  0  0
   23.3226   -9.8983  -14.4696 C   0  0  0  0  0  0  0  0  0  0  0  0
   21.3411   -8.6592  -15.2123 C   0  0  0  0  0  0  0  0  0  0  0  0
   19.8610   -8.4925  -15.1349 C   0  0  2  0  0  0  0  0  0  0  0  0
   19.2079   -9.6221  -15.7455 N   0  0  0  0  0  0  0  0  0  0  0  0
   19.3815   -7.2430  -15.7768 C   0  0  0  0  0  0  0  0  0  0  0  0
   19.4683   -7.1118  -17.0190 O   0  0  0  0  0  0  0  0  0  0  0  0
   15.2466   -2.7950  -14.7585 C   0  0  0  0  0  0  0  0  0  0  0  0
   16.3193   -3.3994  -15.6081 C   0  0  2  0  0  0  0  0  0  0  0  0
   15.8101   -3.5763  -17.0464 C   0  0  0  0  0  0  0  0  0  0  0  0
   17.0011   -4.6003  -15.1107 C   0  0  0  0  0  0  0  0  0  0  0  0
   18.3066   -4.9394  -15.6811 C   0  0  2  0  0  0  0  0  0  0  0  0
   18.8226   -6.1774  -15.0420 N   0  0  0  0  0  0  0  0  0  0  0  0
   19.3587   -3.9601  -15.5316 C   0  0  0  0  0  0  0  0  0  0  0  0
   19.6162   -2.9643  -16.2468 O   0  0  0  0  0  0  0  0  0  0  0  0
   20.2510   -4.1064  -14.4311 O   0  0  0  0  0  0  0  0  0  0  0  0
  2  1  1  1
  2  5  1  0
  3  2  1  0
  4  3  1  0
  5 12  1  0
  5  6  2  0
  8  7  1  1
  8 10  1  0
  8  9  1  0
 11 10  1  6
 11 13  1  0
 12 11  1  0
 13 14  2  0
 16 18  1  0
 16 15  1  1
 17 16  1  0
 19 18  1  1
 19 21  1  0
 20 13  1  0
 20 19  1  0
 21 23  1  0
 22 21  2  0
M  END
$$$$
