CLL.pdb
     RDKit          3D

 23 22  0  0  1  0  0  0  0  0999 V2000
   20.5049  -14.3343  -19.0308 N   0  0  0  0  0  0  0  0  0  0  0  0
   21.2509  -13.1981  -19.4704 C   0  0  1  0  0  0  0  0  0  0  0  0
   20.4569  -12.3910  -20.4596 C   0  0  0  0  0  0  0  0  0  0  0  0
   20.5360  -13.2667  -22.0549 S   0  0  0  0  0  0  0  0  0  0  0  0
   21.7108  -12.3796  -18.3112 C   0  0  0  0  0  0  0  0  0  0  0  0
   20.9151  -12.1874  -17.3771 O   0  0  0  0  0  0  0  0  0  0  0  0
   27.0152  -10.0629  -16.1886 C   0  0  0  0  0  0  0  0  0  0  0  0
   25.5021   -9.9464  -16.1582 C   0  0  2  0  0  0  0  0  0  0  0  0
   25.0469  -10.3428  -14.7715 C   0  0  0  0  0  0  0  0  0  0  0  0
   24.9624  -10.9629  -17.1425 C   0  0  0  0  0  0  0  0  0  0  0  0
   23.4762  -10.8995  -17.2510 C   0  0  2  0  0  0  0  0  0  0  0  0
   23.0180  -11.8252  -18.2553 N   0  0  0  0  0  0  0  0  0  0  0  0
   22.9733   -9.5402  -17.5712 C   0  0  0  0  0  0  0  0  0  0  0  0
   23.2295   -9.0316  -18.6863 O   0  0  0  0  0  0  0  0  0  0  0  0
   18.2224   -6.4383  -18.4299 C   0  0  0  0  0  0  0  0  0  0  0  0
   19.6531   -6.3386  -18.0044 C   0  0  2  0  0  0  0  0  0  0  0  0
   20.4791   -5.6536  -19.1034 C   0  0  0  0  0  0  0  0  0  0  0  0
   20.3082   -7.5479  -17.4921 C   0  0  0  0  0  0  0  0  0  0  0  0
   21.6779   -7.4302  -16.9872 C   0  0  2  0  0  0  0  0  0  0  0  0
   22.2070   -8.7804  -16.6639 N   0  0  0  0  0  0  0  0  0  0  0  0
   21.8669   -6.6441  -15.7894 C   0  0  0  0  0  0  0  0  0  0  0  0
   21.9041   -7.0227  -14.5958 O   0  0  0  0  0  0  0  0  0  0  0  0
   22.0404   -5.2383  -15.9380 O   0  0  0  0  0  0  0  0  0  0  0  0
  2  1  1  1
  2  5  1  0
  3  2  1  0
  4  3  1  0
  5 12  1  0
  5  6  2  0
  8  7  1  1
  8 10  1  0
  8  9  1  0
 11 10  1  6
 11 13  1  0
 12 11  1  0
 13 14  2  0
 16 18  1  0
 16 15  1  6
 17 16  1  0
 19 18  1  1
 19 21  1  0
 20 13  1  0
 20 19  1  0
 21 23  1  0
 22 21  2  0
M  END
$$$$
