CLL.pdb
     RDKit          3D

 23 22  0  0  1  0  0  0  0  0999 V2000
   13.5964  -23.9579   -3.0222 N   0  0  0  0  0  0  0  0  0  0  0  0
   13.8826  -22.6475   -2.5308 C   0  0  1  0  0  0  0  0  0  0  0  0
   12.9221  -21.6430   -3.1043 C   0  0  0  0  0  0  0  0  0  0  0  0
   13.4127  -21.3571   -4.8350 S   0  0  0  0  0  0  0  0  0  0  0  0
   13.8989  -22.6279   -1.0393 C   0  0  0  0  0  0  0  0  0  0  0  0
   12.9206  -23.0990   -0.4363 O   0  0  0  0  0  0  0  0  0  0  0  0
   14.7765  -24.6737    2.2618 C   0  0  0  0  0  0  0  0  0  0  0  0
   16.0025  -24.3198    1.4398 C   0  0  2  0  0  0  0  0  0  0  0  0
   17.1787  -25.0520    2.0460 C   0  0  0  0  0  0  0  0  0  0  0  0
   16.2320  -22.8325    1.6093 C   0  0  0  0  0  0  0  0  0  0  0  0
   15.0694  -22.0307    1.1299 C   0  0  2  0  0  0  0  0  0  0  0  0
   14.9921  -22.0904   -0.3075 N   0  0  0  0  0  0  0  0  0  0  0  0
   15.1243  -20.6110    1.5593 C   0  0  0  0  0  0  0  0  0  0  0  0
   15.9556  -19.8363    1.0333 O   0  0  0  0  0  0  0  0  0  0  0  0
   11.5901  -16.4815    4.5418 C   0  0  0  0  0  0  0  0  0  0  0  0
   12.6850  -16.8068    3.5758 C   0  0  2  0  0  0  0  0  0  0  0  0
   12.5653  -15.9162    2.3300 C   0  0  0  0  0  0  0  0  0  0  0  0
   12.9060  -18.2159    3.2296 C   0  0  0  0  0  0  0  0  0  0  0  0
   14.2741  -18.6489    2.9371 C   0  0  2  0  0  0  0  0  0  0  0  0
   14.2701  -20.0830    2.5490 N   0  0  0  0  0  0  0  0  0  0  0  0
   15.2363  -18.5417    4.0099 C   0  0  0  0  0  0  0  0  0  0  0  0
   15.5693  -19.4007    4.8589 O   0  0  0  0  0  0  0  0  0  0  0  0
   15.9278  -17.3057    4.1610 O   0  0  0  0  0  0  0  0  0  0  0  0
  2  1  1  1
  2  5  1  0
  3  2  1  0
  4  3  1  0
  5 12  1  0
  5  6  2  0
  8  7  1  1
  8 10  1  0
  8  9  1  0
 11 10  1  6
 11 13  1  0
 12 11  1  0
 13 14  2  0
 16 18  1  0
 16 15  1  6
 17 16  1  0
 19 18  1  1
 19 21  1  0
 20 13  1  0
 20 19  1  0
 21 23  1  0
 22 21  2  0
M  END
$$$$
