CLL.pdb
     RDKit          3D

 23 22  0  0  1  0  0  0  0  0999 V2000
   17.6356  -12.0303    4.8907 N   0  0  0  0  0  0  0  0  0  0  0  0
   18.7837  -12.8757    4.9776 C   0  0  1  0  0  0  0  0  0  0  0  0
   19.7710  -12.3311    5.9722 C   0  0  0  0  0  0  0  0  0  0  0  0
   20.8328  -11.1478    5.0832 S   0  0  0  0  0  0  0  0  0  0  0  0
   18.3901  -14.2819    5.2825 C   0  0  0  0  0  0  0  0  0  0  0  0
   17.6790  -14.4884    6.2796 O   0  0  0  0  0  0  0  0  0  0  0  0
   16.2902  -17.8658    3.3602 C   0  0  0  0  0  0  0  0  0  0  0  0
   17.5274  -17.3271    2.6652 C   0  0  2  0  0  0  0  0  0  0  0  0
   17.7200  -18.1317    1.3992 C   0  0  0  0  0  0  0  0  0  0  0  0
   18.7013  -17.5991    3.5824 C   0  0  0  0  0  0  0  0  0  0  0  0
   18.6516  -16.7608    4.8150 C   0  0  2  0  0  0  0  0  0  0  0  0
   18.8051  -15.3707    4.4690 N   0  0  0  0  0  0  0  0  0  0  0  0
   19.6832  -17.1339    5.8150 C   0  0  0  0  0  0  0  0  0  0  0  0
   20.8938  -16.9469    5.5556 O   0  0  0  0  0  0  0  0  0  0  0  0
   20.9226  -16.4449   11.5696 C   0  0  0  0  0  0  0  0  0  0  0  0
   21.1930  -17.2554   10.3416 C   0  0  2  0  0  0  0  0  0  0  0  0
   22.6859  -17.1860    9.9872 C   0  0  0  0  0  0  0  0  0  0  0  0
   20.3354  -17.0424    9.1697 C   0  0  0  0  0  0  0  0  0  0  0  0
   20.3831  -18.0309    8.0902 C   0  0  2  0  0  0  0  0  0  0  0  0
   19.3597  -17.6989    7.0656 N   0  0  0  0  0  0  0  0  0  0  0  0
   20.1337  -19.4072    8.4536 C   0  0  0  0  0  0  0  0  0  0  0  0
   19.0470  -19.9639    8.7338 O   0  0  0  0  0  0  0  0  0  0  0  0
   21.2489  -20.2910    8.5133 O   0  0  0  0  0  0  0  0  0  0  0  0
  2  1  1  1
  2  5  1  0
  3  2  1  0
  4  3  1  0
  5 12  1  0
  5  6  2  0
  8  7  1  1
  8 10  1  0
  8  9  1  0
 11 10  1  6
 11 13  1  0
 12 11  1  0
 13 14  2  0
 16 18  1  0
 16 15  1  1
 17 16  1  0
 19 18  1  1
 19 21  1  0
 20 13  1  0
 20 19  1  0
 21 23  1  0
 22 21  2  0
M  END
$$$$
