CLL.pdb
     RDKit          3D

 23 22  0  0  1  0  0  0  0  0999 V2000
   28.6597  -20.6054  -15.6420 N   0  0  0  0  0  0  0  0  0  0  0  0
   27.7924  -19.7341  -14.9146 C   0  0  1  0  0  0  0  0  0  0  0  0
   27.2689  -18.6408  -15.8040 C   0  0  0  0  0  0  0  0  0  0  0  0
   28.6321  -17.4613  -16.0655 S   0  0  0  0  0  0  0  0  0  0  0  0
   26.6960  -20.5005  -14.2544 C   0  0  0  0  0  0  0  0  0  0  0  0
   26.2913  -21.5372  -14.8057 O   0  0  0  0  0  0  0  0  0  0  0  0
   26.5698  -22.0832  -10.1615 C   0  0  0  0  0  0  0  0  0  0  0  0
   26.3612  -20.5811  -10.2263 C   0  0  2  0  0  0  0  0  0  0  0  0
   26.2596  -20.0781   -8.8037 C   0  0  0  0  0  0  0  0  0  0  0  0
   25.0280  -20.3506  -10.9066 C   0  0  0  0  0  0  0  0  0  0  0  0
   25.0543  -20.7640  -12.3394 C   0  0  2  0  0  0  0  0  0  0  0  0
   26.1157  -20.0756  -13.0288 N   0  0  0  0  0  0  0  0  0  0  0  0
   23.7706  -20.5137  -13.0413 C   0  0  0  0  0  0  0  0  0  0  0  0
   23.4559  -19.3442  -13.3590 O   0  0  0  0  0  0  0  0  0  0  0  0
   19.8834  -23.6587  -16.7009 C   0  0  0  0  0  0  0  0  0  0  0  0
   20.2001  -22.4366  -15.8984 C   0  0  2  0  0  0  0  0  0  0  0  0
   20.1534  -21.1929  -16.7986 C   0  0  0  0  0  0  0  0  0  0  0  0
   21.3953  -22.4589  -15.0468 C   0  0  0  0  0  0  0  0  0  0  0  0
   21.6317  -21.3189  -14.1584 C   0  0  2  0  0  0  0  0  0  0  0  0
   22.8722  -21.5483  -13.3736 N   0  0  0  0  0  0  0  0  0  0  0  0
   20.6059  -21.0273  -13.1833 C   0  0  0  0  0  0  0  0  0  0  0  0
   19.6483  -20.2235  -13.2628 O   0  0  0  0  0  0  0  0  0  0  0  0
   20.6487  -21.7285  -11.9442 O   0  0  0  0  0  0  0  0  0  0  0  0
  2  1  1  6
  2  5  1  0
  3  2  1  0
  4  3  1  0
  5 12  1  0
  5  6  2  0
  8  7  1  1
  8 10  1  0
  8  9  1  0
 11 10  1  1
 11 13  1  0
 12 11  1  0
 13 14  2  0
 16 18  1  0
 16 15  1  6
 17 16  1  0
 19 18  1  1
 19 21  1  0
 20 13  1  0
 20 19  1  0
 21 23  1  0
 22 21  2  0
M  END
$$$$
