CLL.pdb
     RDKit          3D

 23 22  0  0  1  0  0  0  0  0999 V2000
   24.7146  -19.3512  -11.2185 N   0  0  0  0  0  0  0  0  0  0  0  0
   24.7982  -20.1955  -10.0694 C   0  0  1  0  0  0  0  0  0  0  0  0
   24.5801  -21.6337  -10.4492 C   0  0  0  0  0  0  0  0  0  0  0  0
   22.7988  -21.8414  -10.7687 S   0  0  0  0  0  0  0  0  0  0  0  0
   26.0876  -19.9898   -9.3478 C   0  0  0  0  0  0  0  0  0  0  0  0
   27.1308  -19.9254  -10.0186 O   0  0  0  0  0  0  0  0  0  0  0  0
   27.7947  -19.4970   -3.4346 C   0  0  0  0  0  0  0  0  0  0  0  0
   28.2568  -19.3547   -4.8734 C   0  0  2  0  0  0  0  0  0  0  0  0
   28.8628  -17.9766   -5.0182 C   0  0  0  0  0  0  0  0  0  0  0  0
   27.0182  -19.4211   -5.7422 C   0  0  0  0  0  0  0  0  0  0  0  0
   27.3537  -19.6790   -7.1724 C   0  0  2  0  0  0  0  0  0  0  0  0
   26.1449  -19.8682   -7.9331 N   0  0  0  0  0  0  0  0  0  0  0  0
   28.2399  -20.8549   -7.3598 C   0  0  0  0  0  0  0  0  0  0  0  0
   27.7840  -22.0081   -7.1870 O   0  0  0  0  0  0  0  0  0  0  0  0
   34.0508  -22.0577   -9.4175 C   0  0  0  0  0  0  0  0  0  0  0  0
   32.7357  -22.5087   -8.8653 C   0  0  2  0  0  0  0  0  0  0  0  0
   32.1883  -23.6738   -9.7033 C   0  0  0  0  0  0  0  0  0  0  0  0
   31.7126  -21.4911   -8.5971 C   0  0  0  0  0  0  0  0  0  0  0  0
   30.4933  -21.9048   -7.8993 C   0  0  2  0  0  0  0  0  0  0  0  0
   29.5950  -20.7336   -7.7297 N   0  0  0  0  0  0  0  0  0  0  0  0
   30.6555  -22.4621   -6.5759 C   0  0  0  0  0  0  0  0  0  0  0  0
   30.6355  -23.6625   -6.2182 O   0  0  0  0  0  0  0  0  0  0  0  0
   30.8717  -21.5583   -5.4965 O   0  0  0  0  0  0  0  0  0  0  0  0
  2  1  1  6
  2  5  1  0
  3  2  1  0
  4  3  1  0
  5 12  1  0
  5  6  2  0
  8  7  1  1
  8 10  1  0
  8  9  1  0
 11 10  1  1
 11 13  1  0
 12 11  1  0
 13 14  2  0
 16 18  1  0
 16 15  1  6
 17 16  1  0
 19 18  1  1
 19 21  1  0
 20 13  1  0
 20 19  1  0
 21 23  1  0
 22 21  2  0
M  END
$$$$
