CLL.pdb
     RDKit          3D

 23 22  0  0  1  0  0  0  0  0999 V2000
   28.0524  -21.5737  -15.8746 N   0  0  0  0  0  0  0  0  0  0  0  0
   27.8331  -20.5515  -14.9012 C   0  0  1  0  0  0  0  0  0  0  0  0
   27.3337  -19.2931  -15.5547 C   0  0  0  0  0  0  0  0  0  0  0  0
   28.7410  -18.5539  -16.4442 S   0  0  0  0  0  0  0  0  0  0  0  0
   26.9215  -21.0288  -13.8211 C   0  0  0  0  0  0  0  0  0  0  0  0
   26.0457  -21.8581  -14.1174 O   0  0  0  0  0  0  0  0  0  0  0  0
   26.0190  -19.5218   -7.8779 C   0  0  0  0  0  0  0  0  0  0  0  0
   25.4412  -20.2007   -9.1065 C   0  0  2  0  0  0  0  0  0  0  0  0
   25.1741  -21.6436   -8.7408 C   0  0  0  0  0  0  0  0  0  0  0  0
   26.5172  -20.1734  -10.1717 C   0  0  0  0  0  0  0  0  0  0  0  0
   26.0471  -20.7716  -11.4545 C   0  0  2  0  0  0  0  0  0  0  0  0
   27.0333  -20.5619  -12.4836 N   0  0  0  0  0  0  0  0  0  0  0  0
   24.7426  -20.2272  -11.9073 C   0  0  0  0  0  0  0  0  0  0  0  0
   24.6538  -19.0215  -12.2330 O   0  0  0  0  0  0  0  0  0  0  0  0
   20.5079  -21.4484  -15.6060 C   0  0  0  0  0  0  0  0  0  0  0  0
   21.2762  -20.3639  -14.9194 C   0  0  2  0  0  0  0  0  0  0  0  0
   21.6329  -19.2586  -15.9246 C   0  0  0  0  0  0  0  0  0  0  0  0
   22.4239  -20.7485  -14.0893 C   0  0  0  0  0  0  0  0  0  0  0  0
   22.3281  -20.5462  -12.6420 C   0  0  2  0  0  0  0  0  0  0  0  0
   23.5774  -21.0168  -11.9899 N   0  0  0  0  0  0  0  0  0  0  0  0
   21.2541  -21.2284  -11.9571 C   0  0  0  0  0  0  0  0  0  0  0  0
   21.3102  -22.2205  -11.1941 O   0  0  0  0  0  0  0  0  0  0  0  0
   19.9297  -20.7392  -12.1450 O   0  0  0  0  0  0  0  0  0  0  0  0
  2  1  1  6
  2  5  1  0
  3  2  1  0
  4  3  1  0
  5 12  1  0
  5  6  2  0
  8  7  1  1
  8 10  1  0
  8  9  1  0
 11 10  1  1
 11 13  1  0
 12 11  1  0
 13 14  2  0
 16 18  1  0
 16 15  1  6
 17 16  1  0
 19 18  1  6
 19 21  1  0
 20 13  1  0
 20 19  1  0
 21 23  1  0
 22 21  2  0
M  END
$$$$
