ERS.pdb
     RDKit          3D

 27 26  0  0  1  0  0  0  0  0999 V2000
   25.0227  -11.5326  -15.4903 N   0  0  0  0  0  0  0  0  0  0  0  0
   25.1126  -10.7559  -16.7201 C   0  0  1  0  0  0  0  0  0  0  0  0
   25.0916  -11.7095  -17.8648 C   0  0  0  0  0  0  0  0  0  0  0  0
   24.7108  -13.1146  -17.5295 C   0  0  0  0  0  0  0  0  0  0  0  0
   24.6836  -14.0407  -18.6777 C   0  0  0  0  0  0  0  0  0  0  0  0
   23.6736  -14.7315  -18.9418 O   0  0  0  0  0  0  0  0  0  0  0  0
   24.0047   -9.7457  -16.7722 C   0  0  0  0  0  0  0  0  0  0  0  0
   23.8794   -8.9790  -17.7556 O   0  0  0  0  0  0  0  0  0  0  0  0
   25.8304  -14.1171  -19.4599 O   0  0  0  0  0  0  0  0  0  0  0  0
   16.4512  -11.8838  -13.9983 N   0  0  0  0  0  0  0  0  0  0  0  0
   16.8215  -12.2206  -15.3244 C   0  0  0  0  0  0  0  0  0  0  0  0
   16.1300  -13.0508  -16.0435 N   0  0  0  0  0  0  0  0  0  0  0  0
   17.9903  -11.6211  -15.8677 N   0  0  0  0  0  0  0  0  0  0  0  0
   18.8324  -10.7381  -15.1164 C   0  0  0  0  0  0  0  0  0  0  0  0
   19.9841  -10.1938  -15.9675 C   0  0  0  0  0  0  0  0  0  0  0  0
   20.7919   -9.2989  -15.0978 C   0  0  0  0  0  0  0  0  0  0  0  0
   21.9672   -8.6305  -15.7888 C   0  0  2  0  0  0  0  0  0  0  0  0
   23.0619   -9.6167  -15.7231 N   0  0  0  0  0  0  0  0  0  0  0  0
   22.3492   -7.3819  -15.1244 C   0  0  0  0  0  0  0  0  0  0  0  0
   22.9489   -7.3622  -14.0220 O   0  0  0  0  0  0  0  0  0  0  0  0
   16.4005  -13.2268  -17.0308 O   0  0  0  0  0  0  0  0  0  0  0  0
   23.5815   -4.0255  -16.9507 C   0  0  0  0  0  0  0  0  0  0  0  0
   22.6389   -3.7208  -15.9798 C   0  0  2  0  0  0  0  0  0  0  0  0
   22.4115   -4.8659  -15.0115 N   0  0  0  0  0  0  0  0  0  0  0  0
   22.0694   -6.0848  -15.6803 C   0  0  0  0  0  0  0  0  0  0  0  0
   21.3166   -4.5058  -14.0797 O   0  0  0  0  0  0  0  0  0  0  0  0
   21.4842   -3.4810  -13.3638 O   0  0  0  0  0  0  0  0  0  0  0  0
  2  7  1  0
  2  1  1  1
  3  2  1  0
  4  3  1  0
  5  4  1  0
  5  6  2  0
  7  8  2  0
  9  5  1  0
 10 11  1  0
 11 12  2  0
 11 13  1  0
 13 14  1  0
 14 15  1  0
 17 16  1  1
 16 15  1  0
 18 17  1  0
 18  7  1  0
 19 17  1  0
 20 19  2  0
 21 22  1  0
 23 22  1  6
 23 25  1  0
 23 24  1  0
 24 19  1  0
 25 27  1  0
 26 25  2  0
M  END
$$$$
