ERS.pdb
     RDKit          3D

 27 26  0  0  1  0  0  0  0  0999 V2000
   18.6358  -11.6633  -18.3437 N   0  0  0  0  0  0  0  0  0  0  0  0
   17.8538  -10.7374  -17.5344 C   0  0  1  0  0  0  0  0  0  0  0  0
   17.6991  -11.3347  -16.1782 C   0  0  0  0  0  0  0  0  0  0  0  0
   16.9152  -12.6049  -16.1162 C   0  0  0  0  0  0  0  0  0  0  0  0
   16.6722  -13.1179  -14.7545 C   0  0  0  0  0  0  0  0  0  0  0  0
   17.5574  -13.7290  -14.1140 O   0  0  0  0  0  0  0  0  0  0  0  0
   18.5122   -9.3895  -17.5148 C   0  0  0  0  0  0  0  0  0  0  0  0
   19.7370   -9.2687  -17.7510 O   0  0  0  0  0  0  0  0  0  0  0  0
   15.4141  -12.8953  -14.2064 O   0  0  0  0  0  0  0  0  0  0  0  0
   14.4432   -1.5843  -17.4746 N   0  0  0  0  0  0  0  0  0  0  0  0
   15.7963   -1.1843  -17.3394 C   0  0  0  0  0  0  0  0  0  0  0  0
   16.1430    0.0649  -17.2774 N   0  0  0  0  0  0  0  0  0  0  0  0
   16.7919   -2.1966  -17.2716 N   0  0  0  0  0  0  0  0  0  0  0  0
   16.4794   -3.5950  -17.2570 C   0  0  0  0  0  0  0  0  0  0  0  0
   17.7441   -4.4568  -17.1883 C   0  0  0  0  0  0  0  0  0  0  0  0
   17.3132   -5.8788  -17.2364 C   0  0  0  0  0  0  0  0  0  0  0  0
   18.4455   -6.8892  -17.1882 C   0  0  2  0  0  0  0  0  0  0  0  0
   17.7851   -8.2073  -17.2319 N   0  0  0  0  0  0  0  0  0  0  0  0
   19.2479   -6.7479  -15.9706 C   0  0  0  0  0  0  0  0  0  0  0  0
   18.8011   -7.0336  -14.8330 O   0  0  0  0  0  0  0  0  0  0  0  0
   17.1468    0.3177  -17.1918 O   0  0  0  0  0  0  0  0  0  0  0  0
   23.5832   -6.9398  -13.9376 C   0  0  0  0  0  0  0  0  0  0  0  0
   22.7118   -7.0625  -15.0099 C   0  0  1  0  0  0  0  0  0  0  0  0
   21.4341   -6.2692  -14.8137 N   0  0  0  0  0  0  0  0  0  0  0  0
   20.6059   -6.2731  -15.9816 C   0  0  0  0  0  0  0  0  0  0  0  0
   21.7778   -4.8682  -14.4733 O   0  0  0  0  0  0  0  0  0  0  0  0
   21.8615   -4.0483  -15.4281 O   0  0  0  0  0  0  0  0  0  0  0  0
  2  7  1  0
  2  1  1  6
  3  2  1  0
  4  3  1  0
  5  4  1  0
  5  6  2  0
  7  8  2  0
  9  5  1  0
 10 11  1  0
 11 12  2  0
 11 13  1  0
 13 14  1  0
 14 15  1  0
 17 16  1  1
 16 15  1  0
 18 17  1  0
 18  7  1  0
 19 17  1  0
 20 19  2  0
 21 22  1  0
 23 22  1  1
 23 25  1  0
 23 24  1  0
 24 19  1  0
 25 27  1  0
 26 25  2  0
M  END
$$$$
