ERS.pdb
     RDKit          3D

 27 26  0  0  1  0  0  0  0  0999 V2000
   25.9464  -23.1163  -16.5711 N   0  0  0  0  0  0  0  0  0  0  0  0
   24.7288  -22.3675  -16.8551 C   0  0  1  0  0  0  0  0  0  0  0  0
   24.1256  -22.9303  -18.0959 C   0  0  0  0  0  0  0  0  0  0  0  0
   23.5816  -21.9295  -19.0623 C   0  0  0  0  0  0  0  0  0  0  0  0
   22.1377  -21.6584  -18.9277 C   0  0  0  0  0  0  0  0  0  0  0  0
   21.7092  -20.6967  -18.2504 O   0  0  0  0  0  0  0  0  0  0  0  0
   23.8060  -22.4196  -15.6734 C   0  0  0  0  0  0  0  0  0  0  0  0
   23.6069  -23.4942  -15.0599 O   0  0  0  0  0  0  0  0  0  0  0  0
   21.2656  -22.5178  -19.5863 O   0  0  0  0  0  0  0  0  0  0  0  0
   24.4658  -20.9134   -8.7867 N   0  0  0  0  0  0  0  0  0  0  0  0
   24.8182  -20.9721  -10.1583 C   0  0  0  0  0  0  0  0  0  0  0  0
   25.9628  -21.4367  -10.5568 N   0  0  0  0  0  0  0  0  0  0  0  0
   23.8764  -20.5026  -11.1140 N   0  0  0  0  0  0  0  0  0  0  0  0
   22.5040  -20.2455  -10.7919 C   0  0  0  0  0  0  0  0  0  0  0  0
   21.6912  -19.8720  -12.0356 C   0  0  0  0  0  0  0  0  0  0  0  0
   22.5651  -20.0930  -13.2177 C   0  0  0  0  0  0  0  0  0  0  0  0
   22.2285  -21.3265  -14.0366 C   0  0  2  0  0  0  0  0  0  0  0  0
   23.1273  -21.2682  -15.2045 N   0  0  0  0  0  0  0  0  0  0  0  0
   20.8254  -21.3322  -14.4579 C   0  0  0  0  0  0  0  0  0  0  0  0
   20.3400  -20.4392  -15.1943 O   0  0  0  0  0  0  0  0  0  0  0  0
   26.1970  -21.4317  -11.5688 O   0  0  0  0  0  0  0  0  0  0  0  0
   18.3631  -24.7858  -14.6523 C   0  0  0  0  0  0  0  0  0  0  0  0
   17.8125  -23.6458  -14.0853 C   0  0  2  0  0  0  0  0  0  0  0  0
   18.5350  -22.3806  -14.5067 N   0  0  0  0  0  0  0  0  0  0  0  0
   19.8963  -22.3575  -14.0637 C   0  0  0  0  0  0  0  0  0  0  0  0
   17.8274  -21.2054  -13.9454 O   0  0  0  0  0  0  0  0  0  0  0  0
   18.2424  -20.7571  -12.8419 O   0  0  0  0  0  0  0  0  0  0  0  0
  2  7  1  0
  2  1  1  1
  3  2  1  0
  4  3  1  0
  5  4  1  0
  5  6  2  0
  7  8  2  0
  9  5  1  0
 10 11  1  0
 11 12  2  0
 11 13  1  0
 13 14  1  0
 14 15  1  0
 17 16  1  1
 16 15  1  0
 18 17  1  0
 18  7  1  0
 19 17  1  0
 20 19  2  0
 21 22  1  0
 23 22  1  6
 23 25  1  0
 23 24  1  0
 24 19  1  0
 25 27  1  0
 26 25  2  0
M  END
$$$$
