ERS.pdb
     RDKit          3D

 27 26  0  0  1  0  0  0  0  0999 V2000
   21.3282  -20.8992  -11.6380 N   0  0  0  0  0  0  0  0  0  0  0  0
   22.3491  -21.4418  -12.5251 C   0  0  1  0  0  0  0  0  0  0  0  0
   21.7475  -21.5834  -13.8809 C   0  0  0  0  0  0  0  0  0  0  0  0
   20.6892  -22.6294  -14.0131 C   0  0  0  0  0  0  0  0  0  0  0  0
   21.1943  -24.0082  -14.1562 C   0  0  0  0  0  0  0  0  0  0  0  0
   20.9006  -24.9050  -13.3337 O   0  0  0  0  0  0  0  0  0  0  0  0
   23.5652  -20.5634  -12.5072 C   0  0  0  0  0  0  0  0  0  0  0  0
   23.4568  -19.3149  -12.5196 O   0  0  0  0  0  0  0  0  0  0  0  0
   22.0143  -24.2747  -15.2468 O   0  0  0  0  0  0  0  0  0  0  0  0
   30.9315  -22.2420   -9.0624 N   0  0  0  0  0  0  0  0  0  0  0  0
   31.1378  -22.4329  -10.4516 C   0  0  0  0  0  0  0  0  0  0  0  0
   32.0944  -23.1807  -10.9102 N   0  0  0  0  0  0  0  0  0  0  0  0
   30.2601  -21.7766  -11.3570 N   0  0  0  0  0  0  0  0  0  0  0  0
   29.3673  -20.7305  -10.9543 C   0  0  0  0  0  0  0  0  0  0  0  0
   28.5072  -20.2394  -12.1230 C   0  0  0  0  0  0  0  0  0  0  0  0
   27.2074  -20.9567  -12.0473 C   0  0  0  0  0  0  0  0  0  0  0  0
   26.0574  -20.2677  -12.7600 C   0  0  2  0  0  0  0  0  0  0  0  0
   24.8749  -21.1018  -12.4751 N   0  0  0  0  0  0  0  0  0  0  0  0
   26.2925  -20.1714  -14.2029 C   0  0  0  0  0  0  0  0  0  0  0  0
   26.2462  -21.1709  -14.9606 O   0  0  0  0  0  0  0  0  0  0  0  0
   32.2320  -23.2704  -11.9358 O   0  0  0  0  0  0  0  0  0  0  0  0
   26.9337  -16.4797  -15.6978 C   0  0  0  0  0  0  0  0  0  0  0  0
   26.6825  -17.3583  -16.7414 C   0  0  1  0  0  0  0  0  0  0  0  0
   26.6558  -18.8056  -16.2885 N   0  0  0  0  0  0  0  0  0  0  0  0
   26.5932  -18.9292  -14.8634 C   0  0  0  0  0  0  0  0  0  0  0  0
   27.8756  -19.4915  -16.7768 O   0  0  0  0  0  0  0  0  0  0  0  0
   28.6581  -19.9623  -15.9069 O   0  0  0  0  0  0  0  0  0  0  0  0
  2  7  1  0
  2  1  1  1
  3  2  1  0
  4  3  1  0
  5  4  1  0
  5  6  2  0
  7  8  2  0
  9  5  1  0
 10 11  1  0
 11 12  2  0
 11 13  1  0
 13 14  1  0
 14 15  1  0
 17 16  1  1
 16 15  1  0
 18 17  1  0
 18  7  1  0
 19 17  1  0
 20 19  2  0
 21 22  1  0
 23 22  1  6
 23 25  1  0
 23 24  1  0
 24 19  1  0
 25 27  1  0
 26 25  2  0
M  END
$$$$
