ERS.pdb
     RDKit          3D

 27 26  0  0  1  0  0  0  0  0999 V2000
   24.4221  -20.1827   -8.6746 N   0  0  0  0  0  0  0  0  0  0  0  0
   24.1099  -21.0100   -9.8329 C   0  0  1  0  0  0  0  0  0  0  0  0
   22.6367  -21.2323   -9.8515 C   0  0  0  0  0  0  0  0  0  0  0  0
   21.7961  -19.9975   -9.8648 C   0  0  0  0  0  0  0  0  0  0  0  0
   21.1221  -19.7196  -11.1474 C   0  0  0  0  0  0  0  0  0  0  0  0
   21.2931  -20.4473  -12.1516 O   0  0  0  0  0  0  0  0  0  0  0  0
   24.6251  -20.3597  -11.0828 C   0  0  0  0  0  0  0  0  0  0  0  0
   24.9441  -19.1478  -11.0926 O   0  0  0  0  0  0  0  0  0  0  0  0
   20.2843  -18.6113  -11.1982 O   0  0  0  0  0  0  0  0  0  0  0  0
   28.3976  -23.6557  -17.7514 N   0  0  0  0  0  0  0  0  0  0  0  0
   28.8979  -22.3409  -17.9250 C   0  0  0  0  0  0  0  0  0  0  0  0
   29.4121  -21.9416  -19.0478 N   0  0  0  0  0  0  0  0  0  0  0  0
   28.8266  -21.4447  -16.8239 N   0  0  0  0  0  0  0  0  0  0  0  0
   28.1841  -21.7809  -15.5879 C   0  0  0  0  0  0  0  0  0  0  0  0
   26.9449  -20.9149  -15.3403 C   0  0  0  0  0  0  0  0  0  0  0  0
   26.4145  -21.2754  -13.9992 C   0  0  0  0  0  0  0  0  0  0  0  0
   25.2487  -20.4255  -13.5260 C   0  0  2  0  0  0  0  0  0  0  0  0
   24.7723  -21.0803  -12.2934 N   0  0  0  0  0  0  0  0  0  0  0  0
   24.1819  -20.3609  -14.5282 C   0  0  0  0  0  0  0  0  0  0  0  0
   23.3949  -21.3162  -14.7361 O   0  0  0  0  0  0  0  0  0  0  0  0
   29.6863  -20.9466  -19.1643 O   0  0  0  0  0  0  0  0  0  0  0  0
   22.0270  -17.0933  -15.3617 C   0  0  0  0  0  0  0  0  0  0  0  0
   22.4102  -17.7165  -16.5403 C   0  0  2  0  0  0  0  0  0  0  0  0
   22.8970  -19.1352  -16.3153 N   0  0  0  0  0  0  0  0  0  0  0  0
   23.9519  -19.2024  -15.3497 C   0  0  0  0  0  0  0  0  0  0  0  0
   23.3851  -19.6922  -17.5992 O   0  0  0  0  0  0  0  0  0  0  0  0
   24.6338  -19.7266  -17.7736 O   0  0  0  0  0  0  0  0  0  0  0  0
  2  7  1  0
  2  1  1  1
  3  2  1  0
  4  3  1  0
  5  4  1  0
  5  6  2  0
  7  8  2  0
  9  5  1  0
 10 11  1  0
 11 12  2  0
 11 13  1  0
 13 14  1  0
 14 15  1  0
 17 16  1  6
 16 15  1  0
 18 17  1  0
 18  7  1  0
 19 17  1  0
 20 19  2  0
 21 22  1  0
 23 22  1  1
 23 25  1  0
 23 24  1  0
 24 19  1  0
 25 27  1  0
 26 25  2  0
M  END
$$$$
