ERS.pdb
     RDKit          3D

 27 26  0  0  1  0  0  0  0  0999 V2000
   18.7545  -24.3838   -6.6810 N   0  0  0  0  0  0  0  0  0  0  0  0
   17.3644  -24.8092   -6.5792 C   0  0  1  0  0  0  0  0  0  0  0  0
   17.2746  -26.2039   -7.0959 C   0  0  0  0  0  0  0  0  0  0  0  0
   15.9109  -26.8135   -7.0791 C   0  0  0  0  0  0  0  0  0  0  0  0
   15.8726  -28.2561   -7.3857 C   0  0  0  0  0  0  0  0  0  0  0  0
   15.4346  -29.0921   -6.5633 O   0  0  0  0  0  0  0  0  0  0  0  0
   16.8872  -24.6717   -5.1636 C   0  0  0  0  0  0  0  0  0  0  0  0
   17.6490  -24.9239   -4.2008 O   0  0  0  0  0  0  0  0  0  0  0  0
   16.3448  -28.6539   -8.6313 O   0  0  0  0  0  0  0  0  0  0  0  0
   11.8804  -19.4947   -2.5263 N   0  0  0  0  0  0  0  0  0  0  0  0
   11.7158  -19.3852   -3.9299 C   0  0  0  0  0  0  0  0  0  0  0  0
   11.5423  -18.2405   -4.5164 N   0  0  0  0  0  0  0  0  0  0  0  0
   11.7437  -20.5771   -4.7040 N   0  0  0  0  0  0  0  0  0  0  0  0
   12.0242  -21.8643   -4.1401 C   0  0  0  0  0  0  0  0  0  0  0  0
   13.5301  -22.1378   -4.0753 C   0  0  0  0  0  0  0  0  0  0  0  0
   13.7060  -23.5265   -3.5746 C   0  0  0  0  0  0  0  0  0  0  0  0
   15.1489  -23.9872   -3.4688 C   0  0  2  0  0  0  0  0  0  0  0  0
   15.5687  -24.2548   -4.8571 N   0  0  0  0  0  0  0  0  0  0  0  0
   15.2753  -25.1915   -2.6442 C   0  0  0  0  0  0  0  0  0  0  0  0
   15.0151  -26.3382   -3.0832 O   0  0  0  0  0  0  0  0  0  0  0  0
   11.4872  -18.1953   -5.5527 O   0  0  0  0  0  0  0  0  0  0  0  0
   16.8490  -24.8902    1.1841 C   0  0  0  0  0  0  0  0  0  0  0  0
   16.8853  -26.1599    0.6266 C   0  0  1  0  0  0  0  0  0  0  0  0
   15.8624  -26.3380   -0.4791 N   0  0  0  0  0  0  0  0  0  0  0  0
   15.7062  -25.1562   -1.2720 C   0  0  0  0  0  0  0  0  0  0  0  0
   14.5535  -26.6907    0.1203 O   0  0  0  0  0  0  0  0  0  0  0  0
   14.4517  -27.8310    0.6495 O   0  0  0  0  0  0  0  0  0  0  0  0
  2  7  1  0
  2  1  1  1
  3  2  1  0
  4  3  1  0
  5  4  1  0
  5  6  2  0
  7  8  2  0
  9  5  1  0
 10 11  1  0
 11 12  2  0
 11 13  1  0
 13 14  1  0
 14 15  1  0
 17 16  1  6
 16 15  1  0
 18 17  1  0
 18  7  1  0
 19 17  1  0
 20 19  2  0
 21 22  1  0
 23 22  1  6
 23 25  1  0
 23 24  1  0
 24 19  1  0
 25 27  1  0
 26 25  2  0
M  END
$$$$
