ERS.pdb
     RDKit          3D

 27 26  0  0  1  0  0  0  0  0999 V2000
   18.2509  -12.2866  -15.6904 N   0  0  0  0  0  0  0  0  0  0  0  0
   18.8984  -11.2561  -16.4921 C   0  0  1  0  0  0  0  0  0  0  0  0
   17.8346  -10.3689  -17.0409 C   0  0  0  0  0  0  0  0  0  0  0  0
   16.9029  -11.0051  -18.0201 C   0  0  0  0  0  0  0  0  0  0  0  0
   15.9079  -10.0915  -18.6133 C   0  0  0  0  0  0  0  0  0  0  0  0
   16.2405   -9.1823  -19.4071 O   0  0  0  0  0  0  0  0  0  0  0  0
   19.9114  -10.5218  -15.6643 C   0  0  0  0  0  0  0  0  0  0  0  0
   19.6639  -10.2050  -14.4772 O   0  0  0  0  0  0  0  0  0  0  0  0
   14.5781  -10.2803  -18.2544 O   0  0  0  0  0  0  0  0  0  0  0  0
   28.2031  -11.5099  -16.6463 N   0  0  0  0  0  0  0  0  0  0  0  0
   26.9120  -11.5517  -17.2298 C   0  0  0  0  0  0  0  0  0  0  0  0
   26.6374  -12.3160  -18.2422 N   0  0  0  0  0  0  0  0  0  0  0  0
   25.8981  -10.7233  -16.6762 N   0  0  0  0  0  0  0  0  0  0  0  0
   25.8873  -10.3212  -15.3008 C   0  0  0  0  0  0  0  0  0  0  0  0
   24.6595   -9.4665  -14.9707 C   0  0  0  0  0  0  0  0  0  0  0  0
   23.4945  -10.0815  -15.6595 C   0  0  0  0  0  0  0  0  0  0  0  0
   22.1601   -9.4178  -15.3694 C   0  0  2  0  0  0  0  0  0  0  0  0
   21.1784  -10.1590  -16.1831 N   0  0  0  0  0  0  0  0  0  0  0  0
   22.1703   -7.9978  -15.7295 C   0  0  0  0  0  0  0  0  0  0  0  0
   22.2687   -7.6053  -16.9176 O   0  0  0  0  0  0  0  0  0  0  0  0
   25.6927  -12.2817  -18.6728 O   0  0  0  0  0  0  0  0  0  0  0  0
   20.5336   -3.7409  -15.6982 C   0  0  0  0  0  0  0  0  0  0  0  0
   20.5944   -5.0887  -15.3756 C   0  0  1  0  0  0  0  0  0  0  0  0
   22.0121   -5.5599  -15.1141 N   0  0  0  0  0  0  0  0  0  0  0  0
   22.0682   -6.9446  -14.7547 C   0  0  0  0  0  0  0  0  0  0  0  0
   22.5985   -4.7547  -14.0165 O   0  0  0  0  0  0  0  0  0  0  0  0
   22.5552   -5.2465  -12.8559 O   0  0  0  0  0  0  0  0  0  0  0  0
  2  7  1  0
  2  1  1  1
  3  2  1  0
  4  3  1  0
  5  4  1  0
  5  6  2  0
  7  8  2  0
  9  5  1  0
 10 11  1  0
 11 12  2  0
 11 13  1  0
 13 14  1  0
 14 15  1  0
 17 16  1  6
 16 15  1  0
 18 17  1  0
 18  7  1  0
 19 17  1  0
 20 19  2  0
 21 22  1  0
 23 22  1  6
 23 25  1  0
 23 24  1  0
 24 19  1  0
 25 27  1  0
 26 25  2  0
M  END
$$$$
