ERS.pdb
     RDKit          3D

 27 26  0  0  1  0  0  0  0  0999 V2000
   26.7246  -18.9007  -18.5897 N   0  0  0  0  0  0  0  0  0  0  0  0
   25.4062  -18.2923  -18.4655 C   0  0  1  0  0  0  0  0  0  0  0  0
   24.8573  -18.1080  -19.8384 C   0  0  0  0  0  0  0  0  0  0  0  0
   25.5581  -17.0962  -20.6850 C   0  0  0  0  0  0  0  0  0  0  0  0
   26.5808  -17.6488  -21.5934 C   0  0  0  0  0  0  0  0  0  0  0  0
   26.3115  -18.5558  -22.4132 O   0  0  0  0  0  0  0  0  0  0  0  0
   24.5309  -19.1372  -17.5877 C   0  0  0  0  0  0  0  0  0  0  0  0
   24.4451  -20.3748  -17.7654 O   0  0  0  0  0  0  0  0  0  0  0  0
   27.8634  -17.1201  -21.5034 O   0  0  0  0  0  0  0  0  0  0  0  0
   25.0357  -21.1225  -10.0459 N   0  0  0  0  0  0  0  0  0  0  0  0
   23.6356  -20.9706   -9.8849 C   0  0  0  0  0  0  0  0  0  0  0  0
   23.0375  -21.2379   -8.7645 N   0  0  0  0  0  0  0  0  0  0  0  0
   22.8782  -20.5103  -10.9962 N   0  0  0  0  0  0  0  0  0  0  0  0
   23.4721  -19.8585  -12.1258 C   0  0  0  0  0  0  0  0  0  0  0  0
   22.4140  -19.3896  -13.1295 C   0  0  0  0  0  0  0  0  0  0  0  0
   23.1306  -18.7211  -14.2473 C   0  0  0  0  0  0  0  0  0  0  0  0
   23.0239  -19.4292  -15.5862 C   0  0  2  0  0  0  0  0  0  0  0  0
   23.7717  -18.5783  -16.5306 N   0  0  0  0  0  0  0  0  0  0  0  0
   21.6299  -19.5800  -16.0110 C   0  0  0  0  0  0  0  0  0  0  0  0
   20.8846  -18.5956  -16.2362 O   0  0  0  0  0  0  0  0  0  0  0  0
   22.0172  -21.0674   -8.6713 O   0  0  0  0  0  0  0  0  0  0  0  0
   17.8141  -22.4691  -15.3511 C   0  0  0  0  0  0  0  0  0  0  0  0
   19.1824  -22.2428  -15.3277 C   0  0  2  0  0  0  0  0  0  0  0  0
   19.5878  -21.0470  -16.1681 N   0  0  0  0  0  0  0  0  0  0  0  0
   21.0072  -20.8625  -16.2038 C   0  0  0  0  0  0  0  0  0  0  0  0
   18.9586  -19.8253  -15.6126 O   0  0  0  0  0  0  0  0  0  0  0  0
   19.5160  -19.2946  -14.6134 O   0  0  0  0  0  0  0  0  0  0  0  0
  2  7  1  0
  2  1  1  6
  3  2  1  0
  4  3  1  0
  5  4  1  0
  5  6  2  0
  7  8  2  0
  9  5  1  0
 10 11  1  0
 11 12  2  0
 11 13  1  0
 13 14  1  0
 14 15  1  0
 17 16  1  1
 16 15  1  0
 18 17  1  0
 18  7  1  0
 19 17  1  0
 20 19  2  0
 21 22  1  0
 23 22  1  6
 23 25  1  0
 23 24  1  0
 24 19  1  0
 25 27  1  0
 26 25  2  0
M  END
$$$$
