ERS.pdb
     RDKit          3D

 27 26  0  0  1  0  0  0  0  0999 V2000
   18.5211  -13.4069  -18.4014 N   0  0  0  0  0  0  0  0  0  0  0  0
   18.7304  -11.9657  -18.3489 C   0  0  1  0  0  0  0  0  0  0  0  0
   17.3927  -11.3095  -18.3583 C   0  0  0  0  0  0  0  0  0  0  0  0
   16.7538  -11.1618  -19.7005 C   0  0  0  0  0  0  0  0  0  0  0  0
   15.9561  -12.3229  -20.1390 C   0  0  0  0  0  0  0  0  0  0  0  0
   15.3515  -12.3294  -21.2351 O   0  0  0  0  0  0  0  0  0  0  0  0
   19.5548  -11.6094  -17.1472 C   0  0  0  0  0  0  0  0  0  0  0  0
   19.4072  -12.2193  -16.0623 O   0  0  0  0  0  0  0  0  0  0  0  0
   15.9014  -13.4164  -19.2823 O   0  0  0  0  0  0  0  0  0  0  0  0
   26.7494  -11.4560  -17.7782 N   0  0  0  0  0  0  0  0  0  0  0  0
   26.8909  -11.4395  -16.3680 C   0  0  0  0  0  0  0  0  0  0  0  0
   27.6950  -12.2467  -15.7463 N   0  0  0  0  0  0  0  0  0  0  0  0
   26.1196  -10.5033  -15.6269 N   0  0  0  0  0  0  0  0  0  0  0  0
   25.1316   -9.6587  -16.2304 C   0  0  0  0  0  0  0  0  0  0  0  0
   23.7822   -9.7643  -15.5129 C   0  0  0  0  0  0  0  0  0  0  0  0
   22.7668  -10.1354  -16.5333 C   0  0  0  0  0  0  0  0  0  0  0  0
   21.3473  -10.2497  -16.0068 C   0  0  2  0  0  0  0  0  0  0  0  0
   20.5262  -10.5793  -17.1868 N   0  0  0  0  0  0  0  0  0  0  0  0
   20.8951   -9.0006  -15.3890 C   0  0  0  0  0  0  0  0  0  0  0  0
   20.8023   -7.9267  -16.0320 O   0  0  0  0  0  0  0  0  0  0  0  0
   27.7372  -12.2342  -14.7086 O   0  0  0  0  0  0  0  0  0  0  0  0
   18.9438   -6.7079  -11.5161 C   0  0  0  0  0  0  0  0  0  0  0  0
   19.3900   -7.8940  -12.0801 C   0  0  2  0  0  0  0  0  0  0  0  0
   20.1191   -7.6752  -13.3919 N   0  0  0  0  0  0  0  0  0  0  0  0
   20.5225   -8.9057  -14.0027 C   0  0  0  0  0  0  0  0  0  0  0  0
   21.3214   -6.8433  -13.1483 O   0  0  0  0  0  0  0  0  0  0  0  0
   22.4095   -7.4492  -12.9497 O   0  0  0  0  0  0  0  0  0  0  0  0
  2  7  1  0
  2  1  1  1
  3  2  1  0
  4  3  1  0
  5  4  1  0
  5  6  2  0
  7  8  2  0
  9  5  1  0
 10 11  1  0
 11 12  2  0
 11 13  1  0
 13 14  1  0
 14 15  1  0
 17 16  1  6
 16 15  1  0
 18 17  1  0
 18  7  1  0
 19 17  1  0
 20 19  2  0
 21 22  1  0
 23 22  1  6
 23 25  1  0
 23 24  1  0
 24 19  1  0
 25 27  1  0
 26 25  2  0
M  END
$$$$
