ERS.pdb
     RDKit          3D

 27 26  0  0  1  0  0  0  0  0999 V2000
   22.1289  -20.0775  -16.6414 N   0  0  0  0  0  0  0  0  0  0  0  0
   21.7935  -18.7241  -16.2179 C   0  0  1  0  0  0  0  0  0  0  0  0
   21.0272  -18.8211  -14.9437 C   0  0  0  0  0  0  0  0  0  0  0  0
   20.4896  -20.1752  -14.6135 C   0  0  0  0  0  0  0  0  0  0  0  0
   19.6795  -20.2376  -13.3821 C   0  0  0  0  0  0  0  0  0  0  0  0
   18.4717  -19.9087  -13.3718 O   0  0  0  0  0  0  0  0  0  0  0  0
   23.0409  -17.8997  -16.0958 C   0  0  0  0  0  0  0  0  0  0  0  0
   22.9874  -16.7031  -15.7268 O   0  0  0  0  0  0  0  0  0  0  0  0
   20.3134  -20.6786  -12.2260 O   0  0  0  0  0  0  0  0  0  0  0  0
   27.0834  -21.6260  -11.6670 N   0  0  0  0  0  0  0  0  0  0  0  0
   26.3971  -21.6040  -12.9070 C   0  0  0  0  0  0  0  0  0  0  0  0
   25.9435  -22.6855  -13.4632 N   0  0  0  0  0  0  0  0  0  0  0  0
   26.2089  -20.3493  -13.5480 N   0  0  0  0  0  0  0  0  0  0  0  0
   26.6877  -19.1156  -12.9982 C   0  0  0  0  0  0  0  0  0  0  0  0
   26.3173  -17.9205  -13.8821 C   0  0  0  0  0  0  0  0  0  0  0  0
   26.4286  -18.3653  -15.2963 C   0  0  0  0  0  0  0  0  0  0  0  0
   25.5408  -17.6135  -16.2720 C   0  0  2  0  0  0  0  0  0  0  0  0
   24.3200  -18.4327  -16.3889 N   0  0  0  0  0  0  0  0  0  0  0  0
   26.1858  -17.4491  -17.5771 C   0  0  0  0  0  0  0  0  0  0  0  0
   26.5586  -18.4259  -18.2715 O   0  0  0  0  0  0  0  0  0  0  0  0
   25.4792  -22.6324  -14.3908 O   0  0  0  0  0  0  0  0  0  0  0  0
   27.0687  -13.6109  -19.1486 C   0  0  0  0  0  0  0  0  0  0  0  0
   26.7583  -14.6229  -20.0451 C   0  0  1  0  0  0  0  0  0  0  0  0
   27.0073  -16.0043  -19.4704 N   0  0  0  0  0  0  0  0  0  0  0  0
   26.4416  -16.1610  -18.1645 C   0  0  0  0  0  0  0  0  0  0  0  0
   28.4680  -16.2437  -19.3929 O   0  0  0  0  0  0  0  0  0  0  0  0
   28.9849  -16.2786  -18.2429 O   0  0  0  0  0  0  0  0  0  0  0  0
  2  7  1  0
  2  1  1  1
  3  2  1  0
  4  3  1  0
  5  4  1  0
  5  6  2  0
  7  8  2  0
  9  5  1  0
 10 11  1  0
 11 12  2  0
 11 13  1  0
 13 14  1  0
 14 15  1  0
 17 16  1  1
 16 15  1  0
 18 17  1  0
 18  7  1  0
 19 17  1  0
 20 19  2  0
 21 22  1  0
 23 22  1  6
 23 25  1  0
 23 24  1  0
 24 19  1  0
 25 27  1  0
 26 25  2  0
M  END
$$$$
