ERS.pdb
     RDKit          3D

 27 26  0  0  1  0  0  0  0  0999 V2000
   24.6056  -23.5947  -13.6377 N   0  0  0  0  0  0  0  0  0  0  0  0
   24.1727  -22.2737  -14.0750 C   0  0  1  0  0  0  0  0  0  0  0  0
   24.9233  -21.9350  -15.3167 C   0  0  0  0  0  0  0  0  0  0  0  0
   26.4015  -21.7872  -15.1591 C   0  0  0  0  0  0  0  0  0  0  0  0
   27.1182  -21.3808  -16.3830 C   0  0  0  0  0  0  0  0  0  0  0  0
   27.6670  -22.2195  -17.1331 O   0  0  0  0  0  0  0  0  0  0  0  0
   22.6842  -22.2561  -14.2610 C   0  0  0  0  0  0  0  0  0  0  0  0
   22.0954  -23.2075  -14.8258 O   0  0  0  0  0  0  0  0  0  0  0  0
   27.1609  -20.0218  -16.6730 O   0  0  0  0  0  0  0  0  0  0  0  0
   18.3747  -25.6763  -10.4961 N   0  0  0  0  0  0  0  0  0  0  0  0
   18.0562  -24.4873   -9.7934 C   0  0  0  0  0  0  0  0  0  0  0  0
   17.4333  -24.5052   -8.6549 N   0  0  0  0  0  0  0  0  0  0  0  0
   18.4381  -23.2448  -10.3687 N   0  0  0  0  0  0  0  0  0  0  0  0
   19.2913  -23.1486  -11.5160 C   0  0  0  0  0  0  0  0  0  0  0  0
   18.7410  -22.1604  -12.5493 C   0  0  0  0  0  0  0  0  0  0  0  0
   19.7681  -21.1028  -12.7403 C   0  0  0  0  0  0  0  0  0  0  0  0
   20.4434  -21.1092  -14.1002 C   0  0  2  0  0  0  0  0  0  0  0  0
   21.8880  -21.1746  -13.8106 N   0  0  0  0  0  0  0  0  0  0  0  0
   20.1201  -19.9069  -14.8726 C   0  0  0  0  0  0  0  0  0  0  0  0
   20.7483  -18.8291  -14.7347 O   0  0  0  0  0  0  0  0  0  0  0  0
   17.1894  -23.6107   -8.1866 O   0  0  0  0  0  0  0  0  0  0  0  0
   19.1890  -19.6233  -18.7852 C   0  0  0  0  0  0  0  0  0  0  0  0
   18.2299  -19.0156  -17.9882 C   0  0  2  0  0  0  0  0  0  0  0  0
   18.7492  -18.6900  -16.6009 N   0  0  0  0  0  0  0  0  0  0  0  0
   19.0620  -19.8661  -15.8466 C   0  0  0  0  0  0  0  0  0  0  0  0
   17.7249  -17.9082  -15.8684 O   0  0  0  0  0  0  0  0  0  0  0  0
   17.1376  -18.4832  -14.9117 O   0  0  0  0  0  0  0  0  0  0  0  0
  2  7  1  0
  2  1  1  6
  3  2  1  0
  4  3  1  0
  5  4  1  0
  5  6  2  0
  7  8  2  0
  9  5  1  0
 10 11  1  0
 11 12  2  0
 11 13  1  0
 13 14  1  0
 14 15  1  0
 17 16  1  1
 16 15  1  0
 18 17  1  0
 18  7  1  0
 19 17  1  0
 20 19  2  0
 21 22  1  0
 23 22  1  6
 23 25  1  0
 23 24  1  0
 24 19  1  0
 25 27  1  0
 26 25  2  0
M  END
$$$$
