ERS.pdb
     RDKit          3D

 27 26  0  0  1  0  0  0  0  0999 V2000
   24.8291  -16.3553  -16.3228 N   0  0  0  0  0  0  0  0  0  0  0  0
   23.9314  -17.1311  -17.1688 C   0  0  1  0  0  0  0  0  0  0  0  0
   24.6058  -17.3378  -18.4813 C   0  0  0  0  0  0  0  0  0  0  0  0
   26.0271  -16.8842  -18.5569 C   0  0  0  0  0  0  0  0  0  0  0  0
   27.0293  -17.9458  -18.3438 C   0  0  0  0  0  0  0  0  0  0  0  0
   27.0725  -18.9649  -19.0695 O   0  0  0  0  0  0  0  0  0  0  0  0
   23.5624  -18.4147  -16.4855 C   0  0  0  0  0  0  0  0  0  0  0  0
   22.7103  -19.1868  -16.9842 O   0  0  0  0  0  0  0  0  0  0  0  0
   27.9295  -17.7695  -17.2992 O   0  0  0  0  0  0  0  0  0  0  0  0
   28.2435  -21.3867  -10.2936 N   0  0  0  0  0  0  0  0  0  0  0  0
   26.9542  -21.0440   -9.8147 C   0  0  0  0  0  0  0  0  0  0  0  0
   26.7493  -20.6814   -8.5854 N   0  0  0  0  0  0  0  0  0  0  0  0
   25.8626  -21.1055  -10.7230 N   0  0  0  0  0  0  0  0  0  0  0  0
   25.9276  -21.8072  -11.9707 C   0  0  0  0  0  0  0  0  0  0  0  0
   24.6606  -21.5962  -12.8055 C   0  0  0  0  0  0  0  0  0  0  0  0
   24.8622  -20.3633  -13.6112 C   0  0  0  0  0  0  0  0  0  0  0  0
   23.7149  -20.0171  -14.5435 C   0  0  2  0  0  0  0  0  0  0  0  0
   24.1554  -18.8057  -15.2601 N   0  0  0  0  0  0  0  0  0  0  0  0
   22.4738  -19.7653  -13.8070 C   0  0  0  0  0  0  0  0  0  0  0  0
   22.2528  -18.6834  -13.2104 O   0  0  0  0  0  0  0  0  0  0  0  0
   25.7971  -20.3964   -8.2839 O   0  0  0  0  0  0  0  0  0  0  0  0
   18.1636  -19.0918  -14.2083 C   0  0  0  0  0  0  0  0  0  0  0  0
   19.4622  -19.4816  -14.5012 C   0  0  2  0  0  0  0  0  0  0  0  0
   20.0580  -20.3707  -13.4266 N   0  0  0  0  0  0  0  0  0  0  0  0
   21.4139  -20.7333  -13.7096 C   0  0  0  0  0  0  0  0  0  0  0  0
   19.2455  -21.6047  -13.3093 O   0  0  0  0  0  0  0  0  0  0  0  0
   19.6404  -22.6166  -13.9504 O   0  0  0  0  0  0  0  0  0  0  0  0
  2  7  1  0
  2  1  1  1
  3  2  1  0
  4  3  1  0
  5  4  1  0
  5  6  2  0
  7  8  2  0
  9  5  1  0
 10 11  1  0
 11 12  2  0
 11 13  1  0
 13 14  1  0
 14 15  1  0
 17 16  1  1
 16 15  1  0
 18 17  1  0
 18  7  1  0
 19 17  1  0
 20 19  2  0
 21 22  1  0
 23 22  1  1
 23 25  1  0
 23 24  1  0
 24 19  1  0
 25 27  1  0
 26 25  2  0
M  END
$$$$
