ERS.pdb
     RDKit          3D

 27 26  0  0  1  0  0  0  0  0999 V2000
   16.3430  -14.0266  -18.0017 N   0  0  0  0  0  0  0  0  0  0  0  0
   15.6989  -12.7991  -18.4512 C   0  0  1  0  0  0  0  0  0  0  0  0
   14.2731  -13.1139  -18.7479 C   0  0  0  0  0  0  0  0  0  0  0  0
   14.0166  -14.4655  -19.3301 C   0  0  0  0  0  0  0  0  0  0  0  0
   12.6094  -14.7312  -19.6849 C   0  0  0  0  0  0  0  0  0  0  0  0
   12.1545  -14.4601  -20.8193 O   0  0  0  0  0  0  0  0  0  0  0  0
   15.8639  -11.7239  -17.4180 C   0  0  0  0  0  0  0  0  0  0  0  0
   15.2810  -11.8008  -16.3112 O   0  0  0  0  0  0  0  0  0  0  0  0
   11.8028  -15.2979  -18.7046 O   0  0  0  0  0  0  0  0  0  0  0  0
   23.1362   -9.1622  -14.2502 N   0  0  0  0  0  0  0  0  0  0  0  0
   22.3485   -8.0751  -13.7955 C   0  0  0  0  0  0  0  0  0  0  0  0
   22.8465   -7.1163  -13.0763 N   0  0  0  0  0  0  0  0  0  0  0  0
   20.9714   -8.0508  -14.1469 N   0  0  0  0  0  0  0  0  0  0  0  0
   20.4064   -8.9172  -15.1387 C   0  0  0  0  0  0  0  0  0  0  0  0
   18.9072   -8.6631  -15.3245 C   0  0  0  0  0  0  0  0  0  0  0  0
   18.4119   -9.6487  -16.3211 C   0  0  0  0  0  0  0  0  0  0  0  0
   16.9186   -9.5879  -16.5888 C   0  0  2  0  0  0  0  0  0  0  0  0
   16.6777  -10.5874  -17.6463 N   0  0  0  0  0  0  0  0  0  0  0  0
   16.4992   -8.2541  -17.0264 C   0  0  0  0  0  0  0  0  0  0  0  0
   16.7060   -7.8314  -18.1900 O   0  0  0  0  0  0  0  0  0  0  0  0
   22.2378   -6.3326  -12.7693 O   0  0  0  0  0  0  0  0  0  0  0  0
   13.7720   -4.2789  -16.3248 C   0  0  0  0  0  0  0  0  0  0  0  0
   14.1639   -5.5400  -15.9003 C   0  0  2  0  0  0  0  0  0  0  0  0
   15.4308   -6.0156  -16.5852 N   0  0  0  0  0  0  0  0  0  0  0  0
   15.8196   -7.3268  -16.1615 C   0  0  0  0  0  0  0  0  0  0  0  0
   16.5311   -5.0685  -16.2864 O   0  0  0  0  0  0  0  0  0  0  0  0
   17.1823   -5.2601  -15.2234 O   0  0  0  0  0  0  0  0  0  0  0  0
  2  7  1  0
  2  1  1  1
  3  2  1  0
  4  3  1  0
  5  4  1  0
  5  6  2  0
  7  8  2  0
  9  5  1  0
 10 11  1  0
 11 12  2  0
 11 13  1  0
 13 14  1  0
 14 15  1  0
 17 16  1  6
 16 15  1  0
 18 17  1  0
 18  7  1  0
 19 17  1  0
 20 19  2  0
 21 22  1  0
 23 22  1  6
 23 25  1  0
 23 24  1  0
 24 19  1  0
 25 27  1  0
 26 25  2  0
M  END
$$$$
