ERS.pdb
     RDKit          3D

 27 26  0  0  1  0  0  0  0  0999 V2000
   28.3659  -20.2812  -17.1764 N   0  0  0  0  0  0  0  0  0  0  0  0
   27.6406  -21.4558  -17.6432 C   0  0  1  0  0  0  0  0  0  0  0  0
   28.6419  -22.5057  -17.9827 C   0  0  0  0  0  0  0  0  0  0  0  0
   30.0581  -22.0409  -18.0824 C   0  0  0  0  0  0  0  0  0  0  0  0
   30.6902  -22.2556  -19.3981 C   0  0  0  0  0  0  0  0  0  0  0  0
   30.2877  -21.6644  -20.4256 O   0  0  0  0  0  0  0  0  0  0  0  0
   26.6521  -21.8960  -16.6040 C   0  0  0  0  0  0  0  0  0  0  0  0
   25.9110  -22.8873  -16.8006 O   0  0  0  0  0  0  0  0  0  0  0  0
   31.7569  -23.1454  -19.4533 O   0  0  0  0  0  0  0  0  0  0  0  0
   23.1258  -20.3606  -10.2763 N   0  0  0  0  0  0  0  0  0  0  0  0
   23.8802  -20.9028   -9.2058 C   0  0  0  0  0  0  0  0  0  0  0  0
   23.3402  -21.2017   -8.0640 N   0  0  0  0  0  0  0  0  0  0  0  0
   25.2707  -21.1190   -9.4064 N   0  0  0  0  0  0  0  0  0  0  0  0
   25.9408  -20.7878  -10.6290 C   0  0  0  0  0  0  0  0  0  0  0  0
   25.2615  -21.4350  -11.8400 C   0  0  0  0  0  0  0  0  0  0  0  0
   26.0941  -21.1251  -13.0319 C   0  0  0  0  0  0  0  0  0  0  0  0
   25.5566  -21.6698  -14.3432 C   0  0  2  0  0  0  0  0  0  0  0  0
   26.5157  -21.2175  -15.3682 N   0  0  0  0  0  0  0  0  0  0  0  0
   24.2109  -21.1662  -14.6295 C   0  0  0  0  0  0  0  0  0  0  0  0
   23.9567  -19.9407  -14.7232 O   0  0  0  0  0  0  0  0  0  0  0  0
   23.9141  -21.6520   -7.3245 O   0  0  0  0  0  0  0  0  0  0  0  0
   19.6636  -22.1641  -16.1773 C   0  0  0  0  0  0  0  0  0  0  0  0
   20.9285  -22.6231  -15.8401 C   0  0  1  0  0  0  0  0  0  0  0  0
   21.7887  -21.5445  -15.2100 N   0  0  0  0  0  0  0  0  0  0  0  0
   23.0789  -22.0321  -14.8257 C   0  0  0  0  0  0  0  0  0  0  0  0
   21.1003  -21.0109  -14.0107 O   0  0  0  0  0  0  0  0  0  0  0  0
   21.3025  -21.6078  -12.9181 O   0  0  0  0  0  0  0  0  0  0  0  0
  2  7  1  0
  2  1  1  1
  3  2  1  0
  4  3  1  0
  5  4  1  0
  5  6  2  0
  7  8  2  0
  9  5  1  0
 10 11  1  0
 11 12  2  0
 11 13  1  0
 13 14  1  0
 14 15  1  0
 17 16  1  1
 16 15  1  0
 18 17  1  0
 18  7  1  0
 19 17  1  0
 20 19  2  0
 21 22  1  0
 23 22  1  6
 23 25  1  0
 23 24  1  0
 24 19  1  0
 25 27  1  0
 26 25  2  0
M  END
$$$$
