MYQ.pdb
     RDKit          3D

 30 30  0  0  1  0  0  0  0  0999 V2000
    7.4796  -12.4231   17.3676 C   0  0  0  0  0  0  0  0  0  0  0  0
    7.9790  -13.8346   16.3778 S   0  0  0  0  0  0  0  0  0  0  0  0
    8.5316  -15.1918   17.4464 C   0  0  0  0  0  0  0  0  0  0  0  0
    8.9107  -14.7675   18.8158 C   0  0  0  0  0  0  0  0  0  0  0  0
    9.4687  -15.8249   19.6548 C   0  0  2  0  0  0  0  0  0  0  0  0
    8.5622  -17.0306   19.6649 N   0  0  0  0  0  0  0  0  0  0  0  0
    9.5595  -15.5473   21.1248 C   0  0  0  0  0  0  0  0  0  0  0  0
   10.3896  -14.6621   21.5258 O   0  0  0  0  0  0  0  0  0  0  0  0
    6.5055  -11.2342   27.5138 O   0  0  0  0  0  0  0  0  0  0  0  0
    6.7791  -12.2928   26.6489 C   0  0  0  0  0  0  0  0  0  0  0  0
    6.3022  -13.5560   26.9077 C   0  0  0  0  0  0  0  0  0  0  0  0
    6.5699  -14.6050   26.0531 C   0  0  0  0  0  0  0  0  0  0  0  0
    7.3209  -14.4498   24.9089 C   0  0  0  0  0  0  0  0  0  0  0  0
    7.5602  -15.5950   24.0607 C   0  0  0  0  0  0  0  0  0  0  0  0
    8.9525  -15.8109   23.5547 C   0  0  2  0  0  0  0  0  0  0  0  0
    8.8095  -16.1834   22.1294 N   0  0  0  0  0  0  0  0  0  0  0  0
    9.7250  -16.7960   24.2853 C   0  0  0  0  0  0  0  0  0  0  0  0
    9.1858  -17.9429   24.4636 O   0  0  0  0  0  0  0  0  0  0  0  0
    7.7978  -13.1849   24.6527 C   0  0  0  0  0  0  0  0  0  0  0  0
    7.5375  -12.1109   25.5021 C   0  0  0  0  0  0  0  0  0  0  0  0
    9.9040  -13.9892   28.9673 N   0  0  0  0  0  0  0  0  0  0  0  0
   10.6135  -15.1270   29.4317 C   0  0  0  0  0  0  0  0  0  0  0  0
   10.8400  -15.1790   30.6625 O   0  0  0  0  0  0  0  0  0  0  0  0
   11.0627  -16.1881   28.5374 C   0  0  0  0  0  0  0  0  0  0  0  0
   10.9238  -15.9378   27.0834 C   0  0  0  0  0  0  0  0  0  0  0  0
   11.3526  -17.0808   26.1859 C   0  0  2  0  0  0  0  0  0  0  0  0
   11.0145  -16.6526   24.8289 N   0  0  0  0  0  0  0  0  0  0  0  0
   10.6278  -18.3255   26.4951 C   0  0  0  0  0  0  0  0  0  0  0  0
   11.2761  -19.3804   27.0920 O   0  0  0  0  0  0  0  0  0  0  0  0
    9.4123  -18.4169   26.2114 O   0  0  0  0  0  0  0  0  0  0  0  0
  2  3  1  0
  2  1  1  0
  4  3  1  0
  5  4  1  0
  5  6  1  1
  7  5  1  0
  8  7  2  0
  9 10  1  0
 10 11  2  0
 11 12  1  0
 13 14  1  0
 13 12  2  0
 15 14  1  1
 15 17  1  0
 15 16  1  0
 16  7  1  0
 17 18  2  0
 19 13  1  0
 20 19  2  0
 20 10  1  0
 22 21  1  0
 23 22  2  0
 24 22  1  0
 25 24  1  0
 26 25  1  1
 27 26  1  0
 27 17  1  0
 28 26  1  0
 29 28  1  0
 30 28  2  0
M  END
$$$$
