MYQ.pdb
     RDKit          3D

 30 30  0  0  1  0  0  0  0  0999 V2000
    7.6878  -13.4734   15.5814 C   0  0  0  0  0  0  0  0  0  0  0  0
    8.5276  -13.5718   17.1646 S   0  0  0  0  0  0  0  0  0  0  0  0
    9.4789  -15.1115   17.2806 C   0  0  0  0  0  0  0  0  0  0  0  0
   10.1575  -15.3066   18.5847 C   0  0  0  0  0  0  0  0  0  0  0  0
    9.4446  -16.1657   19.5265 C   0  0  2  0  0  0  0  0  0  0  0  0
    7.9552  -16.0805   19.3023 N   0  0  0  0  0  0  0  0  0  0  0  0
    9.5180  -15.7907   20.9757 C   0  0  0  0  0  0  0  0  0  0  0  0
   10.6705  -15.6775   21.5163 O   0  0  0  0  0  0  0  0  0  0  0  0
    6.9384  -11.7377   28.5563 O   0  0  0  0  0  0  0  0  0  0  0  0
    7.0701  -12.3256   27.2990 C   0  0  0  0  0  0  0  0  0  0  0  0
    6.2922  -13.4002   26.9383 C   0  0  0  0  0  0  0  0  0  0  0  0
    6.4191  -13.9830   25.6947 C   0  0  0  0  0  0  0  0  0  0  0  0
    7.3205  -13.5295   24.7571 C   0  0  0  0  0  0  0  0  0  0  0  0
    7.3974  -14.1901   23.4743 C   0  0  0  0  0  0  0  0  0  0  0  0
    8.5986  -15.0395   23.1967 C   0  0  2  0  0  0  0  0  0  0  0  0
    8.4194  -15.5522   21.8198 N   0  0  0  0  0  0  0  0  0  0  0  0
    8.8186  -16.1181   24.1397 C   0  0  0  0  0  0  0  0  0  0  0  0
    7.9824  -17.0867   24.1214 O   0  0  0  0  0  0  0  0  0  0  0  0
    8.0985  -12.4546   25.1210 C   0  0  0  0  0  0  0  0  0  0  0  0
    7.9850  -11.8500   26.3717 C   0  0  0  0  0  0  0  0  0  0  0  0
   12.6475  -20.2114   23.9891 N   0  0  0  0  0  0  0  0  0  0  0  0
   13.0884  -18.9181   24.3718 C   0  0  0  0  0  0  0  0  0  0  0  0
   14.2916  -18.6504   24.1489 O   0  0  0  0  0  0  0  0  0  0  0  0
   12.2014  -17.9407   24.9926 C   0  0  0  0  0  0  0  0  0  0  0  0
   10.8223  -18.3900   25.2961 C   0  0  0  0  0  0  0  0  0  0  0  0
    9.9516  -17.3733   26.0060 C   0  0  2  0  0  0  0  0  0  0  0  0
    9.8528  -16.2412   25.0853 N   0  0  0  0  0  0  0  0  0  0  0  0
   10.5558  -16.9178   27.2699 C   0  0  0  0  0  0  0  0  0  0  0  0
   10.7133  -17.7886   28.3216 O   0  0  0  0  0  0  0  0  0  0  0  0
   10.9281  -15.7280   27.3807 O   0  0  0  0  0  0  0  0  0  0  0  0
  2  3  1  0
  2  1  1  0
  4  3  1  0
  5  4  1  0
  5  6  1  6
  7  5  1  0
  8  7  2  0
  9 10  1  0
 10 11  2  0
 11 12  1  0
 13 14  1  0
 13 12  2  0
 15 14  1  1
 15 17  1  0
 15 16  1  0
 16  7  1  0
 17 18  2  0
 19 13  1  0
 20 19  2  0
 20 10  1  0
 22 21  1  0
 23 22  2  0
 24 22  1  0
 25 24  1  0
 26 25  1  6
 27 26  1  0
 27 17  1  0
 28 26  1  0
 29 28  1  0
 30 28  2  0
M  END
$$$$
