MYQ.pdb
     RDKit          3D

 30 30  0  0  1  0  0  0  0  0999 V2000
    5.6954  -20.5621   20.6837 C   0  0  0  0  0  0  0  0  0  0  0  0
    5.9922  -19.9657   19.0170 S   0  0  0  0  0  0  0  0  0  0  0  0
    6.1909  -18.1630   19.0171 C   0  0  0  0  0  0  0  0  0  0  0  0
    7.2075  -17.6665   19.9759 C   0  0  0  0  0  0  0  0  0  0  0  0
    7.2323  -16.2166   20.1501 C   0  0  2  0  0  0  0  0  0  0  0  0
    7.9652  -15.5558   19.0090 N   0  0  0  0  0  0  0  0  0  0  0  0
    8.0156  -15.6865   21.3127 C   0  0  0  0  0  0  0  0  0  0  0  0
    9.2859  -15.6015   21.2012 O   0  0  0  0  0  0  0  0  0  0  0  0
    9.5329  -13.9710   30.0116 O   0  0  0  0  0  0  0  0  0  0  0  0
    9.0241  -14.0629   28.7169 C   0  0  0  0  0  0  0  0  0  0  0  0
    8.5801  -15.2645   28.2176 C   0  0  0  0  0  0  0  0  0  0  0  0
    8.0748  -15.3583   26.9377 C   0  0  0  0  0  0  0  0  0  0  0  0
    7.9888  -14.2699   26.0979 C   0  0  0  0  0  0  0  0  0  0  0  0
    7.4477  -14.4441   24.7694 C   0  0  0  0  0  0  0  0  0  0  0  0
    8.3431  -15.0281   23.7213 C   0  0  2  0  0  0  0  0  0  0  0  0
    7.4796  -15.2704   22.5439 N   0  0  0  0  0  0  0  0  0  0  0  0
    9.0488  -16.2305   24.1178 C   0  0  0  0  0  0  0  0  0  0  0  0
    8.3516  -17.2942   24.2606 O   0  0  0  0  0  0  0  0  0  0  0  0
    8.4348  -13.0689   26.5997 C   0  0  0  0  0  0  0  0  0  0  0  0
    8.9473  -12.9519   27.8905 C   0  0  0  0  0  0  0  0  0  0  0  0
   14.1905  -17.8759   21.6123 N   0  0  0  0  0  0  0  0  0  0  0  0
   14.3242  -17.0480   22.7569 C   0  0  0  0  0  0  0  0  0  0  0  0
   15.3992  -16.4141   22.8643 O   0  0  0  0  0  0  0  0  0  0  0  0
   13.2760  -16.9300   23.7644 C   0  0  0  0  0  0  0  0  0  0  0  0
   12.1280  -17.8593   23.6440 C   0  0  0  0  0  0  0  0  0  0  0  0
   11.0348  -17.6748   24.6768 C   0  0  2  0  0  0  0  0  0  0  0  0
   10.4252  -16.3822   24.3657 N   0  0  0  0  0  0  0  0  0  0  0  0
   11.5727  -17.6386   26.0477 C   0  0  0  0  0  0  0  0  0  0  0  0
   11.6138  -16.4578   26.7500 O   0  0  0  0  0  0  0  0  0  0  0  0
   11.9927  -18.6944   26.5723 O   0  0  0  0  0  0  0  0  0  0  0  0
  2  3  1  0
  2  1  1  0
  4  3  1  0
  5  4  1  0
  5  6  1  6
  7  5  1  0
  8  7  2  0
  9 10  1  0
 10 11  2  0
 11 12  1  0
 13 14  1  0
 13 12  2  0
 15 14  1  1
 15 17  1  0
 15 16  1  0
 16  7  1  0
 17 18  2  0
 19 13  1  0
 20 19  2  0
 20 10  1  0
 22 21  1  0
 23 22  2  0
 24 22  1  0
 25 24  1  0
 26 25  1  6
 27 26  1  0
 27 17  1  0
 28 26  1  0
 29 28  1  0
 30 28  2  0
M  END
$$$$
