MYQ.pdb
     RDKit          3D

 30 30  0  0  1  0  0  0  0  0999 V2000
    8.7739  -12.2343   19.4923 C   0  0  0  0  0  0  0  0  0  0  0  0
    7.4552  -13.2078   18.7609 S   0  0  0  0  0  0  0  0  0  0  0  0
    8.0784  -14.8322   18.2490 C   0  0  0  0  0  0  0  0  0  0  0  0
    9.4708  -15.1086   18.6781 C   0  0  0  0  0  0  0  0  0  0  0  0
    9.6091  -16.1723   19.6695 C   0  0  2  0  0  0  0  0  0  0  0  0
    8.3866  -17.0561   19.6760 N   0  0  0  0  0  0  0  0  0  0  0  0
    9.6456  -15.7569   21.1091 C   0  0  0  0  0  0  0  0  0  0  0  0
   10.7063  -15.1999   21.5539 O   0  0  0  0  0  0  0  0  0  0  0  0
    6.5333  -12.1818   28.6593 O   0  0  0  0  0  0  0  0  0  0  0  0
    6.7530  -12.7980   27.4282 C   0  0  0  0  0  0  0  0  0  0  0  0
    6.1321  -13.9833   27.1123 C   0  0  0  0  0  0  0  0  0  0  0  0
    6.3462  -14.5945   25.8946 C   0  0  0  0  0  0  0  0  0  0  0  0
    7.1834  -14.0611   24.9397 C   0  0  0  0  0  0  0  0  0  0  0  0
    7.3590  -14.7579   23.6860 C   0  0  0  0  0  0  0  0  0  0  0  0
    8.6957  -15.3727   23.4096 C   0  0  2  0  0  0  0  0  0  0  0  0
    8.6073  -15.9294   22.0410 N   0  0  0  0  0  0  0  0  0  0  0  0
    9.1181  -16.3779   24.3646 C   0  0  0  0  0  0  0  0  0  0  0  0
    8.5178  -17.5075   24.3245 O   0  0  0  0  0  0  0  0  0  0  0  0
    7.8043  -12.8755   25.2587 C   0  0  0  0  0  0  0  0  0  0  0  0
    7.6005  -12.2406   26.4826 C   0  0  0  0  0  0  0  0  0  0  0  0
   14.4063  -18.4808   24.3588 N   0  0  0  0  0  0  0  0  0  0  0  0
   13.1125  -18.8639   23.9196 C   0  0  0  0  0  0  0  0  0  0  0  0
   13.0092  -19.2040   22.7186 O   0  0  0  0  0  0  0  0  0  0  0  0
   11.9541  -18.8670   24.8060 C   0  0  0  0  0  0  0  0  0  0  0  0
   11.8827  -17.7826   25.8135 C   0  0  0  0  0  0  0  0  0  0  0  0
   10.4834  -17.3772   26.2301 C   0  0  2  0  0  0  0  0  0  0  0  0
   10.1229  -16.2713   25.3434 N   0  0  0  0  0  0  0  0  0  0  0  0
   10.4378  -16.9119   27.6270 C   0  0  0  0  0  0  0  0  0  0  0  0
   10.0941  -15.6135   27.9190 O   0  0  0  0  0  0  0  0  0  0  0  0
   10.7135  -17.7097   28.5510 O   0  0  0  0  0  0  0  0  0  0  0  0
  2  3  1  0
  2  1  1  0
  4  3  1  0
  5  4  1  0
  5  6  1  1
  7  5  1  0
  8  7  2  0
  9 10  1  0
 10 11  2  0
 11 12  1  0
 13 14  1  0
 13 12  2  0
 15 14  1  1
 15 17  1  0
 15 16  1  0
 16  7  1  0
 17 18  2  0
 19 13  1  0
 20 19  2  0
 20 10  1  0
 22 21  1  0
 23 22  2  0
 24 22  1  0
 25 24  1  0
 26 25  1  6
 27 26  1  0
 27 17  1  0
 28 26  1  0
 29 28  1  0
 30 28  2  0
M  END
$$$$
