MYQ.pdb
     RDKit          3D

 30 30  0  0  1  0  0  0  0  0999 V2000
    8.2299  -12.1367   17.8683 C   0  0  0  0  0  0  0  0  0  0  0  0
    7.8772  -13.5620   16.8359 S   0  0  0  0  0  0  0  0  0  0  0  0
    8.1878  -15.0970   17.7505 C   0  0  0  0  0  0  0  0  0  0  0  0
    9.2008  -14.9661   18.8256 C   0  0  0  0  0  0  0  0  0  0  0  0
    9.2877  -16.1090   19.7310 C   0  0  2  0  0  0  0  0  0  0  0  0
    7.9953  -16.8871   19.7317 N   0  0  0  0  0  0  0  0  0  0  0  0
    9.4182  -15.8073   21.1933 C   0  0  0  0  0  0  0  0  0  0  0  0
   10.5617  -15.4534   21.6409 O   0  0  0  0  0  0  0  0  0  0  0  0
    6.9215  -11.7511   28.6985 O   0  0  0  0  0  0  0  0  0  0  0  0
    7.0553  -12.4005   27.4722 C   0  0  0  0  0  0  0  0  0  0  0  0
    6.1446  -13.3506   27.0745 C   0  0  0  0  0  0  0  0  0  0  0  0
    6.2735  -13.9938   25.8613 C   0  0  0  0  0  0  0  0  0  0  0  0
    7.3078  -13.7262   24.9918 C   0  0  0  0  0  0  0  0  0  0  0  0
    7.3780  -14.4397   23.7372 C   0  0  0  0  0  0  0  0  0  0  0  0
    8.5508  -15.3425   23.5115 C   0  0  2  0  0  0  0  0  0  0  0  0
    8.3850  -15.8832   22.1436 N   0  0  0  0  0  0  0  0  0  0  0  0
    8.7046  -16.4041   24.4863 C   0  0  0  0  0  0  0  0  0  0  0  0
    7.9476  -17.4278   24.3562 O   0  0  0  0  0  0  0  0  0  0  0  0
    8.2183  -12.7758   25.3926 C   0  0  0  0  0  0  0  0  0  0  0  0
    8.1056  -12.1130   26.6135 C   0  0  0  0  0  0  0  0  0  0  0  0
   11.4850  -20.7599   23.7679 N   0  0  0  0  0  0  0  0  0  0  0  0
   12.2057  -19.5760   24.0722 C   0  0  0  0  0  0  0  0  0  0  0  0
   13.3385  -19.4630   23.5499 O   0  0  0  0  0  0  0  0  0  0  0  0
   11.6709  -18.5365   24.9446 C   0  0  0  0  0  0  0  0  0  0  0  0
   10.2800  -18.7177   25.4227 C   0  0  0  0  0  0  0  0  0  0  0  0
    9.7831  -17.6583   26.3852 C   0  0  2  0  0  0  0  0  0  0  0  0
    9.5969  -16.4566   25.5726 N   0  0  0  0  0  0  0  0  0  0  0  0
   10.7635  -17.3765   27.4480 C   0  0  0  0  0  0  0  0  0  0  0  0
   11.3576  -16.1404   27.5391 O   0  0  0  0  0  0  0  0  0  0  0  0
   11.0526  -18.2727   28.2724 O   0  0  0  0  0  0  0  0  0  0  0  0
  2  3  1  0
  2  1  1  0
  4  3  1  0
  5  4  1  0
  5  6  1  1
  7  5  1  0
  8  7  2  0
  9 10  1  0
 10 11  2  0
 11 12  1  0
 13 14  1  0
 13 12  2  0
 15 14  1  1
 15 17  1  0
 15 16  1  0
 16  7  1  0
 17 18  2  0
 19 13  1  0
 20 19  2  0
 20 10  1  0
 22 21  1  0
 23 22  2  0
 24 22  1  0
 25 24  1  0
 26 25  1  6
 27 26  1  0
 27 17  1  0
 28 26  1  0
 29 28  1  0
 30 28  2  0
M  END
$$$$
