MYQ.pdb
     RDKit          3D

 30 30  0  0  1  0  0  0  0  0999 V2000
    6.9260  -21.2967   18.3952 C   0  0  0  0  0  0  0  0  0  0  0  0
    7.7212  -20.1836   17.2331 S   0  0  0  0  0  0  0  0  0  0  0  0
    9.1401  -19.3655   18.0120 C   0  0  0  0  0  0  0  0  0  0  0  0
    8.8133  -18.6595   19.2745 C   0  0  0  0  0  0  0  0  0  0  0  0
    8.4180  -17.2627   19.1133 C   0  0  2  0  0  0  0  0  0  0  0  0
    9.2315  -16.6010   18.0289 N   0  0  0  0  0  0  0  0  0  0  0  0
    8.7026  -16.3408   20.2603 C   0  0  0  0  0  0  0  0  0  0  0  0
    9.9146  -15.9997   20.4792 O   0  0  0  0  0  0  0  0  0  0  0  0
    7.2760  -11.9579   27.9929 O   0  0  0  0  0  0  0  0  0  0  0  0
    7.1789  -12.6085   26.7637 C   0  0  0  0  0  0  0  0  0  0  0  0
    7.5263  -11.9682   25.5977 C   0  0  0  0  0  0  0  0  0  0  0  0
    7.4327  -12.6097   24.3804 C   0  0  0  0  0  0  0  0  0  0  0  0
    6.9906  -13.9091   24.2644 C   0  0  0  0  0  0  0  0  0  0  0  0
    6.9191  -14.5164   22.9551 C   0  0  0  0  0  0  0  0  0  0  0  0
    8.1388  -15.2168   22.4422 C   0  0  2  0  0  0  0  0  0  0  0  0
    7.7471  -15.8074   21.1428 N   0  0  0  0  0  0  0  0  0  0  0  0
    8.6928  -16.2165   23.3336 C   0  0  0  0  0  0  0  0  0  0  0  0
    8.5540  -17.4419   22.9918 O   0  0  0  0  0  0  0  0  0  0  0  0
    6.6426  -14.5472   25.4326 C   0  0  0  0  0  0  0  0  0  0  0  0
    6.7313  -13.9179   26.6731 C   0  0  0  0  0  0  0  0  0  0  0  0
   15.1278  -15.7867   23.5391 N   0  0  0  0  0  0  0  0  0  0  0  0
   14.0215  -16.6259   23.2470 C   0  0  0  0  0  0  0  0  0  0  0  0
   13.9791  -17.1113   22.0931 O   0  0  0  0  0  0  0  0  0  0  0  0
   12.9805  -16.9178   24.2261 C   0  0  0  0  0  0  0  0  0  0  0  0
   11.6086  -16.4656   23.8955 C   0  0  0  0  0  0  0  0  0  0  0  0
   10.5523  -16.7912   24.9318 C   0  0  2  0  0  0  0  0  0  0  0  0
    9.3786  -16.0093   24.5443 N   0  0  0  0  0  0  0  0  0  0  0  0
   10.9708  -16.3959   26.2878 C   0  0  0  0  0  0  0  0  0  0  0  0
   10.3471  -15.3561   26.9351 O   0  0  0  0  0  0  0  0  0  0  0  0
   11.9009  -17.0162   26.8504 O   0  0  0  0  0  0  0  0  0  0  0  0
  2  3  1  0
  2  1  1  0
  4  3  1  0
  5  4  1  0
  5  6  1  6
  7  5  1  0
  8  7  2  0
  9 10  1  0
 10 11  2  0
 11 12  1  0
 13 14  1  0
 13 12  2  0
 15 14  1  1
 15 17  1  0
 15 16  1  0
 16  7  1  0
 17 18  2  0
 19 13  1  0
 20 19  2  0
 20 10  1  0
 22 21  1  0
 23 22  2  0
 24 22  1  0
 25 24  1  0
 26 25  1  6
 27 26  1  0
 27 17  1  0
 28 26  1  0
 29 28  1  0
 30 28  2  0
M  END
$$$$
