MYQ.pdb
     RDKit          3D

 30 30  0  0  1  0  0  0  0  0999 V2000
    7.7690  -11.1697   19.7645 C   0  0  0  0  0  0  0  0  0  0  0  0
    6.9837  -12.4513   18.7835 S   0  0  0  0  0  0  0  0  0  0  0  0
    7.2050  -14.0717   19.5674 C   0  0  0  0  0  0  0  0  0  0  0  0
    8.5897  -14.3375   20.0267 C   0  0  0  0  0  0  0  0  0  0  0  0
    8.8044  -15.6649   20.5969 C   0  0  2  0  0  0  0  0  0  0  0  0
    7.4884  -16.3094   20.9554 N   0  0  0  0  0  0  0  0  0  0  0  0
    9.5023  -15.7291   21.9217 C   0  0  0  0  0  0  0  0  0  0  0  0
   10.7800  -15.7076   21.9369 O   0  0  0  0  0  0  0  0  0  0  0  0
   10.5526  -15.3428   30.8569 O   0  0  0  0  0  0  0  0  0  0  0  0
   10.0928  -15.3779   29.5412 C   0  0  0  0  0  0  0  0  0  0  0  0
   10.0571  -14.2361   28.7762 C   0  0  0  0  0  0  0  0  0  0  0  0
    9.6042  -14.2680   27.4739 C   0  0  0  0  0  0  0  0  0  0  0  0
    9.1666  -15.4282   26.8742 C   0  0  0  0  0  0  0  0  0  0  0  0
    8.7060  -15.3852   25.5052 C   0  0  0  0  0  0  0  0  0  0  0  0
    9.6583  -15.8169   24.4338 C   0  0  2  0  0  0  0  0  0  0  0  0
    8.8761  -15.8191   23.1772 N   0  0  0  0  0  0  0  0  0  0  0  0
   10.2991  -17.0969   24.6617 C   0  0  0  0  0  0  0  0  0  0  0  0
    9.5527  -18.1359   24.6264 O   0  0  0  0  0  0  0  0  0  0  0  0
    9.2024  -16.5692   27.6423 C   0  0  0  0  0  0  0  0  0  0  0  0
    9.6579  -16.5592   28.9595 C   0  0  0  0  0  0  0  0  0  0  0  0
   15.3153  -19.3475   22.2618 N   0  0  0  0  0  0  0  0  0  0  0  0
   14.3934  -18.2756   22.1399 C   0  0  0  0  0  0  0  0  0  0  0  0
   14.4859  -17.5753   21.1055 O   0  0  0  0  0  0  0  0  0  0  0  0
   13.3860  -17.9904   23.1555 C   0  0  0  0  0  0  0  0  0  0  0  0
   13.2909  -18.9432   24.2864 C   0  0  0  0  0  0  0  0  0  0  0  0
   12.1661  -18.6756   25.2656 C   0  0  2  0  0  0  0  0  0  0  0  0
   11.6594  -17.3486   24.9167 N   0  0  0  0  0  0  0  0  0  0  0  0
   12.6414  -18.6609   26.6598 C   0  0  0  0  0  0  0  0  0  0  0  0
   12.6170  -17.4985   27.3929 O   0  0  0  0  0  0  0  0  0  0  0  0
   13.0682  -19.7181   27.1759 O   0  0  0  0  0  0  0  0  0  0  0  0
  2  3  1  0
  2  1  1  0
  4  3  1  0
  5  4  1  0
  5  6  1  1
  7  5  1  0
  8  7  2  0
  9 10  1  0
 10 11  2  0
 11 12  1  0
 13 14  1  0
 13 12  2  0
 15 14  1  1
 15 17  1  0
 15 16  1  0
 16  7  1  0
 17 18  2  0
 19 13  1  0
 20 19  2  0
 20 10  1  0
 22 21  1  0
 23 22  2  0
 24 22  1  0
 25 24  1  0
 26 25  1  6
 27 26  1  0
 27 17  1  0
 28 26  1  0
 29 28  1  0
 30 28  2  0
M  END
$$$$
