MYQ.pdb
     RDKit          3D

 30 30  0  0  1  0  0  0  0  0999 V2000
    7.6118  -13.0666   17.4902 C   0  0  0  0  0  0  0  0  0  0  0  0
    7.7607  -14.7032   16.7685 S   0  0  0  0  0  0  0  0  0  0  0  0
    8.5429  -15.8427   17.9428 C   0  0  0  0  0  0  0  0  0  0  0  0
    9.3066  -15.1699   19.0213 C   0  0  0  0  0  0  0  0  0  0  0  0
    9.7545  -16.0491   20.0982 C   0  0  2  0  0  0  0  0  0  0  0  0
    8.8008  -17.2048   20.2733 N   0  0  0  0  0  0  0  0  0  0  0  0
    9.7436  -15.4819   21.4855 C   0  0  0  0  0  0  0  0  0  0  0  0
   10.7058  -14.7176   21.8369 O   0  0  0  0  0  0  0  0  0  0  0  0
    6.0640  -11.4025   28.4827 O   0  0  0  0  0  0  0  0  0  0  0  0
    6.3914  -12.1422   27.3472 C   0  0  0  0  0  0  0  0  0  0  0  0
    5.9449  -13.4334   27.1939 C   0  0  0  0  0  0  0  0  0  0  0  0
    6.2658  -14.1671   26.0711 C   0  0  0  0  0  0  0  0  0  0  0  0
    7.0421  -13.6564   25.0543 C   0  0  0  0  0  0  0  0  0  0  0  0
    7.3372  -14.4842   23.9073 C   0  0  0  0  0  0  0  0  0  0  0  0
    8.7434  -14.9696   23.7392 C   0  0  2  0  0  0  0  0  0  0  0  0
    8.7608  -15.7182   22.4625 N   0  0  0  0  0  0  0  0  0  0  0  0
    9.2495  -15.7749   24.8330 C   0  0  0  0  0  0  0  0  0  0  0  0
    9.1849  -15.2688   26.0067 O   0  0  0  0  0  0  0  0  0  0  0  0
    7.4885  -12.3644   25.2106 C   0  0  0  0  0  0  0  0  0  0  0  0
    7.1744  -11.6051   26.3365 C   0  0  0  0  0  0  0  0  0  0  0  0
    6.5307  -19.7615   26.4929 N   0  0  0  0  0  0  0  0  0  0  0  0
    7.4386  -19.6863   27.5808 C   0  0  0  0  0  0  0  0  0  0  0  0
    6.9631  -19.8993   28.7198 O   0  0  0  0  0  0  0  0  0  0  0  0
    8.8529  -19.3783   27.4001 C   0  0  0  0  0  0  0  0  0  0  0  0
    9.2825  -18.9948   26.0347 C   0  0  0  0  0  0  0  0  0  0  0  0
   10.2201  -17.8068   25.9608 C   0  0  2  0  0  0  0  0  0  0  0  0
    9.8080  -17.0645   24.7698 N   0  0  0  0  0  0  0  0  0  0  0  0
   11.6251  -18.2227   25.8096 C   0  0  0  0  0  0  0  0  0  0  0  0
   12.3556  -18.6234   26.9028 O   0  0  0  0  0  0  0  0  0  0  0  0
   12.1521  -18.2105   24.6745 O   0  0  0  0  0  0  0  0  0  0  0  0
  2  3  1  0
  2  1  1  0
  4  3  1  0
  5  4  1  0
  5  6  1  1
  7  5  1  0
  8  7  2  0
  9 10  1  0
 10 11  2  0
 11 12  1  0
 13 14  1  0
 13 12  2  0
 15 14  1  1
 15 17  1  0
 15 16  1  0
 16  7  1  0
 17 18  2  0
 19 13  1  0
 20 19  2  0
 20 10  1  0
 22 21  1  0
 23 22  2  0
 24 22  1  0
 25 24  1  0
 26 25  1  6
 27 26  1  0
 27 17  1  0
 28 26  1  0
 29 28  1  0
 30 28  2  0
M  END
$$$$
