MYQ.pdb
     RDKit          3D

 30 30  0  0  1  0  0  0  0  0999 V2000
    7.0820  -21.1827   20.1219 C   0  0  0  0  0  0  0  0  0  0  0  0
    7.9616  -20.9272   18.5784 S   0  0  0  0  0  0  0  0  0  0  0  0
    8.4700  -19.1934   18.4205 C   0  0  0  0  0  0  0  0  0  0  0  0
    8.3647  -18.4152   19.6784 C   0  0  0  0  0  0  0  0  0  0  0  0
    8.7109  -17.0014   19.5577 C   0  0  2  0  0  0  0  0  0  0  0  0
   10.0515  -16.8371   18.8858 N   0  0  0  0  0  0  0  0  0  0  0  0
    8.9578  -16.2524   20.8322 C   0  0  0  0  0  0  0  0  0  0  0  0
   10.1120  -16.3394   21.3741 O   0  0  0  0  0  0  0  0  0  0  0  0
    7.1199  -11.4641   28.2327 O   0  0  0  0  0  0  0  0  0  0  0  0
    7.1223  -12.0891   26.9866 C   0  0  0  0  0  0  0  0  0  0  0  0
    7.8829  -11.5970   25.9525 C   0  0  0  0  0  0  0  0  0  0  0  0
    7.8886  -12.2139   24.7190 C   0  0  0  0  0  0  0  0  0  0  0  0
    7.1421  -13.3412   24.4557 C   0  0  0  0  0  0  0  0  0  0  0  0
    7.1983  -13.9335   23.1388 C   0  0  0  0  0  0  0  0  0  0  0  0
    8.3022  -14.9043   22.8559 C   0  0  2  0  0  0  0  0  0  0  0  0
    8.0220  -15.4509   21.5092 N   0  0  0  0  0  0  0  0  0  0  0  0
    8.4560  -15.9613   23.8357 C   0  0  0  0  0  0  0  0  0  0  0  0
    7.6481  -16.9507   23.7561 O   0  0  0  0  0  0  0  0  0  0  0  0
    6.3810  -13.8311   25.4919 C   0  0  0  0  0  0  0  0  0  0  0  0
    6.3623  -13.2240   26.7463 C   0  0  0  0  0  0  0  0  0  0  0  0
   12.2113  -18.9064   22.1272 N   0  0  0  0  0  0  0  0  0  0  0  0
   12.0359  -19.0895   23.5234 C   0  0  0  0  0  0  0  0  0  0  0  0
   12.4058  -20.1904   23.9924 O   0  0  0  0  0  0  0  0  0  0  0  0
   11.4573  -18.0612   24.3810 C   0  0  0  0  0  0  0  0  0  0  0  0
   10.0857  -18.3075   24.8849 C   0  0  0  0  0  0  0  0  0  0  0  0
    9.5082  -17.2088   25.7538 C   0  0  2  0  0  0  0  0  0  0  0  0
    9.3977  -16.0429   24.8776 N   0  0  0  0  0  0  0  0  0  0  0  0
   10.3912  -16.8808   26.8863 C   0  0  0  0  0  0  0  0  0  0  0  0
   10.5950  -17.7890   27.8978 O   0  0  0  0  0  0  0  0  0  0  0  0
   10.9589  -15.7660   26.9217 O   0  0  0  0  0  0  0  0  0  0  0  0
  2  3  1  0
  2  1  1  0
  4  3  1  0
  5  4  1  0
  5  6  1  6
  7  5  1  0
  8  7  2  0
  9 10  1  0
 10 11  2  0
 11 12  1  0
 13 14  1  0
 13 12  2  0
 15 14  1  1
 15 17  1  0
 15 16  1  0
 16  7  1  0
 17 18  2  0
 19 13  1  0
 20 19  2  0
 20 10  1  0
 22 21  1  0
 23 22  2  0
 24 22  1  0
 25 24  1  0
 26 25  1  6
 27 26  1  0
 27 17  1  0
 28 26  1  0
 29 28  1  0
 30 28  2  0
M  END
$$$$
