MYQ.pdb
     RDKit          3D

 30 30  0  0  1  0  0  0  0  0999 V2000
    7.2836  -13.2701   16.4566 C   0  0  0  0  0  0  0  0  0  0  0  0
    8.6774  -13.4080   17.5791 S   0  0  0  0  0  0  0  0  0  0  0  0
    8.3113  -14.5983   18.8976 C   0  0  0  0  0  0  0  0  0  0  0  0
    9.2804  -14.5749   20.0198 C   0  0  0  0  0  0  0  0  0  0  0  0
    9.1757  -15.6992   20.9463 C   0  0  2  0  0  0  0  0  0  0  0  0
    7.7733  -16.2551   20.9523 N   0  0  0  0  0  0  0  0  0  0  0  0
    9.3484  -15.3953   22.4037 C   0  0  0  0  0  0  0  0  0  0  0  0
   10.4335  -14.8371   22.7835 O   0  0  0  0  0  0  0  0  0  0  0  0
    6.1076   -9.9698   27.5449 O   0  0  0  0  0  0  0  0  0  0  0  0
    6.3779  -11.2277   27.0079 C   0  0  0  0  0  0  0  0  0  0  0  0
    7.5085  -11.9208   27.3703 C   0  0  0  0  0  0  0  0  0  0  0  0
    7.7779  -13.1660   26.8419 C   0  0  0  0  0  0  0  0  0  0  0  0
    6.9427  -13.7770   25.9329 C   0  0  0  0  0  0  0  0  0  0  0  0
    7.2898  -15.0834   25.4222 C   0  0  0  0  0  0  0  0  0  0  0  0
    8.6487  -15.2594   24.8191 C   0  0  2  0  0  0  0  0  0  0  0  0
    8.4163  -15.6760   23.4180 N   0  0  0  0  0  0  0  0  0  0  0  0
    9.5121  -16.1937   25.5138 C   0  0  0  0  0  0  0  0  0  0  0  0
   10.3239  -15.7062   26.3748 O   0  0  0  0  0  0  0  0  0  0  0  0
    5.8124  -13.0808   25.5711 C   0  0  0  0  0  0  0  0  0  0  0  0
    5.5206  -11.8223   26.0943 C   0  0  0  0  0  0  0  0  0  0  0  0
    6.8766  -21.3867   26.6762 N   0  0  0  0  0  0  0  0  0  0  0  0
    7.7415  -20.8020   27.6373 C   0  0  0  0  0  0  0  0  0  0  0  0
    7.8203  -21.3836   28.7438 O   0  0  0  0  0  0  0  0  0  0  0  0
    8.5052  -19.5889   27.3676 C   0  0  0  0  0  0  0  0  0  0  0  0
    9.6353  -19.7101   26.4167 C   0  0  0  0  0  0  0  0  0  0  0  0
   10.4293  -18.4397   26.1896 C   0  0  2  0  0  0  0  0  0  0  0  0
    9.5704  -17.5912   25.3640 N   0  0  0  0  0  0  0  0  0  0  0  0
   11.6886  -18.6985   25.4705 C   0  0  0  0  0  0  0  0  0  0  0  0
   11.8392  -18.3032   24.1627 O   0  0  0  0  0  0  0  0  0  0  0  0
   12.6257  -19.2817   26.0604 O   0  0  0  0  0  0  0  0  0  0  0  0
  2  3  1  0
  2  1  1  0
  4  3  1  0
  5  4  1  0
  5  6  1  1
  7  5  1  0
  8  7  2  0
  9 10  1  0
 10 11  2  0
 11 12  1  0
 13 14  1  0
 13 12  2  0
 15 14  1  1
 15 17  1  0
 15 16  1  0
 16  7  1  0
 17 18  2  0
 19 13  1  0
 20 19  2  0
 20 10  1  0
 22 21  1  0
 23 22  2  0
 24 22  1  0
 25 24  1  0
 26 25  1  6
 27 26  1  0
 27 17  1  0
 28 26  1  0
 29 28  1  0
 30 28  2  0
M  END
$$$$
