MYQ.pdb
     RDKit          3D

 30 30  0  0  1  0  0  0  0  0999 V2000
    3.3509  -17.3299   19.8671 C   0  0  0  0  0  0  0  0  0  0  0  0
    4.2164  -18.6094   20.7810 S   0  0  0  0  0  0  0  0  0  0  0  0
    5.9052  -18.8046   20.1491 C   0  0  0  0  0  0  0  0  0  0  0  0
    6.9584  -18.3399   21.0839 C   0  0  0  0  0  0  0  0  0  0  0  0
    6.9493  -16.9050   21.3563 C   0  0  2  0  0  0  0  0  0  0  0  0
    7.6132  -16.1459   20.2343 N   0  0  0  0  0  0  0  0  0  0  0  0
    7.7667  -16.4304   22.5195 C   0  0  0  0  0  0  0  0  0  0  0  0
    8.9607  -16.0309   22.3002 O   0  0  0  0  0  0  0  0  0  0  0  0
    6.2309  -10.1154   26.7020 O   0  0  0  0  0  0  0  0  0  0  0  0
    6.5492  -11.4639   26.5480 C   0  0  0  0  0  0  0  0  0  0  0  0
    5.6192  -12.4421   26.8093 C   0  0  0  0  0  0  0  0  0  0  0  0
    5.9307  -13.7770   26.6565 C   0  0  0  0  0  0  0  0  0  0  0  0
    7.1738  -14.2005   26.2410 C   0  0  0  0  0  0  0  0  0  0  0  0
    7.4276  -15.6164   26.1032 C   0  0  0  0  0  0  0  0  0  0  0  0
    8.2806  -16.0651   24.9577 C   0  0  2  0  0  0  0  0  0  0  0  0
    7.3423  -16.3865   23.8590 N   0  0  0  0  0  0  0  0  0  0  0  0
    9.1599  -17.1804   25.2473 C   0  0  0  0  0  0  0  0  0  0  0  0
    8.6079  -18.3105   25.4839 O   0  0  0  0  0  0  0  0  0  0  0  0
    8.1030  -13.2197   25.9813 C   0  0  0  0  0  0  0  0  0  0  0  0
    7.8083  -11.8653   26.1276 C   0  0  0  0  0  0  0  0  0  0  0  0
   15.4769  -17.6299   24.2541 N   0  0  0  0  0  0  0  0  0  0  0  0
   15.1371  -18.8017   24.9786 C   0  0  0  0  0  0  0  0  0  0  0  0
   16.0780  -19.5836   25.2475 O   0  0  0  0  0  0  0  0  0  0  0  0
   13.7706  -19.0955   25.3955 C   0  0  0  0  0  0  0  0  0  0  0  0
   12.7386  -18.0878   25.0557 C   0  0  0  0  0  0  0  0  0  0  0  0
   11.3461  -18.3877   25.5722 C   0  0  2  0  0  0  0  0  0  0  0  0
   10.5657  -17.1813   25.2985 N   0  0  0  0  0  0  0  0  0  0  0  0
   11.3408  -18.6488   27.0219 C   0  0  0  0  0  0  0  0  0  0  0  0
   11.0926  -17.6320   27.9129 O   0  0  0  0  0  0  0  0  0  0  0  0
   11.5631  -19.8074   27.4397 O   0  0  0  0  0  0  0  0  0  0  0  0
  2  3  1  0
  2  1  1  0
  4  3  1  0
  5  4  1  0
  5  6  1  6
  7  5  1  0
  8  7  2  0
  9 10  1  0
 10 11  2  0
 11 12  1  0
 13 14  1  0
 13 12  2  0
 15 14  1  1
 15 17  1  0
 15 16  1  0
 16  7  1  0
 17 18  2  0
 19 13  1  0
 20 19  2  0
 20 10  1  0
 22 21  1  0
 23 22  2  0
 24 22  1  0
 25 24  1  0
 26 25  1  1
 27 26  1  0
 27 17  1  0
 28 26  1  0
 29 28  1  0
 30 28  2  0
M  END
$$$$
