MYQ.pdb
     RDKit          3D

 30 30  0  0  1  0  0  0  0  0999 V2000
    9.5247  -12.1680   19.5213 C   0  0  0  0  0  0  0  0  0  0  0  0
    7.7365  -12.2686   19.4027 S   0  0  0  0  0  0  0  0  0  0  0  0
    7.1901  -13.9923   19.5429 C   0  0  0  0  0  0  0  0  0  0  0  0
    7.2413  -14.5328   20.9229 C   0  0  0  0  0  0  0  0  0  0  0  0
    6.7911  -15.9156   21.0588 C   0  0  2  0  0  0  0  0  0  0  0  0
    5.3047  -16.0172   20.8221 N   0  0  0  0  0  0  0  0  0  0  0  0
    6.8863  -16.5287   22.4231 C   0  0  0  0  0  0  0  0  0  0  0  0
    5.9914  -16.2326   23.2861 O   0  0  0  0  0  0  0  0  0  0  0  0
    7.6180  -21.6946   29.4082 O   0  0  0  0  0  0  0  0  0  0  0  0
    7.8116  -21.0727   28.1755 C   0  0  0  0  0  0  0  0  0  0  0  0
    6.7945  -21.0039   27.2531 C   0  0  0  0  0  0  0  0  0  0  0  0
    6.9826  -20.3881   26.0334 C   0  0  0  0  0  0  0  0  0  0  0  0
    8.1832  -19.8165   25.6741 C   0  0  0  0  0  0  0  0  0  0  0  0
    8.3063  -19.1882   24.3786 C   0  0  0  0  0  0  0  0  0  0  0  0
    8.0873  -17.7096   24.2955 C   0  0  2  0  0  0  0  0  0  0  0  0
    7.8891  -17.4123   22.8591 N   0  0  0  0  0  0  0  0  0  0  0  0
    9.1465  -16.8994   24.8635 C   0  0  0  0  0  0  0  0  0  0  0  0
    9.9255  -16.3014   24.0429 O   0  0  0  0  0  0  0  0  0  0  0  0
    9.1997  -19.8876   26.5985 C   0  0  0  0  0  0  0  0  0  0  0  0
    9.0302  -20.5037   27.8372 C   0  0  0  0  0  0  0  0  0  0  0  0
    6.0143  -13.0116   25.6246 N   0  0  0  0  0  0  0  0  0  0  0  0
    7.0157  -12.4581   26.4638 C   0  0  0  0  0  0  0  0  0  0  0  0
    6.8468  -11.2708   26.8254 O   0  0  0  0  0  0  0  0  0  0  0  0
    8.1856  -13.2169   26.8916 C   0  0  0  0  0  0  0  0  0  0  0  0
    8.3118  -14.5982   26.3699 C   0  0  0  0  0  0  0  0  0  0  0  0
    9.5624  -15.3396   26.7965 C   0  0  2  0  0  0  0  0  0  0  0  0
    9.4304  -16.6788   26.2235 N   0  0  0  0  0  0  0  0  0  0  0  0
    9.6653  -15.4484   28.2619 C   0  0  0  0  0  0  0  0  0  0  0  0
   10.4854  -14.6013   28.9685 O   0  0  0  0  0  0  0  0  0  0  0  0
    8.9974  -16.3195   28.8631 O   0  0  0  0  0  0  0  0  0  0  0  0
  2  3  1  0
  2  1  1  0
  4  3  1  0
  5  4  1  0
  5  6  1  1
  7  5  1  0
  8  7  2  0
  9 10  1  0
 10 11  2  0
 11 12  1  0
 13 14  1  0
 13 12  2  0
 15 14  1  6
 15 17  1  0
 15 16  1  0
 16  7  1  0
 17 18  2  0
 19 13  1  0
 20 19  2  0
 20 10  1  0
 22 21  1  0
 23 22  2  0
 24 22  1  0
 25 24  1  0
 26 25  1  1
 27 26  1  0
 27 17  1  0
 28 26  1  0
 29 28  1  0
 30 28  2  0
M  END
$$$$
