MYQ.pdb
     RDKit          3D

 30 30  0  0  1  0  0  0  0  0999 V2000
    1.0576  -18.7607   20.0564 C   0  0  0  0  0  0  0  0  0  0  0  0
    2.8200  -18.4249   20.0030 S   0  0  0  0  0  0  0  0  0  0  0  0
    3.6989  -19.4713   21.1954 C   0  0  0  0  0  0  0  0  0  0  0  0
    5.1456  -19.1681   21.3153 C   0  0  0  0  0  0  0  0  0  0  0  0
    5.5664  -18.6878   22.6289 C   0  0  2  0  0  0  0  0  0  0  0  0
    4.4871  -17.8416   23.2571 N   0  0  0  0  0  0  0  0  0  0  0  0
    6.7142  -17.7246   22.6629 C   0  0  0  0  0  0  0  0  0  0  0  0
    7.8290  -18.0898   22.1559 O   0  0  0  0  0  0  0  0  0  0  0  0
    8.1162  -12.8833   17.5457 O   0  0  0  0  0  0  0  0  0  0  0  0
    7.9598  -13.2179   18.8900 C   0  0  0  0  0  0  0  0  0  0  0  0
    9.0533  -13.4402   19.6931 C   0  0  0  0  0  0  0  0  0  0  0  0
    8.9018  -13.7698   21.0237 C   0  0  0  0  0  0  0  0  0  0  0  0
    7.6643  -13.8950   21.6154 C   0  0  0  0  0  0  0  0  0  0  0  0
    7.5831  -14.2430   23.0156 C   0  0  0  0  0  0  0  0  0  0  0  0
    7.9262  -15.6465   23.4077 C   0  0  2  0  0  0  0  0  0  0  0  0
    6.6867  -16.4324   23.2159 N   0  0  0  0  0  0  0  0  0  0  0  0
    8.4476  -15.7981   24.7516 C   0  0  0  0  0  0  0  0  0  0  0  0
    7.6272  -15.6198   25.7176 O   0  0  0  0  0  0  0  0  0  0  0  0
    6.5716  -13.6730   20.8094 C   0  0  0  0  0  0  0  0  0  0  0  0
    6.7025  -13.3372   19.4630 C   0  0  0  0  0  0  0  0  0  0  0  0
    7.1319  -19.7563   27.2257 N   0  0  0  0  0  0  0  0  0  0  0  0
    8.4241  -19.8956   27.7953 C   0  0  0  0  0  0  0  0  0  0  0  0
    8.5207  -20.6680   28.7767 O   0  0  0  0  0  0  0  0  0  0  0  0
    9.5882  -19.1849   27.2783 C   0  0  0  0  0  0  0  0  0  0  0  0
    9.3425  -18.1990   26.1995 C   0  0  0  0  0  0  0  0  0  0  0  0
   10.0625  -16.8751   26.3562 C   0  0  2  0  0  0  0  0  0  0  0  0
    9.7602  -16.1257   25.1370 N   0  0  0  0  0  0  0  0  0  0  0  0
   11.5209  -17.0511   26.4668 C   0  0  0  0  0  0  0  0  0  0  0  0
   12.3304  -16.8717   25.3706 O   0  0  0  0  0  0  0  0  0  0  0  0
   12.0212  -17.3648   27.5703 O   0  0  0  0  0  0  0  0  0  0  0  0
  2  3  1  0
  2  1  1  0
  4  3  1  0
  5  4  1  0
  5  6  1  6
  7  5  1  0
  8  7  2  0
  9 10  1  0
 10 11  2  0
 11 12  1  0
 13 14  1  0
 13 12  2  0
 15 14  1  1
 15 17  1  0
 15 16  1  0
 16  7  1  0
 17 18  2  0
 19 13  1  0
 20 19  2  0
 20 10  1  0
 22 21  1  0
 23 22  2  0
 24 22  1  0
 25 24  1  0
 26 25  1  6
 27 26  1  0
 27 17  1  0
 28 26  1  0
 29 28  1  0
 30 28  2  0
M  END
$$$$
