MYQ.pdb
     RDKit          3D

 30 30  0  0  1  0  0  0  0  0999 V2000
   10.1567  -14.1134   29.6596 C   0  0  0  0  0  0  0  0  0  0  0  0
   11.0297  -15.6700   29.4685 S   0  0  0  0  0  0  0  0  0  0  0  0
    9.8554  -17.0213   29.1781 C   0  0  0  0  0  0  0  0  0  0  0  0
    9.6830  -17.3762   27.7486 C   0  0  0  0  0  0  0  0  0  0  0  0
    9.4594  -16.2419   26.8560 C   0  0  2  0  0  0  0  0  0  0  0  0
    8.3067  -15.3998   27.3439 N   0  0  0  0  0  0  0  0  0  0  0  0
    8.9922  -16.5542   25.4666 C   0  0  0  0  0  0  0  0  0  0  0  0
    9.3361  -17.6697   24.9464 O   0  0  0  0  0  0  0  0  0  0  0  0
    7.4739  -13.4573   17.1678 O   0  0  0  0  0  0  0  0  0  0  0  0
    7.4846  -13.6996   18.5406 C   0  0  0  0  0  0  0  0  0  0  0  0
    7.1432  -14.9336   19.0414 C   0  0  0  0  0  0  0  0  0  0  0  0
    7.1542  -15.1769   20.3989 C   0  0  0  0  0  0  0  0  0  0  0  0
    7.5014  -14.2111   21.3176 C   0  0  0  0  0  0  0  0  0  0  0  0
    7.4903  -14.5388   22.7250 C   0  0  0  0  0  0  0  0  0  0  0  0
    8.4762  -15.5540   23.2137 C   0  0  2  0  0  0  0  0  0  0  0  0
    8.2006  -15.7195   24.6585 N   0  0  0  0  0  0  0  0  0  0  0  0
    9.8670  -15.2239   22.9735 C   0  0  0  0  0  0  0  0  0  0  0  0
   10.4686  -14.5461   23.8772 O   0  0  0  0  0  0  0  0  0  0  0  0
    7.8416  -12.9767   20.8140 C   0  0  0  0  0  0  0  0  0  0  0  0
    7.8386  -12.7105   19.4459 C   0  0  0  0  0  0  0  0  0  0  0  0
   13.8546  -17.7451   24.9461 N   0  0  0  0  0  0  0  0  0  0  0  0
   13.4180  -18.2990   23.7147 C   0  0  0  0  0  0  0  0  0  0  0  0
   13.6578  -19.5150   23.5339 O   0  0  0  0  0  0  0  0  0  0  0  0
   12.7258  -17.5088   22.7028 C   0  0  0  0  0  0  0  0  0  0  0  0
   12.7338  -16.0382   22.8847 C   0  0  0  0  0  0  0  0  0  0  0  0
   12.0800  -15.2447   21.7717 C   0  0  2  0  0  0  0  0  0  0  0  0
   10.6549  -15.5620   21.8583 N   0  0  0  0  0  0  0  0  0  0  0  0
   12.5838  -15.6392   20.4448 C   0  0  0  0  0  0  0  0  0  0  0  0
   11.7522  -16.2487   19.5358 O   0  0  0  0  0  0  0  0  0  0  0  0
   13.7785  -15.4139   20.1479 O   0  0  0  0  0  0  0  0  0  0  0  0
  2  3  1  0
  2  1  1  0
  4  3  1  0
  5  4  1  0
  5  6  1  1
  7  5  1  0
  8  7  2  0
  9 10  1  0
 10 11  2  0
 11 12  1  0
 13 14  1  0
 13 12  2  0
 15 14  1  1
 15 17  1  0
 15 16  1  0
 16  7  1  0
 17 18  2  0
 19 13  1  0
 20 19  2  0
 20 10  1  0
 22 21  1  0
 23 22  2  0
 24 22  1  0
 25 24  1  0
 26 25  1  1
 27 26  1  0
 27 17  1  0
 28 26  1  0
 29 28  1  0
 30 28  2  0
M  END
$$$$
