FMG.pdb
     RDKit          3D

 24 24  0  0  1  0  0  0  0  0999 V2000
   29.7728  -22.2566   -9.5371 N   0  0  0  0  0  0  0  0  0  0  0  0
   28.9708  -21.5331   -8.5678 C   0  0  1  0  0  0  0  0  0  0  0  0
   29.7090  -20.3181   -8.0457 C   0  0  0  0  0  0  0  0  0  0  0  0
   29.2461  -19.8766   -6.7282 C   0  0  0  0  0  0  0  0  0  0  0  0
   29.7542  -20.4688   -5.5994 C   0  0  0  0  0  0  0  0  0  0  0  0
   29.3546  -20.0942   -4.3227 C   0  0  0  0  0  0  0  0  0  0  0  0
   28.4013  -19.0752   -4.2545 C   0  0  0  0  0  0  0  0  0  0  0  0
   27.8834  -18.4727   -5.3757 C   0  0  0  0  0  0  0  0  0  0  0  0
   28.2971  -18.8633   -6.6305 C   0  0  0  0  0  0  0  0  0  0  0  0
   27.7347  -21.0533   -9.2409 C   0  0  0  0  0  0  0  0  0  0  0  0
   27.8127  -20.7756  -10.4624 O   0  0  0  0  0  0  0  0  0  0  0  0
   21.9417  -20.9474   -5.8557 C   0  0  0  0  0  0  0  0  0  0  0  0
   21.7577  -22.2488   -7.1007 S   0  0  0  0  0  0  0  0  0  0  0  0
   22.8794  -21.9146   -8.5323 C   0  0  0  0  0  0  0  0  0  0  0  0
   24.2058  -21.4427   -8.0341 C   0  0  0  0  0  0  0  0  0  0  0  0
   25.2091  -21.2896   -9.1668 C   0  0  2  0  0  0  0  0  0  0  0  0
   26.5013  -20.9024   -8.5672 N   0  0  0  0  0  0  0  0  0  0  0  0
   24.7788  -20.1435   -9.9915 C   0  0  0  0  0  0  0  0  0  0  0  0
   24.3596  -19.1083   -9.4100 O   0  0  0  0  0  0  0  0  0  0  0  0
   24.8038  -20.1091  -11.4090 N   0  0  0  0  0  0  0  0  0  0  0  0
   23.9060  -19.2136  -12.1110 C   0  0  0  0  0  0  0  0  0  0  0  0
   23.0233  -19.9611  -13.0426 C   0  0  0  0  0  0  0  0  0  0  0  0
   22.6359  -21.1185  -12.7621 O   0  0  0  0  0  0  0  0  0  0  0  0
   22.6372  -19.3654  -14.2172 O   0  0  0  0  0  0  0  0  0  0  0  0
  2  1  1  6
  2 10  1  0
  3  2  1  0
  4  3  1  0
  4  9  2  0
  5  4  1  0
  6  5  2  0
  6  7  1  0
  7  8  2  0
  8  9  1  0
 10 11  2  0
 12 13  1  0
 13 14  1  0
 14 15  1  0
 16 15  1  1
 16 18  1  0
 17 10  1  0
 17 16  1  0
 18 19  2  0
 20 21  1  0
 20 18  1  0
 21 22  1  0
 22 23  2  0
 22 24  1  0
M  END
$$$$
