FMG.pdb
     RDKit          3D

 24 24  0  0  1  0  0  0  0  0999 V2000
   22.8331   -8.1583  -17.5560 N   0  0  0  0  0  0  0  0  0  0  0  0
   23.9837   -8.1534  -16.6715 C   0  0  1  0  0  0  0  0  0  0  0  0
   23.5563   -8.1778  -15.2187 C   0  0  0  0  0  0  0  0  0  0  0  0
   22.7284   -7.0321  -14.8356 C   0  0  0  0  0  0  0  0  0  0  0  0
   21.4252   -7.2357  -14.4572 C   0  0  0  0  0  0  0  0  0  0  0  0
   20.5904   -6.1901  -14.0837 C   0  0  0  0  0  0  0  0  0  0  0  0
   21.1572   -4.9135  -14.1156 C   0  0  0  0  0  0  0  0  0  0  0  0
   22.4604   -4.6938  -14.4922 C   0  0  0  0  0  0  0  0  0  0  0  0
   23.2671   -5.7491  -14.8581 C   0  0  0  0  0  0  0  0  0  0  0  0
   24.7810   -9.3825  -16.9263 C   0  0  0  0  0  0  0  0  0  0  0  0
   24.2085  -10.3304  -17.5170 O   0  0  0  0  0  0  0  0  0  0  0  0
   29.8082  -10.1177  -19.7495 C   0  0  0  0  0  0  0  0  0  0  0  0
   29.3980  -11.6673  -18.9079 S   0  0  0  0  0  0  0  0  0  0  0  0
   29.3450  -11.3966  -17.0795 C   0  0  0  0  0  0  0  0  0  0  0  0
   28.4192  -10.2682  -16.7635 C   0  0  0  0  0  0  0  0  0  0  0  0
   26.9622  -10.6792  -16.9098 C   0  0  2  0  0  0  0  0  0  0  0  0
   26.1324   -9.5173  -16.5347 N   0  0  0  0  0  0  0  0  0  0  0  0
   26.6899  -11.7217  -15.9008 C   0  0  0  0  0  0  0  0  0  0  0  0
   26.7813  -11.4175  -14.6823 O   0  0  0  0  0  0  0  0  0  0  0  0
   26.3220  -13.0593  -16.1951 N   0  0  0  0  0  0  0  0  0  0  0  0
   26.1302  -13.9964  -15.1062 C   0  0  0  0  0  0  0  0  0  0  0  0
   25.7192  -15.3305  -15.6130 C   0  0  0  0  0  0  0  0  0  0  0  0
   25.5696  -15.5269  -16.8408 O   0  0  0  0  0  0  0  0  0  0  0  0
   25.5052  -16.3472  -14.7162 O   0  0  0  0  0  0  0  0  0  0  0  0
  2  1  1  6
  2 10  1  0
  3  2  1  0
  4  3  1  0
  4  9  2  0
  5  4  1  0
  6  5  2  0
  6  7  1  0
  7  8  2  0
  8  9  1  0
 10 11  2  0
 12 13  1  0
 13 14  1  0
 14 15  1  0
 16 15  1  1
 16 18  1  0
 17 10  1  0
 17 16  1  0
 18 19  2  0
 20 21  1  0
 20 18  1  0
 21 22  1  0
 22 23  2  0
 22 24  1  0
M  END
$$$$
