FMG.pdb
     RDKit          3D

 24 24  0  0  1  0  0  0  0  0999 V2000
   26.1975  -21.4671  -13.5767 N   0  0  0  0  0  0  0  0  0  0  0  0
   25.3941  -20.6449  -12.6908 C   0  0  1  0  0  0  0  0  0  0  0  0
   23.9209  -20.7637  -13.0213 C   0  0  0  0  0  0  0  0  0  0  0  0
   23.5491  -20.1003  -14.2730 C   0  0  0  0  0  0  0  0  0  0  0  0
   23.1093  -18.8008  -14.2450 C   0  0  0  0  0  0  0  0  0  0  0  0
   22.7419  -18.1182  -15.3978 C   0  0  0  0  0  0  0  0  0  0  0  0
   22.8468  -18.8349  -16.5925 C   0  0  0  0  0  0  0  0  0  0  0  0
   23.2855  -20.1364  -16.6365 C   0  0  0  0  0  0  0  0  0  0  0  0
   23.6437  -20.7902  -15.4779 C   0  0  0  0  0  0  0  0  0  0  0  0
   25.5827  -21.1279  -11.2971 C   0  0  0  0  0  0  0  0  0  0  0  0
   25.5687  -22.3687  -11.1088 O   0  0  0  0  0  0  0  0  0  0  0  0
   29.7097  -19.0942   -6.4885 C   0  0  0  0  0  0  0  0  0  0  0  0
   28.0533  -18.9462   -5.7728 S   0  0  0  0  0  0  0  0  0  0  0  0
   26.8961  -20.1174   -6.6144 C   0  0  0  0  0  0  0  0  0  0  0  0
   26.8019  -19.7776   -8.0656 C   0  0  0  0  0  0  0  0  0  0  0  0
   25.8822  -20.7348   -8.8080 C   0  0  2  0  0  0  0  0  0  0  0  0
   25.7730  -20.2567  -10.2004 N   0  0  0  0  0  0  0  0  0  0  0  0
   24.5342  -20.6027   -8.2213 C   0  0  0  0  0  0  0  0  0  0  0  0
   23.6670  -19.9408   -8.8500 O   0  0  0  0  0  0  0  0  0  0  0  0
   24.1261  -21.1740   -6.9891 N   0  0  0  0  0  0  0  0  0  0  0  0
   23.4962  -22.4794   -6.9885 C   0  0  0  0  0  0  0  0  0  0  0  0
   22.0161  -22.3604   -6.9617 C   0  0  0  0  0  0  0  0  0  0  0  0
   21.4648  -21.2422   -7.0801 O   0  0  0  0  0  0  0  0  0  0  0  0
   21.2591  -23.4945   -6.8052 O   0  0  0  0  0  0  0  0  0  0  0  0
  2  1  1  6
  2 10  1  0
  3  2  1  0
  4  3  1  0
  4  9  2  0
  5  4  1  0
  6  5  2  0
  6  7  1  0
  7  8  2  0
  8  9  1  0
 10 11  2  0
 12 13  1  0
 13 14  1  0
 14 15  1  0
 16 15  1  1
 16 18  1  0
 17 10  1  0
 17 16  1  0
 18 19  2  0
 20 21  1  0
 20 18  1  0
 21 22  1  0
 22 23  2  0
 22 24  1  0
M  END
$$$$
