FMG.pdb
     RDKit          3D

 24 24  0  0  1  0  0  0  0  0999 V2000
   21.3000  -19.5623  -13.1772 N   0  0  0  0  0  0  0  0  0  0  0  0
   22.2073  -20.6881  -13.0522 C   0  0  1  0  0  0  0  0  0  0  0  0
   22.5556  -21.2627  -14.4096 C   0  0  0  0  0  0  0  0  0  0  0  0
   21.4366  -21.9532  -15.0546 C   0  0  0  0  0  0  0  0  0  0  0  0
   20.6969  -21.2990  -16.0074 C   0  0  0  0  0  0  0  0  0  0  0  0
   19.6242  -21.9000  -16.6539 C   0  0  0  0  0  0  0  0  0  0  0  0
   19.3412  -23.2149  -16.2761 C   0  0  0  0  0  0  0  0  0  0  0  0
   20.0727  -23.8831  -15.3239 C   0  0  0  0  0  0  0  0  0  0  0  0
   21.1320  -23.2634  -14.6977 C   0  0  0  0  0  0  0  0  0  0  0  0
   23.4700  -20.2106  -12.4286 C   0  0  0  0  0  0  0  0  0  0  0  0
   23.9760  -19.1558  -12.8832 O   0  0  0  0  0  0  0  0  0  0  0  0
   26.7562  -18.5220   -6.9666 C   0  0  0  0  0  0  0  0  0  0  0  0
   26.7206  -20.3246   -7.1313 S   0  0  0  0  0  0  0  0  0  0  0  0
   26.9495  -20.8002   -8.9034 C   0  0  0  0  0  0  0  0  0  0  0  0
   25.6293  -21.1538   -9.5052 C   0  0  0  0  0  0  0  0  0  0  0  0
   25.4572  -20.5360  -10.8843 C   0  0  2  0  0  0  0  0  0  0  0  0
   24.1066  -20.8890  -11.3645 N   0  0  0  0  0  0  0  0  0  0  0  0
   26.4055  -21.2072  -11.7948 C   0  0  0  0  0  0  0  0  0  0  0  0
   26.6946  -22.4136  -11.5791 O   0  0  0  0  0  0  0  0  0  0  0  0
   27.0249  -20.5968  -12.9151 N   0  0  0  0  0  0  0  0  0  0  0  0
   27.9000  -21.3872  -13.7577 C   0  0  0  0  0  0  0  0  0  0  0  0
   28.4595  -20.5705  -14.8648 C   0  0  0  0  0  0  0  0  0  0  0  0
   28.0576  -19.4004  -15.0592 O   0  0  0  0  0  0  0  0  0  0  0  0
   29.4247  -21.1163  -15.6736 O   0  0  0  0  0  0  0  0  0  0  0  0
  2  1  1  6
  2 10  1  0
  3  2  1  0
  4  3  1  0
  4  9  2  0
  5  4  1  0
  6  5  2  0
  6  7  1  0
  7  8  2  0
  8  9  1  0
 10 11  2  0
 12 13  1  0
 13 14  1  0
 14 15  1  0
 16 15  1  1
 16 18  1  0
 17 10  1  0
 17 16  1  0
 18 19  2  0
 20 21  1  0
 20 18  1  0
 21 22  1  0
 22 23  2  0
 22 24  1  0
M  END
$$$$
