FMG.pdb
     RDKit          3D

 24 24  0  0  1  0  0  0  0  0999 V2000
   27.7239  -21.0799  -14.9044 N   0  0  0  0  0  0  0  0  0  0  0  0
   27.2401  -20.0300  -14.0269 C   0  0  1  0  0  0  0  0  0  0  0  0
   26.3094  -19.0886  -14.7625 C   0  0  0  0  0  0  0  0  0  0  0  0
   27.0019  -18.1912  -15.6900 C   0  0  0  0  0  0  0  0  0  0  0  0
   27.0305  -18.4927  -17.0284 C   0  0  0  0  0  0  0  0  0  0  0  0
   27.6712  -17.6818  -17.9567 C   0  0  0  0  0  0  0  0  0  0  0  0
   28.2874  -16.5366  -17.4462 C   0  0  0  0  0  0  0  0  0  0  0  0
   28.2674  -16.2214  -16.1089 C   0  0  0  0  0  0  0  0  0  0  0  0
   27.6245  -17.0432  -15.2092 C   0  0  0  0  0  0  0  0  0  0  0  0
   26.4655  -20.6564  -12.9228 C   0  0  0  0  0  0  0  0  0  0  0  0
   25.9145  -21.7595  -13.1571 O   0  0  0  0  0  0  0  0  0  0  0  0
   27.6971  -19.0855   -6.3845 C   0  0  0  0  0  0  0  0  0  0  0  0
   27.6783  -20.6503   -7.2949 S   0  0  0  0  0  0  0  0  0  0  0  0
   26.0354  -20.8855   -8.1102 C   0  0  0  0  0  0  0  0  0  0  0  0
   25.9088  -19.9510   -9.2682 C   0  0  0  0  0  0  0  0  0  0  0  0
   25.5628  -20.6905  -10.5514 C   0  0  2  0  0  0  0  0  0  0  0  0
   26.3310  -20.0652  -11.6461 N   0  0  0  0  0  0  0  0  0  0  0  0
   24.1402  -20.4295  -10.8463 C   0  0  0  0  0  0  0  0  0  0  0  0
   23.6659  -19.2974  -10.5658 O   0  0  0  0  0  0  0  0  0  0  0  0
   23.2492  -21.3628  -11.4348 N   0  0  0  0  0  0  0  0  0  0  0  0
   21.8607  -20.9929  -11.6245 C   0  0  0  0  0  0  0  0  0  0  0  0
   21.1224  -22.0450  -12.3685 C   0  0  0  0  0  0  0  0  0  0  0  0
   19.8792  -21.9768  -12.5026 O   0  0  0  0  0  0  0  0  0  0  0  0
   21.8222  -23.0951  -12.9082 O   0  0  0  0  0  0  0  0  0  0  0  0
  2  1  1  6
  2 10  1  0
  3  2  1  0
  4  3  1  0
  4  9  2  0
  5  4  1  0
  6  5  2  0
  6  7  1  0
  7  8  2  0
  8  9  1  0
 10 11  2  0
 12 13  1  0
 13 14  1  0
 14 15  1  0
 16 15  1  1
 16 18  1  0
 17 10  1  0
 17 16  1  0
 18 19  2  0
 20 21  1  0
 20 18  1  0
 21 22  1  0
 22 23  2  0
 22 24  1  0
M  END
$$$$
