FMG.pdb
     RDKit          3D

 24 24  0  0  1  0  0  0  0  0999 V2000
   25.6504  -31.9856   -0.0361 N   0  0  0  0  0  0  0  0  0  0  0  0
   25.5873  -32.4455    1.3390 C   0  0  1  0  0  0  0  0  0  0  0  0
   24.5557  -33.5424    1.5016 C   0  0  0  0  0  0  0  0  0  0  0  0
   23.1752  -33.0555    1.4556 C   0  0  0  0  0  0  0  0  0  0  0  0
   22.4353  -33.2269    0.3128 C   0  0  0  0  0  0  0  0  0  0  0  0
   21.1219  -32.7868    0.2079 C   0  0  0  0  0  0  0  0  0  0  0  0
   20.5958  -32.1568    1.3385 C   0  0  0  0  0  0  0  0  0  0  0  0
   21.3242  -31.9778    2.4899 C   0  0  0  0  0  0  0  0  0  0  0  0
   22.6254  -32.4241    2.5673 C   0  0  0  0  0  0  0  0  0  0  0  0
   26.9107  -33.0144    1.7083 C   0  0  0  0  0  0  0  0  0  0  0  0
   27.6339  -33.4461    0.7778 O   0  0  0  0  0  0  0  0  0  0  0  0
   30.9394  -32.6501    7.5077 C   0  0  0  0  0  0  0  0  0  0  0  0
   30.1800  -31.3283    6.5310 S   0  0  0  0  0  0  0  0  0  0  0  0
   29.8953  -31.9087    4.7986 C   0  0  0  0  0  0  0  0  0  0  0  0
   29.0217  -33.1200    4.8098 C   0  0  0  0  0  0  0  0  0  0  0  0
   28.7085  -33.5996    3.4009 C   0  0  2  0  0  0  0  0  0  0  0  0
   27.3723  -33.0845    3.0423 N   0  0  0  0  0  0  0  0  0  0  0  0
   28.5833  -35.0696    3.4481 C   0  0  0  0  0  0  0  0  0  0  0  0
   27.4403  -35.5705    3.6163 O   0  0  0  0  0  0  0  0  0  0  0  0
   29.6616  -35.9806    3.3121 N   0  0  0  0  0  0  0  0  0  0  0  0
   29.3929  -37.4046    3.3403 C   0  0  0  0  0  0  0  0  0  0  0  0
   29.4021  -37.9245    4.7314 C   0  0  0  0  0  0  0  0  0  0  0  0
   29.0281  -37.2023    5.6837 O   0  0  0  0  0  0  0  0  0  0  0  0
   29.8267  -39.2095    4.9598 O   0  0  0  0  0  0  0  0  0  0  0  0
  2  1  1  6
  2 10  1  0
  3  2  1  0
  4  3  1  0
  4  9  2  0
  5  4  1  0
  6  5  2  0
  6  7  1  0
  7  8  2  0
  8  9  1  0
 10 11  2  0
 12 13  1  0
 13 14  1  0
 14 15  1  0
 16 15  1  1
 16 18  1  0
 17 10  1  0
 17 16  1  0
 18 19  2  0
 20 21  1  0
 20 18  1  0
 21 22  1  0
 22 23  2  0
 22 24  1  0
M  END
$$$$
