FMG.pdb
     RDKit          3D

 24 24  0  0  1  0  0  0  0  0999 V2000
   28.4775  -21.0691  -13.4746 N   0  0  0  0  0  0  0  0  0  0  0  0
   27.6707  -20.0961  -12.7615 C   0  0  1  0  0  0  0  0  0  0  0  0
   26.5898  -19.5230  -13.6542 C   0  0  0  0  0  0  0  0  0  0  0  0
   27.1101  -18.6720  -14.7266 C   0  0  0  0  0  0  0  0  0  0  0  0
   27.4037  -17.3574  -14.4647 C   0  0  0  0  0  0  0  0  0  0  0  0
   27.8992  -16.5007  -15.4396 C   0  0  0  0  0  0  0  0  0  0  0  0
   28.0820  -17.0578  -16.7077 C   0  0  0  0  0  0  0  0  0  0  0  0
   27.7927  -18.3722  -16.9852 C   0  0  0  0  0  0  0  0  0  0  0  0
   27.3022  -19.2006  -15.9996 C   0  0  0  0  0  0  0  0  0  0  0  0
   26.9992  -20.7807  -11.6250 C   0  0  0  0  0  0  0  0  0  0  0  0
   26.6342  -21.9687  -11.8004 O   0  0  0  0  0  0  0  0  0  0  0  0
   27.2279  -20.3964   -4.7339 C   0  0  0  0  0  0  0  0  0  0  0  0
   28.1320  -19.5785   -6.0724 S   0  0  0  0  0  0  0  0  0  0  0  0
   27.7091  -20.3654   -7.6914 C   0  0  0  0  0  0  0  0  0  0  0  0
   26.2724  -20.1156   -8.0135 C   0  0  0  0  0  0  0  0  0  0  0  0
   25.8806  -20.7315   -9.3477 C   0  0  2  0  0  0  0  0  0  0  0  0
   26.7626  -20.1534  -10.3807 N   0  0  0  0  0  0  0  0  0  0  0  0
   24.5154  -20.2702   -9.6677 C   0  0  0  0  0  0  0  0  0  0  0  0
   24.0344  -19.3120   -9.0075 O   0  0  0  0  0  0  0  0  0  0  0  0
   23.6883  -20.8228  -10.6785 N   0  0  0  0  0  0  0  0  0  0  0  0
   22.6907  -21.8096  -10.3155 C   0  0  0  0  0  0  0  0  0  0  0  0
   21.3568  -21.4487  -10.8595 C   0  0  0  0  0  0  0  0  0  0  0  0
   20.5080  -20.8771  -10.1376 O   0  0  0  0  0  0  0  0  0  0  0  0
   21.0662  -21.7505  -12.1664 O   0  0  0  0  0  0  0  0  0  0  0  0
  2  1  1  6
  2 10  1  0
  3  2  1  0
  4  3  1  0
  4  9  2  0
  5  4  1  0
  6  5  2  0
  6  7  1  0
  7  8  2  0
  8  9  1  0
 10 11  2  0
 12 13  1  0
 13 14  1  0
 14 15  1  0
 16 15  1  1
 16 18  1  0
 17 10  1  0
 17 16  1  0
 18 19  2  0
 20 21  1  0
 20 18  1  0
 21 22  1  0
 22 23  2  0
 22 24  1  0
M  END
$$$$
