FMG.pdb
     RDKit          3D

 24 24  0  0  1  0  0  0  0  0999 V2000
   21.8042  -18.8940  -14.3103 N   0  0  0  0  0  0  0  0  0  0  0  0
   22.4025  -20.1868  -14.0329 C   0  0  1  0  0  0  0  0  0  0  0  0
   22.7153  -20.9306  -15.3146 C   0  0  0  0  0  0  0  0  0  0  0  0
   21.5214  -21.3230  -16.0668 C   0  0  0  0  0  0  0  0  0  0  0  0
   20.8427  -22.4617  -15.7123 C   0  0  0  0  0  0  0  0  0  0  0  0
   19.7049  -22.8860  -16.3870 C   0  0  0  0  0  0  0  0  0  0  0  0
   19.2901  -22.0825  -17.4520 C   0  0  0  0  0  0  0  0  0  0  0  0
   19.9591  -20.9397  -17.8188 C   0  0  0  0  0  0  0  0  0  0  0  0
   21.0854  -20.5413  -17.1324 C   0  0  0  0  0  0  0  0  0  0  0  0
   23.6862  -19.9692  -13.3145 C   0  0  0  0  0  0  0  0  0  0  0  0
   24.4165  -19.0277  -13.7089 O   0  0  0  0  0  0  0  0  0  0  0  0
   25.8936  -19.0422   -7.5484 C   0  0  0  0  0  0  0  0  0  0  0  0
   26.2064  -20.8175   -7.7168 S   0  0  0  0  0  0  0  0  0  0  0  0
   26.6252  -21.2199   -9.4724 C   0  0  0  0  0  0  0  0  0  0  0  0
   25.3701  -21.3918  -10.2634 C   0  0  0  0  0  0  0  0  0  0  0  0
   25.4066  -20.5909  -11.5558 C   0  0  2  0  0  0  0  0  0  0  0  0
   24.1036  -20.7688  -12.2264 N   0  0  0  0  0  0  0  0  0  0  0  0
   26.4117  -21.2150  -12.4385 C   0  0  0  0  0  0  0  0  0  0  0  0
   26.2726  -22.4284  -12.7444 O   0  0  0  0  0  0  0  0  0  0  0  0
   27.5379  -20.5480  -12.9846 N   0  0  0  0  0  0  0  0  0  0  0  0
   28.4758  -21.2942  -13.7995 C   0  0  0  0  0  0  0  0  0  0  0  0
   28.1478  -21.1714  -15.2428 C   0  0  0  0  0  0  0  0  0  0  0  0
   27.1023  -20.5887  -15.6110 O   0  0  0  0  0  0  0  0  0  0  0  0
   29.0076  -21.7061  -16.1694 O   0  0  0  0  0  0  0  0  0  0  0  0
  2  1  1  6
  2 10  1  0
  3  2  1  0
  4  3  1  0
  4  9  2  0
  5  4  1  0
  6  5  2  0
  6  7  1  0
  7  8  2  0
  8  9  1  0
 10 11  2  0
 12 13  1  0
 13 14  1  0
 14 15  1  0
 16 15  1  1
 16 18  1  0
 17 10  1  0
 17 16  1  0
 18 19  2  0
 20 21  1  0
 20 18  1  0
 21 22  1  0
 22 23  2  0
 22 24  1  0
M  END
$$$$
