FMG.pdb
     RDKit          3D

 24 24  0  0  1  0  0  0  0  0999 V2000
   20.7782  -12.3390  -19.6617 N   0  0  0  0  0  0  0  0  0  0  0  0
   21.1013  -10.9247  -19.7029 C   0  0  1  0  0  0  0  0  0  0  0  0
   20.4683  -10.2543  -20.9045 C   0  0  0  0  0  0  0  0  0  0  0  0
   21.0149  -10.7137  -22.1832 C   0  0  0  0  0  0  0  0  0  0  0  0
   20.3570  -11.6899  -22.8884 C   0  0  0  0  0  0  0  0  0  0  0  0
   20.8255  -12.1672  -24.1060 C   0  0  0  0  0  0  0  0  0  0  0  0
   22.0105  -11.5930  -24.5729 C   0  0  0  0  0  0  0  0  0  0  0  0
   22.6805  -10.6148  -23.8783 C   0  0  0  0  0  0  0  0  0  0  0  0
   22.1939  -10.1592  -22.6725 C   0  0  0  0  0  0  0  0  0  0  0  0
   20.5480  -10.2777  -18.4837 C   0  0  0  0  0  0  0  0  0  0  0  0
   19.5277  -10.7953  -17.9675 O   0  0  0  0  0  0  0  0  0  0  0  0
   23.0981  -10.1091  -13.3209 C   0  0  0  0  0  0  0  0  0  0  0  0
   22.1711   -8.6170  -12.8826 S   0  0  0  0  0  0  0  0  0  0  0  0
   21.0359   -8.1513  -14.2659 C   0  0  0  0  0  0  0  0  0  0  0  0
   21.4990   -8.7887  -15.5346 C   0  0  0  0  0  0  0  0  0  0  0  0
   20.5626   -8.4800  -16.6927 C   0  0  2  0  0  0  0  0  0  0  0  0
   21.1189   -9.1247  -17.8986 N   0  0  0  0  0  0  0  0  0  0  0  0
   20.6230   -7.0259  -16.9391 C   0  0  0  0  0  0  0  0  0  0  0  0
   21.6378   -6.5557  -17.5175 O   0  0  0  0  0  0  0  0  0  0  0  0
   19.6126   -6.0989  -16.5768 N   0  0  0  0  0  0  0  0  0  0  0  0
   19.8488   -4.6824  -16.7724 C   0  0  0  0  0  0  0  0  0  0  0  0
   20.5020   -4.0785  -15.5831 C   0  0  0  0  0  0  0  0  0  0  0  0
   20.7598   -4.7758  -14.5753 O   0  0  0  0  0  0  0  0  0  0  0  0
   20.8201   -2.7435  -15.6034 O   0  0  0  0  0  0  0  0  0  0  0  0
  2  1  1  1
  2 10  1  0
  3  2  1  0
  4  3  1  0
  4  9  2  0
  5  4  1  0
  6  5  2  0
  6  7  1  0
  7  8  2  0
  8  9  1  0
 10 11  2  0
 12 13  1  0
 13 14  1  0
 14 15  1  0
 16 15  1  1
 16 18  1  0
 17 10  1  0
 17 16  1  0
 18 19  2  0
 20 21  1  0
 20 18  1  0
 21 22  1  0
 22 23  2  0
 22 24  1  0
M  END
$$$$
