DKS.pdb
     RDKit          3D

 24 23  0  0  1  0  0  0  0  0999 V2000
   20.5252  -11.0779  -17.9373 N   0  0  0  0  0  0  0  0  0  0  0  0
   20.1112  -10.8854  -16.5839 C   0  0  1  0  0  0  0  0  0  0  0  0
   19.9442  -12.2107  -15.9081 C   0  0  0  0  0  0  0  0  0  0  0  0
   18.8844  -12.9765  -16.6080 C   0  0  0  0  0  0  0  0  0  0  0  0
   17.8900  -12.4232  -17.1496 O   0  0  0  0  0  0  0  0  0  0  0  0
   21.0091   -9.9785  -15.8273 C   0  0  0  0  0  0  0  0  0  0  0  0
   20.7085   -9.6720  -14.6475 O   0  0  0  0  0  0  0  0  0  0  0  0
   18.9655  -14.3656  -16.6856 O   0  0  0  0  0  0  0  0  0  0  0  0
   22.1987   -9.4307  -16.3605 N   0  0  0  0  0  0  0  0  0  0  0  0
   23.0346   -8.4677  -15.6752 C   0  0  1  0  0  0  0  0  0  0  0  0
   24.4731   -8.6922  -16.1303 C   0  0  0  0  0  0  0  0  0  0  0  0
   24.9065  -10.0917  -15.7492 C   0  0  0  0  0  0  0  0  0  0  0  0
   26.3707  -10.2370  -16.1568 C   0  0  0  0  0  0  0  0  0  0  0  0
   26.8777  -11.6323  -15.8436 C   0  0  0  0  0  0  0  0  0  0  0  0
   28.2817  -11.6637  -16.1914 N   0  0  0  0  0  0  0  0  0  0  0  0
   22.5791   -7.0970  -15.9934 C   0  0  0  0  0  0  0  0  0  0  0  0
   23.2310   -6.1289  -15.5251 O   0  0  0  0  0  0  0  0  0  0  0  0
   20.5819   -6.0581  -19.3215 O   0  0  0  0  0  0  0  0  0  0  0  0
   20.1095   -5.3603  -18.2326 C   0  0  0  0  0  0  0  0  0  0  0  0
   21.1000   -5.4464  -17.0601 C   0  0  2  0  0  0  0  0  0  0  0  0
   21.4609   -6.8033  -16.7880 N   0  0  0  0  0  0  0  0  0  0  0  0
   20.4210   -4.7908  -15.9214 C   0  0  0  0  0  0  0  0  0  0  0  0
   19.6234   -5.4526  -15.2266 O   0  0  0  0  0  0  0  0  0  0  0  0
   20.6503   -3.4687  -15.6130 O   0  0  0  0  0  0  0  0  0  0  0  0
  2  1  1  6
  2  6  1  0
  2  3  1  0
  3  4  1  0
  4  5  2  0
  4  8  1  0
  6  7  2  0
  9 10  1  0
  9  6  1  0
 10 11  1  6
 11 12  1  0
 12 13  1  0
 13 14  1  0
 15 14  1  0
 16 17  2  0
 16 10  1  0
 18 19  1  0
 20 19  1  6
 20 22  1  0
 20 21  1  0
 21 16  1  0
 22 24  1  0
 23 22  2  0
M  END
$$$$
