DKS.pdb
     RDKit          3D

 24 23  0  0  1  0  0  0  0  0999 V2000
   17.2979  -32.2539   -9.2039 N   0  0  0  0  0  0  0  0  0  0  0  0
   18.2970  -31.7282   -8.3289 C   0  0  1  0  0  0  0  0  0  0  0  0
   17.6844  -31.3739   -7.0096 C   0  0  0  0  0  0  0  0  0  0  0  0
   16.8246  -30.1784   -7.1850 C   0  0  0  0  0  0  0  0  0  0  0  0
   16.7339  -29.5601   -8.2794 O   0  0  0  0  0  0  0  0  0  0  0  0
   19.4680  -32.6270   -8.1809 C   0  0  0  0  0  0  0  0  0  0  0  0
   19.3277  -33.7101   -7.5618 O   0  0  0  0  0  0  0  0  0  0  0  0
   16.0753  -29.6968   -6.1132 O   0  0  0  0  0  0  0  0  0  0  0  0
   20.7499  -32.3347   -8.7013 N   0  0  0  0  0  0  0  0  0  0  0  0
   21.9203  -33.1642   -8.5066 C   0  0  1  0  0  0  0  0  0  0  0  0
   22.9429  -32.7849   -9.5731 C   0  0  0  0  0  0  0  0  0  0  0  0
   24.1684  -33.6613   -9.4262 C   0  0  0  0  0  0  0  0  0  0  0  0
   25.1246  -33.2927  -10.5580 C   0  0  0  0  0  0  0  0  0  0  0  0
   26.3300  -34.2142  -10.5620 C   0  0  0  0  0  0  0  0  0  0  0  0
   27.1747  -33.8062  -11.6634 N   0  0  0  0  0  0  0  0  0  0  0  0
   22.4605  -32.9522   -7.1461 C   0  0  0  0  0  0  0  0  0  0  0  0
   22.4127  -31.7933   -6.6602 O   0  0  0  0  0  0  0  0  0  0  0  0
   22.5049  -33.0761   -2.8550 O   0  0  0  0  0  0  0  0  0  0  0  0
   22.1446  -33.3747   -4.1498 C   0  0  0  0  0  0  0  0  0  0  0  0
   23.3839  -33.7093   -4.9958 C   0  0  2  0  0  0  0  0  0  0  0  0
   23.0261  -33.9646   -6.3568 N   0  0  0  0  0  0  0  0  0  0  0  0
   24.0090  -34.8757   -4.3353 C   0  0  0  0  0  0  0  0  0  0  0  0
   24.5359  -34.7289   -3.2139 O   0  0  0  0  0  0  0  0  0  0  0  0
   24.0214  -36.1170   -4.9310 O   0  0  0  0  0  0  0  0  0  0  0  0
  2  1  1  6
  2  6  1  0
  2  3  1  0
  3  4  1  0
  4  5  2  0
  4  8  1  0
  6  7  2  0
  9 10  1  0
  9  6  1  0
 10 11  1  6
 11 12  1  0
 12 13  1  0
 13 14  1  0
 15 14  1  0
 16 17  2  0
 16 10  1  0
 18 19  1  0
 20 19  1  1
 20 22  1  0
 20 21  1  0
 21 16  1  0
 22 24  1  0
 23 22  2  0
M  END
$$$$
