DKS.pdb
     RDKit          3D

 24 23  0  0  1  0  0  0  0  0999 V2000
   15.8459  -10.0994  -16.9415 N   0  0  0  0  0  0  0  0  0  0  0  0
   16.2795   -8.7463  -17.0878 C   0  0  1  0  0  0  0  0  0  0  0  0
   15.5284   -7.8646  -16.1394 C   0  0  0  0  0  0  0  0  0  0  0  0
   14.1071   -7.8086  -16.5590 C   0  0  0  0  0  0  0  0  0  0  0  0
   13.7118   -8.2264  -17.6803 O   0  0  0  0  0  0  0  0  0  0  0  0
   17.7490   -8.5917  -16.9541 C   0  0  0  0  0  0  0  0  0  0  0  0
   18.3321   -9.1425  -15.9883 O   0  0  0  0  0  0  0  0  0  0  0  0
   13.1479   -7.2775  -15.6988 O   0  0  0  0  0  0  0  0  0  0  0  0
   18.5440   -7.8520  -17.8598 N   0  0  0  0  0  0  0  0  0  0  0  0
   19.9764   -7.6807  -17.7396 C   0  0  1  0  0  0  0  0  0  0  0  0
   20.5331   -7.4185  -19.1354 C   0  0  0  0  0  0  0  0  0  0  0  0
   20.7292   -8.7373  -19.8524 C   0  0  0  0  0  0  0  0  0  0  0  0
   21.3232   -8.4214  -21.2229 C   0  0  0  0  0  0  0  0  0  0  0  0
   21.5836   -9.6977  -22.0007 C   0  0  0  0  0  0  0  0  0  0  0  0
   22.0691   -9.3093  -23.3070 N   0  0  0  0  0  0  0  0  0  0  0  0
   20.2686   -6.5553  -16.8254 C   0  0  0  0  0  0  0  0  0  0  0  0
   19.5512   -5.5252  -16.9006 O   0  0  0  0  0  0  0  0  0  0  0  0
   22.2769   -4.8185  -12.8186 O   0  0  0  0  0  0  0  0  0  0  0  0
   22.1233   -5.8916  -13.6675 C   0  0  0  0  0  0  0  0  0  0  0  0
   21.4784   -5.4498  -14.9912 C   0  0  2  0  0  0  0  0  0  0  0  0
   21.2995   -6.5607  -15.8741 N   0  0  0  0  0  0  0  0  0  0  0  0
   22.3791   -4.4144  -15.5424 C   0  0  0  0  0  0  0  0  0  0  0  0
   23.4185   -4.7665  -16.1361 O   0  0  0  0  0  0  0  0  0  0  0  0
   22.0951   -3.0732  -15.4143 O   0  0  0  0  0  0  0  0  0  0  0  0
  2  1  1  1
  2  6  1  0
  2  3  1  0
  3  4  1  0
  4  5  2  0
  4  8  1  0
  6  7  2  0
  9 10  1  0
  9  6  1  0
 10 11  1  6
 11 12  1  0
 12 13  1  0
 13 14  1  0
 15 14  1  0
 16 17  2  0
 16 10  1  0
 18 19  1  0
 20 19  1  1
 20 22  1  0
 20 21  1  0
 21 16  1  0
 22 24  1  0
 23 22  2  0
M  END
$$$$
