DKS.pdb
     RDKit          3D

 24 23  0  0  1  0  0  0  0  0999 V2000
   27.5713  -33.8925   -5.5117 N   0  0  0  0  0  0  0  0  0  0  0  0
   26.2872  -34.2500   -4.9984 C   0  0  1  0  0  0  0  0  0  0  0  0
   26.2270  -33.9638   -3.5302 C   0  0  0  0  0  0  0  0  0  0  0  0
   26.3293  -35.2430   -2.7870 C   0  0  0  0  0  0  0  0  0  0  0  0
   26.2290  -35.3111   -1.5325 O   0  0  0  0  0  0  0  0  0  0  0  0
   25.1700  -33.6156   -5.7404 C   0  0  0  0  0  0  0  0  0  0  0  0
   24.7939  -32.4658   -5.4049 O   0  0  0  0  0  0  0  0  0  0  0  0
   26.5449  -36.4339   -3.4778 O   0  0  0  0  0  0  0  0  0  0  0  0
   24.4937  -34.2347   -6.8168 N   0  0  0  0  0  0  0  0  0  0  0  0
   23.4329  -33.6140   -7.5817 C   0  0  1  0  0  0  0  0  0  0  0  0
   23.5111  -34.1508   -9.0074 C   0  0  0  0  0  0  0  0  0  0  0  0
   22.3964  -33.5443   -9.8329 C   0  0  0  0  0  0  0  0  0  0  0  0
   22.5084  -34.1274  -11.2395 C   0  0  0  0  0  0  0  0  0  0  0  0
   21.4011  -33.5948  -12.1296 C   0  0  0  0  0  0  0  0  0  0  0  0
   21.6628  -34.0750  -13.4690 N   0  0  0  0  0  0  0  0  0  0  0  0
   22.1256  -33.9235   -6.9630 C   0  0  0  0  0  0  0  0  0  0  0  0
   21.9312  -35.0892   -6.5331 O   0  0  0  0  0  0  0  0  0  0  0  0
   19.0794  -31.1689   -6.7355 O   0  0  0  0  0  0  0  0  0  0  0  0
   19.0337  -32.1561   -5.7769 C   0  0  0  0  0  0  0  0  0  0  0  0
   19.8426  -33.3850   -6.2228 C   0  0  2  0  0  0  0  0  0  0  0  0
   21.0816  -32.9971   -6.8230 N   0  0  0  0  0  0  0  0  0  0  0  0
   18.9587  -34.1235   -7.1506 C   0  0  0  0  0  0  0  0  0  0  0  0
   17.8788  -34.5818   -6.7257 O   0  0  0  0  0  0  0  0  0  0  0  0
   19.3021  -34.3152   -8.4700 O   0  0  0  0  0  0  0  0  0  0  0  0
  2  1  1  6
  2  6  1  0
  2  3  1  0
  3  4  1  0
  4  5  2  0
  4  8  1  0
  6  7  2  0
  9 10  1  0
  9  6  1  0
 10 11  1  6
 11 12  1  0
 12 13  1  0
 13 14  1  0
 15 14  1  0
 16 17  2  0
 16 10  1  0
 18 19  1  0
 20 19  1  6
 20 22  1  0
 20 21  1  0
 21 16  1  0
 22 24  1  0
 23 22  2  0
M  END
$$$$
