DKS.pdb
     RDKit          3D

 24 23  0  0  1  0  0  0  0  0999 V2000
   19.2278   -5.6739  -12.3058 N   0  0  0  0  0  0  0  0  0  0  0  0
   19.6598   -6.5849  -13.3175 C   0  0  1  0  0  0  0  0  0  0  0  0
   21.0863   -6.9721  -13.0801 C   0  0  0  0  0  0  0  0  0  0  0  0
   21.9330   -5.7570  -13.1584 C   0  0  0  0  0  0  0  0  0  0  0  0
   21.4610   -4.6130  -13.3964 O   0  0  0  0  0  0  0  0  0  0  0  0
   18.7720   -7.7662  -13.4502 C   0  0  0  0  0  0  0  0  0  0  0  0
   19.1080   -8.6940  -14.2263 O   0  0  0  0  0  0  0  0  0  0  0  0
   23.3097   -5.8545  -12.9653 O   0  0  0  0  0  0  0  0  0  0  0  0
   17.5543   -7.9133  -12.7466 N   0  0  0  0  0  0  0  0  0  0  0  0
   16.6201   -9.0008  -12.9471 C   0  0  1  0  0  0  0  0  0  0  0  0
   15.7760   -9.1290  -11.6830 C   0  0  0  0  0  0  0  0  0  0  0  0
   14.7828  -10.2583  -11.8562 C   0  0  0  0  0  0  0  0  0  0  0  0
   14.0526  -10.4246  -10.5258 C   0  0  0  0  0  0  0  0  0  0  0  0
   13.1023  -11.6061  -10.5806 C   0  0  0  0  0  0  0  0  0  0  0  0
   12.5703  -11.7874   -9.2475 N   0  0  0  0  0  0  0  0  0  0  0  0
   15.7763   -8.7212  -14.1294 C   0  0  0  0  0  0  0  0  0  0  0  0
   15.1847   -7.6132  -14.1903 O   0  0  0  0  0  0  0  0  0  0  0  0
   14.5939   -8.8882  -18.6288 O   0  0  0  0  0  0  0  0  0  0  0  0
   15.4423   -9.2684  -17.6133 C   0  0  0  0  0  0  0  0  0  0  0  0
   14.7014   -9.2934  -16.2665 C   0  0  2  0  0  0  0  0  0  0  0  0
   15.5912   -9.6157  -15.1940 N   0  0  0  0  0  0  0  0  0  0  0  0
   13.6155  -10.2837  -16.4321 C   0  0  0  0  0  0  0  0  0  0  0  0
   13.6474  -11.3379  -15.7656 O   0  0  0  0  0  0  0  0  0  0  0  0
   12.5727  -10.0668  -17.3046 O   0  0  0  0  0  0  0  0  0  0  0  0
  2  1  1  1
  2  6  1  0
  2  3  1  0
  3  4  1  0
  4  5  2  0
  4  8  1  0
  6  7  2  0
  9 10  1  0
  9  6  1  0
 10 11  1  1
 11 12  1  0
 12 13  1  0
 13 14  1  0
 15 14  1  0
 16 17  2  0
 16 10  1  0
 18 19  1  0
 20 19  1  6
 20 22  1  0
 20 21  1  0
 21 16  1  0
 22 24  1  0
 23 22  2  0
M  END
$$$$
