DKS.pdb
     RDKit          3D

 24 23  0  0  1  0  0  0  0  0999 V2000
   20.2718  -21.5287  -12.2151 N   0  0  0  0  0  0  0  0  0  0  0  0
   20.4259  -21.2499  -13.6074 C   0  0  1  0  0  0  0  0  0  0  0  0
   19.2966  -20.3902  -14.0836 C   0  0  0  0  0  0  0  0  0  0  0  0
   18.0973  -21.2395  -14.2823 C   0  0  0  0  0  0  0  0  0  0  0  0
   18.1345  -22.4971  -14.2098 O   0  0  0  0  0  0  0  0  0  0  0  0
   21.7510  -20.6704  -13.9385 C   0  0  0  0  0  0  0  0  0  0  0  0
   22.3145  -19.9253  -13.0999 O   0  0  0  0  0  0  0  0  0  0  0  0
   16.8658  -20.6502  -14.5619 O   0  0  0  0  0  0  0  0  0  0  0  0
   22.4274  -20.9091  -15.1572 N   0  0  0  0  0  0  0  0  0  0  0  0
   23.7962  -20.5199  -15.4227 C   0  0  1  0  0  0  0  0  0  0  0  0
   24.5751  -21.7784  -15.7921 C   0  0  0  0  0  0  0  0  0  0  0  0
   26.0278  -21.4193  -16.0211 C   0  0  0  0  0  0  0  0  0  0  0  0
   26.7514  -22.7022  -16.4230 C   0  0  0  0  0  0  0  0  0  0  0  0
   28.2397  -22.4513  -16.5781 C   0  0  0  0  0  0  0  0  0  0  0  0
   28.8627  -23.7306  -16.8390 N   0  0  0  0  0  0  0  0  0  0  0  0
   23.8284  -19.5279  -16.5193 C   0  0  0  0  0  0  0  0  0  0  0  0
   23.0707  -19.7070  -17.5069 O   0  0  0  0  0  0  0  0  0  0  0  0
   26.1891  -16.2981  -16.2614 O   0  0  0  0  0  0  0  0  0  0  0  0
   25.2777  -16.1482  -17.2825 C   0  0  0  0  0  0  0  0  0  0  0  0
   24.6430  -17.4999  -17.6478 C   0  0  2  0  0  0  0  0  0  0  0  0
   24.6532  -18.3933  -16.5309 N   0  0  0  0  0  0  0  0  0  0  0  0
   25.4247  -18.0047  -18.7973 C   0  0  0  0  0  0  0  0  0  0  0  0
   26.0592  -19.0726  -18.6788 O   0  0  0  0  0  0  0  0  0  0  0  0
   25.4667  -17.3224  -19.9924 O   0  0  0  0  0  0  0  0  0  0  0  0
  2  1  1  1
  2  6  1  0
  2  3  1  0
  3  4  1  0
  4  5  2  0
  4  8  1  0
  6  7  2  0
  9 10  1  0
  9  6  1  0
 10 11  1  6
 11 12  1  0
 12 13  1  0
 13 14  1  0
 15 14  1  0
 16 17  2  0
 16 10  1  0
 18 19  1  0
 20 19  1  1
 20 22  1  0
 20 21  1  0
 21 16  1  0
 22 24  1  0
 23 22  2  0
M  END
$$$$
