DKS.pdb
     RDKit          3D

 24 23  0  0  1  0  0  0  0  0999 V2000
   20.2831  -10.5568  -15.3007 N   0  0  0  0  0  0  0  0  0  0  0  0
   19.8972   -9.4249  -14.5197 C   0  0  1  0  0  0  0  0  0  0  0  0
   20.6806   -8.2217  -14.9436 C   0  0  0  0  0  0  0  0  0  0  0  0
   22.1207   -8.4744  -14.6952 C   0  0  0  0  0  0  0  0  0  0  0  0
   22.9314   -8.7548  -15.6184 O   0  0  0  0  0  0  0  0  0  0  0  0
   18.4343   -9.1785  -14.5411 C   0  0  0  0  0  0  0  0  0  0  0  0
   17.8907   -8.8437  -15.6221 O   0  0  0  0  0  0  0  0  0  0  0  0
   22.6257   -8.4058  -13.3981 O   0  0  0  0  0  0  0  0  0  0  0  0
   17.6034   -9.2992  -13.4033 N   0  0  0  0  0  0  0  0  0  0  0  0
   16.1665   -9.1242  -13.4176 C   0  0  1  0  0  0  0  0  0  0  0  0
   15.5837   -9.9624  -12.2843 C   0  0  0  0  0  0  0  0  0  0  0  0
   14.0721   -9.9107  -12.3490 C   0  0  0  0  0  0  0  0  0  0  0  0
   13.5427  -10.6439  -11.1189 C   0  0  0  0  0  0  0  0  0  0  0  0
   12.0333  -10.7817  -11.1861 C   0  0  0  0  0  0  0  0  0  0  0  0
   11.6115  -11.4464   -9.9723 N   0  0  0  0  0  0  0  0  0  0  0  0
   15.8373   -7.6920  -13.2495 C   0  0  0  0  0  0  0  0  0  0  0  0
   16.4260   -7.0479  -12.3440 O   0  0  0  0  0  0  0  0  0  0  0  0
   14.4478   -3.5527  -15.1481 O   0  0  0  0  0  0  0  0  0  0  0  0
   14.5970   -4.9147  -15.2835 C   0  0  0  0  0  0  0  0  0  0  0  0
   14.7550   -5.5838  -13.9085 C   0  0  2  0  0  0  0  0  0  0  0  0
   14.9061   -7.0002  -14.0382 N   0  0  0  0  0  0  0  0  0  0  0  0
   13.5495   -5.2002  -13.1424 C   0  0  0  0  0  0  0  0  0  0  0  0
   12.4921   -5.8405  -13.3124 O   0  0  0  0  0  0  0  0  0  0  0  0
   13.5698   -4.1538  -12.2478 O   0  0  0  0  0  0  0  0  0  0  0  0
  2  1  1  6
  2  6  1  0
  2  3  1  0
  3  4  1  0
  4  5  2  0
  4  8  1  0
  6  7  2  0
  9 10  1  0
  9  6  1  0
 10 11  1  1
 11 12  1  0
 12 13  1  0
 13 14  1  0
 15 14  1  0
 16 17  2  0
 16 10  1  0
 18 19  1  0
 20 19  1  6
 20 22  1  0
 20 21  1  0
 21 16  1  0
 22 24  1  0
 23 22  2  0
M  END
$$$$
