DKS.pdb
     RDKit          3D

 24 23  0  0  1  0  0  0  0  0999 V2000
   16.3544  -11.7032  -15.4353 N   0  0  0  0  0  0  0  0  0  0  0  0
   16.7220  -10.3944  -15.8737 C   0  0  1  0  0  0  0  0  0  0  0  0
   15.7127   -9.3955  -15.3998 C   0  0  0  0  0  0  0  0  0  0  0  0
   14.3932   -9.7297  -15.9886 C   0  0  0  0  0  0  0  0  0  0  0  0
   14.2694  -10.2479  -17.1307 O   0  0  0  0  0  0  0  0  0  0  0  0
   18.1051  -10.0217  -15.4873 C   0  0  0  0  0  0  0  0  0  0  0  0
   18.4632  -10.1715  -14.2934 O   0  0  0  0  0  0  0  0  0  0  0  0
   13.2260   -9.4713  -15.2724 O   0  0  0  0  0  0  0  0  0  0  0  0
   19.0576   -9.5010  -16.3934 N   0  0  0  0  0  0  0  0  0  0  0  0
   20.4263   -9.1808  -16.0470 C   0  0  1  0  0  0  0  0  0  0  0  0
   21.2992   -9.4959  -17.2576 C   0  0  0  0  0  0  0  0  0  0  0  0
   21.5141  -10.9919  -17.3445 C   0  0  0  0  0  0  0  0  0  0  0  0
   22.2920  -11.2619  -18.6301 C   0  0  0  0  0  0  0  0  0  0  0  0
   22.4357  -12.7538  -18.8658 C   0  0  0  0  0  0  0  0  0  0  0  0
   23.2469  -12.9218  -20.0519 N   0  0  0  0  0  0  0  0  0  0  0  0
   20.5244   -7.7534  -15.6720 C   0  0  0  0  0  0  0  0  0  0  0  0
   19.8357   -6.9201  -16.3145 O   0  0  0  0  0  0  0  0  0  0  0  0
   21.9547   -4.2468  -12.6920 O   0  0  0  0  0  0  0  0  0  0  0  0
   22.0629   -5.5804  -13.0168 C   0  0  0  0  0  0  0  0  0  0  0  0
   21.4269   -5.8593  -14.3884 C   0  0  2  0  0  0  0  0  0  0  0  0
   21.3399   -7.2644  -14.6407 N   0  0  0  0  0  0  0  0  0  0  0  0
   22.2765   -5.1489  -15.3687 C   0  0  0  0  0  0  0  0  0  0  0  0
   23.2238   -5.7578  -15.9060 O   0  0  0  0  0  0  0  0  0  0  0  0
   22.0442   -3.8328  -15.6998 O   0  0  0  0  0  0  0  0  0  0  0  0
  2  1  1  1
  2  6  1  0
  2  3  1  0
  3  4  1  0
  4  5  2  0
  4  8  1  0
  6  7  2  0
  9 10  1  0
  9  6  1  0
 10 11  1  6
 11 12  1  0
 12 13  1  0
 13 14  1  0
 15 14  1  0
 16 17  2  0
 16 10  1  0
 18 19  1  0
 20 19  1  1
 20 22  1  0
 20 21  1  0
 21 16  1  0
 22 24  1  0
 23 22  2  0
M  END
$$$$
