DKS.pdb
     RDKit          3D

 24 23  0  0  1  0  0  0  0  0999 V2000
   17.1639  -14.6411  -17.2696 N   0  0  0  0  0  0  0  0  0  0  0  0
   17.1557  -13.9795  -16.0037 C   0  0  1  0  0  0  0  0  0  0  0  0
   18.0794  -14.6797  -15.0562 C   0  0  0  0  0  0  0  0  0  0  0  0
   17.4014  -15.8893  -14.5304 C   0  0  0  0  0  0  0  0  0  0  0  0
   16.2256  -16.2058  -14.8555 O   0  0  0  0  0  0  0  0  0  0  0  0
   17.4506  -12.5292  -16.1065 C   0  0  0  0  0  0  0  0  0  0  0  0
   18.1855  -12.1238  -17.0401 O   0  0  0  0  0  0  0  0  0  0  0  0
   18.0673  -16.7284  -13.6390 O   0  0  0  0  0  0  0  0  0  0  0  0
   16.9481  -11.5623  -15.2054 N   0  0  0  0  0  0  0  0  0  0  0  0
   17.0844  -10.1318  -15.3809 C   0  0  1  0  0  0  0  0  0  0  0  0
   16.0027   -9.4547  -14.5451 C   0  0  0  0  0  0  0  0  0  0  0  0
   14.6700   -9.5831  -15.2515 C   0  0  0  0  0  0  0  0  0  0  0  0
   13.6420   -8.8237  -14.4164 C   0  0  0  0  0  0  0  0  0  0  0  0
   12.2643   -8.9215  -15.0445 C   0  0  0  0  0  0  0  0  0  0  0  0
   11.3941   -8.0345  -14.3036 N   0  0  0  0  0  0  0  0  0  0  0  0
   18.4356   -9.7044  -14.9573 C   0  0  0  0  0  0  0  0  0  0  0  0
   18.9104  -10.1921  -13.9000 O   0  0  0  0  0  0  0  0  0  0  0  0
   22.8417   -8.4447  -16.0351 O   0  0  0  0  0  0  0  0  0  0  0  0
   21.5386   -8.6038  -16.4500 C   0  0  0  0  0  0  0  0  0  0  0  0
   20.5742   -8.5266  -15.2552 C   0  0  2  0  0  0  0  0  0  0  0  0
   19.2275   -8.7852  -15.6615 N   0  0  0  0  0  0  0  0  0  0  0  0
   20.7557   -7.1724  -14.6889 C   0  0  0  0  0  0  0  0  0  0  0  0
   19.8766   -6.3089  -14.8847 O   0  0  0  0  0  0  0  0  0  0  0  0
   21.8719   -6.8458  -13.9519 O   0  0  0  0  0  0  0  0  0  0  0  0
  2  1  1  6
  2  6  1  0
  2  3  1  0
  3  4  1  0
  4  5  2  0
  4  8  1  0
  6  7  2  0
  9 10  1  0
  9  6  1  0
 10 11  1  1
 11 12  1  0
 12 13  1  0
 13 14  1  0
 15 14  1  0
 16 17  2  0
 16 10  1  0
 18 19  1  0
 20 19  1  6
 20 22  1  0
 20 21  1  0
 21 16  1  0
 22 24  1  0
 23 22  2  0
M  END
$$$$
