DKS.pdb
     RDKit          3D

 24 23  0  0  1  0  0  0  0  0999 V2000
   25.6968  -21.6580  -15.8768 N   0  0  0  0  0  0  0  0  0  0  0  0
   24.8256  -20.5314  -15.9857 C   0  0  1  0  0  0  0  0  0  0  0  0
   24.9219  -19.6907  -14.7508 C   0  0  0  0  0  0  0  0  0  0  0  0
   24.3043  -20.4256  -13.6203 C   0  0  0  0  0  0  0  0  0  0  0  0
   23.7568  -21.5521  -13.7591 O   0  0  0  0  0  0  0  0  0  0  0  0
   25.0519  -19.7420  -17.2214 C   0  0  0  0  0  0  0  0  0  0  0  0
   26.1397  -19.8722  -17.8343 O   0  0  0  0  0  0  0  0  0  0  0  0
   24.3153  -19.8719  -12.3415 O   0  0  0  0  0  0  0  0  0  0  0  0
   24.1047  -18.8397  -17.7583 N   0  0  0  0  0  0  0  0  0  0  0  0
   24.2422  -18.1744  -19.0367 C   0  0  1  0  0  0  0  0  0  0  0  0
   22.8470  -17.7745  -19.5062 C   0  0  0  0  0  0  0  0  0  0  0  0
   22.2080  -18.9413  -20.2287 C   0  0  0  0  0  0  0  0  0  0  0  0
   20.8383  -18.4747  -20.7157 C   0  0  0  0  0  0  0  0  0  0  0  0
   20.1168  -19.5961  -21.4393 C   0  0  0  0  0  0  0  0  0  0  0  0
   18.8074  -19.0975  -21.8000 N   0  0  0  0  0  0  0  0  0  0  0  0
   25.1186  -16.9918  -18.8911 C   0  0  0  0  0  0  0  0  0  0  0  0
   25.0226  -16.3048  -17.8422 O   0  0  0  0  0  0  0  0  0  0  0  0
   28.9154  -16.8217  -20.0096 O   0  0  0  0  0  0  0  0  0  0  0  0
   28.2652  -15.6617  -20.3664 C   0  0  0  0  0  0  0  0  0  0  0  0
   26.9561  -15.5068  -19.5754 C   0  0  2  0  0  0  0  0  0  0  0  0
   26.0557  -16.5832  -19.8517 N   0  0  0  0  0  0  0  0  0  0  0  0
   26.4139  -14.1870  -19.9648 C   0  0  0  0  0  0  0  0  0  0  0  0
   25.3445  -14.1343  -20.6054 O   0  0  0  0  0  0  0  0  0  0  0  0
   27.0633  -13.0184  -19.6359 O   0  0  0  0  0  0  0  0  0  0  0  0
  2  1  1  1
  2  6  1  0
  2  3  1  0
  3  4  1  0
  4  5  2  0
  4  8  1  0
  6  7  2  0
  9 10  1  0
  9  6  1  0
 10 11  1  1
 11 12  1  0
 12 13  1  0
 13 14  1  0
 15 14  1  0
 16 17  2  0
 16 10  1  0
 18 19  1  0
 20 19  1  6
 20 22  1  0
 20 21  1  0
 21 16  1  0
 22 24  1  0
 23 22  2  0
M  END
$$$$
