DKS.pdb
     RDKit          3D

 24 23  0  0  1  0  0  0  0  0999 V2000
   14.2213  -10.7960  -10.4743 N   0  0  0  0  0  0  0  0  0  0  0  0
   15.4379  -10.0484  -10.5071 C   0  0  1  0  0  0  0  0  0  0  0  0
   16.2289  -10.4143  -11.7243 C   0  0  0  0  0  0  0  0  0  0  0  0
   16.5265  -11.8666  -11.6849 C   0  0  0  0  0  0  0  0  0  0  0  0
   15.6991  -12.7411  -12.0576 O   0  0  0  0  0  0  0  0  0  0  0  0
   15.2212   -8.5848  -10.3973 C   0  0  0  0  0  0  0  0  0  0  0  0
   14.6680   -7.9799  -11.3482 O   0  0  0  0  0  0  0  0  0  0  0  0
   17.7634  -12.3112  -11.2216 O   0  0  0  0  0  0  0  0  0  0  0  0
   15.6047   -7.8188   -9.2723 N   0  0  0  0  0  0  0  0  0  0  0  0
   15.2977   -6.4152   -9.0953 C   0  0  1  0  0  0  0  0  0  0  0  0
   14.7443   -6.2334   -7.6855 C   0  0  0  0  0  0  0  0  0  0  0  0
   13.3501   -5.6493   -7.7661 C   0  0  0  0  0  0  0  0  0  0  0  0
   12.9043   -5.3476   -6.3373 C   0  0  0  0  0  0  0  0  0  0  0  0
   11.4708   -4.8510   -6.3173 C   0  0  0  0  0  0  0  0  0  0  0  0
   11.1179   -4.6233   -4.9329 N   0  0  0  0  0  0  0  0  0  0  0  0
   16.5203   -5.6082   -9.2998 C   0  0  0  0  0  0  0  0  0  0  0  0
   17.5406   -5.8902   -8.6209 O   0  0  0  0  0  0  0  0  0  0  0  0
   17.5503   -3.8036  -12.6638 O   0  0  0  0  0  0  0  0  0  0  0  0
   18.4830   -3.8960  -11.6552 C   0  0  0  0  0  0  0  0  0  0  0  0
   17.8116   -3.7580  -10.2792 C   0  0  2  0  0  0  0  0  0  0  0  0
   16.6178   -4.5423  -10.2065 N   0  0  0  0  0  0  0  0  0  0  0  0
   17.5621   -2.3106  -10.1055 C   0  0  0  0  0  0  0  0  0  0  0  0
   16.3892   -1.9085   -9.9661 O   0  0  0  0  0  0  0  0  0  0  0  0
   18.5948   -1.4001  -10.0946 O   0  0  0  0  0  0  0  0  0  0  0  0
  2  1  1  6
  2  6  1  0
  2  3  1  0
  3  4  1  0
  4  5  2  0
  4  8  1  0
  6  7  2  0
  9 10  1  0
  9  6  1  0
 10 11  1  1
 11 12  1  0
 12 13  1  0
 13 14  1  0
 15 14  1  0
 16 17  2  0
 16 10  1  0
 18 19  1  0
 20 19  1  6
 20 22  1  0
 20 21  1  0
 21 16  1  0
 22 24  1  0
 23 22  2  0
M  END
$$$$
