DKS.pdb
     RDKit          3D

 24 23  0  0  1  0  0  0  0  0999 V2000
   16.4273  -11.7350  -15.9334 N   0  0  0  0  0  0  0  0  0  0  0  0
   17.4591  -11.6081  -14.9539 C   0  0  1  0  0  0  0  0  0  0  0  0
   18.7454  -12.1503  -15.4949 C   0  0  0  0  0  0  0  0  0  0  0  0
   18.5915  -13.6064  -15.7302 C   0  0  0  0  0  0  0  0  0  0  0  0
   18.0231  -14.3724  -14.9065 O   0  0  0  0  0  0  0  0  0  0  0  0
   17.6047  -10.2231  -14.4424 C   0  0  0  0  0  0  0  0  0  0  0  0
   17.6917   -9.2782  -15.2645 O   0  0  0  0  0  0  0  0  0  0  0  0
   19.0860  -14.1783  -16.9009 O   0  0  0  0  0  0  0  0  0  0  0  0
   17.6520   -9.8973  -13.0672 N   0  0  0  0  0  0  0  0  0  0  0  0
   17.7208   -8.5477  -12.5482 C   0  0  1  0  0  0  0  0  0  0  0  0
   17.1904   -8.5707  -11.1182 C   0  0  0  0  0  0  0  0  0  0  0  0
   15.7290   -8.1757  -11.1194 C   0  0  0  0  0  0  0  0  0  0  0  0
   15.0008   -9.1390  -10.1852 C   0  0  0  0  0  0  0  0  0  0  0  0
   13.5278   -8.7866  -10.0951 C   0  0  0  0  0  0  0  0  0  0  0  0
   12.9275   -9.7025   -9.1497 N   0  0  0  0  0  0  0  0  0  0  0  0
   19.1188   -8.0669  -12.5941 C   0  0  0  0  0  0  0  0  0  0  0  0
   20.0223   -8.8192  -12.1478 O   0  0  0  0  0  0  0  0  0  0  0  0
   22.8288   -6.8275  -14.6142 O   0  0  0  0  0  0  0  0  0  0  0  0
   21.4735   -7.0595  -14.5437 C   0  0  0  0  0  0  0  0  0  0  0  0
   20.8911   -6.4886  -13.2405 C   0  0  2  0  0  0  0  0  0  0  0  0
   19.5062   -6.8195  -13.1057 N   0  0  0  0  0  0  0  0  0  0  0  0
   21.1319   -5.0309  -13.3063 C   0  0  0  0  0  0  0  0  0  0  0  0
   20.2297   -4.2846  -13.7376 O   0  0  0  0  0  0  0  0  0  0  0  0
   22.3282   -4.4816  -12.9026 O   0  0  0  0  0  0  0  0  0  0  0  0
  2  1  1  6
  2  6  1  0
  2  3  1  0
  3  4  1  0
  4  5  2  0
  4  8  1  0
  6  7  2  0
  9 10  1  0
  9  6  1  0
 10 11  1  1
 11 12  1  0
 12 13  1  0
 13 14  1  0
 15 14  1  0
 16 17  2  0
 16 10  1  0
 18 19  1  0
 20 19  1  6
 20 22  1  0
 20 21  1  0
 21 16  1  0
 22 24  1  0
 23 22  2  0
M  END
$$$$
