DKS.pdb
     RDKit          3D

 24 23  0  0  1  0  0  0  0  0999 V2000
   26.1413  -11.5239  -18.6105 N   0  0  0  0  0  0  0  0  0  0  0  0
   25.9734  -10.7565  -17.4176 C   0  0  1  0  0  0  0  0  0  0  0  0
   27.1948   -9.9278  -17.1680 C   0  0  0  0  0  0  0  0  0  0  0  0
   28.3766  -10.8214  -17.1042 C   0  0  0  0  0  0  0  0  0  0  0  0
   28.3198  -11.9929  -16.6430 O   0  0  0  0  0  0  0  0  0  0  0  0
   24.7335   -9.9417  -17.4230 C   0  0  0  0  0  0  0  0  0  0  0  0
   24.4624   -9.2556  -18.4388 O   0  0  0  0  0  0  0  0  0  0  0  0
   29.6131  -10.3741  -17.5660 O   0  0  0  0  0  0  0  0  0  0  0  0
   23.8261   -9.8897  -16.3398 N   0  0  0  0  0  0  0  0  0  0  0  0
   22.6269   -9.0791  -16.3155 C   0  0  1  0  0  0  0  0  0  0  0  0
   21.4931   -9.9407  -15.7687 C   0  0  0  0  0  0  0  0  0  0  0  0
   20.2199   -9.1231  -15.7229 C   0  0  0  0  0  0  0  0  0  0  0  0
   19.1232  -10.0272  -15.1655 C   0  0  0  0  0  0  0  0  0  0  0  0
   17.8020   -9.2848  -15.0943 C   0  0  0  0  0  0  0  0  0  0  0  0
   16.8066  -10.2291  -14.6352 N   0  0  0  0  0  0  0  0  0  0  0  0
   22.8493   -7.8857  -15.4705 C   0  0  0  0  0  0  0  0  0  0  0  0
   23.4295   -8.0382  -14.3653 O   0  0  0  0  0  0  0  0  0  0  0  0
   23.5279   -4.1435  -16.7173 O   0  0  0  0  0  0  0  0  0  0  0  0
   22.6313   -4.1493  -15.6724 C   0  0  0  0  0  0  0  0  0  0  0  0
   22.6735   -5.4933  -14.9272 C   0  0  2  0  0  0  0  0  0  0  0  0
   22.4533   -6.5868  -15.8223 N   0  0  0  0  0  0  0  0  0  0  0  0
   21.6398   -5.3928  -13.8742 C   0  0  0  0  0  0  0  0  0  0  0  0
   20.6434   -6.1419  -13.9273 O   0  0  0  0  0  0  0  0  0  0  0  0
   21.7542   -4.4921  -12.8391 O   0  0  0  0  0  0  0  0  0  0  0  0
  2  1  1  6
  2  6  1  0
  2  3  1  0
  3  4  1  0
  4  5  2  0
  4  8  1  0
  6  7  2  0
  9 10  1  0
  9  6  1  0
 10 11  1  1
 11 12  1  0
 12 13  1  0
 13 14  1  0
 15 14  1  0
 16 17  2  0
 16 10  1  0
 18 19  1  0
 20 19  1  6
 20 22  1  0
 20 21  1  0
 21 16  1  0
 22 24  1  0
 23 22  2  0
M  END
$$$$
