WSW.pdb
     RDKit          3D

 35 38  0  0  1  0  0  0  0  0999 V2000
    7.6039  -22.5088   26.3613 N   0  0  0  0  0  0  0  0  0  0  0  0
    6.7487  -21.6584   25.6662 C   0  0  1  0  0  0  0  0  0  0  0  0
    5.3170  -22.0944   25.7197 C   0  0  0  0  0  0  0  0  0  0  0  0
    5.0683  -23.4950   25.3768 C   0  0  0  0  0  0  0  0  0  0  0  0
    4.7600  -24.5428   26.1953 C   0  0  0  0  0  0  0  0  0  0  0  0
    4.6010  -25.6819   25.4714 N   0  0  0  0  0  0  0  0  0  0  0  0
    4.8100  -25.3572   24.1866 C   0  0  0  0  0  0  0  0  0  0  0  0
    4.7703  -26.1455   23.0285 C   0  0  0  0  0  0  0  0  0  0  0  0
    5.0263  -25.5698   21.7784 C   0  0  0  0  0  0  0  0  0  0  0  0
    5.3162  -24.2207   21.6972 C   0  0  0  0  0  0  0  0  0  0  0  0
    5.3454  -23.4840   22.8536 C   0  0  0  0  0  0  0  0  0  0  0  0
    5.0998  -24.0116   24.1051 C   0  0  0  0  0  0  0  0  0  0  0  0
    6.8889  -20.1814   25.9201 C   0  0  0  0  0  0  0  0  0  0  0  0
    5.8050  -19.5913   26.1907 O   0  0  0  0  0  0  0  0  0  0  0  0
   10.7028  -18.5416   26.5647 O   0  0  0  0  0  0  0  0  0  0  0  0
    9.5707  -17.8943   26.8973 C   0  0  0  0  0  0  0  0  0  0  0  0
    8.4401  -18.0910   25.8883 C   0  0  2  0  0  0  0  0  0  0  0  0
    8.0937  -19.4794   25.8779 N   0  0  0  0  0  0  0  0  0  0  0  0
    8.5202  -17.3310   24.6814 C   0  0  0  0  0  0  0  0  0  0  0  0
    7.4887  -17.1352   23.9554 O   0  0  0  0  0  0  0  0  0  0  0  0
    9.7029  -16.7254   24.1703 N   0  0  0  0  0  0  0  0  0  0  0  0
    9.6445  -15.6116   23.2755 C   0  0  1  0  0  0  0  0  0  0  0  0
    9.0905  -14.3266   23.7177 C   0  0  0  0  0  0  0  0  0  0  0  0
    7.8387  -14.3395   24.4993 C   0  0  0  0  0  0  0  0  0  0  0  0
    6.7210  -15.1449   24.4324 C   0  0  0  0  0  0  0  0  0  0  0  0
    5.8211  -14.7497   25.3782 N   0  0  0  0  0  0  0  0  0  0  0  0
    6.3224  -13.7058   26.0649 C   0  0  0  0  0  0  0  0  0  0  0  0
    5.8679  -12.9406   27.1198 C   0  0  0  0  0  0  0  0  0  0  0  0
    6.6469  -11.9263   27.6332 C   0  0  0  0  0  0  0  0  0  0  0  0
    7.8948  -11.6309   27.1255 C   0  0  0  0  0  0  0  0  0  0  0  0
    8.3386  -12.4200   26.0521 C   0  0  0  0  0  0  0  0  0  0  0  0
    7.5642  -13.4361   25.5364 C   0  0  0  0  0  0  0  0  0  0  0  0
   11.0495  -15.3783   22.7733 C   0  0  0  0  0  0  0  0  0  0  0  0
   11.2674  -14.5400   21.8504 O   0  0  0  0  0  0  0  0  0  0  0  0
   12.1358  -16.0596   23.2945 O   0  0  0  0  0  0  0  0  0  0  0  0
  2  3  1  0
  2  1  1  1
  4  5  2  0
  4  3  1  0
  6  5  1  0
  7 12  2  0
  7  6  1  0
  8  7  1  0
  9 10  1  0
  9  8  2  0
 10 11  2  0
 11 12  1  0
 12  4  1  0
 13  2  1  0
 14 13  2  0
 16 15  1  0
 17 16  1  6
 17 18  1  0
 18 13  1  0
 19 17  1  0
 19 21  1  0
 20 19  2  0
 22 23  1  1
 22 33  1  0
 22 21  1  0
 24 23  1  0
 24 32  1  0
 25 24  2  0
 26 25  1  0
 26 27  1  0
 27 28  1  0
 27 32  2  0
 28 29  2  0
 29 30  1  0
 31 30  2  0
 32 31  1  0
 33 35  1  0
 34 33  2  0
M  END
$$$$
