WSW.pdb
     RDKit          3D

 35 38  0  0  1  0  0  0  0  0999 V2000
    9.3099  -16.9427   21.3866 N   0  0  0  0  0  0  0  0  0  0  0  0
    8.4816  -16.3883   22.3583 C   0  0  1  0  0  0  0  0  0  0  0  0
    7.0846  -16.1524   21.8732 C   0  0  0  0  0  0  0  0  0  0  0  0
    6.9655  -15.3733   20.6403 C   0  0  0  0  0  0  0  0  0  0  0  0
    6.1637  -15.5884   19.5569 C   0  0  0  0  0  0  0  0  0  0  0  0
    6.3559  -14.6204   18.6225 N   0  0  0  0  0  0  0  0  0  0  0  0
    7.2848  -13.7864   19.1136 C   0  0  0  0  0  0  0  0  0  0  0  0
    7.8499  -12.6264   18.5664 C   0  0  0  0  0  0  0  0  0  0  0  0
    8.8174  -11.9117   19.2826 C   0  0  0  0  0  0  0  0  0  0  0  0
    9.2078  -12.3587   20.5310 C   0  0  0  0  0  0  0  0  0  0  0  0
    8.6310  -13.4980   21.0311 C   0  0  0  0  0  0  0  0  0  0  0  0
    7.6751  -14.2321   20.3587 C   0  0  0  0  0  0  0  0  0  0  0  0
    8.4953  -17.0262   23.7216 C   0  0  0  0  0  0  0  0  0  0  0  0
    7.4131  -16.9129   24.3638 O   0  0  0  0  0  0  0  0  0  0  0  0
   12.6429  -17.7198   23.4383 O   0  0  0  0  0  0  0  0  0  0  0  0
   11.9156  -18.2197   24.4543 C   0  0  0  0  0  0  0  0  0  0  0  0
   10.7945  -17.2887   24.9141 C   0  0  2  0  0  0  0  0  0  0  0  0
    9.5849  -17.7023   24.2708 N   0  0  0  0  0  0  0  0  0  0  0  0
   11.1293  -15.9079   25.0607 C   0  0  0  0  0  0  0  0  0  0  0  0
   11.8967  -15.3227   24.2252 O   0  0  0  0  0  0  0  0  0  0  0  0
   10.6652  -15.0575   26.1040 N   0  0  0  0  0  0  0  0  0  0  0  0
   10.5760  -15.5149   27.4559 C   0  0  1  0  0  0  0  0  0  0  0  0
    9.3013  -16.0001   27.9976 C   0  0  0  0  0  0  0  0  0  0  0  0
    8.0515  -15.4704   27.4185 C   0  0  0  0  0  0  0  0  0  0  0  0
    6.9501  -16.0992   26.8763 C   0  0  0  0  0  0  0  0  0  0  0  0
    6.0475  -15.1608   26.4699 N   0  0  0  0  0  0  0  0  0  0  0  0
    6.5295  -13.9318   26.7342 C   0  0  0  0  0  0  0  0  0  0  0  0
    6.0450  -12.6509   26.5622 C   0  0  0  0  0  0  0  0  0  0  0  0
    6.7873  -11.5633   26.9689 C   0  0  0  0  0  0  0  0  0  0  0  0
    8.0283  -11.6997   27.5548 C   0  0  0  0  0  0  0  0  0  0  0  0
    8.5038  -13.0106   27.7200 C   0  0  0  0  0  0  0  0  0  0  0  0
    7.7649  -14.1012   27.3165 C   0  0  0  0  0  0  0  0  0  0  0  0
   11.6098  -16.6035   27.6198 C   0  0  0  0  0  0  0  0  0  0  0  0
   12.1523  -17.1279   26.6035 O   0  0  0  0  0  0  0  0  0  0  0  0
   11.9989  -17.0619   28.8665 O   0  0  0  0  0  0  0  0  0  0  0  0
  2  3  1  0
  2  1  1  6
  4  5  2  0
  4  3  1  0
  6  5  1  0
  7 12  2  0
  7  6  1  0
  8  7  1  0
  9 10  1  0
  9  8  2  0
 10 11  2  0
 11 12  1  0
 12  4  1  0
 13  2  1  0
 14 13  2  0
 16 15  1  0
 17 16  1  6
 17 18  1  0
 18 13  1  0
 19 17  1  0
 19 21  1  0
 20 19  2  0
 22 23  1  6
 22 33  1  0
 22 21  1  0
 24 23  1  0
 24 32  1  0
 25 24  2  0
 26 25  1  0
 26 27  1  0
 27 28  1  0
 27 32  2  0
 28 29  2  0
 29 30  1  0
 31 30  2  0
 32 31  1  0
 33 35  1  0
 34 33  2  0
M  END
$$$$
