WSW.pdb
     RDKit          3D

 35 38  0  0  1  0  0  0  0  0999 V2000
   10.3409  -16.4927   16.7576 N   0  0  0  0  0  0  0  0  0  0  0  0
   11.2329  -15.7964   17.5682 C   0  0  1  0  0  0  0  0  0  0  0  0
   10.5709  -15.1410   18.7408 C   0  0  0  0  0  0  0  0  0  0  0  0
    9.3253  -14.4306   18.4494 C   0  0  0  0  0  0  0  0  0  0  0  0
    8.8042  -14.0602   17.2436 C   0  0  0  0  0  0  0  0  0  0  0  0
    7.6167  -13.4215   17.4139 N   0  0  0  0  0  0  0  0  0  0  0  0
    7.3820  -13.3849   18.7342 C   0  0  0  0  0  0  0  0  0  0  0  0
    6.3065  -12.8479   19.4549 C   0  0  0  0  0  0  0  0  0  0  0  0
    6.2844  -12.9351   20.8519 C   0  0  0  0  0  0  0  0  0  0  0  0
    7.3291  -13.5550   21.5115 C   0  0  0  0  0  0  0  0  0  0  0  0
    8.3627  -14.0675   20.7700 C   0  0  0  0  0  0  0  0  0  0  0  0
    8.4241  -14.0026   19.3928 C   0  0  0  0  0  0  0  0  0  0  0  0
   12.4976  -16.5065   17.9703 C   0  0  0  0  0  0  0  0  0  0  0  0
   12.3465  -17.7305   18.2447 O   0  0  0  0  0  0  0  0  0  0  0  0
   15.7831  -13.7640   18.8350 O   0  0  0  0  0  0  0  0  0  0  0  0
   15.9491  -15.0498   18.4736 C   0  0  0  0  0  0  0  0  0  0  0  0
   14.8379  -15.9701   18.9767 C   0  0  2  0  0  0  0  0  0  0  0  0
   13.7556  -15.9078   18.0425 N   0  0  0  0  0  0  0  0  0  0  0  0
   14.6091  -15.9854   20.3866 C   0  0  0  0  0  0  0  0  0  0  0  0
   13.9526  -15.0521   20.9586 O   0  0  0  0  0  0  0  0  0  0  0  0
   15.0602  -16.9980   21.2799 N   0  0  0  0  0  0  0  0  0  0  0  0
   14.9424  -16.8497   22.6973 C   0  0  1  0  0  0  0  0  0  0  0  0
   15.6799  -15.7944   23.4017 C   0  0  0  0  0  0  0  0  0  0  0  0
   17.0683  -15.5177   22.9850 C   0  0  0  0  0  0  0  0  0  0  0  0
   17.6061  -14.5506   22.1616 C   0  0  0  0  0  0  0  0  0  0  0  0
   18.9577  -14.7191   22.0881 N   0  0  0  0  0  0  0  0  0  0  0  0
   19.3194  -15.7723   22.8449 C   0  0  0  0  0  0  0  0  0  0  0  0
   20.5264  -16.3680   23.1506 C   0  0  0  0  0  0  0  0  0  0  0  0
   20.5748  -17.4505   24.0020 C   0  0  0  0  0  0  0  0  0  0  0  0
   19.4400  -17.9826   24.5776 C   0  0  0  0  0  0  0  0  0  0  0  0
   18.2222  -17.3632   24.2532 C   0  0  0  0  0  0  0  0  0  0  0  0
   18.1688  -16.2798   23.4038 C   0  0  0  0  0  0  0  0  0  0  0  0
   13.4718  -16.6887   23.0008 C   0  0  0  0  0  0  0  0  0  0  0  0
   12.6069  -16.8972   22.1005 O   0  0  0  0  0  0  0  0  0  0  0  0
   13.0198  -16.3143   24.2543 O   0  0  0  0  0  0  0  0  0  0  0  0
  2  3  1  0
  2  1  1  1
  4  5  2  0
  4  3  1  0
  6  5  1  0
  7 12  2  0
  7  6  1  0
  8  7  1  0
  9 10  1  0
  9  8  2  0
 10 11  2  0
 11 12  1  0
 12  4  1  0
 13  2  1  0
 14 13  2  0
 16 15  1  0
 17 16  1  1
 17 18  1  0
 18 13  1  0
 19 17  1  0
 19 21  1  0
 20 19  2  0
 22 23  1  6
 22 33  1  0
 22 21  1  0
 24 23  1  0
 24 32  1  0
 25 24  2  0
 26 25  1  0
 26 27  1  0
 27 28  1  0
 27 32  2  0
 28 29  2  0
 29 30  1  0
 31 30  2  0
 32 31  1  0
 33 35  1  0
 34 33  2  0
M  END
$$$$
