WSW.pdb
     RDKit          3D

 35 38  0  0  1  0  0  0  0  0999 V2000
    9.8028  -16.0532   21.2741 N   0  0  0  0  0  0  0  0  0  0  0  0
    8.9624  -15.7985   22.3542 C   0  0  1  0  0  0  0  0  0  0  0  0
    7.5103  -15.9216   22.0094 C   0  0  0  0  0  0  0  0  0  0  0  0
    7.1051  -15.3055   20.7455 C   0  0  0  0  0  0  0  0  0  0  0  0
    6.1966  -15.7410   19.8247 C   0  0  0  0  0  0  0  0  0  0  0  0
    6.1114  -14.8656   18.7887 N   0  0  0  0  0  0  0  0  0  0  0  0
    6.9703  -13.8691   19.0515 C   0  0  0  0  0  0  0  0  0  0  0  0
    7.2776  -12.7133   18.3208 C   0  0  0  0  0  0  0  0  0  0  0  0
    8.2236  -11.8046   18.8097 C   0  0  0  0  0  0  0  0  0  0  0  0
    8.8487  -12.0565   20.0166 C   0  0  0  0  0  0  0  0  0  0  0  0
    8.5202  -13.1986   20.7010 C   0  0  0  0  0  0  0  0  0  0  0  0
    7.5945  -14.1201   20.2551 C   0  0  0  0  0  0  0  0  0  0  0  0
    9.2841  -16.4844   23.6547 C   0  0  0  0  0  0  0  0  0  0  0  0
    8.3491  -16.4615   24.5042 O   0  0  0  0  0  0  0  0  0  0  0  0
   12.8692  -18.6235   23.8477 O   0  0  0  0  0  0  0  0  0  0  0  0
   11.8927  -18.8886   24.7351 C   0  0  0  0  0  0  0  0  0  0  0  0
   11.0806  -17.6560   25.1303 C   0  0  2  0  0  0  0  0  0  0  0  0
   10.4961  -17.1124   23.9425 N   0  0  0  0  0  0  0  0  0  0  0  0
   11.6430  -16.8158   26.1393 C   0  0  0  0  0  0  0  0  0  0  0  0
   12.8379  -16.9905   26.5527 O   0  0  0  0  0  0  0  0  0  0  0  0
   10.9718  -15.7310   26.7714 N   0  0  0  0  0  0  0  0  0  0  0  0
   10.6647  -15.7548   28.1677 C   0  0  1  0  0  0  0  0  0  0  0  0
    9.2707  -15.7899   28.6254 C   0  0  0  0  0  0  0  0  0  0  0  0
    8.2124  -15.4247   27.6639 C   0  0  0  0  0  0  0  0  0  0  0  0
    7.2583  -16.1806   27.0151 C   0  0  0  0  0  0  0  0  0  0  0  0
    6.5058  -15.3709   26.2160 N   0  0  0  0  0  0  0  0  0  0  0  0
    6.9422  -14.1020   26.3264 C   0  0  0  0  0  0  0  0  0  0  0  0
    6.5478  -12.8979   25.7789 C   0  0  0  0  0  0  0  0  0  0  0  0
    7.1983  -11.7310   26.1167 C   0  0  0  0  0  0  0  0  0  0  0  0
    8.2570  -11.7105   27.0004 C   0  0  0  0  0  0  0  0  0  0  0  0
    8.6435  -12.9456   27.5455 C   0  0  0  0  0  0  0  0  0  0  0  0
    7.9953  -14.1147   27.2121 C   0  0  0  0  0  0  0  0  0  0  0  0
   11.3905  -16.9411   28.7564 C   0  0  0  0  0  0  0  0  0  0  0  0
   11.3784  -17.1421   30.0060 O   0  0  0  0  0  0  0  0  0  0  0  0
   12.0846  -17.8406   27.9658 O   0  0  0  0  0  0  0  0  0  0  0  0
  2  3  1  0
  2  1  1  6
  4  5  2  0
  4  3  1  0
  6  5  1  0
  7 12  2  0
  7  6  1  0
  8  7  1  0
  9 10  1  0
  9  8  2  0
 10 11  2  0
 11 12  1  0
 12  4  1  0
 13  2  1  0
 14 13  2  0
 16 15  1  0
 17 16  1  6
 17 18  1  0
 18 13  1  0
 19 17  1  0
 19 21  1  0
 20 19  2  0
 22 23  1  6
 22 33  1  0
 22 21  1  0
 24 23  1  0
 24 32  1  0
 25 24  2  0
 26 25  1  0
 26 27  1  0
 27 28  1  0
 27 32  2  0
 28 29  2  0
 29 30  1  0
 31 30  2  0
 32 31  1  0
 33 35  1  0
 34 33  2  0
M  END
$$$$
