WSW.pdb
     RDKit          3D

 35 38  0  0  1  0  0  0  0  0999 V2000
    9.6317  -16.8099   20.9671 N   0  0  0  0  0  0  0  0  0  0  0  0
    8.9923  -16.3572   22.1177 C   0  0  1  0  0  0  0  0  0  0  0  0
    7.5154  -16.1856   21.9390 C   0  0  0  0  0  0  0  0  0  0  0  0
    7.1026  -15.4663   20.7334 C   0  0  0  0  0  0  0  0  0  0  0  0
    6.2915  -15.8795   19.7164 C   0  0  0  0  0  0  0  0  0  0  0  0
    6.1572  -14.8984   18.7857 N   0  0  0  0  0  0  0  0  0  0  0  0
    6.8870  -13.8567   19.2123 C   0  0  0  0  0  0  0  0  0  0  0  0
    7.0972  -12.5948   18.6398 C   0  0  0  0  0  0  0  0  0  0  0  0
    7.9129  -11.6581   19.2855 C   0  0  0  0  0  0  0  0  0  0  0  0
    8.5060  -11.9880   20.4898 C   0  0  0  0  0  0  0  0  0  0  0  0
    8.2753  -13.2329   21.0167 C   0  0  0  0  0  0  0  0  0  0  0  0
    7.4793  -14.1853   20.4133 C   0  0  0  0  0  0  0  0  0  0  0  0
    9.3172  -17.0595   23.4087 C   0  0  0  0  0  0  0  0  0  0  0  0
    8.4097  -16.9907   24.2852 O   0  0  0  0  0  0  0  0  0  0  0  0
   13.4583  -17.6470   23.2692 O   0  0  0  0  0  0  0  0  0  0  0  0
   12.7605  -18.3735   24.1617 C   0  0  0  0  0  0  0  0  0  0  0  0
   11.5091  -17.6636   24.6766 C   0  0  2  0  0  0  0  0  0  0  0  0
   10.5041  -17.7475   23.6613 N   0  0  0  0  0  0  0  0  0  0  0  0
   11.7160  -16.4659   25.4270 C   0  0  0  0  0  0  0  0  0  0  0  0
   12.8702  -15.9260   25.5030 O   0  0  0  0  0  0  0  0  0  0  0  0
   10.7067  -15.7612   26.1422 N   0  0  0  0  0  0  0  0  0  0  0  0
   10.6699  -15.7564   27.5717 C   0  0  1  0  0  0  0  0  0  0  0  0
    9.3975  -15.5973   28.2855 C   0  0  0  0  0  0  0  0  0  0  0  0
    8.1903  -15.2844   27.4963 C   0  0  0  0  0  0  0  0  0  0  0  0
    7.1730  -16.0825   27.0161 C   0  0  0  0  0  0  0  0  0  0  0  0
    6.2780  -15.3127   26.3327 N   0  0  0  0  0  0  0  0  0  0  0  0
    6.6828  -14.0289   26.3548 C   0  0  0  0  0  0  0  0  0  0  0  0
    6.1672  -12.8488   25.8582 C   0  0  0  0  0  0  0  0  0  0  0  0
    6.8225  -11.6556   26.0728 C   0  0  0  0  0  0  0  0  0  0  0  0
    8.0047  -11.5846   26.7795 C   0  0  0  0  0  0  0  0  0  0  0  0
    8.5133  -12.7959   27.2755 C   0  0  0  0  0  0  0  0  0  0  0  0
    7.8611  -13.9911   27.0649 C   0  0  0  0  0  0  0  0  0  0  0  0
   11.3180  -17.0406   28.0315 C   0  0  0  0  0  0  0  0  0  0  0  0
   11.5659  -17.9640   27.2021 O   0  0  0  0  0  0  0  0  0  0  0  0
   11.6616  -17.2541   29.3552 O   0  0  0  0  0  0  0  0  0  0  0  0
  2  3  1  0
  2  1  1  6
  4  5  2  0
  4  3  1  0
  6  5  1  0
  7 12  2  0
  7  6  1  0
  8  7  1  0
  9 10  1  0
  9  8  2  0
 10 11  2  0
 11 12  1  0
 12  4  1  0
 13  2  1  0
 14 13  2  0
 16 15  1  0
 17 16  1  6
 17 18  1  0
 18 13  1  0
 19 17  1  0
 19 21  1  0
 20 19  2  0
 22 23  1  6
 22 33  1  0
 22 21  1  0
 24 23  1  0
 24 32  1  0
 25 24  2  0
 26 25  1  0
 26 27  1  0
 27 28  1  0
 27 32  2  0
 28 29  2  0
 29 30  1  0
 31 30  2  0
 32 31  1  0
 33 35  1  0
 34 33  2  0
M  END
$$$$
