WSW.pdb
     RDKit          3D

 35 38  0  0  1  0  0  0  0  0999 V2000
    7.2170  -18.8513   20.2050 N   0  0  0  0  0  0  0  0  0  0  0  0
    7.7329  -17.7203   20.8315 C   0  0  1  0  0  0  0  0  0  0  0  0
    6.7079  -16.6498   21.0462 C   0  0  0  0  0  0  0  0  0  0  0  0
    6.8933  -15.4289   20.2612 C   0  0  0  0  0  0  0  0  0  0  0  0
    6.7349  -15.2323   18.9199 C   0  0  0  0  0  0  0  0  0  0  0  0
    7.0017  -13.9404   18.5931 N   0  0  0  0  0  0  0  0  0  0  0  0
    7.3320  -13.3126   19.7318 C   0  0  0  0  0  0  0  0  0  0  0  0
    7.6939  -11.9791   19.9664 C   0  0  0  0  0  0  0  0  0  0  0  0
    7.9977  -11.5522   21.2645 C   0  0  0  0  0  0  0  0  0  0  0  0
    7.9362  -12.4549   22.3095 C   0  0  0  0  0  0  0  0  0  0  0  0
    7.5780  -13.7506   22.0384 C   0  0  0  0  0  0  0  0  0  0  0  0
    7.2713  -14.2128   20.7746 C   0  0  0  0  0  0  0  0  0  0  0  0
    8.5753  -17.9365   22.0599 C   0  0  0  0  0  0  0  0  0  0  0  0
    7.9318  -18.3297   23.0737 O   0  0  0  0  0  0  0  0  0  0  0  0
   12.8118  -17.1320   21.8415 O   0  0  0  0  0  0  0  0  0  0  0  0
   12.2774  -18.1650   22.5187 C   0  0  0  0  0  0  0  0  0  0  0  0
   10.9312  -17.8370   23.1631 C   0  0  2  0  0  0  0  0  0  0  0  0
    9.9548  -17.7390   22.1214 N   0  0  0  0  0  0  0  0  0  0  0  0
   10.9523  -16.9190   24.2572 C   0  0  0  0  0  0  0  0  0  0  0  0
   11.3628  -15.7200   24.1047 O   0  0  0  0  0  0  0  0  0  0  0  0
   10.5333  -17.2156   25.5851 N   0  0  0  0  0  0  0  0  0  0  0  0
   10.8122  -16.3289   26.6717 C   0  0  1  0  0  0  0  0  0  0  0  0
   10.1919  -15.0001   26.7294 C   0  0  0  0  0  0  0  0  0  0  0  0
    8.8076  -14.8556   26.2386 C   0  0  0  0  0  0  0  0  0  0  0  0
    7.8671  -15.7872   25.8514 C   0  0  0  0  0  0  0  0  0  0  0  0
    6.7253  -15.1461   25.4697 N   0  0  0  0  0  0  0  0  0  0  0  0
    6.8937  -13.8166   25.5991 C   0  0  0  0  0  0  0  0  0  0  0  0
    6.0844  -12.7190   25.3855 C   0  0  0  0  0  0  0  0  0  0  0  0
    6.5507  -11.4476   25.6409 C   0  0  0  0  0  0  0  0  0  0  0  0
    7.8259  -11.2146   26.1118 C   0  0  0  0  0  0  0  0  0  0  0  0
    8.6337  -12.3439   26.3216 C   0  0  0  0  0  0  0  0  0  0  0  0
    8.1716  -13.6171   26.0691 C   0  0  0  0  0  0  0  0  0  0  0  0
   10.4710  -17.0708   27.9420 C   0  0  0  0  0  0  0  0  0  0  0  0
    9.9009  -18.1997   27.8894 O   0  0  0  0  0  0  0  0  0  0  0  0
   10.7644  -16.5548   29.1925 O   0  0  0  0  0  0  0  0  0  0  0  0
  2  3  1  0
  2  1  1  1
  4  5  2  0
  4  3  1  0
  6  5  1  0
  7 12  2  0
  7  6  1  0
  8  7  1  0
  9 10  1  0
  9  8  2  0
 10 11  2  0
 11 12  1  0
 12  4  1  0
 13  2  1  0
 14 13  2  0
 16 15  1  0
 17 16  1  6
 17 18  1  0
 18 13  1  0
 19 17  1  0
 19 21  1  0
 20 19  2  0
 22 23  1  6
 22 33  1  0
 22 21  1  0
 24 23  1  0
 24 32  1  0
 25 24  2  0
 26 25  1  0
 26 27  1  0
 27 28  1  0
 27 32  2  0
 28 29  2  0
 29 30  1  0
 31 30  2  0
 32 31  1  0
 33 35  1  0
 34 33  2  0
M  END
$$$$
