WSW.pdb
     RDKit          3D

 35 38  0  0  1  0  0  0  0  0999 V2000
    8.6969  -17.2786   17.2367 N   0  0  0  0  0  0  0  0  0  0  0  0
    8.9606  -16.5172   18.3717 C   0  0  1  0  0  0  0  0  0  0  0  0
    8.4189  -15.1239   18.2823 C   0  0  0  0  0  0  0  0  0  0  0  0
    8.7117  -14.2561   19.4235 C   0  0  0  0  0  0  0  0  0  0  0  0
    9.8004  -13.4647   19.6496 C   0  0  0  0  0  0  0  0  0  0  0  0
    9.6764  -12.8113   20.8347 N   0  0  0  0  0  0  0  0  0  0  0  0
    8.5037  -13.1895   21.3652 C   0  0  0  0  0  0  0  0  0  0  0  0
    7.8850  -12.8204   22.5674 C   0  0  0  0  0  0  0  0  0  0  0  0
    6.6379  -13.3572   22.9087 C   0  0  0  0  0  0  0  0  0  0  0  0
    6.0240  -14.2507   22.0510 C   0  0  0  0  0  0  0  0  0  0  0  0
    6.6623  -14.5862   20.8846 C   0  0  0  0  0  0  0  0  0  0  0  0
    7.8911  -14.0813   20.5103 C   0  0  0  0  0  0  0  0  0  0  0  0
    8.6619  -17.1441   19.7071 C   0  0  0  0  0  0  0  0  0  0  0  0
    7.7497  -18.0180   19.6832 O   0  0  0  0  0  0  0  0  0  0  0  0
   10.5421  -19.7278   22.6521 O   0  0  0  0  0  0  0  0  0  0  0  0
   10.2151  -18.9206   21.6260 C   0  0  0  0  0  0  0  0  0  0  0  0
    9.6691  -17.5645   22.0706 C   0  0  2  0  0  0  0  0  0  0  0  0
    9.3147  -16.8248   20.8979 N   0  0  0  0  0  0  0  0  0  0  0  0
   10.3237  -16.9429   23.1776 C   0  0  0  0  0  0  0  0  0  0  0  0
   11.3857  -16.2539   23.0140 O   0  0  0  0  0  0  0  0  0  0  0  0
    9.8881  -17.0099   24.5313 N   0  0  0  0  0  0  0  0  0  0  0  0
   10.5309  -16.2537   25.5608 C   0  0  1  0  0  0  0  0  0  0  0  0
    9.8026  -15.2026   26.2809 C   0  0  0  0  0  0  0  0  0  0  0  0
    8.3388  -15.1264   26.1091 C   0  0  0  0  0  0  0  0  0  0  0  0
    7.3779  -16.1049   25.9622 C   0  0  0  0  0  0  0  0  0  0  0  0
    6.1525  -15.5200   25.8319 N   0  0  0  0  0  0  0  0  0  0  0  0
    6.2865  -14.1817   25.8916 C   0  0  0  0  0  0  0  0  0  0  0  0
    5.4024  -13.1230   25.8408 C   0  0  0  0  0  0  0  0  0  0  0  0
    5.8571  -11.8274   25.9580 C   0  0  0  0  0  0  0  0  0  0  0  0
    7.1935  -11.5313   26.1266 C   0  0  0  0  0  0  0  0  0  0  0  0
    8.0768  -12.6219   26.1747 C   0  0  0  0  0  0  0  0  0  0  0  0
    7.6270  -13.9190   26.0595 C   0  0  0  0  0  0  0  0  0  0  0  0
   11.0583  -17.2461   26.5696 C   0  0  0  0  0  0  0  0  0  0  0  0
   10.7004  -18.4591   26.5202 O   0  0  0  0  0  0  0  0  0  0  0  0
   11.9399  -16.8746   27.5699 O   0  0  0  0  0  0  0  0  0  0  0  0
  2  3  1  0
  2  1  1  6
  4  5  2  0
  4  3  1  0
  6  5  1  0
  7 12  2  0
  7  6  1  0
  8  7  1  0
  9 10  1  0
  9  8  2  0
 10 11  2  0
 11 12  1  0
 12  4  1  0
 13  2  1  0
 14 13  2  0
 16 15  1  0
 17 16  1  6
 17 18  1  0
 18 13  1  0
 19 17  1  0
 19 21  1  0
 20 19  2  0
 22 23  1  1
 22 33  1  0
 22 21  1  0
 24 23  1  0
 24 32  1  0
 25 24  2  0
 26 25  1  0
 26 27  1  0
 27 28  1  0
 27 32  2  0
 28 29  2  0
 29 30  1  0
 31 30  2  0
 32 31  1  0
 33 35  1  0
 34 33  2  0
M  END
$$$$
