WSW.pdb
     RDKit          3D

 35 38  0  0  1  0  0  0  0  0999 V2000
    8.2912  -19.4583   19.7327 N   0  0  0  0  0  0  0  0  0  0  0  0
    9.2652  -18.7073   19.0806 C   0  0  1  0  0  0  0  0  0  0  0  0
    9.0973  -18.6945   17.5926 C   0  0  0  0  0  0  0  0  0  0  0  0
    8.9120  -20.0032   16.9648 C   0  0  0  0  0  0  0  0  0  0  0  0
    8.2749  -21.1098   17.4469 C   0  0  0  0  0  0  0  0  0  0  0  0
    8.3238  -22.1206   16.5397 N   0  0  0  0  0  0  0  0  0  0  0  0
    8.9958  -21.6549   15.4761 C   0  0  0  0  0  0  0  0  0  0  0  0
    9.3303  -22.2759   14.2650 C   0  0  0  0  0  0  0  0  0  0  0  0
   10.0473  -21.5724   13.2900 C   0  0  0  0  0  0  0  0  0  0  0  0
   10.4199  -20.2634   13.5317 C   0  0  0  0  0  0  0  0  0  0  0  0
   10.0735  -19.6919   14.7292 C   0  0  0  0  0  0  0  0  0  0  0  0
    9.3683  -20.3492   15.7168 C   0  0  0  0  0  0  0  0  0  0  0  0
    9.5495  -17.3308   19.6190 C   0  0  0  0  0  0  0  0  0  0  0  0
   10.5021  -16.7307   19.0456 O   0  0  0  0  0  0  0  0  0  0  0  0
    6.9025  -15.3934   22.1803 O   0  0  0  0  0  0  0  0  0  0  0  0
    8.1206  -14.8591   21.9751 C   0  0  0  0  0  0  0  0  0  0  0  0
    9.2159  -15.9051   21.7714 C   0  0  2  0  0  0  0  0  0  0  0  0
    8.8440  -16.7232   20.6577 N   0  0  0  0  0  0  0  0  0  0  0  0
    9.7926  -16.4657   22.9518 C   0  0  0  0  0  0  0  0  0  0  0  0
    9.0597  -16.8881   23.9077 O   0  0  0  0  0  0  0  0  0  0  0  0
   11.1879  -16.6180   23.1905 N   0  0  0  0  0  0  0  0  0  0  0  0
   11.8147  -16.0490   24.3429 C   0  0  1  0  0  0  0  0  0  0  0  0
   11.5335  -16.5767   25.6831 C   0  0  0  0  0  0  0  0  0  0  0  0
   10.3492  -16.0642   26.3993 C   0  0  0  0  0  0  0  0  0  0  0  0
    9.0780  -16.5753   26.5583 C   0  0  0  0  0  0  0  0  0  0  0  0
    8.3353  -15.7150   27.3124 N   0  0  0  0  0  0  0  0  0  0  0  0
    9.0892  -14.6529   27.6533 C   0  0  0  0  0  0  0  0  0  0  0  0
    8.8679  -13.5182   28.4072 C   0  0  0  0  0  0  0  0  0  0  0  0
    9.8772  -12.5998   28.5994 C   0  0  0  0  0  0  0  0  0  0  0  0
   11.1338  -12.7662   28.0559 C   0  0  0  0  0  0  0  0  0  0  0  0
   11.3385  -13.9262   27.2915 C   0  0  0  0  0  0  0  0  0  0  0  0
   10.3331  -14.8481   27.0977 C   0  0  0  0  0  0  0  0  0  0  0  0
   13.3051  -16.1124   24.1078 C   0  0  0  0  0  0  0  0  0  0  0  0
   13.7681  -16.7282   23.1035 O   0  0  0  0  0  0  0  0  0  0  0  0
   14.2079  -15.5088   24.9660 O   0  0  0  0  0  0  0  0  0  0  0  0
  2  3  1  0
  2  1  1  1
  4  5  2  0
  4  3  1  0
  6  5  1  0
  7 12  2  0
  7  6  1  0
  8  7  1  0
  9 10  1  0
  9  8  2  0
 10 11  2  0
 11 12  1  0
 12  4  1  0
 13  2  1  0
 14 13  2  0
 16 15  1  0
 17 16  1  1
 17 18  1  0
 18 13  1  0
 19 17  1  0
 19 21  1  0
 20 19  2  0
 22 23  1  1
 22 33  1  0
 22 21  1  0
 24 23  1  0
 24 32  1  0
 25 24  2  0
 26 25  1  0
 26 27  1  0
 27 28  1  0
 27 32  2  0
 28 29  2  0
 29 30  1  0
 31 30  2  0
 32 31  1  0
 33 35  1  0
 34 33  2  0
M  END
$$$$
