WSW.pdb
     RDKit          3D

 35 38  0  0  1  0  0  0  0  0999 V2000
    8.8077  -17.2586   20.3590 N   0  0  0  0  0  0  0  0  0  0  0  0
    8.8932  -16.5258   21.5394 C   0  0  1  0  0  0  0  0  0  0  0  0
    7.6628  -15.7193   21.8195 C   0  0  0  0  0  0  0  0  0  0  0  0
    7.2019  -14.8660   20.7238 C   0  0  0  0  0  0  0  0  0  0  0  0
    6.0427  -14.9325   20.0064 C   0  0  0  0  0  0  0  0  0  0  0  0
    6.0005  -13.9421   19.0767 N   0  0  0  0  0  0  0  0  0  0  0  0
    7.1385  -13.2430   19.2029 C   0  0  0  0  0  0  0  0  0  0  0  0
    7.6045  -12.1241   18.4992 C   0  0  0  0  0  0  0  0  0  0  0  0
    8.8450  -11.5600   18.8196 C   0  0  0  0  0  0  0  0  0  0  0  0
    9.6028  -12.1143   19.8341 C   0  0  0  0  0  0  0  0  0  0  0  0
    9.1116  -13.2089   20.4984 C   0  0  0  0  0  0  0  0  0  0  0  0
    7.8952  -13.7959   20.2144 C   0  0  0  0  0  0  0  0  0  0  0  0
    9.3728  -17.2511   22.7679 C   0  0  0  0  0  0  0  0  0  0  0  0
    8.4591  -17.8163   23.4328 O   0  0  0  0  0  0  0  0  0  0  0  0
   13.5572  -17.3448   23.4962 O   0  0  0  0  0  0  0  0  0  0  0  0
   12.7361  -18.2755   24.0166 C   0  0  0  0  0  0  0  0  0  0  0  0
   11.3565  -17.7308   24.3842 C   0  0  2  0  0  0  0  0  0  0  0  0
   10.7047  -17.3268   23.1759 N   0  0  0  0  0  0  0  0  0  0  0  0
   11.2745  -16.9480   25.5761 C   0  0  0  0  0  0  0  0  0  0  0  0
   11.7496  -15.7642   25.6220 O   0  0  0  0  0  0  0  0  0  0  0  0
   10.6769  -17.3722   26.7967 N   0  0  0  0  0  0  0  0  0  0  0  0
   10.7213  -16.5589   27.9720 C   0  0  1  0  0  0  0  0  0  0  0  0
    9.4944  -15.9651   28.5160 C   0  0  0  0  0  0  0  0  0  0  0  0
    8.3619  -15.7408   27.5967 C   0  0  0  0  0  0  0  0  0  0  0  0
    7.4551  -16.6090   27.0255 C   0  0  0  0  0  0  0  0  0  0  0  0
    6.5918  -15.9073   26.2363 N   0  0  0  0  0  0  0  0  0  0  0  0
    6.9095  -14.5996   26.2775 C   0  0  0  0  0  0  0  0  0  0  0  0
    6.3765  -13.4616   25.7068 C   0  0  0  0  0  0  0  0  0  0  0  0
    6.9277  -12.2258   25.9678 C   0  0  0  0  0  0  0  0  0  0  0  0
    8.0199  -12.0696   26.7953 C   0  0  0  0  0  0  0  0  0  0  0  0
    8.5480  -13.2393   27.3652 C   0  0  0  0  0  0  0  0  0  0  0  0
    7.9996  -14.4768   27.1085 C   0  0  0  0  0  0  0  0  0  0  0  0
   11.3714  -17.3874   29.0544 C   0  0  0  0  0  0  0  0  0  0  0  0
   11.6371  -16.8732   30.1800 O   0  0  0  0  0  0  0  0  0  0  0  0
   11.6955  -18.7192   28.8618 O   0  0  0  0  0  0  0  0  0  0  0  0
  2  3  1  0
  2  1  1  6
  4  5  2  0
  4  3  1  0
  6  5  1  0
  7 12  2  0
  7  6  1  0
  8  7  1  0
  9 10  1  0
  9  8  2  0
 10 11  2  0
 11 12  1  0
 12  4  1  0
 13  2  1  0
 14 13  2  0
 16 15  1  0
 17 16  1  6
 17 18  1  0
 18 13  1  0
 19 17  1  0
 19 21  1  0
 20 19  2  0
 22 23  1  1
 22 33  1  0
 22 21  1  0
 24 23  1  0
 24 32  1  0
 25 24  2  0
 26 25  1  0
 26 27  1  0
 27 28  1  0
 27 32  2  0
 28 29  2  0
 29 30  1  0
 31 30  2  0
 32 31  1  0
 33 35  1  0
 34 33  2  0
M  END
$$$$
