WSW.pdb
     RDKit          3D

 35 38  0  0  1  0  0  0  0  0999 V2000
    8.1592  -17.5619   21.0047 N   0  0  0  0  0  0  0  0  0  0  0  0
    8.6804  -16.6838   21.9507 C   0  0  1  0  0  0  0  0  0  0  0  0
    7.7166  -15.6081   22.3464 C   0  0  0  0  0  0  0  0  0  0  0  0
    7.1129  -14.8612   21.2423 C   0  0  0  0  0  0  0  0  0  0  0  0
    5.8401  -14.9210   20.7533 C   0  0  0  0  0  0  0  0  0  0  0  0
    5.6857  -14.0522   19.7197 N   0  0  0  0  0  0  0  0  0  0  0  0
    6.8661  -13.4377   19.5500 C   0  0  0  0  0  0  0  0  0  0  0  0
    7.2592  -12.4552   18.6311 C   0  0  0  0  0  0  0  0  0  0  0  0
    8.5679  -11.9586   18.6513 C   0  0  0  0  0  0  0  0  0  0  0  0
    9.4654  -12.4439   19.5839 C   0  0  0  0  0  0  0  0  0  0  0  0
    9.0416  -13.4050   20.4657 C   0  0  0  0  0  0  0  0  0  0  0  0
    7.7620  -13.9217   20.4798 C   0  0  0  0  0  0  0  0  0  0  0  0
    9.3617  -17.2869   23.1496 C   0  0  0  0  0  0  0  0  0  0  0  0
    8.5739  -17.7034   24.0453 O   0  0  0  0  0  0  0  0  0  0  0  0
   13.4873  -16.8302   23.1161 O   0  0  0  0  0  0  0  0  0  0  0  0
   13.0243  -17.8217   23.8996 C   0  0  0  0  0  0  0  0  0  0  0  0
   11.6124  -17.5695   24.4271 C   0  0  2  0  0  0  0  0  0  0  0  0
   10.7434  -17.4044   23.3021 N   0  0  0  0  0  0  0  0  0  0  0  0
   11.5007  -16.7424   25.5863 C   0  0  0  0  0  0  0  0  0  0  0  0
   12.0690  -15.6007   25.6394 O   0  0  0  0  0  0  0  0  0  0  0  0
   10.7725  -17.0743   26.7637 N   0  0  0  0  0  0  0  0  0  0  0  0
   10.8783  -16.2881   27.9535 C   0  0  1  0  0  0  0  0  0  0  0  0
    9.7574  -15.4518   28.3981 C   0  0  0  0  0  0  0  0  0  0  0  0
    8.5238  -15.4520   27.5880 C   0  0  0  0  0  0  0  0  0  0  0  0
    7.6644  -16.4666   27.2213 C   0  0  0  0  0  0  0  0  0  0  0  0
    6.6586  -15.9535   26.4562 N   0  0  0  0  0  0  0  0  0  0  0  0
    6.8365  -14.6266   26.3138 C   0  0  0  0  0  0  0  0  0  0  0  0
    6.1317  -13.6240   25.6789 C   0  0  0  0  0  0  0  0  0  0  0  0
    6.5696  -12.3186   25.7364 C   0  0  0  0  0  0  0  0  0  0  0  0
    7.7136  -11.9578   26.4170 C   0  0  0  0  0  0  0  0  0  0  0  0
    8.4169  -12.9922   27.0552 C   0  0  0  0  0  0  0  0  0  0  0  0
    7.9823  -14.2986   27.0019 C   0  0  0  0  0  0  0  0  0  0  0  0
   11.2419  -17.2339   29.0733 C   0  0  0  0  0  0  0  0  0  0  0  0
   11.5970  -16.7825   30.2012 O   0  0  0  0  0  0  0  0  0  0  0  0
   11.2007  -18.6081   28.9133 O   0  0  0  0  0  0  0  0  0  0  0  0
  2  3  1  0
  2  1  1  1
  4  5  2  0
  4  3  1  0
  6  5  1  0
  7 12  2  0
  7  6  1  0
  8  7  1  0
  9 10  1  0
  9  8  2  0
 10 11  2  0
 11 12  1  0
 12  4  1  0
 13  2  1  0
 14 13  2  0
 16 15  1  0
 17 16  1  6
 17 18  1  0
 18 13  1  0
 19 17  1  0
 19 21  1  0
 20 19  2  0
 22 23  1  1
 22 33  1  0
 22 21  1  0
 24 23  1  0
 24 32  1  0
 25 24  2  0
 26 25  1  0
 26 27  1  0
 27 28  1  0
 27 32  2  0
 28 29  2  0
 29 30  1  0
 31 30  2  0
 32 31  1  0
 33 35  1  0
 34 33  2  0
M  END
$$$$
