WSW.pdb
     RDKit          3D

 35 38  0  0  1  0  0  0  0  0999 V2000
    7.4058  -20.2020   20.9963 N   0  0  0  0  0  0  0  0  0  0  0  0
    7.7990  -18.9675   21.5054 C   0  0  1  0  0  0  0  0  0  0  0  0
    7.0565  -18.5819   22.7475 C   0  0  0  0  0  0  0  0  0  0  0  0
    6.6289  -17.1845   22.8217 C   0  0  0  0  0  0  0  0  0  0  0  0
    5.9845  -16.4277   21.8862 C   0  0  0  0  0  0  0  0  0  0  0  0
    5.7639  -15.1727   22.3586 N   0  0  0  0  0  0  0  0  0  0  0  0
    6.2711  -15.1308   23.5999 C   0  0  0  0  0  0  0  0  0  0  0  0
    6.3124  -14.0864   24.5335 C   0  0  0  0  0  0  0  0  0  0  0  0
    6.9037  -14.2879   25.7864 C   0  0  0  0  0  0  0  0  0  0  0  0
    7.4432  -15.5230   26.0934 C   0  0  0  0  0  0  0  0  0  0  0  0
    7.3826  -16.5188   25.1524 C   0  0  0  0  0  0  0  0  0  0  0  0
    6.8099  -16.3625   23.9065 C   0  0  0  0  0  0  0  0  0  0  0  0
    9.2768  -18.7170   21.6419 C   0  0  0  0  0  0  0  0  0  0  0  0
    9.8846  -19.5523   22.3694 O   0  0  0  0  0  0  0  0  0  0  0  0
   11.1138  -16.3197   18.9893 O   0  0  0  0  0  0  0  0  0  0  0  0
   11.3790  -15.9048   20.2418 C   0  0  0  0  0  0  0  0  0  0  0  0
   11.2012  -16.9986   21.2940 C   0  0  2  0  0  0  0  0  0  0  0  0
    9.9641  -17.6681   21.0308 N   0  0  0  0  0  0  0  0  0  0  0  0
   11.6102  -16.6788   22.6247 C   0  0  0  0  0  0  0  0  0  0  0  0
   11.6421  -15.4697   23.0326 O   0  0  0  0  0  0  0  0  0  0  0  0
   12.0077  -17.6258   23.6106 N   0  0  0  0  0  0  0  0  0  0  0  0
   11.7643  -17.4020   25.0018 C   0  0  1  0  0  0  0  0  0  0  0  0
   10.4176  -17.0680   25.4801 C   0  0  0  0  0  0  0  0  0  0  0  0
   10.2898  -16.3904   26.7849 C   0  0  0  0  0  0  0  0  0  0  0  0
   10.6615  -16.7688   28.0581 C   0  0  0  0  0  0  0  0  0  0  0  0
   10.3203  -15.7859   28.9402 N   0  0  0  0  0  0  0  0  0  0  0  0
    9.7355  -14.7713   28.2759 C   0  0  0  0  0  0  0  0  0  0  0  0
    9.2268  -13.5436   28.6489 C   0  0  0  0  0  0  0  0  0  0  0  0
    8.6997  -12.6901   27.7041 C   0  0  0  0  0  0  0  0  0  0  0  0
    8.6541  -13.0162   26.3648 C   0  0  0  0  0  0  0  0  0  0  0  0
    9.1756  -14.2697   26.0059 C   0  0  0  0  0  0  0  0  0  0  0  0
    9.7049  -15.1259   26.9465 C   0  0  0  0  0  0  0  0  0  0  0  0
   12.2389  -18.6346   25.7340 C   0  0  0  0  0  0  0  0  0  0  0  0
   12.3858  -19.7288   25.1149 O   0  0  0  0  0  0  0  0  0  0  0  0
   12.5283  -18.6162   27.0874 O   0  0  0  0  0  0  0  0  0  0  0  0
  2  3  1  0
  2  1  1  1
  4  5  2  0
  4  3  1  0
  6  5  1  0
  7 12  2  0
  7  6  1  0
  8  7  1  0
  9 10  1  0
  9  8  2  0
 10 11  2  0
 11 12  1  0
 12  4  1  0
 13  2  1  0
 14 13  2  0
 16 15  1  0
 17 16  1  6
 17 18  1  0
 18 13  1  0
 19 17  1  0
 19 21  1  0
 20 19  2  0
 22 23  1  6
 22 33  1  0
 22 21  1  0
 24 23  1  0
 24 32  1  0
 25 24  2  0
 26 25  1  0
 26 27  1  0
 27 28  1  0
 27 32  2  0
 28 29  2  0
 29 30  1  0
 31 30  2  0
 32 31  1  0
 33 35  1  0
 34 33  2  0
M  END
$$$$
