WSW.pdb
     RDKit          3D

 35 38  0  0  1  0  0  0  0  0999 V2000
    8.0987  -17.0818   20.7512 N   0  0  0  0  0  0  0  0  0  0  0  0
    8.5611  -16.3672   21.8527 C   0  0  1  0  0  0  0  0  0  0  0  0
    7.6201  -15.2866   22.2879 C   0  0  0  0  0  0  0  0  0  0  0  0
    7.1749  -14.3726   21.2354 C   0  0  0  0  0  0  0  0  0  0  0  0
    5.9103  -14.1214   20.7878 C   0  0  0  0  0  0  0  0  0  0  0  0
    5.9319  -13.1933   19.7953 N   0  0  0  0  0  0  0  0  0  0  0  0
    7.2164  -12.8533   19.6103 C   0  0  0  0  0  0  0  0  0  0  0  0
    7.7997  -11.9431   18.7183 C   0  0  0  0  0  0  0  0  0  0  0  0
    9.1870  -11.7556   18.7138 C   0  0  0  0  0  0  0  0  0  0  0  0
    9.9733  -12.4732   19.5955 C   0  0  0  0  0  0  0  0  0  0  0  0
    9.3642  -13.3539   20.4523 C   0  0  0  0  0  0  0  0  0  0  0  0
    8.0014  -13.5692   20.4893 C   0  0  0  0  0  0  0  0  0  0  0  0
    9.0741  -17.1613   23.0239 C   0  0  0  0  0  0  0  0  0  0  0  0
    8.1739  -17.7187   23.7133 O   0  0  0  0  0  0  0  0  0  0  0  0
   13.2797  -17.4300   23.5201 O   0  0  0  0  0  0  0  0  0  0  0  0
   12.4588  -18.3657   24.0319 C   0  0  0  0  0  0  0  0  0  0  0  0
   11.1177  -17.8048   24.5027 C   0  0  2  0  0  0  0  0  0  0  0  0
   10.4211  -17.3047   23.3570 N   0  0  0  0  0  0  0  0  0  0  0  0
   11.1200  -17.0980   25.7440 C   0  0  0  0  0  0  0  0  0  0  0  0
   11.5371  -15.8938   25.8167 O   0  0  0  0  0  0  0  0  0  0  0  0
   10.6740  -17.6251   26.9890 N   0  0  0  0  0  0  0  0  0  0  0  0
   10.8323  -16.8953   28.2085 C   0  0  1  0  0  0  0  0  0  0  0  0
    9.7406  -16.0636   28.7282 C   0  0  0  0  0  0  0  0  0  0  0  0
    8.5837  -15.8038   27.8495 C   0  0  0  0  0  0  0  0  0  0  0  0
    7.6446  -16.6462   27.2921 C   0  0  0  0  0  0  0  0  0  0  0  0
    6.7690  -15.9160   26.5433 N   0  0  0  0  0  0  0  0  0  0  0  0
    7.1103  -14.6147   26.5977 C   0  0  0  0  0  0  0  0  0  0  0  0
    6.5791  -13.4577   26.0645 C   0  0  0  0  0  0  0  0  0  0  0  0
    7.1594  -12.2362   26.3298 C   0  0  0  0  0  0  0  0  0  0  0  0
    8.2797  -12.1133   27.1248 C   0  0  0  0  0  0  0  0  0  0  0  0
    8.8053  -13.3019   27.6567 C   0  0  0  0  0  0  0  0  0  0  0  0
    8.2280  -14.5252   27.3956 C   0  0  0  0  0  0  0  0  0  0  0  0
   11.2179  -17.8961   29.2717 C   0  0  0  0  0  0  0  0  0  0  0  0
   11.1646  -19.1375   29.0303 O   0  0  0  0  0  0  0  0  0  0  0  0
   11.6386  -17.5019   30.5300 O   0  0  0  0  0  0  0  0  0  0  0  0
  2  3  1  0
  2  1  1  6
  4  5  2  0
  4  3  1  0
  6  5  1  0
  7 12  2  0
  7  6  1  0
  8  7  1  0
  9 10  1  0
  9  8  2  0
 10 11  2  0
 11 12  1  0
 12  4  1  0
 13  2  1  0
 14 13  2  0
 16 15  1  0
 17 16  1  6
 17 18  1  0
 18 13  1  0
 19 17  1  0
 19 21  1  0
 20 19  2  0
 22 23  1  1
 22 33  1  0
 22 21  1  0
 24 23  1  0
 24 32  1  0
 25 24  2  0
 26 25  1  0
 26 27  1  0
 27 28  1  0
 27 32  2  0
 28 29  2  0
 29 30  1  0
 31 30  2  0
 32 31  1  0
 33 35  1  0
 34 33  2  0
M  END
$$$$
