WSW.pdb
     RDKit          3D

 35 38  0  0  1  0  0  0  0  0999 V2000
   11.0427  -17.4102   19.1202 N   0  0  0  0  0  0  0  0  0  0  0  0
   10.3768  -16.7434   20.1447 C   0  0  1  0  0  0  0  0  0  0  0  0
    8.8892  -16.9017   20.0778 C   0  0  0  0  0  0  0  0  0  0  0  0
    8.2134  -16.1079   19.0510 C   0  0  0  0  0  0  0  0  0  0  0  0
    7.6170  -16.5197   17.8945 C   0  0  0  0  0  0  0  0  0  0  0  0
    7.0980  -15.4588   17.2222 N   0  0  0  0  0  0  0  0  0  0  0  0
    7.3664  -14.3670   17.9541 C   0  0  0  0  0  0  0  0  0  0  0  0
    7.0586  -13.0186   17.7275 C   0  0  0  0  0  0  0  0  0  0  0  0
    7.4498  -12.0441   18.6533 C   0  0  0  0  0  0  0  0  0  0  0  0
    8.1389  -12.4233   19.7900 C   0  0  0  0  0  0  0  0  0  0  0  0
    8.4207  -13.7526   19.9749 C   0  0  0  0  0  0  0  0  0  0  0  0
    8.0543  -14.7446   19.0879 C   0  0  0  0  0  0  0  0  0  0  0  0
   10.8934  -16.9396   21.5448 C   0  0  0  0  0  0  0  0  0  0  0  0
   11.3606  -18.0909   21.7742 O   0  0  0  0  0  0  0  0  0  0  0  0
    7.9129  -16.6988   23.3402 O   0  0  0  0  0  0  0  0  0  0  0  0
    8.6313  -15.5647   23.2459 C   0  0  0  0  0  0  0  0  0  0  0  0
   10.0816  -15.7253   23.6998 C   0  0  2  0  0  0  0  0  0  0  0  0
   10.8845  -15.9608   22.5388 N   0  0  0  0  0  0  0  0  0  0  0  0
   10.2957  -16.4439   24.9155 C   0  0  0  0  0  0  0  0  0  0  0  0
    9.9918  -17.6798   25.0137 O   0  0  0  0  0  0  0  0  0  0  0  0
   10.8518  -15.8952   26.1057 N   0  0  0  0  0  0  0  0  0  0  0  0
   10.4330  -16.3388   27.3990 C   0  0  1  0  0  0  0  0  0  0  0  0
    9.0234  -16.6524   27.6608 C   0  0  0  0  0  0  0  0  0  0  0  0
    7.9971  -15.7179   27.1593 C   0  0  0  0  0  0  0  0  0  0  0  0
    6.9419  -15.8917   26.2882 C   0  0  0  0  0  0  0  0  0  0  0  0
    6.2779  -14.7095   26.1398 N   0  0  0  0  0  0  0  0  0  0  0  0
    6.8711  -13.7651   26.8941 C   0  0  0  0  0  0  0  0  0  0  0  0
    6.6171  -12.4310   27.1407 C   0  0  0  0  0  0  0  0  0  0  0  0
    7.4152  -11.7171   28.0080 C   0  0  0  0  0  0  0  0  0  0  0  0
    8.4881  -12.2903   28.6582 C   0  0  0  0  0  0  0  0  0  0  0  0
    8.7303  -13.6478   28.3933 C   0  0  0  0  0  0  0  0  0  0  0  0
    7.9344  -14.3662   27.5281 C   0  0  0  0  0  0  0  0  0  0  0  0
   11.2631  -17.5545   27.7358 C   0  0  0  0  0  0  0  0  0  0  0  0
   12.0266  -18.0679   26.8666 O   0  0  0  0  0  0  0  0  0  0  0  0
   11.2234  -18.1443   28.9874 O   0  0  0  0  0  0  0  0  0  0  0  0
  2  3  1  0
  2  1  1  6
  4  5  2  0
  4  3  1  0
  6  5  1  0
  7 12  2  0
  7  6  1  0
  8  7  1  0
  9 10  1  0
  9  8  2  0
 10 11  2  0
 11 12  1  0
 12  4  1  0
 13  2  1  0
 14 13  2  0
 16 15  1  0
 17 16  1  6
 17 18  1  0
 18 13  1  0
 19 17  1  0
 19 21  1  0
 20 19  2  0
 22 23  1  6
 22 33  1  0
 22 21  1  0
 24 23  1  0
 24 32  1  0
 25 24  2  0
 26 25  1  0
 26 27  1  0
 27 28  1  0
 27 32  2  0
 28 29  2  0
 29 30  1  0
 31 30  2  0
 32 31  1  0
 33 35  1  0
 34 33  2  0
M  END
$$$$
