WSW.pdb
     RDKit          3D

 35 38  0  0  1  0  0  0  0  0999 V2000
    9.6384  -16.5386   21.0102 N   0  0  0  0  0  0  0  0  0  0  0  0
    8.9364  -16.2318   22.1724 C   0  0  1  0  0  0  0  0  0  0  0  0
    7.4728  -16.0212   21.9353 C   0  0  0  0  0  0  0  0  0  0  0  0
    7.1297  -15.2432   20.7444 C   0  0  0  0  0  0  0  0  0  0  0  0
    6.3741  -15.6026   19.6662 C   0  0  0  0  0  0  0  0  0  0  0  0
    6.2949  -14.5778   18.7771 N   0  0  0  0  0  0  0  0  0  0  0  0
    7.0041  -13.5621   19.2920 C   0  0  0  0  0  0  0  0  0  0  0  0
    7.2502  -12.2759   18.7925 C   0  0  0  0  0  0  0  0  0  0  0  0
    8.0327  -11.3760   19.5257 C   0  0  0  0  0  0  0  0  0  0  0  0
    8.5575  -11.7662   20.7436 C   0  0  0  0  0  0  0  0  0  0  0  0
    8.2935  -13.0331   21.1973 C   0  0  0  0  0  0  0  0  0  0  0  0
    7.5283  -13.9509   20.5067 C   0  0  0  0  0  0  0  0  0  0  0  0
    9.1842  -17.0997   23.3769 C   0  0  0  0  0  0  0  0  0  0  0  0
    8.2404  -17.1119   24.2168 O   0  0  0  0  0  0  0  0  0  0  0  0
   13.3366  -17.1215   23.6829 O   0  0  0  0  0  0  0  0  0  0  0  0
   12.6612  -18.2297   24.0395 C   0  0  0  0  0  0  0  0  0  0  0  0
   11.2933  -17.9357   24.6537 C   0  0  2  0  0  0  0  0  0  0  0  0
   10.3400  -17.8512   23.5897 N   0  0  0  0  0  0  0  0  0  0  0  0
   11.2683  -17.0254   25.7543 C   0  0  0  0  0  0  0  0  0  0  0  0
   11.9082  -15.9217   25.7123 O   0  0  0  0  0  0  0  0  0  0  0  0
   10.5566  -17.2281   26.9705 N   0  0  0  0  0  0  0  0  0  0  0  0
   10.7742  -16.3934   28.1109 C   0  0  1  0  0  0  0  0  0  0  0  0
    9.8748  -15.2694   28.3964 C   0  0  0  0  0  0  0  0  0  0  0  0
    8.5928  -15.2008   27.6686 C   0  0  0  0  0  0  0  0  0  0  0  0
    7.6647  -16.1692   27.3471 C   0  0  0  0  0  0  0  0  0  0  0  0
    6.6367  -15.5991   26.6552 N   0  0  0  0  0  0  0  0  0  0  0  0
    6.8674  -14.2799   26.5167 C   0  0  0  0  0  0  0  0  0  0  0  0
    6.1709  -13.2367   25.9408 C   0  0  0  0  0  0  0  0  0  0  0  0
    6.6726  -11.9539   25.9845 C   0  0  0  0  0  0  0  0  0  0  0  0
    7.8740  -11.6563   26.5931 C   0  0  0  0  0  0  0  0  0  0  0  0
    8.5676  -12.7313   27.1721 C   0  0  0  0  0  0  0  0  0  0  0  0
    8.0695  -14.0152   27.1323 C   0  0  0  0  0  0  0  0  0  0  0  0
   10.8040  -17.2997   29.3185 C   0  0  0  0  0  0  0  0  0  0  0  0
   11.1532  -16.8480   30.4482 O   0  0  0  0  0  0  0  0  0  0  0  0
   10.4553  -18.6369   29.2391 O   0  0  0  0  0  0  0  0  0  0  0  0
  2  3  1  0
  2  1  1  6
  4  5  2  0
  4  3  1  0
  6  5  1  0
  7 12  2  0
  7  6  1  0
  8  7  1  0
  9 10  1  0
  9  8  2  0
 10 11  2  0
 11 12  1  0
 12  4  1  0
 13  2  1  0
 14 13  2  0
 16 15  1  0
 17 16  1  6
 17 18  1  0
 18 13  1  0
 19 17  1  0
 19 21  1  0
 20 19  2  0
 22 23  1  1
 22 33  1  0
 22 21  1  0
 24 23  1  0
 24 32  1  0
 25 24  2  0
 26 25  1  0
 26 27  1  0
 27 28  1  0
 27 32  2  0
 28 29  2  0
 29 30  1  0
 31 30  2  0
 32 31  1  0
 33 35  1  0
 34 33  2  0
M  END
$$$$
