PMP.pdb
     RDKit          3D

 23 24  0  0  1  0  0  0  0  0999 V2000
    6.6676  -20.3227   24.1629 N   0  0  0  0  0  0  0  0  0  0  0  0
    6.1388  -21.6161   24.4647 C   0  0  0  0  0  0  0  0  0  0  0  0
    4.7260  -21.6887   23.9322 C   0  0  0  0  0  0  0  0  0  0  0  0
    4.4214  -20.2083   23.6770 C   0  0  0  0  0  0  0  0  0  0  0  0
    5.7572  -19.7181   23.2278 C   0  0  1  0  0  0  0  0  0  0  0  0
    5.8862  -18.2529   23.1637 C   0  0  0  0  0  0  0  0  0  0  0  0
    5.3230  -17.6492   22.2042 O   0  0  0  0  0  0  0  0  0  0  0  0
    7.2784  -11.3562   26.6174 C   0  0  0  0  0  0  0  0  0  0  0  0
    7.1109  -13.1527   26.7672 S   0  0  0  0  0  0  0  0  0  0  0  0
    7.2416  -13.8758   25.0901 C   0  0  0  0  0  0  0  0  0  0  0  0
    7.0366  -15.3628   25.2534 C   0  0  0  0  0  0  0  0  0  0  0  0
    6.8754  -16.0583   23.9055 C   0  0  2  0  0  0  0  0  0  0  0  0
    6.5907  -17.4380   24.0884 N   0  0  0  0  0  0  0  0  0  0  0  0
    8.0486  -15.7309   23.0719 C   0  0  0  0  0  0  0  0  0  0  0  0
    9.0763  -16.4546   23.3517 O   0  0  0  0  0  0  0  0  0  0  0  0
    8.1119  -14.7478   22.0628 N   0  0  0  0  0  0  0  0  0  0  0  0
    7.2016  -13.6473   21.8191 C   0  0  0  0  0  0  0  0  0  0  0  0
    7.9473  -12.7298   20.8623 C   0  0  0  0  0  0  0  0  0  0  0  0
    8.7427  -13.7419   20.0217 C   0  0  0  0  0  0  0  0  0  0  0  0
    9.1855  -14.7159   21.0744 C   0  0  1  0  0  0  0  0  0  0  0  0
   10.4428  -14.2129   21.7085 C   0  0  0  0  0  0  0  0  0  0  0  0
   10.4539  -13.7833   22.8869 O   0  0  0  0  0  0  0  0  0  0  0  0
   11.6408  -14.2067   21.0084 O   0  0  0  0  0  0  0  0  0  0  0  0
  2  3  1  0
  2  1  1  0
  4  3  1  0
  5  6  1  1
  5  4  1  0
  5  1  1  0
  6  7  2  0
  9  8  1  0
  9 10  1  0
 10 11  1  0
 12 11  1  1
 12 14  1  0
 13 12  1  0
 13  6  1  0
 14 15  2  0
 14 16  1  0
 16 17  1  0
 16 20  1  0
 18 17  1  0
 18 19  1  0
 19 20  1  0
 20 21  1  1
 21 22  2  0
 21 23  1  0
M  END
$$$$
