PMP.pdb
     RDKit          3D

 23 24  0  0  1  0  0  0  0  0999 V2000
   10.2154  -16.3078   20.0984 N   0  0  0  0  0  0  0  0  0  0  0  0
   10.5245  -17.3972   19.2258 C   0  0  0  0  0  0  0  0  0  0  0  0
   10.1752  -18.6868   19.9326 C   0  0  0  0  0  0  0  0  0  0  0  0
   10.0278  -18.2086   21.3814 C   0  0  0  0  0  0  0  0  0  0  0  0
    9.4330  -16.8560   21.1736 C   0  0  1  0  0  0  0  0  0  0  0  0
    9.4186  -15.9988   22.3705 C   0  0  0  0  0  0  0  0  0  0  0  0
   10.4571  -15.3227   22.6286 O   0  0  0  0  0  0  0  0  0  0  0  0
    5.8839  -11.4832   27.4840 C   0  0  0  0  0  0  0  0  0  0  0  0
    5.9073  -13.1803   26.8536 S   0  0  0  0  0  0  0  0  0  0  0  0
    7.0150  -13.2282   25.3966 C   0  0  0  0  0  0  0  0  0  0  0  0
    6.9943  -14.6527   24.8961 C   0  0  0  0  0  0  0  0  0  0  0  0
    8.3878  -15.1276   24.4974 C   0  0  2  0  0  0  0  0  0  0  0  0
    8.3359  -15.8533   23.2772 N   0  0  0  0  0  0  0  0  0  0  0  0
    8.9893  -15.8210   25.6531 C   0  0  0  0  0  0  0  0  0  0  0  0
    8.8210  -17.0970   25.6116 O   0  0  0  0  0  0  0  0  0  0  0  0
    9.6852  -15.2197   26.7222 N   0  0  0  0  0  0  0  0  0  0  0  0
    9.6793  -13.8303   27.1328 C   0  0  0  0  0  0  0  0  0  0  0  0
   10.2976  -13.8323   28.5224 C   0  0  0  0  0  0  0  0  0  0  0  0
   11.3277  -14.9669   28.3997 C   0  0  0  0  0  0  0  0  0  0  0  0
   10.5539  -15.9837   27.6123 C   0  0  1  0  0  0  0  0  0  0  0  0
    9.7245  -16.8011   28.5504 C   0  0  0  0  0  0  0  0  0  0  0  0
    8.4827  -16.6435   28.6316 O   0  0  0  0  0  0  0  0  0  0  0  0
   10.3071  -17.7632   29.3630 O   0  0  0  0  0  0  0  0  0  0  0  0
  2  3  1  0
  2  1  1  0
  4  3  1  0
  5  6  1  1
  5  4  1  0
  5  1  1  0
  6  7  2  0
  9  8  1  0
  9 10  1  0
 10 11  1  0
 12 11  1  1
 12 14  1  0
 13 12  1  0
 13  6  1  0
 14 15  2  0
 14 16  1  0
 16 17  1  0
 16 20  1  0
 18 17  1  0
 18 19  1  0
 19 20  1  0
 20 21  1  1
 21 22  2  0
 21 23  1  0
M  END
$$$$
