PMP.pdb
     RDKit          3D

 23 24  0  0  1  0  0  0  0  0999 V2000
    8.2360  -17.0622   20.8574 N   0  0  0  0  0  0  0  0  0  0  0  0
    7.7806  -17.2549   19.5162 C   0  0  0  0  0  0  0  0  0  0  0  0
    8.1426  -16.0286   18.7099 C   0  0  0  0  0  0  0  0  0  0  0  0
    8.4712  -15.0226   19.8186 C   0  0  0  0  0  0  0  0  0  0  0  0
    9.1043  -15.9158   20.8325 C   0  0  1  0  0  0  0  0  0  0  0  0
    9.2917  -15.3062   22.1594 C   0  0  0  0  0  0  0  0  0  0  0  0
   10.2411  -14.4818   22.3048 O   0  0  0  0  0  0  0  0  0  0  0  0
    5.8673  -11.2272   27.3269 C   0  0  0  0  0  0  0  0  0  0  0  0
    5.6499  -12.8487   26.5513 S   0  0  0  0  0  0  0  0  0  0  0  0
    7.3095  -13.5683   26.2680 C   0  0  0  0  0  0  0  0  0  0  0  0
    7.2578  -14.2300   24.9118 C   0  0  0  0  0  0  0  0  0  0  0  0
    8.6004  -14.8499   24.5383 C   0  0  2  0  0  0  0  0  0  0  0  0
    8.4980  -15.5558   23.3097 N   0  0  0  0  0  0  0  0  0  0  0  0
    9.0971  -15.6137   25.6995 C   0  0  0  0  0  0  0  0  0  0  0  0
    8.7813  -16.8610   25.6475 O   0  0  0  0  0  0  0  0  0  0  0  0
    9.8406  -15.1024   26.7833 N   0  0  0  0  0  0  0  0  0  0  0  0
    9.8377  -13.7579   27.3231 C   0  0  0  0  0  0  0  0  0  0  0  0
   10.5287  -13.8786   28.6726 C   0  0  0  0  0  0  0  0  0  0  0  0
   11.5661  -14.9775   28.3904 C   0  0  0  0  0  0  0  0  0  0  0  0
   10.7654  -15.9303   27.5514 C   0  0  1  0  0  0  0  0  0  0  0  0
    9.9980  -16.8470   28.4494 C   0  0  0  0  0  0  0  0  0  0  0  0
    8.7512  -16.7629   28.5583 O   0  0  0  0  0  0  0  0  0  0  0  0
   10.6459  -17.8232   29.1929 O   0  0  0  0  0  0  0  0  0  0  0  0
  2  3  1  0
  2  1  1  0
  4  3  1  0
  5  6  1  1
  5  4  1  0
  5  1  1  0
  6  7  2  0
  9  8  1  0
  9 10  1  0
 10 11  1  0
 12 11  1  1
 12 14  1  0
 13 12  1  0
 13  6  1  0
 14 15  2  0
 14 16  1  0
 16 17  1  0
 16 20  1  0
 18 17  1  0
 18 19  1  0
 19 20  1  0
 20 21  1  1
 21 22  2  0
 21 23  1  0
M  END
$$$$
