PMP.pdb
     RDKit          3D

 23 24  0  0  1  0  0  0  0  0999 V2000
   10.1127  -15.9131   20.3842 N   0  0  0  0  0  0  0  0  0  0  0  0
   10.3667  -16.9535   19.4374 C   0  0  0  0  0  0  0  0  0  0  0  0
    9.8578  -18.2552   20.0128 C   0  0  0  0  0  0  0  0  0  0  0  0
    9.6740  -17.8835   21.4884 C   0  0  0  0  0  0  0  0  0  0  0  0
    9.2223  -16.4664   21.3690 C   0  0  1  0  0  0  0  0  0  0  0  0
    9.2207  -15.7116   22.6330 C   0  0  0  0  0  0  0  0  0  0  0  0
   10.1618  -14.8893   22.8341 O   0  0  0  0  0  0  0  0  0  0  0  0
    5.8074  -11.0666   26.4834 C   0  0  0  0  0  0  0  0  0  0  0  0
    6.4072  -12.7399   26.8269 S   0  0  0  0  0  0  0  0  0  0  0  0
    6.3973  -13.6792   25.2553 C   0  0  0  0  0  0  0  0  0  0  0  0
    6.9773  -15.0372   25.5703 C   0  0  0  0  0  0  0  0  0  0  0  0
    8.3578  -15.2160   24.9471 C   0  0  2  0  0  0  0  0  0  0  0  0
    8.2507  -15.8168   23.6642 N   0  0  0  0  0  0  0  0  0  0  0  0
    9.2233  -15.9012   25.9269 C   0  0  0  0  0  0  0  0  0  0  0  0
    9.3429  -17.1614   25.6908 O   0  0  0  0  0  0  0  0  0  0  0  0
    9.8792  -15.3077   27.0253 N   0  0  0  0  0  0  0  0  0  0  0  0
    9.7050  -13.9748   27.5657 C   0  0  0  0  0  0  0  0  0  0  0  0
   10.3795  -14.0158   28.9283 C   0  0  0  0  0  0  0  0  0  0  0  0
   11.5463  -14.9818   28.6656 C   0  0  0  0  0  0  0  0  0  0  0  0
   10.8816  -16.0211   27.8107 C   0  0  1  0  0  0  0  0  0  0  0  0
   10.2124  -17.0258   28.6932 C   0  0  0  0  0  0  0  0  0  0  0  0
    8.9634  -17.0757   28.7966 O   0  0  0  0  0  0  0  0  0  0  0  0
   10.9574  -17.9374   29.4277 O   0  0  0  0  0  0  0  0  0  0  0  0
  2  3  1  0
  2  1  1  0
  4  3  1  0
  5  6  1  1
  5  4  1  0
  5  1  1  0
  6  7  2  0
  9  8  1  0
  9 10  1  0
 10 11  1  0
 12 11  1  1
 12 14  1  0
 13 12  1  0
 13  6  1  0
 14 15  2  0
 14 16  1  0
 16 17  1  0
 16 20  1  0
 18 17  1  0
 18 19  1  0
 19 20  1  0
 20 21  1  1
 21 22  2  0
 21 23  1  0
M  END
$$$$
