PMP.pdb
     RDKit          3D

 23 24  0  0  1  0  0  0  0  0999 V2000
    9.6055  -15.9362   20.2312 N   0  0  0  0  0  0  0  0  0  0  0  0
    9.5636  -16.9766   19.2518 C   0  0  0  0  0  0  0  0  0  0  0  0
    8.8121  -18.1506   19.8366 C   0  0  0  0  0  0  0  0  0  0  0  0
    8.8047  -17.7940   21.3273 C   0  0  0  0  0  0  0  0  0  0  0  0
    8.6746  -16.3090   21.2623 C   0  0  1  0  0  0  0  0  0  0  0  0
    8.9174  -15.6128   22.5367 C   0  0  0  0  0  0  0  0  0  0  0  0
   10.0748  -15.1450   22.7459 O   0  0  0  0  0  0  0  0  0  0  0  0
    6.4856  -11.0239   26.9416 C   0  0  0  0  0  0  0  0  0  0  0  0
    5.4657  -12.3865   26.3244 S   0  0  0  0  0  0  0  0  0  0  0  0
    6.3825  -13.2132   24.9723 C   0  0  0  0  0  0  0  0  0  0  0  0
    6.9724  -14.4693   25.5674 C   0  0  0  0  0  0  0  0  0  0  0  0
    8.2568  -14.8787   24.8540 C   0  0  2  0  0  0  0  0  0  0  0  0
    7.9646  -15.4109   23.5696 N   0  0  0  0  0  0  0  0  0  0  0  0
    9.0379  -15.7396   25.7635 C   0  0  0  0  0  0  0  0  0  0  0  0
    8.9523  -16.9888   25.4632 O   0  0  0  0  0  0  0  0  0  0  0  0
    9.8147  -15.3130   26.8605 N   0  0  0  0  0  0  0  0  0  0  0  0
    9.8107  -14.0227   27.5195 C   0  0  0  0  0  0  0  0  0  0  0  0
   10.5560  -14.2503   28.8257 C   0  0  0  0  0  0  0  0  0  0  0  0
   11.5996  -15.2985   28.4064 C   0  0  0  0  0  0  0  0  0  0  0  0
   10.7824  -16.1879   27.5152 C   0  0  1  0  0  0  0  0  0  0  0  0
   10.0660  -17.1967   28.3548 C   0  0  0  0  0  0  0  0  0  0  0  0
    8.8239  -17.1444   28.5218 O   0  0  0  0  0  0  0  0  0  0  0  0
   10.7577  -18.2261   28.9772 O   0  0  0  0  0  0  0  0  0  0  0  0
  2  3  1  0
  2  1  1  0
  4  3  1  0
  5  6  1  1
  5  4  1  0
  5  1  1  0
  6  7  2  0
  9  8  1  0
  9 10  1  0
 10 11  1  0
 12 11  1  1
 12 14  1  0
 13 12  1  0
 13  6  1  0
 14 15  2  0
 14 16  1  0
 16 17  1  0
 16 20  1  0
 18 17  1  0
 18 19  1  0
 19 20  1  0
 20 21  1  1
 21 22  2  0
 21 23  1  0
M  END
$$$$
