PMP.pdb
     RDKit          3D

 23 24  0  0  1  0  0  0  0  0999 V2000
    8.0444  -16.8901   20.8815 N   0  0  0  0  0  0  0  0  0  0  0  0
    7.6339  -17.0311   19.5194 C   0  0  0  0  0  0  0  0  0  0  0  0
    8.1912  -15.8678   18.7316 C   0  0  0  0  0  0  0  0  0  0  0  0
    8.5933  -14.9054   19.8547 C   0  0  0  0  0  0  0  0  0  0  0  0
    9.0546  -15.8663   20.8989 C   0  0  1  0  0  0  0  0  0  0  0  0
    9.2545  -15.2771   22.2333 C   0  0  0  0  0  0  0  0  0  0  0  0
   10.2833  -14.5634   22.4185 O   0  0  0  0  0  0  0  0  0  0  0  0
    5.9705  -11.2913   27.7687 C   0  0  0  0  0  0  0  0  0  0  0  0
    5.7054  -12.7733   26.7631 S   0  0  0  0  0  0  0  0  0  0  0  0
    7.3408  -13.5140   26.4035 C   0  0  0  0  0  0  0  0  0  0  0  0
    7.2373  -14.1181   25.0235 C   0  0  0  0  0  0  0  0  0  0  0  0
    8.5478  -14.7722   24.5977 C   0  0  2  0  0  0  0  0  0  0  0  0
    8.3916  -15.4329   23.3498 N   0  0  0  0  0  0  0  0  0  0  0  0
    9.0433  -15.5913   25.7212 C   0  0  0  0  0  0  0  0  0  0  0  0
    8.6096  -16.8032   25.6836 O   0  0  0  0  0  0  0  0  0  0  0  0
    9.8983  -15.1630   26.7577 N   0  0  0  0  0  0  0  0  0  0  0  0
   10.0520  -13.8306   27.3058 C   0  0  0  0  0  0  0  0  0  0  0  0
   10.8147  -14.0303   28.6064 C   0  0  0  0  0  0  0  0  0  0  0  0
   11.7279  -15.2145   28.2495 C   0  0  0  0  0  0  0  0  0  0  0  0
   10.7917  -16.0805   27.4580 C   0  0  1  0  0  0  0  0  0  0  0  0
   10.0038  -16.9358   28.3978 C   0  0  0  0  0  0  0  0  0  0  0  0
    8.7797  -16.7404   28.5894 O   0  0  0  0  0  0  0  0  0  0  0  0
   10.6068  -17.9767   29.0896 O   0  0  0  0  0  0  0  0  0  0  0  0
  2  3  1  0
  2  1  1  0
  4  3  1  0
  5  6  1  1
  5  4  1  0
  5  1  1  0
  6  7  2  0
  9  8  1  0
  9 10  1  0
 10 11  1  0
 12 11  1  1
 12 14  1  0
 13 12  1  0
 13  6  1  0
 14 15  2  0
 14 16  1  0
 16 17  1  0
 16 20  1  0
 18 17  1  0
 18 19  1  0
 19 20  1  0
 20 21  1  1
 21 22  2  0
 21 23  1  0
M  END
$$$$
