PMP.pdb
     RDKit          3D

 23 24  0  0  1  0  0  0  0  0999 V2000
   10.0156  -16.2622   20.2071 N   0  0  0  0  0  0  0  0  0  0  0  0
   10.2587  -17.3543   19.3173 C   0  0  0  0  0  0  0  0  0  0  0  0
    9.9360  -18.6403   20.0432 C   0  0  0  0  0  0  0  0  0  0  0  0
    9.8810  -18.1618   21.4983 C   0  0  0  0  0  0  0  0  0  0  0  0
    9.2918  -16.8017   21.3267 C   0  0  1  0  0  0  0  0  0  0  0  0
    9.3592  -15.9457   22.5227 C   0  0  0  0  0  0  0  0  0  0  0  0
   10.4497  -15.3507   22.7656 O   0  0  0  0  0  0  0  0  0  0  0  0
    6.4530  -10.9241   26.4866 C   0  0  0  0  0  0  0  0  0  0  0  0
    5.7685  -12.6002   26.4847 S   0  0  0  0  0  0  0  0  0  0  0  0
    7.1660  -13.7829   26.4586 C   0  0  0  0  0  0  0  0  0  0  0  0
    7.0626  -14.5310   25.1511 C   0  0  0  0  0  0  0  0  0  0  0  0
    8.4289  -15.0047   24.6661 C   0  0  2  0  0  0  0  0  0  0  0  0
    8.3033  -15.7180   23.4439 N   0  0  0  0  0  0  0  0  0  0  0  0
    9.0958  -15.7109   25.7774 C   0  0  0  0  0  0  0  0  0  0  0  0
    8.9184  -16.9856   25.7356 O   0  0  0  0  0  0  0  0  0  0  0  0
    9.8587  -15.1222   26.8071 N   0  0  0  0  0  0  0  0  0  0  0  0
    9.8742  -13.7392   27.2385 C   0  0  0  0  0  0  0  0  0  0  0  0
   10.5833  -13.7589   28.5838 C   0  0  0  0  0  0  0  0  0  0  0  0
   11.6078  -14.8862   28.3757 C   0  0  0  0  0  0  0  0  0  0  0  0
   10.7876  -15.8950   27.6258 C   0  0  1  0  0  0  0  0  0  0  0  0
   10.0257  -16.7307   28.6041 C   0  0  0  0  0  0  0  0  0  0  0  0
    8.7809  -16.6293   28.7202 O   0  0  0  0  0  0  0  0  0  0  0  0
   10.6767  -17.6481   29.4166 O   0  0  0  0  0  0  0  0  0  0  0  0
  2  3  1  0
  2  1  1  0
  4  3  1  0
  5  6  1  1
  5  4  1  0
  5  1  1  0
  6  7  2  0
  9  8  1  0
  9 10  1  0
 10 11  1  0
 12 11  1  1
 12 14  1  0
 13 12  1  0
 13  6  1  0
 14 15  2  0
 14 16  1  0
 16 17  1  0
 16 20  1  0
 18 17  1  0
 18 19  1  0
 19 20  1  0
 20 21  1  1
 21 22  2  0
 21 23  1  0
M  END
$$$$
