PMP.pdb
     RDKit          3D

 23 24  0  0  1  0  0  0  0  0999 V2000
    7.2298  -20.1267   24.6377 N   0  0  0  0  0  0  0  0  0  0  0  0
    6.8621  -21.4542   25.0202 C   0  0  0  0  0  0  0  0  0  0  0  0
    5.4437  -21.7056   24.5624 C   0  0  0  0  0  0  0  0  0  0  0  0
    4.9653  -20.2811   24.2602 C   0  0  0  0  0  0  0  0  0  0  0  0
    6.2168  -19.6702   23.7244 C   0  0  1  0  0  0  0  0  0  0  0  0
    6.1792  -18.2044   23.5919 C   0  0  0  0  0  0  0  0  0  0  0  0
    5.4709  -17.7104   22.6664 O   0  0  0  0  0  0  0  0  0  0  0  0
    5.9177  -11.9942   27.1247 C   0  0  0  0  0  0  0  0  0  0  0  0
    7.4952  -12.7882   26.7255 S   0  0  0  0  0  0  0  0  0  0  0  0
    7.3191  -13.6130   25.1003 C   0  0  0  0  0  0  0  0  0  0  0  0
    7.2968  -15.0968   25.3792 C   0  0  0  0  0  0  0  0  0  0  0  0
    7.0669  -15.9037   24.1054 C   0  0  2  0  0  0  0  0  0  0  0  0
    6.8698  -17.2762   24.4146 N   0  0  0  0  0  0  0  0  0  0  0  0
    8.1525  -15.5899   23.1559 C   0  0  0  0  0  0  0  0  0  0  0  0
    9.2230  -16.2692   23.3808 O   0  0  0  0  0  0  0  0  0  0  0  0
    8.0968  -14.6613   22.0960 N   0  0  0  0  0  0  0  0  0  0  0  0
    7.1963  -13.5388   21.9283 C   0  0  0  0  0  0  0  0  0  0  0  0
    7.8207  -12.7003   20.8236 C   0  0  0  0  0  0  0  0  0  0  0  0
    8.4494  -13.7838   19.9323 C   0  0  0  0  0  0  0  0  0  0  0  0
    9.0120  -14.7214   20.9605 C   0  0  1  0  0  0  0  0  0  0  0  0
   10.3651  -14.2383   21.3748 C   0  0  0  0  0  0  0  0  0  0  0  0
   10.5630  -13.7433   22.5103 O   0  0  0  0  0  0  0  0  0  0  0  0
   11.4476  -14.3238   20.5109 O   0  0  0  0  0  0  0  0  0  0  0  0
  2  3  1  0
  2  1  1  0
  4  3  1  0
  5  6  1  1
  5  4  1  0
  5  1  1  0
  6  7  2  0
  9  8  1  0
  9 10  1  0
 10 11  1  0
 12 11  1  1
 12 14  1  0
 13 12  1  0
 13  6  1  0
 14 15  2  0
 14 16  1  0
 16 17  1  0
 16 20  1  0
 18 17  1  0
 18 19  1  0
 19 20  1  0
 20 21  1  1
 21 22  2  0
 21 23  1  0
M  END
$$$$
