PMP.pdb
     RDKit          3D

 23 24  0  0  1  0  0  0  0  0999 V2000
    8.5855  -17.2164   20.9187 N   0  0  0  0  0  0  0  0  0  0  0  0
    8.2204  -17.4246   19.5523 C   0  0  0  0  0  0  0  0  0  0  0  0
    8.4266  -16.1287   18.8020 C   0  0  0  0  0  0  0  0  0  0  0  0
    8.5535  -15.1271   19.9552 C   0  0  0  0  0  0  0  0  0  0  0  0
    9.2714  -15.9531   20.9695 C   0  0  1  0  0  0  0  0  0  0  0  0
    9.3094  -15.3725   22.3219 C   0  0  0  0  0  0  0  0  0  0  0  0
   10.2608  -14.5864   22.6035 O   0  0  0  0  0  0  0  0  0  0  0  0
    5.5262  -11.6141   26.1803 C   0  0  0  0  0  0  0  0  0  0  0  0
    7.1711  -12.3681   26.2417 S   0  0  0  0  0  0  0  0  0  0  0  0
    6.9608  -14.1643   26.5279 C   0  0  0  0  0  0  0  0  0  0  0  0
    6.9679  -14.8136   25.1647 C   0  0  0  0  0  0  0  0  0  0  0  0
    8.3871  -14.9897   24.6345 C   0  0  2  0  0  0  0  0  0  0  0  0
    8.3675  -15.6109   23.3570 N   0  0  0  0  0  0  0  0  0  0  0  0
    9.1930  -15.6522   25.6787 C   0  0  0  0  0  0  0  0  0  0  0  0
    9.2817  -16.9253   25.5069 O   0  0  0  0  0  0  0  0  0  0  0  0
    9.8252  -15.0261   26.7728 N   0  0  0  0  0  0  0  0  0  0  0  0
    9.6398  -13.6778   27.2695 C   0  0  0  0  0  0  0  0  0  0  0  0
   10.2848  -13.6780   28.6469 C   0  0  0  0  0  0  0  0  0  0  0  0
   11.4566  -14.6511   28.4383 C   0  0  0  0  0  0  0  0  0  0  0  0
   10.8102  -15.7156   27.6004 C   0  0  1  0  0  0  0  0  0  0  0  0
   10.1219  -16.6937   28.4978 C   0  0  0  0  0  0  0  0  0  0  0  0
    8.8706  -16.7611   28.5536 O   0  0  0  0  0  0  0  0  0  0  0  0
   10.8508  -17.5606   29.2995 O   0  0  0  0  0  0  0  0  0  0  0  0
  2  3  1  0
  2  1  1  0
  4  3  1  0
  5  6  1  1
  5  4  1  0
  5  1  1  0
  6  7  2  0
  9  8  1  0
  9 10  1  0
 10 11  1  0
 12 11  1  1
 12 14  1  0
 13 12  1  0
 13  6  1  0
 14 15  2  0
 14 16  1  0
 16 17  1  0
 16 20  1  0
 18 17  1  0
 18 19  1  0
 19 20  1  0
 20 21  1  1
 21 22  2  0
 21 23  1  0
M  END
$$$$
