PMP.pdb
     RDKit          3D

 23 24  0  0  1  0  0  0  0  0999 V2000
    8.1001  -16.5336   20.7049 N   0  0  0  0  0  0  0  0  0  0  0  0
    7.6376  -16.5856   19.3533 C   0  0  0  0  0  0  0  0  0  0  0  0
    8.0154  -15.2909   18.6709 C   0  0  0  0  0  0  0  0  0  0  0  0
    8.3626  -14.4047   19.8723 C   0  0  0  0  0  0  0  0  0  0  0  0
    8.9855  -15.4032   20.7897 C   0  0  1  0  0  0  0  0  0  0  0  0
    9.1861  -14.9310   22.1697 C   0  0  0  0  0  0  0  0  0  0  0  0
   10.1797  -14.1820   22.4018 O   0  0  0  0  0  0  0  0  0  0  0  0
    6.0483  -10.9982   27.5208 C   0  0  0  0  0  0  0  0  0  0  0  0
    5.6611  -12.4744   26.5468 S   0  0  0  0  0  0  0  0  0  0  0  0
    7.1933  -13.4632   26.3829 C   0  0  0  0  0  0  0  0  0  0  0  0
    7.0977  -14.1747   25.0546 C   0  0  0  0  0  0  0  0  0  0  0  0
    8.4666  -14.6368   24.5657 C   0  0  2  0  0  0  0  0  0  0  0  0
    8.3600  -15.2376   23.2828 N   0  0  0  0  0  0  0  0  0  0  0  0
    9.0866  -15.4529   25.6277 C   0  0  0  0  0  0  0  0  0  0  0  0
    8.9138  -16.7165   25.4501 O   0  0  0  0  0  0  0  0  0  0  0  0
    9.8033  -14.9727   26.7434 N   0  0  0  0  0  0  0  0  0  0  0  0
    9.7523  -13.6573   27.3486 C   0  0  0  0  0  0  0  0  0  0  0  0
   10.4345  -13.8227   28.6978 C   0  0  0  0  0  0  0  0  0  0  0  0
   11.5092  -14.8730   28.3731 C   0  0  0  0  0  0  0  0  0  0  0  0
   10.7472  -15.8079   27.4796 C   0  0  1  0  0  0  0  0  0  0  0  0
   10.0014  -16.7918   28.3232 C   0  0  0  0  0  0  0  0  0  0  0  0
    8.7520  -16.7502   28.4256 O   0  0  0  0  0  0  0  0  0  0  0  0
   10.6731  -17.7852   29.0213 O   0  0  0  0  0  0  0  0  0  0  0  0
  2  3  1  0
  2  1  1  0
  4  3  1  0
  5  6  1  1
  5  4  1  0
  5  1  1  0
  6  7  2  0
  9  8  1  0
  9 10  1  0
 10 11  1  0
 12 11  1  1
 12 14  1  0
 13 12  1  0
 13  6  1  0
 14 15  2  0
 14 16  1  0
 16 17  1  0
 16 20  1  0
 18 17  1  0
 18 19  1  0
 19 20  1  0
 20 21  1  1
 21 22  2  0
 21 23  1  0
M  END
$$$$
