PMP.pdb
     RDKit          3D

 23 24  0  0  1  0  0  0  0  0999 V2000
    6.8275  -20.5668   24.7801 N   0  0  0  0  0  0  0  0  0  0  0  0
    6.3907  -21.8851   25.1193 C   0  0  0  0  0  0  0  0  0  0  0  0
    4.9997  -22.0836   24.5620 C   0  0  0  0  0  0  0  0  0  0  0  0
    4.5906  -20.6406   24.2460 C   0  0  0  0  0  0  0  0  0  0  0  0
    5.8956  -20.0667   23.8053 C   0  0  1  0  0  0  0  0  0  0  0  0
    5.9155  -18.5991   23.6894 C   0  0  0  0  0  0  0  0  0  0  0  0
    5.3377  -18.0748   22.6927 O   0  0  0  0  0  0  0  0  0  0  0  0
    6.9179  -11.5041   26.7956 C   0  0  0  0  0  0  0  0  0  0  0  0
    7.2566  -13.2701   27.0072 S   0  0  0  0  0  0  0  0  0  0  0  0
    7.1314  -14.0717   25.3658 C   0  0  0  0  0  0  0  0  0  0  0  0
    6.9312  -15.5450   25.6286 C   0  0  0  0  0  0  0  0  0  0  0  0
    6.8187  -16.3365   24.3297 C   0  0  2  0  0  0  0  0  0  0  0  0
    6.5283  -17.7003   24.6016 N   0  0  0  0  0  0  0  0  0  0  0  0
    8.0209  -16.0666   23.5170 C   0  0  0  0  0  0  0  0  0  0  0  0
    9.0462  -16.7427   23.9040 O   0  0  0  0  0  0  0  0  0  0  0  0
    8.1122  -15.1800   22.4241 N   0  0  0  0  0  0  0  0  0  0  0  0
    7.2074  -14.1109   22.0535 C   0  0  0  0  0  0  0  0  0  0  0  0
    7.9793  -13.2816   21.0388 C   0  0  0  0  0  0  0  0  0  0  0  0
    8.8014  -14.3629   20.3186 C   0  0  0  0  0  0  0  0  0  0  0  0
    9.2147  -15.2339   21.4690 C   0  0  1  0  0  0  0  0  0  0  0  0
   10.4515  -14.6689   22.0909 C   0  0  0  0  0  0  0  0  0  0  0  0
   10.4276  -14.1370   23.2266 O   0  0  0  0  0  0  0  0  0  0  0  0
   11.6688  -14.7166   21.4266 O   0  0  0  0  0  0  0  0  0  0  0  0
  2  3  1  0
  2  1  1  0
  4  3  1  0
  5  6  1  1
  5  4  1  0
  5  1  1  0
  6  7  2  0
  9  8  1  0
  9 10  1  0
 10 11  1  0
 12 11  1  1
 12 14  1  0
 13 12  1  0
 13  6  1  0
 14 15  2  0
 14 16  1  0
 16 17  1  0
 16 20  1  0
 18 17  1  0
 18 19  1  0
 19 20  1  0
 20 21  1  1
 21 22  2  0
 21 23  1  0
M  END
$$$$
