PMP.pdb
     RDKit          3D

 23 24  0  0  1  0  0  0  0  0999 V2000
    7.8680  -16.3900   21.1236 N   0  0  0  0  0  0  0  0  0  0  0  0
    7.3624  -16.4369   19.7873 C   0  0  0  0  0  0  0  0  0  0  0  0
    7.7440  -15.1520   19.0888 C   0  0  0  0  0  0  0  0  0  0  0  0
    8.1462  -14.2693   20.2755 C   0  0  0  0  0  0  0  0  0  0  0  0
    8.7777  -15.2771   21.1765 C   0  0  1  0  0  0  0  0  0  0  0  0
    9.0309  -14.8049   22.5478 C   0  0  0  0  0  0  0  0  0  0  0  0
    9.9334  -13.9338   22.7181 O   0  0  0  0  0  0  0  0  0  0  0  0
    6.4702  -10.9401   26.7394 C   0  0  0  0  0  0  0  0  0  0  0  0
    5.5599  -12.4613   26.3715 S   0  0  0  0  0  0  0  0  0  0  0  0
    6.4509  -13.3466   25.0393 C   0  0  0  0  0  0  0  0  0  0  0  0
    7.2213  -14.4577   25.7115 C   0  0  0  0  0  0  0  0  0  0  0  0
    8.5568  -14.7124   25.0200 C   0  0  2  0  0  0  0  0  0  0  0  0
    8.3499  -15.2371   23.7161 N   0  0  0  0  0  0  0  0  0  0  0  0
    9.4031  -15.5122   25.9270 C   0  0  0  0  0  0  0  0  0  0  0  0
    9.5663  -16.7224   25.5186 O   0  0  0  0  0  0  0  0  0  0  0  0
   10.0002  -15.0686   27.1252 N   0  0  0  0  0  0  0  0  0  0  0  0
    9.7732  -13.8287   27.8395 C   0  0  0  0  0  0  0  0  0  0  0  0
   10.3931  -14.0501   29.2106 C   0  0  0  0  0  0  0  0  0  0  0  0
   11.5917  -14.9488   28.8654 C   0  0  0  0  0  0  0  0  0  0  0  0
   10.9866  -15.8682   27.8450 C   0  0  1  0  0  0  0  0  0  0  0  0
   10.3060  -16.9991   28.5479 C   0  0  0  0  0  0  0  0  0  0  0  0
    9.0557  -17.0954   28.5728 O   0  0  0  0  0  0  0  0  0  0  0  0
   11.0416  -17.9806   29.1967 O   0  0  0  0  0  0  0  0  0  0  0  0
  2  3  1  0
  2  1  1  0
  4  3  1  0
  5  6  1  1
  5  4  1  0
  5  1  1  0
  6  7  2  0
  9  8  1  0
  9 10  1  0
 10 11  1  0
 12 11  1  1
 12 14  1  0
 13 12  1  0
 13  6  1  0
 14 15  2  0
 14 16  1  0
 16 17  1  0
 16 20  1  0
 18 17  1  0
 18 19  1  0
 19 20  1  0
 20 21  1  1
 21 22  2  0
 21 23  1  0
M  END
$$$$
