PMP.pdb
     RDKit          3D

 23 24  0  0  1  0  0  0  0  0999 V2000
    8.3661  -16.9404   20.7823 N   0  0  0  0  0  0  0  0  0  0  0  0
    8.0260  -17.0770   19.4005 C   0  0  0  0  0  0  0  0  0  0  0  0
    8.3904  -15.7928   18.6915 C   0  0  0  0  0  0  0  0  0  0  0  0
    8.5836  -14.8374   19.8744 C   0  0  0  0  0  0  0  0  0  0  0  0
    9.1780  -15.7578   20.8873 C   0  0  1  0  0  0  0  0  0  0  0  0
    9.2324  -15.2161   22.2552 C   0  0  0  0  0  0  0  0  0  0  0  0
   10.1070  -14.3375   22.5110 O   0  0  0  0  0  0  0  0  0  0  0  0
    5.7201  -11.3381   26.7457 C   0  0  0  0  0  0  0  0  0  0  0  0
    7.0458  -12.2524   25.9184 S   0  0  0  0  0  0  0  0  0  0  0  0
    6.9087  -14.0125   26.4039 C   0  0  0  0  0  0  0  0  0  0  0  0
    6.9531  -14.8096   25.1223 C   0  0  0  0  0  0  0  0  0  0  0  0
    8.3815  -14.9755   24.6139 C   0  0  2  0  0  0  0  0  0  0  0  0
    8.3854  -15.5881   23.3321 N   0  0  0  0  0  0  0  0  0  0  0  0
    9.1737  -15.6411   25.6664 C   0  0  0  0  0  0  0  0  0  0  0  0
    9.2620  -16.9140   25.4937 O   0  0  0  0  0  0  0  0  0  0  0  0
    9.7942  -15.0180   26.7690 N   0  0  0  0  0  0  0  0  0  0  0  0
    9.5817  -13.6809   27.2851 C   0  0  0  0  0  0  0  0  0  0  0  0
   10.2280  -13.6878   28.6619 C   0  0  0  0  0  0  0  0  0  0  0  0
   11.4192  -14.6336   28.4385 C   0  0  0  0  0  0  0  0  0  0  0  0
   10.7939  -15.6990   27.5859 C   0  0  1  0  0  0  0  0  0  0  0  0
   10.1265  -16.7037   28.4696 C   0  0  0  0  0  0  0  0  0  0  0  0
    8.8767  -16.7870   28.5371 O   0  0  0  0  0  0  0  0  0  0  0  0
   10.8740  -17.5784   29.2453 O   0  0  0  0  0  0  0  0  0  0  0  0
  2  3  1  0
  2  1  1  0
  4  3  1  0
  5  6  1  1
  5  4  1  0
  5  1  1  0
  6  7  2  0
  9  8  1  0
  9 10  1  0
 10 11  1  0
 12 11  1  1
 12 14  1  0
 13 12  1  0
 13  6  1  0
 14 15  2  0
 14 16  1  0
 16 17  1  0
 16 20  1  0
 18 17  1  0
 18 19  1  0
 19 20  1  0
 20 21  1  1
 21 22  2  0
 21 23  1  0
M  END
$$$$
