PMP.pdb
     RDKit          3D

 23 24  0  0  1  0  0  0  0  0999 V2000
   10.2811  -16.4710   20.1673 N   0  0  0  0  0  0  0  0  0  0  0  0
   10.5283  -17.5987   19.3242 C   0  0  0  0  0  0  0  0  0  0  0  0
   10.1630  -18.8518   20.0863 C   0  0  0  0  0  0  0  0  0  0  0  0
   10.0774  -18.3202   21.5213 C   0  0  0  0  0  0  0  0  0  0  0  0
    9.5177  -16.9573   21.2852 C   0  0  1  0  0  0  0  0  0  0  0  0
    9.5683  -16.0599   22.4512 C   0  0  0  0  0  0  0  0  0  0  0  0
   10.6510  -15.4457   22.6805 O   0  0  0  0  0  0  0  0  0  0  0  0
    5.9945  -11.1704   27.1495 C   0  0  0  0  0  0  0  0  0  0  0  0
    5.7222  -12.7742   26.3547 S   0  0  0  0  0  0  0  0  0  0  0  0
    7.3477  -13.5950   26.1634 C   0  0  0  0  0  0  0  0  0  0  0  0
    7.2735  -14.3866   24.8798 C   0  0  0  0  0  0  0  0  0  0  0  0
    8.6100  -15.0415   24.5463 C   0  0  2  0  0  0  0  0  0  0  0  0
    8.5039  -15.8115   23.3572 N   0  0  0  0  0  0  0  0  0  0  0  0
    9.0930  -15.7474   25.7492 C   0  0  0  0  0  0  0  0  0  0  0  0
    8.8177  -17.0052   25.7331 O   0  0  0  0  0  0  0  0  0  0  0  0
    9.7855  -15.1744   26.8360 N   0  0  0  0  0  0  0  0  0  0  0  0
    9.7274  -13.8112   27.3232 C   0  0  0  0  0  0  0  0  0  0  0  0
   10.3762  -13.8610   28.6979 C   0  0  0  0  0  0  0  0  0  0  0  0
   11.4524  -14.9393   28.4918 C   0  0  0  0  0  0  0  0  0  0  0  0
   10.7068  -15.9457   27.6647 C   0  0  1  0  0  0  0  0  0  0  0  0
    9.9356  -16.8498   28.5723 C   0  0  0  0  0  0  0  0  0  0  0  0
    8.6844  -16.7944   28.6412 O   0  0  0  0  0  0  0  0  0  0  0  0
   10.5848  -17.7820   29.3692 O   0  0  0  0  0  0  0  0  0  0  0  0
  2  3  1  0
  2  1  1  0
  4  3  1  0
  5  6  1  1
  5  4  1  0
  5  1  1  0
  6  7  2  0
  9  8  1  0
  9 10  1  0
 10 11  1  0
 12 11  1  1
 12 14  1  0
 13 12  1  0
 13  6  1  0
 14 15  2  0
 14 16  1  0
 16 17  1  0
 16 20  1  0
 18 17  1  0
 18 19  1  0
 19 20  1  0
 20 21  1  1
 21 22  2  0
 21 23  1  0
M  END
$$$$
