PMP.pdb
     RDKit          3D

 23 24  0  0  1  0  0  0  0  0999 V2000
    8.3423  -17.0836   20.9509 N   0  0  0  0  0  0  0  0  0  0  0  0
    7.8648  -17.2322   19.6117 C   0  0  0  0  0  0  0  0  0  0  0  0
    7.9795  -15.8959   18.9146 C   0  0  0  0  0  0  0  0  0  0  0  0
    8.1855  -14.9503   20.1032 C   0  0  0  0  0  0  0  0  0  0  0  0
    9.0046  -15.8082   21.0085 C   0  0  1  0  0  0  0  0  0  0  0  0
    9.1476  -15.2949   22.3810 C   0  0  0  0  0  0  0  0  0  0  0  0
   10.1915  -14.6367   22.6624 O   0  0  0  0  0  0  0  0  0  0  0  0
    6.3874  -11.1092   27.1977 C   0  0  0  0  0  0  0  0  0  0  0  0
    5.6712  -12.7079   26.7403 S   0  0  0  0  0  0  0  0  0  0  0  0
    7.0287  -13.9336   26.6559 C   0  0  0  0  0  0  0  0  0  0  0  0
    6.9405  -14.5690   25.2890 C   0  0  0  0  0  0  0  0  0  0  0  0
    8.3230  -14.8803   24.7248 C   0  0  2  0  0  0  0  0  0  0  0  0
    8.2136  -15.4681   23.4360 N   0  0  0  0  0  0  0  0  0  0  0  0
    9.0754  -15.6457   25.7380 C   0  0  0  0  0  0  0  0  0  0  0  0
    8.9862  -16.9190   25.5682 O   0  0  0  0  0  0  0  0  0  0  0  0
    9.8300  -15.1110   26.8027 N   0  0  0  0  0  0  0  0  0  0  0  0
    9.7818  -13.7739   27.3584 C   0  0  0  0  0  0  0  0  0  0  0  0
   10.5229  -13.8757   28.6827 C   0  0  0  0  0  0  0  0  0  0  0  0
   11.6009  -14.9210   28.3530 C   0  0  0  0  0  0  0  0  0  0  0  0
   10.8182  -15.9019   27.5295 C   0  0  1  0  0  0  0  0  0  0  0  0
   10.1257  -16.8635   28.4414 C   0  0  0  0  0  0  0  0  0  0  0  0
    8.8830  -16.8272   28.6076 O   0  0  0  0  0  0  0  0  0  0  0  0
   10.8412  -17.8297   29.1344 O   0  0  0  0  0  0  0  0  0  0  0  0
  2  3  1  0
  2  1  1  0
  4  3  1  0
  5  6  1  1
  5  4  1  0
  5  1  1  0
  6  7  2  0
  9  8  1  0
  9 10  1  0
 10 11  1  0
 12 11  1  1
 12 14  1  0
 13 12  1  0
 13  6  1  0
 14 15  2  0
 14 16  1  0
 16 17  1  0
 16 20  1  0
 18 17  1  0
 18 19  1  0
 19 20  1  0
 20 21  1  1
 21 22  2  0
 21 23  1  0
M  END
$$$$
