IMC.pdb
     RDKit          3D

 23 22  0  0  1  0  0  0  0  0999 V2000
    7.4775  -12.1058   19.3516 C   0  0  0  0  0  0  0  0  0  0  0  0
    7.5560  -13.3354   20.1853 C   0  0  0  0  0  0  0  0  0  0  0  0
    8.3469  -14.4614   19.6187 C   0  0  2  0  0  0  0  0  0  0  0  0
    7.8529  -14.8309   18.2623 C   0  0  0  0  0  0  0  0  0  0  0  0
    8.5016  -15.6551   20.5453 C   0  0  2  0  0  0  0  0  0  0  0  0
    7.1637  -16.2497   20.6086 N   0  0  0  0  0  0  0  0  0  0  0  0
    8.9244  -15.2757   21.8896 C   0  0  0  0  0  0  0  0  0  0  0  0
   10.0416  -14.8268   22.2191 O   0  0  0  0  0  0  0  0  0  0  0  0
    7.4651  -12.1118   28.3296 C   0  0  0  0  0  0  0  0  0  0  0  0
    7.3770  -12.6511   26.6218 S   0  0  0  0  0  0  0  0  0  0  0  0
    7.1225  -14.4614   26.4711 C   0  0  0  0  0  0  0  0  0  0  0  0
    7.0076  -14.7390   25.0159 C   0  0  0  0  0  0  0  0  0  0  0  0
    8.2711  -15.2159   24.3396 C   0  0  2  0  0  0  0  0  0  0  0  0
    7.9705  -15.4262   22.9424 N   0  0  0  0  0  0  0  0  0  0  0  0
    8.9486  -16.2959   25.0207 C   0  0  0  0  0  0  0  0  0  0  0  0
    8.3896  -17.3548   25.4286 O   0  0  0  0  0  0  0  0  0  0  0  0
   10.3570  -16.2401   25.2904 N   0  0  0  0  0  0  0  0  0  0  0  0
   11.1026  -17.3452   25.8121 C   0  0  1  0  0  0  0  0  0  0  0  0
   12.6072  -17.2010   25.5280 C   0  0  0  0  0  0  0  0  0  0  0  0
   13.0594  -15.4395   25.6885 S   0  0  0  0  0  0  0  0  0  0  0  0
   10.8321  -17.5227   27.2343 C   0  0  0  0  0  0  0  0  0  0  0  0
   10.0493  -16.6056   27.9639 O   0  0  0  0  0  0  0  0  0  0  0  0
   11.2928  -18.5051   27.8507 O   0  0  0  0  0  0  0  0  0  0  0  0
  2  1  1  0
  3  2  1  0
  3  4  1  6
  5  3  1  0
  5  6  1  1
  7  8  2  0
  7  5  1  0
  9 10  1  0
 10 11  1  0
 11 12  1  0
 13 12  1  1
 13 14  1  0
 14  7  1  0
 15 17  1  0
 15 13  1  0
 16 15  2  0
 18 21  1  0
 18 17  1  0
 18 19  1  1
 20 19  1  0
 21 22  1  0
 23 21  2  0
M  END
$$$$
