IMC.pdb
     RDKit          3D

 23 22  0  0  1  0  0  0  0  0999 V2000
    7.7027  -11.9407   19.8620 C   0  0  0  0  0  0  0  0  0  0  0  0
    7.7113  -13.1898   20.6699 C   0  0  0  0  0  0  0  0  0  0  0  0
    8.6005  -14.2789   20.1824 C   0  0  2  0  0  0  0  0  0  0  0  0
    8.2795  -14.6388   18.7725 C   0  0  0  0  0  0  0  0  0  0  0  0
    8.6878  -15.4840   21.1031 C   0  0  2  0  0  0  0  0  0  0  0  0
    7.3346  -16.0468   21.1047 N   0  0  0  0  0  0  0  0  0  0  0  0
    9.0627  -15.1267   22.4675 C   0  0  0  0  0  0  0  0  0  0  0  0
   10.1455  -14.6257   22.8344 O   0  0  0  0  0  0  0  0  0  0  0  0
    6.9590  -10.7152   26.2677 C   0  0  0  0  0  0  0  0  0  0  0  0
    6.1656  -12.2093   26.8622 S   0  0  0  0  0  0  0  0  0  0  0  0
    7.2578  -13.6780   26.7412 C   0  0  0  0  0  0  0  0  0  0  0  0
    7.2215  -14.0990   25.3166 C   0  0  0  0  0  0  0  0  0  0  0  0
    8.3115  -15.0529   24.8889 C   0  0  2  0  0  0  0  0  0  0  0  0
    8.0998  -15.3674   23.4950 N   0  0  0  0  0  0  0  0  0  0  0  0
    8.5132  -16.1752   25.7772 C   0  0  0  0  0  0  0  0  0  0  0  0
    8.7448  -16.0812   27.0172 O   0  0  0  0  0  0  0  0  0  0  0  0
    8.4613  -17.5260   25.2955 N   0  0  0  0  0  0  0  0  0  0  0  0
    9.4948  -18.4871   25.5353 C   0  0  1  0  0  0  0  0  0  0  0  0
    9.7944  -19.3253   24.2811 C   0  0  0  0  0  0  0  0  0  0  0  0
    8.2513  -20.1449   23.7517 S   0  0  0  0  0  0  0  0  0  0  0  0
   10.6927  -17.8360   26.0533 C   0  0  0  0  0  0  0  0  0  0  0  0
   11.2521  -18.1867   27.2985 O   0  0  0  0  0  0  0  0  0  0  0  0
   11.2620  -16.9393   25.3982 O   0  0  0  0  0  0  0  0  0  0  0  0
  2  1  1  0
  3  2  1  0
  3  4  1  6
  5  3  1  0
  5  6  1  1
  7  8  2  0
  7  5  1  0
  9 10  1  0
 10 11  1  0
 11 12  1  0
 13 12  1  1
 13 14  1  0
 14  7  1  0
 15 17  1  0
 15 13  1  0
 16 15  2  0
 18 21  1  0
 18 17  1  0
 18 19  1  6
 20 19  1  0
 21 22  1  0
 23 21  2  0
M  END
$$$$
