IMC.pdb
     RDKit          3D

 23 22  0  0  1  0  0  0  0  0999 V2000
    7.4847  -12.3371   19.8146 C   0  0  0  0  0  0  0  0  0  0  0  0
    7.7445  -13.4713   20.7416 C   0  0  0  0  0  0  0  0  0  0  0  0
    8.6110  -14.5610   20.2163 C   0  0  2  0  0  0  0  0  0  0  0  0
    8.1265  -15.0350   18.8892 C   0  0  0  0  0  0  0  0  0  0  0  0
    8.8708  -15.6912   21.1975 C   0  0  2  0  0  0  0  0  0  0  0  0
    7.5839  -16.3825   21.3143 N   0  0  0  0  0  0  0  0  0  0  0  0
    9.2824  -15.2134   22.5136 C   0  0  0  0  0  0  0  0  0  0  0  0
   10.3481  -14.6261   22.7919 O   0  0  0  0  0  0  0  0  0  0  0  0
    7.0311  -11.5201   27.3050 C   0  0  0  0  0  0  0  0  0  0  0  0
    5.8990  -12.6639   26.5143 S   0  0  0  0  0  0  0  0  0  0  0  0
    6.6555  -13.5175   25.0776 C   0  0  0  0  0  0  0  0  0  0  0  0
    7.3518  -14.7086   25.6291 C   0  0  0  0  0  0  0  0  0  0  0  0
    8.6627  -15.0637   24.9685 C   0  0  2  0  0  0  0  0  0  0  0  0
    8.3811  -15.4317   23.6003 N   0  0  0  0  0  0  0  0  0  0  0  0
    9.4896  -15.9785   25.7226 C   0  0  0  0  0  0  0  0  0  0  0  0
    9.4744  -17.2369   25.5955 O   0  0  0  0  0  0  0  0  0  0  0  0
   10.4220  -15.5039   26.7049 N   0  0  0  0  0  0  0  0  0  0  0  0
   11.2528  -16.3706   27.4846 C   0  0  1  0  0  0  0  0  0  0  0  0
   12.0874  -15.5866   28.5113 C   0  0  0  0  0  0  0  0  0  0  0  0
   10.9847  -14.4227   29.3845 S   0  0  0  0  0  0  0  0  0  0  0  0
   10.4558  -17.4162   28.1161 C   0  0  0  0  0  0  0  0  0  0  0  0
   11.0443  -18.5757   28.6598 O   0  0  0  0  0  0  0  0  0  0  0  0
    9.2148  -17.3099   28.1931 O   0  0  0  0  0  0  0  0  0  0  0  0
  2  1  1  0
  3  2  1  0
  3  4  1  6
  5  3  1  0
  5  6  1  1
  7  8  2  0
  7  5  1  0
  9 10  1  0
 10 11  1  0
 11 12  1  0
 13 12  1  1
 13 14  1  0
 14  7  1  0
 15 17  1  0
 15 13  1  0
 16 15  2  0
 18 21  1  0
 18 17  1  0
 18 19  1  1
 20 19  1  0
 21 22  1  0
 23 21  2  0
M  END
$$$$
