IMC.pdb
     RDKit          3D

 23 22  0  0  1  0  0  0  0  0999 V2000
    7.8066  -11.8170   19.5289 C   0  0  0  0  0  0  0  0  0  0  0  0
    7.8443  -13.0735   20.3246 C   0  0  0  0  0  0  0  0  0  0  0  0
    8.4538  -14.2544   19.6550 C   0  0  2  0  0  0  0  0  0  0  0  0
    7.8362  -14.4881   18.3192 C   0  0  0  0  0  0  0  0  0  0  0  0
    8.5157  -15.5062   20.5134 C   0  0  2  0  0  0  0  0  0  0  0  0
    7.1244  -15.9558   20.6122 N   0  0  0  0  0  0  0  0  0  0  0  0
    9.0349  -15.2479   21.8526 C   0  0  0  0  0  0  0  0  0  0  0  0
   10.2120  -14.9588   22.1510 O   0  0  0  0  0  0  0  0  0  0  0  0
    7.0219  -11.2786   26.8030 C   0  0  0  0  0  0  0  0  0  0  0  0
    6.3406  -12.9286   26.9717 S   0  0  0  0  0  0  0  0  0  0  0  0
    7.5342  -14.2327   26.4824 C   0  0  0  0  0  0  0  0  0  0  0  0
    7.3877  -14.3910   25.0122 C   0  0  0  0  0  0  0  0  0  0  0  0
    8.4822  -15.1742   24.3269 C   0  0  2  0  0  0  0  0  0  0  0  0
    8.1111  -15.3282   22.9393 N   0  0  0  0  0  0  0  0  0  0  0  0
    8.8887  -16.3755   25.0203 C   0  0  0  0  0  0  0  0  0  0  0  0
    8.1272  -17.3518   25.2789 O   0  0  0  0  0  0  0  0  0  0  0  0
   10.2368  -16.5511   25.4799 N   0  0  0  0  0  0  0  0  0  0  0  0
   10.7057  -17.7517   26.1028 C   0  0  1  0  0  0  0  0  0  0  0  0
   12.2256  -17.9210   25.9398 C   0  0  0  0  0  0  0  0  0  0  0  0
   12.7417  -19.4155   26.8525 S   0  0  0  0  0  0  0  0  0  0  0  0
   10.3005  -17.7967   27.5032 C   0  0  0  0  0  0  0  0  0  0  0  0
   10.4258  -16.6782   28.3515 O   0  0  0  0  0  0  0  0  0  0  0  0
    9.8251  -18.8412   27.9936 O   0  0  0  0  0  0  0  0  0  0  0  0
  2  1  1  0
  3  2  1  0
  3  4  1  6
  5  3  1  0
  5  6  1  1
  7  8  2  0
  7  5  1  0
  9 10  1  0
 10 11  1  0
 11 12  1  0
 13 12  1  1
 13 14  1  0
 14  7  1  0
 15 17  1  0
 15 13  1  0
 16 15  2  0
 18 21  1  0
 18 17  1  0
 18 19  1  1
 20 19  1  0
 21 22  1  0
 23 21  2  0
M  END
$$$$
