IMC.pdb
     RDKit          3D

 23 22  0  0  1  0  0  0  0  0999 V2000
    7.2564  -11.8868   19.9437 C   0  0  0  0  0  0  0  0  0  0  0  0
    7.3229  -13.2582   20.5165 C   0  0  0  0  0  0  0  0  0  0  0  0
    8.3358  -14.1693   19.9180 C   0  0  2  0  0  0  0  0  0  0  0  0
    7.9487  -14.5617   18.5336 C   0  0  0  0  0  0  0  0  0  0  0  0
    8.7170  -15.3524   20.7913 C   0  0  2  0  0  0  0  0  0  0  0  0
    7.5264  -16.2069   20.7962 N   0  0  0  0  0  0  0  0  0  0  0  0
    9.0368  -14.9636   22.1611 C   0  0  0  0  0  0  0  0  0  0  0  0
    9.6955  -13.9646   22.5163 O   0  0  0  0  0  0  0  0  0  0  0  0
    7.8148  -12.0338   27.3141 C   0  0  0  0  0  0  0  0  0  0  0  0
    6.6463  -12.2970   25.9798 S   0  0  0  0  0  0  0  0  0  0  0  0
    6.8114  -13.9593   25.2219 C   0  0  0  0  0  0  0  0  0  0  0  0
    8.2452  -14.1035   24.8594 C   0  0  0  0  0  0  0  0  0  0  0  0
    8.7189  -15.5168   24.6159 C   0  0  2  0  0  0  0  0  0  0  0  0
    8.5494  -15.8022   23.2099 N   0  0  0  0  0  0  0  0  0  0  0  0
    8.1918  -16.4967   25.5385 C   0  0  0  0  0  0  0  0  0  0  0  0
    7.0415  -17.0169   25.4588 O   0  0  0  0  0  0  0  0  0  0  0  0
    8.9673  -16.9663   26.6508 N   0  0  0  0  0  0  0  0  0  0  0  0
    9.6528  -18.2230   26.6574 C   0  0  1  0  0  0  0  0  0  0  0  0
   10.7813  -18.2610   25.6132 C   0  0  0  0  0  0  0  0  0  0  0  0
   11.0985  -20.0030   25.1683 S   0  0  0  0  0  0  0  0  0  0  0  0
   10.1398  -18.5363   27.9962 C   0  0  0  0  0  0  0  0  0  0  0  0
   10.2916  -19.8647   28.4418 O   0  0  0  0  0  0  0  0  0  0  0  0
   10.4393  -17.6237   28.7929 O   0  0  0  0  0  0  0  0  0  0  0  0
  2  1  1  0
  3  2  1  0
  3  4  1  6
  5  3  1  0
  5  6  1  1
  7  8  2  0
  7  5  1  0
  9 10  1  0
 10 11  1  0
 11 12  1  0
 13 12  1  1
 13 14  1  0
 14  7  1  0
 15 17  1  0
 15 13  1  0
 16 15  2  0
 18 21  1  0
 18 17  1  0
 18 19  1  6
 20 19  1  0
 21 22  1  0
 23 21  2  0
M  END
$$$$
