IMC.pdb
     RDKit          3D

 23 22  0  0  1  0  0  0  0  0999 V2000
    7.0617  -12.8429   18.3840 C   0  0  0  0  0  0  0  0  0  0  0  0
    7.3948  -14.1176   19.0750 C   0  0  0  0  0  0  0  0  0  0  0  0
    7.9705  -13.9907   20.4413 C   0  0  2  0  0  0  0  0  0  0  0  0
    9.1318  -13.0570   20.4464 C   0  0  0  0  0  0  0  0  0  0  0  0
    8.2621  -15.3129   21.1301 C   0  0  2  0  0  0  0  0  0  0  0  0
    6.9650  -15.9921   21.1907 N   0  0  0  0  0  0  0  0  0  0  0  0
    8.7806  -15.1425   22.4837 C   0  0  0  0  0  0  0  0  0  0  0  0
    9.9142  -14.7258   22.7990 O   0  0  0  0  0  0  0  0  0  0  0  0
    7.1784  -11.4823   27.4469 C   0  0  0  0  0  0  0  0  0  0  0  0
    6.0326  -12.3133   26.3461 S   0  0  0  0  0  0  0  0  0  0  0  0
    6.8891  -13.2864   25.0483 C   0  0  0  0  0  0  0  0  0  0  0  0
    7.2316  -14.5902   25.6733 C   0  0  0  0  0  0  0  0  0  0  0  0
    8.2858  -15.4013   24.9577 C   0  0  2  0  0  0  0  0  0  0  0  0
    7.9105  -15.4807   23.5650 N   0  0  0  0  0  0  0  0  0  0  0  0
    8.6278  -16.6487   25.6030 C   0  0  0  0  0  0  0  0  0  0  0  0
    7.8163  -17.5941   25.8215 O   0  0  0  0  0  0  0  0  0  0  0  0
    9.9636  -16.9115   26.0568 N   0  0  0  0  0  0  0  0  0  0  0  0
   10.3716  -18.1631   26.6192 C   0  0  1  0  0  0  0  0  0  0  0  0
   11.7251  -18.6263   26.0545 C   0  0  0  0  0  0  0  0  0  0  0  0
   11.8403  -18.0866   24.3142 S   0  0  0  0  0  0  0  0  0  0  0  0
   10.3855  -18.0925   28.0759 C   0  0  0  0  0  0  0  0  0  0  0  0
   10.7233  -19.2049   28.8727 O   0  0  0  0  0  0  0  0  0  0  0  0
   10.0952  -17.0303   28.6632 O   0  0  0  0  0  0  0  0  0  0  0  0
  2  1  1  0
  3  2  1  0
  3  4  1  6
  5  3  1  0
  5  6  1  1
  7  8  2  0
  7  5  1  0
  9 10  1  0
 10 11  1  0
 11 12  1  0
 13 12  1  1
 13 14  1  0
 14  7  1  0
 15 17  1  0
 15 13  1  0
 16 15  2  0
 18 21  1  0
 18 17  1  0
 18 19  1  6
 20 19  1  0
 21 22  1  0
 23 21  2  0
M  END
$$$$
