IMC.pdb
     RDKit          3D

 23 22  0  0  1  0  0  0  0  0999 V2000
    7.0246  -12.8990   17.9488 C   0  0  0  0  0  0  0  0  0  0  0  0
    7.4770  -14.1251   18.6597 C   0  0  0  0  0  0  0  0  0  0  0  0
    7.9626  -13.9327   20.0530 C   0  0  2  0  0  0  0  0  0  0  0  0
    8.9165  -12.7907   20.1326 C   0  0  0  0  0  0  0  0  0  0  0  0
    8.4814  -15.1940   20.7220 C   0  0  2  0  0  0  0  0  0  0  0  0
    7.3229  -16.0902   20.7701 N   0  0  0  0  0  0  0  0  0  0  0  0
    8.9637  -14.9565   22.0788 C   0  0  0  0  0  0  0  0  0  0  0  0
   10.1009  -14.5585   22.4050 O   0  0  0  0  0  0  0  0  0  0  0  0
    6.8087  -11.0800   27.0222 C   0  0  0  0  0  0  0  0  0  0  0  0
    6.2286  -12.7721   27.1463 S   0  0  0  0  0  0  0  0  0  0  0  0
    7.5129  -13.9899   26.6644 C   0  0  0  0  0  0  0  0  0  0  0  0
    7.3494  -14.2008   25.2027 C   0  0  0  0  0  0  0  0  0  0  0  0
    8.3931  -15.0737   24.5473 C   0  0  2  0  0  0  0  0  0  0  0  0
    8.0494  -15.1976   23.1497 N   0  0  0  0  0  0  0  0  0  0  0  0
    8.6778  -16.3041   25.2504 C   0  0  0  0  0  0  0  0  0  0  0  0
    7.8184  -17.1872   25.5361 O   0  0  0  0  0  0  0  0  0  0  0  0
   10.0068  -16.6219   25.6887 N   0  0  0  0  0  0  0  0  0  0  0  0
   10.3791  -17.9033   26.2072 C   0  0  1  0  0  0  0  0  0  0  0  0
   11.8148  -18.2834   25.8078 C   0  0  0  0  0  0  0  0  0  0  0  0
   12.0234  -17.9588   24.0234 S   0  0  0  0  0  0  0  0  0  0  0  0
   10.1862  -17.9494   27.6522 C   0  0  0  0  0  0  0  0  0  0  0  0
   10.3941  -19.1293   28.3944 O   0  0  0  0  0  0  0  0  0  0  0  0
    9.8276  -16.9309   28.2780 O   0  0  0  0  0  0  0  0  0  0  0  0
  2  1  1  0
  3  2  1  0
  3  4  1  6
  5  3  1  0
  5  6  1  1
  7  8  2  0
  7  5  1  0
  9 10  1  0
 10 11  1  0
 11 12  1  0
 13 12  1  1
 13 14  1  0
 14  7  1  0
 15 17  1  0
 15 13  1  0
 16 15  2  0
 18 21  1  0
 18 17  1  0
 18 19  1  1
 20 19  1  0
 21 22  1  0
 23 21  2  0
M  END
$$$$
