IMC.pdb
     RDKit          3D

 23 22  0  0  1  0  0  0  0  0999 V2000
    7.2172  -12.5151   17.8790 C   0  0  0  0  0  0  0  0  0  0  0  0
    7.4990  -13.8144   18.5466 C   0  0  0  0  0  0  0  0  0  0  0  0
    7.9589  -13.7382   19.9598 C   0  0  2  0  0  0  0  0  0  0  0  0
    9.0183  -12.7028   20.1211 C   0  0  0  0  0  0  0  0  0  0  0  0
    8.3298  -15.0756   20.5772 C   0  0  2  0  0  0  0  0  0  0  0  0
    7.0677  -15.8181   20.6367 N   0  0  0  0  0  0  0  0  0  0  0  0
    8.8755  -14.9441   21.9244 C   0  0  0  0  0  0  0  0  0  0  0  0
   10.0425  -14.6196   22.2257 O   0  0  0  0  0  0  0  0  0  0  0  0
    6.4411  -11.6905   28.4101 C   0  0  0  0  0  0  0  0  0  0  0  0
    6.2040  -12.4499   26.8031 S   0  0  0  0  0  0  0  0  0  0  0  0
    7.5031  -13.6850   26.4135 C   0  0  0  0  0  0  0  0  0  0  0  0
    7.2964  -14.0618   24.9911 C   0  0  0  0  0  0  0  0  0  0  0  0
    8.3355  -14.9861   24.4022 C   0  0  2  0  0  0  0  0  0  0  0  0
    7.9931  -15.2080   23.0164 N   0  0  0  0  0  0  0  0  0  0  0  0
    8.6113  -16.1646   25.1923 C   0  0  0  0  0  0  0  0  0  0  0  0
    7.7584  -17.0508   25.4879 O   0  0  0  0  0  0  0  0  0  0  0  0
    9.9227  -16.4215   25.7153 N   0  0  0  0  0  0  0  0  0  0  0  0
   10.2651  -17.6134   26.4305 C   0  0  1  0  0  0  0  0  0  0  0  0
   11.6544  -18.1378   26.0303 C   0  0  0  0  0  0  0  0  0  0  0  0
   11.7863  -18.0938   24.2099 S   0  0  0  0  0  0  0  0  0  0  0  0
   10.1586  -17.3985   27.8692 C   0  0  0  0  0  0  0  0  0  0  0  0
   10.4116  -18.4287   28.7972 O   0  0  0  0  0  0  0  0  0  0  0  0
    9.8367  -16.2813   28.3225 O   0  0  0  0  0  0  0  0  0  0  0  0
  2  1  1  0
  3  2  1  0
  3  4  1  6
  5  3  1  0
  5  6  1  1
  7  8  2  0
  7  5  1  0
  9 10  1  0
 10 11  1  0
 11 12  1  0
 13 12  1  1
 13 14  1  0
 14  7  1  0
 15 17  1  0
 15 13  1  0
 16 15  2  0
 18 21  1  0
 18 17  1  0
 18 19  1  1
 20 19  1  0
 21 22  1  0
 23 21  2  0
M  END
$$$$
