IMC.pdb
     RDKit          3D

 23 22  0  0  1  0  0  0  0  0999 V2000
    7.5669  -11.8811   19.8088 C   0  0  0  0  0  0  0  0  0  0  0  0
    7.5744  -13.1749   20.5429 C   0  0  0  0  0  0  0  0  0  0  0  0
    8.3945  -14.2628   19.9442 C   0  0  2  0  0  0  0  0  0  0  0  0
    7.9336  -14.5800   18.5632 C   0  0  0  0  0  0  0  0  0  0  0  0
    8.5500  -15.4934   20.8211 C   0  0  2  0  0  0  0  0  0  0  0  0
    7.2030  -16.0655   20.8975 N   0  0  0  0  0  0  0  0  0  0  0  0
    9.0147  -15.1732   22.1670 C   0  0  0  0  0  0  0  0  0  0  0  0
   10.1442  -14.7453   22.4817 O   0  0  0  0  0  0  0  0  0  0  0  0
    6.6237  -11.2624   26.4066 C   0  0  0  0  0  0  0  0  0  0  0  0
    6.3131  -12.8415   27.1973 S   0  0  0  0  0  0  0  0  0  0  0  0
    7.5562  -14.1104   26.7397 C   0  0  0  0  0  0  0  0  0  0  0  0
    7.3998  -14.3285   25.2783 C   0  0  0  0  0  0  0  0  0  0  0  0
    8.4358  -15.2202   24.6359 C   0  0  2  0  0  0  0  0  0  0  0  0
    8.0909  -15.3617   23.2402 N   0  0  0  0  0  0  0  0  0  0  0  0
    8.7096  -16.4426   25.3570 C   0  0  0  0  0  0  0  0  0  0  0  0
    7.8374  -17.2990   25.6825 O   0  0  0  0  0  0  0  0  0  0  0  0
   10.0416  -16.7831   25.7684 N   0  0  0  0  0  0  0  0  0  0  0  0
   10.3780  -18.0247   26.3966 C   0  0  1  0  0  0  0  0  0  0  0  0
   11.7761  -18.5123   25.9807 C   0  0  0  0  0  0  0  0  0  0  0  0
   11.9017  -18.4232   24.1615 S   0  0  0  0  0  0  0  0  0  0  0  0
   10.2471  -17.9202   27.8455 C   0  0  0  0  0  0  0  0  0  0  0  0
   10.3216  -19.0507   28.6838 O   0  0  0  0  0  0  0  0  0  0  0  0
   10.0638  -16.8116   28.3884 O   0  0  0  0  0  0  0  0  0  0  0  0
  2  1  1  0
  3  2  1  0
  3  4  1  6
  5  3  1  0
  5  6  1  1
  7  8  2  0
  7  5  1  0
  9 10  1  0
 10 11  1  0
 11 12  1  0
 13 12  1  1
 13 14  1  0
 14  7  1  0
 15 17  1  0
 15 13  1  0
 16 15  2  0
 18 21  1  0
 18 17  1  0
 18 19  1  1
 20 19  1  0
 21 22  1  0
 23 21  2  0
M  END
$$$$
