IMC.pdb
     RDKit          3D

 23 22  0  0  1  0  0  0  0  0999 V2000
    7.8855  -11.8704   20.1224 C   0  0  0  0  0  0  0  0  0  0  0  0
    7.8267  -13.1547   20.8709 C   0  0  0  0  0  0  0  0  0  0  0  0
    8.4169  -14.3380   20.1883 C   0  0  2  0  0  0  0  0  0  0  0  0
    7.8239  -14.5235   18.8339 C   0  0  0  0  0  0  0  0  0  0  0  0
    8.4225  -15.6099   21.0189 C   0  0  2  0  0  0  0  0  0  0  0  0
    7.0082  -15.9698   21.1532 N   0  0  0  0  0  0  0  0  0  0  0  0
    8.9984  -15.4157   22.3457 C   0  0  0  0  0  0  0  0  0  0  0  0
   10.1756  -15.0919   22.6055 O   0  0  0  0  0  0  0  0  0  0  0  0
    7.0701  -11.8978   27.5955 C   0  0  0  0  0  0  0  0  0  0  0  0
    6.1228  -12.4804   26.1889 S   0  0  0  0  0  0  0  0  0  0  0  0
    7.1635  -13.3555   24.9577 C   0  0  0  0  0  0  0  0  0  0  0  0
    7.5049  -14.6665   25.5680 C   0  0  0  0  0  0  0  0  0  0  0  0
    8.5576  -15.4709   24.8428 C   0  0  2  0  0  0  0  0  0  0  0  0
    8.1363  -15.6102   23.4681 N   0  0  0  0  0  0  0  0  0  0  0  0
    8.9602  -16.6842   25.5175 C   0  0  0  0  0  0  0  0  0  0  0  0
    8.2144  -17.6894   25.7001 O   0  0  0  0  0  0  0  0  0  0  0  0
   10.2854  -16.8388   26.0460 N   0  0  0  0  0  0  0  0  0  0  0  0
   10.7656  -18.0583   26.6217 C   0  0  1  0  0  0  0  0  0  0  0  0
   12.2581  -18.2791   26.3237 C   0  0  0  0  0  0  0  0  0  0  0  0
   12.6060  -17.6751   24.6364 S   0  0  0  0  0  0  0  0  0  0  0  0
   10.4851  -18.0971   28.0525 C   0  0  0  0  0  0  0  0  0  0  0  0
   10.8173  -19.2129   28.8469 O   0  0  0  0  0  0  0  0  0  0  0  0
    9.9364  -17.1298   28.6188 O   0  0  0  0  0  0  0  0  0  0  0  0
  2  1  1  0
  3  2  1  0
  3  4  1  6
  5  3  1  0
  5  6  1  1
  7  8  2  0
  7  5  1  0
  9 10  1  0
 10 11  1  0
 11 12  1  0
 13 12  1  1
 13 14  1  0
 14  7  1  0
 15 17  1  0
 15 13  1  0
 16 15  2  0
 18 21  1  0
 18 17  1  0
 18 19  1  1
 20 19  1  0
 21 22  1  0
 23 21  2  0
M  END
$$$$
