IMC.pdb
     RDKit          3D

 23 22  0  0  1  0  0  0  0  0999 V2000
    7.9982  -11.8690   19.0845 C   0  0  0  0  0  0  0  0  0  0  0  0
    8.5949  -13.2278   19.1888 C   0  0  0  0  0  0  0  0  0  0  0  0
    7.6902  -14.3048   19.6745 C   0  0  2  0  0  0  0  0  0  0  0  0
    6.5393  -13.7345   20.4300 C   0  0  0  0  0  0  0  0  0  0  0  0
    8.3897  -15.4341   20.4114 C   0  0  2  0  0  0  0  0  0  0  0  0
    7.3415  -16.4332   20.6372 N   0  0  0  0  0  0  0  0  0  0  0  0
    8.9404  -15.0147   21.6961 C   0  0  0  0  0  0  0  0  0  0  0  0
   10.0370  -14.4494   21.8864 O   0  0  0  0  0  0  0  0  0  0  0  0
    6.7492  -11.8246   28.3562 C   0  0  0  0  0  0  0  0  0  0  0  0
    6.5123  -12.5121   26.7172 S   0  0  0  0  0  0  0  0  0  0  0  0
    7.8397  -13.6900   26.2530 C   0  0  0  0  0  0  0  0  0  0  0  0
    7.5587  -14.0915   24.8503 C   0  0  0  0  0  0  0  0  0  0  0  0
    8.5902  -14.9885   24.2080 C   0  0  2  0  0  0  0  0  0  0  0  0
    8.1523  -15.2688   22.8602 N   0  0  0  0  0  0  0  0  0  0  0  0
    8.9792  -16.1284   25.0072 C   0  0  0  0  0  0  0  0  0  0  0  0
    8.1838  -17.0124   25.4383 O   0  0  0  0  0  0  0  0  0  0  0  0
   10.3480  -16.3451   25.3800 N   0  0  0  0  0  0  0  0  0  0  0  0
   10.8381  -17.5919   25.8844 C   0  0  1  0  0  0  0  0  0  0  0  0
   12.2637  -17.8857   25.3877 C   0  0  0  0  0  0  0  0  0  0  0  0
   13.2917  -16.4042   25.6728 S   0  0  0  0  0  0  0  0  0  0  0  0
   10.7511  -17.6279   27.3400 C   0  0  0  0  0  0  0  0  0  0  0  0
   11.0604  -18.7891   28.0764 O   0  0  0  0  0  0  0  0  0  0  0  0
   10.3962  -16.6173   27.9803 O   0  0  0  0  0  0  0  0  0  0  0  0
  2  1  1  0
  3  2  1  0
  3  4  1  1
  5  3  1  0
  5  6  1  1
  7  8  2  0
  7  5  1  0
  9 10  1  0
 10 11  1  0
 11 12  1  0
 13 12  1  1
 13 14  1  0
 14  7  1  0
 15 17  1  0
 15 13  1  0
 16 15  2  0
 18 21  1  0
 18 17  1  0
 18 19  1  1
 20 19  1  0
 21 22  1  0
 23 21  2  0
M  END
$$$$
