IMC.pdb
     RDKit          3D

 23 22  0  0  1  0  0  0  0  0999 V2000
    7.3209  -13.1080   17.6209 C   0  0  0  0  0  0  0  0  0  0  0  0
    7.8318  -14.2231   18.4628 C   0  0  0  0  0  0  0  0  0  0  0  0
    8.1157  -13.8923   19.8856 C   0  0  2  0  0  0  0  0  0  0  0  0
    8.8861  -12.6215   19.9945 C   0  0  0  0  0  0  0  0  0  0  0  0
    8.7199  -15.0297   20.6911 C   0  0  2  0  0  0  0  0  0  0  0  0
    7.6435  -16.0182   20.7999 N   0  0  0  0  0  0  0  0  0  0  0  0
    9.1329  -14.6176   22.0288 C   0  0  0  0  0  0  0  0  0  0  0  0
   10.2051  -14.0576   22.3368 O   0  0  0  0  0  0  0  0  0  0  0  0
    6.2666  -11.0074   27.8273 C   0  0  0  0  0  0  0  0  0  0  0  0
    6.4554  -12.6824   27.2162 S   0  0  0  0  0  0  0  0  0  0  0  0
    7.0908  -12.7330   25.4961 C   0  0  0  0  0  0  0  0  0  0  0  0
    7.2121  -14.1721   25.1466 C   0  0  0  0  0  0  0  0  0  0  0  0
    8.5088  -14.5776   24.4868 C   0  0  2  0  0  0  0  0  0  0  0  0
    8.2248  -14.8732   23.1016 N   0  0  0  0  0  0  0  0  0  0  0  0
    9.2699  -15.5693   25.2123 C   0  0  0  0  0  0  0  0  0  0  0  0
    9.7729  -15.3952   26.3598 O   0  0  0  0  0  0  0  0  0  0  0  0
    9.5160  -16.8709   24.6602 N   0  0  0  0  0  0  0  0  0  0  0  0
   10.2614  -17.8862   25.3406 C   0  0  1  0  0  0  0  0  0  0  0  0
    9.5449  -19.2461   25.2933 C   0  0  0  0  0  0  0  0  0  0  0  0
    9.9061  -20.1438   26.8414 S   0  0  0  0  0  0  0  0  0  0  0  0
   11.6190  -17.9680   24.8136 C   0  0  0  0  0  0  0  0  0  0  0  0
   12.6108  -18.7577   25.4292 O   0  0  0  0  0  0  0  0  0  0  0  0
   11.9422  -17.3325   23.7894 O   0  0  0  0  0  0  0  0  0  0  0  0
  2  1  1  0
  3  2  1  0
  3  4  1  6
  5  3  1  0
  5  6  1  1
  7  8  2  0
  7  5  1  0
  9 10  1  0
 10 11  1  0
 11 12  1  0
 13 12  1  1
 13 14  1  0
 14  7  1  0
 15 17  1  0
 15 13  1  0
 16 15  2  0
 18 21  1  0
 18 17  1  0
 18 19  1  6
 20 19  1  0
 21 22  1  0
 23 21  2  0
M  END
$$$$
