DRM.pdb
     RDKit          3D

 28 27  0  0  1  0  0  0  0  0999 V2000
   19.6857  -15.5031  -17.8768 N   0  0  0  0  0  0  0  0  0  0  0  0
   19.4455  -14.5375  -16.8247 C   0  0  1  0  0  0  0  0  0  0  0  0
   19.9754  -15.0724  -15.5009 C   0  0  0  0  0  0  0  0  0  0  0  0
   19.1745  -16.2296  -15.0341 C   0  0  0  0  0  0  0  0  0  0  0  0
   17.9323  -16.1866  -15.1454 O   0  0  0  0  0  0  0  0  0  0  0  0
   20.1914  -13.2858  -17.2012 C   0  0  0  0  0  0  0  0  0  0  0  0
   21.2744  -13.3435  -17.8233 O   0  0  0  0  0  0  0  0  0  0  0  0
   19.7440  -17.3742  -14.4719 O   0  0  0  0  0  0  0  0  0  0  0  0
   15.8732   -8.7799  -13.6685 N   0  0  0  0  0  0  0  0  0  0  0  0
   15.9089   -8.1269  -14.9590 C   0  0  0  0  0  0  0  0  0  0  0  0
   15.1538   -7.1498  -15.1693 N   0  0  0  0  0  0  0  0  0  0  0  0
   16.7958   -8.6126  -15.9576 N   0  0  0  0  0  0  0  0  0  0  0  0
   16.6995   -9.8221  -16.6824 C   0  0  0  0  0  0  0  0  0  0  0  0
   17.7884  -10.1436  -17.6325 C   0  0  0  0  0  0  0  0  0  0  0  0
   19.1376   -9.6166  -17.1013 C   0  0  0  0  0  0  0  0  0  0  0  0
   20.1658  -10.7385  -17.0789 C   0  0  2  0  0  0  0  0  0  0  0  0
   19.6465  -12.0409  -16.8391 N   0  0  0  0  0  0  0  0  0  0  0  0
   21.3212  -10.3419  -16.2715 C   0  0  0  0  0  0  0  0  0  0  0  0
   21.2032  -10.0802  -15.0327 O   0  0  0  0  0  0  0  0  0  0  0  0
   14.9501   -6.4989  -15.8934 C   0  0  0  0  0  0  0  0  0  0  0  0
   28.9349  -11.4067  -14.7830 S   0  0  0  0  0  0  0  0  0  0  0  0
   27.5424  -11.5885  -15.9165 C   0  0  0  0  0  0  0  0  0  0  0  0
   26.1488  -10.5378  -15.4028 C   0  0  0  0  0  0  0  0  0  0  0  0
   24.9707  -10.7539  -16.2870 C   0  0  2  0  0  0  0  0  0  0  0  0
   23.7940   -9.9132  -15.9257 N   0  0  0  0  0  0  0  0  0  0  0  0
   22.6439  -10.2165  -16.7822 C   0  0  0  0  0  0  0  0  0  0  0  0
   24.1039   -8.4835  -16.1029 O   0  0  0  0  0  0  0  0  0  0  0  0
   23.5566   -7.6525  -17.0686 O   0  0  0  0  0  0  0  0  0  0  0  0
  2  1  1  6
  2  3  1  0
  3  4  1  0
  4  5  2  0
  4  8  1  0
  6  2  1  0
  7  6  2  0
  9 10  1  0
 10 12  1  0
 11 10  2  0
 12 13  1  0
 13 14  1  0
 14 15  1  0
 16 15  1  1
 16 17  1  0
 17  6  1  0
 18 19  2  0
 18 16  1  0
 21 20  1  0
 22 21  1  0
 23 22  1  0
 24 23  1  1
 24 25  1  0
 25 18  1  0
 26 27  1  0
 26 24  1  0
 28 26  2  0
M  END
$$$$
