DRM.pdb
     RDKit          3D

 28 27  0  0  1  0  0  0  0  0999 V2000
   26.5620  -22.0793  -16.6572 N   0  0  0  0  0  0  0  0  0  0  0  0
   25.5391  -22.5460  -15.7446 C   0  0  1  0  0  0  0  0  0  0  0  0
   25.9377  -23.8983  -15.1686 C   0  0  0  0  0  0  0  0  0  0  0  0
   25.6139  -24.9961  -16.1112 C   0  0  0  0  0  0  0  0  0  0  0  0
   25.1281  -24.7103  -17.2246 O   0  0  0  0  0  0  0  0  0  0  0  0
   25.4446  -21.5309  -14.6375 C   0  0  0  0  0  0  0  0  0  0  0  0
   26.4664  -20.9612  -14.1967 O   0  0  0  0  0  0  0  0  0  0  0  0
   25.8266  -26.3441  -15.8141 O   0  0  0  0  0  0  0  0  0  0  0  0
   20.4251  -18.9434  -16.3992 N   0  0  0  0  0  0  0  0  0  0  0  0
   19.4851  -19.6969  -15.5982 C   0  0  0  0  0  0  0  0  0  0  0  0
   18.6935  -20.4842  -16.1663 N   0  0  0  0  0  0  0  0  0  0  0  0
   19.4795  -19.5221  -14.1878 N   0  0  0  0  0  0  0  0  0  0  0  0
   20.4514  -18.8700  -13.3956 C   0  0  0  0  0  0  0  0  0  0  0  0
   21.8748  -19.1798  -13.6595 C   0  0  0  0  0  0  0  0  0  0  0  0
   22.3801  -20.2592  -12.6799 C   0  0  0  0  0  0  0  0  0  0  0  0
   23.8611  -20.5237  -12.9105 C   0  0  2  0  0  0  0  0  0  0  0  0
   24.1787  -21.2317  -14.1027 N   0  0  0  0  0  0  0  0  0  0  0  0
   24.4786  -21.0182  -11.6783 C   0  0  0  0  0  0  0  0  0  0  0  0
   24.4945  -22.2586  -11.3986 O   0  0  0  0  0  0  0  0  0  0  0  0
   17.9502  -21.1025  -15.9321 C   0  0  0  0  0  0  0  0  0  0  0  0
   29.4927  -19.6626   -6.4539 S   0  0  0  0  0  0  0  0  0  0  0  0
   27.8496  -18.9202   -6.5274 C   0  0  0  0  0  0  0  0  0  0  0  0
   26.6506  -20.0743   -7.2627 C   0  0  0  0  0  0  0  0  0  0  0  0
   26.3334  -19.6843   -8.6640 C   0  0  1  0  0  0  0  0  0  0  0  0
   25.4473  -20.6563   -9.3655 N   0  0  0  0  0  0  0  0  0  0  0  0
   25.1000  -20.1821  -10.7083 C   0  0  0  0  0  0  0  0  0  0  0  0
   24.1849  -20.8343   -8.6266 O   0  0  0  0  0  0  0  0  0  0  0  0
   22.9458  -20.3494   -9.0167 O   0  0  0  0  0  0  0  0  0  0  0  0
  2  1  1  6
  2  3  1  0
  3  4  1  0
  4  5  2  0
  4  8  1  0
  6  2  1  0
  7  6  2  0
  9 10  1  0
 10 12  1  0
 11 10  2  0
 12 13  1  0
 13 14  1  0
 14 15  1  0
 16 15  1  1
 16 17  1  0
 17  6  1  0
 18 19  2  0
 18 16  1  0
 21 20  1  0
 22 21  1  0
 23 22  1  0
 24 23  1  6
 24 25  1  0
 25 18  1  0
 26 27  1  0
 26 24  1  0
 28 26  2  0
M  END
$$$$
