DRM.pdb
     RDKit          3D

 28 27  0  0  1  0  0  0  0  0999 V2000
   25.8381  -20.4247  -17.9336 N   0  0  0  0  0  0  0  0  0  0  0  0
   25.0356  -19.4924  -17.1695 C   0  0  1  0  0  0  0  0  0  0  0  0
   24.1112  -18.7206  -18.1019 C   0  0  0  0  0  0  0  0  0  0  0  0
   24.7212  -17.4330  -18.5123 C   0  0  0  0  0  0  0  0  0  0  0  0
   25.9652  -17.3383  -18.5423 O   0  0  0  0  0  0  0  0  0  0  0  0
   24.2176  -20.3078  -16.2048 C   0  0  0  0  0  0  0  0  0  0  0  0
   24.2403  -21.5575  -16.2366 O   0  0  0  0  0  0  0  0  0  0  0  0
   23.9686  -16.3121  -18.8698 O   0  0  0  0  0  0  0  0  0  0  0  0
   18.2070  -19.6833  -11.3231 N   0  0  0  0  0  0  0  0  0  0  0  0
   18.8371  -19.9379  -10.0460 C   0  0  0  0  0  0  0  0  0  0  0  0
   18.1413  -20.3689   -9.0977 N   0  0  0  0  0  0  0  0  0  0  0  0
   20.2283  -19.6884   -9.8972 N   0  0  0  0  0  0  0  0  0  0  0  0
   21.1269  -19.2032  -10.8741 C   0  0  0  0  0  0  0  0  0  0  0  0
   21.3213  -20.0174  -12.0952 C   0  0  0  0  0  0  0  0  0  0  0  0
   22.2975  -19.3135  -13.0604 C   0  0  0  0  0  0  0  0  0  0  0  0
   22.5460  -20.1859  -14.2824 C   0  0  2  0  0  0  0  0  0  0  0  0
   23.4211  -19.6363  -15.2600 N   0  0  0  0  0  0  0  0  0  0  0  0
   21.2782  -20.7263  -14.7772 C   0  0  0  0  0  0  0  0  0  0  0  0
   20.3457  -19.9611  -15.1795 O   0  0  0  0  0  0  0  0  0  0  0  0
   18.2556  -20.6649   -8.1549 C   0  0  0  0  0  0  0  0  0  0  0  0
   20.2143  -27.0709  -15.7907 S   0  0  0  0  0  0  0  0  0  0  0  0
   18.7600  -26.4175  -16.6361 C   0  0  0  0  0  0  0  0  0  0  0  0
   18.5787  -24.6339  -16.3265 C   0  0  0  0  0  0  0  0  0  0  0  0
   19.7954  -24.0864  -15.6658 C   0  0  2  0  0  0  0  0  0  0  0  0
   19.7154  -22.6234  -15.3912 N   0  0  0  0  0  0  0  0  0  0  0  0
   20.9805  -22.1163  -14.8520 C   0  0  0  0  0  0  0  0  0  0  0  0
   18.6709  -22.3396  -14.3913 O   0  0  0  0  0  0  0  0  0  0  0  0
   17.3538  -22.0086  -14.6713 O   0  0  0  0  0  0  0  0  0  0  0  0
  2  1  1  6
  2  3  1  0
  3  4  1  0
  4  5  2  0
  4  8  1  0
  6  2  1  0
  7  6  2  0
  9 10  1  0
 10 12  1  0
 11 10  2  0
 12 13  1  0
 13 14  1  0
 14 15  1  0
 16 15  1  1
 16 17  1  0
 17  6  1  0
 18 19  2  0
 18 16  1  0
 21 20  1  0
 22 21  1  0
 23 22  1  0
 24 23  1  6
 24 25  1  0
 25 18  1  0
 26 27  1  0
 26 24  1  0
 28 26  2  0
M  END
$$$$
