DRM.pdb
     RDKit          3D

 28 27  0  0  1  0  0  0  0  0999 V2000
   17.0886  -23.0065  -13.2167 N   0  0  0  0  0  0  0  0  0  0  0  0
   17.5438  -22.6161  -11.8985 C   0  0  1  0  0  0  0  0  0  0  0  0
   17.0218  -21.2256  -11.5618 C   0  0  0  0  0  0  0  0  0  0  0  0
   17.7402  -20.1843  -12.3351 C   0  0  0  0  0  0  0  0  0  0  0  0
   18.7659  -20.5052  -12.9692 O   0  0  0  0  0  0  0  0  0  0  0  0
   16.9812  -23.6183  -10.9269 C   0  0  0  0  0  0  0  0  0  0  0  0
   15.7467  -23.7686  -10.7987 O   0  0  0  0  0  0  0  0  0  0  0  0
   17.3240  -18.8522  -12.3903 O   0  0  0  0  0  0  0  0  0  0  0  0
   20.8039  -28.2679  -12.4690 N   0  0  0  0  0  0  0  0  0  0  0  0
   20.8679  -28.6743  -11.0820 C   0  0  0  0  0  0  0  0  0  0  0  0
   21.9877  -28.8074  -10.5365 N   0  0  0  0  0  0  0  0  0  0  0  0
   19.6598  -28.9173  -10.3741 N   0  0  0  0  0  0  0  0  0  0  0  0
   18.3377  -28.7021  -10.8249 C   0  0  0  0  0  0  0  0  0  0  0  0
   17.7722  -27.3422  -10.6744 C   0  0  0  0  0  0  0  0  0  0  0  0
   18.2309  -26.7142   -9.3420 C   0  0  0  0  0  0  0  0  0  0  0  0
   17.5804  -25.3511   -9.1542 C   0  0  2  0  0  0  0  0  0  0  0  0
   17.8734  -24.3886  -10.1598 N   0  0  0  0  0  0  0  0  0  0  0  0
   17.7378  -24.9087   -7.7672 C   0  0  0  0  0  0  0  0  0  0  0  0
   18.7703  -24.2691   -7.3906 O   0  0  0  0  0  0  0  0  0  0  0  0
   22.3683  -29.0438   -9.6483 C   0  0  0  0  0  0  0  0  0  0  0  0
   13.4690  -23.6236   -2.4087 S   0  0  0  0  0  0  0  0  0  0  0  0
   13.1685  -23.7369   -4.1846 C   0  0  0  0  0  0  0  0  0  0  0  0
   14.7326  -23.6636   -5.1111 C   0  0  0  0  0  0  0  0  0  0  0  0
   15.6925  -24.6843   -4.6081 C   0  0  2  0  0  0  0  0  0  0  0  0
   16.9807  -24.7093   -5.3578 N   0  0  0  0  0  0  0  0  0  0  0  0
   16.7788  -25.1459   -6.7424 C   0  0  0  0  0  0  0  0  0  0  0  0
   17.9244  -25.6551   -4.7362 O   0  0  0  0  0  0  0  0  0  0  0  0
   18.7419  -25.3832   -3.6497 O   0  0  0  0  0  0  0  0  0  0  0  0
  2  1  1  6
  2  3  1  0
  3  4  1  0
  4  5  2  0
  4  8  1  0
  6  2  1  0
  7  6  2  0
  9 10  1  0
 10 12  1  0
 11 10  2  0
 12 13  1  0
 13 14  1  0
 14 15  1  0
 16 15  1  6
 16 17  1  0
 17  6  1  0
 18 19  2  0
 18 16  1  0
 21 20  1  0
 22 21  1  0
 23 22  1  0
 24 23  1  6
 24 25  1  0
 25 18  1  0
 26 27  1  0
 26 24  1  0
 28 26  2  0
M  END
$$$$
