DRM.pdb
     RDKit          3D

 28 27  0  0  1  0  0  0  0  0999 V2000
   14.9244  -10.9697  -14.5267 N   0  0  0  0  0  0  0  0  0  0  0  0
   15.8874  -11.1254  -13.4565 C   0  0  1  0  0  0  0  0  0  0  0  0
   17.0996  -11.8980  -13.9598 C   0  0  0  0  0  0  0  0  0  0  0  0
   16.7985  -13.3450  -14.0780 C   0  0  0  0  0  0  0  0  0  0  0  0
   17.5239  -14.0537  -14.8052 O   0  0  0  0  0  0  0  0  0  0  0  0
   16.3054   -9.7411  -13.0395 C   0  0  0  0  0  0  0  0  0  0  0  0
   16.5757   -8.8658  -13.8904 O   0  0  0  0  0  0  0  0  0  0  0  0
   15.7363  -13.9599  -13.4117 O   0  0  0  0  0  0  0  0  0  0  0  0
   13.2552   -5.1249   -6.0865 N   0  0  0  0  0  0  0  0  0  0  0  0
   14.1114   -4.2384   -6.8440 C   0  0  0  0  0  0  0  0  0  0  0  0
   14.0762   -3.0084   -6.6092 N   0  0  0  0  0  0  0  0  0  0  0  0
   14.9677   -4.7836   -7.8387 N   0  0  0  0  0  0  0  0  0  0  0  0
   15.0626   -6.1323   -8.2500 C   0  0  0  0  0  0  0  0  0  0  0  0
   16.0044   -6.4527   -9.3464 C   0  0  0  0  0  0  0  0  0  0  0  0
   15.8658   -7.9330   -9.7582 C   0  0  0  0  0  0  0  0  0  0  0  0
   16.6441   -8.1953  -11.0395 C   0  0  2  0  0  0  0  0  0  0  0  0
   16.3879   -9.4459  -11.6670 N   0  0  0  0  0  0  0  0  0  0  0  0
   18.0522   -7.8405  -10.8508 C   0  0  0  0  0  0  0  0  0  0  0  0
   18.7932   -8.4837  -10.0419 O   0  0  0  0  0  0  0  0  0  0  0  0
   14.5326   -2.1738   -6.9001 C   0  0  0  0  0  0  0  0  0  0  0  0
   24.1186   -9.8133  -14.0707 S   0  0  0  0  0  0  0  0  0  0  0  0
   22.3469   -9.6727  -13.7576 C   0  0  0  0  0  0  0  0  0  0  0  0
   21.9627   -8.1120  -12.9051 C   0  0  0  0  0  0  0  0  0  0  0  0
   20.5298   -8.0687  -12.5035 C   0  0  1  0  0  0  0  0  0  0  0  0
   20.1369   -6.7936  -11.8388 N   0  0  0  0  0  0  0  0  0  0  0  0
   18.7031   -6.7752  -11.5346 C   0  0  0  0  0  0  0  0  0  0  0  0
   20.4100   -5.6440  -12.7193 O   0  0  0  0  0  0  0  0  0  0  0  0
   21.6327   -5.0047  -12.8565 O   0  0  0  0  0  0  0  0  0  0  0  0
  2  1  1  6
  2  3  1  0
  3  4  1  0
  4  5  2  0
  4  8  1  0
  6  2  1  0
  7  6  2  0
  9 10  1  0
 10 12  1  0
 11 10  2  0
 12 13  1  0
 13 14  1  0
 14 15  1  0
 16 15  1  1
 16 17  1  0
 17  6  1  0
 18 19  2  0
 18 16  1  0
 21 20  1  0
 22 21  1  0
 23 22  1  0
 24 23  1  1
 24 25  1  0
 25 18  1  0
 26 27  1  0
 26 24  1  0
 28 26  2  0
M  END
$$$$
