DRM.pdb
     RDKit          3D

 28 27  0  0  1  0  0  0  0  0999 V2000
   18.8934  -12.4061  -15.4590 N   0  0  0  0  0  0  0  0  0  0  0  0
   18.8763  -11.2668  -16.3528 C   0  0  1  0  0  0  0  0  0  0  0  0
   17.5870  -10.4790  -16.1620 C   0  0  0  0  0  0  0  0  0  0  0  0
   16.4055  -11.2884  -16.5458 C   0  0  0  0  0  0  0  0  0  0  0  0
   16.4996  -12.0702  -17.5140 O   0  0  0  0  0  0  0  0  0  0  0  0
   20.0555  -10.4063  -15.9871 C   0  0  0  0  0  0  0  0  0  0  0  0
   20.3562  -10.1995  -14.7913 O   0  0  0  0  0  0  0  0  0  0  0  0
   15.1831  -11.2200  -15.8737 O   0  0  0  0  0  0  0  0  0  0  0  0
   27.5934   -8.6154  -20.6176 N   0  0  0  0  0  0  0  0  0  0  0  0
   27.5708   -7.6919  -19.5042 C   0  0  0  0  0  0  0  0  0  0  0  0
   28.5428   -6.9208  -19.3315 N   0  0  0  0  0  0  0  0  0  0  0  0
   26.4493   -7.6853  -18.6313 N   0  0  0  0  0  0  0  0  0  0  0  0
   25.2651   -8.4485  -18.7428 C   0  0  0  0  0  0  0  0  0  0  0  0
   24.2020   -8.2200  -17.7380 C   0  0  0  0  0  0  0  0  0  0  0  0
   22.9934   -9.1375  -18.0167 C   0  0  0  0  0  0  0  0  0  0  0  0
   21.9499   -8.9765  -16.9206 C   0  0  2  0  0  0  0  0  0  0  0  0
   20.8193   -9.8340  -17.0201 N   0  0  0  0  0  0  0  0  0  0  0  0
   21.6695   -7.5560  -16.7019 C   0  0  0  0  0  0  0  0  0  0  0  0
   21.3880   -6.7812  -17.6701 O   0  0  0  0  0  0  0  0  0  0  0  0
   28.8146   -6.1762  -18.7305 C   0  0  0  0  0  0  0  0  0  0  0  0
   17.2960   -4.2751  -17.0102 S   0  0  0  0  0  0  0  0  0  0  0  0
   17.8229   -3.5071  -15.4644 C   0  0  0  0  0  0  0  0  0  0  0  0
   19.5972   -3.7868  -15.1753 C   0  0  0  0  0  0  0  0  0  0  0  0
   19.9463   -5.2194  -15.3811 C   0  0  1  0  0  0  0  0  0  0  0  0
   21.4034   -5.5021  -15.2427 N   0  0  0  0  0  0  0  0  0  0  0  0
   21.6851   -6.9291  -15.4240 C   0  0  0  0  0  0  0  0  0  0  0  0
   21.8782   -5.1320  -13.8978 O   0  0  0  0  0  0  0  0  0  0  0  0
   21.9688   -3.8407  -13.4007 O   0  0  0  0  0  0  0  0  0  0  0  0
  2  1  1  1
  2  3  1  0
  3  4  1  0
  4  5  2  0
  4  8  1  0
  6  2  1  0
  7  6  2  0
  9 10  1  0
 10 12  1  0
 11 10  2  0
 12 13  1  0
 13 14  1  0
 14 15  1  0
 16 15  1  6
 16 17  1  0
 17  6  1  0
 18 19  2  0
 18 16  1  0
 21 20  1  0
 22 21  1  0
 23 22  1  0
 24 23  1  6
 24 25  1  0
 25 18  1  0
 26 27  1  0
 26 24  1  0
 28 26  2  0
M  END
$$$$
