DRM.pdb
     RDKit          3D

 28 27  0  0  1  0  0  0  0  0999 V2000
   26.9346  -19.0567  -15.8079 N   0  0  0  0  0  0  0  0  0  0  0  0
   26.4898  -20.2772  -15.1678 C   0  0  1  0  0  0  0  0  0  0  0  0
   27.6942  -21.0969  -14.7237 C   0  0  0  0  0  0  0  0  0  0  0  0
   28.4000  -21.6822  -15.8889 C   0  0  0  0  0  0  0  0  0  0  0  0
   27.9135  -21.5281  -17.0277 O   0  0  0  0  0  0  0  0  0  0  0  0
   25.6814  -19.8709  -13.9652 C   0  0  0  0  0  0  0  0  0  0  0  0
   26.0539  -18.9351  -13.2246 O   0  0  0  0  0  0  0  0  0  0  0  0
   29.5911  -22.4029  -15.7759 O   0  0  0  0  0  0  0  0  0  0  0  0
   18.0241  -23.7366  -11.5021 N   0  0  0  0  0  0  0  0  0  0  0  0
   18.5192  -22.9130  -12.5835 C   0  0  0  0  0  0  0  0  0  0  0  0
   17.8983  -22.8967  -13.6714 N   0  0  0  0  0  0  0  0  0  0  0  0
   19.6998  -22.1466  -12.3871 N   0  0  0  0  0  0  0  0  0  0  0  0
   20.4530  -22.0120  -11.1988 C   0  0  0  0  0  0  0  0  0  0  0  0
   21.6249  -21.1078  -11.2256 C   0  0  0  0  0  0  0  0  0  0  0  0
   22.3562  -21.2162  -12.5797 C   0  0  0  0  0  0  0  0  0  0  0  0
   23.7451  -20.6028  -12.4754 C   0  0  2  0  0  0  0  0  0  0  0  0
   24.4913  -20.5663  -13.6859 N   0  0  0  0  0  0  0  0  0  0  0  0
   24.4396  -21.1344  -11.3010 C   0  0  0  0  0  0  0  0  0  0  0  0
   24.8134  -22.3486  -11.2476 O   0  0  0  0  0  0  0  0  0  0  0  0
   17.9786  -22.4935  -14.5772 C   0  0  0  0  0  0  0  0  0  0  0  0
   29.2065  -18.8440   -7.2173 S   0  0  0  0  0  0  0  0  0  0  0  0
   27.8260  -19.2866   -6.1426 C   0  0  0  0  0  0  0  0  0  0  0  0
   26.7541  -20.5205   -6.9417 C   0  0  0  0  0  0  0  0  0  0  0  0
   26.1812  -19.9825   -8.2062 C   0  0  1  0  0  0  0  0  0  0  0  0
   25.3212  -20.9598   -8.9323 N   0  0  0  0  0  0  0  0  0  0  0  0
   24.7519  -20.3648  -10.1449 C   0  0  0  0  0  0  0  0  0  0  0  0
   24.1931  -21.3871   -8.0860 O   0  0  0  0  0  0  0  0  0  0  0  0
   22.8613  -21.0593   -8.2900 O   0  0  0  0  0  0  0  0  0  0  0  0
  2  1  1  1
  2  3  1  0
  3  4  1  0
  4  5  2  0
  4  8  1  0
  6  2  1  0
  7  6  2  0
  9 10  1  0
 10 12  1  0
 11 10  2  0
 12 13  1  0
 13 14  1  0
 14 15  1  0
 16 15  1  6
 16 17  1  0
 17  6  1  0
 18 19  2  0
 18 16  1  0
 21 20  1  0
 22 21  1  0
 23 22  1  0
 24 23  1  6
 24 25  1  0
 25 18  1  0
 26 27  1  0
 26 24  1  0
 28 26  2  0
M  END
$$$$
