DRM.pdb
     RDKit          3D

 28 27  0  0  1  0  0  0  0  0999 V2000
   28.1128  -34.3174   -2.0480 N   0  0  0  0  0  0  0  0  0  0  0  0
   27.1006  -34.3006   -1.0125 C   0  0  1  0  0  0  0  0  0  0  0  0
   26.6200  -35.7190   -0.7359 C   0  0  0  0  0  0  0  0  0  0  0  0
   25.7695  -36.2195   -1.8425 C   0  0  0  0  0  0  0  0  0  0  0  0
   25.6385  -35.5179   -2.8662 O   0  0  0  0  0  0  0  0  0  0  0  0
   27.7478  -33.7343    0.2225 C   0  0  0  0  0  0  0  0  0  0  0  0
   28.8928  -34.0941    0.5727 O   0  0  0  0  0  0  0  0  0  0  0  0
   25.1022  -37.4455   -1.7971 O   0  0  0  0  0  0  0  0  0  0  0  0
   22.0768  -30.0473    3.8212 N   0  0  0  0  0  0  0  0  0  0  0  0
   22.7537  -30.1771    5.0932 C   0  0  0  0  0  0  0  0  0  0  0  0
   22.1024  -30.5531    6.0951 N   0  0  0  0  0  0  0  0  0  0  0  0
   24.1389  -29.8706    5.1760 N   0  0  0  0  0  0  0  0  0  0  0  0
   25.0777  -29.8287    4.1204 C   0  0  0  0  0  0  0  0  0  0  0  0
   25.7363  -31.0972    3.7345 C   0  0  0  0  0  0  0  0  0  0  0  0
   26.6753  -30.8705    2.5316 C   0  0  0  0  0  0  0  0  0  0  0  0
   27.4194  -32.1558    2.1986 C   0  0  2  0  0  0  0  0  0  0  0  0
   27.0383  -32.7868    0.9821 N   0  0  0  0  0  0  0  0  0  0  0  0
   27.4868  -33.0155    3.3821 C   0  0  0  0  0  0  0  0  0  0  0  0
   26.5354  -33.8046    3.6808 O   0  0  0  0  0  0  0  0  0  0  0  0
   22.2614  -30.8058    7.0440 C   0  0  0  0  0  0  0  0  0  0  0  0
   32.1516  -36.8163    8.5396 S   0  0  0  0  0  0  0  0  0  0  0  0
   31.9778  -35.5799    7.2366 C   0  0  0  0  0  0  0  0  0  0  0  0
   30.2242  -35.2980    6.8422 C   0  0  0  0  0  0  0  0  0  0  0  0
   30.0845  -34.3289    5.7207 C   0  0  2  0  0  0  0  0  0  0  0  0
   28.6685  -33.9918    5.3992 N   0  0  0  0  0  0  0  0  0  0  0  0
   28.5902  -33.0475    4.2808 C   0  0  0  0  0  0  0  0  0  0  0  0
   28.0118  -33.3545    6.5541 O   0  0  0  0  0  0  0  0  0  0  0  0
   27.6684  -33.9882    7.7386 O   0  0  0  0  0  0  0  0  0  0  0  0
  2  1  1  6
  2  3  1  0
  3  4  1  0
  4  5  2  0
  4  8  1  0
  6  2  1  0
  7  6  2  0
  9 10  1  0
 10 12  1  0
 11 10  2  0
 12 13  1  0
 13 14  1  0
 14 15  1  0
 16 15  1  1
 16 17  1  0
 17  6  1  0
 18 19  2  0
 18 16  1  0
 21 20  1  0
 22 21  1  0
 23 22  1  0
 24 23  1  6
 24 25  1  0
 25 18  1  0
 26 27  1  0
 26 24  1  0
 28 26  2  0
M  END
$$$$
