DRM.pdb
     RDKit          3D

 28 27  0  0  1  0  0  0  0  0999 V2000
   21.9965  -25.4381  -15.1996 N   0  0  0  0  0  0  0  0  0  0  0  0
   21.3552  -24.6872  -16.2588 C   0  0  1  0  0  0  0  0  0  0  0  0
   20.4171  -25.5959  -17.0422 C   0  0  0  0  0  0  0  0  0  0  0  0
   21.1783  -26.5616  -17.8708 C   0  0  0  0  0  0  0  0  0  0  0  0
   22.4254  -26.5273  -17.8429 O   0  0  0  0  0  0  0  0  0  0  0  0
   20.5649  -23.5891  -15.5998 C   0  0  0  0  0  0  0  0  0  0  0  0
   19.8228  -22.8381  -16.2696 O   0  0  0  0  0  0  0  0  0  0  0  0
   20.5658  -27.5150  -18.6871 O   0  0  0  0  0  0  0  0  0  0  0  0
   16.0625  -23.7063   -9.4345 N   0  0  0  0  0  0  0  0  0  0  0  0
   16.5063  -25.0610   -9.6810 C   0  0  0  0  0  0  0  0  0  0  0  0
   15.6692  -25.9924   -9.6493 N   0  0  0  0  0  0  0  0  0  0  0  0
   17.8811  -25.3026   -9.9482 N   0  0  0  0  0  0  0  0  0  0  0  0
   18.8671  -24.3592  -10.3157 C   0  0  0  0  0  0  0  0  0  0  0  0
   18.8702  -23.8769  -11.7154 C   0  0  0  0  0  0  0  0  0  0  0  0
   19.9522  -22.7941  -11.9080 C   0  0  0  0  0  0  0  0  0  0  0  0
   20.0736  -22.4313  -13.3811 C   0  0  2  0  0  0  0  0  0  0  0  0
   20.6755  -23.4199  -14.2081 N   0  0  0  0  0  0  0  0  0  0  0  0
   20.5897  -21.0679  -13.5195 C   0  0  0  0  0  0  0  0  0  0  0  0
   21.7786  -20.7735  -13.1778 O   0  0  0  0  0  0  0  0  0  0  0  0
   15.6424  -26.9829   -9.7372 C   0  0  0  0  0  0  0  0  0  0  0  0
   22.3153  -14.9197  -17.6744 S   0  0  0  0  0  0  0  0  0  0  0  0
   21.6443  -16.5825  -17.4701 C   0  0  0  0  0  0  0  0  0  0  0  0
   21.3444  -16.9475  -15.7131 C   0  0  0  0  0  0  0  0  0  0  0  0
   20.7509  -18.3030  -15.5493 C   0  0  2  0  0  0  0  0  0  0  0  0
   20.3757  -18.6216  -14.1422 N   0  0  0  0  0  0  0  0  0  0  0  0
   19.8318  -19.9784  -14.0339 C   0  0  0  0  0  0  0  0  0  0  0  0
   19.3355  -17.6958  -13.6604 O   0  0  0  0  0  0  0  0  0  0  0  0
   19.5642  -16.4811  -13.0319 O   0  0  0  0  0  0  0  0  0  0  0  0
  2  1  1  1
  2  3  1  0
  3  4  1  0
  4  5  2  0
  4  8  1  0
  6  2  1  0
  7  6  2  0
  9 10  1  0
 10 12  1  0
 11 10  2  0
 12 13  1  0
 13 14  1  0
 14 15  1  0
 16 15  1  1
 16 17  1  0
 17  6  1  0
 18 19  2  0
 18 16  1  0
 21 20  1  0
 22 21  1  0
 23 22  1  0
 24 23  1  1
 24 25  1  0
 25 18  1  0
 26 27  1  0
 26 24  1  0
 28 26  2  0
M  END
$$$$
