DRM.pdb
     RDKit          3D

 28 27  0  0  1  0  0  0  0  0999 V2000
   21.2182  -20.9863  -11.0426 N   0  0  0  0  0  0  0  0  0  0  0  0
   20.5667  -21.1101  -12.3299 C   0  0  1  0  0  0  0  0  0  0  0  0
   19.0722  -20.8582  -12.1796 C   0  0  0  0  0  0  0  0  0  0  0  0
   18.3594  -21.0986  -13.4573 C   0  0  0  0  0  0  0  0  0  0  0  0
   18.9909  -21.5863  -14.4168 O   0  0  0  0  0  0  0  0  0  0  0  0
   21.1697  -20.0638  -13.2279 C   0  0  0  0  0  0  0  0  0  0  0  0
   21.0744  -18.8475  -12.9545 O   0  0  0  0  0  0  0  0  0  0  0  0
   17.0068  -20.8046  -13.6432 O   0  0  0  0  0  0  0  0  0  0  0  0
   25.4026  -23.3422  -13.7450 N   0  0  0  0  0  0  0  0  0  0  0  0
   25.3331  -23.7235  -15.1388 C   0  0  0  0  0  0  0  0  0  0  0  0
   24.9189  -24.8672  -15.4384 N   0  0  0  0  0  0  0  0  0  0  0  0
   25.7405  -22.7937  -16.1333 N   0  0  0  0  0  0  0  0  0  0  0  0
   25.8082  -21.3864  -16.0223 C   0  0  0  0  0  0  0  0  0  0  0  0
   24.7359  -20.7036  -15.2634 C   0  0  0  0  0  0  0  0  0  0  0  0
   23.5569  -20.3548  -16.1953 C   0  0  0  0  0  0  0  0  0  0  0  0
   22.4448  -19.6823  -15.4035 C   0  0  2  0  0  0  0  0  0  0  0  0
   21.8471  -20.4794  -14.3882 N   0  0  0  0  0  0  0  0  0  0  0  0
   21.5262  -18.9966  -16.3147 C   0  0  0  0  0  0  0  0  0  0  0  0
   20.5480  -19.6074  -16.8504 O   0  0  0  0  0  0  0  0  0  0  0  0
   24.8004  -25.4367  -16.2452 C   0  0  0  0  0  0  0  0  0  0  0  0
   19.1196  -13.0067  -15.8309 S   0  0  0  0  0  0  0  0  0  0  0  0
   17.9674  -14.0015  -16.8002 C   0  0  0  0  0  0  0  0  0  0  0  0
   18.8499  -15.2970  -17.7238 C   0  0  0  0  0  0  0  0  0  0  0  0
   19.8477  -15.9788  -16.8542 C   0  0  2  0  0  0  0  0  0  0  0  0
   20.6938  -16.9669  -17.5820 N   0  0  0  0  0  0  0  0  0  0  0  0
   21.6391  -17.6240  -16.6746 C   0  0  0  0  0  0  0  0  0  0  0  0
   21.4875  -16.2992  -18.6286 O   0  0  0  0  0  0  0  0  0  0  0  0
   20.9775  -15.7064  -19.7737 O   0  0  0  0  0  0  0  0  0  0  0  0
  2  1  1  1
  2  3  1  0
  3  4  1  0
  4  5  2  0
  4  8  1  0
  6  2  1  0
  7  6  2  0
  9 10  1  0
 10 12  1  0
 11 10  2  0
 12 13  1  0
 13 14  1  0
 14 15  1  0
 16 15  1  6
 16 17  1  0
 17  6  1  0
 18 19  2  0
 18 16  1  0
 21 20  1  0
 22 21  1  0
 23 22  1  0
 24 23  1  1
 24 25  1  0
 25 18  1  0
 26 27  1  0
 26 24  1  0
 28 26  2  0
M  END
$$$$
