DRM.pdb
     RDKit          3D

 28 27  0  0  1  0  0  0  0  0999 V2000
   36.1062  -28.4611  -18.0895 N   0  0  0  0  0  0  0  0  0  0  0  0
   36.2541  -29.9016  -18.1000 C   0  0  1  0  0  0  0  0  0  0  0  0
   37.7239  -30.2718  -17.9505 C   0  0  0  0  0  0  0  0  0  0  0  0
   38.4019  -30.3067  -19.2686 C   0  0  0  0  0  0  0  0  0  0  0  0
   37.7420  -30.0368  -20.2928 O   0  0  0  0  0  0  0  0  0  0  0  0
   35.4759  -30.4297  -16.9251 C   0  0  0  0  0  0  0  0  0  0  0  0
   35.0999  -29.6691  -16.0069 O   0  0  0  0  0  0  0  0  0  0  0  0
   39.7521  -30.6288  -19.4235 O   0  0  0  0  0  0  0  0  0  0  0  0
   28.0447  -34.1675  -16.4487 N   0  0  0  0  0  0  0  0  0  0  0  0
   28.7092  -32.8960  -16.2624 C   0  0  0  0  0  0  0  0  0  0  0  0
   28.0644  -31.8379  -16.4471 N   0  0  0  0  0  0  0  0  0  0  0  0
   30.0776  -32.8782  -15.8793 N   0  0  0  0  0  0  0  0  0  0  0  0
   30.9063  -33.9854  -15.5883 C   0  0  0  0  0  0  0  0  0  0  0  0
   32.3169  -33.7139  -15.2299 C   0  0  0  0  0  0  0  0  0  0  0  0
   32.9673  -32.7845  -16.2755 C   0  0  0  0  0  0  0  0  0  0  0  0
   34.4187  -32.5148  -15.9055 C   0  0  2  0  0  0  0  0  0  0  0  0
   35.1765  -31.8030  -16.8765 N   0  0  0  0  0  0  0  0  0  0  0  0
   35.0321  -33.7309  -15.3679 C   0  0  0  0  0  0  0  0  0  0  0  0
   35.5653  -34.5958  -16.1325 O   0  0  0  0  0  0  0  0  0  0  0  0
   28.2055  -30.8541  -16.4054 C   0  0  0  0  0  0  0  0  0  0  0  0
   35.8827  -34.6000   -8.9886 S   0  0  0  0  0  0  0  0  0  0  0  0
   37.0049  -35.8919   -9.5615 C   0  0  0  0  0  0  0  0  0  0  0  0
   36.8851  -36.0997  -11.3650 C   0  0  0  0  0  0  0  0  0  0  0  0
   36.1074  -34.9859  -11.9743 C   0  0  1  0  0  0  0  0  0  0  0  0
   35.9431  -35.1134  -13.4504 N   0  0  0  0  0  0  0  0  0  0  0  0
   35.0872  -34.0486  -13.9815 C   0  0  0  0  0  0  0  0  0  0  0  0
   35.3046  -36.3966  -13.7924 O   0  0  0  0  0  0  0  0  0  0  0  0
   35.9492  -37.6211  -13.8799 O   0  0  0  0  0  0  0  0  0  0  0  0
  2  1  1  1
  2  3  1  0
  3  4  1  0
  4  5  2  0
  4  8  1  0
  6  2  1  0
  7  6  2  0
  9 10  1  0
 10 12  1  0
 11 10  2  0
 12 13  1  0
 13 14  1  0
 14 15  1  0
 16 15  1  6
 16 17  1  0
 17  6  1  0
 18 19  2  0
 18 16  1  0
 21 20  1  0
 22 21  1  0
 23 22  1  0
 24 23  1  6
 24 25  1  0
 25 18  1  0
 26 27  1  0
 26 24  1  0
 28 26  2  0
M  END
$$$$
