DRM.pdb
     RDKit          3D

 28 27  0  0  1  0  0  0  0  0999 V2000
   16.9859  -23.4745  -11.4837 N   0  0  0  0  0  0  0  0  0  0  0  0
   17.3713  -24.1184  -12.7221 C   0  0  1  0  0  0  0  0  0  0  0  0
   16.1481  -24.7368  -13.3861 C   0  0  0  0  0  0  0  0  0  0  0  0
   15.6720  -25.9204  -12.6304 C   0  0  0  0  0  0  0  0  0  0  0  0
   16.5037  -26.6124  -12.0084 O   0  0  0  0  0  0  0  0  0  0  0  0
   17.9447  -23.0483  -13.6115 C   0  0  0  0  0  0  0  0  0  0  0  0
   17.2735  -22.0402  -13.9217 O   0  0  0  0  0  0  0  0  0  0  0  0
   14.3299  -26.3031  -12.5789 O   0  0  0  0  0  0  0  0  0  0  0  0
   26.2290  -23.0388  -15.3734 N   0  0  0  0  0  0  0  0  0  0  0  0
   25.1835  -23.9452  -15.7958 C   0  0  0  0  0  0  0  0  0  0  0  0
   25.4054  -25.1780  -15.7885 N   0  0  0  0  0  0  0  0  0  0  0  0
   23.9327  -23.4148  -16.2129 N   0  0  0  0  0  0  0  0  0  0  0  0
   23.5584  -22.0548  -16.2999 C   0  0  0  0  0  0  0  0  0  0  0  0
   22.1254  -21.7234  -16.1313 C   0  0  0  0  0  0  0  0  0  0  0  0
   21.4556  -22.7154  -15.1580 C   0  0  0  0  0  0  0  0  0  0  0  0
   19.9893  -22.3542  -14.9688 C   0  0  2  0  0  0  0  0  0  0  0  0
   19.2576  -23.2021  -14.0917 N   0  0  0  0  0  0  0  0  0  0  0  0
   19.3715  -22.0753  -16.2668 C   0  0  0  0  0  0  0  0  0  0  0  0
   19.0053  -23.0159  -17.0402 O   0  0  0  0  0  0  0  0  0  0  0  0
   24.9528  -26.0252  -16.0476 C   0  0  0  0  0  0  0  0  0  0  0  0
   16.9295  -16.1392  -18.6577 S   0  0  0  0  0  0  0  0  0  0  0  0
   15.8851  -17.5302  -19.1385 C   0  0  0  0  0  0  0  0  0  0  0  0
   16.8630  -19.0590  -19.2672 C   0  0  0  0  0  0  0  0  0  0  0  0
   17.5591  -19.3501  -17.9838 C   0  0  2  0  0  0  0  0  0  0  0  0
   18.4761  -20.5230  -18.0576 N   0  0  0  0  0  0  0  0  0  0  0  0
   19.1303  -20.7652  -16.7684 C   0  0  0  0  0  0  0  0  0  0  0  0
   19.5408  -20.2876  -19.0487 O   0  0  0  0  0  0  0  0  0  0  0  0
   19.4331  -20.4988  -20.4149 O   0  0  0  0  0  0  0  0  0  0  0  0
  2  1  1  1
  2  3  1  0
  3  4  1  0
  4  5  2  0
  4  8  1  0
  6  2  1  0
  7  6  2  0
  9 10  1  0
 10 12  1  0
 11 10  2  0
 12 13  1  0
 13 14  1  0
 14 15  1  0
 16 15  1  6
 16 17  1  0
 17  6  1  0
 18 19  2  0
 18 16  1  0
 21 20  1  0
 22 21  1  0
 23 22  1  0
 24 23  1  1
 24 25  1  0
 25 18  1  0
 26 27  1  0
 26 24  1  0
 28 26  2  0
M  END
$$$$
