LRW.pdb
     RDKit          3D

 34 35  0  0  1  0  0  0  0  0999 V2000
    6.7254  -11.8552   20.0293 C   0  0  0  0  0  0  0  0  0  0  0  0
    7.5879  -13.0023   19.5768 C   0  0  1  0  0  0  0  0  0  0  0  0
    9.0209  -12.6007   19.4305 C   0  0  0  0  0  0  0  0  0  0  0  0
    7.4722  -14.1882   20.5338 C   0  0  0  0  0  0  0  0  0  0  0  0
    8.5388  -15.2145   20.2441 C   0  0  2  0  0  0  0  0  0  0  0  0
    8.1832  -16.0586   19.1219 N   0  0  0  0  0  0  0  0  0  0  0  0
    8.7450  -16.0900   21.4220 C   0  0  0  0  0  0  0  0  0  0  0  0
    7.7376  -16.4772   22.0739 O   0  0  0  0  0  0  0  0  0  0  0  0
   12.0424  -21.8790   21.2620 N   0  0  0  0  0  0  0  0  0  0  0  0
   12.0194  -22.4514   22.5582 C   0  0  0  0  0  0  0  0  0  0  0  0
   11.6817  -23.6849   22.6683 N   0  0  0  0  0  0  0  0  0  0  0  0
   12.3540  -21.7100   23.7179 N   0  0  0  0  0  0  0  0  0  0  0  0
   12.6208  -20.3073   23.6811 C   0  0  0  0  0  0  0  0  0  0  0  0
   11.3660  -19.4689   23.8100 C   0  0  0  0  0  0  0  0  0  0  0  0
   11.2880  -18.4334   22.7092 C   0  0  0  0  0  0  0  0  0  0  0  0
   10.1251  -17.4931   22.9014 C   0  0  2  0  0  0  0  0  0  0  0  0
   10.0136  -16.5179   21.8586 N   0  0  0  0  0  0  0  0  0  0  0  0
   10.3972  -16.7488   24.1711 C   0  0  0  0  0  0  0  0  0  0  0  0
   11.2918  -15.8706   24.2632 O   0  0  0  0  0  0  0  0  0  0  0  0
   11.6465  -24.1297   23.5921 N   0  0  0  0  0  0  0  0  0  0  0  0
    9.6208  -17.0300   25.3423 C   0  0  2  0  0  0  0  0  0  0  0  0
    9.8887  -16.3946   26.6225 C   0  0  0  0  0  0  0  0  0  0  0  0
    8.5931  -16.1845   27.3756 C   0  0  0  0  0  0  0  0  0  0  0  0
    7.6774  -15.3741   26.5356 C   0  0  0  0  0  0  0  0  0  0  0  0
    6.6757  -15.8233   25.6863 N   0  0  0  0  0  0  0  0  0  0  0  0
    6.0730  -14.7853   25.1022 C   0  0  0  0  0  0  0  0  0  0  0  0
    6.6543  -13.6623   25.5473 C   0  0  0  0  0  0  0  0  0  0  0  0
    6.4518  -12.3123   25.2956 C   0  0  0  0  0  0  0  0  0  0  0  0
    7.2185  -11.3531   25.9116 C   0  0  0  0  0  0  0  0  0  0  0  0
    8.2182  -11.6838   26.8023 C   0  0  0  0  0  0  0  0  0  0  0  0
    8.4380  -13.0163   27.0682 C   0  0  0  0  0  0  0  0  0  0  0  0
    7.6709  -13.9768   26.4521 C   0  0  0  0  0  0  0  0  0  0  0  0
   10.7758  -17.2289   27.4564 O   0  0  0  0  0  0  0  0  0  0  0  0
   11.2137  -16.8842   28.5680 O   0  0  0  0  0  0  0  0  0  0  0  0
  2  1  1  1
  2  4  1  0
  3  2  1  0
  5  4  1  0
  5  6  1  6
  7  8  2  0
  7  5  1  0
  9 10  1  0
 10 12  1  0
 11 10  2  0
 12 13  1  0
 13 14  1  0
 14 15  1  0
 16 15  1  6
 16 17  1  0
 17  7  1  0
 18 19  2  0
 18 16  1  0
 20 18  1  0
 21 20  1  0
 21 22  1  6
 22 23  1  0
 23 31  1  0
 23 24  2  0
 24 25  1  0
 26 25  1  0
 26 27  2  0
 28 27  1  0
 29 28  2  0
 30 31  2  0
 30 29  1  0
 31 26  1  0
 32 21  1  0
 33 32  2  0
 34 32  1  0
M  END
$$$$
