LRW.pdb
     RDKit          3D

 34 35  0  0  1  0  0  0  0  0999 V2000
   12.6592  -19.3771   16.5074 C   0  0  0  0  0  0  0  0  0  0  0  0
   11.7084  -19.5478   17.6613 C   0  0  1  0  0  0  0  0  0  0  0  0
   11.7690  -20.9268   18.2365 C   0  0  0  0  0  0  0  0  0  0  0  0
   11.9777  -18.5132   18.7533 C   0  0  0  0  0  0  0  0  0  0  0  0
   11.0355  -18.7053   19.9154 C   0  0  2  0  0  0  0  0  0  0  0  0
    9.6912  -19.0142   19.4731 N   0  0  0  0  0  0  0  0  0  0  0  0
   10.9706  -17.4726   20.7355 C   0  0  0  0  0  0  0  0  0  0  0  0
   11.9874  -17.1304   21.3978 O   0  0  0  0  0  0  0  0  0  0  0  0
    7.6074  -13.5337   15.6673 N   0  0  0  0  0  0  0  0  0  0  0  0
    7.9242  -13.3496   17.0363 C   0  0  0  0  0  0  0  0  0  0  0  0
    9.0953  -12.9155   17.3325 N   0  0  0  0  0  0  0  0  0  0  0  0
    6.9973  -13.6278   18.0705 N   0  0  0  0  0  0  0  0  0  0  0  0
    7.3508  -13.5705   19.4533 C   0  0  0  0  0  0  0  0  0  0  0  0
    8.5289  -14.4595   19.7938 C   0  0  0  0  0  0  0  0  0  0  0  0
    8.7749  -14.4889   21.2867 C   0  0  0  0  0  0  0  0  0  0  0  0
    9.8284  -15.4992   21.6645 C   0  0  2  0  0  0  0  0  0  0  0  0
    9.8275  -16.6543   20.8178 N   0  0  0  0  0  0  0  0  0  0  0  0
    9.4819  -15.9658   23.0438 C   0  0  0  0  0  0  0  0  0  0  0  0
    8.6732  -16.9038   23.2585 O   0  0  0  0  0  0  0  0  0  0  0  0
    9.3574  -12.7665   18.3131 N   0  0  0  0  0  0  0  0  0  0  0  0
   10.0825  -15.3345   24.1814 C   0  0  2  0  0  0  0  0  0  0  0  0
    9.7204  -15.6852   25.5452 C   0  0  0  0  0  0  0  0  0  0  0  0
    8.3845  -16.3961   25.5581 C   0  0  0  0  0  0  0  0  0  0  0  0
    7.3095  -15.3912   25.7464 C   0  0  0  0  0  0  0  0  0  0  0  0
    5.9386  -15.6046   25.7849 N   0  0  0  0  0  0  0  0  0  0  0  0
    5.3013  -14.4461   25.9687 C   0  0  0  0  0  0  0  0  0  0  0  0
    6.2209  -13.4742   26.0525 C   0  0  0  0  0  0  0  0  0  0  0  0
    6.1508  -12.1003   26.2375 C   0  0  0  0  0  0  0  0  0  0  0  0
    7.2886  -11.3318   26.2837 C   0  0  0  0  0  0  0  0  0  0  0  0
    8.5447  -11.8850   26.1493 C   0  0  0  0  0  0  0  0  0  0  0  0
    8.6400  -13.2457   25.9650 C   0  0  0  0  0  0  0  0  0  0  0  0
    7.5017  -14.0154   25.9187 C   0  0  0  0  0  0  0  0  0  0  0  0
   10.7248  -16.5819   26.1496 O   0  0  0  0  0  0  0  0  0  0  0  0
   11.3773  -16.3081   27.1722 O   0  0  0  0  0  0  0  0  0  0  0  0
  2  1  1  6
  2  4  1  0
  3  2  1  0
  5  4  1  0
  5  6  1  6
  7  8  2  0
  7  5  1  0
  9 10  1  0
 10 12  1  0
 11 10  2  0
 12 13  1  0
 13 14  1  0
 14 15  1  0
 16 15  1  6
 16 17  1  0
 17  7  1  0
 18 19  2  0
 18 16  1  0
 20 18  1  0
 21 20  1  0
 21 22  1  1
 22 23  1  0
 23 31  1  0
 23 24  2  0
 24 25  1  0
 26 25  1  0
 26 27  2  0
 28 27  1  0
 29 28  2  0
 30 31  2  0
 30 29  1  0
 31 26  1  0
 32 21  1  0
 33 32  2  0
 34 32  1  0
M  END
$$$$
