LRW.pdb
     RDKit          3D

 34 35  0  0  1  0  0  0  0  0999 V2000
    6.5342  -12.2892   20.4184 C   0  0  0  0  0  0  0  0  0  0  0  0
    7.4198  -13.3723   19.8642 C   0  0  1  0  0  0  0  0  0  0  0  0
    8.7383  -12.8364   19.4054 C   0  0  0  0  0  0  0  0  0  0  0  0
    7.6355  -14.4846   20.8897 C   0  0  0  0  0  0  0  0  0  0  0  0
    8.5412  -15.5552   20.3342 C   0  0  2  0  0  0  0  0  0  0  0  0
    7.8961  -16.3134   19.2820 N   0  0  0  0  0  0  0  0  0  0  0  0
    8.9321  -16.5050   21.4026 C   0  0  0  0  0  0  0  0  0  0  0  0
    8.0729  -17.3214   21.8327 O   0  0  0  0  0  0  0  0  0  0  0  0
   11.1431  -19.5187   18.8696 N   0  0  0  0  0  0  0  0  0  0  0  0
   12.5507  -19.6244   18.7443 C   0  0  0  0  0  0  0  0  0  0  0  0
   13.0483  -19.7005   17.5635 N   0  0  0  0  0  0  0  0  0  0  0  0
   13.4100  -19.6481   19.8700 N   0  0  0  0  0  0  0  0  0  0  0  0
   12.9234  -19.5439   21.2089 C   0  0  0  0  0  0  0  0  0  0  0  0
   12.3141  -18.1896   21.5068 C   0  0  0  0  0  0  0  0  0  0  0  0
   11.8434  -18.1087   22.9427 C   0  0  0  0  0  0  0  0  0  0  0  0
   10.4987  -17.4366   23.0580 C   0  0  2  0  0  0  0  0  0  0  0  0
   10.2203  -16.5479   21.9699 N   0  0  0  0  0  0  0  0  0  0  0  0
   10.5544  -16.6045   24.3009 C   0  0  0  0  0  0  0  0  0  0  0  0
   11.3102  -15.6066   24.4148 O   0  0  0  0  0  0  0  0  0  0  0  0
   14.0546  -19.8542   17.4367 N   0  0  0  0  0  0  0  0  0  0  0  0
    9.7231  -16.9380   25.4195 C   0  0  1  0  0  0  0  0  0  0  0  0
    9.9690  -16.4138   26.7532 C   0  0  0  0  0  0  0  0  0  0  0  0
    8.6600  -16.2585   27.4964 C   0  0  0  0  0  0  0  0  0  0  0  0
    7.7167  -15.4889   26.6486 C   0  0  0  0  0  0  0  0  0  0  0  0
    6.7137  -15.9802   25.8246 N   0  0  0  0  0  0  0  0  0  0  0  0
    6.0819  -14.9701   25.2225 C   0  0  0  0  0  0  0  0  0  0  0  0
    6.6455  -13.8244   25.6309 C   0  0  0  0  0  0  0  0  0  0  0  0
    6.4117  -12.4857   25.3478 C   0  0  0  0  0  0  0  0  0  0  0  0
    7.1663  -11.4955   25.9288 C   0  0  0  0  0  0  0  0  0  0  0  0
    8.1841  -11.7827   26.8140 C   0  0  0  0  0  0  0  0  0  0  0  0
    8.4350  -13.1032   27.1107 C   0  0  0  0  0  0  0  0  0  0  0  0
    7.6802  -14.0946   26.5297 C   0  0  0  0  0  0  0  0  0  0  0  0
   10.8352  -17.3209   27.5311 O   0  0  0  0  0  0  0  0  0  0  0  0
   11.2536  -17.0731   28.6756 O   0  0  0  0  0  0  0  0  0  0  0  0
  2  1  1  1
  2  4  1  0
  3  2  1  0
  5  4  1  0
  5  6  1  6
  7  8  2  0
  7  5  1  0
  9 10  1  0
 10 12  1  0
 11 10  2  0
 12 13  1  0
 13 14  1  0
 14 15  1  0
 16 15  1  6
 16 17  1  0
 17  7  1  0
 18 19  2  0
 18 16  1  0
 20 18  1  0
 21 20  1  0
 21 22  1  1
 22 23  1  0
 23 31  1  0
 23 24  2  0
 24 25  1  0
 26 25  1  0
 26 27  2  0
 28 27  1  0
 29 28  2  0
 30 31  2  0
 30 29  1  0
 31 26  1  0
 32 21  1  0
 33 32  2  0
 34 32  1  0
M  END
$$$$
