LRW.pdb
     RDKit          3D

 34 35  0  0  1  0  0  0  0  0999 V2000
    6.7993  -12.4725   17.8288 C   0  0  0  0  0  0  0  0  0  0  0  0
    7.7800  -13.5099   18.3049 C   0  0  1  0  0  0  0  0  0  0  0  0
    9.1637  -12.9564   18.4284 C   0  0  0  0  0  0  0  0  0  0  0  0
    7.3377  -14.1144   19.6369 C   0  0  0  0  0  0  0  0  0  0  0  0
    8.3850  -15.0610   20.1681 C   0  0  2  0  0  0  0  0  0  0  0  0
    8.5743  -16.2001   19.2936 N   0  0  0  0  0  0  0  0  0  0  0  0
    7.9878  -15.5739   21.5006 C   0  0  0  0  0  0  0  0  0  0  0  0
    7.7720  -14.7482   22.4288 O   0  0  0  0  0  0  0  0  0  0  0  0
    5.9799  -23.5546   25.3198 N   0  0  0  0  0  0  0  0  0  0  0  0
    5.8787  -22.5275   26.2909 C   0  0  0  0  0  0  0  0  0  0  0  0
    5.5372  -22.8555   27.4840 N   0  0  0  0  0  0  0  0  0  0  0  0
    6.1401  -21.1695   25.9849 N   0  0  0  0  0  0  0  0  0  0  0  0
    6.4612  -20.7288   24.6647 C   0  0  0  0  0  0  0  0  0  0  0  0
    6.7384  -19.2414   24.5951 C   0  0  0  0  0  0  0  0  0  0  0  0
    7.0871  -18.8182   23.1847 C   0  0  0  0  0  0  0  0  0  0  0  0
    7.4751  -17.3630   23.1125 C   0  0  2  0  0  0  0  0  0  0  0  0
    7.8363  -16.9433   21.7918 N   0  0  0  0  0  0  0  0  0  0  0  0
    8.6937  -17.2143   23.9688 C   0  0  0  0  0  0  0  0  0  0  0  0
    9.8509  -17.4715   23.5509 O   0  0  0  0  0  0  0  0  0  0  0  0
    5.4557  -22.1381   28.2129 N   0  0  0  0  0  0  0  0  0  0  0  0
    8.5626  -16.7625   25.3224 C   0  0  2  0  0  0  0  0  0  0  0  0
    9.6925  -16.7090   26.2360 C   0  0  0  0  0  0  0  0  0  0  0  0
    9.7611  -15.3476   26.8931 C   0  0  0  0  0  0  0  0  0  0  0  0
    8.4065  -14.7428   26.8835 C   0  0  0  0  0  0  0  0  0  0  0  0
    7.2256  -15.2858   27.3704 N   0  0  0  0  0  0  0  0  0  0  0  0
    6.2165  -14.4344   27.1735 C   0  0  0  0  0  0  0  0  0  0  0  0
    6.7053  -13.3428   26.5681 C   0  0  0  0  0  0  0  0  0  0  0  0
    6.1382  -12.1550   26.1272 C   0  0  0  0  0  0  0  0  0  0  0  0
    6.9019  -11.1852   25.5240 C   0  0  0  0  0  0  0  0  0  0  0  0
    8.2579  -11.3450   25.3296 C   0  0  0  0  0  0  0  0  0  0  0  0
    8.8433  -12.5146   25.7585 C   0  0  0  0  0  0  0  0  0  0  0  0
    8.0795  -13.4855   26.3622 C   0  0  0  0  0  0  0  0  0  0  0  0
    9.5682  -17.7268   27.2976 O   0  0  0  0  0  0  0  0  0  0  0  0
    8.5572  -18.4290   27.4743 O   0  0  0  0  0  0  0  0  0  0  0  0
  2  1  1  1
  2  4  1  0
  3  2  1  0
  5  4  1  0
  5  6  1  6
  7  8  2  0
  7  5  1  0
  9 10  1  0
 10 12  1  0
 11 10  2  0
 12 13  1  0
 13 14  1  0
 14 15  1  0
 16 15  1  6
 16 17  1  0
 17  7  1  0
 18 19  2  0
 18 16  1  0
 20 18  1  0
 21 20  1  0
 21 22  1  6
 22 23  1  0
 23 31  1  0
 23 24  2  0
 24 25  1  0
 26 25  1  0
 26 27  2  0
 28 27  1  0
 29 28  2  0
 30 31  2  0
 30 29  1  0
 31 26  1  0
 32 21  1  0
 33 32  2  0
 34 32  1  0
M  END
$$$$
