LRW.pdb
     RDKit          3D

 34 35  0  0  1  0  0  0  0  0999 V2000
    6.9009  -11.9187   20.2517 C   0  0  0  0  0  0  0  0  0  0  0  0
    7.7085  -13.0247   19.6278 C   0  0  1  0  0  0  0  0  0  0  0  0
    9.1269  -12.6155   19.3893 C   0  0  0  0  0  0  0  0  0  0  0  0
    7.6659  -14.2883   20.4862 C   0  0  0  0  0  0  0  0  0  0  0  0
    8.5194  -15.3746   19.8807 C   0  0  2  0  0  0  0  0  0  0  0  0
    7.8049  -16.1153   18.8614 N   0  0  0  0  0  0  0  0  0  0  0  0
    8.9463  -16.3364   20.9242 C   0  0  0  0  0  0  0  0  0  0  0  0
    8.1004  -17.1536   21.3786 O   0  0  0  0  0  0  0  0  0  0  0  0
   14.5063  -20.5386   18.6024 N   0  0  0  0  0  0  0  0  0  0  0  0
   13.1721  -20.1862   18.2799 C   0  0  0  0  0  0  0  0  0  0  0  0
   12.6073  -20.7917   17.2990 N   0  0  0  0  0  0  0  0  0  0  0  0
   12.4561  -19.1986   18.9998 N   0  0  0  0  0  0  0  0  0  0  0  0
   12.9029  -18.6919   20.2583 C   0  0  0  0  0  0  0  0  0  0  0  0
   11.9491  -19.0120   21.3905 C   0  0  0  0  0  0  0  0  0  0  0  0
   11.9269  -17.8983   22.4147 C   0  0  0  0  0  0  0  0  0  0  0  0
   10.5627  -17.2671   22.5315 C   0  0  2  0  0  0  0  0  0  0  0  0
   10.2548  -16.3902   21.4419 N   0  0  0  0  0  0  0  0  0  0  0  0
   10.5960  -16.4304   23.7722 C   0  0  0  0  0  0  0  0  0  0  0  0
   11.1583  -15.3071   23.8169 O   0  0  0  0  0  0  0  0  0  0  0  0
   11.6350  -20.5775   17.0514 N   0  0  0  0  0  0  0  0  0  0  0  0
    9.9694  -16.9065   24.9698 C   0  0  1  0  0  0  0  0  0  0  0  0
   10.4135  -16.4993   26.2931 C   0  0  0  0  0  0  0  0  0  0  0  0
    9.9810  -15.0754   26.5673 C   0  0  0  0  0  0  0  0  0  0  0  0
    8.5272  -14.9564   26.2970 C   0  0  0  0  0  0  0  0  0  0  0  0
    7.6160  -15.9768   26.0626 N   0  0  0  0  0  0  0  0  0  0  0  0
    6.4003  -15.4650   25.8572 C   0  0  0  0  0  0  0  0  0  0  0  0
    6.4894  -14.1307   25.9509 C   0  0  0  0  0  0  0  0  0  0  0  0
    5.5705  -13.0970   25.8329 C   0  0  0  0  0  0  0  0  0  0  0  0
    5.9543  -11.7863   25.9822 C   0  0  0  0  0  0  0  0  0  0  0  0
    7.2608  -11.4384   26.2540 C   0  0  0  0  0  0  0  0  0  0  0  0
    8.1905  -12.4460   26.3757 C   0  0  0  0  0  0  0  0  0  0  0  0
    7.8072  -13.7580   26.2266 C   0  0  0  0  0  0  0  0  0  0  0  0
    9.8357  -17.3655   27.3391 O   0  0  0  0  0  0  0  0  0  0  0  0
    9.0434  -18.2969   27.1130 O   0  0  0  0  0  0  0  0  0  0  0  0
  2  1  1  1
  2  4  1  0
  3  2  1  0
  5  4  1  0
  5  6  1  6
  7  8  2  0
  7  5  1  0
  9 10  1  0
 10 12  1  0
 11 10  2  0
 12 13  1  0
 13 14  1  0
 14 15  1  0
 16 15  1  6
 16 17  1  0
 17  7  1  0
 18 19  2  0
 18 16  1  0
 20 18  1  0
 21 20  1  0
 21 22  1  6
 22 23  1  0
 23 31  1  0
 23 24  2  0
 24 25  1  0
 26 25  1  0
 26 27  2  0
 28 27  1  0
 29 28  2  0
 30 31  2  0
 30 29  1  0
 31 26  1  0
 32 21  1  0
 33 32  2  0
 34 32  1  0
M  END
$$$$
