LRW.pdb
     RDKit          3D

 34 35  0  0  1  0  0  0  0  0999 V2000
    5.8885  -21.3810   24.8133 C   0  0  0  0  0  0  0  0  0  0  0  0
    5.9407  -20.9317   23.3781 C   0  0  1  0  0  0  0  0  0  0  0  0
    4.6050  -21.0289   22.7127 C   0  0  0  0  0  0  0  0  0  0  0  0
    6.4776  -19.5052   23.2676 C   0  0  0  0  0  0  0  0  0  0  0  0
    6.8146  -19.1705   21.8360 C   0  0  2  0  0  0  0  0  0  0  0  0
    7.4152  -20.2945   21.1474 N   0  0  0  0  0  0  0  0  0  0  0  0
    7.7734  -18.0416   21.7827 C   0  0  0  0  0  0  0  0  0  0  0  0
    9.0029  -18.2828   21.9238 O   0  0  0  0  0  0  0  0  0  0  0  0
    7.4768  -15.4243   17.1210 N   0  0  0  0  0  0  0  0  0  0  0  0
    7.8597  -14.1366   16.6703 C   0  0  0  0  0  0  0  0  0  0  0  0
    8.2350  -14.0105   15.4493 N   0  0  0  0  0  0  0  0  0  0  0  0
    7.8400  -13.0022   17.5183 N   0  0  0  0  0  0  0  0  0  0  0  0
    7.5575  -13.0936   18.9154 C   0  0  0  0  0  0  0  0  0  0  0  0
    8.2588  -14.2603   19.5795 C   0  0  0  0  0  0  0  0  0  0  0  0
    7.8808  -14.3620   21.0413 C   0  0  0  0  0  0  0  0  0  0  0  0
    8.3567  -15.6529   21.6581 C   0  0  2  0  0  0  0  0  0  0  0  0
    7.3858  -16.7029   21.5815 N   0  0  0  0  0  0  0  0  0  0  0  0
    8.5771  -15.3640   23.1100 C   0  0  0  0  0  0  0  0  0  0  0  0
    7.7396  -14.7429   23.8120 O   0  0  0  0  0  0  0  0  0  0  0  0
    8.5264  -13.0944   15.0910 N   0  0  0  0  0  0  0  0  0  0  0  0
    9.7827  -15.8023   23.7488 C   0  0  1  0  0  0  0  0  0  0  0  0
   10.1377  -15.3967   25.0992 C   0  0  0  0  0  0  0  0  0  0  0  0
    9.1340  -15.9528   26.0858 C   0  0  0  0  0  0  0  0  0  0  0  0
    7.8917  -15.1454   26.0110 C   0  0  0  0  0  0  0  0  0  0  0  0
    6.6291  -15.5567   25.6073 N   0  0  0  0  0  0  0  0  0  0  0  0
    5.7726  -14.5351   25.6754 C   0  0  0  0  0  0  0  0  0  0  0  0
    6.4418  -13.4599   26.1151 C   0  0  0  0  0  0  0  0  0  0  0  0
    6.0803  -12.1454   26.3765 C   0  0  0  0  0  0  0  0  0  0  0  0
    7.0015  -11.2336   26.8320 C   0  0  0  0  0  0  0  0  0  0  0  0
    8.3189  -11.5787   27.0494 C   0  0  0  0  0  0  0  0  0  0  0  0
    8.7016  -12.8766   26.7974 C   0  0  0  0  0  0  0  0  0  0  0  0
    7.7802  -13.7897   26.3415 C   0  0  0  0  0  0  0  0  0  0  0  0
   11.4752  -15.8970   25.4718 O   0  0  0  0  0  0  0  0  0  0  0  0
   12.0201  -15.6783   26.5680 O   0  0  0  0  0  0  0  0  0  0  0  0
  2  1  1  1
  2  4  1  0
  3  2  1  0
  5  4  1  0
  5  6  1  1
  7  8  2  0
  7  5  1  0
  9 10  1  0
 10 12  1  0
 11 10  2  0
 12 13  1  0
 13 14  1  0
 14 15  1  0
 16 15  1  6
 16 17  1  0
 17  7  1  0
 18 19  2  0
 18 16  1  0
 20 18  1  0
 21 20  1  0
 21 22  1  1
 22 23  1  0
 23 31  1  0
 23 24  2  0
 24 25  1  0
 26 25  1  0
 26 27  2  0
 28 27  1  0
 29 28  2  0
 30 31  2  0
 30 29  1  0
 31 26  1  0
 32 21  1  0
 33 32  2  0
 34 32  1  0
M  END
$$$$
