LRW.pdb
     RDKit          3D

 34 35  0  0  1  0  0  0  0  0999 V2000
    6.8529  -12.1632   18.6593 C   0  0  0  0  0  0  0  0  0  0  0  0
    8.0931  -13.0120   18.7378 C   0  0  1  0  0  0  0  0  0  0  0  0
    9.3059  -12.2011   19.0659 C   0  0  0  0  0  0  0  0  0  0  0  0
    7.9252  -14.1380   19.7572 C   0  0  0  0  0  0  0  0  0  0  0  0
    9.2683  -14.6341   20.2313 C   0  0  2  0  0  0  0  0  0  0  0  0
   10.0058  -15.2885   19.1701 N   0  0  0  0  0  0  0  0  0  0  0  0
    9.0975  -15.6106   21.3330 C   0  0  0  0  0  0  0  0  0  0  0  0
    8.3534  -15.3055   22.3041 O   0  0  0  0  0  0  0  0  0  0  0  0
   13.4937  -19.0224   19.5942 N   0  0  0  0  0  0  0  0  0  0  0  0
   12.8677  -20.0446   18.8383 C   0  0  0  0  0  0  0  0  0  0  0  0
   13.2718  -20.2407   17.6359 N   0  0  0  0  0  0  0  0  0  0  0  0
   11.8239  -20.8434   19.3661 N   0  0  0  0  0  0  0  0  0  0  0  0
   11.2990  -20.6495   20.6803 C   0  0  0  0  0  0  0  0  0  0  0  0
   10.7857  -19.2423   20.9041 C   0  0  0  0  0  0  0  0  0  0  0  0
   10.1748  -19.0984   22.2811 C   0  0  0  0  0  0  0  0  0  0  0  0
    9.5491  -17.7413   22.4811 C   0  0  2  0  0  0  0  0  0  0  0  0
    9.7247  -16.8712   21.3573 N   0  0  0  0  0  0  0  0  0  0  0  0
   10.2684  -17.1174   23.6359 C   0  0  0  0  0  0  0  0  0  0  0  0
   11.3789  -16.5418   23.5112 O   0  0  0  0  0  0  0  0  0  0  0  0
   12.8913  -21.0172   17.0839 N   0  0  0  0  0  0  0  0  0  0  0  0
    9.6893  -17.1646   24.9458 C   0  0  1  0  0  0  0  0  0  0  0  0
   10.3333  -16.5619   26.1017 C   0  0  0  0  0  0  0  0  0  0  0  0
    9.8675  -15.1313   26.2646 C   0  0  0  0  0  0  0  0  0  0  0  0
    8.3842  -15.1084   26.2670 C   0  0  0  0  0  0  0  0  0  0  0  0
    7.5135  -16.1792   26.1199 N   0  0  0  0  0  0  0  0  0  0  0  0
    6.2503  -15.7512   26.1741 C   0  0  0  0  0  0  0  0  0  0  0  0
    6.2685  -14.4229   26.3538 C   0  0  0  0  0  0  0  0  0  0  0  0
    5.2785  -13.4582   26.4815 C   0  0  0  0  0  0  0  0  0  0  0  0
    5.5974  -12.1340   26.6613 C   0  0  0  0  0  0  0  0  0  0  0  0
    6.9063  -11.7040   26.7228 C   0  0  0  0  0  0  0  0  0  0  0  0
    7.9059  -12.6421   26.5988 C   0  0  0  0  0  0  0  0  0  0  0  0
    7.5875  -13.9675   26.4188 C   0  0  0  0  0  0  0  0  0  0  0  0
   10.0045  -17.2968   27.3386 O   0  0  0  0  0  0  0  0  0  0  0  0
    9.1699  -18.2164   27.4013 O   0  0  0  0  0  0  0  0  0  0  0  0
  2  1  1  1
  2  4  1  0
  3  2  1  0
  5  4  1  0
  5  6  1  6
  7  8  2  0
  7  5  1  0
  9 10  1  0
 10 12  1  0
 11 10  2  0
 12 13  1  0
 13 14  1  0
 14 15  1  0
 16 15  1  6
 16 17  1  0
 17  7  1  0
 18 19  2  0
 18 16  1  0
 20 18  1  0
 21 20  1  0
 21 22  1  1
 22 23  1  0
 23 31  1  0
 23 24  2  0
 24 25  1  0
 26 25  1  0
 26 27  2  0
 28 27  1  0
 29 28  2  0
 30 31  2  0
 30 29  1  0
 31 26  1  0
 32 21  1  0
 33 32  2  0
 34 32  1  0
M  END
$$$$
