LRW.pdb
     RDKit          3D

 34 35  0  0  1  0  0  0  0  0999 V2000
    9.1347  -12.7795   19.9451 C   0  0  0  0  0  0  0  0  0  0  0  0
    7.8407  -13.5330   19.7953 C   0  0  1  0  0  0  0  0  0  0  0  0
    6.6603  -12.6157   19.7595 C   0  0  0  0  0  0  0  0  0  0  0  0
    7.8579  -14.4122   18.5455 C   0  0  0  0  0  0  0  0  0  0  0  0
    8.9282  -15.4697   18.6509 C   0  0  2  0  0  0  0  0  0  0  0  0
    8.9906  -16.2931   17.4608 N   0  0  0  0  0  0  0  0  0  0  0  0
    8.6608  -16.3606   19.8046 C   0  0  0  0  0  0  0  0  0  0  0  0
    7.9076  -17.3582   19.6390 O   0  0  0  0  0  0  0  0  0  0  0  0
   13.7771  -19.4883   18.4415 N   0  0  0  0  0  0  0  0  0  0  0  0
   13.5717  -18.9456   19.7344 C   0  0  0  0  0  0  0  0  0  0  0  0
   13.9034  -17.7220   19.9358 N   0  0  0  0  0  0  0  0  0  0  0  0
   13.0188  -19.7055   20.7940 N   0  0  0  0  0  0  0  0  0  0  0  0
   11.6163  -19.7412   21.0621 C   0  0  0  0  0  0  0  0  0  0  0  0
   11.0496  -18.3775   21.3986 C   0  0  0  0  0  0  0  0  0  0  0  0
    9.5892  -18.4749   21.7832 C   0  0  0  0  0  0  0  0  0  0  0  0
    9.0038  -17.1267   22.1193 C   0  0  2  0  0  0  0  0  0  0  0  0
    9.2048  -16.1545   21.0871 N   0  0  0  0  0  0  0  0  0  0  0  0
    9.7415  -16.6422   23.3281 C   0  0  0  0  0  0  0  0  0  0  0  0
   10.8668  -16.0866   23.2575 O   0  0  0  0  0  0  0  0  0  0  0  0
   13.8259  -17.3142   20.8740 N   0  0  0  0  0  0  0  0  0  0  0  0
    9.1635  -16.8066   24.6290 C   0  0  1  0  0  0  0  0  0  0  0  0
    9.8547  -16.4019   25.8426 C   0  0  0  0  0  0  0  0  0  0  0  0
    8.8554  -16.1870   26.9585 C   0  0  0  0  0  0  0  0  0  0  0  0
    7.7668  -15.3090   26.4636 C   0  0  0  0  0  0  0  0  0  0  0  0
    6.5597  -15.6856   25.8915 N   0  0  0  0  0  0  0  0  0  0  0  0
    5.8480  -14.6022   25.5726 C   0  0  0  0  0  0  0  0  0  0  0  0
    6.5584  -13.5202   25.9216 C   0  0  0  0  0  0  0  0  0  0  0  0
    6.3307  -12.1537   25.8344 C   0  0  0  0  0  0  0  0  0  0  0  0
    7.2618  -11.2493   26.2845 C   0  0  0  0  0  0  0  0  0  0  0  0
    8.4577  -11.6535   26.8399 C   0  0  0  0  0  0  0  0  0  0  0  0
    8.7063  -13.0037   26.9374 C   0  0  0  0  0  0  0  0  0  0  0  0
    7.7749  -13.9094   26.4872 C   0  0  0  0  0  0  0  0  0  0  0  0
   10.8160  -17.4337   26.2778 O   0  0  0  0  0  0  0  0  0  0  0  0
   11.6028  -17.2949   27.2307 O   0  0  0  0  0  0  0  0  0  0  0  0
  2  1  1  6
  2  4  1  0
  3  2  1  0
  5  4  1  0
  5  6  1  6
  7  8  2  0
  7  5  1  0
  9 10  1  0
 10 12  1  0
 11 10  2  0
 12 13  1  0
 13 14  1  0
 14 15  1  0
 16 15  1  6
 16 17  1  0
 17  7  1  0
 18 19  2  0
 18 16  1  0
 20 18  1  0
 21 20  1  0
 21 22  1  1
 22 23  1  0
 23 31  1  0
 23 24  2  0
 24 25  1  0
 26 25  1  0
 26 27  2  0
 28 27  1  0
 29 28  2  0
 30 31  2  0
 30 29  1  0
 31 26  1  0
 32 21  1  0
 33 32  2  0
 34 32  1  0
M  END
$$$$
