LRW.pdb
     RDKit          3D

 34 35  0  0  1  0  0  0  0  0999 V2000
    7.4782  -22.5462   18.7637 C   0  0  0  0  0  0  0  0  0  0  0  0
    7.8772  -22.0170   20.1148 C   0  0  1  0  0  0  0  0  0  0  0  0
    8.9278  -22.8639   20.7592 C   0  0  0  0  0  0  0  0  0  0  0  0
    8.3585  -20.5698   20.0183 C   0  0  0  0  0  0  0  0  0  0  0  0
    8.8158  -20.0679   21.3651 C   0  0  2  0  0  0  0  0  0  0  0  0
    7.7430  -20.0840   22.3382 N   0  0  0  0  0  0  0  0  0  0  0  0
    9.3075  -18.6741   21.2559 C   0  0  0  0  0  0  0  0  0  0  0  0
   10.3579  -18.4514   20.5950 O   0  0  0  0  0  0  0  0  0  0  0  0
    7.5876  -13.5491   16.4485 N   0  0  0  0  0  0  0  0  0  0  0  0
    7.9567  -13.1456   17.7558 C   0  0  0  0  0  0  0  0  0  0  0  0
    9.0264  -12.4496   17.8941 N   0  0  0  0  0  0  0  0  0  0  0  0
    7.1887  -13.4847   18.8966 N   0  0  0  0  0  0  0  0  0  0  0  0
    7.5331  -13.0455   20.2114 C   0  0  0  0  0  0  0  0  0  0  0  0
    8.5842  -13.9191   20.8641 C   0  0  0  0  0  0  0  0  0  0  0  0
    8.0644  -15.3231   21.0848 C   0  0  0  0  0  0  0  0  0  0  0  0
    9.1351  -16.2440   21.6127 C   0  0  2  0  0  0  0  0  0  0  0  0
    8.6625  -17.5743   21.8538 N   0  0  0  0  0  0  0  0  0  0  0  0
    9.5538  -15.6807   22.9347 C   0  0  0  0  0  0  0  0  0  0  0  0
   10.0438  -14.5295   23.0560 O   0  0  0  0  0  0  0  0  0  0  0  0
    9.5377  -12.1199   17.0681 N   0  0  0  0  0  0  0  0  0  0  0  0
    9.4004  -16.4649   24.1242 C   0  0  1  0  0  0  0  0  0  0  0  0
   10.0679  -16.1243   25.3702 C   0  0  0  0  0  0  0  0  0  0  0  0
    9.1075  -16.2792   26.5294 C   0  0  0  0  0  0  0  0  0  0  0  0
    7.8524  -15.5553   26.2110 C   0  0  0  0  0  0  0  0  0  0  0  0
    6.6622  -16.0816   25.7283 N   0  0  0  0  0  0  0  0  0  0  0  0
    5.7651  -15.1067   25.5648 C   0  0  0  0  0  0  0  0  0  0  0  0
    6.3367  -13.9501   25.9289 C   0  0  0  0  0  0  0  0  0  0  0  0
    5.8970  -12.6341   25.9716 C   0  0  0  0  0  0  0  0  0  0  0  0
    6.7231  -11.6238   26.4009 C   0  0  0  0  0  0  0  0  0  0  0  0
    8.0184  -11.8676   26.8066 C   0  0  0  0  0  0  0  0  0  0  0  0
    8.4774  -13.1648   26.7734 C   0  0  0  0  0  0  0  0  0  0  0  0
    7.6512  -14.1764   26.3438 C   0  0  0  0  0  0  0  0  0  0  0  0
   11.2271  -17.0052   25.6121 O   0  0  0  0  0  0  0  0  0  0  0  0
   11.5217  -17.9802   24.8987 O   0  0  0  0  0  0  0  0  0  0  0  0
  2  1  1  6
  2  4  1  0
  3  2  1  0
  5  4  1  0
  5  6  1  1
  7  8  2  0
  7  5  1  0
  9 10  1  0
 10 12  1  0
 11 10  2  0
 12 13  1  0
 13 14  1  0
 14 15  1  0
 16 15  1  1
 16 17  1  0
 17  7  1  0
 18 19  2  0
 18 16  1  0
 20 18  1  0
 21 20  1  0
 21 22  1  1
 22 23  1  0
 23 31  1  0
 23 24  2  0
 24 25  1  0
 26 25  1  0
 26 27  2  0
 28 27  1  0
 29 28  2  0
 30 31  2  0
 30 29  1  0
 31 26  1  0
 32 21  1  0
 33 32  2  0
 34 32  1  0
M  END
$$$$
