LRW.pdb
     RDKit          3D

 34 35  0  0  1  0  0  0  0  0999 V2000
    7.1667  -11.7342   19.1444 C   0  0  0  0  0  0  0  0  0  0  0  0
    8.0119  -12.9708   18.9998 C   0  0  1  0  0  0  0  0  0  0  0  0
    9.4493  -12.6401   18.7535 C   0  0  0  0  0  0  0  0  0  0  0  0
    7.8853  -13.8703   20.2287 C   0  0  0  0  0  0  0  0  0  0  0  0
    8.7836  -15.0754   20.1037 C   0  0  2  0  0  0  0  0  0  0  0  0
    8.3563  -15.9572   19.0370 N   0  0  0  0  0  0  0  0  0  0  0  0
    8.7794  -15.8544   21.3645 C   0  0  0  0  0  0  0  0  0  0  0  0
    7.8065  -15.7228   22.1556 O   0  0  0  0  0  0  0  0  0  0  0  0
   10.8180  -21.6573   17.6333 N   0  0  0  0  0  0  0  0  0  0  0  0
   11.1081  -20.9358   18.8180 C   0  0  0  0  0  0  0  0  0  0  0  0
   11.6094  -19.7598   18.7020 N   0  0  0  0  0  0  0  0  0  0  0  0
   10.8636  -21.4696   20.1070 N   0  0  0  0  0  0  0  0  0  0  0  0
   11.1210  -20.7333   21.3036 C   0  0  0  0  0  0  0  0  0  0  0  0
   10.1872  -19.5535   21.4775 C   0  0  0  0  0  0  0  0  0  0  0  0
   10.4260  -18.8610   22.8017 C   0  0  0  0  0  0  0  0  0  0  0  0
    9.6728  -17.5586   22.9006 C   0  0  2  0  0  0  0  0  0  0  0  0
    9.8095  -16.7413   21.7325 N   0  0  0  0  0  0  0  0  0  0  0  0
   10.2903  -16.8060   24.0375 C   0  0  0  0  0  0  0  0  0  0  0  0
   11.3928  -16.2108   23.9367 O   0  0  0  0  0  0  0  0  0  0  0  0
   11.8654  -19.2233   19.5382 N   0  0  0  0  0  0  0  0  0  0  0  0
    9.6177  -16.7466   25.3015 C   0  0  1  0  0  0  0  0  0  0  0  0
   10.3148  -16.4308   26.5378 C   0  0  0  0  0  0  0  0  0  0  0  0
    9.7968  -15.1265   27.1039 C   0  0  0  0  0  0  0  0  0  0  0  0
    8.4189  -14.9010   26.6025 C   0  0  0  0  0  0  0  0  0  0  0  0
    7.4595  -15.8524   26.2848 N   0  0  0  0  0  0  0  0  0  0  0  0
    6.3440  -15.2526   25.8631 C   0  0  0  0  0  0  0  0  0  0  0  0
    6.5462  -13.9278   25.8956 C   0  0  0  0  0  0  0  0  0  0  0  0
    5.7597  -12.8290   25.5778 C   0  0  0  0  0  0  0  0  0  0  0  0
    6.2410  -11.5493   25.7125 C   0  0  0  0  0  0  0  0  0  0  0  0
    7.5189  -11.2980   26.1665 C   0  0  0  0  0  0  0  0  0  0  0  0
    8.3179  -12.3715   26.4882 C   0  0  0  0  0  0  0  0  0  0  0  0
    7.8368  -13.6525   26.3536 C   0  0  0  0  0  0  0  0  0  0  0  0
   10.1097  -17.4854   27.5497 O   0  0  0  0  0  0  0  0  0  0  0  0
    9.2697  -18.3965   27.4458 O   0  0  0  0  0  0  0  0  0  0  0  0
  2  1  1  1
  2  4  1  0
  3  2  1  0
  5  4  1  0
  5  6  1  6
  7  8  2  0
  7  5  1  0
  9 10  1  0
 10 12  1  0
 11 10  2  0
 12 13  1  0
 13 14  1  0
 14 15  1  0
 16 15  1  6
 16 17  1  0
 17  7  1  0
 18 19  2  0
 18 16  1  0
 20 18  1  0
 21 20  1  0
 21 22  1  1
 22 23  1  0
 23 31  1  0
 23 24  2  0
 24 25  1  0
 26 25  1  0
 26 27  2  0
 28 27  1  0
 29 28  2  0
 30 31  2  0
 30 29  1  0
 31 26  1  0
 32 21  1  0
 33 32  2  0
 34 32  1  0
M  END
$$$$
