LRW.pdb
     RDKit          3D

 34 35  0  0  1  0  0  0  0  0999 V2000
    6.4865  -12.2987   19.0399 C   0  0  0  0  0  0  0  0  0  0  0  0
    7.8052  -13.0229   19.0740 C   0  0  1  0  0  0  0  0  0  0  0  0
    8.9331  -12.1136   19.4442 C   0  0  0  0  0  0  0  0  0  0  0  0
    7.7551  -14.2115   20.0332 C   0  0  0  0  0  0  0  0  0  0  0  0
    9.1245  -14.8213   20.2004 C   0  0  2  0  0  0  0  0  0  0  0  0
    9.5355  -15.5534   19.0200 N   0  0  0  0  0  0  0  0  0  0  0  0
    9.1328  -15.7639   21.3439 C   0  0  0  0  0  0  0  0  0  0  0  0
    8.4544  -15.4809   22.3683 O   0  0  0  0  0  0  0  0  0  0  0  0
   14.1711  -19.8587   22.1484 N   0  0  0  0  0  0  0  0  0  0  0  0
   14.0198  -20.4597   20.8741 C   0  0  0  0  0  0  0  0  0  0  0  0
   14.9707  -20.3198   20.0231 N   0  0  0  0  0  0  0  0  0  0  0  0
   12.8651  -21.1994   20.5195 N   0  0  0  0  0  0  0  0  0  0  0  0
   11.5928  -20.9740   21.1284 C   0  0  0  0  0  0  0  0  0  0  0  0
   11.3507  -19.5152   21.4562 C   0  0  0  0  0  0  0  0  0  0  0  0
    9.9781  -19.3139   22.0608 C   0  0  0  0  0  0  0  0  0  0  0  0
    9.7397  -17.8774   22.4517 C   0  0  2  0  0  0  0  0  0  0  0  0
    9.8620  -16.9687   21.3516 N   0  0  0  0  0  0  0  0  0  0  0  0
   10.8164  -17.5283   23.4310 C   0  0  0  0  0  0  0  0  0  0  0  0
   11.8793  -16.9496   23.0916 O   0  0  0  0  0  0  0  0  0  0  0  0
   14.9020  -20.7548   19.0966 N   0  0  0  0  0  0  0  0  0  0  0  0
   10.6531  -17.8562   24.8164 C   0  0  1  0  0  0  0  0  0  0  0  0
   10.4238  -16.8418   25.8326 C   0  0  0  0  0  0  0  0  0  0  0  0
    9.2812  -15.9417   25.4149 C   0  0  0  0  0  0  0  0  0  0  0  0
    9.1096  -14.8806   26.4374 C   0  0  0  0  0  0  0  0  0  0  0  0
    9.8150  -14.7133   27.6210 N   0  0  0  0  0  0  0  0  0  0  0  0
    9.3630  -13.6404   28.2740 C   0  0  0  0  0  0  0  0  0  0  0  0
    8.3761  -13.0966   27.5478 C   0  0  0  0  0  0  0  0  0  0  0  0
    7.5535  -11.9920   27.7214 C   0  0  0  0  0  0  0  0  0  0  0  0
    6.6014  -11.6627   26.7874 C   0  0  0  0  0  0  0  0  0  0  0  0
    6.4192  -12.4087   25.6418 C   0  0  0  0  0  0  0  0  0  0  0  0
    7.2230  -13.5089   25.4472 C   0  0  0  0  0  0  0  0  0  0  0  0
    8.1761  -13.8390   26.3815 C   0  0  0  0  0  0  0  0  0  0  0  0
   10.0763  -17.4552   27.1292 O   0  0  0  0  0  0  0  0  0  0  0  0
    9.2400  -18.3650   27.2674 O   0  0  0  0  0  0  0  0  0  0  0  0
  2  1  1  1
  2  4  1  0
  3  2  1  0
  5  4  1  0
  5  6  1  6
  7  8  2  0
  7  5  1  0
  9 10  1  0
 10 12  1  0
 11 10  2  0
 12 13  1  0
 13 14  1  0
 14 15  1  0
 16 15  1  6
 16 17  1  0
 17  7  1  0
 18 19  2  0
 18 16  1  0
 20 18  1  0
 21 20  1  0
 21 22  1  1
 22 23  1  0
 23 31  1  0
 23 24  2  0
 24 25  1  0
 26 25  1  0
 26 27  2  0
 28 27  1  0
 29 28  2  0
 30 31  2  0
 30 29  1  0
 31 26  1  0
 32 21  1  0
 33 32  2  0
 34 32  1  0
M  END
$$$$
