ITF.pdb
     RDKit          3D

 27 27  0  0  1  0  0  0  0  0999 V2000
    7.7019  -11.9821   19.6014 C   0  0  0  0  0  0  0  0  0  0  0  0
    7.6368  -13.4811   19.5900 C   0  0  0  0  0  0  0  0  0  0  0  0
    8.9705  -14.0980   19.1330 C   0  0  2  0  0  0  0  0  0  0  0  0
    9.3364  -13.5939   17.7747 C   0  0  0  0  0  0  0  0  0  0  0  0
    8.8357  -15.6223   19.1501 C   0  0  2  0  0  0  0  0  0  0  0  0
    7.6382  -15.8635   18.3097 N   0  0  0  0  0  0  0  0  0  0  0  0
    8.5218  -16.1600   20.4777 C   0  0  0  0  0  0  0  0  0  0  0  0
    7.3376  -16.1063   20.9124 O   0  0  0  0  0  0  0  0  0  0  0  0
    8.3066  -19.3529   21.6774 C   0  0  0  0  0  0  0  0  0  0  0  0
    9.1797  -18.7247   22.7260 C   0  0  1  0  0  0  0  0  0  0  0  0
   10.5058  -19.0763   22.6105 O   0  0  0  0  0  0  0  0  0  0  0  0
    9.0820  -17.1876   22.6934 C   0  0  2  0  0  0  0  0  0  0  0  0
    9.4509  -16.7711   21.3786 N   0  0  0  0  0  0  0  0  0  0  0  0
    9.8210  -16.5895   23.8033 C   0  0  0  0  0  0  0  0  0  0  0  0
   11.0590  -16.2931   23.6481 O   0  0  0  0  0  0  0  0  0  0  0  0
    9.3107  -16.2821   25.0917 N   0  0  0  0  0  0  0  0  0  0  0  0
   10.1621  -15.7972   26.1903 C   0  0  1  0  0  0  0  0  0  0  0  0
   10.1445  -14.2992   26.2551 C   0  0  0  0  0  0  0  0  0  0  0  0
    8.7901  -13.7083   26.3127 C   0  0  0  0  0  0  0  0  0  0  0  0
    8.3614  -12.9583   27.3889 C   0  0  0  0  0  0  0  0  0  0  0  0
    7.0995  -12.3977   27.4466 C   0  0  0  0  0  0  0  0  0  0  0  0
    6.2163  -12.5755   26.4107 C   0  0  0  0  0  0  0  0  0  0  0  0
    6.6125  -13.3191   25.3214 C   0  0  0  0  0  0  0  0  0  0  0  0
    7.8723  -13.8742   25.2722 C   0  0  0  0  0  0  0  0  0  0  0  0
    9.7136  -16.4241   27.4425 C   0  0  0  0  0  0  0  0  0  0  0  0
    8.6529  -17.3113   27.4541 O   0  0  0  0  0  0  0  0  0  0  0  0
   10.2866  -16.1656   28.5290 O   0  0  0  0  0  0  0  0  0  0  0  0
  2  1  1  0
  3  2  1  0
  3  4  1  6
  5  6  1  6
  5  3  1  0
  7  5  1  0
  8  7  2  0
 10  9  1  6
 10 11  1  0
 12 10  1  0
 12 13  1  6
 13  7  1  0
 14 15  2  0
 14 12  1  0
 16 14  1  0
 17 25  1  0
 17 16  1  0
 17 18  1  1
 18 19  1  0
 19 20  2  0
 19 24  1  0
 20 21  1  0
 21 22  2  0
 23 22  1  0
 24 23  2  0
 25 26  1  0
 27 25  2  0
M  END
$$$$
