ITF.pdb
     RDKit          3D

 27 27  0  0  1  0  0  0  0  0999 V2000
    6.7510  -12.5363   18.8302 C   0  0  0  0  0  0  0  0  0  0  0  0
    7.5033  -13.7711   19.2311 C   0  0  0  0  0  0  0  0  0  0  0  0
    9.0184  -13.5096   19.2970 C   0  0  2  0  0  0  0  0  0  0  0  0
    9.5256  -13.0627   17.9643 C   0  0  0  0  0  0  0  0  0  0  0  0
    9.7158  -14.7892   19.7643 C   0  0  2  0  0  0  0  0  0  0  0  0
    9.3040  -15.7871   18.7480 N   0  0  0  0  0  0  0  0  0  0  0  0
    9.2161  -15.2826   21.0516 C   0  0  0  0  0  0  0  0  0  0  0  0
    9.1819  -14.5095   22.0493 O   0  0  0  0  0  0  0  0  0  0  0  0
    6.8466  -18.7139   21.4266 C   0  0  0  0  0  0  0  0  0  0  0  0
    7.8735  -18.4915   22.5001 C   0  0  1  0  0  0  0  0  0  0  0  0
    9.0202  -19.2310   22.3162 O   0  0  0  0  0  0  0  0  0  0  0  0
    8.2672  -17.0058   22.6038 C   0  0  2  0  0  0  0  0  0  0  0  0
    8.7367  -16.6048   21.3165 N   0  0  0  0  0  0  0  0  0  0  0  0
    9.1679  -16.7774   23.7317 C   0  0  0  0  0  0  0  0  0  0  0  0
   10.4356  -16.7996   23.5394 O   0  0  0  0  0  0  0  0  0  0  0  0
    8.7921  -16.5214   25.0763 N   0  0  0  0  0  0  0  0  0  0  0  0
    9.7736  -16.2483   26.1390 C   0  0  1  0  0  0  0  0  0  0  0  0
    9.9985  -14.7733   26.2886 C   0  0  0  0  0  0  0  0  0  0  0  0
    8.7591  -13.9668   26.3017 C   0  0  0  0  0  0  0  0  0  0  0  0
    8.5743  -12.9187   27.1802 C   0  0  0  0  0  0  0  0  0  0  0  0
    7.4214  -12.1566   27.1937 C   0  0  0  0  0  0  0  0  0  0  0  0
    6.4037  -12.4275   26.3130 C   0  0  0  0  0  0  0  0  0  0  0  0
    6.5558  -13.4671   25.4229 C   0  0  0  0  0  0  0  0  0  0  0  0
    7.7085  -14.2216   25.4163 C   0  0  0  0  0  0  0  0  0  0  0  0
    9.3061  -16.8794   27.3821 C   0  0  0  0  0  0  0  0  0  0  0  0
   10.0821  -16.8580   28.5266 O   0  0  0  0  0  0  0  0  0  0  0  0
    8.1900  -17.4518   27.4292 O   0  0  0  0  0  0  0  0  0  0  0  0
  2  1  1  0
  3  2  1  0
  3  4  1  6
  5  6  1  6
  5  3  1  0
  7  5  1  0
  8  7  2  0
 10  9  1  6
 10 11  1  0
 12 10  1  0
 12 13  1  6
 13  7  1  0
 14 15  2  0
 14 12  1  0
 16 14  1  0
 17 25  1  0
 17 16  1  0
 17 18  1  1
 18 19  1  0
 19 20  2  0
 19 24  1  0
 20 21  1  0
 21 22  2  0
 23 22  1  0
 24 23  2  0
 25 26  1  0
 27 25  2  0
M  END
$$$$
