ITF.pdb
     RDKit          3D

 27 27  0  0  1  0  0  0  0  0999 V2000
    7.6477  -11.7840   19.0629 C   0  0  0  0  0  0  0  0  0  0  0  0
    8.1384  -13.2019   19.0546 C   0  0  0  0  0  0  0  0  0  0  0  0
    7.9415  -13.8727   20.4255 C   0  0  2  0  0  0  0  0  0  0  0  0
    8.6453  -13.0943   21.4894 C   0  0  0  0  0  0  0  0  0  0  0  0
    8.4586  -15.3109   20.3452 C   0  0  2  0  0  0  0  0  0  0  0  0
    7.5009  -15.9614   19.4189 N   0  0  0  0  0  0  0  0  0  0  0  0
    8.3567  -16.0336   21.6170 C   0  0  0  0  0  0  0  0  0  0  0  0
    7.2201  -16.3144   22.0897 O   0  0  0  0  0  0  0  0  0  0  0  0
    9.0370  -19.3794   22.5927 C   0  0  0  0  0  0  0  0  0  0  0  0
    9.8408  -18.5485   23.5519 C   0  0  1  0  0  0  0  0  0  0  0  0
   11.1692  -18.4500   23.2038 O   0  0  0  0  0  0  0  0  0  0  0  0
    9.2674  -17.1245   23.6808 C   0  0  2  0  0  0  0  0  0  0  0  0
    9.4536  -16.4809   22.4201 N   0  0  0  0  0  0  0  0  0  0  0  0
    9.8115  -16.4422   24.8530 C   0  0  0  0  0  0  0  0  0  0  0  0
   10.8533  -15.7053   24.7254 O   0  0  0  0  0  0  0  0  0  0  0  0
    9.3026  -16.4983   26.1769 N   0  0  0  0  0  0  0  0  0  0  0  0
    9.9103  -15.7589   27.2955 C   0  0  1  0  0  0  0  0  0  0  0  0
    8.8617  -15.0366   28.0874 C   0  0  0  0  0  0  0  0  0  0  0  0
    8.1289  -14.0021   27.3259 C   0  0  0  0  0  0  0  0  0  0  0  0
    6.9047  -14.2511   26.7398 C   0  0  0  0  0  0  0  0  0  0  0  0
    6.2112  -13.2875   26.0323 C   0  0  0  0  0  0  0  0  0  0  0  0
    6.7333  -12.0258   25.8894 C   0  0  0  0  0  0  0  0  0  0  0  0
    7.9535  -11.7440   26.4620 C   0  0  0  0  0  0  0  0  0  0  0  0
    8.6379  -12.7107   27.1655 C   0  0  0  0  0  0  0  0  0  0  0  0
   10.6886  -16.7017   28.1125 C   0  0  0  0  0  0  0  0  0  0  0  0
   11.5847  -16.2481   29.0632 O   0  0  0  0  0  0  0  0  0  0  0  0
   10.5547  -17.9408   27.9628 O   0  0  0  0  0  0  0  0  0  0  0  0
  2  1  1  0
  3  2  1  0
  3  4  1  1
  5  6  1  6
  5  3  1  0
  7  5  1  0
  8  7  2  0
 10  9  1  6
 10 11  1  0
 12 10  1  0
 12 13  1  6
 13  7  1  0
 14 15  2  0
 14 12  1  0
 16 14  1  0
 17 25  1  0
 17 16  1  0
 17 18  1  1
 18 19  1  0
 19 20  2  0
 19 24  1  0
 20 21  1  0
 21 22  2  0
 23 22  1  0
 24 23  2  0
 25 26  1  0
 27 25  2  0
M  END
$$$$
