ITF.pdb
     RDKit          3D

 27 27  0  0  1  0  0  0  0  0999 V2000
    7.2888  -11.8137   19.2807 C   0  0  0  0  0  0  0  0  0  0  0  0
    7.6695  -13.2634   19.2115 C   0  0  0  0  0  0  0  0  0  0  0  0
    7.7129  -13.9005   20.6116 C   0  0  2  0  0  0  0  0  0  0  0  0
    8.7360  -13.2178   21.4603 C   0  0  0  0  0  0  0  0  0  0  0  0
    8.0126  -15.3936   20.4605 C   0  0  2  0  0  0  0  0  0  0  0  0
    6.8242  -15.9035   19.7353 N   0  0  0  0  0  0  0  0  0  0  0  0
    8.0513  -16.1077   21.7406 C   0  0  0  0  0  0  0  0  0  0  0  0
    6.9854  -16.2809   22.3949 O   0  0  0  0  0  0  0  0  0  0  0  0
    9.3996  -19.5411   22.4990 C   0  0  0  0  0  0  0  0  0  0  0  0
    9.9986  -18.6035   23.5083 C   0  0  1  0  0  0  0  0  0  0  0  0
   11.3020  -18.2618   23.2257 O   0  0  0  0  0  0  0  0  0  0  0  0
    9.1745  -17.3078   23.6320 C   0  0  2  0  0  0  0  0  0  0  0  0
    9.2171  -16.6600   22.3605 N   0  0  0  0  0  0  0  0  0  0  0  0
    9.6032  -16.5194   24.7853 C   0  0  0  0  0  0  0  0  0  0  0  0
   10.5403  -15.6554   24.6440 O   0  0  0  0  0  0  0  0  0  0  0  0
    9.0835  -16.5973   26.1040 N   0  0  0  0  0  0  0  0  0  0  0  0
    9.6743  -15.8662   27.2369 C   0  0  1  0  0  0  0  0  0  0  0  0
    8.6302  -15.0642   27.9546 C   0  0  0  0  0  0  0  0  0  0  0  0
    8.0976  -13.9241   27.1776 C   0  0  0  0  0  0  0  0  0  0  0  0
    6.9054  -13.9994   26.4868 C   0  0  0  0  0  0  0  0  0  0  0  0
    6.3984  -12.9360   25.7641 C   0  0  0  0  0  0  0  0  0  0  0  0
    7.0831  -11.7472   25.7117 C   0  0  0  0  0  0  0  0  0  0  0  0
    8.2766  -11.6386   26.3899 C   0  0  0  0  0  0  0  0  0  0  0  0
    8.7745  -12.7037   27.1080 C   0  0  0  0  0  0  0  0  0  0  0  0
   10.3511  -16.8314   28.1157 C   0  0  0  0  0  0  0  0  0  0  0  0
   10.2456  -18.1922   27.8933 O   0  0  0  0  0  0  0  0  0  0  0  0
   11.0404  -16.4380   29.0883 O   0  0  0  0  0  0  0  0  0  0  0  0
  2  1  1  0
  3  2  1  0
  3  4  1  1
  5  6  1  6
  5  3  1  0
  7  5  1  0
  8  7  2  0
 10  9  1  6
 10 11  1  0
 12 10  1  0
 12 13  1  6
 13  7  1  0
 14 15  2  0
 14 12  1  0
 16 14  1  0
 17 25  1  0
 17 16  1  0
 17 18  1  1
 18 19  1  0
 19 20  2  0
 19 24  1  0
 20 21  1  0
 21 22  2  0
 23 22  1  0
 24 23  2  0
 25 26  1  0
 27 25  2  0
M  END
$$$$
