ITF.pdb
     RDKit          3D

 27 27  0  0  1  0  0  0  0  0999 V2000
    9.1617  -12.4745   18.2496 C   0  0  0  0  0  0  0  0  0  0  0  0
    7.7695  -12.9905   18.4665 C   0  0  0  0  0  0  0  0  0  0  0  0
    7.6329  -13.6811   19.8349 C   0  0  2  0  0  0  0  0  0  0  0  0
    8.2433  -12.8357   20.9054 C   0  0  0  0  0  0  0  0  0  0  0  0
    8.2979  -15.0572   19.7568 C   0  0  2  0  0  0  0  0  0  0  0  0
    7.5160  -15.7494   18.7043 N   0  0  0  0  0  0  0  0  0  0  0  0
    8.1330  -15.8490   20.9799 C   0  0  0  0  0  0  0  0  0  0  0  0
    7.0465  -15.7946   21.6208 O   0  0  0  0  0  0  0  0  0  0  0  0
    8.2671  -19.4430   21.9168 C   0  0  0  0  0  0  0  0  0  0  0  0
    9.2626  -18.7517   22.8043 C   0  0  1  0  0  0  0  0  0  0  0  0
   10.5671  -18.9384   22.4058 O   0  0  0  0  0  0  0  0  0  0  0  0
    8.9921  -17.2370   22.8811 C   0  0  2  0  0  0  0  0  0  0  0  0
    9.1110  -16.7213   21.5552 N   0  0  0  0  0  0  0  0  0  0  0  0
    9.8189  -16.6061   23.9077 C   0  0  0  0  0  0  0  0  0  0  0  0
   10.9914  -16.1863   23.6015 O   0  0  0  0  0  0  0  0  0  0  0  0
    9.4649  -16.3909   25.2653 N   0  0  0  0  0  0  0  0  0  0  0  0
   10.3609  -15.7268   26.2261 C   0  0  1  0  0  0  0  0  0  0  0  0
   10.1555  -14.2416   26.2055 C   0  0  0  0  0  0  0  0  0  0  0  0
    8.7618  -13.8162   26.4580 C   0  0  0  0  0  0  0  0  0  0  0  0
    7.7435  -14.0673   25.5611 C   0  0  0  0  0  0  0  0  0  0  0  0
    6.4378  -13.6786   25.7935 C   0  0  0  0  0  0  0  0  0  0  0  0
    6.1095  -13.0160   26.9502 C   0  0  0  0  0  0  0  0  0  0  0  0
    7.1023  -12.7493   27.8665 C   0  0  0  0  0  0  0  0  0  0  0  0
    8.4012  -13.1406   27.6268 C   0  0  0  0  0  0  0  0  0  0  0  0
   10.1376  -16.3116   27.5566 C   0  0  0  0  0  0  0  0  0  0  0  0
    9.2272  -17.3362   27.7400 O   0  0  0  0  0  0  0  0  0  0  0  0
   10.7710  -15.8910   28.5554 O   0  0  0  0  0  0  0  0  0  0  0  0
  2  1  1  0
  3  2  1  0
  3  4  1  1
  5  6  1  6
  5  3  1  0
  7  5  1  0
  8  7  2  0
 10  9  1  6
 10 11  1  0
 12 10  1  0
 12 13  1  6
 13  7  1  0
 14 15  2  0
 14 12  1  0
 16 14  1  0
 17 25  1  0
 17 16  1  0
 17 18  1  1
 18 19  1  0
 19 20  2  0
 19 24  1  0
 20 21  1  0
 21 22  2  0
 23 22  1  0
 24 23  2  0
 25 26  1  0
 27 25  2  0
M  END
$$$$
