ITF.pdb
     RDKit          3D

 27 27  0  0  1  0  0  0  0  0999 V2000
    7.1421  -11.6227   19.3387 C   0  0  0  0  0  0  0  0  0  0  0  0
    7.6697  -13.0199   19.1937 C   0  0  0  0  0  0  0  0  0  0  0  0
    7.5486  -13.8059   20.5112 C   0  0  2  0  0  0  0  0  0  0  0  0
    8.2431  -13.0769   21.6154 C   0  0  0  0  0  0  0  0  0  0  0  0
    8.1363  -15.2035   20.3027 C   0  0  2  0  0  0  0  0  0  0  0  0
    7.2220  -15.8072   19.3038 N   0  0  0  0  0  0  0  0  0  0  0  0
    8.0554  -16.0486   21.4983 C   0  0  0  0  0  0  0  0  0  0  0  0
    6.9269  -16.3726   21.9625 O   0  0  0  0  0  0  0  0  0  0  0  0
    8.9508  -19.4826   22.2062 C   0  0  0  0  0  0  0  0  0  0  0  0
    9.6645  -18.6764   23.2537 C   0  0  1  0  0  0  0  0  0  0  0  0
   10.9977  -18.4795   22.9726 O   0  0  0  0  0  0  0  0  0  0  0  0
    9.0032  -17.2992   23.4520 C   0  0  2  0  0  0  0  0  0  0  0  0
    9.1655  -16.5758   22.2320 N   0  0  0  0  0  0  0  0  0  0  0  0
    9.4893  -16.6522   24.6688 C   0  0  0  0  0  0  0  0  0  0  0  0
   10.4807  -15.8417   24.5978 O   0  0  0  0  0  0  0  0  0  0  0  0
    8.9728  -16.8193   25.9803 N   0  0  0  0  0  0  0  0  0  0  0  0
    9.5822  -16.1879   27.1624 C   0  0  1  0  0  0  0  0  0  0  0  0
    8.5643  -15.3937   27.9249 C   0  0  0  0  0  0  0  0  0  0  0  0
    8.1029  -14.1710   27.2325 C   0  0  0  0  0  0  0  0  0  0  0  0
    8.8509  -13.0115   27.2133 C   0  0  0  0  0  0  0  0  0  0  0  0
    8.4290  -11.8674   26.5629 C   0  0  0  0  0  0  0  0  0  0  0  0
    7.2256  -11.8520   25.9023 C   0  0  0  0  0  0  0  0  0  0  0  0
    6.4543  -12.9928   25.9022 C   0  0  0  0  0  0  0  0  0  0  0  0
    6.8826  -14.1288   26.5531 C   0  0  0  0  0  0  0  0  0  0  0  0
   10.2130  -17.2347   27.9799 C   0  0  0  0  0  0  0  0  0  0  0  0
   11.0778  -16.9096   29.0090 O   0  0  0  0  0  0  0  0  0  0  0  0
    9.9784  -18.4479   27.7592 O   0  0  0  0  0  0  0  0  0  0  0  0
  2  1  1  0
  3  2  1  0
  3  4  1  1
  5  6  1  6
  5  3  1  0
  7  5  1  0
  8  7  2  0
 10  9  1  6
 10 11  1  0
 12 10  1  0
 12 13  1  6
 13  7  1  0
 14 15  2  0
 14 12  1  0
 16 14  1  0
 17 25  1  0
 17 16  1  0
 17 18  1  1
 18 19  1  0
 19 20  2  0
 19 24  1  0
 20 21  1  0
 21 22  2  0
 23 22  1  0
 24 23  2  0
 25 26  1  0
 27 25  2  0
M  END
$$$$
