ITF.pdb
     RDKit          3D

 27 27  0  0  1  0  0  0  0  0999 V2000
    7.8549  -12.0126   18.7655 C   0  0  0  0  0  0  0  0  0  0  0  0
    8.2253  -13.4666   18.7574 C   0  0  0  0  0  0  0  0  0  0  0  0
    8.1167  -14.0820   20.1636 C   0  0  2  0  0  0  0  0  0  0  0  0
    9.0007  -13.3492   21.1199 C   0  0  0  0  0  0  0  0  0  0  0  0
    8.4864  -15.5646   20.0786 C   0  0  2  0  0  0  0  0  0  0  0  0
    7.3922  -16.1376   19.2583 N   0  0  0  0  0  0  0  0  0  0  0  0
    8.4313  -16.2493   21.3741 C   0  0  0  0  0  0  0  0  0  0  0  0
    7.3614  -16.2383   22.0446 O   0  0  0  0  0  0  0  0  0  0  0  0
    9.0394  -19.7462   22.5114 C   0  0  0  0  0  0  0  0  0  0  0  0
    9.9193  -18.8772   23.3641 C   0  0  1  0  0  0  0  0  0  0  0  0
   11.2433  -18.9099   22.9880 O   0  0  0  0  0  0  0  0  0  0  0  0
    9.4478  -17.4106   23.3482 C   0  0  2  0  0  0  0  0  0  0  0  0
    9.5047  -16.9658   21.9928 N   0  0  0  0  0  0  0  0  0  0  0  0
   10.1764  -16.6128   24.3323 C   0  0  0  0  0  0  0  0  0  0  0  0
   11.3101  -16.1041   24.0153 O   0  0  0  0  0  0  0  0  0  0  0  0
    9.7616  -16.3186   25.6575 N   0  0  0  0  0  0  0  0  0  0  0  0
   10.6071  -15.5819   26.6113 C   0  0  1  0  0  0  0  0  0  0  0  0
   10.4091  -14.1028   26.4648 C   0  0  0  0  0  0  0  0  0  0  0  0
    8.9966  -13.6689   26.5244 C   0  0  0  0  0  0  0  0  0  0  0  0
    8.0715  -14.0471   25.5728 C   0  0  0  0  0  0  0  0  0  0  0  0
    6.7485  -13.6508   25.6257 C   0  0  0  0  0  0  0  0  0  0  0  0
    6.3074  -12.8507   26.6504 C   0  0  0  0  0  0  0  0  0  0  0  0
    7.2051  -12.4549   27.6167 C   0  0  0  0  0  0  0  0  0  0  0  0
    8.5221  -12.8548   27.5562 C   0  0  0  0  0  0  0  0  0  0  0  0
   10.3099  -16.0620   27.9689 C   0  0  0  0  0  0  0  0  0  0  0  0
   10.9894  -15.5628   29.0650 O   0  0  0  0  0  0  0  0  0  0  0  0
    9.4306  -16.9372   28.1604 O   0  0  0  0  0  0  0  0  0  0  0  0
  2  1  1  0
  3  2  1  0
  3  4  1  1
  5  6  1  6
  5  3  1  0
  7  5  1  0
  8  7  2  0
 10  9  1  6
 10 11  1  0
 12 10  1  0
 12 13  1  6
 13  7  1  0
 14 15  2  0
 14 12  1  0
 16 14  1  0
 17 25  1  0
 17 16  1  0
 17 18  1  1
 18 19  1  0
 19 20  2  0
 19 24  1  0
 20 21  1  0
 21 22  2  0
 23 22  1  0
 24 23  2  0
 25 26  1  0
 27 25  2  0
M  END
$$$$
