ITF.pdb
     RDKit          3D

 27 27  0  0  1  0  0  0  0  0999 V2000
    7.6126  -11.8531   20.5103 C   0  0  0  0  0  0  0  0  0  0  0  0
    7.6382  -13.3483   20.3871 C   0  0  0  0  0  0  0  0  0  0  0  0
    9.0188  -13.8509   19.9293 C   0  0  2  0  0  0  0  0  0  0  0  0
    9.3547  -13.2911   18.5851 C   0  0  0  0  0  0  0  0  0  0  0  0
    9.0017  -15.3811   19.9133 C   0  0  2  0  0  0  0  0  0  0  0  0
    7.8622  -15.6955   19.0184 N   0  0  0  0  0  0  0  0  0  0  0  0
    8.6759  -15.9691   21.2165 C   0  0  0  0  0  0  0  0  0  0  0  0
    7.4697  -16.0687   21.5759 O   0  0  0  0  0  0  0  0  0  0  0  0
    8.6637  -19.1884   22.4290 C   0  0  0  0  0  0  0  0  0  0  0  0
    9.4913  -18.4768   23.4611 C   0  0  1  0  0  0  0  0  0  0  0  0
   10.8445  -18.6751   23.3033 O   0  0  0  0  0  0  0  0  0  0  0  0
    9.2202  -16.9604   23.4526 C   0  0  2  0  0  0  0  0  0  0  0  0
    9.6166  -16.4699   22.1718 N   0  0  0  0  0  0  0  0  0  0  0  0
    9.8183  -16.3122   24.6179 C   0  0  0  0  0  0  0  0  0  0  0  0
   10.9282  -15.6831   24.4878 O   0  0  0  0  0  0  0  0  0  0  0  0
    9.2949  -16.2931   25.9372 N   0  0  0  0  0  0  0  0  0  0  0  0
    9.9573  -15.5872   27.0463 C   0  0  1  0  0  0  0  0  0  0  0  0
    8.9519  -14.8657   27.8931 C   0  0  0  0  0  0  0  0  0  0  0  0
    8.1480  -13.8626   27.1620 C   0  0  0  0  0  0  0  0  0  0  0  0
    8.5818  -12.5653   26.9797 C   0  0  0  0  0  0  0  0  0  0  0  0
    7.8389  -11.6244   26.2920 C   0  0  0  0  0  0  0  0  0  0  0  0
    6.6198  -11.9620   25.7586 C   0  0  0  0  0  0  0  0  0  0  0  0
    6.1572  -13.2486   25.9227 C   0  0  0  0  0  0  0  0  0  0  0  0
    6.9044  -14.1801   26.6096 C   0  0  0  0  0  0  0  0  0  0  0  0
   10.7511  -16.5589   27.8128 C   0  0  0  0  0  0  0  0  0  0  0  0
   11.6625  -16.1404   28.7650 O   0  0  0  0  0  0  0  0  0  0  0  0
   10.6168  -17.7916   27.6174 O   0  0  0  0  0  0  0  0  0  0  0  0
  2  1  1  0
  3  2  1  0
  3  4  1  6
  5  6  1  6
  5  3  1  0
  7  5  1  0
  8  7  2  0
 10  9  1  6
 10 11  1  0
 12 10  1  0
 12 13  1  6
 13  7  1  0
 14 15  2  0
 14 12  1  0
 16 14  1  0
 17 25  1  0
 17 16  1  0
 17 18  1  1
 18 19  1  0
 19 20  2  0
 19 24  1  0
 20 21  1  0
 21 22  2  0
 23 22  1  0
 24 23  2  0
 25 26  1  0
 27 25  2  0
M  END
$$$$
