ITF.pdb
     RDKit          3D

 27 27  0  0  1  0  0  0  0  0999 V2000
    7.2097  -11.6790   19.3606 C   0  0  0  0  0  0  0  0  0  0  0  0
    7.8403  -13.0350   19.2373 C   0  0  0  0  0  0  0  0  0  0  0  0
    7.7286  -13.8283   20.5512 C   0  0  2  0  0  0  0  0  0  0  0  0
    8.3469  -13.0606   21.6743 C   0  0  0  0  0  0  0  0  0  0  0  0
    8.4038  -15.1883   20.3604 C   0  0  2  0  0  0  0  0  0  0  0  0
    7.5242  -15.8656   19.3776 N   0  0  0  0  0  0  0  0  0  0  0  0
    8.3851  -16.0176   21.5695 C   0  0  0  0  0  0  0  0  0  0  0  0
    7.2904  -16.4791   21.9969 O   0  0  0  0  0  0  0  0  0  0  0  0
    9.4140  -19.2937   22.4142 C   0  0  0  0  0  0  0  0  0  0  0  0
   10.1121  -18.4344   23.4294 C   0  0  1  0  0  0  0  0  0  0  0  0
   11.4340  -18.1992   23.1248 O   0  0  0  0  0  0  0  0  0  0  0  0
    9.4055  -17.0760   23.5988 C   0  0  2  0  0  0  0  0  0  0  0  0
    9.5236  -16.3832   22.3561 N   0  0  0  0  0  0  0  0  0  0  0  0
    9.8868  -16.3771   24.7885 C   0  0  0  0  0  0  0  0  0  0  0  0
   10.8866  -15.5802   24.6892 O   0  0  0  0  0  0  0  0  0  0  0  0
    9.3566  -16.4775   26.1014 N   0  0  0  0  0  0  0  0  0  0  0  0
    9.8917  -15.7086   27.2370 C   0  0  1  0  0  0  0  0  0  0  0  0
    8.7968  -14.9565   27.9328 C   0  0  0  0  0  0  0  0  0  0  0  0
    8.1274  -13.9402   27.0926 C   0  0  0  0  0  0  0  0  0  0  0  0
    6.9587  -14.2067   26.4090 C   0  0  0  0  0  0  0  0  0  0  0  0
    6.3242  -13.2599   25.6273 C   0  0  0  0  0  0  0  0  0  0  0  0
    6.8514  -11.9981   25.5061 C   0  0  0  0  0  0  0  0  0  0  0  0
    8.0172  -11.6991   26.1752 C   0  0  0  0  0  0  0  0  0  0  0  0
    8.6430  -12.6490   26.9523 C   0  0  0  0  0  0  0  0  0  0  0  0
   10.6041  -16.6311   28.1334 C   0  0  0  0  0  0  0  0  0  0  0  0
   10.6141  -17.9927   27.8918 O   0  0  0  0  0  0  0  0  0  0  0  0
   11.2194  -16.1996   29.1389 O   0  0  0  0  0  0  0  0  0  0  0  0
  2  1  1  0
  3  2  1  0
  3  4  1  1
  5  6  1  6
  5  3  1  0
  7  5  1  0
  8  7  2  0
 10  9  1  6
 10 11  1  0
 12 10  1  0
 12 13  1  6
 13  7  1  0
 14 15  2  0
 14 12  1  0
 16 14  1  0
 17 25  1  0
 17 16  1  0
 17 18  1  1
 18 19  1  0
 19 20  2  0
 19 24  1  0
 20 21  1  0
 21 22  2  0
 23 22  1  0
 24 23  2  0
 25 26  1  0
 27 25  2  0
M  END
$$$$
