ITF.pdb
     RDKit          3D

 27 27  0  0  1  0  0  0  0  0999 V2000
    7.4207  -11.8642   19.1863 C   0  0  0  0  0  0  0  0  0  0  0  0
    7.7914  -13.3142   19.0797 C   0  0  0  0  0  0  0  0  0  0  0  0
    7.7627  -14.0042   20.4550 C   0  0  2  0  0  0  0  0  0  0  0  0
    8.6797  -13.3046   21.4051 C   0  0  0  0  0  0  0  0  0  0  0  0
    8.1538  -15.4726   20.2738 C   0  0  2  0  0  0  0  0  0  0  0  0
    7.0333  -16.0228   19.4737 N   0  0  0  0  0  0  0  0  0  0  0  0
    8.1700  -16.2259   21.5317 C   0  0  0  0  0  0  0  0  0  0  0  0
    7.1001  -16.3810   22.1840 O   0  0  0  0  0  0  0  0  0  0  0  0
    8.7668  -19.6472   22.5139 C   0  0  0  0  0  0  0  0  0  0  0  0
    9.7278  -18.8503   23.3493 C   0  0  1  0  0  0  0  0  0  0  0  0
   11.0203  -18.8896   22.8765 O   0  0  0  0  0  0  0  0  0  0  0  0
    9.2951  -17.3755   23.4531 C   0  0  2  0  0  0  0  0  0  0  0  0
    9.3169  -16.8373   22.1310 N   0  0  0  0  0  0  0  0  0  0  0  0
   10.0780  -16.6671   24.4634 C   0  0  0  0  0  0  0  0  0  0  0  0
   11.1881  -16.1188   24.1293 O   0  0  0  0  0  0  0  0  0  0  0  0
    9.7426  -16.5041   25.8331 N   0  0  0  0  0  0  0  0  0  0  0  0
   10.6308  -15.8320   26.7957 C   0  0  1  0  0  0  0  0  0  0  0  0
   10.6133  -14.3471   26.5879 C   0  0  0  0  0  0  0  0  0  0  0  0
    9.2604  -13.7500   26.5757 C   0  0  0  0  0  0  0  0  0  0  0  0
    8.2818  -14.1670   25.6966 C   0  0  0  0  0  0  0  0  0  0  0  0
    7.0134  -13.6181   25.6838 C   0  0  0  0  0  0  0  0  0  0  0  0
    6.6839  -12.6191   26.5660 C   0  0  0  0  0  0  0  0  0  0  0  0
    7.6377  -12.1794   27.4567 C   0  0  0  0  0  0  0  0  0  0  0  0
    8.8995  -12.7323   27.4625 C   0  0  0  0  0  0  0  0  0  0  0  0
   10.2267  -16.2190   28.1554 C   0  0  0  0  0  0  0  0  0  0  0  0
    9.1981  -17.1198   28.3630 O   0  0  0  0  0  0  0  0  0  0  0  0
   10.8093  -15.7381   29.1579 O   0  0  0  0  0  0  0  0  0  0  0  0
  2  1  1  0
  3  2  1  0
  3  4  1  1
  5  6  1  6
  5  3  1  0
  7  5  1  0
  8  7  2  0
 10  9  1  6
 10 11  1  0
 12 10  1  0
 12 13  1  6
 13  7  1  0
 14 15  2  0
 14 12  1  0
 16 14  1  0
 17 25  1  0
 17 16  1  0
 17 18  1  1
 18 19  1  0
 19 20  2  0
 19 24  1  0
 20 21  1  0
 21 22  2  0
 23 22  1  0
 24 23  2  0
 25 26  1  0
 27 25  2  0
M  END
$$$$
