ITF.pdb
     RDKit          3D

 27 27  0  0  1  0  0  0  0  0999 V2000
    8.1305  -11.9955   18.5409 C   0  0  0  0  0  0  0  0  0  0  0  0
    8.2760  -13.4884   18.5817 C   0  0  0  0  0  0  0  0  0  0  0  0
    8.2302  -14.0182   20.0257 C   0  0  2  0  0  0  0  0  0  0  0  0
    9.2833  -13.3567   20.8543 C   0  0  0  0  0  0  0  0  0  0  0  0
    8.4102  -15.5377   19.9952 C   0  0  2  0  0  0  0  0  0  0  0  0
    7.1827  -16.0081   19.3095 N   0  0  0  0  0  0  0  0  0  0  0  0
    8.3966  -16.1482   21.3284 C   0  0  0  0  0  0  0  0  0  0  0  0
    7.3307  -16.1534   22.0052 O   0  0  0  0  0  0  0  0  0  0  0  0
    9.0647  -19.5817   22.5057 C   0  0  0  0  0  0  0  0  0  0  0  0
    9.9501  -18.6914   23.3302 C   0  0  1  0  0  0  0  0  0  0  0  0
   11.2623  -18.6943   22.9136 O   0  0  0  0  0  0  0  0  0  0  0  0
    9.4448  -17.2361   23.3276 C   0  0  2  0  0  0  0  0  0  0  0  0
    9.5084  -16.7719   21.9790 N   0  0  0  0  0  0  0  0  0  0  0  0
   10.1420  -16.4350   24.3314 C   0  0  0  0  0  0  0  0  0  0  0  0
   11.1620  -15.7395   23.9843 O   0  0  0  0  0  0  0  0  0  0  0  0
    9.8113  -16.3279   25.7076 N   0  0  0  0  0  0  0  0  0  0  0  0
   10.5827  -15.5007   26.6498 C   0  0  1  0  0  0  0  0  0  0  0  0
   10.1596  -14.0646   26.5659 C   0  0  0  0  0  0  0  0  0  0  0  0
    8.7362  -13.8294   26.8911 C   0  0  0  0  0  0  0  0  0  0  0  0
    8.3447  -12.9538   27.8832 C   0  0  0  0  0  0  0  0  0  0  0  0
    7.0164  -12.7242   28.1882 C   0  0  0  0  0  0  0  0  0  0  0  0
    6.0260  -13.3764   27.4964 C   0  0  0  0  0  0  0  0  0  0  0  0
    6.3825  -14.2574   26.5000 C   0  0  0  0  0  0  0  0  0  0  0  0
    7.7091  -14.4801   26.2026 C   0  0  0  0  0  0  0  0  0  0  0  0
   10.4266  -16.0598   28.0007 C   0  0  0  0  0  0  0  0  0  0  0  0
    9.6930  -17.2126   28.2135 O   0  0  0  0  0  0  0  0  0  0  0  0
   10.9579  -15.5000   28.9907 O   0  0  0  0  0  0  0  0  0  0  0  0
  2  1  1  0
  3  2  1  0
  3  4  1  1
  5  6  1  6
  5  3  1  0
  7  5  1  0
  8  7  2  0
 10  9  1  6
 10 11  1  0
 12 10  1  0
 12 13  1  6
 13  7  1  0
 14 15  2  0
 14 12  1  0
 16 14  1  0
 17 25  1  0
 17 16  1  0
 17 18  1  1
 18 19  1  0
 19 20  2  0
 19 24  1  0
 20 21  1  0
 21 22  2  0
 23 22  1  0
 24 23  2  0
 25 26  1  0
 27 25  2  0
M  END
$$$$
