ITF.pdb
     RDKit          3D

 27 27  0  0  1  0  0  0  0  0999 V2000
    7.4181  -13.2411   14.2816 C   0  0  0  0  0  0  0  0  0  0  0  0
    8.2495  -14.4876   14.3619 C   0  0  0  0  0  0  0  0  0  0  0  0
    8.1273  -15.1567   15.7422 C   0  0  2  0  0  0  0  0  0  0  0  0
    8.4092  -14.1664   16.8252 C   0  0  0  0  0  0  0  0  0  0  0  0
    9.0935  -16.3423   15.7983 C   0  0  2  0  0  0  0  0  0  0  0  0
    8.5444  -17.2721   14.7823 N   0  0  0  0  0  0  0  0  0  0  0  0
    9.0544  -17.0596   17.0766 C   0  0  0  0  0  0  0  0  0  0  0  0
    7.9646  -17.5438   17.4913 O   0  0  0  0  0  0  0  0  0  0  0  0
   10.1878  -20.1992   18.3486 C   0  0  0  0  0  0  0  0  0  0  0  0
   10.8112  -19.1779   19.2568 C   0  0  1  0  0  0  0  0  0  0  0  0
   12.1214  -18.8975   18.9404 O   0  0  0  0  0  0  0  0  0  0  0  0
   10.0179  -17.8574   19.2479 C   0  0  2  0  0  0  0  0  0  0  0  0
   10.1670  -17.2866   17.9478 N   0  0  0  0  0  0  0  0  0  0  0  0
   10.3881  -17.0133   20.3820 C   0  0  0  0  0  0  0  0  0  0  0  0
   11.3220  -16.1455   20.2425 O   0  0  0  0  0  0  0  0  0  0  0  0
    9.8120  -17.0383   21.6790 N   0  0  0  0  0  0  0  0  0  0  0  0
   10.1956  -16.0913   22.7389 C   0  0  1  0  0  0  0  0  0  0  0  0
    9.0061  -15.3080   23.2080 C   0  0  0  0  0  0  0  0  0  0  0  0
    8.3650  -14.4875   22.1579 C   0  0  0  0  0  0  0  0  0  0  0  0
    7.1285  -14.8025   21.6326 C   0  0  0  0  0  0  0  0  0  0  0  0
    6.5205  -14.0367   20.6558 C   0  0  0  0  0  0  0  0  0  0  0  0
    7.1446  -12.9148   20.1693 C   0  0  0  0  0  0  0  0  0  0  0  0
    8.3800  -12.5723   20.6720 C   0  0  0  0  0  0  0  0  0  0  0  0
    8.9786  -13.3414   21.6456 C   0  0  0  0  0  0  0  0  0  0  0  0
   10.8448  -16.8409   23.8245 C   0  0  0  0  0  0  0  0  0  0  0  0
   11.5168  -16.1848   24.8397 O   0  0  0  0  0  0  0  0  0  0  0  0
   10.8018  -18.0952   23.8515 O   0  0  0  0  0  0  0  0  0  0  0  0
  2  1  1  0
  3  2  1  0
  3  4  1  1
  5  6  1  6
  5  3  1  0
  7  5  1  0
  8  7  2  0
 10  9  1  6
 10 11  1  0
 12 10  1  0
 12 13  1  6
 13  7  1  0
 14 15  2  0
 14 12  1  0
 16 14  1  0
 17 25  1  0
 17 16  1  0
 17 18  1  1
 18 19  1  0
 19 20  2  0
 19 24  1  0
 20 21  1  0
 21 22  2  0
 23 22  1  0
 24 23  2  0
 25 26  1  0
 27 25  2  0
M  END
$$$$
