ITF.pdb
     RDKit          3D

 27 27  0  0  1  0  0  0  0  0999 V2000
    7.7260  -11.9227   20.3618 C   0  0  0  0  0  0  0  0  0  0  0  0
    7.7222  -13.4132   20.1893 C   0  0  0  0  0  0  0  0  0  0  0  0
    9.0645  -13.9177   19.6307 C   0  0  2  0  0  0  0  0  0  0  0  0
    9.3476  -13.2818   18.3084 C   0  0  0  0  0  0  0  0  0  0  0  0
    9.0063  -15.4430   19.5208 C   0  0  2  0  0  0  0  0  0  0  0  0
    7.8296  -15.6726   18.6484 N   0  0  0  0  0  0  0  0  0  0  0  0
    8.7085  -16.1034   20.7956 C   0  0  0  0  0  0  0  0  0  0  0  0
    7.8294  -17.0084   20.8431 O   0  0  0  0  0  0  0  0  0  0  0  0
    8.7056  -18.5923   21.6914 C   0  0  0  0  0  0  0  0  0  0  0  0
    9.5176  -18.0729   22.8435 C   0  0  1  0  0  0  0  0  0  0  0  0
   10.8736  -18.0973   22.6069 O   0  0  0  0  0  0  0  0  0  0  0  0
    9.1163  -16.6317   23.2110 C   0  0  2  0  0  0  0  0  0  0  0  0
    9.3348  -15.8265   22.0525 N   0  0  0  0  0  0  0  0  0  0  0  0
    9.7725  -16.2006   24.4435 C   0  0  0  0  0  0  0  0  0  0  0  0
   10.9834  -15.7805   24.3983 O   0  0  0  0  0  0  0  0  0  0  0  0
    9.2056  -16.1893   25.7448 N   0  0  0  0  0  0  0  0  0  0  0  0
    9.8595  -15.5393   26.8924 C   0  0  1  0  0  0  0  0  0  0  0  0
    8.8460  -14.8740   27.7749 C   0  0  0  0  0  0  0  0  0  0  0  0
    8.0688  -13.8053   27.1108 C   0  0  0  0  0  0  0  0  0  0  0  0
    8.5755  -12.5349   26.9272 C   0  0  0  0  0  0  0  0  0  0  0  0
    7.8575  -11.5332   26.3018 C   0  0  0  0  0  0  0  0  0  0  0  0
    6.5902  -11.7797   25.8350 C   0  0  0  0  0  0  0  0  0  0  0  0
    6.0545  -13.0373   26.0024 C   0  0  0  0  0  0  0  0  0  0  0  0
    6.7774  -14.0299   26.6269 C   0  0  0  0  0  0  0  0  0  0  0  0
   10.6602  -16.5446   27.6067 C   0  0  0  0  0  0  0  0  0  0  0  0
   11.6339  -16.1662   28.5129 O   0  0  0  0  0  0  0  0  0  0  0  0
   10.4753  -17.7701   27.4074 O   0  0  0  0  0  0  0  0  0  0  0  0
  2  1  1  0
  3  2  1  0
  3  4  1  6
  5  6  1  6
  5  3  1  0
  7  5  1  0
  8  7  2  0
 10  9  1  6
 10 11  1  0
 12 10  1  0
 12 13  1  6
 13  7  1  0
 14 15  2  0
 14 12  1  0
 16 14  1  0
 17 25  1  0
 17 16  1  0
 17 18  1  1
 18 19  1  0
 19 20  2  0
 19 24  1  0
 20 21  1  0
 21 22  2  0
 23 22  1  0
 24 23  2  0
 25 26  1  0
 27 25  2  0
M  END
$$$$
