ITF.pdb
     RDKit          3D

 27 27  0  0  1  0  0  0  0  0999 V2000
   12.2497  -20.0950   19.8324 C   0  0  0  0  0  0  0  0  0  0  0  0
   11.2204  -19.1038   19.3746 C   0  0  0  0  0  0  0  0  0  0  0  0
    9.8098  -19.7190   19.3724 C   0  0  2  0  0  0  0  0  0  0  0  0
    9.7540  -20.8843   18.4387 C   0  0  0  0  0  0  0  0  0  0  0  0
    8.8039  -18.6345   18.9799 C   0  0  2  0  0  0  0  0  0  0  0  0
    9.3242  -18.1478   17.6796 N   0  0  0  0  0  0  0  0  0  0  0  0
    8.8148  -17.4811   19.8852 C   0  0  0  0  0  0  0  0  0  0  0  0
    9.5980  -16.5161   19.6626 O   0  0  0  0  0  0  0  0  0  0  0  0
    6.3097  -15.0189   20.4511 C   0  0  0  0  0  0  0  0  0  0  0  0
    6.6571  -15.5001   21.8311 C   0  0  1  0  0  0  0  0  0  0  0  0
    5.7484  -16.4026   22.3363 O   0  0  0  0  0  0  0  0  0  0  0  0
    8.0540  -16.1486   21.8664 C   0  0  2  0  0  0  0  0  0  0  0  0
    7.9957  -17.3165   21.0473 N   0  0  0  0  0  0  0  0  0  0  0  0
    8.5141  -16.3330   23.2411 C   0  0  0  0  0  0  0  0  0  0  0  0
    8.5246  -17.5106   23.7489 O   0  0  0  0  0  0  0  0  0  0  0  0
    8.9727  -15.3198   24.1231 N   0  0  0  0  0  0  0  0  0  0  0  0
    9.2902  -15.5790   25.5370 C   0  0  1  0  0  0  0  0  0  0  0  0
    9.4791  -14.2925   26.2839 C   0  0  0  0  0  0  0  0  0  0  0  0
    8.3466  -13.3487   26.1668 C   0  0  0  0  0  0  0  0  0  0  0  0
    8.1954  -12.5147   25.0779 C   0  0  0  0  0  0  0  0  0  0  0  0
    7.1362  -11.6349   24.9587 C   0  0  0  0  0  0  0  0  0  0  0  0
    6.1824  -11.5644   25.9436 C   0  0  0  0  0  0  0  0  0  0  0  0
    6.3036  -12.3832   27.0442 C   0  0  0  0  0  0  0  0  0  0  0  0
    7.3627  -13.2572   27.1547 C   0  0  0  0  0  0  0  0  0  0  0  0
    8.2263  -16.4165   26.1104 C   0  0  0  0  0  0  0  0  0  0  0  0
    8.4396  -17.1460   27.2657 O   0  0  0  0  0  0  0  0  0  0  0  0
    7.0999  -16.4860   25.5608 O   0  0  0  0  0  0  0  0  0  0  0  0
  2  1  1  0
  3  2  1  0
  3  4  1  6
  5  6  1  6
  5  3  1  0
  7  5  1  0
  8  7  2  0
 10  9  1  6
 10 11  1  0
 12 10  1  0
 12 13  1  1
 13  7  1  0
 14 15  2  0
 14 12  1  0
 16 14  1  0
 17 25  1  0
 17 16  1  0
 17 18  1  1
 18 19  1  0
 19 20  2  0
 19 24  1  0
 20 21  1  0
 21 22  2  0
 23 22  1  0
 24 23  2  0
 25 26  1  0
 27 25  2  0
M  END
$$$$
