ITF.pdb
     RDKit          3D

 27 27  0  0  1  0  0  0  0  0999 V2000
    8.2608  -11.4086   26.8683 C   0  0  0  0  0  0  0  0  0  0  0  0
    7.5658  -12.7090   26.5901 C   0  0  0  0  0  0  0  0  0  0  0  0
    6.6721  -12.6126   25.3410 C   0  0  2  0  0  0  0  0  0  0  0  0
    5.6197  -11.5698   25.5359 C   0  0  0  0  0  0  0  0  0  0  0  0
    6.0583  -13.9882   25.0714 C   0  0  2  0  0  0  0  0  0  0  0  0
    5.4932  -14.3684   26.3884 N   0  0  0  0  0  0  0  0  0  0  0  0
    7.0553  -15.0112   24.7405 C   0  0  0  0  0  0  0  0  0  0  0  0
    7.4165  -15.8427   25.6194 O   0  0  0  0  0  0  0  0  0  0  0  0
    7.4688  -16.6614   21.0959 C   0  0  0  0  0  0  0  0  0  0  0  0
    8.8040  -16.3663   21.7178 C   0  0  1  0  0  0  0  0  0  0  0  0
    9.4118  -15.2477   21.1937 O   0  0  0  0  0  0  0  0  0  0  0  0
    8.6869  -16.1837   23.2430 C   0  0  2  0  0  0  0  0  0  0  0  0
    7.6938  -15.1837   23.4713 N   0  0  0  0  0  0  0  0  0  0  0  0
    9.9977  -15.9575   23.8482 C   0  0  0  0  0  0  0  0  0  0  0  0
   10.4900  -14.7734   23.8594 O   0  0  0  0  0  0  0  0  0  0  0  0
   10.8301  -16.9348   24.4538 N   0  0  0  0  0  0  0  0  0  0  0  0
   12.1420  -16.6114   25.0384 C   0  0  1  0  0  0  0  0  0  0  0  0
   12.1692  -16.9444   26.5001 C   0  0  0  0  0  0  0  0  0  0  0  0
   11.1849  -16.1977   27.3130 C   0  0  0  0  0  0  0  0  0  0  0  0
   11.4246  -14.9144   27.7602 C   0  0  0  0  0  0  0  0  0  0  0  0
   10.5068  -14.2083   28.5146 C   0  0  0  0  0  0  0  0  0  0  0  0
    9.3028  -14.7773   28.8482 C   0  0  0  0  0  0  0  0  0  0  0  0
    9.0320  -16.0571   28.4180 C   0  0  0  0  0  0  0  0  0  0  0  0
    9.9526  -16.7536   27.6663 C   0  0  0  0  0  0  0  0  0  0  0  0
   13.1817  -17.3187   24.2763 C   0  0  0  0  0  0  0  0  0  0  0  0
   14.5232  -17.0740   24.5063 O   0  0  0  0  0  0  0  0  0  0  0  0
   12.8713  -18.1613   23.3992 O   0  0  0  0  0  0  0  0  0  0  0  0
  2  1  1  0
  3  2  1  0
  3  4  1  1
  5  6  1  1
  5  3  1  0
  7  5  1  0
  8  7  2  0
 10  9  1  6
 10 11  1  0
 12 10  1  0
 12 13  1  6
 13  7  1  0
 14 15  2  0
 14 12  1  0
 16 14  1  0
 17 25  1  0
 17 16  1  0
 17 18  1  1
 18 19  1  0
 19 20  2  0
 19 24  1  0
 20 21  1  0
 21 22  2  0
 23 22  1  0
 24 23  2  0
 25 26  1  0
 27 25  2  0
M  END
$$$$
