WRD.pdb
     RDKit          3D

 34 35  0  0  1  0  0  0  0  0999 V2000
   28.5037  -21.1267  -16.2750 N   0  0  0  0  0  0  0  0  0  0  0  0
   27.6611  -20.1798  -15.6032 C   0  0  1  0  0  0  0  0  0  0  0  0
   26.7998  -19.4226  -16.5847 C   0  0  0  0  0  0  0  0  0  0  0  0
   27.5630  -18.2384  -17.0442 C   0  0  0  0  0  0  0  0  0  0  0  0
   28.2796  -18.1621  -18.2260 C   0  0  0  0  0  0  0  0  0  0  0  0
   28.8338  -16.9600  -18.3103 N   0  0  0  0  0  0  0  0  0  0  0  0
   28.4938  -16.2585  -17.2142 C   0  0  0  0  0  0  0  0  0  0  0  0
   28.7901  -14.9759  -16.7947 C   0  0  0  0  0  0  0  0  0  0  0  0
   28.3105  -14.4819  -15.6080 C   0  0  0  0  0  0  0  0  0  0  0  0
   27.5109  -15.2574  -14.7901 C   0  0  0  0  0  0  0  0  0  0  0  0
   27.2097  -16.5378  -15.1996 C   0  0  0  0  0  0  0  0  0  0  0  0
   27.6971  -17.0280  -16.3971 C   0  0  0  0  0  0  0  0  0  0  0  0
   26.8171  -20.8714  -14.5848 C   0  0  0  0  0  0  0  0  0  0  0  0
   26.3229  -21.9865  -14.9071 O   0  0  0  0  0  0  0  0  0  0  0  0
   23.5680  -20.7642   -7.0535 N   0  0  0  0  0  0  0  0  0  0  0  0
   22.4400  -21.0457   -7.8873 C   0  0  0  0  0  0  0  0  0  0  0  0
   21.2727  -20.7773   -7.3988 N   0  0  0  0  0  0  0  0  0  0  0  0
   22.6620  -21.5884   -9.1678 N   0  0  0  0  0  0  0  0  0  0  0  0
   24.0243  -21.5691   -9.6889 C   0  0  0  0  0  0  0  0  0  0  0  0
   24.2277  -20.2612  -10.4099 C   0  0  0  0  0  0  0  0  0  0  0  0
   25.5450  -20.2158  -11.1068 C   0  0  0  0  0  0  0  0  0  0  0  0
   25.4581  -20.7227  -12.5110 C   0  0  2  0  0  0  0  0  0  0  0  0
   26.5739  -20.3114  -13.3095 N   0  0  0  0  0  0  0  0  0  0  0  0
   24.1622  -20.3385  -13.1433 C   0  0  0  0  0  0  0  0  0  0  0  0
   23.8838  -19.1242  -13.2448 O   0  0  0  0  0  0  0  0  0  0  0  0
   20.4140  -20.8964   -7.9762 N   0  0  0  0  0  0  0  0  0  0  0  0
   23.2444  -21.2947  -13.6283 C   0  0  1  0  0  0  0  0  0  0  0  0
   21.9550  -20.9056  -14.1535 C   0  0  0  0  0  0  0  0  0  0  0  0
   21.6768  -21.7700  -15.3774 C   0  0  0  0  0  0  0  0  0  0  0  0
   20.7913  -21.0229  -16.3016 O   0  0  0  0  0  0  0  0  0  0  0  0
   20.4170  -19.8650  -15.9884 C   0  0  0  0  0  0  0  0  0  0  0  0
   20.8877  -21.1576  -13.1392 O   0  0  0  0  0  0  0  0  0  0  0  0
   19.7426  -20.3668  -13.1265 O   0  0  0  0  0  0  0  0  0  0  0  0
   20.3413  -21.5311  -17.5131 O   0  0  0  0  0  0  0  0  0  0  0  0
  2  1  1  6
  3  2  1  0
  4  3  1  0
  5  4  2  0
  6  5  1  0
  7  6  1  0
  7 12  2  0
  8  7  1  0
  9  8  2  0
  9 10  1  0
 10 11  2  0
 11 12  1  0
 12  4  1  0
 13 14  2  0
 13  2  1  0
 16 15  1  0
 16 18  1  0
 17 16  2  0
 18 19  1  0
 19 20  1  0
 20 21  1  0
 22 21  1  1
 22 24  1  0
 22 23  1  0
 23 13  1  0
 24 25  2  0
 26 27  1  0
 26 24  1  0
 27 28  1  6
 28 29  1  0
 29 33  1  0
 30 29  2  0
 31 27  1  0
 32 31  1  0
 34 31  2  0
M  END
$$$$
