WRD.pdb
     RDKit          3D

 34 35  0  0  1  0  0  0  0  0999 V2000
   24.4758  -20.1333   -9.7831 N   0  0  0  0  0  0  0  0  0  0  0  0
   25.8512  -20.2225  -10.1811 C   0  0  1  0  0  0  0  0  0  0  0  0
   26.5951  -21.2399   -9.3505 C   0  0  0  0  0  0  0  0  0  0  0  0
   26.9160  -20.6174   -8.0445 C   0  0  0  0  0  0  0  0  0  0  0  0
   26.0784  -19.7716   -7.3381 C   0  0  0  0  0  0  0  0  0  0  0  0
   26.6889  -19.4062   -6.2186 N   0  0  0  0  0  0  0  0  0  0  0  0
   27.8982  -19.9938   -6.1839 C   0  0  0  0  0  0  0  0  0  0  0  0
   28.9291  -19.9603   -5.2646 C   0  0  0  0  0  0  0  0  0  0  0  0
   30.0897  -20.6640   -5.4642 C   0  0  0  0  0  0  0  0  0  0  0  0
   30.2647  -21.4335   -6.5986 C   0  0  0  0  0  0  0  0  0  0  0  0
   29.2425  -21.4737   -7.5214 C   0  0  0  0  0  0  0  0  0  0  0  0
   28.0759  -20.7613   -7.3126 C   0  0  0  0  0  0  0  0  0  0  0  0
   25.9477  -20.5546  -11.6331 C   0  0  0  0  0  0  0  0  0  0  0  0
   24.9432  -21.0992  -12.1677 O   0  0  0  0  0  0  0  0  0  0  0  0
   30.7874  -23.1656  -15.4604 N   0  0  0  0  0  0  0  0  0  0  0  0
   30.4884  -22.9866  -16.8480 C   0  0  0  0  0  0  0  0  0  0  0  0
   30.5238  -24.0436  -17.5929 N   0  0  0  0  0  0  0  0  0  0  0  0
   30.1781  -21.6941  -17.3134 N   0  0  0  0  0  0  0  0  0  0  0  0
   30.0292  -20.6317  -16.3250 C   0  0  0  0  0  0  0  0  0  0  0  0
   28.6157  -20.6765  -15.8038 C   0  0  0  0  0  0  0  0  0  0  0  0
   28.5663  -20.4714  -14.3278 C   0  0  0  0  0  0  0  0  0  0  0  0
   27.1707  -20.5412  -13.7950 C   0  0  2  0  0  0  0  0  0  0  0  0
   27.1099  -20.2760  -12.3887 N   0  0  0  0  0  0  0  0  0  0  0  0
   26.5293  -21.8452  -14.1337 C   0  0  0  0  0  0  0  0  0  0  0  0
   26.5631  -22.7651  -13.2882 O   0  0  0  0  0  0  0  0  0  0  0  0
   30.4631  -23.9660  -18.6298 N   0  0  0  0  0  0  0  0  0  0  0  0
   25.8887  -22.0744  -15.3703 C   0  0  1  0  0  0  0  0  0  0  0  0
   24.7746  -22.9883  -15.4859 C   0  0  0  0  0  0  0  0  0  0  0  0
   23.6792  -22.4995  -14.5458 C   0  0  0  0  0  0  0  0  0  0  0  0
   22.5615  -23.4727  -14.5640 O   0  0  0  0  0  0  0  0  0  0  0  0
   22.6494  -24.4922  -15.2933 C   0  0  0  0  0  0  0  0  0  0  0  0
   24.2435  -22.9800  -16.8821 O   0  0  0  0  0  0  0  0  0  0  0  0
   24.3836  -24.1088  -17.6839 O   0  0  0  0  0  0  0  0  0  0  0  0
   21.4028  -23.3258  -13.8127 O   0  0  0  0  0  0  0  0  0  0  0  0
  2  1  1  1
  3  2  1  0
  4  3  1  0
  5  4  2  0
  6  5  1  0
  7  6  1  0
  7 12  2  0
  8  7  1  0
  9  8  2  0
  9 10  1  0
 10 11  2  0
 11 12  1  0
 12  4  1  0
 13 14  2  0
 13  2  1  0
 16 15  1  0
 16 18  1  0
 17 16  2  0
 18 19  1  0
 19 20  1  0
 20 21  1  0
 22 21  1  1
 22 24  1  0
 22 23  1  0
 23 13  1  0
 24 25  2  0
 26 27  1  0
 26 24  1  0
 27 28  1  6
 28 29  1  0
 29 33  1  0
 30 29  2  0
 31 27  1  0
 32 31  1  0
 34 31  2  0
M  END
$$$$
