WRD.pdb
     RDKit          3D

 34 35  0  0  1  0  0  0  0  0999 V2000
   28.3075  -20.5128  -10.4969 N   0  0  0  0  0  0  0  0  0  0  0  0
   27.0712  -20.9429   -9.9101 C   0  0  1  0  0  0  0  0  0  0  0  0
   26.8781  -20.3398   -8.5399 C   0  0  0  0  0  0  0  0  0  0  0  0
   28.1697  -20.4219   -7.8180 C   0  0  0  0  0  0  0  0  0  0  0  0
   29.3173  -21.0237   -8.3047 C   0  0  0  0  0  0  0  0  0  0  0  0
   30.2757  -20.9098   -7.3949 N   0  0  0  0  0  0  0  0  0  0  0  0
   29.7770  -20.2506   -6.3339 C   0  0  0  0  0  0  0  0  0  0  0  0
   30.3289  -19.8654   -5.1273 C   0  0  0  0  0  0  0  0  0  0  0  0
   29.5946  -19.1865   -4.1881 C   0  0  0  0  0  0  0  0  0  0  0  0
   28.2711  -18.8648   -4.4217 C   0  0  0  0  0  0  0  0  0  0  0  0
   27.7114  -19.2444   -5.6219 C   0  0  0  0  0  0  0  0  0  0  0  0
   28.4586  -19.9284   -6.5631 C   0  0  0  0  0  0  0  0  0  0  0  0
   25.9274  -20.5971  -10.8046 C   0  0  0  0  0  0  0  0  0  0  0  0
   25.8237  -19.3936  -11.1683 O   0  0  0  0  0  0  0  0  0  0  0  0
   25.2340  -25.8886  -15.4528 N   0  0  0  0  0  0  0  0  0  0  0  0
   25.8936  -24.7344  -15.9816 C   0  0  0  0  0  0  0  0  0  0  0  0
   27.1395  -24.8706  -16.3016 N   0  0  0  0  0  0  0  0  0  0  0  0
   25.1614  -23.5394  -16.1207 N   0  0  0  0  0  0  0  0  0  0  0  0
   23.8043  -23.5060  -15.5871 C   0  0  0  0  0  0  0  0  0  0  0  0
   23.6937  -22.3134  -14.6721 C   0  0  0  0  0  0  0  0  0  0  0  0
   24.3512  -22.5649  -13.3578 C   0  0  0  0  0  0  0  0  0  0  0  0
   24.2308  -21.3952  -12.4339 C   0  0  2  0  0  0  0  0  0  0  0  0
   24.9929  -21.5677  -11.2333 N   0  0  0  0  0  0  0  0  0  0  0  0
   22.8012  -21.0897  -12.1348 C   0  0  0  0  0  0  0  0  0  0  0  0
   22.2126  -21.7730  -11.2694 O   0  0  0  0  0  0  0  0  0  0  0  0
   27.6650  -24.0857  -16.7406 N   0  0  0  0  0  0  0  0  0  0  0  0
   22.0941  -20.0604  -12.7926 C   0  0  2  0  0  0  0  0  0  0  0  0
   20.6901  -19.8271  -12.5389 C   0  0  0  0  0  0  0  0  0  0  0  0
   20.1858  -18.8572  -13.6007 C   0  0  0  0  0  0  0  0  0  0  0  0
   18.7969  -18.4611  -13.2682 O   0  0  0  0  0  0  0  0  0  0  0  0
   18.2634  -18.9168  -12.2257 C   0  0  0  0  0  0  0  0  0  0  0  0
   19.9254  -21.1047  -12.6585 O   0  0  0  0  0  0  0  0  0  0  0  0
   20.1693  -21.9614  -13.7278 O   0  0  0  0  0  0  0  0  0  0  0  0
   18.0347  -17.6031  -14.0501 O   0  0  0  0  0  0  0  0  0  0  0  0
  2  1  1  6
  3  2  1  0
  4  3  1  0
  5  4  2  0
  6  5  1  0
  7  6  1  0
  7 12  2  0
  8  7  1  0
  9  8  2  0
  9 10  1  0
 10 11  2  0
 11 12  1  0
 12  4  1  0
 13 14  2  0
 13  2  1  0
 16 15  1  0
 16 18  1  0
 17 16  2  0
 18 19  1  0
 19 20  1  0
 20 21  1  0
 22 21  1  6
 22 24  1  0
 22 23  1  0
 23 13  1  0
 24 25  2  0
 26 27  1  0
 26 24  1  0
 27 28  1  6
 28 29  1  0
 29 33  1  0
 30 29  2  0
 31 27  1  0
 32 31  1  0
 34 31  2  0
M  END
$$$$
