WRD.pdb
     RDKit          3D

 34 35  0  0  1  0  0  0  0  0999 V2000
   24.4369  -21.1485  -15.7193 N   0  0  0  0  0  0  0  0  0  0  0  0
   23.3112  -20.2600  -15.6840 C   0  0  1  0  0  0  0  0  0  0  0  0
   22.5316  -20.3148  -16.9754 C   0  0  0  0  0  0  0  0  0  0  0  0
   23.3265  -19.6256  -18.0190 C   0  0  0  0  0  0  0  0  0  0  0  0
   24.0557  -20.2570  -19.0117 C   0  0  0  0  0  0  0  0  0  0  0  0
   24.6385  -19.3332  -19.7641 N   0  0  0  0  0  0  0  0  0  0  0  0
   24.3047  -18.1223  -19.2833 C   0  0  0  0  0  0  0  0  0  0  0  0
   24.6268  -16.8376  -19.6769 C   0  0  0  0  0  0  0  0  0  0  0  0
   24.1478  -15.7415  -19.0050 C   0  0  0  0  0  0  0  0  0  0  0  0
   23.3227  -15.8896  -17.9064 C   0  0  0  0  0  0  0  0  0  0  0  0
   22.9957  -17.1665  -17.5060 C   0  0  0  0  0  0  0  0  0  0  0  0
   23.4827  -18.2659  -18.1887 C   0  0  0  0  0  0  0  0  0  0  0  0
   22.4321  -20.5866  -14.5228 C   0  0  0  0  0  0  0  0  0  0  0  0
   22.1652  -21.8039  -14.3265 O   0  0  0  0  0  0  0  0  0  0  0  0
   21.8311  -21.9537   -8.5780 N   0  0  0  0  0  0  0  0  0  0  0  0
   20.4741  -21.7475   -8.1744 C   0  0  0  0  0  0  0  0  0  0  0  0
   19.8833  -22.7380   -7.5887 N   0  0  0  0  0  0  0  0  0  0  0  0
   19.8719  -20.5009   -8.4330 N   0  0  0  0  0  0  0  0  0  0  0  0
   19.7483  -20.0797   -9.8241 C   0  0  0  0  0  0  0  0  0  0  0  0
   20.9907  -19.3080  -10.1883 C   0  0  0  0  0  0  0  0  0  0  0  0
   20.9319  -18.7987  -11.5884 C   0  0  0  0  0  0  0  0  0  0  0  0
   21.0248  -19.9016  -12.5941 C   0  0  2  0  0  0  0  0  0  0  0  0
   21.9137  -19.5838  -13.6714 N   0  0  0  0  0  0  0  0  0  0  0  0
   19.6738  -20.2883  -13.0961 C   0  0  0  0  0  0  0  0  0  0  0  0
   19.0004  -19.4368  -13.7156 O   0  0  0  0  0  0  0  0  0  0  0  0
   18.8627  -22.7029   -7.3835 N   0  0  0  0  0  0  0  0  0  0  0  0
   19.1328  -21.5765  -12.8961 C   0  0  2  0  0  0  0  0  0  0  0  0
   17.8109  -21.9222  -13.3682 C   0  0  0  0  0  0  0  0  0  0  0  0
   17.6607  -23.4340  -13.2491 C   0  0  0  0  0  0  0  0  0  0  0  0
   17.2843  -23.9848  -14.5726 O   0  0  0  0  0  0  0  0  0  0  0  0
   17.1599  -23.2026  -15.5481 C   0  0  0  0  0  0  0  0  0  0  0  0
   16.7720  -21.2711  -12.5148 O   0  0  0  0  0  0  0  0  0  0  0  0
   15.5274  -20.9597  -13.0539 O   0  0  0  0  0  0  0  0  0  0  0  0
   17.0564  -25.3346  -14.8063 O   0  0  0  0  0  0  0  0  0  0  0  0
  2  1  1  6
  3  2  1  0
  4  3  1  0
  5  4  2  0
  6  5  1  0
  7  6  1  0
  7 12  2  0
  8  7  1  0
  9  8  2  0
  9 10  1  0
 10 11  2  0
 11 12  1  0
 12  4  1  0
 13 14  2  0
 13  2  1  0
 16 15  1  0
 16 18  1  0
 17 16  2  0
 18 19  1  0
 19 20  1  0
 20 21  1  0
 22 21  1  1
 22 24  1  0
 22 23  1  0
 23 13  1  0
 24 25  2  0
 26 27  1  0
 26 24  1  0
 27 28  1  6
 28 29  1  0
 29 33  1  0
 30 29  2  0
 31 27  1  0
 32 31  1  0
 34 31  2  0
M  END
$$$$
