WRD.pdb
     RDKit          3D

 34 35  0  0  1  0  0  0  0  0999 V2000
   25.0782  -17.3455  -20.1364 N   0  0  0  0  0  0  0  0  0  0  0  0
   25.2207  -17.1868  -18.7178 C   0  0  1  0  0  0  0  0  0  0  0  0
   24.8472  -15.7900  -18.2843 C   0  0  0  0  0  0  0  0  0  0  0  0
   25.6388  -14.8332  -19.0929 C   0  0  0  0  0  0  0  0  0  0  0  0
   25.1218  -13.7374  -19.7622 C   0  0  0  0  0  0  0  0  0  0  0  0
   26.1137  -13.1091  -20.3791 N   0  0  0  0  0  0  0  0  0  0  0  0
   27.2572  -13.7704  -20.1257 C   0  0  0  0  0  0  0  0  0  0  0  0
   28.5668  -13.5572  -20.5111 C   0  0  0  0  0  0  0  0  0  0  0  0
   29.5765  -14.3952  -20.1106 C   0  0  0  0  0  0  0  0  0  0  0  0
   29.3131  -15.4857  -19.3038 C   0  0  0  0  0  0  0  0  0  0  0  0
   28.0104  -15.7069  -18.9140 C   0  0  0  0  0  0  0  0  0  0  0  0
   26.9985  -14.8574  -19.3221 C   0  0  0  0  0  0  0  0  0  0  0  0
   24.3941  -18.2009  -17.9994 C   0  0  0  0  0  0  0  0  0  0  0  0
   23.3018  -18.5372  -18.5336 O   0  0  0  0  0  0  0  0  0  0  0  0
   25.8074  -25.7492  -15.8959 N   0  0  0  0  0  0  0  0  0  0  0  0
   26.7053  -25.0602  -16.7712 C   0  0  0  0  0  0  0  0  0  0  0  0
   27.4719  -25.7917  -17.5131 N   0  0  0  0  0  0  0  0  0  0  0  0
   26.7019  -23.6519  -16.7743 N   0  0  0  0  0  0  0  0  0  0  0  0
   25.7214  -22.9712  -15.9358 C   0  0  0  0  0  0  0  0  0  0  0  0
   25.8962  -21.4865  -16.1280 C   0  0  0  0  0  0  0  0  0  0  0  0
   24.9261  -20.7071  -15.3066 C   0  0  0  0  0  0  0  0  0  0  0  0
   24.0622  -19.8199  -16.1450 C   0  0  2  0  0  0  0  0  0  0  0  0
   24.8061  -18.7682  -16.7715 N   0  0  0  0  0  0  0  0  0  0  0  0
   22.9151  -19.2830  -15.3560 C   0  0  0  0  0  0  0  0  0  0  0  0
   23.1564  -18.6560  -14.3020 O   0  0  0  0  0  0  0  0  0  0  0  0
   28.2194  -25.3588  -18.0952 N   0  0  0  0  0  0  0  0  0  0  0  0
   21.5733  -19.4583  -15.7571 C   0  0  2  0  0  0  0  0  0  0  0  0
   20.4818  -18.8524  -15.0282 C   0  0  0  0  0  0  0  0  0  0  0  0
   19.2895  -18.7657  -15.9734 C   0  0  0  0  0  0  0  0  0  0  0  0
   19.0268  -20.1101  -16.5394 O   0  0  0  0  0  0  0  0  0  0  0  0
   18.2157  -20.8721  -15.9558 C   0  0  0  0  0  0  0  0  0  0  0  0
   20.1043  -19.7057  -13.8616 O   0  0  0  0  0  0  0  0  0  0  0  0
   20.7697  -20.9073  -13.6373 O   0  0  0  0  0  0  0  0  0  0  0  0
   19.6314  -20.5889  -17.6943 O   0  0  0  0  0  0  0  0  0  0  0  0
  2  1  1  6
  3  2  1  0
  4  3  1  0
  5  4  2  0
  6  5  1  0
  7  6  1  0
  7 12  2  0
  8  7  1  0
  9  8  2  0
  9 10  1  0
 10 11  2  0
 11 12  1  0
 12  4  1  0
 13 14  2  0
 13  2  1  0
 16 15  1  0
 16 18  1  0
 17 16  2  0
 18 19  1  0
 19 20  1  0
 20 21  1  0
 22 21  1  1
 22 24  1  0
 22 23  1  0
 23 13  1  0
 24 25  2  0
 26 27  1  0
 26 24  1  0
 27 28  1  6
 28 29  1  0
 29 33  1  0
 30 29  2  0
 31 27  1  0
 32 31  1  0
 34 31  2  0
M  END
$$$$
