WRD.pdb
     RDKit          3D

 34 35  0  0  1  0  0  0  0  0999 V2000
   27.1760  -21.8522  -13.4182 N   0  0  0  0  0  0  0  0  0  0  0  0
   26.0641  -21.4276  -12.6174 C   0  0  1  0  0  0  0  0  0  0  0  0
   26.4038  -20.1892  -11.8241 C   0  0  0  0  0  0  0  0  0  0  0  0
   27.4881  -20.5367  -10.8758 C   0  0  0  0  0  0  0  0  0  0  0  0
   28.7983  -20.8095  -11.2292 C   0  0  0  0  0  0  0  0  0  0  0  0
   29.4880  -21.0800  -10.1290 N   0  0  0  0  0  0  0  0  0  0  0  0
   28.6576  -20.9889   -9.0749 C   0  0  0  0  0  0  0  0  0  0  0  0
   28.8451  -21.1668   -7.7176 C   0  0  0  0  0  0  0  0  0  0  0  0
   27.8138  -21.0127   -6.8261 C   0  0  0  0  0  0  0  0  0  0  0  0
   26.5470  -20.6724   -7.2610 C   0  0  0  0  0  0  0  0  0  0  0  0
   26.3498  -20.4928   -8.6126 C   0  0  0  0  0  0  0  0  0  0  0  0
   27.3947  -20.6500   -9.5046 C   0  0  0  0  0  0  0  0  0  0  0  0
   24.8683  -21.1909  -13.4788 C   0  0  0  0  0  0  0  0  0  0  0  0
   24.8562  -20.1360  -14.1706 O   0  0  0  0  0  0  0  0  0  0  0  0
   23.6776  -27.2081  -14.6484 N   0  0  0  0  0  0  0  0  0  0  0  0
   22.2994  -27.3732  -14.3018 C   0  0  0  0  0  0  0  0  0  0  0  0
   22.0218  -28.2971  -13.4401 N   0  0  0  0  0  0  0  0  0  0  0  0
   21.3430  -26.5355  -14.9076 N   0  0  0  0  0  0  0  0  0  0  0  0
   21.8254  -25.3746  -15.6475 C   0  0  0  0  0  0  0  0  0  0  0  0
   22.0939  -24.2707  -14.6570 C   0  0  0  0  0  0  0  0  0  0  0  0
   22.4289  -22.9881  -15.3394 C   0  0  0  0  0  0  0  0  0  0  0  0
   22.6516  -21.8735  -14.3676 C   0  0  2  0  0  0  0  0  0  0  0  0
   23.7883  -22.1022  -13.5265 N   0  0  0  0  0  0  0  0  0  0  0  0
   21.4227  -21.6050  -13.5647 C   0  0  0  0  0  0  0  0  0  0  0  0
   21.3163  -22.1376  -12.4390 O   0  0  0  0  0  0  0  0  0  0  0  0
   21.0348  -28.4970  -13.1737 N   0  0  0  0  0  0  0  0  0  0  0  0
   20.3813  -20.7742  -14.0309 C   0  0  1  0  0  0  0  0  0  0  0  0
   19.2116  -20.5052  -13.2251 C   0  0  0  0  0  0  0  0  0  0  0  0
   18.5522  -19.2470  -13.7771 C   0  0  0  0  0  0  0  0  0  0  0  0
   19.2391  -18.0595  -13.2161 O   0  0  0  0  0  0  0  0  0  0  0  0
   20.1301  -18.2224  -12.3451 C   0  0  0  0  0  0  0  0  0  0  0  0
   18.2420  -21.6367  -13.3297 O   0  0  0  0  0  0  0  0  0  0  0  0
   17.3466  -21.8807  -12.2926 O   0  0  0  0  0  0  0  0  0  0  0  0
   18.9548  -16.7553  -13.5993 O   0  0  0  0  0  0  0  0  0  0  0  0
  2  1  1  6
  3  2  1  0
  4  3  1  0
  5  4  2  0
  6  5  1  0
  7  6  1  0
  7 12  2  0
  8  7  1  0
  9  8  2  0
  9 10  1  0
 10 11  2  0
 11 12  1  0
 12  4  1  0
 13 14  2  0
 13  2  1  0
 16 15  1  0
 16 18  1  0
 17 16  2  0
 18 19  1  0
 19 20  1  0
 20 21  1  0
 22 21  1  1
 22 24  1  0
 22 23  1  0
 23 13  1  0
 24 25  2  0
 26 27  1  0
 26 24  1  0
 27 28  1  6
 28 29  1  0
 29 33  1  0
 30 29  2  0
 31 27  1  0
 32 31  1  0
 34 31  2  0
M  END
$$$$
