WRD.pdb
     RDKit          3D

 34 35  0  0  1  0  0  0  0  0999 V2000
   25.6651  -17.6162  -18.0737 N   0  0  0  0  0  0  0  0  0  0  0  0
   25.1738  -17.1582  -16.8061 C   0  0  1  0  0  0  0  0  0  0  0  0
   24.3926  -15.8752  -16.9544 C   0  0  0  0  0  0  0  0  0  0  0  0
   25.3431  -14.8018  -17.3290 C   0  0  0  0  0  0  0  0  0  0  0  0
   25.3514  -14.1323  -18.5405 C   0  0  0  0  0  0  0  0  0  0  0  0
   26.3343  -13.2418  -18.5275 N   0  0  0  0  0  0  0  0  0  0  0  0
   26.9606  -13.3189  -17.3397 C   0  0  0  0  0  0  0  0  0  0  0  0
   28.0329  -12.6343  -16.8008 C   0  0  0  0  0  0  0  0  0  0  0  0
   28.4931  -12.9048  -15.5370 C   0  0  0  0  0  0  0  0  0  0  0  0
   27.8942  -13.8770  -14.7587 C   0  0  0  0  0  0  0  0  0  0  0  0
   26.8242  -14.5653  -15.2869 C   0  0  0  0  0  0  0  0  0  0  0  0
   26.3666  -14.2865  -16.5617 C   0  0  0  0  0  0  0  0  0  0  0  0
   24.3366  -18.2145  -16.1649 C   0  0  0  0  0  0  0  0  0  0  0  0
   23.7021  -18.9908  -16.9306 O   0  0  0  0  0  0  0  0  0  0  0  0
   25.3023  -24.5537  -12.9147 N   0  0  0  0  0  0  0  0  0  0  0  0
   24.4363  -23.9318  -13.8687 C   0  0  0  0  0  0  0  0  0  0  0  0
   24.1466  -24.6175  -14.9266 N   0  0  0  0  0  0  0  0  0  0  0  0
   23.9581  -22.6336  -13.6051 N   0  0  0  0  0  0  0  0  0  0  0  0
   23.9108  -22.1943  -12.2150 C   0  0  0  0  0  0  0  0  0  0  0  0
   23.2071  -20.8621  -12.1721 C   0  0  0  0  0  0  0  0  0  0  0  0
   24.0209  -19.7888  -12.8114 C   0  0  0  0  0  0  0  0  0  0  0  0
   23.4891  -19.4021  -14.1546 C   0  0  2  0  0  0  0  0  0  0  0  0
   24.2496  -18.3501  -14.7601 N   0  0  0  0  0  0  0  0  0  0  0  0
   22.0394  -19.0561  -14.0810 C   0  0  0  0  0  0  0  0  0  0  0  0
   21.6813  -18.1455  -13.3033 O   0  0  0  0  0  0  0  0  0  0  0  0
   23.5132  -24.2281  -15.6562 N   0  0  0  0  0  0  0  0  0  0  0  0
   21.0634  -19.7189  -14.8557 C   0  0  2  0  0  0  0  0  0  0  0  0
   19.6578  -19.4053  -14.7292 C   0  0  0  0  0  0  0  0  0  0  0  0
   18.9787  -19.8020  -16.0345 C   0  0  0  0  0  0  0  0  0  0  0  0
   17.5611  -19.3721  -15.9880 O   0  0  0  0  0  0  0  0  0  0  0  0
   17.1395  -18.7618  -14.9738 C   0  0  0  0  0  0  0  0  0  0  0  0
   19.0512  -20.1961  -13.6165 O   0  0  0  0  0  0  0  0  0  0  0  0
   18.1514  -19.5895  -12.7452 O   0  0  0  0  0  0  0  0  0  0  0  0
   16.6535  -19.6058  -17.0130 O   0  0  0  0  0  0  0  0  0  0  0  0
  2  1  1  6
  3  2  1  0
  4  3  1  0
  5  4  2  0
  6  5  1  0
  7  6  1  0
  7 12  2  0
  8  7  1  0
  9  8  2  0
  9 10  1  0
 10 11  2  0
 11 12  1  0
 12  4  1  0
 13 14  2  0
 13  2  1  0
 16 15  1  0
 16 18  1  0
 17 16  2  0
 18 19  1  0
 19 20  1  0
 20 21  1  0
 22 21  1  1
 22 24  1  0
 22 23  1  0
 23 13  1  0
 24 25  2  0
 26 27  1  0
 26 24  1  0
 27 28  1  6
 28 29  1  0
 29 33  1  0
 30 29  2  0
 31 27  1  0
 32 31  1  0
 34 31  2  0
M  END
$$$$
