WRD.pdb
     RDKit          3D

 34 35  0  0  1  0  0  0  0  0999 V2000
   23.9954  -16.0282  -18.3202 N   0  0  0  0  0  0  0  0  0  0  0  0
   24.4550  -16.1411  -16.9660 C   0  0  1  0  0  0  0  0  0  0  0  0
   23.9479  -14.9983  -16.1202 C   0  0  0  0  0  0  0  0  0  0  0  0
   24.7131  -13.7834  -16.4869 C   0  0  0  0  0  0  0  0  0  0  0  0
   24.1550  -12.5763  -16.8710 C   0  0  0  0  0  0  0  0  0  0  0  0
   25.1331  -11.7171  -17.1245 N   0  0  0  0  0  0  0  0  0  0  0  0
   26.3077  -12.3377  -16.9142 C   0  0  0  0  0  0  0  0  0  0  0  0
   27.6200  -11.9201  -17.0254 C   0  0  0  0  0  0  0  0  0  0  0  0
   28.6659  -12.7635  -16.7478 C   0  0  0  0  0  0  0  0  0  0  0  0
   28.4374  -14.0657  -16.3455 C   0  0  0  0  0  0  0  0  0  0  0  0
   27.1323  -14.4918  -16.2316 C   0  0  0  0  0  0  0  0  0  0  0  0
   26.0839  -13.6353  -16.5133 C   0  0  0  0  0  0  0  0  0  0  0  0
   24.0374  -17.4518  -16.3868 C   0  0  0  0  0  0  0  0  0  0  0  0
   22.9405  -17.9334  -16.7824 O   0  0  0  0  0  0  0  0  0  0  0  0
   25.5745  -24.6320  -16.2338 N   0  0  0  0  0  0  0  0  0  0  0  0
   24.8965  -24.7741  -14.9820 C   0  0  0  0  0  0  0  0  0  0  0  0
   24.3646  -25.9270  -14.7349 N   0  0  0  0  0  0  0  0  0  0  0  0
   24.8490  -23.6710  -14.1077 N   0  0  0  0  0  0  0  0  0  0  0  0
   25.2576  -22.3711  -14.6282 C   0  0  0  0  0  0  0  0  0  0  0  0
   25.0886  -21.3555  -13.5274 C   0  0  0  0  0  0  0  0  0  0  0  0
   25.4554  -19.9839  -13.9827 C   0  0  0  0  0  0  0  0  0  0  0  0
   24.4199  -19.3936  -14.8857 C   0  0  2  0  0  0  0  0  0  0  0  0
   24.8283  -18.1350  -15.4344 N   0  0  0  0  0  0  0  0  0  0  0  0
   23.1010  -19.2871  -14.1960 C   0  0  0  0  0  0  0  0  0  0  0  0
   23.0258  -18.6027  -13.1528 O   0  0  0  0  0  0  0  0  0  0  0  0
   23.8300  -26.0890  -13.8557 N   0  0  0  0  0  0  0  0  0  0  0  0
   21.9409  -19.9299  -14.6789 C   0  0  1  0  0  0  0  0  0  0  0  0
   20.6713  -19.8082  -13.9984 C   0  0  0  0  0  0  0  0  0  0  0  0
   19.7318  -19.0314  -14.9130 C   0  0  0  0  0  0  0  0  0  0  0  0
   18.5234  -18.6474  -14.1455 O   0  0  0  0  0  0  0  0  0  0  0  0
   18.6174  -18.4677  -12.9054 C   0  0  0  0  0  0  0  0  0  0  0  0
   20.0867  -21.1605  -13.7519 O   0  0  0  0  0  0  0  0  0  0  0  0
   20.7546  -22.2966  -14.1990 O   0  0  0  0  0  0  0  0  0  0  0  0
   17.2719  -18.4707  -14.7209 O   0  0  0  0  0  0  0  0  0  0  0  0
  2  1  1  6
  3  2  1  0
  4  3  1  0
  5  4  2  0
  6  5  1  0
  7  6  1  0
  7 12  2  0
  8  7  1  0
  9  8  2  0
  9 10  1  0
 10 11  2  0
 11 12  1  0
 12  4  1  0
 13 14  2  0
 13  2  1  0
 16 15  1  0
 16 18  1  0
 17 16  2  0
 18 19  1  0
 19 20  1  0
 20 21  1  0
 22 21  1  1
 22 24  1  0
 22 23  1  0
 23 13  1  0
 24 25  2  0
 26 27  1  0
 26 24  1  0
 27 28  1  6
 28 29  1  0
 29 33  1  0
 30 29  2  0
 31 27  1  0
 32 31  1  0
 34 31  2  0
M  END
$$$$
