WRD.pdb
     RDKit          3D

 34 35  0  0  1  0  0  0  0  0999 V2000
   25.7905  -18.5929   -7.9364 N   0  0  0  0  0  0  0  0  0  0  0  0
   26.4238  -19.8041   -8.3721 C   0  0  1  0  0  0  0  0  0  0  0  0
   26.1428  -20.9406   -7.4191 C   0  0  0  0  0  0  0  0  0  0  0  0
   26.7516  -20.6018   -6.1113 C   0  0  0  0  0  0  0  0  0  0  0  0
   26.0656  -20.5137   -4.9123 C   0  0  0  0  0  0  0  0  0  0  0  0
   26.9240  -20.1912   -3.9540 N   0  0  0  0  0  0  0  0  0  0  0  0
   28.1458  -20.0688   -4.5028 C   0  0  0  0  0  0  0  0  0  0  0  0
   29.3825  -19.7539   -3.9732 C   0  0  0  0  0  0  0  0  0  0  0  0
   30.5040  -19.6914   -4.7609 C   0  0  0  0  0  0  0  0  0  0  0  0
   30.4308  -19.9433   -6.1177 C   0  0  0  0  0  0  0  0  0  0  0  0
   29.2022  -20.2582   -6.6555 C   0  0  0  0  0  0  0  0  0  0  0  0
   28.0767  -20.3191   -5.8544 C   0  0  0  0  0  0  0  0  0  0  0  0
   25.9780  -20.1516   -9.7535 C   0  0  0  0  0  0  0  0  0  0  0  0
   24.7691  -19.9338  -10.0408 O   0  0  0  0  0  0  0  0  0  0  0  0
   27.3596  -23.5226  -18.2219 N   0  0  0  0  0  0  0  0  0  0  0  0
   27.1640  -23.0804  -16.8755 C   0  0  0  0  0  0  0  0  0  0  0  0
   27.0291  -23.9984  -15.9743 N   0  0  0  0  0  0  0  0  0  0  0  0
   27.1306  -21.6968  -16.6144 N   0  0  0  0  0  0  0  0  0  0  0  0
   27.7968  -21.2147  -15.4096 C   0  0  0  0  0  0  0  0  0  0  0  0
   27.1448  -21.8752  -14.2220 C   0  0  0  0  0  0  0  0  0  0  0  0
   27.6372  -21.3044  -12.9356 C   0  0  0  0  0  0  0  0  0  0  0  0
   26.5252  -20.7549  -12.1001 C   0  0  2  0  0  0  0  0  0  0  0  0
   26.8630  -20.7021  -10.7091 N   0  0  0  0  0  0  0  0  0  0  0  0
   25.2577  -21.5090  -12.3266 C   0  0  0  0  0  0  0  0  0  0  0  0
   25.1746  -22.6803  -11.8983 O   0  0  0  0  0  0  0  0  0  0  0  0
   26.8531  -23.7455  -14.9792 N   0  0  0  0  0  0  0  0  0  0  0  0
   24.1546  -20.9476  -13.0049 C   0  0  2  0  0  0  0  0  0  0  0  0
   22.9026  -21.6594  -13.1296 C   0  0  0  0  0  0  0  0  0  0  0  0
   21.7786  -20.6591  -12.8877 C   0  0  0  0  0  0  0  0  0  0  0  0
   20.4784  -21.3622  -12.9968 O   0  0  0  0  0  0  0  0  0  0  0  0
   19.8224  -21.2736  -14.0649 C   0  0  0  0  0  0  0  0  0  0  0  0
   22.7594  -22.2130  -14.5096 O   0  0  0  0  0  0  0  0  0  0  0  0
   22.1342  -23.4412  -14.7026 O   0  0  0  0  0  0  0  0  0  0  0  0
   19.9301  -22.1261  -11.9748 O   0  0  0  0  0  0  0  0  0  0  0  0
  2  1  1  1
  3  2  1  0
  4  3  1  0
  5  4  2  0
  6  5  1  0
  7  6  1  0
  7 12  2  0
  8  7  1  0
  9  8  2  0
  9 10  1  0
 10 11  2  0
 11 12  1  0
 12  4  1  0
 13 14  2  0
 13  2  1  0
 16 15  1  0
 16 18  1  0
 17 16  2  0
 18 19  1  0
 19 20  1  0
 20 21  1  0
 22 21  1  6
 22 24  1  0
 22 23  1  0
 23 13  1  0
 24 25  2  0
 26 27  1  0
 26 24  1  0
 27 28  1  6
 28 29  1  0
 29 33  1  0
 30 29  2  0
 31 27  1  0
 32 31  1  0
 34 31  2  0
M  END
$$$$
