WRD.pdb
     RDKit          3D

 34 35  0  0  1  0  0  0  0  0999 V2000
   24.7628  -19.2488   -8.4366 N   0  0  0  0  0  0  0  0  0  0  0  0
   25.8203  -20.0297   -9.0108 C   0  0  1  0  0  0  0  0  0  0  0  0
   26.0360  -21.3086   -8.2385 C   0  0  0  0  0  0  0  0  0  0  0  0
   26.3763  -20.9477   -6.8421 C   0  0  0  0  0  0  0  0  0  0  0  0
   25.4724  -20.8704   -5.7966 C   0  0  0  0  0  0  0  0  0  0  0  0
   26.1246  -20.5213   -4.6956 N   0  0  0  0  0  0  0  0  0  0  0  0
   27.4254  -20.3711   -5.0030 C   0  0  0  0  0  0  0  0  0  0  0  0
   28.5307  -20.0224   -4.2509 C   0  0  0  0  0  0  0  0  0  0  0  0
   29.7799  -19.9359   -4.8113 C   0  0  0  0  0  0  0  0  0  0  0  0
   29.9726  -20.1968   -6.1546 C   0  0  0  0  0  0  0  0  0  0  0  0
   28.8768  -20.5454   -6.9132 C   0  0  0  0  0  0  0  0  0  0  0  0
   27.6211  -20.6303   -6.3405 C   0  0  0  0  0  0  0  0  0  0  0  0
   25.5258  -20.3225  -10.4444 C   0  0  0  0  0  0  0  0  0  0  0  0
   24.3135  -20.4520  -10.7690 O   0  0  0  0  0  0  0  0  0  0  0  0
   29.6727  -21.6870  -15.9383 N   0  0  0  0  0  0  0  0  0  0  0  0
   29.1720  -21.0361  -17.1098 C   0  0  0  0  0  0  0  0  0  0  0  0
   29.2381  -21.6994  -18.2183 N   0  0  0  0  0  0  0  0  0  0  0  0
   28.6455  -19.7354  -16.9899 N   0  0  0  0  0  0  0  0  0  0  0  0
   28.3017  -19.2601  -15.6544 C   0  0  0  0  0  0  0  0  0  0  0  0
   27.2651  -20.1926  -15.0817 C   0  0  0  0  0  0  0  0  0  0  0  0
   27.5187  -20.4793  -13.6407 C   0  0  0  0  0  0  0  0  0  0  0  0
   26.2851  -20.3255  -12.8095 C   0  0  2  0  0  0  0  0  0  0  0  0
   26.5525  -20.4519  -11.4079 N   0  0  0  0  0  0  0  0  0  0  0  0
   25.2173  -21.2703  -13.2497 C   0  0  0  0  0  0  0  0  0  0  0  0
   25.1588  -22.3977  -12.7132 O   0  0  0  0  0  0  0  0  0  0  0  0
   29.0222  -21.2391  -19.1275 N   0  0  0  0  0  0  0  0  0  0  0  0
   24.2757  -20.9362  -14.2466 C   0  0  1  0  0  0  0  0  0  0  0  0
   22.9188  -21.4328  -14.2007 C   0  0  0  0  0  0  0  0  0  0  0  0
   22.4666  -21.4019  -12.7457 C   0  0  0  0  0  0  0  0  0  0  0  0
   21.1102  -21.9917  -12.6519 O   0  0  0  0  0  0  0  0  0  0  0  0
   20.9046  -23.1337  -13.1342 C   0  0  0  0  0  0  0  0  0  0  0  0
   22.0185  -20.5474  -14.9987 O   0  0  0  0  0  0  0  0  0  0  0  0
   21.1254  -21.1056  -15.9084 O   0  0  0  0  0  0  0  0  0  0  0  0
   20.0332  -21.3502  -12.0542 O   0  0  0  0  0  0  0  0  0  0  0  0
  2  1  1  1
  3  2  1  0
  4  3  1  0
  5  4  2  0
  6  5  1  0
  7  6  1  0
  7 12  2  0
  8  7  1  0
  9  8  2  0
  9 10  1  0
 10 11  2  0
 11 12  1  0
 12  4  1  0
 13 14  2  0
 13  2  1  0
 16 15  1  0
 16 18  1  0
 17 16  2  0
 18 19  1  0
 19 20  1  0
 20 21  1  0
 22 21  1  6
 22 24  1  0
 22 23  1  0
 23 13  1  0
 24 25  2  0
 26 27  1  0
 26 24  1  0
 27 28  1  6
 28 29  1  0
 29 33  1  0
 30 29  2  0
 31 27  1  0
 32 31  1  0
 34 31  2  0
M  END
$$$$
