WRD.pdb
     RDKit          3D

 34 35  0  0  1  0  0  0  0  0999 V2000
   29.0103  -20.7812   -9.7374 N   0  0  0  0  0  0  0  0  0  0  0  0
   27.5954  -20.7060   -9.5127 C   0  0  1  0  0  0  0  0  0  0  0  0
   27.2221  -19.4257   -8.8056 C   0  0  0  0  0  0  0  0  0  0  0  0
   28.0128  -19.3468   -7.5548 C   0  0  0  0  0  0  0  0  0  0  0  0
   29.2196  -18.6832   -7.4159 C   0  0  0  0  0  0  0  0  0  0  0  0
   29.6396  -18.8219   -6.1654 N   0  0  0  0  0  0  0  0  0  0  0  0
   28.7359  -19.5575   -5.4938 C   0  0  0  0  0  0  0  0  0  0  0  0
   28.6731  -19.9968   -4.1853 C   0  0  0  0  0  0  0  0  0  0  0  0
   27.6207  -20.7520   -3.7333 C   0  0  0  0  0  0  0  0  0  0  0  0
   26.5840  -21.0990   -4.5785 C   0  0  0  0  0  0  0  0  0  0  0  0
   26.6373  -20.6658   -5.8852 C   0  0  0  0  0  0  0  0  0  0  0  0
   27.7016  -19.9049   -6.3327 C   0  0  0  0  0  0  0  0  0  0  0  0
   26.8603  -20.8280  -10.8060 C   0  0  0  0  0  0  0  0  0  0  0  0
   27.4375  -20.3937  -11.8403 O   0  0  0  0  0  0  0  0  0  0  0  0
   21.0922  -25.2244  -13.7869 N   0  0  0  0  0  0  0  0  0  0  0  0
   21.6768  -25.0448  -15.0803 C   0  0  0  0  0  0  0  0  0  0  0  0
   20.8622  -24.9620  -16.0816 N   0  0  0  0  0  0  0  0  0  0  0  0
   23.0792  -24.9696  -15.1859 N   0  0  0  0  0  0  0  0  0  0  0  0
   23.8479  -24.8204  -13.9552 C   0  0  0  0  0  0  0  0  0  0  0  0
   23.9769  -23.3473  -13.6634 C   0  0  0  0  0  0  0  0  0  0  0  0
   24.8264  -23.0959  -12.4642 C   0  0  0  0  0  0  0  0  0  0  0  0
   24.9291  -21.6393  -12.1411 C   0  0  2  0  0  0  0  0  0  0  0  0
   25.5712  -21.4039  -10.8824 N   0  0  0  0  0  0  0  0  0  0  0  0
   23.5933  -20.9775  -12.2056 C   0  0  0  0  0  0  0  0  0  0  0  0
   22.8757  -20.9791  -11.1822 O   0  0  0  0  0  0  0  0  0  0  0  0
   21.2225  -24.8660  -17.0542 N   0  0  0  0  0  0  0  0  0  0  0  0
   23.1145  -20.3529  -13.3773 C   0  0  2  0  0  0  0  0  0  0  0  0
   21.8147  -19.7217  -13.4194 C   0  0  0  0  0  0  0  0  0  0  0  0
   21.6197  -19.1636  -14.8241 C   0  0  0  0  0  0  0  0  0  0  0  0
   21.5773  -17.6839  -14.7512 O   0  0  0  0  0  0  0  0  0  0  0  0
   21.6071  -17.1255  -13.6259 C   0  0  0  0  0  0  0  0  0  0  0  0
   20.7437  -20.7285  -13.1534 O   0  0  0  0  0  0  0  0  0  0  0  0
   20.7145  -21.9172  -13.8765 O   0  0  0  0  0  0  0  0  0  0  0  0
   21.5052  -16.8615  -15.8679 O   0  0  0  0  0  0  0  0  0  0  0  0
  2  1  1  6
  3  2  1  0
  4  3  1  0
  5  4  2  0
  6  5  1  0
  7  6  1  0
  7 12  2  0
  8  7  1  0
  9  8  2  0
  9 10  1  0
 10 11  2  0
 11 12  1  0
 12  4  1  0
 13 14  2  0
 13  2  1  0
 16 15  1  0
 16 18  1  0
 17 16  2  0
 18 19  1  0
 19 20  1  0
 20 21  1  0
 22 21  1  1
 22 24  1  0
 22 23  1  0
 23 13  1  0
 24 25  2  0
 26 27  1  0
 26 24  1  0
 27 28  1  6
 28 29  1  0
 29 33  1  0
 30 29  2  0
 31 27  1  0
 32 31  1  0
 34 31  2  0
M  END
$$$$
