WRD.pdb
     RDKit          3D

 34 35  0  0  1  0  0  0  0  0999 V2000
   27.6505  -21.4576  -15.7884 N   0  0  0  0  0  0  0  0  0  0  0  0
   26.8238  -20.4453  -15.1971 C   0  0  1  0  0  0  0  0  0  0  0  0
   26.1061  -19.6406  -16.2535 C   0  0  0  0  0  0  0  0  0  0  0  0
   27.0447  -18.6127  -16.7616 C   0  0  0  0  0  0  0  0  0  0  0  0
   27.8219  -18.7369  -17.9003 C   0  0  0  0  0  0  0  0  0  0  0  0
   28.5378  -17.6303  -18.0494 N   0  0  0  0  0  0  0  0  0  0  0  0
   28.2433  -16.7952  -17.0370 C   0  0  0  0  0  0  0  0  0  0  0  0
   28.6903  -15.5302  -16.7069 C   0  0  0  0  0  0  0  0  0  0  0  0
   28.2250  -14.8736  -15.5959 C   0  0  0  0  0  0  0  0  0  0  0  0
   27.2884  -15.4612  -14.7669 C   0  0  0  0  0  0  0  0  0  0  0  0
   26.8363  -16.7224  -15.0874 C   0  0  0  0  0  0  0  0  0  0  0  0
   27.3104  -17.3773  -16.2091 C   0  0  0  0  0  0  0  0  0  0  0  0
   25.8485  -21.0629  -14.2511 C   0  0  0  0  0  0  0  0  0  0  0  0
   25.2136  -22.0747  -14.6570 O   0  0  0  0  0  0  0  0  0  0  0  0
   20.8636  -22.7483   -7.2225 N   0  0  0  0  0  0  0  0  0  0  0  0
   20.9259  -21.4818   -7.8850 C   0  0  0  0  0  0  0  0  0  0  0  0
   19.8013  -20.9644   -8.2602 N   0  0  0  0  0  0  0  0  0  0  0  0
   22.1846  -20.8830   -8.0860 N   0  0  0  0  0  0  0  0  0  0  0  0
   22.9966  -21.3615   -9.1993 C   0  0  0  0  0  0  0  0  0  0  0  0
   23.0981  -20.2498  -10.2121 C   0  0  0  0  0  0  0  0  0  0  0  0
   24.4411  -20.2151  -10.8588 C   0  0  0  0  0  0  0  0  0  0  0  0
   24.4174  -20.7895  -12.2393 C   0  0  2  0  0  0  0  0  0  0  0  0
   25.6355  -20.5458  -12.9524 N   0  0  0  0  0  0  0  0  0  0  0  0
   23.2305  -20.3062  -13.0037 C   0  0  0  0  0  0  0  0  0  0  0  0
   23.1781  -19.0997  -13.3260 O   0  0  0  0  0  0  0  0  0  0  0  0
   19.7757  -20.0477   -8.7541 N   0  0  0  0  0  0  0  0  0  0  0  0
   22.1697  -21.1608  -13.3733 C   0  0  2  0  0  0  0  0  0  0  0  0
   20.9962  -20.6582  -14.0516 C   0  0  0  0  0  0  0  0  0  0  0  0
   20.4279  -21.7958  -14.8916 C   0  0  0  0  0  0  0  0  0  0  0  0
   21.3734  -22.0986  -15.9921 O   0  0  0  0  0  0  0  0  0  0  0  0
   22.4315  -21.4282  -16.0918 C   0  0  0  0  0  0  0  0  0  0  0  0
   19.9646  -20.2396  -13.0556 O   0  0  0  0  0  0  0  0  0  0  0  0
   19.0559  -19.2362  -13.3785 O   0  0  0  0  0  0  0  0  0  0  0  0
   21.1595  -23.0940  -16.9365 O   0  0  0  0  0  0  0  0  0  0  0  0
  2  1  1  6
  3  2  1  0
  4  3  1  0
  5  4  2  0
  6  5  1  0
  7  6  1  0
  7 12  2  0
  8  7  1  0
  9  8  2  0
  9 10  1  0
 10 11  2  0
 11 12  1  0
 12  4  1  0
 13 14  2  0
 13  2  1  0
 16 15  1  0
 16 18  1  0
 17 16  2  0
 18 19  1  0
 19 20  1  0
 20 21  1  0
 22 21  1  1
 22 24  1  0
 22 23  1  0
 23 13  1  0
 24 25  2  0
 26 27  1  0
 26 24  1  0
 27 28  1  1
 28 29  1  0
 29 33  1  0
 30 29  2  0
 31 27  1  0
 32 31  1  0
 34 31  2  0
M  END
$$$$
