WRD.pdb
     RDKit          3D

 34 35  0  0  1  0  0  0  0  0999 V2000
   25.9081  -19.0050  -11.4615 N   0  0  0  0  0  0  0  0  0  0  0  0
   26.5740  -20.2361  -11.7756 C   0  0  1  0  0  0  0  0  0  0  0  0
   26.1501  -21.3408  -10.8384 C   0  0  0  0  0  0  0  0  0  0  0  0
   26.1901  -20.8082   -9.4561 C   0  0  0  0  0  0  0  0  0  0  0  0
   25.0885  -20.3812   -8.7349 C   0  0  0  0  0  0  0  0  0  0  0  0
   25.4951  -19.9700   -7.5412 N   0  0  0  0  0  0  0  0  0  0  0  0
   26.8299  -20.1204   -7.4730 C   0  0  0  0  0  0  0  0  0  0  0  0
   27.7521  -19.8553   -6.4788 C   0  0  0  0  0  0  0  0  0  0  0  0
   29.0896  -20.1024   -6.6584 C   0  0  0  0  0  0  0  0  0  0  0  0
   29.5589  -20.6277   -7.8472 C   0  0  0  0  0  0  0  0  0  0  0  0
   28.6474  -20.8956   -8.8448 C   0  0  0  0  0  0  0  0  0  0  0  0
   27.3010  -20.6436   -8.6557 C   0  0  0  0  0  0  0  0  0  0  0  0
   26.3107  -20.6179  -13.1944 C   0  0  0  0  0  0  0  0  0  0  0  0
   25.1245  -20.5093  -13.6098 O   0  0  0  0  0  0  0  0  0  0  0  0
   30.7085  -25.5946  -15.5525 N   0  0  0  0  0  0  0  0  0  0  0  0
   30.2148  -25.2559  -16.8519 C   0  0  0  0  0  0  0  0  0  0  0  0
   29.7144  -26.2197  -17.5547 N   0  0  0  0  0  0  0  0  0  0  0  0
   30.3005  -23.9176  -17.2820 N   0  0  0  0  0  0  0  0  0  0  0  0
   30.5057  -22.8883  -16.2689 C   0  0  0  0  0  0  0  0  0  0  0  0
   29.2100  -22.7081  -15.5202 C   0  0  0  0  0  0  0  0  0  0  0  0
   28.3270  -21.7050  -16.1813 C   0  0  0  0  0  0  0  0  0  0  0  0
   27.0736  -21.4577  -15.4041 C   0  0  2  0  0  0  0  0  0  0  0  0
   27.3383  -21.0831  -14.0471 N   0  0  0  0  0  0  0  0  0  0  0  0
   26.1536  -22.6302  -15.4780 C   0  0  0  0  0  0  0  0  0  0  0  0
   26.2396  -23.5136  -14.5979 O   0  0  0  0  0  0  0  0  0  0  0  0
   29.4082  -26.0585  -18.5372 N   0  0  0  0  0  0  0  0  0  0  0  0
   25.1941  -22.7753  -16.5029 C   0  0  1  0  0  0  0  0  0  0  0  0
   24.0042  -23.5747  -16.3160 C   0  0  0  0  0  0  0  0  0  0  0  0
   23.3249  -23.0966  -15.0383 C   0  0  0  0  0  0  0  0  0  0  0  0
   22.0998  -23.9007  -14.8162 O   0  0  0  0  0  0  0  0  0  0  0  0
   22.2114  -25.0990  -14.4547 C   0  0  0  0  0  0  0  0  0  0  0  0
   23.0639  -23.3749  -17.4594 O   0  0  0  0  0  0  0  0  0  0  0  0
   22.7202  -22.0864  -17.8574 O   0  0  0  0  0  0  0  0  0  0  0  0
   20.8139  -23.4043  -14.9855 O   0  0  0  0  0  0  0  0  0  0  0  0
  2  1  1  1
  3  2  1  0
  4  3  1  0
  5  4  2  0
  6  5  1  0
  7  6  1  0
  7 12  2  0
  8  7  1  0
  9  8  2  0
  9 10  1  0
 10 11  2  0
 11 12  1  0
 12  4  1  0
 13 14  2  0
 13  2  1  0
 16 15  1  0
 16 18  1  0
 17 16  2  0
 18 19  1  0
 19 20  1  0
 20 21  1  0
 22 21  1  1
 22 24  1  0
 22 23  1  0
 23 13  1  0
 24 25  2  0
 26 27  1  0
 26 24  1  0
 27 28  1  6
 28 29  1  0
 29 33  1  0
 30 29  2  0
 31 27  1  0
 32 31  1  0
 34 31  2  0
M  END
$$$$
