VAC.pdb
     RDKit          3D

 19 18  0  0  1  0  0  0  0  0999 V2000
   16.1519  -11.5712  -17.5672 C   0  0  0  0  0  0  0  0  0  0  0  0
   17.2565  -10.7620  -16.9252 C   0  0  2  0  0  0  0  0  0  0  0  0
   17.1340   -9.3072  -17.3681 C   0  0  0  0  0  0  0  0  0  0  0  0
   18.6240  -11.2426  -17.3234 C   0  0  2  0  0  0  0  0  0  0  0  0
   18.8520  -12.6210  -17.0328 N   0  0  0  0  0  0  0  0  0  0  0  0
   19.6332  -10.4226  -16.6080 C   0  0  0  0  0  0  0  0  0  0  0  0
   19.8353  -10.5779  -15.3539 O   0  0  0  0  0  0  0  0  0  0  0  0
   22.4242   -8.1431  -17.6744 C   0  0  0  0  0  0  0  0  0  0  0  0
   21.4514   -8.7341  -16.6775 C   0  0  2  0  0  0  0  0  0  0  0  0
   20.3877   -9.4521  -17.3149 N   0  0  0  0  0  0  0  0  0  0  0  0
   20.9756   -7.6250  -15.8277 C   0  0  0  0  0  0  0  0  0  0  0  0
   20.0504   -6.9042  -16.2488 O   0  0  0  0  0  0  0  0  0  0  0  0
   21.5383   -7.3641  -14.5618 N   0  0  0  0  0  0  0  0  0  0  0  0
   21.0425   -6.3465  -13.6598 C   0  0  1  0  0  0  0  0  0  0  0  0
   21.3617   -6.6925  -12.2192 C   0  0  0  0  0  0  0  0  0  0  0  0
   20.4346   -8.1250  -11.6597 S   0  0  0  0  0  0  0  0  0  0  0  0
   21.6585   -5.0494  -14.0183 C   0  0  0  0  0  0  0  0  0  0  0  0
   22.7595   -4.9713  -14.6219 O   0  0  0  0  0  0  0  0  0  0  0  0
   21.0280   -3.8582  -13.6930 O   0  0  0  0  0  0  0  0  0  0  0  0
  2  1  1  6
  2  4  1  0
  3  2  1  0
  4  6  1  0
  4  5  1  1
  6  7  2  0
  9  8  1  6
 10  9  1  0
 10  6  1  0
 11 12  2  0
 11  9  1  0
 13 11  1  0
 14 13  1  0
 14 15  1  1
 16 15  1  0
 17 19  1  0
 17 14  1  0
 18 17  2  0
M  END
$$$$
