VAC.pdb
     RDKit          3D

 19 18  0  0  1  0  0  0  0  0999 V2000
   20.0008  -20.9881  -15.6969 C   0  0  0  0  0  0  0  0  0  0  0  0
   20.8425  -20.1006  -14.8076 C   0  0  2  0  0  0  0  0  0  0  0  0
   22.1437  -19.7595  -15.5274 C   0  0  0  0  0  0  0  0  0  0  0  0
   21.2046  -20.7682  -13.5103 C   0  0  2  0  0  0  0  0  0  0  0  0
   21.9049  -22.0002  -13.6780 N   0  0  0  0  0  0  0  0  0  0  0  0
   19.9548  -21.0200  -12.7506 C   0  0  0  0  0  0  0  0  0  0  0  0
   19.1239  -20.0739  -12.5223 O   0  0  0  0  0  0  0  0  0  0  0  0
   17.3296  -23.0095  -12.4756 C   0  0  0  0  0  0  0  0  0  0  0  0
   18.4573  -22.5977  -11.5547 C   0  0  2  0  0  0  0  0  0  0  0  0
   19.6693  -22.3225  -12.2678 N   0  0  0  0  0  0  0  0  0  0  0  0
   18.6060  -23.6667  -10.5479 C   0  0  0  0  0  0  0  0  0  0  0  0
   19.3173  -24.6521  -10.8235 O   0  0  0  0  0  0  0  0  0  0  0  0
   17.9679  -23.5999   -9.2928 N   0  0  0  0  0  0  0  0  0  0  0  0
   18.0868  -24.6259   -8.2788 C   0  0  1  0  0  0  0  0  0  0  0  0
   18.4653  -24.0271   -6.9390 C   0  0  0  0  0  0  0  0  0  0  0  0
   19.0128  -25.2853   -5.7808 S   0  0  0  0  0  0  0  0  0  0  0  0
   16.7951  -25.3400   -8.1683 C   0  0  0  0  0  0  0  0  0  0  0  0
   15.6929  -24.7752   -8.3898 O   0  0  0  0  0  0  0  0  0  0  0  0
   16.7606  -26.6789   -7.8104 O   0  0  0  0  0  0  0  0  0  0  0  0
  2  1  1  6
  2  4  1  0
  3  2  1  0
  4  6  1  0
  4  5  1  6
  6  7  2  0
  9  8  1  6
 10  9  1  0
 10  6  1  0
 11 12  2  0
 11  9  1  0
 13 11  1  0
 14 13  1  0
 14 15  1  1
 16 15  1  0
 17 19  1  0
 17 14  1  0
 18 17  2  0
M  END
$$$$
