VAC.pdb
     RDKit          3D

 19 18  0  0  1  0  0  0  0  0999 V2000
   22.6866  -23.2774  -16.7913 C   0  0  0  0  0  0  0  0  0  0  0  0
   21.2731  -22.7808  -16.9974 C   0  0  2  0  0  0  0  0  0  0  0  0
   20.7097  -23.3899  -18.2776 C   0  0  0  0  0  0  0  0  0  0  0  0
   21.2066  -21.2858  -17.1401 C   0  0  2  0  0  0  0  0  0  0  0  0
   21.8663  -20.7934  -18.3056 N   0  0  0  0  0  0  0  0  0  0  0  0
   21.8253  -20.6745  -15.9375 C   0  0  0  0  0  0  0  0  0  0  0  0
   23.0818  -20.4352  -15.8960 O   0  0  0  0  0  0  0  0  0  0  0  0
   20.5137  -19.1804  -12.7256 C   0  0  0  0  0  0  0  0  0  0  0  0
   21.5791  -19.6827  -13.6754 C   0  0  2  0  0  0  0  0  0  0  0  0
   21.0219  -20.3482  -14.8155 N   0  0  0  0  0  0  0  0  0  0  0  0
   22.4892  -20.5395  -12.8905 C   0  0  0  0  0  0  0  0  0  0  0  0
   22.1799  -21.7333  -12.7115 O   0  0  0  0  0  0  0  0  0  0  0  0
   23.6899  -20.0434  -12.3432 N   0  0  0  0  0  0  0  0  0  0  0  0
   24.5815  -20.8336  -11.5213 C   0  0  1  0  0  0  0  0  0  0  0  0
   26.0169  -20.3720  -11.6744 C   0  0  0  0  0  0  0  0  0  0  0  0
   27.1290  -21.7502  -11.9712 S   0  0  0  0  0  0  0  0  0  0  0  0
   24.1587  -20.7151  -10.1079 C   0  0  0  0  0  0  0  0  0  0  0  0
   24.5327  -21.5278   -9.2232 O   0  0  0  0  0  0  0  0  0  0  0  0
   23.3215  -19.6847   -9.7088 O   0  0  0  0  0  0  0  0  0  0  0  0
  2  1  1  6
  2  4  1  0
  3  2  1  0
  4  6  1  0
  4  5  1  6
  6  7  2  0
  9  8  1  1
 10  9  1  0
 10  6  1  0
 11 12  2  0
 11  9  1  0
 13 11  1  0
 14 13  1  0
 14 15  1  1
 16 15  1  0
 17 19  1  0
 17 14  1  0
 18 17  2  0
M  END
$$$$
