VAC.pdb
     RDKit          3D

 19 18  0  0  1  0  0  0  0  0999 V2000
   17.2634  -14.2824  -18.9544 C   0  0  0  0  0  0  0  0  0  0  0  0
   17.8380  -14.9610  -17.7311 C   0  0  2  0  0  0  0  0  0  0  0  0
   16.9440  -16.1347  -17.3429 C   0  0  0  0  0  0  0  0  0  0  0  0
   17.9132  -14.0384  -16.5467 C   0  0  2  0  0  0  0  0  0  0  0  0
   16.6470  -13.5127  -16.1508 N   0  0  0  0  0  0  0  0  0  0  0  0
   18.8200  -12.9142  -16.8881 C   0  0  0  0  0  0  0  0  0  0  0  0
   20.0434  -13.1284  -17.1965 O   0  0  0  0  0  0  0  0  0  0  0  0
   18.4454   -9.4169  -18.0100 C   0  0  0  0  0  0  0  0  0  0  0  0
   19.1810  -10.4817  -17.2261 C   0  0  2  0  0  0  0  0  0  0  0  0
   18.3333  -11.5823  -16.8751 N   0  0  0  0  0  0  0  0  0  0  0  0
   19.7843   -9.8169  -16.0545 C   0  0  0  0  0  0  0  0  0  0  0  0
   19.1041   -9.7020  -15.0167 O   0  0  0  0  0  0  0  0  0  0  0  0
   21.1007   -9.3133  -16.0815 N   0  0  0  0  0  0  0  0  0  0  0  0
   21.7386   -8.6796  -14.9473 C   0  0  1  0  0  0  0  0  0  0  0  0
   23.2131   -9.0252  -14.8878 C   0  0  0  0  0  0  0  0  0  0  0  0
   23.4726  -10.7696  -14.5501 S   0  0  0  0  0  0  0  0  0  0  0  0
   21.5654   -7.2140  -15.0593 C   0  0  0  0  0  0  0  0  0  0  0  0
   21.4141   -6.6370  -16.1670 O   0  0  0  0  0  0  0  0  0  0  0  0
   21.5648   -6.4176  -13.9245 O   0  0  0  0  0  0  0  0  0  0  0  0
  2  1  1  6
  2  4  1  0
  3  2  1  0
  4  6  1  0
  4  5  1  6
  6  7  2  0
  9  8  1  1
 10  9  1  0
 10  6  1  0
 11 12  2  0
 11  9  1  0
 13 11  1  0
 14 13  1  0
 14 15  1  6
 16 15  1  0
 17 19  1  0
 17 14  1  0
 18 17  2  0
M  END
$$$$
