VAC.pdb
     RDKit          3D

 19 18  0  0  1  0  0  0  0  0999 V2000
   18.1254  -12.0882  -17.6351 C   0  0  0  0  0  0  0  0  0  0  0  0
   18.1614  -12.1283  -16.1237 C   0  0  2  0  0  0  0  0  0  0  0  0
   17.2423  -13.2415  -15.6301 C   0  0  0  0  0  0  0  0  0  0  0  0
   17.6876  -10.8427  -15.5053 C   0  0  2  0  0  0  0  0  0  0  0  0
   16.3635  -10.4769  -15.8917 N   0  0  0  0  0  0  0  0  0  0  0  0
   18.6246   -9.7619  -15.9009 C   0  0  0  0  0  0  0  0  0  0  0  0
   19.8640   -9.8208  -15.5876 O   0  0  0  0  0  0  0  0  0  0  0  0
   18.4263   -6.6511  -18.0261 C   0  0  0  0  0  0  0  0  0  0  0  0
   19.0165   -7.5537  -16.9648 C   0  0  2  0  0  0  0  0  0  0  0  0
   18.1494   -8.6458  -16.6355 N   0  0  0  0  0  0  0  0  0  0  0  0
   19.3431   -6.7015  -15.8049 C   0  0  0  0  0  0  0  0  0  0  0  0
   18.4456   -6.4477  -14.9784 O   0  0  0  0  0  0  0  0  0  0  0  0
   20.6353   -6.1723  -15.6114 N   0  0  0  0  0  0  0  0  0  0  0  0
   20.9773   -5.2694  -14.5331 C   0  0  1  0  0  0  0  0  0  0  0  0
   22.1750   -5.7775  -13.7557 C   0  0  0  0  0  0  0  0  0  0  0  0
   22.6803   -4.6169  -12.4821 S   0  0  0  0  0  0  0  0  0  0  0  0
   21.2712   -3.9353  -15.1025 C   0  0  0  0  0  0  0  0  0  0  0  0
   21.8647   -3.7888  -16.2022 O   0  0  0  0  0  0  0  0  0  0  0  0
   20.8938   -2.7844  -14.4278 O   0  0  0  0  0  0  0  0  0  0  0  0
  2  1  1  6
  2  4  1  0
  3  2  1  0
  4  6  1  0
  4  5  1  6
  6  7  2  0
  9  8  1  6
 10  9  1  0
 10  6  1  0
 11 12  2  0
 11  9  1  0
 13 11  1  0
 14 13  1  0
 14 15  1  6
 16 15  1  0
 17 19  1  0
 17 14  1  0
 18 17  2  0
M  END
$$$$
