VAC.pdb
     RDKit          3D

 19 18  0  0  1  0  0  0  0  0999 V2000
   13.4228  -11.1256  -10.7342 C   0  0  0  0  0  0  0  0  0  0  0  0
   14.0935  -11.0289  -12.0862 C   0  0  2  0  0  0  0  0  0  0  0  0
   13.5937  -12.1631  -12.9757 C   0  0  0  0  0  0  0  0  0  0  0  0
   15.5888  -11.1517  -11.9937 C   0  0  2  0  0  0  0  0  0  0  0  0
   16.0255  -12.3634  -11.3795 N   0  0  0  0  0  0  0  0  0  0  0  0
   16.1040   -9.9991  -11.2134 C   0  0  0  0  0  0  0  0  0  0  0  0
   16.1199  -10.0275   -9.9341 O   0  0  0  0  0  0  0  0  0  0  0  0
   17.6963   -6.6713  -12.0365 C   0  0  0  0  0  0  0  0  0  0  0  0
   16.9930   -7.6822  -11.1574 C   0  0  2  0  0  0  0  0  0  0  0  0
   16.5868   -8.8475  -11.8855 N   0  0  0  0  0  0  0  0  0  0  0  0
   15.8677   -6.9819  -10.5079 C   0  0  0  0  0  0  0  0  0  0  0  0
   14.7693   -6.9430  -11.0953 O   0  0  0  0  0  0  0  0  0  0  0  0
   16.0048   -6.3613   -9.2497 N   0  0  0  0  0  0  0  0  0  0  0  0
   14.9437   -5.6188   -8.6035 C   0  0  1  0  0  0  0  0  0  0  0  0
   15.2414   -5.4112   -7.1320 C   0  0  0  0  0  0  0  0  0  0  0  0
   13.9452   -4.4714   -6.3189 S   0  0  0  0  0  0  0  0  0  0  0  0
   14.7953   -4.3110   -9.2803 C   0  0  0  0  0  0  0  0  0  0  0  0
   13.6702   -3.8121   -9.5413 O   0  0  0  0  0  0  0  0  0  0  0  0
   15.9138   -3.5822   -9.6541 O   0  0  0  0  0  0  0  0  0  0  0  0
  2  1  1  1
  2  4  1  0
  3  2  1  0
  4  6  1  0
  4  5  1  1
  6  7  2  0
  9  8  1  6
 10  9  1  0
 10  6  1  0
 11 12  2  0
 11  9  1  0
 13 11  1  0
 14 13  1  0
 14 15  1  1
 16 15  1  0
 17 19  1  0
 17 14  1  0
 18 17  2  0
M  END
$$$$
