VAC.pdb
     RDKit          3D

 19 18  0  0  1  0  0  0  0  0999 V2000
   18.8427  -16.7423  -17.1041 C   0  0  0  0  0  0  0  0  0  0  0  0
   18.7307  -15.2601  -17.3824 C   0  0  2  0  0  0  0  0  0  0  0  0
   20.1250  -14.6408  -17.3677 C   0  0  0  0  0  0  0  0  0  0  0  0
   17.9066  -14.5440  -16.3491 C   0  0  2  0  0  0  0  0  0  0  0  0
   16.5704  -15.0340  -16.2445 N   0  0  0  0  0  0  0  0  0  0  0  0
   17.8687  -13.1025  -16.7000 C   0  0  0  0  0  0  0  0  0  0  0  0
   17.4106  -12.7140  -17.8300 O   0  0  0  0  0  0  0  0  0  0  0  0
   17.1036  -10.0273  -15.8451 C   0  0  0  0  0  0  0  0  0  0  0  0
   18.4042  -10.7475  -16.1263 C   0  0  2  0  0  0  0  0  0  0  0  0
   18.3439  -12.1360  -15.7774 N   0  0  0  0  0  0  0  0  0  0  0  0
   19.4677  -10.0149  -15.4115 C   0  0  0  0  0  0  0  0  0  0  0  0
   19.6364  -10.2406  -14.1976 O   0  0  0  0  0  0  0  0  0  0  0  0
   20.2900   -9.0741  -16.0640 N   0  0  0  0  0  0  0  0  0  0  0  0
   21.3486   -8.3414  -15.4026 C   0  0  1  0  0  0  0  0  0  0  0  0
   22.3277   -7.7707  -16.4089 C   0  0  0  0  0  0  0  0  0  0  0  0
   23.0714   -9.0586  -17.4151 S   0  0  0  0  0  0  0  0  0  0  0  0
   20.7473   -7.2495  -14.6047 C   0  0  0  0  0  0  0  0  0  0  0  0
   19.6276   -6.7490  -14.8853 O   0  0  0  0  0  0  0  0  0  0  0  0
   21.4130   -6.7356  -13.5026 O   0  0  0  0  0  0  0  0  0  0  0  0
  2  1  1  1
  2  4  1  0
  3  2  1  0
  4  6  1  0
  4  5  1  6
  6  7  2  0
  9  8  1  1
 10  9  1  0
 10  6  1  0
 11 12  2  0
 11  9  1  0
 13 11  1  0
 14 13  1  0
 14 15  1  6
 16 15  1  0
 17 19  1  0
 17 14  1  0
 18 17  2  0
M  END
$$$$
