VAC.pdb
     RDKit          3D

 19 18  0  0  1  0  0  0  0  0999 V2000
   19.9314  -21.5127  -15.8290 C   0  0  0  0  0  0  0  0  0  0  0  0
   20.7080  -21.1647  -17.0791 C   0  0  2  0  0  0  0  0  0  0  0  0
   21.3433  -22.4318  -17.6433 C   0  0  0  0  0  0  0  0  0  0  0  0
   21.8153  -20.1840  -16.8110 C   0  0  2  0  0  0  0  0  0  0  0  0
   22.8270  -20.6889  -15.9405 N   0  0  0  0  0  0  0  0  0  0  0  0
   21.2221  -18.9639  -16.2092 C   0  0  0  0  0  0  0  0  0  0  0  0
   21.1498  -18.8275  -14.9388 O   0  0  0  0  0  0  0  0  0  0  0  0
   20.2030  -15.5799  -17.4789 C   0  0  0  0  0  0  0  0  0  0  0  0
   20.1887  -16.7245  -16.4894 C   0  0  2  0  0  0  0  0  0  0  0  0
   20.7265  -17.9309  -17.0448 N   0  0  0  0  0  0  0  0  0  0  0  0
   18.7976  -16.8718  -16.0186 C   0  0  0  0  0  0  0  0  0  0  0  0
   18.0787  -17.7443  -16.5428 O   0  0  0  0  0  0  0  0  0  0  0  0
   18.2675  -16.0558  -14.9986 N   0  0  0  0  0  0  0  0  0  0  0  0
   16.9339  -16.2141  -14.4589 C   0  0  1  0  0  0  0  0  0  0  0  0
   16.9517  -16.1833  -12.9437 C   0  0  0  0  0  0  0  0  0  0  0  0
   17.6820  -14.6663  -12.3194 S   0  0  0  0  0  0  0  0  0  0  0  0
   16.0763  -15.1253  -14.9781 C   0  0  0  0  0  0  0  0  0  0  0  0
   16.5519  -14.0939  -15.5192 O   0  0  0  0  0  0  0  0  0  0  0  0
   14.6959  -15.2113  -14.8817 O   0  0  0  0  0  0  0  0  0  0  0  0
  2  1  1  1
  2  4  1  0
  3  2  1  0
  4  6  1  0
  4  5  1  1
  6  7  2  0
  9  8  1  6
 10  9  1  0
 10  6  1  0
 11 12  2  0
 11  9  1  0
 13 11  1  0
 14 13  1  0
 14 15  1  1
 16 15  1  0
 17 19  1  0
 17 14  1  0
 18 17  2  0
M  END
$$$$
