VAC.pdb
     RDKit          3D

 19 18  0  0  1  0  0  0  0  0999 V2000
   15.7725  -14.1210  -18.3106 C   0  0  0  0  0  0  0  0  0  0  0  0
   16.7783  -13.2525  -17.5886 C   0  0  2  0  0  0  0  0  0  0  0  0
   16.9115  -11.9227  -18.3244 C   0  0  0  0  0  0  0  0  0  0  0  0
   18.1434  -13.8796  -17.5364 C   0  0  2  0  0  0  0  0  0  0  0  0
   18.1587  -15.1636  -16.9140 N   0  0  0  0  0  0  0  0  0  0  0  0
   19.0470  -12.9683  -16.7910 C   0  0  0  0  0  0  0  0  0  0  0  0
   18.9287  -12.8175  -15.5257 O   0  0  0  0  0  0  0  0  0  0  0  0
   22.2207  -11.1114  -17.5798 C   0  0  0  0  0  0  0  0  0  0  0  0
   20.9690  -11.3974  -16.7793 C   0  0  2  0  0  0  0  0  0  0  0  0
   20.0574  -12.2515  -17.4812 N   0  0  0  0  0  0  0  0  0  0  0  0
   20.3803  -10.0935  -16.4163 C   0  0  0  0  0  0  0  0  0  0  0  0
   19.5696   -9.5647  -17.2011 O   0  0  0  0  0  0  0  0  0  0  0  0
   20.7106   -9.4378  -15.2129 N   0  0  0  0  0  0  0  0  0  0  0  0
   20.2257   -8.1206  -14.8599 C   0  0  1  0  0  0  0  0  0  0  0  0
   20.2868   -7.9006  -13.3616 C   0  0  0  0  0  0  0  0  0  0  0  0
   19.1373   -8.9672  -12.4868 S   0  0  0  0  0  0  0  0  0  0  0  0
   21.0491   -7.1063  -15.5553 C   0  0  0  0  0  0  0  0  0  0  0  0
   22.1561   -7.3856  -16.0840 O   0  0  0  0  0  0  0  0  0  0  0  0
   20.6166   -5.7923  -15.6468 O   0  0  0  0  0  0  0  0  0  0  0  0
  2  1  1  6
  2  4  1  0
  3  2  1  0
  4  6  1  0
  4  5  1  1
  6  7  2  0
  9  8  1  6
 10  9  1  0
 10  6  1  0
 11 12  2  0
 11  9  1  0
 13 11  1  0
 14 13  1  0
 14 15  1  1
 16 15  1  0
 17 19  1  0
 17 14  1  0
 18 17  2  0
M  END
$$$$
