VAC.pdb
     RDKit          3D

 19 18  0  0  1  0  0  0  0  0999 V2000
   24.7062  -21.0137  -12.6144 C   0  0  0  0  0  0  0  0  0  0  0  0
   25.4048  -21.2128  -11.2879 C   0  0  2  0  0  0  0  0  0  0  0  0
   24.4645  -20.8004  -10.1595 C   0  0  0  0  0  0  0  0  0  0  0  0
   26.6504  -20.3801  -11.1661 C   0  0  2  0  0  0  0  0  0  0  0  0
   27.5039  -20.4588  -12.3070 N   0  0  0  0  0  0  0  0  0  0  0  0
   27.3993  -20.8339   -9.9678 C   0  0  0  0  0  0  0  0  0  0  0  0
   26.8418  -20.8586   -8.8161 O   0  0  0  0  0  0  0  0  0  0  0  0
   30.9623  -21.9087   -9.2793 C   0  0  0  0  0  0  0  0  0  0  0  0
   29.5138  -21.6318   -8.9411 C   0  0  2  0  0  0  0  0  0  0  0  0
   28.7503  -21.2471  -10.0909 N   0  0  0  0  0  0  0  0  0  0  0  0
   29.5061  -20.6140   -7.8721 C   0  0  0  0  0  0  0  0  0  0  0  0
   29.7321  -19.4268   -8.1759 O   0  0  0  0  0  0  0  0  0  0  0  0
   29.2514  -20.9504   -6.5271 N   0  0  0  0  0  0  0  0  0  0  0  0
   29.2244  -19.9825   -5.4513 C   0  0  1  0  0  0  0  0  0  0  0  0
   27.8004  -19.6217   -5.0781 C   0  0  0  0  0  0  0  0  0  0  0  0
   27.1172  -18.3849   -6.1862 S   0  0  0  0  0  0  0  0  0  0  0  0
   29.9271  -20.5513   -4.2794 C   0  0  0  0  0  0  0  0  0  0  0  0
   30.3043  -21.7508   -4.2379 O   0  0  0  0  0  0  0  0  0  0  0  0
   30.1959  -19.7636   -3.1706 O   0  0  0  0  0  0  0  0  0  0  0  0
  2  1  1  6
  2  4  1  0
  3  2  1  0
  4  6  1  0
  4  5  1  6
  6  7  2  0
  9  8  1  6
 10  9  1  0
 10  6  1  0
 11 12  2  0
 11  9  1  0
 13 11  1  0
 14 13  1  0
 14 15  1  1
 16 15  1  0
 17 19  1  0
 17 14  1  0
 18 17  2  0
M  END
$$$$
