VAC.pdb
     RDKit          3D

 19 18  0  0  1  0  0  0  0  0999 V2000
   23.9866  -14.9495  -15.2878 C   0  0  0  0  0  0  0  0  0  0  0  0
   23.7176  -13.5771  -15.8634 C   0  0  2  0  0  0  0  0  0  0  0  0
   24.0476  -12.5201  -14.8140 C   0  0  0  0  0  0  0  0  0  0  0  0
   22.2780  -13.3923  -16.2548 C   0  0  2  0  0  0  0  0  0  0  0  0
   21.8142  -14.3574  -17.1982 N   0  0  0  0  0  0  0  0  0  0  0  0
   22.1227  -12.0345  -16.8335 C   0  0  0  0  0  0  0  0  0  0  0  0
   22.3073  -11.8288  -18.0831 O   0  0  0  0  0  0  0  0  0  0  0  0
   20.2674   -9.7001  -17.4806 C   0  0  0  0  0  0  0  0  0  0  0  0
   21.4610   -9.6587  -16.5516 C   0  0  2  0  0  0  0  0  0  0  0  0
   21.7654  -10.9452  -15.9988 N   0  0  0  0  0  0  0  0  0  0  0  0
   21.1744   -8.6384  -15.5243 C   0  0  0  0  0  0  0  0  0  0  0  0
   20.4765   -8.9585  -14.5428 O   0  0  0  0  0  0  0  0  0  0  0  0
   21.6673   -7.3217  -15.6263 N   0  0  0  0  0  0  0  0  0  0  0  0
   21.4834   -6.3165  -14.6012 C   0  0  1  0  0  0  0  0  0  0  0  0
   22.7242   -5.4597  -14.4490 C   0  0  0  0  0  0  0  0  0  0  0  0
   22.5229   -4.2232  -13.1625 S   0  0  0  0  0  0  0  0  0  0  0  0
   20.3244   -5.4707  -14.9644 C   0  0  0  0  0  0  0  0  0  0  0  0
   20.1012   -5.1071  -16.1480 O   0  0  0  0  0  0  0  0  0  0  0  0
   19.4326   -5.0453  -13.9918 O   0  0  0  0  0  0  0  0  0  0  0  0
  2  1  1  1
  2  4  1  0
  3  2  1  0
  4  6  1  0
  4  5  1  6
  6  7  2  0
  9  8  1  6
 10  9  1  0
 10  6  1  0
 11 12  2  0
 11  9  1  0
 13 11  1  0
 14 13  1  0
 14 15  1  6
 16 15  1  0
 17 19  1  0
 17 14  1  0
 18 17  2  0
M  END
$$$$
