VAC.pdb
     RDKit          3D

 19 18  0  0  1  0  0  0  0  0999 V2000
   20.6884  -17.1843  -17.3275 C   0  0  0  0  0  0  0  0  0  0  0  0
   21.7122  -17.9635  -16.5325 C   0  0  2  0  0  0  0  0  0  0  0  0
   21.8217  -17.3647  -15.1336 C   0  0  0  0  0  0  0  0  0  0  0  0
   23.0797  -17.9130  -17.1547 C   0  0  2  0  0  0  0  0  0  0  0  0
   23.1170  -18.4076  -18.4927 N   0  0  0  0  0  0  0  0  0  0  0  0
   24.0039  -18.7151  -16.3151 C   0  0  0  0  0  0  0  0  0  0  0  0
   23.8430  -19.9780  -16.1846 O   0  0  0  0  0  0  0  0  0  0  0  0
   27.2233  -18.0277  -14.4614 C   0  0  0  0  0  0  0  0  0  0  0  0
   26.0095  -18.8394  -14.8576 C   0  0  2  0  0  0  0  0  0  0  0  0
   25.0819  -18.0826  -15.6450 N   0  0  0  0  0  0  0  0  0  0  0  0
   25.4181  -19.3689  -13.6133 C   0  0  0  0  0  0  0  0  0  0  0  0
   24.6203  -18.6520  -12.9788 O   0  0  0  0  0  0  0  0  0  0  0  0
   25.7316  -20.6553  -13.1296 N   0  0  0  0  0  0  0  0  0  0  0  0
   25.2269  -21.1861  -11.8813 C   0  0  1  0  0  0  0  0  0  0  0  0
   25.1742  -22.7004  -11.9144 C   0  0  0  0  0  0  0  0  0  0  0  0
   24.2065  -23.3005  -13.3028 S   0  0  0  0  0  0  0  0  0  0  0  0
   26.1057  -20.7332  -10.7798 C   0  0  0  0  0  0  0  0  0  0  0  0
   27.3120  -20.4268  -10.9639 O   0  0  0  0  0  0  0  0  0  0  0  0
   25.6160  -20.6312   -9.4868 O   0  0  0  0  0  0  0  0  0  0  0  0
  2  1  1  6
  2  4  1  0
  3  2  1  0
  4  6  1  0
  4  5  1  6
  6  7  2  0
  9  8  1  1
 10  9  1  0
 10  6  1  0
 11 12  2  0
 11  9  1  0
 13 11  1  0
 14 13  1  0
 14 15  1  6
 16 15  1  0
 17 19  1  0
 17 14  1  0
 18 17  2  0
M  END
$$$$
