VAC.pdb
     RDKit          3D

 19 18  0  0  1  0  0  0  0  0999 V2000
   17.5564  -13.2692  -14.7340 C   0  0  0  0  0  0  0  0  0  0  0  0
   16.2507  -12.6803  -15.2192 C   0  0  2  0  0  0  0  0  0  0  0  0
   15.1273  -13.6833  -14.9751 C   0  0  0  0  0  0  0  0  0  0  0  0
   16.2724  -12.3745  -16.6909 C   0  0  2  0  0  0  0  0  0  0  0  0
   16.4410  -13.5294  -17.5119 N   0  0  0  0  0  0  0  0  0  0  0  0
   17.3832  -11.4260  -16.9537 C   0  0  0  0  0  0  0  0  0  0  0  0
   18.5533  -11.8516  -17.2492 O   0  0  0  0  0  0  0  0  0  0  0  0
   17.6537   -7.7359  -17.5745 C   0  0  0  0  0  0  0  0  0  0  0  0
   18.1963   -9.0913  -17.1774 C   0  0  2  0  0  0  0  0  0  0  0  0
   17.1543  -10.0285  -16.8788 N   0  0  0  0  0  0  0  0  0  0  0  0
   19.1218   -8.8731  -16.0486 C   0  0  0  0  0  0  0  0  0  0  0  0
   18.6573   -8.8415  -14.8927 O   0  0  0  0  0  0  0  0  0  0  0  0
   20.5070   -8.7009  -16.2455 N   0  0  0  0  0  0  0  0  0  0  0  0
   21.4463   -8.4725  -15.1683 C   0  0  1  0  0  0  0  0  0  0  0  0
   22.8703   -8.7190  -15.6251 C   0  0  0  0  0  0  0  0  0  0  0  0
   23.1223  -10.4267  -16.1194 S   0  0  0  0  0  0  0  0  0  0  0  0
   21.2999   -7.0779  -14.6947 C   0  0  0  0  0  0  0  0  0  0  0  0
   21.7382   -6.6966  -13.5788 O   0  0  0  0  0  0  0  0  0  0  0  0
   20.6627   -6.1315  -15.4824 O   0  0  0  0  0  0  0  0  0  0  0  0
  2  1  1  6
  2  4  1  0
  3  2  1  0
  4  6  1  0
  4  5  1  6
  6  7  2  0
  9  8  1  1
 10  9  1  0
 10  6  1  0
 11 12  2  0
 11  9  1  0
 13 11  1  0
 14 13  1  0
 14 15  1  6
 16 15  1  0
 17 19  1  0
 17 14  1  0
 18 17  2  0
M  END
$$$$
