VAC.pdb
     RDKit          3D

 19 18  0  0  1  0  0  0  0  0999 V2000
   14.8536  -14.0797  -15.9167 C   0  0  0  0  0  0  0  0  0  0  0  0
   15.6380  -12.8242  -15.6073 C   0  0  2  0  0  0  0  0  0  0  0  0
   15.2917  -11.7511  -16.6350 C   0  0  0  0  0  0  0  0  0  0  0  0
   17.1233  -13.0472  -15.6688 C   0  0  2  0  0  0  0  0  0  0  0  0
   17.5848  -14.0672  -14.7839 N   0  0  0  0  0  0  0  0  0  0  0  0
   17.8009  -11.7703  -15.3328 C   0  0  0  0  0  0  0  0  0  0  0  0
   17.6713  -11.2440  -14.1735 O   0  0  0  0  0  0  0  0  0  0  0  0
   20.3991   -9.5813  -16.9402 C   0  0  0  0  0  0  0  0  0  0  0  0
   19.2326   -9.8618  -16.0183 C   0  0  2  0  0  0  0  0  0  0  0  0
   18.6041  -11.1178  -16.3024 N   0  0  0  0  0  0  0  0  0  0  0  0
   18.3108   -8.7141  -16.1254 C   0  0  0  0  0  0  0  0  0  0  0  0
   17.4063   -8.7522  -16.9818 O   0  0  0  0  0  0  0  0  0  0  0  0
   18.4285   -7.5854  -15.2892 N   0  0  0  0  0  0  0  0  0  0  0  0
   17.5414   -6.4437  -15.3560 C   0  0  1  0  0  0  0  0  0  0  0  0
   16.8497   -6.2122  -14.0274 C   0  0  0  0  0  0  0  0  0  0  0  0
   15.7728   -7.5817  -13.5926 S   0  0  0  0  0  0  0  0  0  0  0  0
   18.3288   -5.2485  -15.7327 C   0  0  0  0  0  0  0  0  0  0  0  0
   19.5849   -5.2646  -15.8021 O   0  0  0  0  0  0  0  0  0  0  0  0
   17.6931   -4.0519  -16.0263 O   0  0  0  0  0  0  0  0  0  0  0  0
  2  1  1  6
  2  4  1  0
  3  2  1  0
  4  6  1  0
  4  5  1  1
  6  7  2  0
  9  8  1  6
 10  9  1  0
 10  6  1  0
 11 12  2  0
 11  9  1  0
 13 11  1  0
 14 13  1  0
 14 15  1  1
 16 15  1  0
 17 19  1  0
 17 14  1  0
 18 17  2  0
M  END
$$$$
