VAC.pdb
     RDKit          3D

 19 18  0  0  1  0  0  0  0  0999 V2000
   16.5271  -10.8635  -18.9292 C   0  0  0  0  0  0  0  0  0  0  0  0
   17.4798  -10.2498  -17.9277 C   0  0  2  0  0  0  0  0  0  0  0  0
   17.7974   -8.8187  -18.3503 C   0  0  0  0  0  0  0  0  0  0  0  0
   18.7818  -10.9965  -17.8440 C   0  0  2  0  0  0  0  0  0  0  0  0
   18.6268  -12.3829  -17.5438 N   0  0  0  0  0  0  0  0  0  0  0  0
   19.6161  -10.3627  -16.7929 C   0  0  0  0  0  0  0  0  0  0  0  0
   19.2848  -10.4367  -15.5590 O   0  0  0  0  0  0  0  0  0  0  0  0
   23.0228   -8.7604  -16.6829 C   0  0  0  0  0  0  0  0  0  0  0  0
   21.6423   -9.0798  -16.1523 C   0  0  2  0  0  0  0  0  0  0  0  0
   20.7971   -9.6642  -17.1510 N   0  0  0  0  0  0  0  0  0  0  0  0
   21.0958   -7.8301  -15.5882 C   0  0  0  0  0  0  0  0  0  0  0  0
   20.4706   -7.0582  -16.3407 O   0  0  0  0  0  0  0  0  0  0  0  0
   21.2630   -7.4920  -14.2300 N   0  0  0  0  0  0  0  0  0  0  0  0
   20.8283   -6.2352  -13.6586 C   0  0  1  0  0  0  0  0  0  0  0  0
   20.4570   -6.3996  -12.1984 C   0  0  0  0  0  0  0  0  0  0  0  0
   19.0757   -7.5275  -11.9879 S   0  0  0  0  0  0  0  0  0  0  0  0
   21.9199   -5.2453  -13.7959 C   0  0  0  0  0  0  0  0  0  0  0  0
   23.1008   -5.5797  -14.0727 O   0  0  0  0  0  0  0  0  0  0  0  0
   21.6688   -3.8932  -13.6200 O   0  0  0  0  0  0  0  0  0  0  0  0
  2  1  1  6
  2  4  1  0
  3  2  1  0
  4  6  1  0
  4  5  1  1
  6  7  2  0
  9  8  1  6
 10  9  1  0
 10  6  1  0
 11 12  2  0
 11  9  1  0
 13 11  1  0
 14 13  1  0
 14 15  1  1
 16 15  1  0
 17 19  1  0
 17 14  1  0
 18 17  2  0
M  END
$$$$
