VAC.pdb
     RDKit          3D

 19 18  0  0  1  0  0  0  0  0999 V2000
   23.2133   -9.2559  -15.7335 C   0  0  0  0  0  0  0  0  0  0  0  0
   22.5601   -9.9458  -14.5569 C   0  0  2  0  0  0  0  0  0  0  0  0
   23.5509  -10.9274  -13.9385 C   0  0  0  0  0  0  0  0  0  0  0  0
   21.3392  -10.7265  -14.9563 C   0  0  2  0  0  0  0  0  0  0  0  0
   21.6126  -11.7840  -15.8747 N   0  0  0  0  0  0  0  0  0  0  0  0
   20.3668   -9.7891  -15.5714 C   0  0  0  0  0  0  0  0  0  0  0  0
   20.4110   -9.5256  -16.8229 O   0  0  0  0  0  0  0  0  0  0  0  0
   17.0756   -8.3556  -14.5560 C   0  0  0  0  0  0  0  0  0  0  0  0
   18.3610   -8.3429  -15.3540 C   0  0  2  0  0  0  0  0  0  0  0  0
   19.3726   -9.1726  -14.7697 N   0  0  0  0  0  0  0  0  0  0  0  0
   18.7732   -6.9320  -15.4879 C   0  0  0  0  0  0  0  0  0  0  0  0
   19.5134   -6.4404  -14.6142 O   0  0  0  0  0  0  0  0  0  0  0  0
   18.3530   -6.1342  -16.5714 N   0  0  0  0  0  0  0  0  0  0  0  0
   18.7739   -4.7632  -16.7666 C   0  0  1  0  0  0  0  0  0  0  0  0
   18.3682   -4.2581  -18.1367 C   0  0  0  0  0  0  0  0  0  0  0  0
   19.0227   -5.2967  -19.4473 S   0  0  0  0  0  0  0  0  0  0  0  0
   18.1621   -3.9214  -15.7142 C   0  0  0  0  0  0  0  0  0  0  0  0
   17.0088   -4.1415  -15.2622 O   0  0  0  0  0  0  0  0  0  0  0  0
   18.8555   -2.8439  -15.1846 O   0  0  0  0  0  0  0  0  0  0  0  0
  2  1  1  6
  2  4  1  0
  3  2  1  0
  4  6  1  0
  4  5  1  6
  6  7  2  0
  9  8  1  1
 10  9  1  0
 10  6  1  0
 11 12  2  0
 11  9  1  0
 13 11  1  0
 14 13  1  0
 14 15  1  6
 16 15  1  0
 17 19  1  0
 17 14  1  0
 18 17  2  0
M  END
$$$$
