GET.pdb
     RDKit          3D

 21 20  0  0  1  0  0  0  0  0999 V2000
    7.0180  -13.0474   18.5677 N   0  0  0  0  0  0  0  0  0  0  0  0
    8.0911  -12.8721   19.5235 C   0  0  0  0  0  0  0  0  0  0  0  0
    7.9395  -13.8776   20.6068 C   0  0  0  0  0  0  0  0  0  0  0  0
    6.7920  -14.2919   20.9310 O   0  0  0  0  0  0  0  0  0  0  0  0
    9.0426  -14.4106   21.3151 N   0  0  0  0  0  0  0  0  0  0  0  0
    8.9175  -15.3805   22.3824 C   0  0  1  0  0  0  0  0  0  0  0  0
    9.9324  -16.4762   22.2780 C   0  0  0  0  0  0  0  0  0  0  0  0
    9.6978  -17.5558   23.3165 C   0  0  0  0  0  0  0  0  0  0  0  0
   10.7233  -18.6138   23.1715 C   0  0  0  0  0  0  0  0  0  0  0  0
   10.3582  -19.7736   22.8045 O   0  0  0  0  0  0  0  0  0  0  0  0
    9.0186  -14.7572   23.7231 C   0  0  0  0  0  0  0  0  0  0  0  0
   10.0416  -14.1153   24.0460 O   0  0  0  0  0  0  0  0  0  0  0  0
   12.0259  -18.2634   23.4502 O   0  0  0  0  0  0  0  0  0  0  0  0
    6.7506  -12.2889   25.3853 C   0  0  0  0  0  0  0  0  0  0  0  0
    6.8631  -13.4682   26.3304 C   0  0  1  0  0  0  0  0  0  0  0  0
    5.7918  -14.3314   26.0036 O   0  0  0  0  0  0  0  0  0  0  0  0
    8.1330  -14.2230   25.9649 C   0  0  2  0  0  0  0  0  0  0  0  0
    7.9698  -14.8655   24.6687 N   0  0  0  0  0  0  0  0  0  0  0  0
    8.5129  -15.2165   27.0006 C   0  0  0  0  0  0  0  0  0  0  0  0
    8.7973  -14.7686   28.2869 O   0  0  0  0  0  0  0  0  0  0  0  0
    8.6002  -16.4442   26.8030 O   0  0  0  0  0  0  0  0  0  0  0  0
  2  1  1  0
  3  5  1  0
  3  2  1  0
  4  3  2  0
  6 11  1  0
  6  5  1  0
  6  7  1  6
  8  7  1  0
  9 10  2  0
  9  8  1  0
 11 18  1  0
 12 11  2  0
 13  9  1  0
 15 14  1  6
 16 15  1  0
 17 19  1  0
 17 15  1  0
 17 18  1  6
 19 20  1  0
 21 19  2  0
M  END
$$$$
