GET.pdb
     RDKit          3D

 21 20  0  0  1  0  0  0  0  0999 V2000
    8.8544  -17.3121   19.8884 N   0  0  0  0  0  0  0  0  0  0  0  0
    9.4289  -18.0197   21.0131 C   0  0  0  0  0  0  0  0  0  0  0  0
    8.7598  -17.5660   22.2597 C   0  0  0  0  0  0  0  0  0  0  0  0
    8.0794  -16.5028   22.2630 O   0  0  0  0  0  0  0  0  0  0  0  0
    8.8468  -18.2810   23.4778 N   0  0  0  0  0  0  0  0  0  0  0  0
    8.1532  -17.8919   24.6873 C   0  0  1  0  0  0  0  0  0  0  0  0
    7.8517  -19.0613   25.5722 C   0  0  0  0  0  0  0  0  0  0  0  0
    6.8716  -20.0171   24.9203 C   0  0  0  0  0  0  0  0  0  0  0  0
    6.6079  -21.1539   25.8314 C   0  0  0  0  0  0  0  0  0  0  0  0
    7.2553  -21.2272   26.9216 O   0  0  0  0  0  0  0  0  0  0  0  0
    8.9060  -16.8807   25.4665 C   0  0  0  0  0  0  0  0  0  0  0  0
   10.1541  -16.8390   25.4083 O   0  0  0  0  0  0  0  0  0  0  0  0
    5.6630  -22.0714   25.4281 O   0  0  0  0  0  0  0  0  0  0  0  0
    9.1108  -12.6449   27.8408 C   0  0  0  0  0  0  0  0  0  0  0  0
    8.2035  -13.6837   27.2130 C   0  0  1  0  0  0  0  0  0  0  0  0
    7.8778  -13.1898   25.9287 O   0  0  0  0  0  0  0  0  0  0  0  0
    9.0390  -14.9340   26.9792 C   0  0  2  0  0  0  0  0  0  0  0  0
    8.2421  -15.9386   26.2895 N   0  0  0  0  0  0  0  0  0  0  0  0
    9.5964  -15.4805   28.2420 C   0  0  0  0  0  0  0  0  0  0  0  0
   10.5526  -14.7390   28.9290 O   0  0  0  0  0  0  0  0  0  0  0  0
    9.2693  -16.5740   28.7433 O   0  0  0  0  0  0  0  0  0  0  0  0
  2  1  1  0
  3  5  1  0
  3  2  1  0
  4  3  2  0
  6 11  1  0
  6  5  1  0
  6  7  1  1
  8  7  1  0
  9 10  2  0
  9  8  1  0
 11 18  1  0
 12 11  2  0
 13  9  1  0
 15 14  1  1
 16 15  1  0
 17 19  1  0
 17 15  1  0
 17 18  1  1
 19 20  1  0
 21 19  2  0
M  END
$$$$
