GET.pdb
     RDKit          3D

 21 20  0  0  1  0  0  0  0  0999 V2000
    7.0218  -13.5334   19.7037 N   0  0  0  0  0  0  0  0  0  0  0  0
    7.6838  -14.7383   20.1573 C   0  0  0  0  0  0  0  0  0  0  0  0
    7.3577  -14.9560   21.5905 C   0  0  0  0  0  0  0  0  0  0  0  0
    6.7970  -14.0435   22.2586 O   0  0  0  0  0  0  0  0  0  0  0  0
    7.6503  -16.1645   22.2661 N   0  0  0  0  0  0  0  0  0  0  0  0
    7.3725  -16.3862   23.6693 C   0  0  1  0  0  0  0  0  0  0  0  0
    7.5167  -17.8249   24.0580 C   0  0  0  0  0  0  0  0  0  0  0  0
    7.1595  -18.0486   25.5145 C   0  0  0  0  0  0  0  0  0  0  0  0
    7.2738  -19.4891   25.8369 C   0  0  0  0  0  0  0  0  0  0  0  0
    7.6319  -20.2943   24.9223 O   0  0  0  0  0  0  0  0  0  0  0  0
    8.2332  -15.5615   24.5500 C   0  0  0  0  0  0  0  0  0  0  0  0
    9.3831  -15.2354   24.1840 O   0  0  0  0  0  0  0  0  0  0  0  0
    6.9780  -19.8654   27.1285 O   0  0  0  0  0  0  0  0  0  0  0  0
    6.4700  -12.9703   27.2424 C   0  0  0  0  0  0  0  0  0  0  0  0
    7.7367  -12.7629   26.4367 C   0  0  1  0  0  0  0  0  0  0  0  0
    8.5026  -11.8150   27.1541 O   0  0  0  0  0  0  0  0  0  0  0  0
    8.5262  -14.0629   26.4900 C   0  0  2  0  0  0  0  0  0  0  0  0
    7.7833  -15.1195   25.8181 N   0  0  0  0  0  0  0  0  0  0  0  0
    8.8625  -14.4585   27.8808 C   0  0  0  0  0  0  0  0  0  0  0  0
    9.6640  -13.6141   28.6428 O   0  0  0  0  0  0  0  0  0  0  0  0
    8.4766  -15.5096   28.4287 O   0  0  0  0  0  0  0  0  0  0  0  0
  2  1  1  0
  3  5  1  0
  3  2  1  0
  4  3  2  0
  6 11  1  0
  6  5  1  0
  6  7  1  1
  8  7  1  0
  9 10  2  0
  9  8  1  0
 11 18  1  0
 12 11  2  0
 13  9  1  0
 15 14  1  1
 16 15  1  0
 17 19  1  0
 17 15  1  0
 17 18  1  1
 19 20  1  0
 21 19  2  0
M  END
$$$$
