GET.pdb
     RDKit          3D

 21 20  0  0  1  0  0  0  0  0999 V2000
    6.6458  -16.3482   19.1546 N   0  0  0  0  0  0  0  0  0  0  0  0
    7.8015  -16.2694   20.0230 C   0  0  0  0  0  0  0  0  0  0  0  0
    7.3393  -16.1793   21.4322 C   0  0  0  0  0  0  0  0  0  0  0  0
    6.2522  -15.5995   21.7068 O   0  0  0  0  0  0  0  0  0  0  0  0
    8.0724  -16.7233   22.5135 N   0  0  0  0  0  0  0  0  0  0  0  0
    7.7143  -16.5304   23.9027 C   0  0  1  0  0  0  0  0  0  0  0  0
    8.2080  -17.6406   24.7775 C   0  0  0  0  0  0  0  0  0  0  0  0
    7.0969  -18.6102   25.1302 C   0  0  0  0  0  0  0  0  0  0  0  0
    7.6460  -19.7177   25.9449 C   0  0  0  0  0  0  0  0  0  0  0  0
    7.8322  -20.8475   25.3955 O   0  0  0  0  0  0  0  0  0  0  0  0
    8.2102  -15.2401   24.4372 C   0  0  0  0  0  0  0  0  0  0  0  0
    8.6548  -14.3647   23.6634 O   0  0  0  0  0  0  0  0  0  0  0  0
    7.9216  -19.4438   27.2664 O   0  0  0  0  0  0  0  0  0  0  0  0
    6.4695  -11.7017   26.4266 C   0  0  0  0  0  0  0  0  0  0  0  0
    6.7067  -13.0314   25.7394 C   0  0  1  0  0  0  0  0  0  0  0  0
    6.9174  -12.7308   24.3738 O   0  0  0  0  0  0  0  0  0  0  0  0
    8.0298  -13.5790   26.2547 C   0  0  2  0  0  0  0  0  0  0  0  0
    8.1931  -14.9606   25.8255 N   0  0  0  0  0  0  0  0  0  0  0  0
    8.1456  -13.4692   27.7307 C   0  0  0  0  0  0  0  0  0  0  0  0
    8.3651  -12.2163   28.2946 O   0  0  0  0  0  0  0  0  0  0  0  0
    8.0616  -14.4313   28.5190 O   0  0  0  0  0  0  0  0  0  0  0  0
  2  1  1  0
  3  5  1  0
  3  2  1  0
  4  3  2  0
  6 11  1  0
  6  5  1  0
  6  7  1  1
  8  7  1  0
  9 10  2  0
  9  8  1  0
 11 18  1  0
 12 11  2  0
 13  9  1  0
 15 14  1  1
 16 15  1  0
 17 19  1  0
 17 15  1  0
 17 18  1  1
 19 20  1  0
 21 19  2  0
M  END
$$$$
