GET.pdb
     RDKit          3D

 21 20  0  0  1  0  0  0  0  0999 V2000
    9.4058  -19.6231   16.3799 N   0  0  0  0  0  0  0  0  0  0  0  0
   10.6215  -19.2235   17.0568 C   0  0  0  0  0  0  0  0  0  0  0  0
   10.3622  -19.1683   18.5188 C   0  0  0  0  0  0  0  0  0  0  0  0
    9.3659  -18.5326   18.9623 O   0  0  0  0  0  0  0  0  0  0  0  0
   11.1952  -19.8073   19.4677 N   0  0  0  0  0  0  0  0  0  0  0  0
   10.9221  -19.8285   20.8891 C   0  0  1  0  0  0  0  0  0  0  0  0
   11.7810  -20.8136   21.6194 C   0  0  0  0  0  0  0  0  0  0  0  0
   11.3303  -20.9906   23.0562 C   0  0  0  0  0  0  0  0  0  0  0  0
   12.1675  -22.0187   23.7150 C   0  0  0  0  0  0  0  0  0  0  0  0
   11.5956  -22.9825   24.3126 O   0  0  0  0  0  0  0  0  0  0  0  0
   11.0842  -18.4939   21.5127 C   0  0  0  0  0  0  0  0  0  0  0  0
   11.9765  -17.7144   21.1141 O   0  0  0  0  0  0  0  0  0  0  0  0
   13.5330  -21.8575   23.6348 O   0  0  0  0  0  0  0  0  0  0  0  0
    9.1572  -14.6156   23.5397 C   0  0  0  0  0  0  0  0  0  0  0  0
    8.9946  -16.0071   22.9618 C   0  0  1  0  0  0  0  0  0  0  0  0
    8.7200  -15.8269   21.5864 O   0  0  0  0  0  0  0  0  0  0  0  0
   10.3537  -16.6883   23.0298 C   0  0  2  0  0  0  0  0  0  0  0  0
   10.2404  -18.0637   22.5657 N   0  0  0  0  0  0  0  0  0  0  0  0
   10.9381  -16.6396   24.3937 C   0  0  0  0  0  0  0  0  0  0  0  0
   11.7610  -15.5700   24.7326 O   0  0  0  0  0  0  0  0  0  0  0  0
   10.7464  -17.5000   25.2751 O   0  0  0  0  0  0  0  0  0  0  0  0
  2  1  1  0
  3  5  1  0
  3  2  1  0
  4  3  2  0
  6 11  1  0
  6  5  1  0
  6  7  1  1
  8  7  1  0
  9 10  2  0
  9  8  1  0
 11 18  1  0
 12 11  2  0
 13  9  1  0
 15 14  1  1
 16 15  1  0
 17 19  1  0
 17 15  1  0
 17 18  1  1
 19 20  1  0
 21 19  2  0
M  END
$$$$
