GET.pdb
     RDKit          3D

 21 20  0  0  1  0  0  0  0  0999 V2000
    7.8420  -13.6652   16.3397 N   0  0  0  0  0  0  0  0  0  0  0  0
    8.8271  -12.9665   17.1381 C   0  0  0  0  0  0  0  0  0  0  0  0
    9.4250  -13.9204   18.1076 C   0  0  0  0  0  0  0  0  0  0  0  0
    8.8511  -15.0175   18.3535 O   0  0  0  0  0  0  0  0  0  0  0  0
   10.6369  -13.6583   18.7898 N   0  0  0  0  0  0  0  0  0  0  0  0
   11.2773  -14.6041   19.6789 C   0  0  1  0  0  0  0  0  0  0  0  0
   12.7460  -14.3495   19.8189 C   0  0  0  0  0  0  0  0  0  0  0  0
   13.5044  -14.7525   18.5693 C   0  0  0  0  0  0  0  0  0  0  0  0
   14.9528  -14.5232   18.7733 C   0  0  0  0  0  0  0  0  0  0  0  0
   15.3937  -14.4127   19.9593 O   0  0  0  0  0  0  0  0  0  0  0  0
   10.6606  -14.6154   21.0265 C   0  0  0  0  0  0  0  0  0  0  0  0
   10.4871  -13.5464   21.6509 O   0  0  0  0  0  0  0  0  0  0  0  0
   15.7376  -14.4427   17.6442 O   0  0  0  0  0  0  0  0  0  0  0  0
    7.4789  -16.1780   24.1328 C   0  0  0  0  0  0  0  0  0  0  0  0
    8.1553  -16.3166   22.7838 C   0  0  1  0  0  0  0  0  0  0  0  0
    7.4705  -15.4372   21.9136 O   0  0  0  0  0  0  0  0  0  0  0  0
    9.5627  -15.7543   22.9220 C   0  0  2  0  0  0  0  0  0  0  0  0
   10.2502  -15.8239   21.6405 N   0  0  0  0  0  0  0  0  0  0  0  0
   10.3433  -16.4489   23.9765 C   0  0  0  0  0  0  0  0  0  0  0  0
    9.9628  -16.2916   25.3056 O   0  0  0  0  0  0  0  0  0  0  0  0
   11.3334  -17.1746   23.7595 O   0  0  0  0  0  0  0  0  0  0  0  0
  2  1  1  0
  3  5  1  0
  3  2  1  0
  4  3  2  0
  6 11  1  0
  6  5  1  0
  6  7  1  1
  8  7  1  0
  9 10  2  0
  9  8  1  0
 11 18  1  0
 12 11  2  0
 13  9  1  0
 15 14  1  1
 16 15  1  0
 17 19  1  0
 17 15  1  0
 17 18  1  6
 19 20  1  0
 21 19  2  0
M  END
$$$$
