GET.pdb
     RDKit          3D

 21 20  0  0  1  0  0  0  0  0999 V2000
   12.5818  -29.1033   28.0112 N   0  0  0  0  0  0  0  0  0  0  0  0
   12.7746  -27.8367   27.3372 C   0  0  0  0  0  0  0  0  0  0  0  0
   13.1772  -26.8153   28.3384 C   0  0  0  0  0  0  0  0  0  0  0  0
   12.8407  -26.9463   29.5480 O   0  0  0  0  0  0  0  0  0  0  0  0
   13.9384  -25.6713   27.9999 N   0  0  0  0  0  0  0  0  0  0  0  0
   14.2622  -24.6173   28.9378 C   0  0  1  0  0  0  0  0  0  0  0  0
   15.2952  -23.6755   28.4017 C   0  0  0  0  0  0  0  0  0  0  0  0
   16.6442  -24.3516   28.2533 C   0  0  0  0  0  0  0  0  0  0  0  0
   17.6025  -23.4129   27.6267 C   0  0  0  0  0  0  0  0  0  0  0  0
   17.5638  -23.2488   26.3679 O   0  0  0  0  0  0  0  0  0  0  0  0
   13.0675  -23.8401   29.3444 C   0  0  0  0  0  0  0  0  0  0  0  0
   12.1435  -23.6291   28.5293 O   0  0  0  0  0  0  0  0  0  0  0  0
   18.4868  -22.7709   28.4651 O   0  0  0  0  0  0  0  0  0  0  0  0
    9.7270  -22.8302   32.5182 C   0  0  0  0  0  0  0  0  0  0  0  0
   10.9723  -23.5726   32.0768 C   0  0  1  0  0  0  0  0  0  0  0  0
   10.5166  -24.7188   31.3852 O   0  0  0  0  0  0  0  0  0  0  0  0
   11.6710  -22.7086   31.0370 C   0  0  2  0  0  0  0  0  0  0  0  0
   12.9356  -23.3209   30.6554 N   0  0  0  0  0  0  0  0  0  0  0  0
   11.8818  -21.3182   31.5128 C   0  0  0  0  0  0  0  0  0  0  0  0
   10.7701  -20.5288   31.7900 O   0  0  0  0  0  0  0  0  0  0  0  0
   12.9989  -20.7926   31.6848 O   0  0  0  0  0  0  0  0  0  0  0  0
  2  1  1  0
  3  5  1  0
  3  2  1  0
  4  3  2  0
  6 11  1  0
  6  5  1  0
  6  7  1  6
  8  7  1  0
  9 10  2  0
  9  8  1  0
 11 18  1  0
 12 11  2  0
 13  9  1  0
 15 14  1  6
 16 15  1  0
 17 19  1  0
 17 15  1  0
 17 18  1  1
 19 20  1  0
 21 19  2  0
M  END
$$$$
