VNY.pdb
     RDKit          3D

 28 28  0  0  1  0  0  0  0  0999 V2000
    8.2117  -12.4416   18.7922 C   0  0  0  0  0  0  0  0  0  0  0  0
    8.3020  -13.4147   19.9431 C   0  0  1  0  0  0  0  0  0  0  0  0
    6.9476  -13.3747   20.6488 C   0  0  0  0  0  0  0  0  0  0  0  0
    8.5006  -14.8085   19.3878 C   0  0  2  0  0  0  0  0  0  0  0  0
    7.4427  -15.0794   18.4550 N   0  0  0  0  0  0  0  0  0  0  0  0
    8.4833  -15.8151   20.4791 C   0  0  0  0  0  0  0  0  0  0  0  0
    7.5448  -16.6206   20.6541 O   0  0  0  0  0  0  0  0  0  0  0  0
    8.7300  -19.0179   19.1724 N   0  0  0  0  0  0  0  0  0  0  0  0
    8.9771  -18.8655   20.5780 C   0  0  0  0  0  0  0  0  0  0  0  0
    8.0949  -19.3198   21.3398 O   0  0  0  0  0  0  0  0  0  0  0  0
   10.2198  -18.2020   21.0286 C   0  0  0  0  0  0  0  0  0  0  0  0
    9.9860  -17.1082   22.0235 C   0  0  2  0  0  0  0  0  0  0  0  0
    9.5791  -15.8858   21.3840 N   0  0  0  0  0  0  0  0  0  0  0  0
   11.2071  -16.8564   22.8424 C   0  0  0  0  0  0  0  0  0  0  0  0
   12.0468  -17.7738   23.0192 O   0  0  0  0  0  0  0  0  0  0  0  0
   10.5778  -15.1168   31.1321 O   0  0  0  0  0  0  0  0  0  0  0  0
   10.4660  -15.1590   29.7492 C   0  0  0  0  0  0  0  0  0  0  0  0
   10.5308  -16.3480   29.0573 C   0  0  0  0  0  0  0  0  0  0  0  0
   10.4170  -16.3630   27.6862 C   0  0  0  0  0  0  0  0  0  0  0  0
   10.2350  -15.2111   26.9373 C   0  0  0  0  0  0  0  0  0  0  0  0
   10.1405  -15.2916   25.4682 C   0  0  0  0  0  0  0  0  0  0  0  0
   11.5021  -15.4252   24.8792 C   0  0  2  0  0  0  0  0  0  0  0  0
   11.4707  -15.6068   23.4424 N   0  0  0  0  0  0  0  0  0  0  0  0
   12.3325  -16.5009   25.4587 C   0  0  0  0  0  0  0  0  0  0  0  0
   11.9956  -17.8438   25.3045 O   0  0  0  0  0  0  0  0  0  0  0  0
   10.1739  -14.0354   27.6545 C   0  0  0  0  0  0  0  0  0  0  0  0
   10.2856  -13.9995   29.0285 C   0  0  0  0  0  0  0  0  0  0  0  0
   13.3719  -16.2596   26.1117 O   0  0  0  0  0  0  0  0  0  0  0  0
  2  3  1  6
  2  1  1  0
  4  5  1  6
  4  2  1  0
  6  4  1  0
  7  6  2  0
  9 11  1  0
  9  8  1  0
 10  9  2  0
 12 11  1  6
 12 13  1  0
 13  6  1  0
 14 12  1  0
 14 15  2  0
 17 16  1  0
 17 18  2  0
 19 18  1  0
 20 19  2  0
 21 20  1  0
 22 21  1  1
 23 22  1  0
 23 14  1  0
 24 22  1  0
 25 24  1  0
 26 27  2  0
 26 20  1  0
 27 17  1  0
 28 24  2  0
M  END
$$$$
