VNY.pdb
     RDKit          3D

 28 28  0  0  1  0  0  0  0  0999 V2000
    7.7105  -12.0929   18.7942 C   0  0  0  0  0  0  0  0  0  0  0  0
    7.3913  -13.2897   19.6575 C   0  0  1  0  0  0  0  0  0  0  0  0
    7.3962  -14.5039   18.7304 C   0  0  0  0  0  0  0  0  0  0  0  0
    8.5011  -13.4689   20.6709 C   0  0  2  0  0  0  0  0  0  0  0  0
    9.7475  -13.5692   19.9645 N   0  0  0  0  0  0  0  0  0  0  0  0
    8.2786  -14.6928   21.4814 C   0  0  0  0  0  0  0  0  0  0  0  0
    7.2192  -14.9205   22.1027 O   0  0  0  0  0  0  0  0  0  0  0  0
   10.1534  -19.1101   24.1178 N   0  0  0  0  0  0  0  0  0  0  0  0
   10.0290  -19.1828   22.6898 C   0  0  0  0  0  0  0  0  0  0  0  0
    9.8559  -20.3270   22.2145 O   0  0  0  0  0  0  0  0  0  0  0  0
   10.1102  -17.9413   21.8901 C   0  0  0  0  0  0  0  0  0  0  0  0
    9.1860  -16.8636   22.3646 C   0  0  2  0  0  0  0  0  0  0  0  0
    9.3086  -15.6704   21.5706 N   0  0  0  0  0  0  0  0  0  0  0  0
    9.4361  -16.5331   23.7975 C   0  0  0  0  0  0  0  0  0  0  0  0
   10.3951  -15.7855   24.1130 O   0  0  0  0  0  0  0  0  0  0  0  0
    6.4281  -10.8178   25.9845 O   0  0  0  0  0  0  0  0  0  0  0  0
    6.7216  -12.1550   26.2138 C   0  0  0  0  0  0  0  0  0  0  0  0
    5.8803  -13.1598   25.7905 C   0  0  0  0  0  0  0  0  0  0  0  0
    6.1940  -14.4779   26.0302 C   0  0  0  0  0  0  0  0  0  0  0  0
    7.3469  -14.8642   26.6954 C   0  0  0  0  0  0  0  0  0  0  0  0
    7.6163  -16.2931   26.9391 C   0  0  0  0  0  0  0  0  0  0  0  0
    8.8617  -16.7020   26.2317 C   0  0  2  0  0  0  0  0  0  0  0  0
    8.6279  -17.0321   24.8408 N   0  0  0  0  0  0  0  0  0  0  0  0
    9.5945  -17.8251   26.8518 C   0  0  0  0  0  0  0  0  0  0  0  0
   10.0448  -17.7617   28.1686 O   0  0  0  0  0  0  0  0  0  0  0  0
    8.1708  -13.8389   27.1082 C   0  0  0  0  0  0  0  0  0  0  0  0
    7.8741  -12.5121   26.8776 C   0  0  0  0  0  0  0  0  0  0  0  0
    9.8444  -18.8805   26.2285 O   0  0  0  0  0  0  0  0  0  0  0  0
  2  3  1  6
  2  1  1  0
  4  5  1  6
  4  2  1  0
  6  4  1  0
  7  6  2  0
  9 11  1  0
  9  8  1  0
 10  9  2  0
 12 11  1  6
 12 13  1  0
 13  6  1  0
 14 12  1  0
 14 15  2  0
 17 16  1  0
 17 18  2  0
 19 18  1  0
 20 19  2  0
 21 20  1  0
 22 21  1  1
 23 22  1  0
 23 14  1  0
 24 22  1  0
 25 24  1  0
 26 27  2  0
 26 20  1  0
 27 17  1  0
 28 24  2  0
M  END
$$$$
