VNY.pdb
     RDKit          3D

 28 28  0  0  1  0  0  0  0  0999 V2000
    6.3163  -13.0403   18.8065 C   0  0  0  0  0  0  0  0  0  0  0  0
    7.6447  -13.7544   18.8755 C   0  0  1  0  0  0  0  0  0  0  0  0
    8.6164  -12.7930   19.5577 C   0  0  0  0  0  0  0  0  0  0  0  0
    7.4959  -14.9752   19.7577 C   0  0  2  0  0  0  0  0  0  0  0  0
    7.0728  -14.5437   21.0604 N   0  0  0  0  0  0  0  0  0  0  0  0
    8.7832  -15.7080   19.8604 C   0  0  0  0  0  0  0  0  0  0  0  0
    9.1032  -16.6421   19.0954 O   0  0  0  0  0  0  0  0  0  0  0  0
   13.2856  -17.6534   20.2517 N   0  0  0  0  0  0  0  0  0  0  0  0
   13.3372  -16.2313   20.4388 C   0  0  0  0  0  0  0  0  0  0  0  0
   14.4706  -15.7509   20.6616 O   0  0  0  0  0  0  0  0  0  0  0  0
   12.0882  -15.4431   20.3598 C   0  0  0  0  0  0  0  0  0  0  0  0
   10.9423  -16.0642   21.0960 C   0  0  2  0  0  0  0  0  0  0  0  0
    9.7156  -15.3470   20.8726 N   0  0  0  0  0  0  0  0  0  0  0  0
   11.2174  -16.1314   22.5605 C   0  0  0  0  0  0  0  0  0  0  0  0
   12.2624  -16.6884   22.9799 O   0  0  0  0  0  0  0  0  0  0  0  0
   10.9228  -15.2741   31.2566 O   0  0  0  0  0  0  0  0  0  0  0  0
   10.5916  -15.1832   29.9116 C   0  0  0  0  0  0  0  0  0  0  0  0
    9.8730  -16.1728   29.2784 C   0  0  0  0  0  0  0  0  0  0  0  0
    9.5572  -16.0588   27.9440 C   0  0  0  0  0  0  0  0  0  0  0  0
    9.9338  -14.9684   27.1759 C   0  0  0  0  0  0  0  0  0  0  0  0
    9.5819  -14.9149   25.7452 C   0  0  0  0  0  0  0  0  0  0  0  0
   10.6411  -15.5814   24.9373 C   0  0  2  0  0  0  0  0  0  0  0  0
   10.3389  -15.5862   23.5206 N   0  0  0  0  0  0  0  0  0  0  0  0
   10.9598  -16.9660   25.3423 C   0  0  0  0  0  0  0  0  0  0  0  0
   10.2037  -18.0474   24.8954 O   0  0  0  0  0  0  0  0  0  0  0  0
   10.6519  -13.9930   27.8343 C   0  0  0  0  0  0  0  0  0  0  0  0
   10.9782  -14.0887   29.1707 C   0  0  0  0  0  0  0  0  0  0  0  0
   11.9178  -17.2327   26.1012 O   0  0  0  0  0  0  0  0  0  0  0  0
  2  3  1  1
  2  1  1  0
  4  5  1  1
  4  2  1  0
  6  4  1  0
  7  6  2  0
  9 11  1  0
  9  8  1  0
 10  9  2  0
 12 11  1  6
 12 13  1  0
 13  6  1  0
 14 12  1  0
 14 15  2  0
 17 16  1  0
 17 18  2  0
 19 18  1  0
 20 19  2  0
 21 20  1  0
 22 21  1  1
 23 22  1  0
 23 14  1  0
 24 22  1  0
 25 24  1  0
 26 27  2  0
 26 20  1  0
 27 17  1  0
 28 24  2  0
M  END
$$$$
