VNY.pdb
     RDKit          3D

 28 28  0  0  1  0  0  0  0  0999 V2000
    8.9983  -12.9051   20.2331 C   0  0  0  0  0  0  0  0  0  0  0  0
    7.9122  -13.6865   19.5335 C   0  0  1  0  0  0  0  0  0  0  0  0
    7.4633  -12.8341   18.3478 C   0  0  0  0  0  0  0  0  0  0  0  0
    8.5069  -14.9682   18.9912 C   0  0  2  0  0  0  0  0  0  0  0  0
    7.5113  -15.6270   18.1928 N   0  0  0  0  0  0  0  0  0  0  0  0
    8.9363  -15.8573   20.1000 C   0  0  0  0  0  0  0  0  0  0  0  0
    8.1453  -16.5707   20.7524 O   0  0  0  0  0  0  0  0  0  0  0  0
   12.9430  -18.0504   19.0874 N   0  0  0  0  0  0  0  0  0  0  0  0
   12.2059  -18.2754   20.2983 C   0  0  0  0  0  0  0  0  0  0  0  0
   11.6332  -19.3838   20.3908 O   0  0  0  0  0  0  0  0  0  0  0  0
   12.1681  -17.2182   21.3319 C   0  0  0  0  0  0  0  0  0  0  0  0
   10.7957  -16.6743   21.5801 C   0  0  2  0  0  0  0  0  0  0  0  0
   10.3125  -15.9174   20.4565 N   0  0  0  0  0  0  0  0  0  0  0  0
   10.7693  -15.8190   22.8019 C   0  0  0  0  0  0  0  0  0  0  0  0
   11.1281  -14.6169   22.7368 O   0  0  0  0  0  0  0  0  0  0  0  0
    5.6649  -11.5248   28.0087 O   0  0  0  0  0  0  0  0  0  0  0  0
    6.3411  -12.3222   27.0956 C   0  0  0  0  0  0  0  0  0  0  0  0
    5.7650  -13.4537   26.5624 C   0  0  0  0  0  0  0  0  0  0  0  0
    6.4563  -14.2275   25.6588 C   0  0  0  0  0  0  0  0  0  0  0  0
    7.7422  -13.9224   25.2412 C   0  0  0  0  0  0  0  0  0  0  0  0
    8.4377  -14.8034   24.2853 C   0  0  0  0  0  0  0  0  0  0  0  0
    9.5499  -15.5183   24.9714 C   0  0  2  0  0  0  0  0  0  0  0  0
   10.3506  -16.3073   24.0578 N   0  0  0  0  0  0  0  0  0  0  0  0
    9.1379  -16.3910   26.0900 C   0  0  0  0  0  0  0  0  0  0  0  0
    9.1957  -17.7793   25.9896 O   0  0  0  0  0  0  0  0  0  0  0  0
    8.2949  -12.7852   25.7905 C   0  0  0  0  0  0  0  0  0  0  0  0
    7.6184  -11.9967   26.6973 C   0  0  0  0  0  0  0  0  0  0  0  0
    8.7198  -15.9286   27.1745 O   0  0  0  0  0  0  0  0  0  0  0  0
  2  3  1  6
  2  1  1  0
  4  5  1  1
  4  2  1  0
  6  4  1  0
  7  6  2  0
  9 11  1  0
  9  8  1  0
 10  9  2  0
 12 11  1  6
 12 13  1  0
 13  6  1  0
 14 12  1  0
 14 15  2  0
 17 16  1  0
 17 18  2  0
 19 18  1  0
 20 19  2  0
 21 20  1  0
 22 21  1  6
 23 22  1  0
 23 14  1  0
 24 22  1  0
 25 24  1  0
 26 27  2  0
 26 20  1  0
 27 17  1  0
 28 24  2  0
M  END
$$$$
