VNY.pdb
     RDKit          3D

 28 28  0  0  1  0  0  0  0  0999 V2000
    8.3399  -12.6014   20.4719 C   0  0  0  0  0  0  0  0  0  0  0  0
    7.5268  -13.5038   19.5751 C   0  0  1  0  0  0  0  0  0  0  0  0
    7.9936  -13.2268   18.1471 C   0  0  0  0  0  0  0  0  0  0  0  0
    7.8565  -14.9435   19.9053 C   0  0  2  0  0  0  0  0  0  0  0  0
    7.2559  -15.7856   18.9090 N   0  0  0  0  0  0  0  0  0  0  0  0
    7.3414  -15.3042   21.2504 C   0  0  0  0  0  0  0  0  0  0  0  0
    6.2418  -14.9094   21.6920 O   0  0  0  0  0  0  0  0  0  0  0  0
    6.8710  -17.2510   25.9839 N   0  0  0  0  0  0  0  0  0  0  0  0
    7.0156  -18.2715   24.9851 C   0  0  0  0  0  0  0  0  0  0  0  0
    6.8570  -19.4480   25.3798 O   0  0  0  0  0  0  0  0  0  0  0  0
    7.3333  -17.8850   23.5933 C   0  0  0  0  0  0  0  0  0  0  0  0
    7.7421  -16.4521   23.4497 C   0  0  2  0  0  0  0  0  0  0  0  0
    8.1210  -16.1403   22.0976 N   0  0  0  0  0  0  0  0  0  0  0  0
    8.8687  -16.1198   24.3691 C   0  0  0  0  0  0  0  0  0  0  0  0
    8.7211  -16.2314   25.6117 O   0  0  0  0  0  0  0  0  0  0  0  0
    9.9119  -16.8989   30.7651 O   0  0  0  0  0  0  0  0  0  0  0  0
   10.1082  -16.2569   29.5501 C   0  0  0  0  0  0  0  0  0  0  0  0
   10.9512  -16.7727   28.5911 C   0  0  0  0  0  0  0  0  0  0  0  0
   11.1287  -16.1170   27.3945 C   0  0  0  0  0  0  0  0  0  0  0  0
   10.4858  -14.9276   27.0898 C   0  0  0  0  0  0  0  0  0  0  0  0
   10.7338  -14.2631   25.7973 C   0  0  0  0  0  0  0  0  0  0  0  0
   11.1867  -15.2639   24.7914 C   0  0  2  0  0  0  0  0  0  0  0  0
   10.1226  -15.6754   23.8989 N   0  0  0  0  0  0  0  0  0  0  0  0
   11.8086  -16.4803   25.3539 C   0  0  0  0  0  0  0  0  0  0  0  0
   13.0638  -16.4438   25.9569 O   0  0  0  0  0  0  0  0  0  0  0  0
    9.6482  -14.4337   28.0670 C   0  0  0  0  0  0  0  0  0  0  0  0
    9.4570  -15.0758   29.2724 C   0  0  0  0  0  0  0  0  0  0  0  0
   11.2417  -17.5948   25.3161 O   0  0  0  0  0  0  0  0  0  0  0  0
  2  3  1  6
  2  1  1  0
  4  5  1  6
  4  2  1  0
  6  4  1  0
  7  6  2  0
  9 11  1  0
  9  8  1  0
 10  9  2  0
 12 11  1  6
 12 13  1  0
 13  6  1  0
 14 12  1  0
 14 15  2  0
 17 16  1  0
 17 18  2  0
 19 18  1  0
 20 19  2  0
 21 20  1  0
 22 21  1  1
 23 22  1  0
 23 14  1  0
 24 22  1  0
 25 24  1  0
 26 27  2  0
 26 20  1  0
 27 17  1  0
 28 24  2  0
M  END
$$$$
