VNY.pdb
     RDKit          3D

 28 28  0  0  1  0  0  0  0  0999 V2000
    8.4335  -13.0664   17.7483 C   0  0  0  0  0  0  0  0  0  0  0  0
    8.0624  -13.2596   19.1990 C   0  0  1  0  0  0  0  0  0  0  0  0
    6.6228  -13.7709   19.2115 C   0  0  0  0  0  0  0  0  0  0  0  0
    8.9476  -14.3362   19.7888 C   0  0  2  0  0  0  0  0  0  0  0  0
    8.9891  -15.4409   18.8721 N   0  0  0  0  0  0  0  0  0  0  0  0
    8.4208  -14.7873   21.1016 C   0  0  0  0  0  0  0  0  0  0  0  0
    8.2080  -14.0124   22.0578 O   0  0  0  0  0  0  0  0  0  0  0  0
    5.4848  -18.8102   24.1349 N   0  0  0  0  0  0  0  0  0  0  0  0
    6.8598  -18.7312   23.7308 C   0  0  0  0  0  0  0  0  0  0  0  0
    7.6922  -19.2157   24.5293 O   0  0  0  0  0  0  0  0  0  0  0  0
    7.2008  -18.1023   22.4364 C   0  0  0  0  0  0  0  0  0  0  0  0
    7.6886  -16.6931   22.5669 C   0  0  2  0  0  0  0  0  0  0  0  0
    8.1364  -16.1664   21.3055 N   0  0  0  0  0  0  0  0  0  0  0  0
    8.7935  -16.5970   23.5644 C   0  0  0  0  0  0  0  0  0  0  0  0
    9.9341  -17.0436   23.2854 O   0  0  0  0  0  0  0  0  0  0  0  0
    5.3763  -11.4305   27.1823 O   0  0  0  0  0  0  0  0  0  0  0  0
    6.5251  -12.1472   26.8767 C   0  0  0  0  0  0  0  0  0  0  0  0
    6.8266  -12.5067   25.5819 C   0  0  0  0  0  0  0  0  0  0  0  0
    7.9720  -13.2171   25.3051 C   0  0  0  0  0  0  0  0  0  0  0  0
    8.8690  -13.6041   26.2882 C   0  0  0  0  0  0  0  0  0  0  0  0
   10.0689  -14.3820   25.9294 C   0  0  0  0  0  0  0  0  0  0  0  0
    9.7110  -15.8184   25.7635 C   0  0  2  0  0  0  0  0  0  0  0  0
    8.6149  -16.0144   24.8369 N   0  0  0  0  0  0  0  0  0  0  0  0
    9.3852  -16.5315   27.0156 C   0  0  0  0  0  0  0  0  0  0  0  0
   10.2871  -16.5905   28.0756 O   0  0  0  0  0  0  0  0  0  0  0  0
    8.5431  -13.2316   27.5748 C   0  0  0  0  0  0  0  0  0  0  0  0
    7.4002  -12.5196   27.8726 C   0  0  0  0  0  0  0  0  0  0  0  0
    8.2905  -17.1133   27.1836 O   0  0  0  0  0  0  0  0  0  0  0  0
  2  3  1  6
  2  1  1  0
  4  5  1  6
  4  2  1  0
  6  4  1  0
  7  6  2  0
  9 11  1  0
  9  8  1  0
 10  9  2  0
 12 11  1  6
 12 13  1  0
 13  6  1  0
 14 12  1  0
 14 15  2  0
 17 16  1  0
 17 18  2  0
 19 18  1  0
 20 19  2  0
 21 20  1  0
 22 21  1  1
 23 22  1  0
 23 14  1  0
 24 22  1  0
 25 24  1  0
 26 27  2  0
 26 20  1  0
 27 17  1  0
 28 24  2  0
M  END
$$$$
