VNY.pdb
     RDKit          3D

 28 28  0  0  1  0  0  0  0  0999 V2000
    8.1116  -12.3682   18.1502 C   0  0  0  0  0  0  0  0  0  0  0  0
    8.7745  -13.0964   19.2947 C   0  0  1  0  0  0  0  0  0  0  0  0
    7.7567  -13.1274   20.4335 C   0  0  0  0  0  0  0  0  0  0  0  0
    9.0476  -14.5234   18.8707 C   0  0  2  0  0  0  0  0  0  0  0  0
    7.8393  -15.0717   18.3213 N   0  0  0  0  0  0  0  0  0  0  0  0
    9.4926  -15.3386   20.0291 C   0  0  0  0  0  0  0  0  0  0  0  0
    8.7285  -15.6944   20.9509 O   0  0  0  0  0  0  0  0  0  0  0  0
   10.2094  -19.3194   23.3287 N   0  0  0  0  0  0  0  0  0  0  0  0
   11.1083  -18.7389   22.3721 C   0  0  0  0  0  0  0  0  0  0  0  0
   12.3129  -19.0539   22.4940 O   0  0  0  0  0  0  0  0  0  0  0  0
   10.5751  -17.8322   21.3324 C   0  0  0  0  0  0  0  0  0  0  0  0
   11.3555  -16.5628   21.1895 C   0  0  2  0  0  0  0  0  0  0  0  0
   10.8526  -15.7475   20.1164 N   0  0  0  0  0  0  0  0  0  0  0  0
   12.8026  -16.8441   20.9618 C   0  0  0  0  0  0  0  0  0  0  0  0
   13.2228  -17.0821   19.8021 O   0  0  0  0  0  0  0  0  0  0  0  0
   16.7236  -13.1167   16.6336 O   0  0  0  0  0  0  0  0  0  0  0  0
   16.2081  -13.4813   17.8698 C   0  0  0  0  0  0  0  0  0  0  0  0
   14.8691  -13.7546   18.0396 C   0  0  0  0  0  0  0  0  0  0  0  0
   14.3829  -14.1142   19.2755 C   0  0  0  0  0  0  0  0  0  0  0  0
   15.1914  -14.2204   20.3962 C   0  0  0  0  0  0  0  0  0  0  0  0
   14.6060  -14.5905   21.6977 C   0  0  0  0  0  0  0  0  0  0  0  0
   14.9223  -16.0122   22.0099 C   0  0  2  0  0  0  0  0  0  0  0  0
   13.7449  -16.8560   22.0119 N   0  0  0  0  0  0  0  0  0  0  0  0
   15.6431  -16.2290   23.2812 C   0  0  0  0  0  0  0  0  0  0  0  0
   15.1341  -17.0640   24.2734 O   0  0  0  0  0  0  0  0  0  0  0  0
   16.5268  -13.9413   20.1984 C   0  0  0  0  0  0  0  0  0  0  0  0
   17.0333  -13.5794   18.9679 C   0  0  0  0  0  0  0  0  0  0  0  0
   16.7384  -15.6769   23.5267 O   0  0  0  0  0  0  0  0  0  0  0  0
  2  3  1  1
  2  1  1  0
  4  5  1  1
  4  2  1  0
  6  4  1  0
  7  6  2  0
  9 11  1  0
  9  8  1  0
 10  9  2  0
 12 11  1  6
 12 13  1  0
 13  6  1  0
 14 12  1  0
 14 15  2  0
 17 16  1  0
 17 18  2  0
 19 18  1  0
 20 19  2  0
 21 20  1  0
 22 21  1  1
 23 22  1  0
 23 14  1  0
 24 22  1  0
 25 24  1  0
 26 27  2  0
 26 20  1  0
 27 17  1  0
 28 24  2  0
M  END
$$$$
