VNY.pdb
     RDKit          3D

 28 28  0  0  1  0  0  0  0  0999 V2000
    9.1292  -19.7188   17.8112 C   0  0  0  0  0  0  0  0  0  0  0  0
    9.4680  -18.2918   18.1692 C   0  0  1  0  0  0  0  0  0  0  0  0
    8.2838  -17.4403   17.7148 C   0  0  0  0  0  0  0  0  0  0  0  0
    9.5757  -18.1800   19.6747 C   0  0  2  0  0  0  0  0  0  0  0  0
    8.3569  -18.6716   20.2537 N   0  0  0  0  0  0  0  0  0  0  0  0
    9.7963  -16.7691   20.0814 C   0  0  0  0  0  0  0  0  0  0  0  0
   10.8295  -16.1273   19.7972 O   0  0  0  0  0  0  0  0  0  0  0  0
    7.9581  -12.4048   18.8895 N   0  0  0  0  0  0  0  0  0  0  0  0
    7.6098  -13.6825   19.4431 C   0  0  0  0  0  0  0  0  0  0  0  0
    7.2062  -14.5396   18.6261 O   0  0  0  0  0  0  0  0  0  0  0  0
    7.7441  -13.9034   20.8993 C   0  0  0  0  0  0  0  0  0  0  0  0
    8.9359  -14.7294   21.2708 C   0  0  2  0  0  0  0  0  0  0  0  0
    8.7956  -16.0924   20.8330 N   0  0  0  0  0  0  0  0  0  0  0  0
    9.1698  -14.7037   22.7438 C   0  0  0  0  0  0  0  0  0  0  0  0
    9.3858  -13.6127   23.3279 O   0  0  0  0  0  0  0  0  0  0  0  0
    6.5334  -10.6731   26.9617 O   0  0  0  0  0  0  0  0  0  0  0  0
    6.9656  -11.9634   26.6875 C   0  0  0  0  0  0  0  0  0  0  0  0
    8.2274  -12.3899   27.0375 C   0  0  0  0  0  0  0  0  0  0  0  0
    8.6318  -13.6743   26.7546 C   0  0  0  0  0  0  0  0  0  0  0  0
    7.8140  -14.5933   26.1162 C   0  0  0  0  0  0  0  0  0  0  0  0
    8.3136  -15.9491   25.8229 C   0  0  0  0  0  0  0  0  0  0  0  0
    9.5086  -15.8685   24.9374 C   0  0  2  0  0  0  0  0  0  0  0  0
    9.1599  -15.8742   23.5315 N   0  0  0  0  0  0  0  0  0  0  0  0
   10.5258  -16.9164   25.1611 C   0  0  0  0  0  0  0  0  0  0  0  0
   11.1683  -17.0569   26.3891 O   0  0  0  0  0  0  0  0  0  0  0  0
    6.5570  -14.1404   25.7770 C   0  0  0  0  0  0  0  0  0  0  0  0
    6.1330  -12.8573   26.0519 C   0  0  0  0  0  0  0  0  0  0  0  0
   10.8573  -17.7231   24.2643 O   0  0  0  0  0  0  0  0  0  0  0  0
  2  3  1  1
  2  1  1  0
  4  5  1  1
  4  2  1  0
  6  4  1  0
  7  6  2  0
  9 11  1  0
  9  8  1  0
 10  9  2  0
 12 11  1  1
 12 13  1  0
 13  6  1  0
 14 12  1  0
 14 15  2  0
 17 16  1  0
 17 18  2  0
 19 18  1  0
 20 19  2  0
 21 20  1  0
 22 21  1  1
 23 22  1  0
 23 14  1  0
 24 22  1  0
 25 24  1  0
 26 27  2  0
 26 20  1  0
 27 17  1  0
 28 24  2  0
M  END
$$$$
