VNY.pdb
     RDKit          3D

 28 28  0  0  1  0  0  0  0  0999 V2000
    7.1352  -18.8295   18.4976 C   0  0  0  0  0  0  0  0  0  0  0  0
    8.4219  -18.3612   19.1336 C   0  0  1  0  0  0  0  0  0  0  0  0
    8.5623  -19.1352   20.4432 C   0  0  0  0  0  0  0  0  0  0  0  0
    9.5774  -18.7462   18.2351 C   0  0  2  0  0  0  0  0  0  0  0  0
    9.6114  -20.1780   18.1295 N   0  0  0  0  0  0  0  0  0  0  0  0
   10.8616  -18.2489   18.7901 C   0  0  0  0  0  0  0  0  0  0  0  0
   11.6562  -18.9688   19.4307 O   0  0  0  0  0  0  0  0  0  0  0  0
   15.3794  -14.9322   18.1987 N   0  0  0  0  0  0  0  0  0  0  0  0
   14.1660  -14.5680   18.8736 C   0  0  0  0  0  0  0  0  0  0  0  0
   14.2941  -13.7903   19.8451 O   0  0  0  0  0  0  0  0  0  0  0  0
   12.8778  -15.1158   18.3965 C   0  0  0  0  0  0  0  0  0  0  0  0
   12.4113  -16.3078   19.1725 C   0  0  2  0  0  0  0  0  0  0  0  0
   11.2279  -16.8878   18.5960 N   0  0  0  0  0  0  0  0  0  0  0  0
   12.1453  -15.9518   20.5964 C   0  0  0  0  0  0  0  0  0  0  0  0
   13.0859  -15.5686   21.3358 O   0  0  0  0  0  0  0  0  0  0  0  0
    7.8650  -12.1489   17.7450 O   0  0  0  0  0  0  0  0  0  0  0  0
    8.1896  -12.8234   18.9139 C   0  0  0  0  0  0  0  0  0  0  0  0
    7.4328  -13.8798   19.3697 C   0  0  0  0  0  0  0  0  0  0  0  0
    7.7757  -14.5322   20.5316 C   0  0  0  0  0  0  0  0  0  0  0  0
    8.8762  -14.1743   21.2944 C   0  0  0  0  0  0  0  0  0  0  0  0
    9.1791  -14.9004   22.5412 C   0  0  0  0  0  0  0  0  0  0  0  0
   10.5507  -15.4772   22.4715 C   0  0  2  0  0  0  0  0  0  0  0  0
   10.8568  -16.0264   21.1666 N   0  0  0  0  0  0  0  0  0  0  0  0
   10.8478  -16.5108   23.4845 C   0  0  0  0  0  0  0  0  0  0  0  0
   10.7463  -16.2442   24.8480 O   0  0  0  0  0  0  0  0  0  0  0  0
    9.6159  -13.1141   20.8157 C   0  0  0  0  0  0  0  0  0  0  0  0
    9.2887  -12.4476   19.6536 C   0  0  0  0  0  0  0  0  0  0  0  0
   11.2027  -17.6681   23.1688 O   0  0  0  0  0  0  0  0  0  0  0  0
  2  3  1  1
  2  1  1  0
  4  5  1  1
  4  2  1  0
  6  4  1  0
  7  6  2  0
  9 11  1  0
  9  8  1  0
 10  9  2  0
 12 11  1  6
 12 13  1  0
 13  6  1  0
 14 12  1  0
 14 15  2  0
 17 16  1  0
 17 18  2  0
 19 18  1  0
 20 19  2  0
 21 20  1  0
 22 21  1  6
 23 22  1  0
 23 14  1  0
 24 22  1  0
 25 24  1  0
 26 27  2  0
 26 20  1  0
 27 17  1  0
 28 24  2  0
M  END
$$$$
