VNY.pdb
     RDKit          3D

 28 28  0  0  1  0  0  0  0  0999 V2000
    7.9221  -12.1035   18.7827 C   0  0  0  0  0  0  0  0  0  0  0  0
    8.3700  -13.2122   19.7046 C   0  0  1  0  0  0  0  0  0  0  0  0
    7.3679  -13.2458   20.8572 C   0  0  0  0  0  0  0  0  0  0  0  0
    8.2773  -14.5287   18.9638 C   0  0  2  0  0  0  0  0  0  0  0  0
    6.9328  -14.6844   18.4835 N   0  0  0  0  0  0  0  0  0  0  0  0
    8.6293  -15.6599   19.8588 C   0  0  0  0  0  0  0  0  0  0  0  0
    7.7872  -16.2855   20.5367 O   0  0  0  0  0  0  0  0  0  0  0  0
   11.5560  -20.2738   21.0507 N   0  0  0  0  0  0  0  0  0  0  0  0
   12.0688  -18.9421   21.2045 C   0  0  0  0  0  0  0  0  0  0  0  0
   12.9141  -18.7842   22.1132 O   0  0  0  0  0  0  0  0  0  0  0  0
   11.5838  -17.8696   20.3090 C   0  0  0  0  0  0  0  0  0  0  0  0
   10.4198  -17.1091   20.8635 C   0  0  2  0  0  0  0  0  0  0  0  0
    9.9872  -16.0708   19.9669 N   0  0  0  0  0  0  0  0  0  0  0  0
   10.7505  -16.5122   22.1900 C   0  0  0  0  0  0  0  0  0  0  0  0
   11.4831  -15.4939   22.2572 O   0  0  0  0  0  0  0  0  0  0  0  0
   10.7904  -14.3124   30.6764 O   0  0  0  0  0  0  0  0  0  0  0  0
   10.4574  -14.7184   29.3914 C   0  0  0  0  0  0  0  0  0  0  0  0
   10.1851  -13.8066   28.3959 C   0  0  0  0  0  0  0  0  0  0  0  0
    9.8576  -14.2347   27.1300 C   0  0  0  0  0  0  0  0  0  0  0  0
    9.7838  -15.5760   26.7888 C   0  0  0  0  0  0  0  0  0  0  0  0
    9.4074  -15.9709   25.4192 C   0  0  0  0  0  0  0  0  0  0  0  0
   10.6029  -16.4819   24.6922 C   0  0  2  0  0  0  0  0  0  0  0  0
   10.2682  -17.0495   23.4022 N   0  0  0  0  0  0  0  0  0  0  0  0
   11.4103  -17.4729   25.4330 C   0  0  0  0  0  0  0  0  0  0  0  0
   12.5465  -17.0987   26.1469 O   0  0  0  0  0  0  0  0  0  0  0  0
   10.0608  -16.4669   27.8037 C   0  0  0  0  0  0  0  0  0  0  0  0
   10.3910  -16.0578   29.0786 C   0  0  0  0  0  0  0  0  0  0  0  0
   11.1147  -18.6882   25.4548 O   0  0  0  0  0  0  0  0  0  0  0  0
  2  3  1  1
  2  1  1  0
  4  5  1  1
  4  2  1  0
  6  4  1  0
  7  6  2  0
  9 11  1  0
  9  8  1  0
 10  9  2  0
 12 11  1  6
 12 13  1  0
 13  6  1  0
 14 12  1  0
 14 15  2  0
 17 16  1  0
 17 18  2  0
 19 18  1  0
 20 19  2  0
 21 20  1  0
 22 21  1  1
 23 22  1  0
 23 14  1  0
 24 22  1  0
 25 24  1  0
 26 27  2  0
 26 20  1  0
 27 17  1  0
 28 24  2  0
M  END
$$$$
