VNY.pdb
     RDKit          3D

 28 28  0  0  1  0  0  0  0  0999 V2000
    8.4103  -12.0813   18.6524 C   0  0  0  0  0  0  0  0  0  0  0  0
    8.5472  -13.2076   19.6486 C   0  0  1  0  0  0  0  0  0  0  0  0
    7.3902  -13.0543   20.6344 C   0  0  0  0  0  0  0  0  0  0  0  0
    8.3733  -14.5239   18.9222 C   0  0  2  0  0  0  0  0  0  0  0  0
    7.1187  -14.4935   18.2239 N   0  0  0  0  0  0  0  0  0  0  0  0
    8.3920  -15.6580   19.8803 C   0  0  0  0  0  0  0  0  0  0  0  0
    7.3620  -16.1230   20.4125 O   0  0  0  0  0  0  0  0  0  0  0  0
   10.5963  -18.9657   18.2597 N   0  0  0  0  0  0  0  0  0  0  0  0
   10.0409  -19.1640   19.5683 C   0  0  0  0  0  0  0  0  0  0  0  0
    9.0851  -19.9680   19.6395 O   0  0  0  0  0  0  0  0  0  0  0  0
   10.6126  -18.4302   20.7182 C   0  0  0  0  0  0  0  0  0  0  0  0
    9.7451  -17.3112   21.2038 C   0  0  2  0  0  0  0  0  0  0  0  0
    9.6329  -16.2625   20.2257 N   0  0  0  0  0  0  0  0  0  0  0  0
   10.2650  -16.7435   22.4815 C   0  0  0  0  0  0  0  0  0  0  0  0
   10.5559  -15.5236   22.5561 O   0  0  0  0  0  0  0  0  0  0  0  0
   10.3434  -14.2705   30.6612 O   0  0  0  0  0  0  0  0  0  0  0  0
   10.1588  -14.6741   29.3460 C   0  0  0  0  0  0  0  0  0  0  0  0
   10.5099  -15.9371   28.9242 C   0  0  0  0  0  0  0  0  0  0  0  0
   10.3165  -16.3129   27.6147 C   0  0  0  0  0  0  0  0  0  0  0  0
    9.7703  -15.4641   26.6650 C   0  0  0  0  0  0  0  0  0  0  0  0
    9.6074  -15.9199   25.2724 C   0  0  0  0  0  0  0  0  0  0  0  0
   10.6358  -16.9488   24.9522 C   0  0  2  0  0  0  0  0  0  0  0  0
   10.4502  -17.5298   23.6383 N   0  0  0  0  0  0  0  0  0  0  0  0
   10.7441  -18.0516   25.9293 C   0  0  0  0  0  0  0  0  0  0  0  0
    9.8346  -19.1069   25.9398 O   0  0  0  0  0  0  0  0  0  0  0  0
    9.4281  -14.2064   27.1138 C   0  0  0  0  0  0  0  0  0  0  0  0
    9.6139  -13.8109   28.4217 C   0  0  0  0  0  0  0  0  0  0  0  0
   11.6518  -18.0910   26.7891 O   0  0  0  0  0  0  0  0  0  0  0  0
  2  3  1  1
  2  1  1  0
  4  5  1  1
  4  2  1  0
  6  4  1  0
  7  6  2  0
  9 11  1  0
  9  8  1  0
 10  9  2  0
 12 11  1  6
 12 13  1  0
 13  6  1  0
 14 12  1  0
 14 15  2  0
 17 16  1  0
 17 18  2  0
 19 18  1  0
 20 19  2  0
 21 20  1  0
 22 21  1  1
 23 22  1  0
 23 14  1  0
 24 22  1  0
 25 24  1  0
 26 27  2  0
 26 20  1  0
 27 17  1  0
 28 24  2  0
M  END
$$$$
