VNY.pdb
     RDKit          3D

 28 28  0  0  1  0  0  0  0  0999 V2000
    3.6432  -18.5180   22.1189 C   0  0  0  0  0  0  0  0  0  0  0  0
    4.4982  -17.5367   21.3537 C   0  0  1  0  0  0  0  0  0  0  0  0
    4.4743  -16.2324   22.1488 C   0  0  0  0  0  0  0  0  0  0  0  0
    5.9231  -18.0464   21.3316 C   0  0  2  0  0  0  0  0  0  0  0  0
    6.3538  -18.2461   22.6870 N   0  0  0  0  0  0  0  0  0  0  0  0
    6.8175  -17.0739   20.6542 C   0  0  0  0  0  0  0  0  0  0  0  0
    6.5325  -16.5188   19.5722 O   0  0  0  0  0  0  0  0  0  0  0  0
    7.8076  -12.6392   18.9197 N   0  0  0  0  0  0  0  0  0  0  0  0
    7.6822  -14.0025   19.3508 C   0  0  0  0  0  0  0  0  0  0  0  0
    7.2290  -14.8035   18.5034 O   0  0  0  0  0  0  0  0  0  0  0  0
    8.0830  -14.3683   20.7267 C   0  0  0  0  0  0  0  0  0  0  0  0
    8.8740  -15.6370   20.8011 C   0  0  2  0  0  0  0  0  0  0  0  0
    8.0672  -16.7411   21.2474 N   0  0  0  0  0  0  0  0  0  0  0  0
   10.0500  -15.4851   21.7060 C   0  0  0  0  0  0  0  0  0  0  0  0
   10.7469  -14.4407   21.6627 O   0  0  0  0  0  0  0  0  0  0  0  0
    9.7304  -14.9518   30.2158 O   0  0  0  0  0  0  0  0  0  0  0  0
    9.6339  -15.0855   28.8375 C   0  0  0  0  0  0  0  0  0  0  0  0
   10.6354  -14.6479   27.9997 C   0  0  0  0  0  0  0  0  0  0  0  0
   10.5158  -14.7921   26.6365 C   0  0  0  0  0  0  0  0  0  0  0  0
    9.4077  -15.3721   26.0394 C   0  0  0  0  0  0  0  0  0  0  0  0
    9.3304  -15.4793   24.5710 C   0  0  0  0  0  0  0  0  0  0  0  0
   10.5081  -16.2312   24.0549 C   0  0  2  0  0  0  0  0  0  0  0  0
   10.4265  -16.4822   22.6305 N   0  0  0  0  0  0  0  0  0  0  0  0
   10.7762  -17.5168   24.7316 C   0  0  0  0  0  0  0  0  0  0  0  0
   10.0685  -18.6720   24.4069 O   0  0  0  0  0  0  0  0  0  0  0  0
    8.4205  -15.8011   26.9007 C   0  0  0  0  0  0  0  0  0  0  0  0
    8.5217  -15.6656   28.2693 C   0  0  0  0  0  0  0  0  0  0  0  0
   11.6463  -17.6296   25.6234 O   0  0  0  0  0  0  0  0  0  0  0  0
  2  3  1  1
  2  1  1  0
  4  5  1  1
  4  2  1  0
  6  4  1  0
  7  6  2  0
  9 11  1  0
  9  8  1  0
 10  9  2  0
 12 11  1  1
 12 13  1  0
 13  6  1  0
 14 12  1  0
 14 15  2  0
 17 16  1  0
 17 18  2  0
 19 18  1  0
 20 19  2  0
 21 20  1  0
 22 21  1  1
 23 22  1  0
 23 14  1  0
 24 22  1  0
 25 24  1  0
 26 27  2  0
 26 20  1  0
 27 17  1  0
 28 24  2  0
M  END
$$$$
