VNY.pdb
     RDKit          3D

 28 28  0  0  1  0  0  0  0  0999 V2000
    9.0697  -12.8847   19.8149 C   0  0  0  0  0  0  0  0  0  0  0  0
    8.1363  -13.6211   18.8844 C   0  0  1  0  0  0  0  0  0  0  0  0
    7.8872  -12.6909   17.6984 C   0  0  0  0  0  0  0  0  0  0  0  0
    8.8385  -14.8592   18.3700 C   0  0  2  0  0  0  0  0  0  0  0  0
    8.0031  -15.4739   17.3766 N   0  0  0  0  0  0  0  0  0  0  0  0
    9.0953  -15.8146   19.4771 C   0  0  0  0  0  0  0  0  0  0  0  0
    8.1936  -16.4716   20.0387 O   0  0  0  0  0  0  0  0  0  0  0  0
   12.4536  -18.5109   18.8144 N   0  0  0  0  0  0  0  0  0  0  0  0
   12.6921  -17.3731   19.6563 C   0  0  0  0  0  0  0  0  0  0  0  0
   13.3758  -16.4548   19.1521 O   0  0  0  0  0  0  0  0  0  0  0  0
   12.1337  -17.3538   21.0257 C   0  0  0  0  0  0  0  0  0  0  0  0
   10.7435  -16.8032   21.0963 C   0  0  2  0  0  0  0  0  0  0  0  0
   10.4268  -16.0091   19.9395 N   0  0  0  0  0  0  0  0  0  0  0  0
   10.5520  -15.9834   22.3276 C   0  0  0  0  0  0  0  0  0  0  0  0
   11.1594  -14.8915   22.4578 O   0  0  0  0  0  0  0  0  0  0  0  0
    5.8717  -11.3198   27.8916 O   0  0  0  0  0  0  0  0  0  0  0  0
    6.3660  -12.1819   26.9224 C   0  0  0  0  0  0  0  0  0  0  0  0
    7.1332  -11.7237   25.8746 C   0  0  0  0  0  0  0  0  0  0  0  0
    7.6114  -12.5989   24.9266 C   0  0  0  0  0  0  0  0  0  0  0  0
    7.3560  -13.9605   24.9681 C   0  0  0  0  0  0  0  0  0  0  0  0
    7.8803  -14.8436   23.9104 C   0  0  0  0  0  0  0  0  0  0  0  0
    9.1681  -15.4504   24.3487 C   0  0  2  0  0  0  0  0  0  0  0  0
    9.7006  -16.3851   23.3786 N   0  0  0  0  0  0  0  0  0  0  0  0
    9.1271  -16.1268   25.6616 C   0  0  0  0  0  0  0  0  0  0  0  0
    8.5585  -17.3896   25.8125 O   0  0  0  0  0  0  0  0  0  0  0  0
    6.5858  -14.3921   26.0269 C   0  0  0  0  0  0  0  0  0  0  0  0
    6.0974  -13.5310   26.9869 C   0  0  0  0  0  0  0  0  0  0  0  0
    9.5980  -15.6016   26.6947 O   0  0  0  0  0  0  0  0  0  0  0  0
  2  3  1  6
  2  1  1  0
  4  5  1  6
  4  2  1  0
  6  4  1  0
  7  6  2  0
  9 11  1  0
  9  8  1  0
 10  9  2  0
 12 11  1  6
 12 13  1  0
 13  6  1  0
 14 12  1  0
 14 15  2  0
 17 16  1  0
 17 18  2  0
 19 18  1  0
 20 19  2  0
 21 20  1  0
 22 21  1  6
 23 22  1  0
 23 14  1  0
 24 22  1  0
 25 24  1  0
 26 27  2  0
 26 20  1  0
 27 17  1  0
 28 24  2  0
M  END
$$$$
