VNY.pdb
     RDKit          3D

 28 28  0  0  1  0  0  0  0  0999 V2000
    8.3296  -12.3480   19.3135 C   0  0  0  0  0  0  0  0  0  0  0  0
    8.5327  -13.3556   20.4194 C   0  0  1  0  0  0  0  0  0  0  0  0
    7.4090  -13.1216   21.4277 C   0  0  0  0  0  0  0  0  0  0  0  0
    8.3671  -14.7468   19.8471 C   0  0  2  0  0  0  0  0  0  0  0  0
    7.1590  -14.7765   19.0712 N   0  0  0  0  0  0  0  0  0  0  0  0
    8.2959  -15.7559   20.9338 C   0  0  0  0  0  0  0  0  0  0  0  0
    7.3771  -16.5966   21.0296 O   0  0  0  0  0  0  0  0  0  0  0  0
   11.3676  -17.2150   21.1754 N   0  0  0  0  0  0  0  0  0  0  0  0
   10.5439  -18.3349   21.5323 C   0  0  0  0  0  0  0  0  0  0  0  0
   10.8309  -19.4210   20.9819 O   0  0  0  0  0  0  0  0  0  0  0  0
    9.4402  -18.1453   22.4985 C   0  0  0  0  0  0  0  0  0  0  0  0
    9.3239  -16.7413   23.0045 C   0  0  2  0  0  0  0  0  0  0  0  0
    9.3132  -15.7873   21.9281 N   0  0  0  0  0  0  0  0  0  0  0  0
   10.4348  -16.4150   23.9449 C   0  0  0  0  0  0  0  0  0  0  0  0
   11.5440  -16.9944   23.8341 O   0  0  0  0  0  0  0  0  0  0  0  0
    6.2650  -10.4720   26.9103 O   0  0  0  0  0  0  0  0  0  0  0  0
    6.7244  -11.7679   26.7194 C   0  0  0  0  0  0  0  0  0  0  0  0
    8.0599  -12.0830   26.8364 C   0  0  0  0  0  0  0  0  0  0  0  0
    8.4901  -13.3755   26.6424 C   0  0  0  0  0  0  0  0  0  0  0  0
    7.6267  -14.4124   26.3254 C   0  0  0  0  0  0  0  0  0  0  0  0
    8.1527  -15.7727   26.1098 C   0  0  0  0  0  0  0  0  0  0  0  0
    9.6373  -15.7674   26.2314 C   0  0  2  0  0  0  0  0  0  0  0  0
   10.2964  -15.4638   24.9778 N   0  0  0  0  0  0  0  0  0  0  0  0
   10.2262  -17.0112   26.7690 C   0  0  0  0  0  0  0  0  0  0  0  0
   10.9151  -17.9034   25.9505 O   0  0  0  0  0  0  0  0  0  0  0  0
    6.2962  -14.0693   26.2142 C   0  0  0  0  0  0  0  0  0  0  0  0
    5.8454  -12.7801   26.4050 C   0  0  0  0  0  0  0  0  0  0  0  0
   10.1354  -17.3213   27.9775 O   0  0  0  0  0  0  0  0  0  0  0  0
  2  3  1  1
  2  1  1  0
  4  5  1  1
  4  2  1  0
  6  4  1  0
  7  6  2  0
  9 11  1  0
  9  8  1  0
 10  9  2  0
 12 11  1  6
 12 13  1  0
 13  6  1  0
 14 12  1  0
 14 15  2  0
 17 16  1  0
 17 18  2  0
 19 18  1  0
 20 19  2  0
 21 20  1  0
 22 21  1  6
 23 22  1  0
 23 14  1  0
 24 22  1  0
 25 24  1  0
 26 27  2  0
 26 20  1  0
 27 17  1  0
 28 24  2  0
M  END
$$$$
