ADF.pdb
     RDKit          3D

 25 25  0  0  1  0  0  0  0  0999 V2000
    6.7365  -20.4374   20.7654 C   0  0  0  0  0  0  0  0  0  0  0  0
    6.7733  -19.6781   22.0540 C   0  0  2  0  0  0  0  0  0  0  0  0
    5.7994  -18.6289   22.1403 N   0  0  0  0  0  0  0  0  0  0  0  0
    8.1414  -19.1464   22.3500 C   0  0  0  0  0  0  0  0  0  0  0  0
    9.1336  -19.9114   22.4116 O   0  0  0  0  0  0  0  0  0  0  0  0
    8.3758  -17.7424   22.5751 N   0  0  0  0  0  0  0  0  0  0  0  0
    9.6867  -17.2009   22.7664 C   0  0  1  0  0  0  0  0  0  0  0  0
   10.0529  -16.0857   21.8264 C   0  0  0  0  0  0  0  0  0  0  0  0
   11.5040  -16.0129   21.5604 C   0  0  0  0  0  0  0  0  0  0  0  0
   12.0881  -17.0289   21.1199 O   0  0  0  0  0  0  0  0  0  0  0  0
    9.9507  -16.8242   24.1816 C   0  0  0  0  0  0  0  0  0  0  0  0
   11.0174  -16.3401   24.5854 O   0  0  0  0  0  0  0  0  0  0  0  0
   12.2479  -14.8699   21.7759 O   0  0  0  0  0  0  0  0  0  0  0  0
    8.9043  -17.0389   25.1203 N   0  0  0  0  0  0  0  0  0  0  0  0
    9.0568  -16.7123   26.5262 C   0  0  1  0  0  0  0  0  0  0  0  0
    7.7213  -16.1591   26.9806 C   0  0  0  0  0  0  0  0  0  0  0  0
    7.5140  -14.7738   26.4822 C   0  0  0  0  0  0  0  0  0  0  0  0
    8.2880  -13.7654   26.9655 C   0  0  0  0  0  0  0  0  0  0  0  0
    8.1551  -12.4516   26.5472 C   0  0  0  0  0  0  0  0  0  0  0  0
    7.1998  -12.1490   25.6019 C   0  0  0  0  0  0  0  0  0  0  0  0
    6.4227  -13.1682   25.1183 C   0  0  0  0  0  0  0  0  0  0  0  0
    6.5489  -14.4771   25.5293 C   0  0  0  0  0  0  0  0  0  0  0  0
    9.3119  -17.9519   27.3296 C   0  0  0  0  0  0  0  0  0  0  0  0
    9.2843  -19.2008   26.7412 O   0  0  0  0  0  0  0  0  0  0  0  0
    9.5515  -17.8153   28.5557 O   0  0  0  0  0  0  0  0  0  0  0  0
  2  1  1  6
  2  3  1  0
  4  5  2  0
  4  2  1  0
  6  4  1  0
  7  8  1  6
  7  6  1  0
  8  9  1  0
  9 10  2  0
  9 13  1  0
 11  7  1  0
 12 11  2  0
 14 11  1  0
 15 16  1  1
 15 14  1  0
 16 17  1  0
 17 22  2  0
 18 19  2  0
 18 17  1  0
 19 20  1  0
 20 21  2  0
 22 21  1  0
 23 15  1  0
 23 24  1  0
 25 23  2  0
M  END
$$$$
