ADF.pdb
     RDKit          3D

 25 25  0  0  1  0  0  0  0  0999 V2000
    7.3468  -12.6971   19.8514 C   0  0  0  0  0  0  0  0  0  0  0  0
    8.4651  -13.6472   19.5599 C   0  0  2  0  0  0  0  0  0  0  0  0
    8.3908  -14.2544   18.2627 N   0  0  0  0  0  0  0  0  0  0  0  0
    8.5978  -14.6959   20.6205 C   0  0  0  0  0  0  0  0  0  0  0  0
    7.6606  -14.9287   21.4212 O   0  0  0  0  0  0  0  0  0  0  0  0
    9.7995  -15.4778   20.7661 N   0  0  0  0  0  0  0  0  0  0  0  0
    9.9435  -16.4905   21.7670 C   0  0  1  0  0  0  0  0  0  0  0  0
   11.0466  -17.4799   21.5106 C   0  0  0  0  0  0  0  0  0  0  0  0
   10.9512  -18.1131   20.1796 C   0  0  0  0  0  0  0  0  0  0  0  0
   10.0416  -18.9481   19.9727 O   0  0  0  0  0  0  0  0  0  0  0  0
   10.0291  -15.9292   23.1426 C   0  0  0  0  0  0  0  0  0  0  0  0
   10.9299  -15.1720   23.5303 O   0  0  0  0  0  0  0  0  0  0  0  0
   11.8231  -17.8237   19.1489 O   0  0  0  0  0  0  0  0  0  0  0  0
    9.0061  -16.2933   24.0608 N   0  0  0  0  0  0  0  0  0  0  0  0
    9.0058  -15.8229   25.4339 C   0  0  1  0  0  0  0  0  0  0  0  0
    7.5738  -15.4429   25.7519 C   0  0  0  0  0  0  0  0  0  0  0  0
    7.4602  -13.9978   26.0824 C   0  0  0  0  0  0  0  0  0  0  0  0
    8.5891  -13.2644   26.2758 C   0  0  0  0  0  0  0  0  0  0  0  0
    8.5625  -11.9141   26.5833 C   0  0  0  0  0  0  0  0  0  0  0  0
    7.3433  -11.2832   26.6992 C   0  0  0  0  0  0  0  0  0  0  0  0
    6.2093  -12.0263   26.5035 C   0  0  0  0  0  0  0  0  0  0  0  0
    6.2276  -13.3695   26.1973 C   0  0  0  0  0  0  0  0  0  0  0  0
    9.3813  -16.9319   26.3700 C   0  0  0  0  0  0  0  0  0  0  0  0
    9.5322  -18.2272   25.9162 O   0  0  0  0  0  0  0  0  0  0  0  0
    9.5539  -16.6421   27.5806 O   0  0  0  0  0  0  0  0  0  0  0  0
  2  1  1  1
  2  3  1  0
  4  5  2  0
  4  2  1  0
  6  4  1  0
  7  8  1  6
  7  6  1  0
  8  9  1  0
  9 10  2  0
  9 13  1  0
 11  7  1  0
 12 11  2  0
 14 11  1  0
 15 16  1  1
 15 14  1  0
 16 17  1  0
 17 22  2  0
 18 19  2  0
 18 17  1  0
 19 20  1  0
 20 21  2  0
 22 21  1  0
 23 15  1  0
 23 24  1  0
 25 23  2  0
M  END
$$$$
