ADF.pdb
     RDKit          3D

 25 25  0  0  1  0  0  0  0  0999 V2000
    8.3441  -12.0694   20.3104 C   0  0  0  0  0  0  0  0  0  0  0  0
    8.2750  -13.4544   19.7490 C   0  0  2  0  0  0  0  0  0  0  0  0
    7.4275  -13.5753   18.5983 N   0  0  0  0  0  0  0  0  0  0  0  0
    7.8897  -14.4602   20.7893 C   0  0  0  0  0  0  0  0  0  0  0  0
    6.8923  -15.2045   20.6317 O   0  0  0  0  0  0  0  0  0  0  0  0
    8.6431  -14.6158   22.0079 N   0  0  0  0  0  0  0  0  0  0  0  0
    8.8117  -15.8819   22.6534 C   0  0  1  0  0  0  0  0  0  0  0  0
    9.3449  -16.9756   21.7696 C   0  0  0  0  0  0  0  0  0  0  0  0
    9.4163  -18.2825   22.4542 C   0  0  0  0  0  0  0  0  0  0  0  0
    8.4517  -18.6442   23.1656 O   0  0  0  0  0  0  0  0  0  0  0  0
    9.5887  -15.7816   23.9186 C   0  0  0  0  0  0  0  0  0  0  0  0
   10.8264  -15.7683   23.9759 O   0  0  0  0  0  0  0  0  0  0  0  0
   10.5031  -19.1269   22.3436 O   0  0  0  0  0  0  0  0  0  0  0  0
    8.8520  -15.6967   25.1319 N   0  0  0  0  0  0  0  0  0  0  0  0
    9.5051  -15.7133   26.4279 C   0  0  1  0  0  0  0  0  0  0  0  0
    8.6094  -14.9282   27.3647 C   0  0  0  0  0  0  0  0  0  0  0  0
    7.7708  -13.9538   26.6180 C   0  0  0  0  0  0  0  0  0  0  0  0
    6.4809  -14.2682   26.3230 C   0  0  0  0  0  0  0  0  0  0  0  0
    5.6390  -13.4111   25.6338 C   0  0  0  0  0  0  0  0  0  0  0  0
    6.1243  -12.1874   25.2280 C   0  0  0  0  0  0  0  0  0  0  0  0
    7.4241  -11.8754   25.5275 C   0  0  0  0  0  0  0  0  0  0  0  0
    8.2675  -12.7224   26.2126 C   0  0  0  0  0  0  0  0  0  0  0  0
    9.5772  -17.1118   26.9629 C   0  0  0  0  0  0  0  0  0  0  0  0
    8.9994  -18.1656   26.2830 O   0  0  0  0  0  0  0  0  0  0  0  0
   10.1812  -17.2917   28.0502 O   0  0  0  0  0  0  0  0  0  0  0  0
  2  1  1  1
  2  3  1  0
  4  5  2  0
  4  2  1  0
  6  4  1  0
  7  8  1  6
  7  6  1  0
  8  9  1  0
  9 10  2  0
  9 13  1  0
 11  7  1  0
 12 11  2  0
 14 11  1  0
 15 16  1  1
 15 14  1  0
 16 17  1  0
 17 22  2  0
 18 19  2  0
 18 17  1  0
 19 20  1  0
 20 21  2  0
 22 21  1  0
 23 15  1  0
 23 24  1  0
 25 23  2  0
M  END
$$$$
