ADF.pdb
     RDKit          3D

 25 25  0  0  1  0  0  0  0  0999 V2000
    6.8700  -13.1756   19.7921 C   0  0  0  0  0  0  0  0  0  0  0  0
    8.1800  -13.3091   20.5024 C   0  0  2  0  0  0  0  0  0  0  0  0
    9.3226  -13.2095   19.6415 N   0  0  0  0  0  0  0  0  0  0  0  0
    8.2480  -14.5633   21.3175 C   0  0  0  0  0  0  0  0  0  0  0  0
    7.2818  -14.9243   22.0315 O   0  0  0  0  0  0  0  0  0  0  0  0
    9.4183  -15.4044   21.3168 N   0  0  0  0  0  0  0  0  0  0  0  0
    9.5637  -16.5233   22.1971 C   0  0  1  0  0  0  0  0  0  0  0  0
   10.6426  -17.4964   21.8091 C   0  0  0  0  0  0  0  0  0  0  0  0
   10.4386  -18.0728   20.4645 C   0  0  0  0  0  0  0  0  0  0  0  0
    9.3713  -18.6817   20.2249 O   0  0  0  0  0  0  0  0  0  0  0  0
    9.6880  -16.1184   23.6237 C   0  0  0  0  0  0  0  0  0  0  0  0
   10.5800  -15.3784   24.0618 O   0  0  0  0  0  0  0  0  0  0  0  0
   11.3755  -17.9689   19.4557 O   0  0  0  0  0  0  0  0  0  0  0  0
    8.7151  -16.6198   24.5316 N   0  0  0  0  0  0  0  0  0  0  0  0
    8.7550  -16.3061   25.9481 C   0  0  1  0  0  0  0  0  0  0  0  0
    7.3407  -15.9275   26.3389 C   0  0  0  0  0  0  0  0  0  0  0  0
    7.1061  -14.4695   26.1672 C   0  0  0  0  0  0  0  0  0  0  0  0
    7.5305  -13.6052   27.1277 C   0  0  0  0  0  0  0  0  0  0  0  0
    7.3503  -12.2349   27.0361 C   0  0  0  0  0  0  0  0  0  0  0  0
    6.7148  -11.7213   25.9270 C   0  0  0  0  0  0  0  0  0  0  0  0
    6.2891  -12.5959   24.9624 C   0  0  0  0  0  0  0  0  0  0  0  0
    6.4648  -13.9598   25.0463 C   0  0  0  0  0  0  0  0  0  0  0  0
    9.1176  -17.5221   26.7463 C   0  0  0  0  0  0  0  0  0  0  0  0
    9.4863  -17.4198   28.0729 O   0  0  0  0  0  0  0  0  0  0  0  0
    9.0742  -18.6364   26.1669 O   0  0  0  0  0  0  0  0  0  0  0  0
  2  1  1  6
  2  3  1  0
  4  5  2  0
  4  2  1  0
  6  4  1  0
  7  8  1  6
  7  6  1  0
  8  9  1  0
  9 10  2  0
  9 13  1  0
 11  7  1  0
 12 11  2  0
 14 11  1  0
 15 16  1  1
 15 14  1  0
 16 17  1  0
 17 22  2  0
 18 19  2  0
 18 17  1  0
 19 20  1  0
 20 21  2  0
 22 21  1  0
 23 15  1  0
 23 24  1  0
 25 23  2  0
M  END
$$$$
