ADF.pdb
     RDKit          3D

 25 25  0  0  1  0  0  0  0  0999 V2000
   11.3289  -19.0526   19.8199 C   0  0  0  0  0  0  0  0  0  0  0  0
   10.8293  -18.7025   21.1859 C   0  0  2  0  0  0  0  0  0  0  0  0
    9.7457  -19.5255   21.6390 N   0  0  0  0  0  0  0  0  0  0  0  0
   10.4651  -17.2540   21.2931 C   0  0  0  0  0  0  0  0  0  0  0  0
   11.3164  -16.3558   21.0874 O   0  0  0  0  0  0  0  0  0  0  0  0
    9.1302  -16.8321   21.6346 N   0  0  0  0  0  0  0  0  0  0  0  0
    8.7660  -15.4538   21.7602 C   0  0  1  0  0  0  0  0  0  0  0  0
    7.3837  -15.1185   21.2717 C   0  0  0  0  0  0  0  0  0  0  0  0
    7.0151  -15.8536   20.0447 C   0  0  0  0  0  0  0  0  0  0  0  0
    6.3459  -16.9064   20.1504 O   0  0  0  0  0  0  0  0  0  0  0  0
    8.9996  -14.9213   23.1300 C   0  0  0  0  0  0  0  0  0  0  0  0
    8.9723  -13.7176   23.4227 O   0  0  0  0  0  0  0  0  0  0  0  0
    7.3759  -15.4295   18.7813 O   0  0  0  0  0  0  0  0  0  0  0  0
    9.2709  -15.8643   24.1592 N   0  0  0  0  0  0  0  0  0  0  0  0
    9.2053  -15.5056   25.5641 C   0  0  1  0  0  0  0  0  0  0  0  0
    7.7330  -15.4116   25.9098 C   0  0  0  0  0  0  0  0  0  0  0  0
    7.3464  -14.0161   26.2465 C   0  0  0  0  0  0  0  0  0  0  0  0
    8.3149  -13.0944   26.4956 C   0  0  0  0  0  0  0  0  0  0  0  0
    8.0319  -11.7761   26.8125 C   0  0  0  0  0  0  0  0  0  0  0  0
    6.7150  -11.3771   26.8794 C   0  0  0  0  0  0  0  0  0  0  0  0
    5.7432  -12.3091   26.6278 C   0  0  0  0  0  0  0  0  0  0  0  0
    6.0168  -13.6220   26.3119 C   0  0  0  0  0  0  0  0  0  0  0  0
    9.7843  -16.5968   26.4133 C   0  0  0  0  0  0  0  0  0  0  0  0
    9.9704  -16.4210   27.7701 O   0  0  0  0  0  0  0  0  0  0  0  0
   10.0937  -17.6759   25.8483 O   0  0  0  0  0  0  0  0  0  0  0  0
  2  1  1  6
  2  3  1  0
  4  5  2  0
  4  2  1  0
  6  4  1  0
  7  8  1  1
  7  6  1  0
  8  9  1  0
  9 10  2  0
  9 13  1  0
 11  7  1  0
 12 11  2  0
 14 11  1  0
 15 16  1  1
 15 14  1  0
 16 17  1  0
 17 22  2  0
 18 19  2  0
 18 17  1  0
 19 20  1  0
 20 21  2  0
 22 21  1  0
 23 15  1  0
 23 24  1  0
 25 23  2  0
M  END
$$$$
