ADF.pdb
     RDKit          3D

 25 25  0  0  1  0  0  0  0  0999 V2000
    4.6671  -17.5470   20.2424 C   0  0  0  0  0  0  0  0  0  0  0  0
    5.2796  -18.2048   21.4384 C   0  0  2  0  0  0  0  0  0  0  0  0
    4.7709  -17.7266   22.6911 N   0  0  0  0  0  0  0  0  0  0  0  0
    6.7746  -18.1230   21.4164 C   0  0  0  0  0  0  0  0  0  0  0  0
    7.4307  -18.5340   20.4294 O   0  0  0  0  0  0  0  0  0  0  0  0
    7.5191  -17.5720   22.5204 N   0  0  0  0  0  0  0  0  0  0  0  0
    8.8789  -17.1436   22.3955 C   0  0  1  0  0  0  0  0  0  0  0  0
    9.1475  -16.2235   21.2368 C   0  0  0  0  0  0  0  0  0  0  0  0
   10.5736  -15.8593   21.1123 C   0  0  0  0  0  0  0  0  0  0  0  0
   10.8704  -14.7276   20.6669 O   0  0  0  0  0  0  0  0  0  0  0  0
    9.4243  -16.5892   23.6643 C   0  0  0  0  0  0  0  0  0  0  0  0
   10.5527  -16.0899   23.7772 O   0  0  0  0  0  0  0  0  0  0  0  0
   11.5981  -16.7142   21.4673 O   0  0  0  0  0  0  0  0  0  0  0  0
    8.5874  -16.6424   24.8128 N   0  0  0  0  0  0  0  0  0  0  0  0
    9.0646  -16.2546   26.1274 C   0  0  1  0  0  0  0  0  0  0  0  0
    7.8581  -15.7298   26.8791 C   0  0  0  0  0  0  0  0  0  0  0  0
    7.6007  -14.3017   26.5556 C   0  0  0  0  0  0  0  0  0  0  0  0
    6.4065  -13.9426   26.0129 C   0  0  0  0  0  0  0  0  0  0  0  0
    6.0939  -12.6329   25.6881 C   0  0  0  0  0  0  0  0  0  0  0  0
    7.0291  -11.6491   25.9228 C   0  0  0  0  0  0  0  0  0  0  0  0
    8.2305  -12.0158   26.4694 C   0  0  0  0  0  0  0  0  0  0  0  0
    8.5487  -13.3161   26.7953 C   0  0  0  0  0  0  0  0  0  0  0  0
    9.5616  -17.4514   26.8810 C   0  0  0  0  0  0  0  0  0  0  0  0
    9.5371  -18.7106   26.3148 O   0  0  0  0  0  0  0  0  0  0  0  0
   10.0008  -17.2693   28.0442 O   0  0  0  0  0  0  0  0  0  0  0  0
  2  1  1  6
  2  3  1  0
  4  5  2  0
  4  2  1  0
  6  4  1  0
  7  8  1  6
  7  6  1  0
  8  9  1  0
  9 10  2  0
  9 13  1  0
 11  7  1  0
 12 11  2  0
 14 11  1  0
 15 16  1  1
 15 14  1  0
 16 17  1  0
 17 22  2  0
 18 19  2  0
 18 17  1  0
 19 20  1  0
 20 21  2  0
 22 21  1  0
 23 15  1  0
 23 24  1  0
 25 23  2  0
M  END
$$$$
