ADF.pdb
     RDKit          3D

 25 25  0  0  1  0  0  0  0  0999 V2000
    8.0692  -12.1853   20.6094 C   0  0  0  0  0  0  0  0  0  0  0  0
    8.1987  -13.4926   19.8936 C   0  0  2  0  0  0  0  0  0  0  0  0
    7.1543  -13.7428   18.9431 N   0  0  0  0  0  0  0  0  0  0  0  0
    8.3238  -14.6410   20.8464 C   0  0  0  0  0  0  0  0  0  0  0  0
    7.3166  -15.1137   21.4259 O   0  0  0  0  0  0  0  0  0  0  0  0
    9.5977  -15.2488   21.1367 N   0  0  0  0  0  0  0  0  0  0  0  0
    9.7441  -16.3229   22.0711 C   0  0  1  0  0  0  0  0  0  0  0  0
   10.8450  -17.2953   21.7485 C   0  0  0  0  0  0  0  0  0  0  0  0
   10.7334  -17.8568   20.3869 C   0  0  0  0  0  0  0  0  0  0  0  0
    9.7876  -18.6364   20.1315 O   0  0  0  0  0  0  0  0  0  0  0  0
    9.8357  -15.8498   23.4790 C   0  0  0  0  0  0  0  0  0  0  0  0
   10.6763  -15.0357   23.8863 O   0  0  0  0  0  0  0  0  0  0  0  0
   11.6285  -17.5587   19.3788 O   0  0  0  0  0  0  0  0  0  0  0  0
    8.8929  -16.3732   24.4060 N   0  0  0  0  0  0  0  0  0  0  0  0
    8.9976  -16.1200   25.8313 C   0  0  1  0  0  0  0  0  0  0  0  0
    7.5871  -15.8620   26.3213 C   0  0  0  0  0  0  0  0  0  0  0  0
    7.2605  -14.4121   26.2847 C   0  0  0  0  0  0  0  0  0  0  0  0
    6.1867  -13.9854   25.5673 C   0  0  0  0  0  0  0  0  0  0  0  0
    5.8192  -12.6522   25.4887 C   0  0  0  0  0  0  0  0  0  0  0  0
    6.5702  -11.7153   26.1640 C   0  0  0  0  0  0  0  0  0  0  0  0
    7.6507  -12.1501   26.8851 C   0  0  0  0  0  0  0  0  0  0  0  0
    8.0224  -13.4742   26.9682 C   0  0  0  0  0  0  0  0  0  0  0  0
    9.4921  -17.3405   26.5476 C   0  0  0  0  0  0  0  0  0  0  0  0
    9.6890  -18.5304   25.8754 O   0  0  0  0  0  0  0  0  0  0  0  0
    9.7211  -17.2432   27.7794 O   0  0  0  0  0  0  0  0  0  0  0  0
  2  1  1  1
  2  3  1  0
  4  5  2  0
  4  2  1  0
  6  4  1  0
  7  8  1  6
  7  6  1  0
  8  9  1  0
  9 10  2  0
  9 13  1  0
 11  7  1  0
 12 11  2  0
 14 11  1  0
 15 16  1  1
 15 14  1  0
 16 17  1  0
 17 22  2  0
 18 19  2  0
 18 17  1  0
 19 20  1  0
 20 21  2  0
 22 21  1  0
 23 15  1  0
 23 24  1  0
 25 23  2  0
M  END
$$$$
