ADF.pdb
     RDKit          3D

 25 25  0  0  1  0  0  0  0  0999 V2000
    7.2039  -20.3496   20.7091 C   0  0  0  0  0  0  0  0  0  0  0  0
    7.3830  -19.7404   22.0637 C   0  0  2  0  0  0  0  0  0  0  0  0
    6.1594  -19.3109   22.6761 N   0  0  0  0  0  0  0  0  0  0  0  0
    8.3786  -18.6221   22.0459 C   0  0  0  0  0  0  0  0  0  0  0  0
    9.6084  -18.8519   21.9539 O   0  0  0  0  0  0  0  0  0  0  0  0
    7.9699  -17.2429   22.1328 N   0  0  0  0  0  0  0  0  0  0  0  0
    8.8979  -16.1570   22.0436 C   0  0  1  0  0  0  0  0  0  0  0  0
    8.4460  -15.0087   21.1842 C   0  0  0  0  0  0  0  0  0  0  0  0
    8.2414  -15.3943   19.7731 C   0  0  0  0  0  0  0  0  0  0  0  0
    9.1723  -15.9680   19.1635 O   0  0  0  0  0  0  0  0  0  0  0  0
    9.3589  -15.6856   23.3777 C   0  0  0  0  0  0  0  0  0  0  0  0
   10.2691  -14.8624   23.5485 O   0  0  0  0  0  0  0  0  0  0  0  0
    7.0645  -15.1501   19.0936 O   0  0  0  0  0  0  0  0  0  0  0  0
    8.7053  -16.2220   24.5211 N   0  0  0  0  0  0  0  0  0  0  0  0
    9.1206  -15.8842   25.8701 C   0  0  1  0  0  0  0  0  0  0  0  0
    7.8509  -15.5948   26.6451 C   0  0  0  0  0  0  0  0  0  0  0  0
    7.5100  -14.1484   26.6005 C   0  0  0  0  0  0  0  0  0  0  0  0
    6.2457  -13.7681   26.2743 C   0  0  0  0  0  0  0  0  0  0  0  0
    5.8535  -12.4410   26.2151 C   0  0  0  0  0  0  0  0  0  0  0  0
    6.7799  -11.4614   26.4978 C   0  0  0  0  0  0  0  0  0  0  0  0
    8.0521  -11.8496   26.8257 C   0  0  0  0  0  0  0  0  0  0  0  0
    8.4496  -13.1673   26.8868 C   0  0  0  0  0  0  0  0  0  0  0  0
    9.7756  -17.0605   26.5292 C   0  0  0  0  0  0  0  0  0  0  0  0
   10.3409  -16.9507   27.7841 O   0  0  0  0  0  0  0  0  0  0  0  0
    9.7922  -18.1487   25.9008 O   0  0  0  0  0  0  0  0  0  0  0  0
  2  1  1  6
  2  3  1  0
  4  5  2  0
  4  2  1  0
  6  4  1  0
  7  8  1  1
  7  6  1  0
  8  9  1  0
  9 10  2  0
  9 13  1  0
 11  7  1  0
 12 11  2  0
 14 11  1  0
 15 16  1  1
 15 14  1  0
 16 17  1  0
 17 22  2  0
 18 19  2  0
 18 17  1  0
 19 20  1  0
 20 21  2  0
 22 21  1  0
 23 15  1  0
 23 24  1  0
 25 23  2  0
M  END
$$$$
