ADF.pdb
     RDKit          3D

 25 25  0  0  1  0  0  0  0  0999 V2000
    8.1897  -12.2386   19.9205 C   0  0  0  0  0  0  0  0  0  0  0  0
    8.2109  -13.5804   19.2590 C   0  0  2  0  0  0  0  0  0  0  0  0
    7.0820  -13.8299   18.4105 N   0  0  0  0  0  0  0  0  0  0  0  0
    8.3736  -14.6898   20.2515 C   0  0  0  0  0  0  0  0  0  0  0  0
    7.3756  -15.2622   20.7514 O   0  0  0  0  0  0  0  0  0  0  0  0
    9.6746  -15.1450   20.6720 N   0  0  0  0  0  0  0  0  0  0  0  0
    9.8527  -16.2333   21.5841 C   0  0  1  0  0  0  0  0  0  0  0  0
   11.0623  -17.0870   21.3205 C   0  0  0  0  0  0  0  0  0  0  0  0
   10.7173  -18.4871   21.0000 C   0  0  0  0  0  0  0  0  0  0  0  0
    9.8061  -19.0477   21.6502 O   0  0  0  0  0  0  0  0  0  0  0  0
    9.7933  -15.8041   23.0077 C   0  0  0  0  0  0  0  0  0  0  0  0
   10.6359  -15.0758   23.5507 O   0  0  0  0  0  0  0  0  0  0  0  0
   11.3567  -19.2078   20.0110 O   0  0  0  0  0  0  0  0  0  0  0  0
    8.6949  -16.2665   23.7835 N   0  0  0  0  0  0  0  0  0  0  0  0
    8.5337  -15.9000   25.1786 C   0  0  1  0  0  0  0  0  0  0  0  0
    7.0906  -15.4664   25.3394 C   0  0  0  0  0  0  0  0  0  0  0  0
    7.0001  -14.0711   25.8445 C   0  0  0  0  0  0  0  0  0  0  0  0
    7.8825  -13.1382   25.3966 C   0  0  0  0  0  0  0  0  0  0  0  0
    7.8583  -11.8193   25.8191 C   0  0  0  0  0  0  0  0  0  0  0  0
    6.9017  -11.4316   26.7315 C   0  0  0  0  0  0  0  0  0  0  0  0
    6.0153  -12.3750   27.1796 C   0  0  0  0  0  0  0  0  0  0  0  0
    6.0329  -13.6885   26.7641 C   0  0  0  0  0  0  0  0  0  0  0  0
    8.7317  -17.0944   26.0626 C   0  0  0  0  0  0  0  0  0  0  0  0
    9.1358  -16.9503   27.3750 O   0  0  0  0  0  0  0  0  0  0  0  0
    8.5172  -18.2298   25.5685 O   0  0  0  0  0  0  0  0  0  0  0  0
  2  1  1  1
  2  3  1  0
  4  5  2  0
  4  2  1  0
  6  4  1  0
  7  8  1  6
  7  6  1  0
  8  9  1  0
  9 10  2  0
  9 13  1  0
 11  7  1  0
 12 11  2  0
 14 11  1  0
 15 16  1  6
 15 14  1  0
 16 17  1  0
 17 22  2  0
 18 19  2  0
 18 17  1  0
 19 20  1  0
 20 21  2  0
 22 21  1  0
 23 15  1  0
 23 24  1  0
 25 23  2  0
M  END
$$$$
