ADF.pdb
     RDKit          3D

 25 25  0  0  1  0  0  0  0  0999 V2000
    6.7099  -20.5432   21.4423 C   0  0  0  0  0  0  0  0  0  0  0  0
    6.9238  -19.7656   22.7023 C   0  0  2  0  0  0  0  0  0  0  0  0
    5.9016  -18.7956   22.9694 N   0  0  0  0  0  0  0  0  0  0  0  0
    8.2758  -19.1231   22.7395 C   0  0  0  0  0  0  0  0  0  0  0  0
    9.3215  -19.8105   22.6521 O   0  0  0  0  0  0  0  0  0  0  0  0
    8.4332  -17.6972   22.8761 N   0  0  0  0  0  0  0  0  0  0  0  0
    9.7158  -17.0637   22.9167 C   0  0  1  0  0  0  0  0  0  0  0  0
    9.9190  -15.9822   21.8917 C   0  0  0  0  0  0  0  0  0  0  0  0
   11.3449  -15.6844   21.6471 C   0  0  0  0  0  0  0  0  0  0  0  0
   11.8172  -14.6054   22.0715 O   0  0  0  0  0  0  0  0  0  0  0  0
   10.0796  -16.5919   24.2803 C   0  0  0  0  0  0  0  0  0  0  0  0
   11.1544  -16.0443   24.5635 O   0  0  0  0  0  0  0  0  0  0  0  0
   12.1840  -16.5465   20.9695 O   0  0  0  0  0  0  0  0  0  0  0  0
    9.1245  -16.7885   25.3154 N   0  0  0  0  0  0  0  0  0  0  0  0
    9.4055  -16.4354   26.6948 C   0  0  1  0  0  0  0  0  0  0  0  0
    8.1030  -15.9232   27.2756 C   0  0  0  0  0  0  0  0  0  0  0  0
    7.7127  -14.6262   26.6626 C   0  0  0  0  0  0  0  0  0  0  0  0
    8.3717  -13.4914   27.0200 C   0  0  0  0  0  0  0  0  0  0  0  0
    8.0664  -12.2485   26.4901 C   0  0  0  0  0  0  0  0  0  0  0  0
    7.0532  -12.1531   25.5616 C   0  0  0  0  0  0  0  0  0  0  0  0
    6.3926  -13.2989   25.2050 C   0  0  0  0  0  0  0  0  0  0  0  0
    6.6904  -14.5384   25.7274 C   0  0  0  0  0  0  0  0  0  0  0  0
    9.7857  -17.6529   27.4825 C   0  0  0  0  0  0  0  0  0  0  0  0
   10.2076  -17.5504   28.7933 O   0  0  0  0  0  0  0  0  0  0  0  0
    9.7071  -18.7685   26.9094 O   0  0  0  0  0  0  0  0  0  0  0  0
  2  1  1  6
  2  3  1  0
  4  5  2  0
  4  2  1  0
  6  4  1  0
  7  8  1  6
  7  6  1  0
  8  9  1  0
  9 10  2  0
  9 13  1  0
 11  7  1  0
 12 11  2  0
 14 11  1  0
 15 16  1  1
 15 14  1  0
 16 17  1  0
 17 22  2  0
 18 19  2  0
 18 17  1  0
 19 20  1  0
 20 21  2  0
 22 21  1  0
 23 15  1  0
 23 24  1  0
 25 23  2  0
M  END
$$$$
