ADF.pdb
     RDKit          3D

 25 25  0  0  1  0  0  0  0  0999 V2000
    7.3316  -13.5312   18.4781 C   0  0  0  0  0  0  0  0  0  0  0  0
    8.6680  -13.6760   19.1349 C   0  0  2  0  0  0  0  0  0  0  0  0
    9.7313  -13.9979   18.2280 N   0  0  0  0  0  0  0  0  0  0  0  0
    8.6312  -14.6568   20.2657 C   0  0  0  0  0  0  0  0  0  0  0  0
    7.7668  -14.5690   21.1706 O   0  0  0  0  0  0  0  0  0  0  0  0
    9.5805  -15.7366   20.3627 N   0  0  0  0  0  0  0  0  0  0  0  0
    9.5260  -16.7198   21.4012 C   0  0  1  0  0  0  0  0  0  0  0  0
   10.4095  -17.9172   21.1847 C   0  0  0  0  0  0  0  0  0  0  0  0
   11.4849  -17.6666   20.2036 C   0  0  0  0  0  0  0  0  0  0  0  0
   11.1762  -17.4797   19.0048 O   0  0  0  0  0  0  0  0  0  0  0  0
    9.7284  -16.1359   22.7550 C   0  0  0  0  0  0  0  0  0  0  0  0
   10.7146  -15.4604   23.0811 O   0  0  0  0  0  0  0  0  0  0  0  0
   12.8207  -17.6281   20.5509 O   0  0  0  0  0  0  0  0  0  0  0  0
    8.7186  -16.3762   23.7270 N   0  0  0  0  0  0  0  0  0  0  0  0
    8.5411  -15.5101   24.8780 C   0  0  1  0  0  0  0  0  0  0  0  0
    7.5719  -14.4272   24.4488 C   0  0  0  0  0  0  0  0  0  0  0  0
    7.2211  -13.5361   25.5859 C   0  0  0  0  0  0  0  0  0  0  0  0
    8.1395  -12.6449   26.0464 C   0  0  0  0  0  0  0  0  0  0  0  0
    7.8843  -11.7813   27.0988 C   0  0  0  0  0  0  0  0  0  0  0  0
    6.6494  -11.8233   27.7080 C   0  0  0  0  0  0  0  0  0  0  0  0
    5.7279  -12.7227   27.2406 C   0  0  0  0  0  0  0  0  0  0  0  0
    5.9742  -13.5847   26.1944 C   0  0  0  0  0  0  0  0  0  0  0  0
    7.8906  -16.2570   26.0032 C   0  0  0  0  0  0  0  0  0  0  0  0
    6.8638  -17.1493   25.7666 O   0  0  0  0  0  0  0  0  0  0  0  0
    8.3118  -16.0433   27.1678 O   0  0  0  0  0  0  0  0  0  0  0  0
  2  1  1  6
  2  3  1  0
  4  5  2  0
  4  2  1  0
  6  4  1  0
  7  8  1  6
  7  6  1  0
  8  9  1  0
  9 10  2  0
  9 13  1  0
 11  7  1  0
 12 11  2  0
 14 11  1  0
 15 16  1  6
 15 14  1  0
 16 17  1  0
 17 22  2  0
 18 19  2  0
 18 17  1  0
 19 20  1  0
 20 21  2  0
 22 21  1  0
 23 15  1  0
 23 24  1  0
 25 23  2  0
M  END
$$$$
