ADF.pdb
     RDKit          3D

 25 25  0  0  1  0  0  0  0  0999 V2000
    7.9472  -12.6120   20.0771 C   0  0  0  0  0  0  0  0  0  0  0  0
    7.6566  -14.0209   19.6664 C   0  0  2  0  0  0  0  0  0  0  0  0
    6.3317  -14.2170   19.1535 N   0  0  0  0  0  0  0  0  0  0  0  0
    7.9389  -14.9937   20.7692 C   0  0  0  0  0  0  0  0  0  0  0  0
    7.0137  -15.4469   21.4849 O   0  0  0  0  0  0  0  0  0  0  0  0
    9.2764  -15.4484   21.0539 N   0  0  0  0  0  0  0  0  0  0  0  0
    9.5660  -16.3879   22.0939 C   0  0  1  0  0  0  0  0  0  0  0  0
   10.8715  -17.1182   21.9401 C   0  0  0  0  0  0  0  0  0  0  0  0
   10.9970  -17.8002   20.6359 C   0  0  0  0  0  0  0  0  0  0  0  0
   10.2061  -18.7318   20.3639 O   0  0  0  0  0  0  0  0  0  0  0  0
    9.4334  -15.7973   23.4534 C   0  0  0  0  0  0  0  0  0  0  0  0
    9.5290  -14.5865   23.6985 O   0  0  0  0  0  0  0  0  0  0  0  0
   11.9506  -17.4543   19.6992 O   0  0  0  0  0  0  0  0  0  0  0  0
    9.1815  -16.6902   24.5311 N   0  0  0  0  0  0  0  0  0  0  0  0
    8.6588  -16.2276   25.8036 C   0  0  1  0  0  0  0  0  0  0  0  0
    7.3092  -15.6056   25.5071 C   0  0  0  0  0  0  0  0  0  0  0  0
    7.2711  -14.1780   25.9204 C   0  0  0  0  0  0  0  0  0  0  0  0
    6.0817  -13.5190   25.9433 C   0  0  0  0  0  0  0  0  0  0  0  0
    5.9674  -12.1909   26.3196 C   0  0  0  0  0  0  0  0  0  0  0  0
    7.1039  -11.5044   26.6868 C   0  0  0  0  0  0  0  0  0  0  0  0
    8.2995  -12.1726   26.6620 C   0  0  0  0  0  0  0  0  0  0  0  0
    8.4212  -13.4934   26.2892 C   0  0  0  0  0  0  0  0  0  0  0  0
    8.4132  -17.3853   26.7238 C   0  0  0  0  0  0  0  0  0  0  0  0
    8.2289  -18.6614   26.2299 O   0  0  0  0  0  0  0  0  0  0  0  0
    8.3811  -17.1544   27.9586 O   0  0  0  0  0  0  0  0  0  0  0  0
  2  1  1  1
  2  3  1  0
  4  5  2  0
  4  2  1  0
  6  4  1  0
  7  8  1  6
  7  6  1  0
  8  9  1  0
  9 10  2  0
  9 13  1  0
 11  7  1  0
 12 11  2  0
 14 11  1  0
 15 16  1  6
 15 14  1  0
 16 17  1  0
 17 22  2  0
 18 19  2  0
 18 17  1  0
 19 20  1  0
 20 21  2  0
 22 21  1  0
 23 15  1  0
 23 24  1  0
 25 23  2  0
M  END
$$$$
