NMA.pdb
     RDKit          3D

 22 21  0  0  1  0  0  0  0  0999 V2000
   20.2103  -21.8300  -12.9373 N   0  0  0  0  0  0  0  0  0  0  0  0
   20.5867  -20.8379  -12.0168 C   0  0  0  0  0  0  0  0  0  0  0  0
   19.8182  -20.5299  -11.0799 O   0  0  0  0  0  0  0  0  0  0  0  0
   21.8938  -20.1625  -12.1631 C   0  0  0  0  0  0  0  0  0  0  0  0
   22.6255  -20.7328  -13.3558 C   0  0  2  0  0  0  0  0  0  0  0  0
   22.7444  -22.1613  -13.1777 N   0  0  0  0  0  0  0  0  0  0  0  0
   23.9910  -20.1736  -13.4911 C   0  0  0  0  0  0  0  0  0  0  0  0
   24.2055  -18.9284  -13.5941 O   0  0  0  0  0  0  0  0  0  0  0  0
   29.0588  -21.3024  -10.0156 C   0  0  0  0  0  0  0  0  0  0  0  0
   29.9729  -21.3343  -11.6055 S   0  0  0  0  0  0  0  0  0  0  0  0
   28.8856  -20.6449  -12.8495 C   0  0  0  0  0  0  0  0  0  0  0  0
   27.4679  -21.0527  -12.7726 C   0  0  0  0  0  0  0  0  0  0  0  0
   26.5009  -20.4877  -13.7286 C   0  0  2  0  0  0  0  0  0  0  0  0
   25.1630  -20.9984  -13.5150 N   0  0  0  0  0  0  0  0  0  0  0  0
   26.8928  -20.5078  -15.1438 C   0  0  0  0  0  0  0  0  0  0  0  0
   26.7840  -21.4858  -15.9077 O   0  0  0  0  0  0  0  0  0  0  0  0
   28.1305  -17.8295  -17.4979 C   0  0  0  0  0  0  0  0  0  0  0  0
   27.7282  -19.2331  -17.1599 C   0  0  2  0  0  0  0  0  0  0  0  0
   27.4456  -19.3269  -15.7178 N   0  0  0  0  0  0  0  0  0  0  0  0
   28.8653  -20.1258  -17.4862 C   0  0  0  0  0  0  0  0  0  0  0  0
   29.2866  -20.3523  -18.7795 O   0  0  0  0  0  0  0  0  0  0  0  0
   29.4705  -20.6994  -16.5499 O   0  0  0  0  0  0  0  0  0  0  0  0
  1  2  1  0
  2  4  1  0
  3  2  2  0
  4  5  1  0
  5  6  1  1
  7  5  1  0
  8  7  2  0
 10 11  1  0
 10  9  1  0
 11 12  1  0
 13 12  1  1
 13 15  1  0
 13 14  1  0
 14  7  1  0
 15 19  1  0
 16 15  2  0
 18 17  1  1
 18 20  1  0
 19 18  1  0
 20 22  2  0
 20 21  1  0
M  END
$$$$
