NMA.pdb
     RDKit          3D

 22 21  0  0  1  0  0  0  0  0999 V2000
   21.5236  -14.6652  -19.7842 N   0  0  0  0  0  0  0  0  0  0  0  0
   20.6679  -14.7592  -18.6741 C   0  0  0  0  0  0  0  0  0  0  0  0
   19.8735  -15.7196  -18.5763 O   0  0  0  0  0  0  0  0  0  0  0  0
   20.7131  -13.7177  -17.6256 C   0  0  0  0  0  0  0  0  0  0  0  0
   21.6735  -12.6269  -18.0393 C   0  0  2  0  0  0  0  0  0  0  0  0
   23.0055  -13.1839  -18.0818 N   0  0  0  0  0  0  0  0  0  0  0  0
   21.6803  -11.4976  -17.0800 C   0  0  0  0  0  0  0  0  0  0  0  0
   20.8322  -11.4003  -16.1428 O   0  0  0  0  0  0  0  0  0  0  0  0
   27.3695  -11.3268  -14.8177 C   0  0  0  0  0  0  0  0  0  0  0  0
   26.5003  -10.1379  -15.9110 S   0  0  0  0  0  0  0  0  0  0  0  0
   24.9072   -9.8068  -15.1642 C   0  0  0  0  0  0  0  0  0  0  0  0
   24.0227   -8.8816  -15.9017 C   0  0  0  0  0  0  0  0  0  0  0  0
   22.6541   -9.3065  -16.2401 C   0  0  2  0  0  0  0  0  0  0  0  0
   22.6435  -10.4381  -17.1434 N   0  0  0  0  0  0  0  0  0  0  0  0
   21.7238   -8.2475  -16.6520 C   0  0  0  0  0  0  0  0  0  0  0  0
   21.5713   -7.8358  -17.8178 O   0  0  0  0  0  0  0  0  0  0  0  0
   18.9649   -6.3903  -14.9133 C   0  0  0  0  0  0  0  0  0  0  0  0
   19.9880   -6.5303  -15.9997 C   0  0  2  0  0  0  0  0  0  0  0  0
   20.9165   -7.6212  -15.6592 N   0  0  0  0  0  0  0  0  0  0  0  0
   20.7469   -5.2599  -16.0795 C   0  0  0  0  0  0  0  0  0  0  0  0
   20.2733   -4.1506  -16.7478 O   0  0  0  0  0  0  0  0  0  0  0  0
   21.8653   -5.1885  -15.5174 O   0  0  0  0  0  0  0  0  0  0  0  0
  1  2  1  0
  2  4  1  0
  3  2  2  0
  4  5  1  0
  5  6  1  1
  7  5  1  0
  8  7  2  0
 10 11  1  0
 10  9  1  0
 11 12  1  0
 13 12  1  6
 13 15  1  0
 13 14  1  0
 14  7  1  0
 15 19  1  0
 16 15  2  0
 18 17  1  1
 18 20  1  0
 19 18  1  0
 20 22  2  0
 20 21  1  0
M  END
$$$$
