NMA.pdb
     RDKit          3D

 22 21  0  0  1  0  0  0  0  0999 V2000
   10.9916  -10.4691   -9.6763 N   0  0  0  0  0  0  0  0  0  0  0  0
   11.8503  -10.6060   -8.5730 C   0  0  0  0  0  0  0  0  0  0  0  0
   11.4713  -11.2322   -7.5594 O   0  0  0  0  0  0  0  0  0  0  0  0
   13.2011  -10.0064   -8.6186 C   0  0  0  0  0  0  0  0  0  0  0  0
   13.3938   -9.2973   -9.9389 C   0  0  2  0  0  0  0  0  0  0  0  0
   13.4597  -10.2910  -10.9851 N   0  0  0  0  0  0  0  0  0  0  0  0
   14.6513   -8.5141   -9.9722 C   0  0  0  0  0  0  0  0  0  0  0  0
   14.9392   -7.6578   -9.0828 O   0  0  0  0  0  0  0  0  0  0  0  0
   21.7879   -6.9950  -12.2261 C   0  0  0  0  0  0  0  0  0  0  0  0
   20.4701   -8.2162  -11.8568 S   0  0  0  0  0  0  0  0  0  0  0  0
   18.9382   -7.5434  -12.4936 C   0  0  0  0  0  0  0  0  0  0  0  0
   17.7137   -8.3113  -12.1885 C   0  0  0  0  0  0  0  0  0  0  0  0
   16.7956   -7.8228  -11.1462 C   0  0  2  0  0  0  0  0  0  0  0  0
   15.6285   -8.6687  -11.0092 N   0  0  0  0  0  0  0  0  0  0  0  0
   16.4548   -6.3950  -11.1921 C   0  0  0  0  0  0  0  0  0  0  0  0
   15.7541   -5.8492  -12.0655 O   0  0  0  0  0  0  0  0  0  0  0  0
   16.8697   -3.5231   -8.8226 C   0  0  0  0  0  0  0  0  0  0  0  0
   16.7278   -4.0845  -10.2050 C   0  0  2  0  0  0  0  0  0  0  0  0
   16.9520   -5.5393  -10.1672 N   0  0  0  0  0  0  0  0  0  0  0  0
   17.7643   -3.4601  -11.0607 C   0  0  0  0  0  0  0  0  0  0  0  0
   18.8055   -4.1768  -11.6116 O   0  0  0  0  0  0  0  0  0  0  0  0
   17.6935   -2.2304  -11.2945 O   0  0  0  0  0  0  0  0  0  0  0  0
  1  2  1  0
  2  4  1  0
  3  2  2  0
  4  5  1  0
  5  6  1  6
  7  5  1  0
  8  7  2  0
 10 11  1  0
 10  9  1  0
 11 12  1  0
 13 12  1  6
 13 15  1  0
 13 14  1  0
 14  7  1  0
 15 19  1  0
 16 15  2  0
 18 17  1  1
 18 20  1  0
 19 18  1  0
 20 22  2  0
 20 21  1  0
M  END
$$$$
