NMA.pdb
     RDKit          3D

 22 21  0  0  1  0  0  0  0  0999 V2000
   18.8250  -21.6780  -13.3098 N   0  0  0  0  0  0  0  0  0  0  0  0
   19.1950  -21.2446  -12.0258 C   0  0  0  0  0  0  0  0  0  0  0  0
   18.3442  -21.2027  -11.1106 O   0  0  0  0  0  0  0  0  0  0  0  0
   20.5929  -20.8397  -11.7651 C   0  0  0  0  0  0  0  0  0  0  0  0
   21.3516  -20.7769  -13.0703 C   0  0  2  0  0  0  0  0  0  0  0  0
   21.3476  -22.0936  -13.6640 N   0  0  0  0  0  0  0  0  0  0  0  0
   22.7622  -20.3673  -12.8754 C   0  0  0  0  0  0  0  0  0  0  0  0
   23.0789  -19.2405  -12.3883 O   0  0  0  0  0  0  0  0  0  0  0  0
   29.9334  -20.4931  -11.2649 C   0  0  0  0  0  0  0  0  0  0  0  0
   28.1185  -20.6842  -11.0803 S   0  0  0  0  0  0  0  0  0  0  0  0
   27.5540  -21.6842  -12.4538 C   0  0  0  0  0  0  0  0  0  0  0  0
   26.0942  -21.8868  -12.5543 C   0  0  0  0  0  0  0  0  0  0  0  0
   25.2525  -20.8133  -13.1083 C   0  0  2  0  0  0  0  0  0  0  0  0
   23.8657  -21.2135  -13.2226 N   0  0  0  0  0  0  0  0  0  0  0  0
   25.7504  -20.1524  -14.3217 C   0  0  0  0  0  0  0  0  0  0  0  0
   25.6926  -20.6228  -15.4737 O   0  0  0  0  0  0  0  0  0  0  0  0
   27.3206  -16.7759  -14.9586 C   0  0  0  0  0  0  0  0  0  0  0  0
   26.7861  -18.1086  -15.3882 C   0  0  2  0  0  0  0  0  0  0  0  0
   26.3538  -18.8673  -14.2026 N   0  0  0  0  0  0  0  0  0  0  0  0
   27.8828  -18.8467  -16.0581 C   0  0  0  0  0  0  0  0  0  0  0  0
   28.2694  -18.5887  -17.3563 O   0  0  0  0  0  0  0  0  0  0  0  0
   28.4850  -19.7426  -15.4205 O   0  0  0  0  0  0  0  0  0  0  0  0
  1  2  1  0
  2  4  1  0
  3  2  2  0
  4  5  1  0
  5  6  1  1
  7  5  1  0
  8  7  2  0
 10 11  1  0
 10  9  1  0
 11 12  1  0
 13 12  1  6
 13 15  1  0
 13 14  1  0
 14  7  1  0
 15 19  1  0
 16 15  2  0
 18 17  1  1
 18 20  1  0
 19 18  1  0
 20 22  2  0
 20 21  1  0
M  END
$$$$
