NMA.pdb
     RDKit          3D

 22 21  0  0  1  0  0  0  0  0999 V2000
   17.0627  -13.9173  -20.2532 N   0  0  0  0  0  0  0  0  0  0  0  0
   18.3644  -13.4362  -20.0354 C   0  0  0  0  0  0  0  0  0  0  0  0
   19.2897  -13.7627  -20.8102 O   0  0  0  0  0  0  0  0  0  0  0  0
   18.6318  -12.5439  -18.8871 C   0  0  0  0  0  0  0  0  0  0  0  0
   19.8620  -13.0228  -18.1520 C   0  0  2  0  0  0  0  0  0  0  0  0
   19.5335  -14.2495  -17.4638 N   0  0  0  0  0  0  0  0  0  0  0  0
   20.3247  -12.0417  -17.1425 C   0  0  0  0  0  0  0  0  0  0  0  0
   19.8123  -11.9684  -15.9852 O   0  0  0  0  0  0  0  0  0  0  0  0
   26.5834   -9.5980  -16.0647 C   0  0  0  0  0  0  0  0  0  0  0  0
   25.5920  -10.0162  -14.5792 S   0  0  0  0  0  0  0  0  0  0  0  0
   23.8864   -9.6286  -14.9608 C   0  0  0  0  0  0  0  0  0  0  0  0
   23.2377  -10.4802  -15.9787 C   0  0  0  0  0  0  0  0  0  0  0  0
   21.8722  -10.1586  -16.4258 C   0  0  2  0  0  0  0  0  0  0  0  0
   21.3813  -11.1088  -17.4019 N   0  0  0  0  0  0  0  0  0  0  0  0
   21.6245   -8.7659  -16.8206 C   0  0  0  0  0  0  0  0  0  0  0  0
   22.1330   -8.1944  -17.8038 O   0  0  0  0  0  0  0  0  0  0  0  0
   19.3188   -6.0756  -15.5321 C   0  0  0  0  0  0  0  0  0  0  0  0
   20.4762   -6.5644  -16.3493 C   0  0  2  0  0  0  0  0  0  0  0  0
   20.7345   -7.9793  -16.0340 N   0  0  0  0  0  0  0  0  0  0  0  0
   21.6674   -5.7640  -15.9796 C   0  0  0  0  0  0  0  0  0  0  0  0
   21.9425   -4.5353  -16.5417 O   0  0  0  0  0  0  0  0  0  0  0  0
   22.4586   -6.2206  -15.1209 O   0  0  0  0  0  0  0  0  0  0  0  0
  1  2  1  0
  2  4  1  0
  3  2  2  0
  4  5  1  0
  5  6  1  1
  7  5  1  0
  8  7  2  0
 10 11  1  0
 10  9  1  0
 11 12  1  0
 13 12  1  6
 13 15  1  0
 13 14  1  0
 14  7  1  0
 15 19  1  0
 16 15  2  0
 18 17  1  1
 18 20  1  0
 19 18  1  0
 20 22  2  0
 20 21  1  0
M  END
$$$$
