NMA.pdb
     RDKit          3D

 22 21  0  0  1  0  0  0  0  0999 V2000
   27.8677  -20.9887  -16.4992 N   0  0  0  0  0  0  0  0  0  0  0  0
   26.6839  -20.2812  -16.2317 C   0  0  0  0  0  0  0  0  0  0  0  0
   26.2603  -19.4380  -17.0518 O   0  0  0  0  0  0  0  0  0  0  0  0
   25.9449  -20.5399  -14.9775 C   0  0  0  0  0  0  0  0  0  0  0  0
   26.7122  -21.5326  -14.1355 C   0  0  2  0  0  0  0  0  0  0  0  0
   26.6373  -22.8262  -14.7738 N   0  0  0  0  0  0  0  0  0  0  0  0
   26.1460  -21.6618  -12.7723 C   0  0  0  0  0  0  0  0  0  0  0  0
   25.2760  -22.5365  -12.4806 O   0  0  0  0  0  0  0  0  0  0  0  0
   26.8932  -19.5006   -5.1576 C   0  0  0  0  0  0  0  0  0  0  0  0
   27.7352  -19.6365   -6.7815 S   0  0  0  0  0  0  0  0  0  0  0  0
   26.5696  -20.3848   -7.9157 C   0  0  0  0  0  0  0  0  0  0  0  0
   26.9246  -20.3228   -9.3483 C   0  0  0  0  0  0  0  0  0  0  0  0
   26.0241  -20.9300  -10.3425 C   0  0  2  0  0  0  0  0  0  0  0  0
   26.5407  -20.8094  -11.6897 N   0  0  0  0  0  0  0  0  0  0  0  0
   24.6047  -20.5649  -10.2481 C   0  0  0  0  0  0  0  0  0  0  0  0
   23.9264  -20.5738   -9.2033 O   0  0  0  0  0  0  0  0  0  0  0  0
   22.2855  -18.7704  -12.5562 C   0  0  0  0  0  0  0  0  0  0  0  0
   22.5314  -19.6784  -11.3894 C   0  0  2  0  0  0  0  0  0  0  0  0
   23.9210  -20.1635  -11.4318 N   0  0  0  0  0  0  0  0  0  0  0  0
   21.6139  -20.8361  -11.5097 C   0  0  0  0  0  0  0  0  0  0  0  0
   20.2560  -20.7355  -11.2920 O   0  0  0  0  0  0  0  0  0  0  0  0
   22.0894  -21.9533  -11.8221 O   0  0  0  0  0  0  0  0  0  0  0  0
  1  2  1  0
  2  4  1  0
  3  2  2  0
  4  5  1  0
  5  6  1  6
  7  5  1  0
  8  7  2  0
 10 11  1  0
 10  9  1  0
 11 12  1  0
 13 12  1  1
 13 15  1  0
 13 14  1  0
 14  7  1  0
 15 19  1  0
 16 15  2  0
 18 17  1  6
 18 20  1  0
 19 18  1  0
 20 22  2  0
 20 21  1  0
M  END
$$$$
