NMA.pdb
     RDKit          3D

 22 21  0  0  1  0  0  0  0  0999 V2000
   20.7657  -13.0541  -21.8797 N   0  0  0  0  0  0  0  0  0  0  0  0
   19.6311  -12.5988  -21.1878 C   0  0  0  0  0  0  0  0  0  0  0  0
   18.5534  -12.4274  -21.7980 O   0  0  0  0  0  0  0  0  0  0  0  0
   19.7199  -12.3246  -19.7376 C   0  0  0  0  0  0  0  0  0  0  0  0
   21.1331  -12.5717  -19.2632 C   0  0  2  0  0  0  0  0  0  0  0  0
   21.2289  -13.9392  -18.8081 N   0  0  0  0  0  0  0  0  0  0  0  0
   21.5043  -11.6869  -18.1341 C   0  0  0  0  0  0  0  0  0  0  0  0
   20.9818  -11.8007  -16.9846 O   0  0  0  0  0  0  0  0  0  0  0  0
   26.7551  -11.1977  -15.0051 C   0  0  0  0  0  0  0  0  0  0  0  0
   26.5644   -9.4008  -15.3203 S   0  0  0  0  0  0  0  0  0  0  0  0
   24.8400   -9.1166  -15.7085 C   0  0  0  0  0  0  0  0  0  0  0  0
   24.2667   -9.9585  -16.7784 C   0  0  0  0  0  0  0  0  0  0  0  0
   22.8617   -9.7656  -17.1745 C   0  0  2  0  0  0  0  0  0  0  0  0
   22.4776  -10.6424  -18.2609 N   0  0  0  0  0  0  0  0  0  0  0  0
   22.4272   -8.3792  -17.3884 C   0  0  0  0  0  0  0  0  0  0  0  0
   22.6558   -7.7017  -18.4085 O   0  0  0  0  0  0  0  0  0  0  0  0
   20.0880   -6.1192  -15.4983 C   0  0  0  0  0  0  0  0  0  0  0  0
   21.1103   -6.3870  -16.5611 C   0  0  2  0  0  0  0  0  0  0  0  0
   21.6816   -7.7296  -16.3628 N   0  0  0  0  0  0  0  0  0  0  0  0
   22.1888   -5.3801  -16.4221 C   0  0  0  0  0  0  0  0  0  0  0  0
   22.0955   -4.1111  -16.9536 O   0  0  0  0  0  0  0  0  0  0  0  0
   23.2293   -5.6924  -15.7963 O   0  0  0  0  0  0  0  0  0  0  0  0
  1  2  1  0
  2  4  1  0
  3  2  2  0
  4  5  1  0
  5  6  1  1
  7  5  1  0
  8  7  2  0
 10 11  1  0
 10  9  1  0
 11 12  1  0
 13 12  1  6
 13 15  1  0
 13 14  1  0
 14  7  1  0
 15 19  1  0
 16 15  2  0
 18 17  1  1
 18 20  1  0
 19 18  1  0
 20 22  2  0
 20 21  1  0
M  END
$$$$
