NMA.pdb
     RDKit          3D

 22 21  0  0  1  0  0  0  0  0999 V2000
   13.7143  -16.2629  -12.5451 N   0  0  0  0  0  0  0  0  0  0  0  0
   14.2413  -15.3037  -13.4257 C   0  0  0  0  0  0  0  0  0  0  0  0
   15.1032  -15.6351  -14.2685 O   0  0  0  0  0  0  0  0  0  0  0  0
   13.7711  -13.9040  -13.3491 C   0  0  0  0  0  0  0  0  0  0  0  0
   14.9546  -12.9842  -13.1575 C   0  0  2  0  0  0  0  0  0  0  0  0
   15.5586  -13.2784  -11.8788 N   0  0  0  0  0  0  0  0  0  0  0  0
   14.5564  -11.5569  -13.1577 C   0  0  0  0  0  0  0  0  0  0  0  0
   13.9486  -11.0238  -14.1342 O   0  0  0  0  0  0  0  0  0  0  0  0
   10.3291  -10.2469   -8.5310 C   0  0  0  0  0  0  0  0  0  0  0  0
   11.8123   -9.1968   -8.7794 S   0  0  0  0  0  0  0  0  0  0  0  0
   12.5303   -9.6668  -10.3507 C   0  0  0  0  0  0  0  0  0  0  0  0
   13.7592   -8.9482  -10.7453 C   0  0  0  0  0  0  0  0  0  0  0  0
   14.4207   -9.2919  -12.0151 C   0  0  2  0  0  0  0  0  0  0  0  0
   14.8294  -10.6803  -12.0571 N   0  0  0  0  0  0  0  0  0  0  0  0
   15.4775   -8.3790  -12.4697 C   0  0  0  0  0  0  0  0  0  0  0  0
   16.6372   -8.3369  -12.0168 O   0  0  0  0  0  0  0  0  0  0  0  0
   15.9782   -6.2959  -15.4882 C   0  0  0  0  0  0  0  0  0  0  0  0
   16.1990   -6.5205  -14.0229 C   0  0  2  0  0  0  0  0  0  0  0  0
   15.1816   -7.4547  -13.5126 N   0  0  0  0  0  0  0  0  0  0  0  0
   16.0456   -5.2181  -13.3325 C   0  0  0  0  0  0  0  0  0  0  0  0
   16.9562   -4.1916  -13.4686 O   0  0  0  0  0  0  0  0  0  0  0  0
   15.0482   -5.0401  -12.5941 O   0  0  0  0  0  0  0  0  0  0  0  0
  1  2  1  0
  2  4  1  0
  3  2  2  0
  4  5  1  0
  5  6  1  1
  7  5  1  0
  8  7  2  0
 10 11  1  0
 10  9  1  0
 11 12  1  0
 13 12  1  1
 13 15  1  0
 13 14  1  0
 14  7  1  0
 15 19  1  0
 16 15  2  0
 18 17  1  6
 18 20  1  0
 19 18  1  0
 20 22  2  0
 20 21  1  0
M  END
$$$$
