GIN.pdb
     RDKit          3D

 21 20  0  0  1  0  0  0  0  0999 V2000
   22.9877   -9.2309  -18.5749 N   0  0  0  0  0  0  0  0  0  0  0  0
   22.2802   -7.9639  -18.6203 C   0  0  0  0  0  0  0  0  0  0  0  0
   21.6016   -7.7117  -17.3222 C   0  0  0  0  0  0  0  0  0  0  0  0
   20.3489   -7.6050  -17.2985 O   0  0  0  0  0  0  0  0  0  0  0  0
   23.5792  -10.3708  -13.4951 C   0  0  0  0  0  0  0  0  0  0  0  0
   22.3857   -9.6869  -14.0687 C   0  0  0  0  0  0  0  0  0  0  0  0
   22.3407   -8.2097  -13.7447 C   0  0  2  0  0  0  0  0  0  0  0  0
   21.5624   -8.0143  -12.4616 C   0  0  0  0  0  0  0  0  0  0  0  0
   21.7192   -7.3911  -14.8282 C   0  0  2  0  0  0  0  0  0  0  0  0
   22.3384   -7.5893  -16.1129 N   0  0  0  0  0  0  0  0  0  0  0  0
   21.8175   -5.9475  -14.4151 C   0  0  0  0  0  0  0  0  0  0  0  0
   22.8991   -5.4646  -14.0549 O   0  0  0  0  0  0  0  0  0  0  0  0
   22.6571   -1.0850  -15.6611 N   0  0  0  0  0  0  0  0  0  0  0  0
   21.4616   -1.8182  -15.8947 C   0  0  0  0  0  0  0  0  0  0  0  0
   20.4561   -1.1949  -16.2915 O   0  0  0  0  0  0  0  0  0  0  0  0
   21.4030   -3.2591  -15.6796 C   0  0  0  0  0  0  0  0  0  0  0  0
   20.7106   -3.6872  -14.4059 C   0  0  2  0  0  0  0  0  0  0  0  0
   20.6365   -5.1570  -14.4501 N   0  0  0  0  0  0  0  0  0  0  0  0
   19.3243   -3.1641  -14.4396 C   0  0  0  0  0  0  0  0  0  0  0  0
   18.2657   -3.9164  -14.9221 O   0  0  0  0  0  0  0  0  0  0  0  0
   19.0611   -2.0185  -14.0318 O   0  0  0  0  0  0  0  0  0  0  0  0
  1  2  1  0
  2  3  1  0
  3 10  1  0
  3  4  2  0
  6  7  1  0
  6  5  1  0
  7  8  1  1
  9 11  1  0
  9  7  1  0
  9 10  1  6
 11 12  2  0
 13 14  1  0
 14 15  2  0
 17 16  1  6
 16 14  1  0
 18 17  1  0
 18 11  1  0
 19 20  1  0
 19 17  1  0
 21 19  2  0
M  END
$$$$
