GIN.pdb
     RDKit          3D

 21 20  0  0  1  0  0  0  0  0999 V2000
   20.9673  -13.4284  -17.4209 N   0  0  0  0  0  0  0  0  0  0  0  0
   21.3751  -12.1669  -18.0125 C   0  0  0  0  0  0  0  0  0  0  0  0
   22.0557  -11.3229  -16.9957 C   0  0  0  0  0  0  0  0  0  0  0  0
   21.6371  -11.3382  -15.8101 O   0  0  0  0  0  0  0  0  0  0  0  0
   25.9211  -11.1377  -14.8042 C   0  0  0  0  0  0  0  0  0  0  0  0
   25.9378  -10.7878  -16.2527 C   0  0  0  0  0  0  0  0  0  0  0  0
   25.2441   -9.4765  -16.5502 C   0  0  2  0  0  0  0  0  0  0  0  0
   25.7678   -8.4203  -15.6012 C   0  0  0  0  0  0  0  0  0  0  0  0
   23.7581   -9.5585  -16.4257 C   0  0  2  0  0  0  0  0  0  0  0  0
   23.1653  -10.5028  -17.3368 N   0  0  0  0  0  0  0  0  0  0  0  0
   23.2088   -8.1788  -16.6685 C   0  0  0  0  0  0  0  0  0  0  0  0
   23.2630   -7.6650  -17.7936 O   0  0  0  0  0  0  0  0  0  0  0  0
   20.7987   -3.6436  -13.5866 N   0  0  0  0  0  0  0  0  0  0  0  0
   20.4833   -4.5876  -14.6020 C   0  0  0  0  0  0  0  0  0  0  0  0
   19.6562   -4.2583  -15.4763 O   0  0  0  0  0  0  0  0  0  0  0  0
   21.1045   -5.9064  -14.6290 C   0  0  0  0  0  0  0  0  0  0  0  0
   22.1160   -6.1136  -15.7330 C   0  0  2  0  0  0  0  0  0  0  0  0
   22.6280   -7.4846  -15.5722 N   0  0  0  0  0  0  0  0  0  0  0  0
   23.2442   -5.1805  -15.5023 C   0  0  0  0  0  0  0  0  0  0  0  0
   23.4631   -4.0768  -16.3106 O   0  0  0  0  0  0  0  0  0  0  0  0
   24.0425   -5.3591  -14.5648 O   0  0  0  0  0  0  0  0  0  0  0  0
  1  2  1  0
  2  3  1  0
  3 10  1  0
  3  4  2  0
  6  7  1  0
  6  5  1  0
  7  8  1  1
  9 11  1  0
  9  7  1  0
  9 10  1  6
 11 12  2  0
 13 14  1  0
 14 15  2  0
 17 16  1  1
 16 14  1  0
 18 17  1  0
 18 11  1  0
 19 20  1  0
 19 17  1  0
 21 19  2  0
M  END
$$$$
