GIN.pdb
     RDKit          3D

 21 20  0  0  1  0  0  0  0  0999 V2000
   23.2545  -15.7485  -17.8806 N   0  0  0  0  0  0  0  0  0  0  0  0
   23.6077  -14.4642  -18.4582 C   0  0  0  0  0  0  0  0  0  0  0  0
   23.8225  -13.4623  -17.3814 C   0  0  0  0  0  0  0  0  0  0  0  0
   22.9178  -13.2802  -16.5273 O   0  0  0  0  0  0  0  0  0  0  0  0
   27.8635  -13.5184  -16.4216 C   0  0  0  0  0  0  0  0  0  0  0  0
   27.3820  -12.5079  -15.4377 C   0  0  0  0  0  0  0  0  0  0  0  0
   26.6608  -11.3483  -16.0890 C   0  0  2  0  0  0  0  0  0  0  0  0
   26.7678  -10.1377  -15.1871 C   0  0  0  0  0  0  0  0  0  0  0  0
   25.2207  -11.6336  -16.3630 C   0  0  2  0  0  0  0  0  0  0  0  0
   25.0255  -12.7097  -17.2995 N   0  0  0  0  0  0  0  0  0  0  0  0
   24.6013  -10.3651  -16.8843 C   0  0  0  0  0  0  0  0  0  0  0  0
   24.9118   -9.9200  -17.9971 O   0  0  0  0  0  0  0  0  0  0  0  0
   19.4374   -8.1890  -18.0278 N   0  0  0  0  0  0  0  0  0  0  0  0
   20.8044   -7.9432  -17.7238 C   0  0  0  0  0  0  0  0  0  0  0  0
   21.2624   -6.8045  -17.9484 O   0  0  0  0  0  0  0  0  0  0  0  0
   21.6551   -8.9870  -17.1645 C   0  0  0  0  0  0  0  0  0  0  0  0
   22.9472   -8.4976  -16.5514 C   0  0  2  0  0  0  0  0  0  0  0  0
   23.6528   -9.6948  -16.0646 N   0  0  0  0  0  0  0  0  0  0  0  0
   22.6090   -7.6632  -15.3741 C   0  0  0  0  0  0  0  0  0  0  0  0
   22.3455   -6.3075  -15.4846 O   0  0  0  0  0  0  0  0  0  0  0  0
   22.5503   -8.1570  -14.2337 O   0  0  0  0  0  0  0  0  0  0  0  0
  1  2  1  0
  2  3  1  0
  3 10  1  0
  3  4  2  0
  6  7  1  0
  6  5  1  0
  7  8  1  1
  9 11  1  0
  9  7  1  0
  9 10  1  6
 11 12  2  0
 13 14  1  0
 14 15  2  0
 17 16  1  1
 16 14  1  0
 18 17  1  0
 18 11  1  0
 19 20  1  0
 19 17  1  0
 21 19  2  0
M  END
$$$$
