GIN.pdb
     RDKit          3D

 21 20  0  0  1  0  0  0  0  0999 V2000
   28.8305  -20.9531  -15.5476 N   0  0  0  0  0  0  0  0  0  0  0  0
   28.1500  -20.0777  -14.6105 C   0  0  0  0  0  0  0  0  0  0  0  0
   27.1158  -20.8379  -13.8608 C   0  0  0  0  0  0  0  0  0  0  0  0
   26.6514  -21.8938  -14.3614 O   0  0  0  0  0  0  0  0  0  0  0  0
   26.6178  -20.1115   -8.4420 C   0  0  0  0  0  0  0  0  0  0  0  0
   26.4682  -20.9390   -9.6724 C   0  0  0  0  0  0  0  0  0  0  0  0
   25.3127  -20.4967  -10.5432 C   0  0  2  0  0  0  0  0  0  0  0  0
   24.0297  -21.0694   -9.9806 C   0  0  0  0  0  0  0  0  0  0  0  0
   25.4581  -20.9188  -11.9683 C   0  0  2  0  0  0  0  0  0  0  0  0
   26.6443  -20.3959  -12.5950 N   0  0  0  0  0  0  0  0  0  0  0  0
   24.2289  -20.4566  -12.7029 C   0  0  0  0  0  0  0  0  0  0  0  0
   23.9634  -19.2509  -12.7963 O   0  0  0  0  0  0  0  0  0  0  0  0
   21.1249  -21.8502  -17.4589 N   0  0  0  0  0  0  0  0  0  0  0  0
   20.9537  -22.0135  -16.0569 C   0  0  0  0  0  0  0  0  0  0  0  0
   19.7913  -22.0333  -15.6036 O   0  0  0  0  0  0  0  0  0  0  0  0
   22.0989  -22.1552  -15.1657 C   0  0  0  0  0  0  0  0  0  0  0  0
   22.2528  -21.0527  -14.1431 C   0  0  2  0  0  0  0  0  0  0  0  0
   23.3839  -21.4410  -13.2842 N   0  0  0  0  0  0  0  0  0  0  0  0
   21.0328  -21.0342  -13.3018 C   0  0  0  0  0  0  0  0  0  0  0  0
   20.0111  -20.1213  -13.5075 O   0  0  0  0  0  0  0  0  0  0  0  0
   20.8833  -21.8463  -12.3711 O   0  0  0  0  0  0  0  0  0  0  0  0
  1  2  1  0
  2  3  1  0
  3 10  1  0
  3  4  2  0
  6  7  1  0
  6  5  1  0
  7  8  1  1
  9 11  1  0
  9  7  1  0
  9 10  1  6
 11 12  2  0
 13 14  1  0
 14 15  2  0
 17 16  1  6
 16 14  1  0
 18 17  1  0
 18 11  1  0
 19 20  1  0
 19 17  1  0
 21 19  2  0
M  END
$$$$
