GIN.pdb
     RDKit          3D

 21 20  0  0  1  0  0  0  0  0999 V2000
   28.0689  -21.8054  -15.8927 N   0  0  0  0  0  0  0  0  0  0  0  0
   28.0108  -20.9821  -14.6983 C   0  0  0  0  0  0  0  0  0  0  0  0
   26.8387  -21.3674  -13.8694 C   0  0  0  0  0  0  0  0  0  0  0  0
   26.1695  -22.3819  -14.1923 O   0  0  0  0  0  0  0  0  0  0  0  0
   26.9956  -20.2951   -8.5748 C   0  0  0  0  0  0  0  0  0  0  0  0
   26.6504  -21.0251   -9.8274 C   0  0  0  0  0  0  0  0  0  0  0  0
   25.4212  -20.4700  -10.5132 C   0  0  2  0  0  0  0  0  0  0  0  0
   24.1933  -20.9065   -9.7437 C   0  0  0  0  0  0  0  0  0  0  0  0
   25.2947  -20.9099  -11.9347 C   0  0  2  0  0  0  0  0  0  0  0  0
   26.4618  -20.6144  -12.7244 N   0  0  0  0  0  0  0  0  0  0  0  0
   24.0839  -20.2274  -12.5115 C   0  0  0  0  0  0  0  0  0  0  0  0
   24.1656  -19.0856  -12.9829 O   0  0  0  0  0  0  0  0  0  0  0  0
   23.3692  -20.7491  -17.0621 N   0  0  0  0  0  0  0  0  0  0  0  0
   22.6376  -20.3722  -15.9027 C   0  0  0  0  0  0  0  0  0  0  0  0
   22.1945  -19.2075  -15.8383 O   0  0  0  0  0  0  0  0  0  0  0  0
   22.4061  -21.3142  -14.8142 C   0  0  0  0  0  0  0  0  0  0  0  0
   21.8421  -20.7049  -13.5511 C   0  0  2  0  0  0  0  0  0  0  0  0
   22.8478  -20.9294  -12.4994 N   0  0  0  0  0  0  0  0  0  0  0  0
   20.6241  -21.4635  -13.1802 C   0  0  0  0  0  0  0  0  0  0  0  0
   19.3643  -20.8874  -13.1993 O   0  0  0  0  0  0  0  0  0  0  0  0
   20.6923  -22.6567  -12.8345 O   0  0  0  0  0  0  0  0  0  0  0  0
  1  2  1  0
  2  3  1  0
  3 10  1  0
  3  4  2  0
  6  7  1  0
  6  5  1  0
  7  8  1  1
  9 11  1  0
  9  7  1  0
  9 10  1  6
 11 12  2  0
 13 14  1  0
 14 15  2  0
 17 16  1  6
 16 14  1  0
 18 17  1  0
 18 11  1  0
 19 20  1  0
 19 17  1  0
 21 19  2  0
M  END
$$$$
