GIN.pdb
     RDKit          3D

 21 20  0  0  1  0  0  0  0  0999 V2000
   22.8192  -14.6791  -15.4060 N   0  0  0  0  0  0  0  0  0  0  0  0
   24.2553  -14.7841  -15.2202 C   0  0  0  0  0  0  0  0  0  0  0  0
   24.6742  -16.2091  -15.2764 C   0  0  0  0  0  0  0  0  0  0  0  0
   23.7949  -17.0999  -15.3969 O   0  0  0  0  0  0  0  0  0  0  0  0
   29.2101  -17.7940  -17.9259 C   0  0  0  0  0  0  0  0  0  0  0  0
   27.8528  -17.7053  -17.3168 C   0  0  0  0  0  0  0  0  0  0  0  0
   27.8324  -18.1157  -15.8607 C   0  0  2  0  0  0  0  0  0  0  0  0
   28.2605  -19.5634  -15.7550 C   0  0  0  0  0  0  0  0  0  0  0  0
   26.4915  -17.9501  -15.2243 C   0  0  2  0  0  0  0  0  0  0  0  0
   26.0434  -16.5820  -15.1967 N   0  0  0  0  0  0  0  0  0  0  0  0
   26.5851  -18.5001  -13.8268 C   0  0  0  0  0  0  0  0  0  0  0  0
   27.3105  -17.9601  -12.9813 O   0  0  0  0  0  0  0  0  0  0  0  0
   25.2948  -21.2963   -9.5770 N   0  0  0  0  0  0  0  0  0  0  0  0
   24.1954  -20.8831  -10.3783 C   0  0  0  0  0  0  0  0  0  0  0  0
   23.0445  -21.0230   -9.9167 O   0  0  0  0  0  0  0  0  0  0  0  0
   24.3975  -20.3105  -11.7038 C   0  0  0  0  0  0  0  0  0  0  0  0
   25.8397  -20.2204  -12.1476 C   0  0  2  0  0  0  0  0  0  0  0  0
   25.8190  -19.6542  -13.5065 N   0  0  0  0  0  0  0  0  0  0  0  0
   26.3776  -21.5983  -12.2409 C   0  0  0  0  0  0  0  0  0  0  0  0
   27.1294  -22.1649  -11.2245 O   0  0  0  0  0  0  0  0  0  0  0  0
   26.1707  -22.3007  -13.2468 O   0  0  0  0  0  0  0  0  0  0  0  0
  1  2  1  0
  2  3  1  0
  3 10  1  0
  3  4  2  0
  6  7  1  0
  6  5  1  0
  7  8  1  6
  9 11  1  0
  9  7  1  0
  9 10  1  1
 11 12  2  0
 13 14  1  0
 14 15  2  0
 17 16  1  6
 16 14  1  0
 18 17  1  0
 18 11  1  0
 19 20  1  0
 19 17  1  0
 21 19  2  0
M  END
$$$$
