GIN.pdb
     RDKit          3D

 21 20  0  0  1  0  0  0  0  0999 V2000
   19.5743  -14.3517  -15.9834 N   0  0  0  0  0  0  0  0  0  0  0  0
   20.1427  -13.3006  -16.8079 C   0  0  0  0  0  0  0  0  0  0  0  0
   20.9320  -12.3630  -15.9670 C   0  0  0  0  0  0  0  0  0  0  0  0
   20.3770  -11.8098  -14.9835 O   0  0  0  0  0  0  0  0  0  0  0  0
   26.3198  -13.0180  -15.0439 C   0  0  0  0  0  0  0  0  0  0  0  0
   24.8673  -12.6973  -14.9513 C   0  0  0  0  0  0  0  0  0  0  0  0
   24.5224  -11.3494  -15.5459 C   0  0  2  0  0  0  0  0  0  0  0  0
   25.2272  -10.2705  -14.7524 C   0  0  0  0  0  0  0  0  0  0  0  0
   23.0548  -11.0733  -15.5588 C   0  0  2  0  0  0  0  0  0  0  0  0
   22.2956  -12.0812  -16.2522 N   0  0  0  0  0  0  0  0  0  0  0  0
   22.8550   -9.7287  -16.2042 C   0  0  0  0  0  0  0  0  0  0  0  0
   23.0951   -9.5623  -17.4073 O   0  0  0  0  0  0  0  0  0  0  0  0
   20.6929   -5.1711  -17.2294 N   0  0  0  0  0  0  0  0  0  0  0  0
   20.1631   -6.4730  -17.4435 C   0  0  0  0  0  0  0  0  0  0  0  0
   19.1308   -6.5826  -18.1358 O   0  0  0  0  0  0  0  0  0  0  0  0
   20.8020   -7.6535  -16.8740 C   0  0  0  0  0  0  0  0  0  0  0  0
   21.9997   -7.3708  -15.9963 C   0  0  2  0  0  0  0  0  0  0  0  0
   22.3844   -8.6586  -15.3952 N   0  0  0  0  0  0  0  0  0  0  0  0
   21.5634   -6.4736  -14.9002 C   0  0  0  0  0  0  0  0  0  0  0  0
   21.4445   -6.9142  -13.5921 O   0  0  0  0  0  0  0  0  0  0  0  0
   21.2851   -5.2810  -15.1201 O   0  0  0  0  0  0  0  0  0  0  0  0
  1  2  1  0
  2  3  1  0
  3 10  1  0
  3  4  2  0
  6  7  1  0
  6  5  1  0
  7  8  1  1
  9 11  1  0
  9  7  1  0
  9 10  1  6
 11 12  2  0
 13 14  1  0
 14 15  2  0
 17 16  1  6
 16 14  1  0
 18 17  1  0
 18 11  1  0
 19 20  1  0
 19 17  1  0
 21 19  2  0
M  END
$$$$
