GIN.pdb
     RDKit          3D

 21 20  0  0  1  0  0  0  0  0999 V2000
   12.8879  -11.3547    7.2138 N   0  0  0  0  0  0  0  0  0  0  0  0
   14.1572  -10.6593    7.3277 C   0  0  0  0  0  0  0  0  0  0  0  0
   15.2709  -11.6403    7.4094 C   0  0  0  0  0  0  0  0  0  0  0  0
   15.0012  -12.8673    7.4635 O   0  0  0  0  0  0  0  0  0  0  0  0
   21.1626  -12.2890    5.7521 C   0  0  0  0  0  0  0  0  0  0  0  0
   20.0590  -12.6635    6.6810 C   0  0  0  0  0  0  0  0  0  0  0  0
   18.8839  -11.7128    6.6135 C   0  0  2  0  0  0  0  0  0  0  0  0
   19.3448  -10.3352    7.0378 C   0  0  0  0  0  0  0  0  0  0  0  0
   17.7380  -12.1361    7.4727 C   0  0  2  0  0  0  0  0  0  0  0  0
   16.6284  -11.2196    7.4276 N   0  0  0  0  0  0  0  0  0  0  0  0
   18.2543  -12.2666    8.8800 C   0  0  0  0  0  0  0  0  0  0  0  0
   18.5383  -11.2622    9.5457 O   0  0  0  0  0  0  0  0  0  0  0  0
   15.9268  -14.7844   13.1979 N   0  0  0  0  0  0  0  0  0  0  0  0
   17.0406  -14.1227   12.6123 C   0  0  0  0  0  0  0  0  0  0  0  0
   17.4418  -13.0654   13.1398 O   0  0  0  0  0  0  0  0  0  0  0  0
   17.7025  -14.6576   11.4284 C   0  0  0  0  0  0  0  0  0  0  0  0
   18.7690  -13.7659   10.8350 C   0  0  2  0  0  0  0  0  0  0  0  0
   18.4061  -13.5724    9.4212 N   0  0  0  0  0  0  0  0  0  0  0  0
   20.0554  -14.5010   10.8743 C   0  0  0  0  0  0  0  0  0  0  0  0
   20.8677  -14.5028   11.9966 O   0  0  0  0  0  0  0  0  0  0  0  0
   20.4543  -15.1483    9.8895 O   0  0  0  0  0  0  0  0  0  0  0  0
  1  2  1  0
  2  3  1  0
  3 10  1  0
  3  4  2  0
  6  7  1  0
  6  5  1  0
  7  8  1  1
  9 11  1  0
  9  7  1  0
  9 10  1  1
 11 12  2  0
 13 14  1  0
 14 15  2  0
 17 16  1  1
 16 14  1  0
 18 17  1  0
 18 11  1  0
 19 20  1  0
 19 17  1  0
 21 19  2  0
M  END
$$$$
