GIN.pdb
     RDKit          3D

 21 20  0  0  1  0  0  0  0  0999 V2000
   18.0562  -11.0778  -18.3849 N   0  0  0  0  0  0  0  0  0  0  0  0
   19.2480  -10.2582  -18.5104 C   0  0  0  0  0  0  0  0  0  0  0  0
   19.5938   -9.6560  -17.1962 C   0  0  0  0  0  0  0  0  0  0  0  0
   18.6670   -9.2887  -16.4299 O   0  0  0  0  0  0  0  0  0  0  0  0
   23.5857  -11.5296  -14.2718 C   0  0  0  0  0  0  0  0  0  0  0  0
   22.3073  -10.8312  -14.5865 C   0  0  0  0  0  0  0  0  0  0  0  0
   22.4998   -9.3644  -14.9037 C   0  0  2  0  0  0  0  0  0  0  0  0
   22.7461   -8.6135  -13.6130 C   0  0  0  0  0  0  0  0  0  0  0  0
   21.3315   -8.7598  -15.6108 C   0  0  2  0  0  0  0  0  0  0  0  0
   20.9459   -9.4884  -16.7913 N   0  0  0  0  0  0  0  0  0  0  0  0
   21.7019   -7.3449  -15.9647 C   0  0  0  0  0  0  0  0  0  0  0  0
   22.4151   -7.1044  -16.9476 O   0  0  0  0  0  0  0  0  0  0  0  0
   19.9202   -2.9090  -18.4253 N   0  0  0  0  0  0  0  0  0  0  0  0
   20.7236   -3.3070  -17.3218 C   0  0  0  0  0  0  0  0  0  0  0  0
   21.4723   -2.4556  -16.8007 O   0  0  0  0  0  0  0  0  0  0  0  0
   20.6802   -4.6702  -16.8064 C   0  0  0  0  0  0  0  0  0  0  0  0
   21.4222   -4.8859  -15.5072 C   0  0  2  0  0  0  0  0  0  0  0  0
   21.2110   -6.2960  -15.1402 N   0  0  0  0  0  0  0  0  0  0  0  0
   20.7795   -4.0477  -14.4675 C   0  0  0  0  0  0  0  0  0  0  0  0
   21.3756   -2.8968  -13.9782 O   0  0  0  0  0  0  0  0  0  0  0  0
   19.6706   -4.3529  -13.9929 O   0  0  0  0  0  0  0  0  0  0  0  0
  1  2  1  0
  2  3  1  0
  3 10  1  0
  3  4  2  0
  6  7  1  0
  6  5  1  0
  7  8  1  1
  9 11  1  0
  9  7  1  0
  9 10  1  6
 11 12  2  0
 13 14  1  0
 14 15  2  0
 17 16  1  6
 16 14  1  0
 18 17  1  0
 18 11  1  0
 19 20  1  0
 19 17  1  0
 21 19  2  0
M  END
$$$$
