HCP.pdb
     RDKit          3D

 24 25  0  0  1  0  0  0  0  0999 V2000
   20.7428  -15.3652  -18.0316 N   0  0  0  0  0  0  0  0  0  0  0  0
   20.8223  -14.0000  -18.5457 C   0  0  1  0  0  0  0  0  0  0  0  0
   19.4921  -13.7221  -19.2032 C   0  0  0  0  0  0  0  0  0  0  0  0
   19.4333  -14.5364  -20.4485 C   0  0  0  0  0  0  0  0  0  0  0  0
   19.9679  -14.2458  -21.6849 C   0  0  0  0  0  0  0  0  0  0  0  0
   19.6904  -15.2527  -22.5543 N   0  0  0  0  0  0  0  0  0  0  0  0
   18.9873  -16.1633  -21.8611 C   0  0  0  0  0  0  0  0  0  0  0  0
   18.8284  -15.7477  -20.6074 N   0  0  0  0  0  0  0  0  0  0  0  0
   21.1744  -13.0829  -17.4652 C   0  0  0  0  0  0  0  0  0  0  0  0
   20.5307  -13.1027  -16.3847 O   0  0  0  0  0  0  0  0  0  0  0  0
   22.2366  -12.1216  -17.5341 N   0  0  0  0  0  0  0  0  0  0  0  0
   22.5407  -11.2191  -16.4601 C   0  0  1  0  0  0  0  0  0  0  0  0
   24.0473  -10.9252  -16.5700 C   0  0  0  0  0  0  0  0  0  0  0  0
   24.9062  -12.3433  -15.8361 S   0  0  0  0  0  0  0  0  0  0  0  0
   21.8309   -9.9500  -16.4297 C   0  0  0  0  0  0  0  0  0  0  0  0
   21.5157   -9.4228  -17.5760 O   0  0  0  0  0  0  0  0  0  0  0  0
   21.4225   -9.1837  -15.3259 N   0  0  0  0  0  0  0  0  0  0  0  0
   21.6840   -9.4610  -13.8981 C   0  0  0  0  0  0  0  0  0  0  0  0
   20.3969   -9.1189  -13.2226 C   0  0  0  0  0  0  0  0  0  0  0  0
   19.8357   -7.9906  -14.0362 C   0  0  0  0  0  0  0  0  0  0  0  0
   20.6733   -7.9585  -15.3191 C   0  0  1  0  0  0  0  0  0  0  0  0
   21.5929   -6.7793  -15.1736 C   0  0  0  0  0  0  0  0  0  0  0  0
   22.7997   -6.9201  -14.8805 O   0  0  0  0  0  0  0  0  0  0  0  0
   21.1267   -5.4868  -15.3622 O   0  0  0  0  0  0  0  0  0  0  0  0
  2  1  1  1
  3  2  1  0
  3  4  1  0
  4  5  2  0
  5  6  1  0
  7  6  1  0
  8  4  1  0
  8  7  2  0
  9  2  1  0
  9 10  2  0
 11  9  1  0
 12 11  1  0
 12 15  1  0
 12 13  1  6
 14 13  1  0
 15 17  1  0
 16 15  2  0
 17 21  1  0
 17 18  1  0
 19 18  1  0
 20 19  1  0
 20 21  1  0
 21 22  1  1
 22 23  2  0
 22 24  1  0
M  END
$$$$
