HCP.pdb
     RDKit          3D

 24 25  0  0  1  0  0  0  0  0999 V2000
   16.2345  -21.0910   -0.2944 N   0  0  0  0  0  0  0  0  0  0  0  0
   15.7783  -21.1078    1.0934 C   0  0  1  0  0  0  0  0  0  0  0  0
   15.6312  -22.5627    1.4683 C   0  0  0  0  0  0  0  0  0  0  0  0
   14.4898  -23.1102    0.6840 C   0  0  0  0  0  0  0  0  0  0  0  0
   14.5106  -24.0937   -0.2811 C   0  0  0  0  0  0  0  0  0  0  0  0
   13.2536  -24.3005   -0.7541 N   0  0  0  0  0  0  0  0  0  0  0  0
   12.4570  -23.4500   -0.0862 C   0  0  0  0  0  0  0  0  0  0  0  0
   13.1816  -22.7370    0.7718 N   0  0  0  0  0  0  0  0  0  0  0  0
   16.7061  -20.3511    1.9296 C   0  0  0  0  0  0  0  0  0  0  0  0
   17.9453  -20.5438    1.8325 O   0  0  0  0  0  0  0  0  0  0  0  0
   16.3076  -19.3652    2.8922 N   0  0  0  0  0  0  0  0  0  0  0  0
   17.2483  -18.6345    3.6931 C   0  0  1  0  0  0  0  0  0  0  0  0
   16.6233  -17.2461    3.9163 C   0  0  0  0  0  0  0  0  0  0  0  0
   17.8000  -16.3045    4.9243 S   0  0  0  0  0  0  0  0  0  0  0  0
   17.5973  -19.1899    4.9912 C   0  0  0  0  0  0  0  0  0  0  0  0
   16.6838  -19.8878    5.5992 O   0  0  0  0  0  0  0  0  0  0  0  0
   18.7992  -19.0868    5.7106 N   0  0  0  0  0  0  0  0  0  0  0  0
   20.0464  -18.4222    5.2786 C   0  0  0  0  0  0  0  0  0  0  0  0
   21.1256  -19.3456    5.7398 C   0  0  0  0  0  0  0  0  0  0  0  0
   20.5855  -19.9519    7.0010 C   0  0  0  0  0  0  0  0  0  0  0  0
   19.0978  -19.5851    7.0240 C   0  0  1  0  0  0  0  0  0  0  0  0
   18.9657  -18.4909    8.0452 C   0  0  0  0  0  0  0  0  0  0  0  0
   18.8508  -17.2919    7.7117 O   0  0  0  0  0  0  0  0  0  0  0  0
   18.9667  -18.7806    9.4015 O   0  0  0  0  0  0  0  0  0  0  0  0
  2  1  1  6
  3  2  1  0
  3  4  1  0
  4  5  2  0
  5  6  1  0
  7  6  1  0
  8  4  1  0
  8  7  2  0
  9  2  1  0
  9 10  2  0
 11  9  1  0
 12 11  1  0
 12 15  1  0
 12 13  1  1
 14 13  1  0
 15 17  1  0
 16 15  2  0
 17 21  1  0
 17 18  1  0
 19 18  1  0
 20 19  1  0
 20 21  1  0
 21 22  1  1
 22 23  2  0
 22 24  1  0
M  END
$$$$
