HCP.pdb
     RDKit          3D

 24 25  0  0  1  0  0  0  0  0999 V2000
   17.3169  -12.2399  -17.2565 N   0  0  0  0  0  0  0  0  0  0  0  0
   18.5017  -11.7512  -16.5552 C   0  0  1  0  0  0  0  0  0  0  0  0
   19.6681  -12.5341  -17.1078 C   0  0  0  0  0  0  0  0  0  0  0  0
   19.5174  -13.9416  -16.6454 C   0  0  0  0  0  0  0  0  0  0  0  0
   18.8996  -14.9909  -17.2905 C   0  0  0  0  0  0  0  0  0  0  0  0
   18.9812  -16.1122  -16.5272 N   0  0  0  0  0  0  0  0  0  0  0  0
   19.6460  -15.7607  -15.4144 C   0  0  0  0  0  0  0  0  0  0  0  0
   19.9699  -14.4717  -15.4738 N   0  0  0  0  0  0  0  0  0  0  0  0
   18.6080  -10.3030  -16.7107 C   0  0  0  0  0  0  0  0  0  0  0  0
   18.0229   -9.7252  -17.6626 O   0  0  0  0  0  0  0  0  0  0  0  0
   19.3536   -9.4478  -15.8333 N   0  0  0  0  0  0  0  0  0  0  0  0
   19.2932   -8.0155  -15.9055 C   0  0  1  0  0  0  0  0  0  0  0  0
   17.8377   -7.6378  -15.5782 C   0  0  0  0  0  0  0  0  0  0  0  0
   17.7806   -5.8279  -15.4868 S   0  0  0  0  0  0  0  0  0  0  0  0
   20.1682   -7.2622  -15.0211 C   0  0  0  0  0  0  0  0  0  0  0  0
   20.1591   -7.5902  -13.7626 O   0  0  0  0  0  0  0  0  0  0  0  0
   21.0446   -6.2068  -15.3218 N   0  0  0  0  0  0  0  0  0  0  0  0
   21.0974   -5.4150  -16.5684 C   0  0  0  0  0  0  0  0  0  0  0  0
   22.5583   -5.2496  -16.8292 C   0  0  0  0  0  0  0  0  0  0  0  0
   23.1776   -5.1896  -15.4644 C   0  0  0  0  0  0  0  0  0  0  0  0
   22.0779   -5.6438  -14.4985 C   0  0  1  0  0  0  0  0  0  0  0  0
   21.5904   -4.3937  -13.8224 C   0  0  0  0  0  0  0  0  0  0  0  0
   22.2830   -3.7945  -12.9719 O   0  0  0  0  0  0  0  0  0  0  0  0
   20.3459   -3.8613  -14.1245 O   0  0  0  0  0  0  0  0  0  0  0  0
  2  1  1  6
  3  2  1  0
  3  4  1  0
  4  5  2  0
  5  6  1  0
  7  6  1  0
  8  4  1  0
  8  7  2  0
  9  2  1  0
  9 10  2  0
 11  9  1  0
 12 11  1  0
 12 15  1  0
 12 13  1  1
 14 13  1  0
 15 17  1  0
 16 15  2  0
 17 21  1  0
 17 18  1  0
 19 18  1  0
 20 19  1  0
 20 21  1  0
 21 22  1  6
 22 23  2  0
 22 24  1  0
M  END
$$$$
