HCP.pdb
     RDKit          3D

 24 25  0  0  1  0  0  0  0  0999 V2000
   24.1196  -19.2945  -18.5754 N   0  0  0  0  0  0  0  0  0  0  0  0
   22.9383  -19.6009  -19.3785 C   0  0  1  0  0  0  0  0  0  0  0  0
   22.0116  -20.3825  -18.4789 C   0  0  0  0  0  0  0  0  0  0  0  0
   22.0828  -19.7665  -17.1250 C   0  0  0  0  0  0  0  0  0  0  0  0
   21.2608  -18.8037  -16.5806 C   0  0  0  0  0  0  0  0  0  0  0  0
   21.6665  -18.5138  -15.3165 N   0  0  0  0  0  0  0  0  0  0  0  0
   22.7345  -19.2924  -15.0777 C   0  0  0  0  0  0  0  0  0  0  0  0
   22.9911  -20.0417  -16.1465 N   0  0  0  0  0  0  0  0  0  0  0  0
   22.3717  -18.3678  -19.9178 C   0  0  0  0  0  0  0  0  0  0  0  0
   21.4474  -18.4167  -20.7696 O   0  0  0  0  0  0  0  0  0  0  0  0
   22.7970  -17.0504  -19.5427 N   0  0  0  0  0  0  0  0  0  0  0  0
   22.2127  -15.8586  -20.0890 C   0  0  1  0  0  0  0  0  0  0  0  0
   20.8065  -15.7573  -19.4720 C   0  0  0  0  0  0  0  0  0  0  0  0
   21.0210  -15.8614  -17.6746 S   0  0  0  0  0  0  0  0  0  0  0  0
   22.9054  -14.6022  -19.8504 C   0  0  0  0  0  0  0  0  0  0  0  0
   23.7235  -14.5622  -18.8402 O   0  0  0  0  0  0  0  0  0  0  0  0
   22.8260  -13.3923  -20.5592 N   0  0  0  0  0  0  0  0  0  0  0  0
   21.9489  -13.0840  -21.7078 C   0  0  0  0  0  0  0  0  0  0  0  0
   22.8234  -12.2989  -22.6290 C   0  0  0  0  0  0  0  0  0  0  0  0
   23.7437  -11.5427  -21.7174 C   0  0  0  0  0  0  0  0  0  0  0  0
   23.5591  -12.1778  -20.3350 C   0  0  1  0  0  0  0  0  0  0  0  0
   22.7325  -11.2013  -19.5473 C   0  0  0  0  0  0  0  0  0  0  0  0
   21.5260  -11.4128  -19.2987 O   0  0  0  0  0  0  0  0  0  0  0  0
   23.2881  -10.0248  -19.0670 O   0  0  0  0  0  0  0  0  0  0  0  0
  2  1  1  1
  3  2  1  0
  3  4  1  0
  4  5  2  0
  5  6  1  0
  7  6  1  0
  8  4  1  0
  8  7  2  0
  9  2  1  0
  9 10  2  0
 11  9  1  0
 12 11  1  0
 12 15  1  0
 12 13  1  1
 14 13  1  0
 15 17  1  0
 16 15  2  0
 17 21  1  0
 17 18  1  0
 19 18  1  0
 20 19  1  0
 20 21  1  0
 21 22  1  1
 22 23  2  0
 22 24  1  0
M  END
$$$$
