HCP.pdb
     RDKit          3D

 24 25  0  0  1  0  0  0  0  0999 V2000
   20.6562  -19.3870  -16.8719 N   0  0  0  0  0  0  0  0  0  0  0  0
   21.9851  -19.4236  -16.2661 C   0  0  1  0  0  0  0  0  0  0  0  0
   22.8502  -18.5085  -17.0987 C   0  0  0  0  0  0  0  0  0  0  0  0
   23.1164  -19.2017  -18.3895 C   0  0  0  0  0  0  0  0  0  0  0  0
   23.9720  -20.2541  -18.6331 C   0  0  0  0  0  0  0  0  0  0  0  0
   23.9219  -20.5927  -19.9481 N   0  0  0  0  0  0  0  0  0  0  0  0
   23.0400  -19.7550  -20.5176 C   0  0  0  0  0  0  0  0  0  0  0  0
   22.5545  -18.9232  -19.5999 N   0  0  0  0  0  0  0  0  0  0  0  0
   21.8964  -19.0641  -14.8535 C   0  0  0  0  0  0  0  0  0  0  0  0
   21.9752  -17.8588  -14.5021 O   0  0  0  0  0  0  0  0  0  0  0  0
   21.7190  -20.0079  -13.7882 N   0  0  0  0  0  0  0  0  0  0  0  0
   21.4917  -19.6122  -12.4273 C   0  0  1  0  0  0  0  0  0  0  0  0
   20.2710  -18.6756  -12.4588 C   0  0  0  0  0  0  0  0  0  0  0  0
   18.8490  -19.6944  -12.9359 S   0  0  0  0  0  0  0  0  0  0  0  0
   21.2323  -20.6647  -11.4576 C   0  0  0  0  0  0  0  0  0  0  0  0
   20.6192  -21.7270  -11.8897 O   0  0  0  0  0  0  0  0  0  0  0  0
   21.5484  -20.7138  -10.0900 N   0  0  0  0  0  0  0  0  0  0  0  0
   21.9719  -19.5903   -9.2285 C   0  0  0  0  0  0  0  0  0  0  0  0
   23.0507  -20.1750   -8.3776 C   0  0  0  0  0  0  0  0  0  0  0  0
   22.6462  -21.6075   -8.1925 C   0  0  0  0  0  0  0  0  0  0  0  0
   21.5258  -21.8484   -9.2099 C   0  0  1  0  0  0  0  0  0  0  0  0
   20.2524  -21.8716   -8.4128 C   0  0  0  0  0  0  0  0  0  0  0  0
   19.4677  -20.8989   -8.4005 O   0  0  0  0  0  0  0  0  0  0  0  0
   19.9053  -22.9834   -7.6597 O   0  0  0  0  0  0  0  0  0  0  0  0
  2  1  1  6
  3  2  1  0
  3  4  1  0
  4  5  2  0
  5  6  1  0
  7  6  1  0
  8  4  1  0
  8  7  2  0
  9  2  1  0
  9 10  2  0
 11  9  1  0
 12 11  1  0
 12 15  1  0
 12 13  1  6
 14 13  1  0
 15 17  1  0
 16 15  2  0
 17 21  1  0
 17 18  1  0
 19 18  1  0
 20 19  1  0
 20 21  1  0
 21 22  1  1
 22 23  2  0
 22 24  1  0
M  END
$$$$
