HCP.pdb
     RDKit          3D

 24 25  0  0  1  0  0  0  0  0999 V2000
   19.1188  -15.8375  -15.9488 N   0  0  0  0  0  0  0  0  0  0  0  0
   18.9437  -14.5322  -16.5814 C   0  0  1  0  0  0  0  0  0  0  0  0
   17.5340  -14.0975  -16.2610 C   0  0  0  0  0  0  0  0  0  0  0  0
   16.6122  -14.9721  -17.0375 C   0  0  0  0  0  0  0  0  0  0  0  0
   15.7968  -15.9805  -16.5713 C   0  0  0  0  0  0  0  0  0  0  0  0
   15.1135  -16.5351  -17.6067 N   0  0  0  0  0  0  0  0  0  0  0  0
   15.5026  -15.8744  -18.7095 C   0  0  0  0  0  0  0  0  0  0  0  0
   16.3939  -14.9425  -18.3828 N   0  0  0  0  0  0  0  0  0  0  0  0
   19.9854  -13.6162  -16.1249 C   0  0  0  0  0  0  0  0  0  0  0  0
   20.0682  -13.3095  -14.9078 O   0  0  0  0  0  0  0  0  0  0  0  0
   20.9633  -13.0114  -16.9823 N   0  0  0  0  0  0  0  0  0  0  0  0
   21.9005  -12.0269  -16.5213 C   0  0  1  0  0  0  0  0  0  0  0  0
   22.9739  -11.9199  -17.6188 C   0  0  0  0  0  0  0  0  0  0  0  0
   24.1904  -10.7080  -17.0368 S   0  0  0  0  0  0  0  0  0  0  0  0
   21.3915  -10.6914  -16.2515 C   0  0  0  0  0  0  0  0  0  0  0  0
   20.4823  -10.2321  -17.0600 O   0  0  0  0  0  0  0  0  0  0  0  0
   21.7385   -9.7957  -15.2269 N   0  0  0  0  0  0  0  0  0  0  0  0
   22.7556   -9.9922  -14.1730 C   0  0  0  0  0  0  0  0  0  0  0  0
   22.1138   -9.4370  -12.9443 C   0  0  0  0  0  0  0  0  0  0  0  0
   21.2561   -8.3130  -13.4454 C   0  0  0  0  0  0  0  0  0  0  0  0
   21.2046   -8.4881  -14.9670 C   0  0  1  0  0  0  0  0  0  0  0  0
   22.1099   -7.4282  -15.5279 C   0  0  0  0  0  0  0  0  0  0  0  0
   23.2114   -7.7124  -16.0457 O   0  0  0  0  0  0  0  0  0  0  0  0
   21.7475   -6.0901  -15.4885 O   0  0  0  0  0  0  0  0  0  0  0  0
  2  1  1  1
  3  2  1  0
  3  4  1  0
  4  5  2  0
  5  6  1  0
  7  6  1  0
  8  4  1  0
  8  7  2  0
  9  2  1  0
  9 10  2  0
 11  9  1  0
 12 11  1  0
 12 15  1  0
 12 13  1  6
 14 13  1  0
 15 17  1  0
 16 15  2  0
 17 21  1  0
 17 18  1  0
 19 18  1  0
 20 19  1  0
 20 21  1  0
 21 22  1  6
 22 23  2  0
 22 24  1  0
M  END
$$$$
