HCP.pdb
     RDKit          3D

 24 25  0  0  1  0  0  0  0  0999 V2000
   20.1102  -12.0751  -17.2041 N   0  0  0  0  0  0  0  0  0  0  0  0
   19.5009  -10.9454  -17.9018 C   0  0  1  0  0  0  0  0  0  0  0  0
   18.2973  -11.4997  -18.6251 C   0  0  0  0  0  0  0  0  0  0  0  0
   18.7992  -12.4274  -19.6763 C   0  0  0  0  0  0  0  0  0  0  0  0
   19.2536  -12.1199  -20.9404 C   0  0  0  0  0  0  0  0  0  0  0  0
   19.6214  -13.2574  -21.5863 N   0  0  0  0  0  0  0  0  0  0  0  0
   19.3965  -14.2655  -20.7277 C   0  0  0  0  0  0  0  0  0  0  0  0
   18.9074  -13.7834  -19.5884 N   0  0  0  0  0  0  0  0  0  0  0  0
   19.2052   -9.8767  -16.9514 C   0  0  0  0  0  0  0  0  0  0  0  0
   18.6159   -8.8341  -17.3363 O   0  0  0  0  0  0  0  0  0  0  0  0
   19.5432   -9.9168  -15.5581 N   0  0  0  0  0  0  0  0  0  0  0  0
   19.3502   -8.7997  -14.6778 C   0  0  1  0  0  0  0  0  0  0  0  0
   19.1087   -9.4000  -13.2815 C   0  0  0  0  0  0  0  0  0  0  0  0
   19.0794   -8.0095  -12.1182 S   0  0  0  0  0  0  0  0  0  0  0  0
   20.4312   -7.8320  -14.5758 C   0  0  0  0  0  0  0  0  0  0  0  0
   21.6371   -8.3047  -14.4586 O   0  0  0  0  0  0  0  0  0  0  0  0
   20.3746   -6.4287  -14.5835 N   0  0  0  0  0  0  0  0  0  0  0  0
   19.1639   -5.5822  -14.6203 C   0  0  0  0  0  0  0  0  0  0  0  0
   19.5226   -4.4801  -15.5619 C   0  0  0  0  0  0  0  0  0  0  0  0
   20.9955   -4.2801  -15.3600 C   0  0  0  0  0  0  0  0  0  0  0  0
   21.4627   -5.4922  -14.5470 C   0  0  1  0  0  0  0  0  0  0  0  0
   21.6747   -4.9851  -13.1486 C   0  0  0  0  0  0  0  0  0  0  0  0
   22.5719   -4.1576  -12.8792 O   0  0  0  0  0  0  0  0  0  0  0  0
   20.8738   -5.4233  -12.1046 O   0  0  0  0  0  0  0  0  0  0  0  0
  2  1  1  1
  3  2  1  0
  3  4  1  0
  4  5  2  0
  5  6  1  0
  7  6  1  0
  8  4  1  0
  8  7  2  0
  9  2  1  0
  9 10  2  0
 11  9  1  0
 12 11  1  0
 12 15  1  0
 12 13  1  1
 14 13  1  0
 15 17  1  0
 16 15  2  0
 17 21  1  0
 17 18  1  0
 19 18  1  0
 20 19  1  0
 20 21  1  0
 21 22  1  1
 22 23  2  0
 22 24  1  0
M  END
$$$$
