HCP.pdb
     RDKit          3D

 24 25  0  0  1  0  0  0  0  0999 V2000
   15.3364  -17.9240    3.5166 N   0  0  0  0  0  0  0  0  0  0  0  0
   16.5078  -18.5336    4.1416 C   0  0  1  0  0  0  0  0  0  0  0  0
   17.3848  -19.0122    3.0100 C   0  0  0  0  0  0  0  0  0  0  0  0
   16.7485  -20.2320    2.4401 C   0  0  0  0  0  0  0  0  0  0  0  0
   16.0765  -20.3653    1.2444 C   0  0  0  0  0  0  0  0  0  0  0  0
   15.6484  -21.6467    1.0978 N   0  0  0  0  0  0  0  0  0  0  0  0
   16.0525  -22.3050    2.1966 C   0  0  0  0  0  0  0  0  0  0  0  0
   16.7079  -21.4733    3.0020 N   0  0  0  0  0  0  0  0  0  0  0  0
   17.1419  -17.5775    5.0451 C   0  0  0  0  0  0  0  0  0  0  0  0
   17.3178  -16.3860    4.6821 O   0  0  0  0  0  0  0  0  0  0  0  0
   17.5998  -17.8946    6.3668 N   0  0  0  0  0  0  0  0  0  0  0  0
   18.3215  -16.9622    7.1853 C   0  0  1  0  0  0  0  0  0  0  0  0
   17.3126  -16.4461    8.2265 C   0  0  0  0  0  0  0  0  0  0  0  0
   17.6140  -17.3841    9.7486 S   0  0  0  0  0  0  0  0  0  0  0  0
   19.4919  -17.4572    7.8928 C   0  0  0  0  0  0  0  0  0  0  0  0
   19.6440  -18.7474    7.9513 O   0  0  0  0  0  0  0  0  0  0  0  0
   20.5107  -16.7399    8.5410 N   0  0  0  0  0  0  0  0  0  0  0  0
   20.5547  -15.2861    8.8021 C   0  0  0  0  0  0  0  0  0  0  0  0
   21.9735  -14.9124    8.5243 C   0  0  0  0  0  0  0  0  0  0  0  0
   22.7643  -16.1231    8.9231 C   0  0  0  0  0  0  0  0  0  0  0  0
   21.7318  -17.2404    9.1076 C   0  0  1  0  0  0  0  0  0  0  0  0
   21.5891  -17.4194   10.5925 C   0  0  0  0  0  0  0  0  0  0  0  0
   20.6365  -16.9158   11.2260 O   0  0  0  0  0  0  0  0  0  0  0  0
   22.5180  -18.1560   11.3123 O   0  0  0  0  0  0  0  0  0  0  0  0
  2  1  1  6
  3  2  1  0
  3  4  1  0
  4  5  2  0
  5  6  1  0
  7  6  1  0
  8  4  1  0
  8  7  2  0
  9  2  1  0
  9 10  2  0
 11  9  1  0
 12 11  1  0
 12 15  1  0
 12 13  1  1
 14 13  1  0
 15 17  1  0
 16 15  2  0
 17 21  1  0
 17 18  1  0
 19 18  1  0
 20 19  1  0
 20 21  1  0
 21 22  1  1
 22 23  2  0
 22 24  1  0
M  END
$$$$
