HCP.pdb
     RDKit          3D

 24 25  0  0  1  0  0  0  0  0999 V2000
   29.1961  -23.3817  -17.6266 N   0  0  0  0  0  0  0  0  0  0  0  0
   27.9314  -23.5025  -16.9053 C   0  0  1  0  0  0  0  0  0  0  0  0
   27.8778  -24.9199  -16.3886 C   0  0  0  0  0  0  0  0  0  0  0  0
   27.1193  -25.7271  -17.3838 C   0  0  0  0  0  0  0  0  0  0  0  0
   26.0522  -26.5709  -17.1638 C   0  0  0  0  0  0  0  0  0  0  0  0
   25.6479  -27.1175  -18.3403 N   0  0  0  0  0  0  0  0  0  0  0  0
   26.4597  -26.6157  -19.2854 C   0  0  0  0  0  0  0  0  0  0  0  0
   27.3388  -25.7875  -18.7278 N   0  0  0  0  0  0  0  0  0  0  0  0
   27.8481  -22.4716  -15.8743 C   0  0  0  0  0  0  0  0  0  0  0  0
   28.6824  -22.4503  -14.9331 O   0  0  0  0  0  0  0  0  0  0  0  0
   26.8545  -21.4377  -15.8426 N   0  0  0  0  0  0  0  0  0  0  0  0
   26.6216  -20.6170  -14.6883 C   0  0  1  0  0  0  0  0  0  0  0  0
   26.4351  -19.1849  -15.2198 C   0  0  0  0  0  0  0  0  0  0  0  0
   28.0872  -18.5723  -15.6478 S   0  0  0  0  0  0  0  0  0  0  0  0
   25.4770  -20.9444  -13.8528 C   0  0  0  0  0  0  0  0  0  0  0  0
   24.5514  -21.6869  -14.3849 O   0  0  0  0  0  0  0  0  0  0  0  0
   25.2075  -20.5731  -12.5253 N   0  0  0  0  0  0  0  0  0  0  0  0
   26.0108  -19.6792  -11.6655 C   0  0  0  0  0  0  0  0  0  0  0  0
   25.9853  -20.3452  -10.3292 C   0  0  0  0  0  0  0  0  0  0  0  0
   24.6422  -21.0105  -10.2684 C   0  0  0  0  0  0  0  0  0  0  0  0
   24.0973  -20.9580  -11.6997 C   0  0  1  0  0  0  0  0  0  0  0  0
   23.0471  -19.8835  -11.6946 C   0  0  0  0  0  0  0  0  0  0  0  0
   21.9437  -20.0466  -11.1305 O   0  0  0  0  0  0  0  0  0  0  0  0
   23.2720  -18.6667  -12.3208 O   0  0  0  0  0  0  0  0  0  0  0  0
  2  1  1  1
  3  2  1  0
  3  4  1  0
  4  5  2  0
  5  6  1  0
  7  6  1  0
  8  4  1  0
  8  7  2  0
  9  2  1  0
  9 10  2  0
 11  9  1  0
 12 11  1  0
 12 15  1  0
 12 13  1  6
 14 13  1  0
 15 17  1  0
 16 15  2  0
 17 21  1  0
 17 18  1  0
 19 18  1  0
 20 19  1  0
 20 21  1  0
 21 22  1  1
 22 23  2  0
 22 24  1  0
M  END
$$$$
