HCP.pdb
     RDKit          3D

 24 25  0  0  1  0  0  0  0  0999 V2000
   19.2328  -13.1172  -17.2696 N   0  0  0  0  0  0  0  0  0  0  0  0
   18.6339  -11.9481  -16.6302 C   0  0  1  0  0  0  0  0  0  0  0  0
   17.6012  -12.4809  -15.6666 C   0  0  0  0  0  0  0  0  0  0  0  0
   16.3950  -12.8407  -16.4623 C   0  0  0  0  0  0  0  0  0  0  0  0
   15.8433  -14.0879  -16.6602 C   0  0  0  0  0  0  0  0  0  0  0  0
   14.7437  -13.9840  -17.4518 N   0  0  0  0  0  0  0  0  0  0  0  0
   14.6137  -12.6794  -17.7436 C   0  0  0  0  0  0  0  0  0  0  0  0
   15.5904  -11.9899  -17.1603 N   0  0  0  0  0  0  0  0  0  0  0  0
   19.6766  -11.1288  -16.0185 C   0  0  0  0  0  0  0  0  0  0  0  0
   20.5987  -11.6705  -15.3562 O   0  0  0  0  0  0  0  0  0  0  0  0
   19.7415   -9.6991  -16.1131 N   0  0  0  0  0  0  0  0  0  0  0  0
   20.8570   -8.9367  -15.6285 C   0  0  1  0  0  0  0  0  0  0  0  0
   22.0559   -9.3396  -16.5053 C   0  0  0  0  0  0  0  0  0  0  0  0
   21.5588   -9.0532  -18.2253 S   0  0  0  0  0  0  0  0  0  0  0  0
   20.7407   -7.4872  -15.6556 C   0  0  0  0  0  0  0  0  0  0  0  0
   19.9090   -6.9781  -16.5160 O   0  0  0  0  0  0  0  0  0  0  0  0
   21.4050   -6.5253  -14.8772 N   0  0  0  0  0  0  0  0  0  0  0  0
   22.5053   -6.7550  -13.9178 C   0  0  0  0  0  0  0  0  0  0  0  0
   22.1734   -5.8623  -12.7677 C   0  0  0  0  0  0  0  0  0  0  0  0
   21.4930   -4.6816  -13.3947 C   0  0  0  0  0  0  0  0  0  0  0  0
   21.1860   -5.1066  -14.8347 C   0  0  1  0  0  0  0  0  0  0  0  0
   22.1925   -4.3922  -15.6915 C   0  0  0  0  0  0  0  0  0  0  0  0
   23.2705   -4.9299  -16.0249 O   0  0  0  0  0  0  0  0  0  0  0  0
   21.9538   -3.1029  -16.1433 O   0  0  0  0  0  0  0  0  0  0  0  0
  2  1  1  1
  3  2  1  0
  3  4  1  0
  4  5  2  0
  5  6  1  0
  7  6  1  0
  8  4  1  0
  8  7  2  0
  9  2  1  0
  9 10  2  0
 11  9  1  0
 12 11  1  0
 12 15  1  0
 12 13  1  6
 14 13  1  0
 15 17  1  0
 16 15  2  0
 17 21  1  0
 17 18  1  0
 19 18  1  0
 20 19  1  0
 20 21  1  0
 21 22  1  6
 22 23  2  0
 22 24  1  0
M  END
$$$$
