HCP.pdb
     RDKit          3D

 24 25  0  0  1  0  0  0  0  0999 V2000
   24.5842  -22.2173  -13.5502 N   0  0  0  0  0  0  0  0  0  0  0  0
   24.9514  -20.8061  -13.4608 C   0  0  1  0  0  0  0  0  0  0  0  0
   25.9832  -20.7106  -12.3630 C   0  0  0  0  0  0  0  0  0  0  0  0
   25.2732  -20.9025  -11.0682 C   0  0  0  0  0  0  0  0  0  0  0  0
   23.9331  -21.1444  -10.8567 C   0  0  0  0  0  0  0  0  0  0  0  0
   23.6909  -21.2579   -9.5244 N   0  0  0  0  0  0  0  0  0  0  0  0
   24.8742  -21.0872   -8.9124 C   0  0  0  0  0  0  0  0  0  0  0  0
   25.8225  -20.8751   -9.8209 N   0  0  0  0  0  0  0  0  0  0  0  0
   25.3996  -20.3267  -14.7654 C   0  0  0  0  0  0  0  0  0  0  0  0
   26.3873  -20.8629  -15.3304 O   0  0  0  0  0  0  0  0  0  0  0  0
   24.7832  -19.2517  -15.4876 N   0  0  0  0  0  0  0  0  0  0  0  0
   25.1774  -18.8800  -16.8168 C   0  0  1  0  0  0  0  0  0  0  0  0
   23.8807  -18.4883  -17.5472 C   0  0  0  0  0  0  0  0  0  0  0  0
   22.9091  -20.0084  -17.7282 S   0  0  0  0  0  0  0  0  0  0  0  0
   26.1247  -17.7849  -16.9535 C   0  0  0  0  0  0  0  0  0  0  0  0
   25.9433  -16.7489  -16.1885 O   0  0  0  0  0  0  0  0  0  0  0  0
   27.2344  -17.6679  -17.8063 N   0  0  0  0  0  0  0  0  0  0  0  0
   27.6610  -18.6175  -18.8552 C   0  0  0  0  0  0  0  0  0  0  0  0
   29.1480  -18.6561  -18.7237 C   0  0  0  0  0  0  0  0  0  0  0  0
   29.5203  -17.2728  -18.2789 C   0  0  0  0  0  0  0  0  0  0  0  0
   28.2012  -16.6078  -17.8714 C   0  0  1  0  0  0  0  0  0  0  0  0
   27.8658  -15.6564  -18.9849 C   0  0  0  0  0  0  0  0  0  0  0  0
   27.0107  -15.9364  -19.8525 O   0  0  0  0  0  0  0  0  0  0  0  0
   28.5000  -14.4271  -19.0847 O   0  0  0  0  0  0  0  0  0  0  0  0
  2  1  1  6
  3  2  1  0
  3  4  1  0
  4  5  2  0
  5  6  1  0
  7  6  1  0
  8  4  1  0
  8  7  2  0
  9  2  1  0
  9 10  2  0
 11  9  1  0
 12 11  1  0
 12 15  1  0
 12 13  1  6
 14 13  1  0
 15 17  1  0
 16 15  2  0
 17 21  1  0
 17 18  1  0
 19 18  1  0
 20 19  1  0
 20 21  1  0
 21 22  1  6
 22 23  2  0
 22 24  1  0
M  END
$$$$
