NYA.pdb
     RDKit          3D

 26 26  0  0  1  0  0  0  0  0999 V2000
   29.4803  -22.1618  -19.3480 N   0  0  0  0  0  0  0  0  0  0  0  0
   30.0419  -22.8180  -18.2302 C   0  0  0  0  0  0  0  0  0  0  0  0
   31.1552  -23.4023  -18.3826 O   0  0  0  0  0  0  0  0  0  0  0  0
   29.3616  -22.8316  -16.9114 C   0  0  0  0  0  0  0  0  0  0  0  0
   28.0730  -22.0760  -17.0347 C   0  0  2  0  0  0  0  0  0  0  0  0
   28.2951  -20.7071  -17.3793 N   0  0  0  0  0  0  0  0  0  0  0  0
   27.2155  -22.2315  -15.8257 C   0  0  0  0  0  0  0  0  0  0  0  0
   26.8206  -23.3769  -15.4983 O   0  0  0  0  0  0  0  0  0  0  0  0
   22.8728  -20.8530   -8.2373 O   0  0  0  0  0  0  0  0  0  0  0  0
   23.7034  -20.7146   -9.3564 C   0  0  0  0  0  0  0  0  0  0  0  0
   24.9833  -21.2291   -9.3663 C   0  0  0  0  0  0  0  0  0  0  0  0
   25.7955  -21.0833  -10.4853 C   0  0  0  0  0  0  0  0  0  0  0  0
   25.3633  -20.4271  -11.6188 C   0  0  0  0  0  0  0  0  0  0  0  0
   26.2556  -20.2975  -12.7762 C   0  0  0  0  0  0  0  0  0  0  0  0
   25.9089  -21.2866  -13.8910 C   0  0  2  0  0  0  0  0  0  0  0  0
   26.8157  -21.1379  -15.0132 N   0  0  0  0  0  0  0  0  0  0  0  0
   24.4926  -21.1325  -14.3111 C   0  0  0  0  0  0  0  0  0  0  0  0
   24.1455  -20.1161  -14.9498 O   0  0  0  0  0  0  0  0  0  0  0  0
   24.0824  -19.9125  -11.6079 C   0  0  0  0  0  0  0  0  0  0  0  0
   23.2802  -20.0599  -10.4947 C   0  0  0  0  0  0  0  0  0  0  0  0
   21.5352  -23.2516  -14.9596 C   0  0  0  0  0  0  0  0  0  0  0  0
   22.1307  -21.9394  -14.5240 C   0  0  2  0  0  0  0  0  0  0  0  0
   23.4910  -22.0979  -14.0200 N   0  0  0  0  0  0  0  0  0  0  0  0
   21.3191  -21.2633  -13.4783 C   0  0  0  0  0  0  0  0  0  0  0  0
   21.3930  -21.6769  -12.1552 O   0  0  0  0  0  0  0  0  0  0  0  0
   20.5448  -20.3063  -13.7373 O   0  0  0  0  0  0  0  0  0  0  0  0
  2  3  2  0
  2  1  1  0
  4  2  1  0
  5  4  1  0
  5  6  1  1
  7  5  1  0
  7 16  1  0
  8  7  2  0
  9 10  1  0
 10 11  2  0
 11 12  1  0
 13 14  1  0
 13 12  2  0
 15 14  1  1
 15 16  1  0
 15 17  1  0
 17 18  2  0
 19 13  1  0
 20 19  2  0
 20 10  1  0
 22 21  1  1
 23 17  1  0
 23 22  1  0
 24 25  1  0
 24 22  1  0
 26 24  2  0
M  END
$$$$
