NYA.pdb
     RDKit          3D

 26 26  0  0  1  0  0  0  0  0999 V2000
   25.6135  -33.1220   -7.7101 N   0  0  0  0  0  0  0  0  0  0  0  0
   26.8592  -32.8911   -8.3351 C   0  0  0  0  0  0  0  0  0  0  0  0
   26.8626  -32.2776   -9.4431 O   0  0  0  0  0  0  0  0  0  0  0  0
   28.1333  -33.3466   -7.7256 C   0  0  0  0  0  0  0  0  0  0  0  0
   27.8237  -34.0033   -6.4143 C   0  0  2  0  0  0  0  0  0  0  0  0
   27.2307  -33.0866   -5.4923 N   0  0  0  0  0  0  0  0  0  0  0  0
   29.0100  -34.7030   -5.8451 C   0  0  0  0  0  0  0  0  0  0  0  0
   29.5297  -35.6481   -6.4868 O   0  0  0  0  0  0  0  0  0  0  0  0
   34.6753  -33.6118   -8.9566 O   0  0  0  0  0  0  0  0  0  0  0  0
   34.0031  -33.7190   -7.7327 C   0  0  0  0  0  0  0  0  0  0  0  0
   34.1051  -34.8552   -6.9568 C   0  0  0  0  0  0  0  0  0  0  0  0
   33.4314  -34.9461   -5.7440 C   0  0  0  0  0  0  0  0  0  0  0  0
   32.6426  -33.9190   -5.2699 C   0  0  0  0  0  0  0  0  0  0  0  0
   31.9502  -34.0597   -3.9840 C   0  0  0  0  0  0  0  0  0  0  0  0
   30.7633  -35.0219   -4.0653 C   0  0  2  0  0  0  0  0  0  0  0  0
   29.5920  -34.3527   -4.5982 N   0  0  0  0  0  0  0  0  0  0  0  0
   30.4863  -35.6309   -2.7391 C   0  0  0  0  0  0  0  0  0  0  0  0
   29.7970  -35.0059   -1.9049 O   0  0  0  0  0  0  0  0  0  0  0  0
   32.5411  -32.7825   -6.0469 C   0  0  0  0  0  0  0  0  0  0  0  0
   33.2118  -32.6972   -7.2500 C   0  0  0  0  0  0  0  0  0  0  0  0
   30.7280  -38.9588   -1.0235 C   0  0  0  0  0  0  0  0  0  0  0  0
   30.6964  -37.4538   -1.0339 C   0  0  2  0  0  0  0  0  0  0  0  0
   30.9727  -36.9113   -2.3602 N   0  0  0  0  0  0  0  0  0  0  0  0
   31.6596  -36.8559   -0.0729 C   0  0  0  0  0  0  0  0  0  0  0  0
   31.3336  -36.7464    1.2720 O   0  0  0  0  0  0  0  0  0  0  0  0
   32.7900  -36.4305   -0.4251 O   0  0  0  0  0  0  0  0  0  0  0  0
  2  3  2  0
  2  1  1  0
  4  2  1  0
  5  4  1  0
  5  6  1  1
  7  5  1  0
  7 16  1  0
  8  7  2  0
  9 10  1  0
 10 11  2  0
 11 12  1  0
 13 14  1  0
 13 12  2  0
 15 14  1  1
 15 16  1  0
 15 17  1  0
 17 18  2  0
 19 13  1  0
 20 19  2  0
 20 10  1  0
 22 21  1  6
 23 17  1  0
 23 22  1  0
 24 25  1  0
 24 22  1  0
 26 24  2  0
M  END
$$$$
