NYA.pdb
     RDKit          3D

 26 26  0  0  1  0  0  0  0  0999 V2000
   17.6637  -11.4812  -18.7974 N   0  0  0  0  0  0  0  0  0  0  0  0
   17.6538  -10.9517  -17.4878 C   0  0  0  0  0  0  0  0  0  0  0  0
   16.6358  -11.1707  -16.7668 O   0  0  0  0  0  0  0  0  0  0  0  0
   18.7926  -10.1611  -16.9580 C   0  0  0  0  0  0  0  0  0  0  0  0
   19.9168  -11.1011  -16.6435 C   0  0  2  0  0  0  0  0  0  0  0  0
   19.4897  -12.1694  -15.7960 N   0  0  0  0  0  0  0  0  0  0  0  0
   21.1104  -10.3867  -16.1089 C   0  0  0  0  0  0  0  0  0  0  0  0
   21.7127  -10.8596  -15.1145 O   0  0  0  0  0  0  0  0  0  0  0  0
   27.6422  -12.6839  -15.5993 O   0  0  0  0  0  0  0  0  0  0  0  0
   26.7327  -11.6875  -15.9755 C   0  0  0  0  0  0  0  0  0  0  0  0
   27.0723  -10.3514  -15.9240 C   0  0  0  0  0  0  0  0  0  0  0  0
   26.1580   -9.3743  -16.3009 C   0  0  0  0  0  0  0  0  0  0  0  0
   24.8890   -9.6932  -16.7368 C   0  0  0  0  0  0  0  0  0  0  0  0
   23.9575   -8.6279  -17.1244 C   0  0  0  0  0  0  0  0  0  0  0  0
   22.7813   -8.5027  -16.1537 C   0  0  2  0  0  0  0  0  0  0  0  0
   21.6098   -9.1827  -16.6721 N   0  0  0  0  0  0  0  0  0  0  0  0
   22.4949   -7.0765  -15.8535 C   0  0  0  0  0  0  0  0  0  0  0  0
   21.8189   -6.4002  -16.6581 O   0  0  0  0  0  0  0  0  0  0  0  0
   24.5500  -11.0303  -16.7880 C   0  0  0  0  0  0  0  0  0  0  0  0
   25.4612  -11.9964  -16.4128 C   0  0  0  0  0  0  0  0  0  0  0  0
   23.0528   -4.1415  -15.5763 C   0  0  0  0  0  0  0  0  0  0  0  0
   22.6452   -5.0232  -14.4264 C   0  0  2  0  0  0  0  0  0  0  0  0
   22.9574   -6.4265  -14.6773 N   0  0  0  0  0  0  0  0  0  0  0  0
   21.1973   -4.9146  -14.1089 C   0  0  0  0  0  0  0  0  0  0  0  0
   20.6423   -3.6877  -13.7716 O   0  0  0  0  0  0  0  0  0  0  0  0
   20.4242   -5.9069  -14.1306 O   0  0  0  0  0  0  0  0  0  0  0  0
  2  3  2  0
  2  1  1  0
  4  2  1  0
  5  4  1  0
  5  6  1  1
  7  5  1  0
  7 16  1  0
  8  7  2  0
  9 10  1  0
 10 11  2  0
 11 12  1  0
 13 14  1  0
 13 12  2  0
 15 14  1  6
 15 16  1  0
 15 17  1  0
 17 18  2  0
 19 13  1  0
 20 19  2  0
 20 10  1  0
 22 21  1  6
 23 17  1  0
 23 22  1  0
 24 25  1  0
 24 22  1  0
 26 24  2  0
M  END
$$$$
