NYA.pdb
     RDKit          3D

 26 26  0  0  1  0  0  0  0  0999 V2000
   14.5678  -12.6132  -14.6609 N   0  0  0  0  0  0  0  0  0  0  0  0
   13.9677  -12.3295  -13.4139 C   0  0  0  0  0  0  0  0  0  0  0  0
   13.1408  -13.1684  -12.9487 O   0  0  0  0  0  0  0  0  0  0  0  0
   14.2854  -11.0915  -12.6597 C   0  0  0  0  0  0  0  0  0  0  0  0
   15.4166  -10.3922  -13.3510 C   0  0  2  0  0  0  0  0  0  0  0  0
   16.6624  -11.0553  -13.1266 N   0  0  0  0  0  0  0  0  0  0  0  0
   15.4690   -8.9421  -13.0112 C   0  0  0  0  0  0  0  0  0  0  0  0
   14.4705   -8.2206  -13.2507 O   0  0  0  0  0  0  0  0  0  0  0  0
   12.4282   -7.1581   -7.3796 O   0  0  0  0  0  0  0  0  0  0  0  0
   13.5550   -7.0248   -8.2008 C   0  0  0  0  0  0  0  0  0  0  0  0
   13.7979   -5.8605   -8.8998 C   0  0  0  0  0  0  0  0  0  0  0  0
   14.9211   -5.7439   -9.7109 C   0  0  0  0  0  0  0  0  0  0  0  0
   15.8291   -6.7725   -9.8503 C   0  0  0  0  0  0  0  0  0  0  0  0
   17.0004   -6.6041  -10.7176 C   0  0  0  0  0  0  0  0  0  0  0  0
   16.6831   -6.8957  -12.1858 C   0  0  2  0  0  0  0  0  0  0  0  0
   16.6041   -8.3244  -12.4228 N   0  0  0  0  0  0  0  0  0  0  0  0
   17.6790   -6.2498  -13.0788 C   0  0  0  0  0  0  0  0  0  0  0  0
   18.8688   -6.6309  -13.0541 O   0  0  0  0  0  0  0  0  0  0  0  0
   15.5852   -7.9371   -9.1504 C   0  0  0  0  0  0  0  0  0  0  0  0
   14.4689   -8.0479   -8.3467 C   0  0  0  0  0  0  0  0  0  0  0  0
   17.7876   -4.4969  -16.2902 C   0  0  0  0  0  0  0  0  0  0  0  0
   18.3393   -4.6606  -14.8992 C   0  0  2  0  0  0  0  0  0  0  0  0
   17.3450   -5.2009  -13.9778 N   0  0  0  0  0  0  0  0  0  0  0  0
   18.8562   -3.3859  -14.3364 C   0  0  0  0  0  0  0  0  0  0  0  0
   18.2653   -2.8232  -13.2133 O   0  0  0  0  0  0  0  0  0  0  0  0
   19.8314   -2.7709  -14.8399 O   0  0  0  0  0  0  0  0  0  0  0  0
  2  3  2  0
  2  1  1  0
  4  2  1  0
  5  4  1  0
  5  6  1  1
  7  5  1  0
  7 16  1  0
  8  7  2  0
  9 10  1  0
 10 11  2  0
 11 12  1  0
 13 14  1  0
 13 12  2  0
 15 14  1  1
 15 16  1  0
 15 17  1  0
 17 18  2  0
 19 13  1  0
 20 19  2  0
 20 10  1  0
 22 21  1  6
 23 17  1  0
 23 22  1  0
 24 25  1  0
 24 22  1  0
 26 24  2  0
M  END
$$$$
