NYA.pdb
     RDKit          3D

 26 26  0  0  1  0  0  0  0  0999 V2000
   27.6777  -21.0906  -20.6711 N   0  0  0  0  0  0  0  0  0  0  0  0
   27.8000  -20.7652  -19.3019 C   0  0  0  0  0  0  0  0  0  0  0  0
   28.7614  -20.0184  -18.9529 O   0  0  0  0  0  0  0  0  0  0  0  0
   26.8401  -21.2744  -18.2911 C   0  0  0  0  0  0  0  0  0  0  0  0
   27.6160  -21.7792  -17.1123 C   0  0  2  0  0  0  0  0  0  0  0  0
   28.4004  -22.9253  -17.4488 N   0  0  0  0  0  0  0  0  0  0  0  0
   26.7443  -22.0087  -15.9255 C   0  0  0  0  0  0  0  0  0  0  0  0
   26.1308  -23.0982  -15.8179 O   0  0  0  0  0  0  0  0  0  0  0  0
   22.7426  -21.1995   -8.0477 O   0  0  0  0  0  0  0  0  0  0  0  0
   23.5535  -20.9896   -9.1701 C   0  0  0  0  0  0  0  0  0  0  0  0
   24.8549  -21.4457   -9.2086 C   0  0  0  0  0  0  0  0  0  0  0  0
   25.6472  -21.2292  -10.3304 C   0  0  0  0  0  0  0  0  0  0  0  0
   25.1736  -20.5584  -11.4384 C   0  0  0  0  0  0  0  0  0  0  0  0
   26.0463  -20.3533  -12.5999 C   0  0  0  0  0  0  0  0  0  0  0  0
   25.6672  -21.2534  -13.7778 C   0  0  2  0  0  0  0  0  0  0  0  0
   26.5683  -21.0473  -14.8955 N   0  0  0  0  0  0  0  0  0  0  0  0
   24.2517  -21.0373  -14.1724 C   0  0  0  0  0  0  0  0  0  0  0  0
   23.9187  -19.9598  -14.7108 O   0  0  0  0  0  0  0  0  0  0  0  0
   23.8713  -20.1023  -11.3990 C   0  0  0  0  0  0  0  0  0  0  0  0
   23.0890  -20.3198  -10.2831 C   0  0  0  0  0  0  0  0  0  0  0  0
   21.4314  -22.6607  -15.5031 C   0  0  0  0  0  0  0  0  0  0  0  0
   21.8600  -21.7523  -14.3818 C   0  0  2  0  0  0  0  0  0  0  0  0
   23.2352  -22.0091  -13.9667 N   0  0  0  0  0  0  0  0  0  0  0  0
   20.9813  -21.8647  -13.1884 C   0  0  0  0  0  0  0  0  0  0  0  0
   21.4329  -22.5029  -12.0413 O   0  0  0  0  0  0  0  0  0  0  0  0
   19.8136  -21.3974  -13.1623 O   0  0  0  0  0  0  0  0  0  0  0  0
  2  3  2  0
  2  1  1  0
  4  2  1  0
  5  4  1  0
  5  6  1  6
  7  5  1  0
  7 16  1  0
  8  7  2  0
  9 10  1  0
 10 11  2  0
 11 12  1  0
 13 14  1  0
 13 12  2  0
 15 14  1  1
 15 16  1  0
 15 17  1  0
 17 18  2  0
 19 13  1  0
 20 19  2  0
 20 10  1  0
 22 21  1  6
 23 17  1  0
 23 22  1  0
 24 25  1  0
 24 22  1  0
 26 24  2  0
M  END
$$$$
