NYA.pdb
     RDKit          3D

 26 26  0  0  1  0  0  0  0  0999 V2000
   16.4470  -13.0731   12.7022 N   0  0  0  0  0  0  0  0  0  0  0  0
   15.3164  -12.4614   12.1164 C   0  0  0  0  0  0  0  0  0  0  0  0
   14.4556  -11.9433   12.8876 O   0  0  0  0  0  0  0  0  0  0  0  0
   15.1280  -12.4187   10.6450 C   0  0  0  0  0  0  0  0  0  0  0  0
   16.4180  -11.9892   10.0141 C   0  0  2  0  0  0  0  0  0  0  0  0
   16.4105  -10.5967    9.6936 N   0  0  0  0  0  0  0  0  0  0  0  0
   16.7828  -12.8442    8.8491 C   0  0  0  0  0  0  0  0  0  0  0  0
   16.3848  -12.5206    7.7037 O   0  0  0  0  0  0  0  0  0  0  0  0
   21.7951  -10.0102    6.2844 O   0  0  0  0  0  0  0  0  0  0  0  0
   21.2103  -11.2358    6.6273 C   0  0  0  0  0  0  0  0  0  0  0  0
   20.1766  -11.7685    5.8851 C   0  0  0  0  0  0  0  0  0  0  0  0
   19.6066  -12.9864    6.2386 C   0  0  0  0  0  0  0  0  0  0  0  0
   20.0434  -13.7053    7.3315 C   0  0  0  0  0  0  0  0  0  0  0  0
   19.4117  -14.9864    7.6665 C   0  0  0  0  0  0  0  0  0  0  0  0
   17.8955  -14.8613    7.8312 C   0  0  2  0  0  0  0  0  0  0  0  0
   17.5675  -14.0216    8.9674 N   0  0  0  0  0  0  0  0  0  0  0  0
   17.2650  -16.2014    7.9443 C   0  0  0  0  0  0  0  0  0  0  0  0
   17.2359  -16.7781    9.0525 O   0  0  0  0  0  0  0  0  0  0  0  0
   21.0778  -13.1715    8.0735 C   0  0  0  0  0  0  0  0  0  0  0  0
   21.6401  -11.9623    7.7185 C   0  0  0  0  0  0  0  0  0  0  0  0
   15.2440  -18.5677    5.7835 C   0  0  0  0  0  0  0  0  0  0  0  0
   16.0043  -18.1569    7.0161 C   0  0  2  0  0  0  0  0  0  0  0  0
   16.6815  -16.8765    6.8382 N   0  0  0  0  0  0  0  0  0  0  0  0
   17.0132  -19.1676    7.4279 C   0  0  0  0  0  0  0  0  0  0  0  0
   16.6266  -20.2985    8.1341 O   0  0  0  0  0  0  0  0  0  0  0  0
   18.2369  -19.0484    7.1619 O   0  0  0  0  0  0  0  0  0  0  0  0
  2  3  2  0
  2  1  1  0
  4  2  1  0
  5  4  1  0
  5  6  1  6
  7  5  1  0
  7 16  1  0
  8  7  2  0
  9 10  1  0
 10 11  2  0
 11 12  1  0
 13 14  1  0
 13 12  2  0
 15 14  1  1
 15 16  1  0
 15 17  1  0
 17 18  2  0
 19 13  1  0
 20 19  2  0
 20 10  1  0
 22 21  1  6
 23 17  1  0
 23 22  1  0
 24 25  1  0
 24 22  1  0
 26 24  2  0
M  END
$$$$
