NYA.pdb
     RDKit          3D

 26 26  0  0  1  0  0  0  0  0999 V2000
   15.3121  -12.0775  -14.8354 N   0  0  0  0  0  0  0  0  0  0  0  0
   16.1161  -11.2514  -15.6519 C   0  0  0  0  0  0  0  0  0  0  0  0
   15.6965  -10.9779  -16.8151 O   0  0  0  0  0  0  0  0  0  0  0  0
   17.4146  -10.7125  -15.1765 C   0  0  0  0  0  0  0  0  0  0  0  0
   18.4480  -10.9651  -16.2323 C   0  0  2  0  0  0  0  0  0  0  0  0
   18.6837  -12.3625  -16.4160 N   0  0  0  0  0  0  0  0  0  0  0  0
   19.7020  -10.1996  -15.9823 C   0  0  0  0  0  0  0  0  0  0  0  0
   20.6107  -10.7216  -15.2918 O   0  0  0  0  0  0  0  0  0  0  0  0
   19.5389   -7.4907  -22.5069 O   0  0  0  0  0  0  0  0  0  0  0  0
   20.1707   -7.7339  -21.2809 C   0  0  0  0  0  0  0  0  0  0  0  0
   20.9440   -6.7686  -20.6698 C   0  0  0  0  0  0  0  0  0  0  0  0
   21.5647   -7.0257  -19.4526 C   0  0  0  0  0  0  0  0  0  0  0  0
   21.4364   -8.2400  -18.8115 C   0  0  0  0  0  0  0  0  0  0  0  0
   22.1099   -8.4662  -17.5278 C   0  0  0  0  0  0  0  0  0  0  0  0
   21.1907   -8.1988  -16.3341 C   0  0  2  0  0  0  0  0  0  0  0  0
   19.9268   -8.8929  -16.4905 N   0  0  0  0  0  0  0  0  0  0  0  0
   20.9904   -6.7400  -16.1392 C   0  0  0  0  0  0  0  0  0  0  0  0
   20.1080   -6.1453  -16.7944 O   0  0  0  0  0  0  0  0  0  0  0  0
   20.6625   -9.2053  -19.4236 C   0  0  0  0  0  0  0  0  0  0  0  0
   20.0485   -8.9452  -20.6318 C   0  0  0  0  0  0  0  0  0  0  0  0
   21.2705   -4.1512  -13.6508 C   0  0  0  0  0  0  0  0  0  0  0  0
   21.5345   -4.5350  -15.0822 C   0  0  2  0  0  0  0  0  0  0  0  0
   21.7634   -5.9687  -15.2296 N   0  0  0  0  0  0  0  0  0  0  0  0
   22.6969   -3.8126  -15.6619 C   0  0  0  0  0  0  0  0  0  0  0  0
   23.8402   -4.5063  -16.0345 O   0  0  0  0  0  0  0  0  0  0  0  0
   22.6992   -2.5670  -15.8382 O   0  0  0  0  0  0  0  0  0  0  0  0
  2  3  2  0
  2  1  1  0
  4  2  1  0
  5  4  1  0
  5  6  1  1
  7  5  1  0
  7 16  1  0
  8  7  2  0
  9 10  1  0
 10 11  2  0
 11 12  1  0
 13 14  1  0
 13 12  2  0
 15 14  1  6
 15 16  1  0
 15 17  1  0
 17 18  2  0
 19 13  1  0
 20 19  2  0
 20 10  1  0
 22 21  1  1
 23 17  1  0
 23 22  1  0
 24 25  1  0
 24 22  1  0
 26 24  2  0
M  END
$$$$
