NYA.pdb
     RDKit          3D

 26 26  0  0  1  0  0  0  0  0999 V2000
   19.5459  -36.7455  -10.4953 N   0  0  0  0  0  0  0  0  0  0  0  0
   20.4643  -37.6984  -10.0013 C   0  0  0  0  0  0  0  0  0  0  0  0
   20.0245  -38.8487   -9.7054 O   0  0  0  0  0  0  0  0  0  0  0  0
   21.9029  -37.3777   -9.8285 C   0  0  0  0  0  0  0  0  0  0  0  0
   22.1105  -35.9323  -10.1663 C   0  0  2  0  0  0  0  0  0  0  0  0
   22.5218  -35.7617  -11.5242 N   0  0  0  0  0  0  0  0  0  0  0  0
   23.0239  -35.2577   -9.2010 C   0  0  0  0  0  0  0  0  0  0  0  0
   24.2008  -34.9979   -9.5508 O   0  0  0  0  0  0  0  0  0  0  0  0
   22.3472  -28.9086  -10.4183 O   0  0  0  0  0  0  0  0  0  0  0  0
   22.4786  -29.8978   -9.4356 C   0  0  0  0  0  0  0  0  0  0  0  0
   21.4083  -30.6853   -9.0647 C   0  0  0  0  0  0  0  0  0  0  0  0
   21.5550  -31.6632   -8.0874 C   0  0  0  0  0  0  0  0  0  0  0  0
   22.7601  -31.8859   -7.4546 C   0  0  0  0  0  0  0  0  0  0  0  0
   22.8678  -32.9293   -6.4288 C   0  0  0  0  0  0  0  0  0  0  0  0
   23.5162  -34.2072   -6.9656 C   0  0  2  0  0  0  0  0  0  0  0  0
   22.6282  -34.8880   -7.8884 N   0  0  0  0  0  0  0  0  0  0  0  0
   23.9295  -35.0973   -5.8506 C   0  0  0  0  0  0  0  0  0  0  0  0
   23.0580  -35.6848   -5.1745 O   0  0  0  0  0  0  0  0  0  0  0  0
   23.8304  -31.0974   -7.8264 C   0  0  0  0  0  0  0  0  0  0  0  0
   23.6796  -30.1281   -8.7971 C   0  0  0  0  0  0  0  0  0  0  0  0
   26.3841  -37.4951   -5.1647 C   0  0  0  0  0  0  0  0  0  0  0  0
   25.6541  -36.3428   -4.5279 C   0  0  2  0  0  0  0  0  0  0  0  0
   25.2895  -35.3213   -5.5042 N   0  0  0  0  0  0  0  0  0  0  0  0
   26.4410  -35.6968   -3.4451 C   0  0  0  0  0  0  0  0  0  0  0  0
   26.9045  -34.3967   -3.5935 O   0  0  0  0  0  0  0  0  0  0  0  0
   26.7177  -36.2846   -2.3678 O   0  0  0  0  0  0  0  0  0  0  0  0
  2  3  2  0
  2  1  1  0
  4  2  1  0
  5  4  1  0
  5  6  1  6
  7  5  1  0
  7 16  1  0
  8  7  2  0
  9 10  1  0
 10 11  2  0
 11 12  1  0
 13 14  1  0
 13 12  2  0
 15 14  1  1
 15 16  1  0
 15 17  1  0
 17 18  2  0
 19 13  1  0
 20 19  2  0
 20 10  1  0
 22 21  1  6
 23 17  1  0
 23 22  1  0
 24 25  1  0
 24 22  1  0
 26 24  2  0
M  END
$$$$
