NYA.pdb
     RDKit          3D

 26 26  0  0  1  0  0  0  0  0999 V2000
   22.0443  -11.8491  -18.7134 N   0  0  0  0  0  0  0  0  0  0  0  0
   21.7045  -10.5524  -19.1591 C   0  0  0  0  0  0  0  0  0  0  0  0
   21.7582  -10.3194  -20.4028 O   0  0  0  0  0  0  0  0  0  0  0  0
   21.2952   -9.4852  -18.2126 C   0  0  0  0  0  0  0  0  0  0  0  0
   21.9319   -8.1988  -18.6443 C   0  0  2  0  0  0  0  0  0  0  0  0
   23.3582   -8.2757  -18.6012 N   0  0  0  0  0  0  0  0  0  0  0  0
   21.3973   -7.0295  -17.8907 C   0  0  0  0  0  0  0  0  0  0  0  0
   20.1604   -6.8170  -17.8868 O   0  0  0  0  0  0  0  0  0  0  0  0
   18.8547   -9.1414  -12.2958 O   0  0  0  0  0  0  0  0  0  0  0  0
   19.6396   -8.1740  -12.9356 C   0  0  0  0  0  0  0  0  0  0  0  0
   20.9774   -8.3924  -13.1921 C   0  0  0  0  0  0  0  0  0  0  0  0
   21.7431   -7.4218  -13.8283 C   0  0  0  0  0  0  0  0  0  0  0  0
   21.2065   -6.2149  -14.2252 C   0  0  0  0  0  0  0  0  0  0  0  0
   22.0532   -5.2203  -14.8935 C   0  0  0  0  0  0  0  0  0  0  0  0
   21.6883   -5.0437  -16.3690 C   0  0  2  0  0  0  0  0  0  0  0  0
   22.2239   -6.1303  -17.1666 N   0  0  0  0  0  0  0  0  0  0  0  0
   22.1458   -3.7228  -16.8709 C   0  0  0  0  0  0  0  0  0  0  0  0
   23.3602   -3.5362  -17.0992 O   0  0  0  0  0  0  0  0  0  0  0  0
   19.8678   -5.9973  -13.9682 C   0  0  0  0  0  0  0  0  0  0  0  0
   19.1121   -6.9638  -13.3364 C   0  0  0  0  0  0  0  0  0  0  0  0
   20.6308   -0.5262  -18.1984 C   0  0  0  0  0  0  0  0  0  0  0  0
   21.7496   -1.3798  -17.6638 C   0  0  2  0  0  0  0  0  0  0  0  0
   21.2594   -2.6379  -17.1103 N   0  0  0  0  0  0  0  0  0  0  0  0
   22.5470   -0.6868  -16.6184 C   0  0  0  0  0  0  0  0  0  0  0  0
   23.6044    0.1393  -16.9741 O   0  0  0  0  0  0  0  0  0  0  0  0
   22.3067   -0.8135  -15.3901 O   0  0  0  0  0  0  0  0  0  0  0  0
  2  3  2  0
  2  1  1  0
  4  2  1  0
  5  4  1  0
  5  6  1  1
  7  5  1  0
  7 16  1  0
  8  7  2  0
  9 10  1  0
 10 11  2  0
 11 12  1  0
 13 14  1  0
 13 12  2  0
 15 14  1  1
 15 16  1  0
 15 17  1  0
 17 18  2  0
 19 13  1  0
 20 19  2  0
 20 10  1  0
 22 21  1  1
 23 17  1  0
 23 22  1  0
 24 25  1  0
 24 22  1  0
 26 24  2  0
M  END
$$$$
