NYA.pdb
     RDKit          3D

 26 26  0  0  1  0  0  0  0  0999 V2000
   29.7399  -20.1601  -19.2483 N   0  0  0  0  0  0  0  0  0  0  0  0
   28.6824  -21.0097  -19.6424 C   0  0  0  0  0  0  0  0  0  0  0  0
   28.6057  -21.3342  -20.8643 O   0  0  0  0  0  0  0  0  0  0  0  0
   27.6840  -21.5151  -18.6677 C   0  0  0  0  0  0  0  0  0  0  0  0
   28.4130  -22.0064  -17.4537 C   0  0  2  0  0  0  0  0  0  0  0  0
   29.1096  -23.2265  -17.7146 N   0  0  0  0  0  0  0  0  0  0  0  0
   27.5201  -22.0985  -16.2641 C   0  0  0  0  0  0  0  0  0  0  0  0
   26.8634  -23.1505  -16.0713 O   0  0  0  0  0  0  0  0  0  0  0  0
   23.9854  -20.7653   -8.2549 O   0  0  0  0  0  0  0  0  0  0  0  0
   24.7275  -20.6287   -9.4347 C   0  0  0  0  0  0  0  0  0  0  0  0
   25.9518  -21.2462   -9.5862 C   0  0  0  0  0  0  0  0  0  0  0  0
   26.6764  -21.1006  -10.7638 C   0  0  0  0  0  0  0  0  0  0  0  0
   26.2096  -20.3432  -11.8176 C   0  0  0  0  0  0  0  0  0  0  0  0
   27.0091  -20.2180  -13.0414 C   0  0  0  0  0  0  0  0  0  0  0  0
   26.5282  -21.1584  -14.1485 C   0  0  2  0  0  0  0  0  0  0  0  0
   27.3704  -21.0451  -15.3239 N   0  0  0  0  0  0  0  0  0  0  0  0
   25.1015  -20.9035  -14.4741 C   0  0  0  0  0  0  0  0  0  0  0  0
   24.7908  -19.8875  -15.1321 O   0  0  0  0  0  0  0  0  0  0  0  0
   24.9845  -19.7256  -11.6651 C   0  0  0  0  0  0  0  0  0  0  0  0
   24.2692  -19.8732  -10.4943 C   0  0  0  0  0  0  0  0  0  0  0  0
   21.9572  -22.7017  -14.9587 C   0  0  0  0  0  0  0  0  0  0  0  0
   22.6650  -21.4832  -14.4292 C   0  0  2  0  0  0  0  0  0  0  0  0
   24.0500  -21.7697  -14.0697 N   0  0  0  0  0  0  0  0  0  0  0  0
   21.9847  -20.8975  -13.2446 C   0  0  0  0  0  0  0  0  0  0  0  0
   20.8870  -20.0633  -13.4062 O   0  0  0  0  0  0  0  0  0  0  0  0
   22.3632  -21.1251  -12.0667 O   0  0  0  0  0  0  0  0  0  0  0  0
  2  3  2  0
  2  1  1  0
  4  2  1  0
  5  4  1  0
  5  6  1  6
  7  5  1  0
  7 16  1  0
  8  7  2  0
  9 10  1  0
 10 11  2  0
 11 12  1  0
 13 14  1  0
 13 12  2  0
 15 14  1  1
 15 16  1  0
 15 17  1  0
 17 18  2  0
 19 13  1  0
 20 19  2  0
 20 10  1  0
 22 21  1  1
 23 17  1  0
 23 22  1  0
 24 25  1  0
 24 22  1  0
 26 24  2  0
M  END
$$$$
