NYA.pdb
     RDKit          3D

 26 26  0  0  1  0  0  0  0  0999 V2000
   26.5025  -19.9980  -20.4044 N   0  0  0  0  0  0  0  0  0  0  0  0
   26.0360  -19.4709  -19.1796 C   0  0  0  0  0  0  0  0  0  0  0  0
   26.1222  -18.2201  -19.0006 O   0  0  0  0  0  0  0  0  0  0  0  0
   25.4602  -20.3421  -18.1252 C   0  0  0  0  0  0  0  0  0  0  0  0
   26.4118  -20.3780  -16.9677 C   0  0  2  0  0  0  0  0  0  0  0  0
   27.5739  -21.1548  -17.2643 N   0  0  0  0  0  0  0  0  0  0  0  0
   25.7426  -20.8049  -15.7064 C   0  0  0  0  0  0  0  0  0  0  0  0
   25.7247  -22.0230  -15.4047 O   0  0  0  0  0  0  0  0  0  0  0  0
   30.2216  -21.5018  -11.0130 O   0  0  0  0  0  0  0  0  0  0  0  0
   28.9464  -21.0320  -11.3517 C   0  0  0  0  0  0  0  0  0  0  0  0
   27.8163  -21.5105  -10.7217 C   0  0  0  0  0  0  0  0  0  0  0  0
   26.5574  -21.0339  -11.0694 C   0  0  0  0  0  0  0  0  0  0  0  0
   26.3854  -20.0752  -12.0459 C   0  0  0  0  0  0  0  0  0  0  0  0
   25.0373  -19.6021  -12.3795 C   0  0  0  0  0  0  0  0  0  0  0  0
   24.4536  -20.3216  -13.5973 C   0  0  2  0  0  0  0  0  0  0  0  0
   25.1155  -19.8946  -14.8152 N   0  0  0  0  0  0  0  0  0  0  0  0
   22.9844  -20.1183  -13.6759 C   0  0  0  0  0  0  0  0  0  0  0  0
   22.5330  -19.0611  -14.1661 O   0  0  0  0  0  0  0  0  0  0  0  0
   27.5168  -19.5970  -12.6758 C   0  0  0  0  0  0  0  0  0  0  0  0
   28.7641  -20.0733  -12.3270 C   0  0  0  0  0  0  0  0  0  0  0  0
   20.2441  -20.7041  -14.8430 C   0  0  0  0  0  0  0  0  0  0  0  0
   20.6122  -20.8719  -13.3930 C   0  0  2  0  0  0  0  0  0  0  0  0
   22.0455  -21.0802  -13.2144 N   0  0  0  0  0  0  0  0  0  0  0  0
   19.8906  -21.9996  -12.7476 C   0  0  0  0  0  0  0  0  0  0  0  0
   18.5246  -21.9175  -12.5142 O   0  0  0  0  0  0  0  0  0  0  0  0
   20.4706  -23.0573  -12.3907 O   0  0  0  0  0  0  0  0  0  0  0  0
  2  3  2  0
  2  1  1  0
  4  2  1  0
  5  4  1  0
  5  6  1  6
  7  5  1  0
  7 16  1  0
  8  7  2  0
  9 10  1  0
 10 11  2  0
 11 12  1  0
 13 14  1  0
 13 12  2  0
 15 14  1  1
 15 16  1  0
 15 17  1  0
 17 18  2  0
 19 13  1  0
 20 19  2  0
 20 10  1  0
 22 21  1  6
 23 17  1  0
 23 22  1  0
 24 25  1  0
 24 22  1  0
 26 24  2  0
M  END
$$$$
