GNR.pdb
     RDKit          3D

 24 23  0  0  1  0  0  0  0  0999 V2000
    6.7278  -12.9775   19.3823 N   0  0  0  0  0  0  0  0  0  0  0  0
    7.7193  -13.7207   18.6489 C   0  0  0  0  0  0  0  0  0  0  0  0
    8.2066  -14.9004   19.4234 C   0  0  0  0  0  0  0  0  0  0  0  0
    7.8018  -15.0331   20.5946 O   0  0  0  0  0  0  0  0  0  0  0  0
    9.5398  -18.7242   16.4943 N   0  0  0  0  0  0  0  0  0  0  0  0
    9.2711  -18.7174   17.8843 C   0  0  0  0  0  0  0  0  0  0  0  0
    8.2409  -19.3141   18.2791 O   0  0  0  0  0  0  0  0  0  0  0  0
   10.2193  -18.0107   18.7683 C   0  0  0  0  0  0  0  0  0  0  0  0
    9.5279  -16.9698   19.6245 C   0  0  2  0  0  0  0  0  0  0  0  0
    9.1010  -15.8445   18.8530 N   0  0  0  0  0  0  0  0  0  0  0  0
   10.4960  -16.5717   20.6804 C   0  0  0  0  0  0  0  0  0  0  0  0
   11.4005  -15.7588   20.3806 O   0  0  0  0  0  0  0  0  0  0  0  0
    9.4178  -14.0971   28.7609 N   0  0  0  0  0  0  0  0  0  0  0  0
    8.8534  -13.3277   27.6977 C   0  0  0  0  0  0  0  0  0  0  0  0
    8.2531  -12.2053   27.9377 N   0  0  0  0  0  0  0  0  0  0  0  0
    8.9203  -13.7473   26.3431 N   0  0  0  0  0  0  0  0  0  0  0  0
    9.6319  -14.9911   26.0128 C   0  0  0  0  0  0  0  0  0  0  0  0
    9.5007  -15.2950   24.5320 C   0  0  0  0  0  0  0  0  0  0  0  0
   10.3135  -16.5394   24.2926 C   0  0  0  0  0  0  0  0  0  0  0  0
   11.2097  -16.4867   23.1051 C   0  0  2  0  0  0  0  0  0  0  0  0
   10.4322  -17.0716   21.9927 N   0  0  0  0  0  0  0  0  0  0  0  0
   12.3527  -17.4047   23.3001 C   0  0  0  0  0  0  0  0  0  0  0  0
   13.4267  -17.0588   23.8696 O   0  0  0  0  0  0  0  0  0  0  0  0
   12.2893  -18.7026   22.8598 O   0  0  0  0  0  0  0  0  0  0  0  0
  2  1  1  0
  2  3  1  0
  3 10  1  0
  4  3  2  0
  6  5  1  0
  6  7  2  0
  8  6  1  0
  9  8  1  6
  9 11  1  0
 10  9  1  0
 11 21  1  0
 11 12  2  0
 13 14  1  0
 14 16  1  0
 15 14  2  0
 16 17  1  0
 17 18  1  0
 18 19  1  0
 20 19  1  1
 21 20  1  0
 22 20  1  0
 22 24  1  0
 23 22  2  0
M  END
$$$$
