GNR.pdb
     RDKit          3D

 24 23  0  0  1  0  0  0  0  0999 V2000
    5.3116  -22.2465   22.9406 N   0  0  0  0  0  0  0  0  0  0  0  0
    4.6008  -20.9956   22.9998 C   0  0  0  0  0  0  0  0  0  0  0  0
    5.3988  -19.9420   23.6939 C   0  0  0  0  0  0  0  0  0  0  0  0
    4.9260  -18.7897   23.7365 O   0  0  0  0  0  0  0  0  0  0  0  0
   10.3500  -18.8983   26.9883 N   0  0  0  0  0  0  0  0  0  0  0  0
    8.9551  -18.7185   26.8258 C   0  0  0  0  0  0  0  0  0  0  0  0
    8.4465  -17.6720   27.2941 O   0  0  0  0  0  0  0  0  0  0  0  0
    8.2000  -19.7721   26.1188 C   0  0  0  0  0  0  0  0  0  0  0  0
    7.3598  -19.2079   24.9917 C   0  0  2  0  0  0  0  0  0  0  0  0
    6.6550  -20.2339   24.2885 N   0  0  0  0  0  0  0  0  0  0  0  0
    8.2872  -18.4696   24.0941 C   0  0  0  0  0  0  0  0  0  0  0  0
    9.1030  -19.1299   23.4105 O   0  0  0  0  0  0  0  0  0  0  0  0
    9.1447  -12.1949   18.7947 N   0  0  0  0  0  0  0  0  0  0  0  0
    8.2145  -13.2487   18.5391 C   0  0  0  0  0  0  0  0  0  0  0  0
    8.0551  -13.7163   17.3418 N   0  0  0  0  0  0  0  0  0  0  0  0
    7.4284  -13.8291   19.5689 N   0  0  0  0  0  0  0  0  0  0  0  0
    7.6758  -13.4392   20.9650 C   0  0  0  0  0  0  0  0  0  0  0  0
    8.8109  -14.2606   21.5475 C   0  0  0  0  0  0  0  0  0  0  0  0
    8.1695  -15.2324   22.5019 C   0  0  0  0  0  0  0  0  0  0  0  0
    9.0490  -16.3462   22.9512 C   0  0  2  0  0  0  0  0  0  0  0  0
    8.2805  -17.0680   23.9867 N   0  0  0  0  0  0  0  0  0  0  0  0
   10.2273  -15.7990   23.6580 C   0  0  0  0  0  0  0  0  0  0  0  0
   10.2438  -15.5748   24.9018 O   0  0  0  0  0  0  0  0  0  0  0  0
   11.3794  -15.5069   22.9728 O   0  0  0  0  0  0  0  0  0  0  0  0
  2  1  1  0
  2  3  1  0
  3 10  1  0
  4  3  2  0
  6  5  1  0
  6  7  2  0
  8  6  1  0
  9  8  1  1
  9 11  1  0
 10  9  1  0
 11 21  1  0
 11 12  2  0
 13 14  1  0
 14 16  1  0
 15 14  2  0
 16 17  1  0
 17 18  1  0
 18 19  1  0
 20 19  1  1
 21 20  1  0
 22 20  1  0
 22 24  1  0
 23 22  2  0
M  END
$$$$
