GNR.pdb
     RDKit          3D

 24 23  0  0  1  0  0  0  0  0999 V2000
    6.5086  -20.1639   24.2881 N   0  0  0  0  0  0  0  0  0  0  0  0
    7.9054  -20.5091   24.2314 C   0  0  0  0  0  0  0  0  0  0  0  0
    8.7754  -19.3012   24.3446 C   0  0  0  0  0  0  0  0  0  0  0  0
    8.5431  -18.3449   23.5799 O   0  0  0  0  0  0  0  0  0  0  0  0
    9.6126  -17.4175   27.6456 N   0  0  0  0  0  0  0  0  0  0  0  0
   10.9954  -17.7158   27.7066 C   0  0  0  0  0  0  0  0  0  0  0  0
   11.5640  -17.6063   28.8192 O   0  0  0  0  0  0  0  0  0  0  0  0
   11.6681  -18.1332   26.4604 C   0  0  0  0  0  0  0  0  0  0  0  0
   10.7254  -18.1174   25.2747 C   0  0  2  0  0  0  0  0  0  0  0  0
    9.8341  -19.2352   25.2888 N   0  0  0  0  0  0  0  0  0  0  0  0
   11.5732  -18.1111   24.0533 C   0  0  0  0  0  0  0  0  0  0  0  0
   12.3807  -19.0539   23.8863 O   0  0  0  0  0  0  0  0  0  0  0  0
    7.2559  -13.8381   19.9656 N   0  0  0  0  0  0  0  0  0  0  0  0
    8.3683  -12.9542   19.8159 C   0  0  0  0  0  0  0  0  0  0  0  0
    8.1970  -11.6705   19.7955 N   0  0  0  0  0  0  0  0  0  0  0  0
    9.6992  -13.4301   19.6836 N   0  0  0  0  0  0  0  0  0  0  0  0
    9.9524  -14.8772   19.7500 C   0  0  0  0  0  0  0  0  0  0  0  0
   11.0591  -15.1726   20.7453 C   0  0  0  0  0  0  0  0  0  0  0  0
   11.1915  -16.6718   20.7821 C   0  0  0  0  0  0  0  0  0  0  0  0
   12.1715  -17.1926   21.7743 C   0  0  2  0  0  0  0  0  0  0  0  0
   11.5008  -17.0924   23.0873 N   0  0  0  0  0  0  0  0  0  0  0  0
   13.3289  -16.2761   21.8625 C   0  0  0  0  0  0  0  0  0  0  0  0
   13.4989  -15.4687   22.8199 O   0  0  0  0  0  0  0  0  0  0  0  0
   14.2893  -16.2675   20.8828 O   0  0  0  0  0  0  0  0  0  0  0  0
  2  1  1  0
  2  3  1  0
  3 10  1  0
  4  3  2  0
  6  5  1  0
  6  7  2  0
  8  6  1  0
  9  8  1  1
  9 11  1  0
 10  9  1  0
 11 21  1  0
 11 12  2  0
 13 14  1  0
 14 16  1  0
 15 14  2  0
 16 17  1  0
 17 18  1  0
 18 19  1  0
 20 19  1  6
 21 20  1  0
 22 20  1  0
 22 24  1  0
 23 22  2  0
M  END
$$$$
