GNR.pdb
     RDKit          3D

 24 23  0  0  1  0  0  0  0  0999 V2000
    5.5144  -22.4283   21.4452 N   0  0  0  0  0  0  0  0  0  0  0  0
    6.7843  -21.7527   21.5114 C   0  0  0  0  0  0  0  0  0  0  0  0
    6.7741  -20.6615   22.5302 C   0  0  0  0  0  0  0  0  0  0  0  0
    6.2484  -19.5768   22.2137 O   0  0  0  0  0  0  0  0  0  0  0  0
    8.7098  -18.8380   27.9884 N   0  0  0  0  0  0  0  0  0  0  0  0
    7.6289  -19.0966   27.1112 C   0  0  0  0  0  0  0  0  0  0  0  0
    6.6043  -18.3825   27.2268 O   0  0  0  0  0  0  0  0  0  0  0  0
    7.7836  -20.1850   26.1256 C   0  0  0  0  0  0  0  0  0  0  0  0
    7.4017  -19.7426   24.7281 C   0  0  2  0  0  0  0  0  0  0  0  0
    7.3419  -20.8443   23.8190 N   0  0  0  0  0  0  0  0  0  0  0  0
    8.4144  -18.7399   24.3043 C   0  0  0  0  0  0  0  0  0  0  0  0
    9.1143  -18.9923   23.2967 O   0  0  0  0  0  0  0  0  0  0  0  0
    8.8065  -14.4079   19.2388 N   0  0  0  0  0  0  0  0  0  0  0  0
    8.3665  -13.2851   20.0047 C   0  0  0  0  0  0  0  0  0  0  0  0
    8.5837  -12.0761   19.5938 N   0  0  0  0  0  0  0  0  0  0  0  0
    7.6786  -13.4341   21.2376 N   0  0  0  0  0  0  0  0  0  0  0  0
    7.8041  -14.6974   21.9797 C   0  0  0  0  0  0  0  0  0  0  0  0
    6.9315  -14.6676   23.2207 C   0  0  0  0  0  0  0  0  0  0  0  0
    7.1835  -15.9693   23.9337 C   0  0  0  0  0  0  0  0  0  0  0  0
    8.6032  -16.2180   24.3062 C   0  0  2  0  0  0  0  0  0  0  0  0
    8.6123  -17.5284   24.9893 N   0  0  0  0  0  0  0  0  0  0  0  0
    9.0280  -15.2445   25.3353 C   0  0  0  0  0  0  0  0  0  0  0  0
    8.4711  -15.1476   26.4658 O   0  0  0  0  0  0  0  0  0  0  0  0
   10.0720  -14.3869   25.0969 O   0  0  0  0  0  0  0  0  0  0  0  0
  2  1  1  0
  2  3  1  0
  3 10  1  0
  4  3  2  0
  6  5  1  0
  6  7  2  0
  8  6  1  0
  9  8  1  1
  9 11  1  0
 10  9  1  0
 11 21  1  0
 11 12  2  0
 13 14  1  0
 14 16  1  0
 15 14  2  0
 16 17  1  0
 17 18  1  0
 18 19  1  0
 20 19  1  1
 21 20  1  0
 22 20  1  0
 22 24  1  0
 23 22  2  0
M  END
$$$$
