GNR.pdb
     RDKit          3D

 24 23  0  0  1  0  0  0  0  0999 V2000
   11.1116  -15.9241   14.9047 N   0  0  0  0  0  0  0  0  0  0  0  0
   12.2218  -16.8349   15.0104 C   0  0  0  0  0  0  0  0  0  0  0  0
   12.4517  -17.2602   16.4228 C   0  0  0  0  0  0  0  0  0  0  0  0
   11.5009  -17.1577   17.2218 O   0  0  0  0  0  0  0  0  0  0  0  0
   16.0146  -21.0010   17.2323 N   0  0  0  0  0  0  0  0  0  0  0  0
   14.9224  -20.3741   17.8793 C   0  0  0  0  0  0  0  0  0  0  0  0
   13.8512  -21.0207   17.9672 O   0  0  0  0  0  0  0  0  0  0  0  0
   15.1207  -19.0080   18.4032 C   0  0  0  0  0  0  0  0  0  0  0  0
   13.8896  -18.1452   18.2167 C   0  0  2  0  0  0  0  0  0  0  0  0
   13.7081  -17.7656   16.8504 N   0  0  0  0  0  0  0  0  0  0  0  0
   14.0617  -16.9577   19.0946 C   0  0  0  0  0  0  0  0  0  0  0  0
   14.9589  -16.1322   18.8075 O   0  0  0  0  0  0  0  0  0  0  0  0
    7.1874  -13.7206   19.5942 N   0  0  0  0  0  0  0  0  0  0  0  0
    8.1193  -13.2154   18.6364 C   0  0  0  0  0  0  0  0  0  0  0  0
    7.7112  -12.5620   17.5951 N   0  0  0  0  0  0  0  0  0  0  0  0
    9.5200  -13.4007   18.7743 N   0  0  0  0  0  0  0  0  0  0  0  0
   10.0305  -14.1866   19.9076 C   0  0  0  0  0  0  0  0  0  0  0  0
   11.5423  -14.0807   19.9828 C   0  0  0  0  0  0  0  0  0  0  0  0
   11.9620  -14.9701   21.1227 C   0  0  0  0  0  0  0  0  0  0  0  0
   13.3519  -15.4954   21.0319 C   0  0  2  0  0  0  0  0  0  0  0  0
   13.2593  -16.7308   20.2263 N   0  0  0  0  0  0  0  0  0  0  0  0
   13.8066  -15.9399   22.3672 C   0  0  0  0  0  0  0  0  0  0  0  0
   14.1080  -15.1379   23.2963 O   0  0  0  0  0  0  0  0  0  0  0  0
   13.9205  -17.2760   22.6573 O   0  0  0  0  0  0  0  0  0  0  0  0
  2  1  1  0
  2  3  1  0
  3 10  1  0
  4  3  2  0
  6  5  1  0
  6  7  2  0
  8  6  1  0
  9  8  1  6
  9 11  1  0
 10  9  1  0
 11 21  1  0
 11 12  2  0
 13 14  1  0
 14 16  1  0
 15 14  2  0
 16 17  1  0
 17 18  1  0
 18 19  1  0
 20 19  1  1
 21 20  1  0
 22 20  1  0
 22 24  1  0
 23 22  2  0
M  END
$$$$
