GNR.pdb
     RDKit          3D

 24 23  0  0  1  0  0  0  0  0999 V2000
    6.9816  -12.4689   18.6334 N   0  0  0  0  0  0  0  0  0  0  0  0
    8.0271  -13.3961   18.2861 C   0  0  0  0  0  0  0  0  0  0  0  0
    8.1833  -14.4614   19.3202 C   0  0  0  0  0  0  0  0  0  0  0  0
    7.3181  -14.5337   20.2142 O   0  0  0  0  0  0  0  0  0  0  0  0
    9.2309  -18.4815   17.5504 N   0  0  0  0  0  0  0  0  0  0  0  0
    9.0381  -18.4315   18.9522 C   0  0  0  0  0  0  0  0  0  0  0  0
    8.0590  -19.0562   19.4259 O   0  0  0  0  0  0  0  0  0  0  0  0
    9.9999  -17.6500   19.7548 C   0  0  0  0  0  0  0  0  0  0  0  0
    9.3827  -16.3779   20.2985 C   0  0  2  0  0  0  0  0  0  0  0  0
    9.2777  -15.3661   19.2940 N   0  0  0  0  0  0  0  0  0  0  0  0
   10.2393  -15.9360   21.4306 C   0  0  0  0  0  0  0  0  0  0  0  0
   11.3179  -15.3560   21.1677 O   0  0  0  0  0  0  0  0  0  0  0  0
   12.2074  -17.0101   28.7227 N   0  0  0  0  0  0  0  0  0  0  0  0
   11.1076  -16.4254   29.4223 C   0  0  0  0  0  0  0  0  0  0  0  0
   10.9014  -16.6903   30.6733 N   0  0  0  0  0  0  0  0  0  0  0  0
   10.1973  -15.5369   28.7920 N   0  0  0  0  0  0  0  0  0  0  0  0
    9.6353  -15.8977   27.4819 C   0  0  0  0  0  0  0  0  0  0  0  0
   10.3787  -15.1756   26.3735 C   0  0  0  0  0  0  0  0  0  0  0  0
    9.7684  -15.6584   25.0847 C   0  0  0  0  0  0  0  0  0  0  0  0
   10.6658  -15.5895   23.8990 C   0  0  2  0  0  0  0  0  0  0  0  0
    9.8839  -16.1445   22.7745 N   0  0  0  0  0  0  0  0  0  0  0  0
   11.8004  -16.5217   24.0759 C   0  0  0  0  0  0  0  0  0  0  0  0
   11.6855  -17.7762   23.9744 O   0  0  0  0  0  0  0  0  0  0  0  0
   13.0555  -16.0478   24.3632 O   0  0  0  0  0  0  0  0  0  0  0  0
  2  1  1  0
  2  3  1  0
  3 10  1  0
  4  3  2  0
  6  5  1  0
  6  7  2  0
  8  6  1  0
  9  8  1  6
  9 11  1  0
 10  9  1  0
 11 21  1  0
 11 12  2  0
 13 14  1  0
 14 16  1  0
 15 14  2  0
 16 17  1  0
 17 18  1  0
 18 19  1  0
 20 19  1  1
 21 20  1  0
 22 20  1  0
 22 24  1  0
 23 22  2  0
M  END
$$$$
