GNR.pdb
     RDKit          3D

 24 23  0  0  1  0  0  0  0  0999 V2000
    8.0751  -12.5268   16.7949 N   0  0  0  0  0  0  0  0  0  0  0  0
    7.5519  -13.6650   17.5051 C   0  0  0  0  0  0  0  0  0  0  0  0
    8.1290  -13.7694   18.8779 C   0  0  0  0  0  0  0  0  0  0  0  0
    9.2924  -13.3576   19.0513 O   0  0  0  0  0  0  0  0  0  0  0  0
    7.5325  -14.0974   24.5610 N   0  0  0  0  0  0  0  0  0  0  0  0
    7.6505  -15.1314   23.6011 C   0  0  0  0  0  0  0  0  0  0  0  0
    8.2954  -16.1562   23.9286 O   0  0  0  0  0  0  0  0  0  0  0  0
    7.0084  -14.9312   22.2867 C   0  0  0  0  0  0  0  0  0  0  0  0
    7.9915  -14.4385   21.2448 C   0  0  2  0  0  0  0  0  0  0  0  0
    7.3849  -14.3181   19.9559 N   0  0  0  0  0  0  0  0  0  0  0  0
    9.1197  -15.4069   21.2285 C   0  0  0  0  0  0  0  0  0  0  0  0
    8.9322  -16.5279   20.7022 O   0  0  0  0  0  0  0  0  0  0  0  0
   15.9762  -13.1590   17.3469 N   0  0  0  0  0  0  0  0  0  0  0  0
   16.1293  -14.5689   17.5192 C   0  0  0  0  0  0  0  0  0  0  0  0
   16.8785  -15.2573   16.7177 N   0  0  0  0  0  0  0  0  0  0  0  0
   15.4778  -15.2779   18.5624 N   0  0  0  0  0  0  0  0  0  0  0  0
   14.4143  -14.6096   19.3272 C   0  0  0  0  0  0  0  0  0  0  0  0
   13.8312  -15.5587   20.3576 C   0  0  0  0  0  0  0  0  0  0  0  0
   12.5087  -14.9651   20.7637 C   0  0  0  0  0  0  0  0  0  0  0  0
   11.5885  -15.9005   21.4667 C   0  0  2  0  0  0  0  0  0  0  0  0
   10.3790  -15.1107   21.7785 N   0  0  0  0  0  0  0  0  0  0  0  0
   12.1576  -16.2679   22.7814 C   0  0  0  0  0  0  0  0  0  0  0  0
   11.7003  -15.8349   23.8772 O   0  0  0  0  0  0  0  0  0  0  0  0
   13.2321  -17.1170   22.8648 O   0  0  0  0  0  0  0  0  0  0  0  0
  2  1  1  0
  2  3  1  0
  3 10  1  0
  4  3  2  0
  6  5  1  0
  6  7  2  0
  8  6  1  0
  9  8  1  1
  9 11  1  0
 10  9  1  0
 11 21  1  0
 11 12  2  0
 13 14  1  0
 14 16  1  0
 15 14  2  0
 16 17  1  0
 17 18  1  0
 18 19  1  0
 20 19  1  6
 21 20  1  0
 22 20  1  0
 22 24  1  0
 23 22  2  0
M  END
$$$$
