GNR.pdb
     RDKit          3D

 24 23  0  0  1  0  0  0  0  0999 V2000
   10.6159  -22.7364   22.4237 N   0  0  0  0  0  0  0  0  0  0  0  0
   11.2170  -21.6600   23.1677 C   0  0  0  0  0  0  0  0  0  0  0  0
   11.8766  -22.1533   24.4128 C   0  0  0  0  0  0  0  0  0  0  0  0
   11.2309  -22.9299   25.1430 O   0  0  0  0  0  0  0  0  0  0  0  0
   16.9475  -23.6608   26.8601 N   0  0  0  0  0  0  0  0  0  0  0  0
   15.9286  -22.7150   27.1279 C   0  0  0  0  0  0  0  0  0  0  0  0
   15.6322  -22.5057   28.3286 O   0  0  0  0  0  0  0  0  0  0  0  0
   15.2890  -22.0439   25.9788 C   0  0  0  0  0  0  0  0  0  0  0  0
   13.7889  -22.2547   25.9624 C   0  0  2  0  0  0  0  0  0  0  0  0
   13.1948  -21.7564   24.7614 N   0  0  0  0  0  0  0  0  0  0  0  0
   13.2467  -21.5685   27.1648 C   0  0  0  0  0  0  0  0  0  0  0  0
   13.1017  -20.3250   27.1238 O   0  0  0  0  0  0  0  0  0  0  0  0
    7.3720  -25.8581   30.7241 N   0  0  0  0  0  0  0  0  0  0  0  0
    8.6193  -26.5252   30.5240 C   0  0  0  0  0  0  0  0  0  0  0  0
    8.6913  -27.8182   30.5494 N   0  0  0  0  0  0  0  0  0  0  0  0
    9.8267  -25.8159   30.2903 N   0  0  0  0  0  0  0  0  0  0  0  0
    9.7936  -24.3472   30.2254 C   0  0  0  0  0  0  0  0  0  0  0  0
   11.1962  -23.7965   30.0470 C   0  0  0  0  0  0  0  0  0  0  0  0
   11.0312  -22.3224   29.7900 C   0  0  0  0  0  0  0  0  0  0  0  0
   12.2947  -21.5877   29.5076 C   0  0  2  0  0  0  0  0  0  0  0  0
   12.8939  -22.2607   28.3363 N   0  0  0  0  0  0  0  0  0  0  0  0
   13.2565  -21.8049   30.6099 C   0  0  0  0  0  0  0  0  0  0  0  0
   13.0341  -21.4458   31.8011 O   0  0  0  0  0  0  0  0  0  0  0  0
   14.4592  -22.4225   30.3761 O   0  0  0  0  0  0  0  0  0  0  0  0
  2  1  1  0
  2  3  1  0
  3 10  1  0
  4  3  2  0
  6  5  1  0
  6  7  2  0
  8  6  1  0
  9  8  1  6
  9 11  1  0
 10  9  1  0
 11 21  1  0
 11 12  2  0
 13 14  1  0
 14 16  1  0
 15 14  2  0
 16 17  1  0
 17 18  1  0
 18 19  1  0
 20 19  1  1
 21 20  1  0
 22 20  1  0
 22 24  1  0
 23 22  2  0
M  END
$$$$
