GNR.pdb
     RDKit          3D

 24 23  0  0  1  0  0  0  0  0999 V2000
   10.1809  -18.3046   17.3259 N   0  0  0  0  0  0  0  0  0  0  0  0
   11.4276  -18.2766   18.0459 C   0  0  0  0  0  0  0  0  0  0  0  0
   11.2106  -18.3079   19.5226 C   0  0  0  0  0  0  0  0  0  0  0  0
   10.0353  -18.2931   19.9370 O   0  0  0  0  0  0  0  0  0  0  0  0
   15.0331  -20.3277   21.8839 N   0  0  0  0  0  0  0  0  0  0  0  0
   13.7316  -20.1177   22.4004 C   0  0  0  0  0  0  0  0  0  0  0  0
   13.0292  -21.1306   22.6327 O   0  0  0  0  0  0  0  0  0  0  0  0
   13.2945  -18.7259   22.6282 C   0  0  0  0  0  0  0  0  0  0  0  0
   12.0469  -18.3873   21.8385 C   0  0  2  0  0  0  0  0  0  0  0  0
   12.3005  -18.3532   20.4319 N   0  0  0  0  0  0  0  0  0  0  0  0
   11.5673  -17.0717   22.3384 C   0  0  0  0  0  0  0  0  0  0  0  0
   12.3016  -16.0705   22.1737 O   0  0  0  0  0  0  0  0  0  0  0  0
    8.5360  -13.9294   17.3317 N   0  0  0  0  0  0  0  0  0  0  0  0
    7.8161  -13.5397   18.5026 C   0  0  0  0  0  0  0  0  0  0  0  0
    6.6718  -12.9402   18.4085 N   0  0  0  0  0  0  0  0  0  0  0  0
    8.3105  -13.7857   19.8104 N   0  0  0  0  0  0  0  0  0  0  0  0
    7.3709  -13.7939   20.9416 C   0  0  0  0  0  0  0  0  0  0  0  0
    8.1229  -13.9586   22.2492 C   0  0  0  0  0  0  0  0  0  0  0  0
    8.8393  -15.2789   22.1497 C   0  0  0  0  0  0  0  0  0  0  0  0
    9.7523  -15.5864   23.2845 C   0  0  2  0  0  0  0  0  0  0  0  0
   10.3287  -16.9136   22.9842 N   0  0  0  0  0  0  0  0  0  0  0  0
    8.9651  -15.7797   24.5215 C   0  0  0  0  0  0  0  0  0  0  0  0
    8.3139  -14.8503   25.0779 O   0  0  0  0  0  0  0  0  0  0  0  0
    8.9085  -17.0088   25.1285 O   0  0  0  0  0  0  0  0  0  0  0  0
  2  1  1  0
  2  3  1  0
  3 10  1  0
  4  3  2  0
  6  5  1  0
  6  7  2  0
  8  6  1  0
  9  8  1  1
  9 11  1  0
 10  9  1  0
 11 21  1  0
 11 12  2  0
 13 14  1  0
 14 16  1  0
 15 14  2  0
 16 17  1  0
 17 18  1  0
 18 19  1  0
 20 19  1  6
 21 20  1  0
 22 20  1  0
 22 24  1  0
 23 22  2  0
M  END
$$$$
