GNR.pdb
     RDKit          3D

 24 23  0  0  1  0  0  0  0  0999 V2000
    6.7951  -19.1780   18.8217 N   0  0  0  0  0  0  0  0  0  0  0  0
    6.1455  -17.9604   19.2326 C   0  0  0  0  0  0  0  0  0  0  0  0
    7.0519  -17.1033   20.0527 C   0  0  0  0  0  0  0  0  0  0  0  0
    8.1289  -17.5989   20.4369 O   0  0  0  0  0  0  0  0  0  0  0  0
    7.3386  -11.9128   19.2177 N   0  0  0  0  0  0  0  0  0  0  0  0
    7.9643  -13.0054   19.8652 C   0  0  0  0  0  0  0  0  0  0  0  0
    9.0091  -13.4664   19.3463 O   0  0  0  0  0  0  0  0  0  0  0  0
    7.3450  -13.5234   21.1013 C   0  0  0  0  0  0  0  0  0  0  0  0
    7.5558  -15.0152   21.2588 C   0  0  2  0  0  0  0  0  0  0  0  0
    6.7068  -15.7673   20.3885 N   0  0  0  0  0  0  0  0  0  0  0  0
    7.2950  -15.3364   22.6870 C   0  0  0  0  0  0  0  0  0  0  0  0
    6.2460  -14.8974   23.2121 O   0  0  0  0  0  0  0  0  0  0  0  0
    6.6419  -22.7194   26.4529 N   0  0  0  0  0  0  0  0  0  0  0  0
    6.7329  -21.8575   27.5886 C   0  0  0  0  0  0  0  0  0  0  0  0
    6.2973  -22.2391   28.7472 N   0  0  0  0  0  0  0  0  0  0  0  0
    7.2972  -20.5573   27.5073 N   0  0  0  0  0  0  0  0  0  0  0  0
    7.4331  -19.9165   26.1907 C   0  0  0  0  0  0  0  0  0  0  0  0
    7.9773  -18.5084   26.3445 C   0  0  0  0  0  0  0  0  0  0  0  0
    8.0466  -17.9386   24.9528 C   0  0  0  0  0  0  0  0  0  0  0  0
    7.8998  -16.4595   24.8706 C   0  0  2  0  0  0  0  0  0  0  0  0
    8.1772  -16.1091   23.4620 N   0  0  0  0  0  0  0  0  0  0  0  0
    8.9748  -15.8063   25.6485 C   0  0  0  0  0  0  0  0  0  0  0  0
    8.9034  -15.6101   26.8950 O   0  0  0  0  0  0  0  0  0  0  0  0
   10.1224  -15.3777   25.0308 O   0  0  0  0  0  0  0  0  0  0  0  0
  2  1  1  0
  2  3  1  0
  3 10  1  0
  4  3  2  0
  6  5  1  0
  6  7  2  0
  8  6  1  0
  9  8  1  1
  9 11  1  0
 10  9  1  0
 11 21  1  0
 11 12  2  0
 13 14  1  0
 14 16  1  0
 15 14  2  0
 16 17  1  0
 17 18  1  0
 18 19  1  0
 20 19  1  6
 21 20  1  0
 22 20  1  0
 22 24  1  0
 23 22  2  0
M  END
$$$$
