GNR.pdb
     RDKit          3D

 24 23  0  0  1  0  0  0  0  0999 V2000
    6.2687  -19.7074   20.3016 N   0  0  0  0  0  0  0  0  0  0  0  0
    5.9298  -18.3212   20.4942 C   0  0  0  0  0  0  0  0  0  0  0  0
    7.1468  -17.4572   20.5287 C   0  0  0  0  0  0  0  0  0  0  0  0
    8.2586  -18.0201   20.5172 O   0  0  0  0  0  0  0  0  0  0  0  0
    7.2739  -12.2908   18.5553 N   0  0  0  0  0  0  0  0  0  0  0  0
    7.7598  -13.5595   18.9540 C   0  0  0  0  0  0  0  0  0  0  0  0
    7.9723  -14.4081   18.0550 O   0  0  0  0  0  0  0  0  0  0  0  0
    7.9814  -13.7935   20.3948 C   0  0  0  0  0  0  0  0  0  0  0  0
    8.2380  -15.2552   20.6988 C   0  0  2  0  0  0  0  0  0  0  0  0
    7.0503  -16.0411   20.5733 N   0  0  0  0  0  0  0  0  0  0  0  0
    8.7889  -15.3155   22.0785 C   0  0  0  0  0  0  0  0  0  0  0  0
    8.0646  -14.9287   23.0244 O   0  0  0  0  0  0  0  0  0  0  0  0
    7.3842  -20.7776   26.6209 N   0  0  0  0  0  0  0  0  0  0  0  0
    6.9332  -19.6264   25.9052 C   0  0  0  0  0  0  0  0  0  0  0  0
    6.0883  -19.7408   24.9302 N   0  0  0  0  0  0  0  0  0  0  0  0
    7.3813  -18.3168   26.2209 N   0  0  0  0  0  0  0  0  0  0  0  0
    8.7555  -17.9264   25.8722 C   0  0  0  0  0  0  0  0  0  0  0  0
    8.8610  -17.6440   24.3850 C   0  0  0  0  0  0  0  0  0  0  0  0
   10.3121  -17.3390   24.1248 C   0  0  0  0  0  0  0  0  0  0  0  0
   10.5988  -15.9316   23.7338 C   0  0  2  0  0  0  0  0  0  0  0  0
   10.0835  -15.7877   22.3562 N   0  0  0  0  0  0  0  0  0  0  0  0
   12.0599  -15.7317   23.6209 C   0  0  0  0  0  0  0  0  0  0  0  0
   12.6836  -15.8017   22.5238 O   0  0  0  0  0  0  0  0  0  0  0  0
   12.8148  -15.4539   24.7322 O   0  0  0  0  0  0  0  0  0  0  0  0
  2  1  1  0
  2  3  1  0
  3 10  1  0
  4  3  2  0
  6  5  1  0
  6  7  2  0
  8  6  1  0
  9  8  1  1
  9 11  1  0
 10  9  1  0
 11 21  1  0
 11 12  2  0
 13 14  1  0
 14 16  1  0
 15 14  2  0
 16 17  1  0
 17 18  1  0
 18 19  1  0
 20 19  1  6
 21 20  1  0
 22 20  1  0
 22 24  1  0
 23 22  2  0
M  END
$$$$
