GNR.pdb
     RDKit          3D

 24 23  0  0  1  0  0  0  0  0999 V2000
    8.3998  -17.7803   23.5392 N   0  0  0  0  0  0  0  0  0  0  0  0
    7.9199  -17.6740   24.8927 C   0  0  0  0  0  0  0  0  0  0  0  0
    9.0451  -17.5997   25.8709 C   0  0  0  0  0  0  0  0  0  0  0  0
   10.0972  -18.2071   25.5925 O   0  0  0  0  0  0  0  0  0  0  0  0
    9.6211  -13.1883   28.5988 N   0  0  0  0  0  0  0  0  0  0  0  0
   10.2421  -14.3777   28.1471 C   0  0  0  0  0  0  0  0  0  0  0  0
   10.9779  -14.2995   27.1342 O   0  0  0  0  0  0  0  0  0  0  0  0
    9.9809  -15.6221   28.8975 C   0  0  0  0  0  0  0  0  0  0  0  0
   10.0222  -16.8433   28.0021 C   0  0  2  0  0  0  0  0  0  0  0  0
    8.9297  -16.8641   27.0802 N   0  0  0  0  0  0  0  0  0  0  0  0
   10.0042  -18.0311   28.8963 C   0  0  0  0  0  0  0  0  0  0  0  0
    9.0088  -18.2013   29.6372 O   0  0  0  0  0  0  0  0  0  0  0  0
   12.9144  -20.6258   24.9888 N   0  0  0  0  0  0  0  0  0  0  0  0
   14.0716  -21.3556   25.4001 C   0  0  0  0  0  0  0  0  0  0  0  0
   15.1999  -21.2140   24.7801 N   0  0  0  0  0  0  0  0  0  0  0  0
   14.0450  -22.2606   26.4936 N   0  0  0  0  0  0  0  0  0  0  0  0
   12.8329  -22.3483   27.3217 C   0  0  0  0  0  0  0  0  0  0  0  0
   12.6690  -21.0873   28.1497 C   0  0  0  0  0  0  0  0  0  0  0  0
   11.4291  -21.2958   28.9777 C   0  0  0  0  0  0  0  0  0  0  0  0
   11.0409  -20.1396   29.8314 C   0  0  2  0  0  0  0  0  0  0  0  0
   11.0567  -18.9620   28.9387 N   0  0  0  0  0  0  0  0  0  0  0  0
   12.0991  -19.8788   30.8312 C   0  0  0  0  0  0  0  0  0  0  0  0
   12.9720  -18.9754   30.6930 O   0  0  0  0  0  0  0  0  0  0  0  0
   12.1754  -20.6268   31.9788 O   0  0  0  0  0  0  0  0  0  0  0  0
  2  1  1  0
  2  3  1  0
  3 10  1  0
  4  3  2  0
  6  5  1  0
  6  7  2  0
  8  6  1  0
  9  8  1  1
  9 11  1  0
 10  9  1  0
 11 21  1  0
 11 12  2  0
 13 14  1  0
 14 16  1  0
 15 14  2  0
 16 17  1  0
 17 18  1  0
 18 19  1  0
 20 19  1  6
 21 20  1  0
 22 20  1  0
 22 24  1  0
 23 22  2  0
M  END
$$$$
