GNR.pdb
     RDKit          3D

 24 23  0  0  1  0  0  0  0  0999 V2000
   10.6714  -17.2444   16.6098 N   0  0  0  0  0  0  0  0  0  0  0  0
    9.3632  -17.1687   17.2066 C   0  0  0  0  0  0  0  0  0  0  0  0
    9.4221  -17.3564   18.6864 C   0  0  0  0  0  0  0  0  0  0  0  0
    8.3683  -17.2016   19.3335 O   0  0  0  0  0  0  0  0  0  0  0  0
   12.6641  -20.8969   19.8872 N   0  0  0  0  0  0  0  0  0  0  0  0
   11.6421  -20.3205   20.6796 C   0  0  0  0  0  0  0  0  0  0  0  0
   10.6588  -21.0419   20.9728 O   0  0  0  0  0  0  0  0  0  0  0  0
   11.8055  -18.9157   21.1035 C   0  0  0  0  0  0  0  0  0  0  0  0
   10.6094  -18.0667   20.7247 C   0  0  2  0  0  0  0  0  0  0  0  0
   10.6335  -17.7000   19.3431 N   0  0  0  0  0  0  0  0  0  0  0  0
   10.6364  -16.8704   21.6073 C   0  0  0  0  0  0  0  0  0  0  0  0
   11.5923  -16.0693   21.4922 O   0  0  0  0  0  0  0  0  0  0  0  0
    9.7275  -12.8257   19.4824 N   0  0  0  0  0  0  0  0  0  0  0  0
    8.4024  -13.1569   19.0639 C   0  0  0  0  0  0  0  0  0  0  0  0
    8.1301  -13.3451   17.8116 N   0  0  0  0  0  0  0  0  0  0  0  0
    7.3312  -13.2948   19.9853 N   0  0  0  0  0  0  0  0  0  0  0  0
    7.4400  -14.2847   21.0673 C   0  0  0  0  0  0  0  0  0  0  0  0
    8.1924  -13.6955   22.2458 C   0  0  0  0  0  0  0  0  0  0  0  0
    8.2906  -14.7984   23.2658 C   0  0  0  0  0  0  0  0  0  0  0  0
    9.6434  -15.4023   23.4112 C   0  0  2  0  0  0  0  0  0  0  0  0
    9.6348  -16.6093   22.5584 N   0  0  0  0  0  0  0  0  0  0  0  0
    9.8203  -15.9068   24.7902 C   0  0  0  0  0  0  0  0  0  0  0  0
    9.6169  -17.1108   25.1164 O   0  0  0  0  0  0  0  0  0  0  0  0
   10.2241  -15.0650   25.7955 O   0  0  0  0  0  0  0  0  0  0  0  0
  2  1  1  0
  2  3  1  0
  3 10  1  0
  4  3  2  0
  6  5  1  0
  6  7  2  0
  8  6  1  0
  9  8  1  1
  9 11  1  0
 10  9  1  0
 11 21  1  0
 11 12  2  0
 13 14  1  0
 14 16  1  0
 15 14  2  0
 16 17  1  0
 17 18  1  0
 18 19  1  0
 20 19  1  1
 21 20  1  0
 22 20  1  0
 22 24  1  0
 23 22  2  0
M  END
$$$$
