EYD.pdb
     RDKit          3D

 30 30  0  0  1  0  0  0  0  0999 V2000
    7.6142  -12.7293   19.5185 N   0  0  0  0  0  0  0  0  0  0  0  0
    7.2220  -13.9646   20.2155 C   0  0  1  0  0  0  0  0  0  0  0  0
    7.4727  -15.1274   19.2956 C   0  0  0  0  0  0  0  0  0  0  0  0
    7.2870  -14.7810   17.8557 C   0  0  0  0  0  0  0  0  0  0  0  0
    7.5089  -16.0370   17.0487 C   0  0  0  0  0  0  0  0  0  0  0  0
    8.2063  -16.0361   16.0091 O   0  0  0  0  0  0  0  0  0  0  0  0
    8.0456  -14.0309   21.4406 C   0  0  0  0  0  0  0  0  0  0  0  0
    9.3067  -13.8259   21.4435 O   0  0  0  0  0  0  0  0  0  0  0  0
    6.8879  -17.1887   17.5383 O   0  0  0  0  0  0  0  0  0  0  0  0
   10.3364  -14.7235   29.9813 O   0  0  0  0  0  0  0  0  0  0  0  0
    9.6360  -14.5813   28.7807 C   0  0  0  0  0  0  0  0  0  0  0  0
    9.6483  -13.4096   28.0868 C   0  0  0  0  0  0  0  0  0  0  0  0
    8.9472  -13.2699   26.8865 C   0  0  0  0  0  0  0  0  0  0  0  0
    8.2216  -14.3171   26.3699 C   0  0  0  0  0  0  0  0  0  0  0  0
    7.4697  -14.1953   25.0998 C   0  0  0  0  0  0  0  0  0  0  0  0
    8.3403  -14.4795   23.8978 C   0  0  2  0  0  0  0  0  0  0  0  0
    7.5049  -14.3293   22.7253 N   0  0  0  0  0  0  0  0  0  0  0  0
    8.8971  -15.8323   23.8974 C   0  0  0  0  0  0  0  0  0  0  0  0
    8.1742  -16.8084   23.6001 O   0  0  0  0  0  0  0  0  0  0  0  0
    8.2109  -15.4995   27.0729 C   0  0  0  0  0  0  0  0  0  0  0  0
    8.9120  -15.6409   28.2741 C   0  0  0  0  0  0  0  0  0  0  0  0
   10.2526  -16.1352   24.2224 N   0  0  0  0  0  0  0  0  0  0  0  0
   10.8143  -17.4375   24.2773 C   0  0  1  0  0  0  0  0  0  0  0  0
   11.7791  -17.7528   23.1718 C   0  0  0  0  0  0  0  0  0  0  0  0
   12.8653  -16.7674   23.0537 C   0  0  0  0  0  0  0  0  0  0  0  0
   12.7525  -15.6433   22.4990 O   0  0  0  0  0  0  0  0  0  0  0  0
   11.4352  -17.6999   25.5937 C   0  0  0  0  0  0  0  0  0  0  0  0
   11.5044  -16.7048   26.5518 O   0  0  0  0  0  0  0  0  0  0  0  0
   14.1008  -17.0961   23.5895 O   0  0  0  0  0  0  0  0  0  0  0  0
   11.9127  -18.8234   25.8760 O   0  0  0  0  0  0  0  0  0  0  0  0
  2  1  1  6
  2  3  1  0
  3  4  1  0
  4  5  1  0
  5  9  1  0
  6  5  2  0
  7  2  1  0
  8  7  2  0
 10 11  1  0
 11 12  2  0
 12 13  1  0
 14 15  1  0
 14 13  2  0
 16 15  1  1
 16 18  1  0
 16 17  1  0
 17  7  1  0
 18 19  2  0
 20 14  1  0
 21 20  2  0
 21 11  1  0
 22 23  1  0
 22 18  1  0
 24 25  1  0
 23 24  1  6
 25 29  1  0
 26 25  2  0
 27 28  1  0
 27 23  1  0
 30 27  2  0
M  END
$$$$
