EYD.pdb
     RDKit          3D

 30 30  0  0  1  0  0  0  0  0999 V2000
    7.5981  -14.3296   19.2072 N   0  0  0  0  0  0  0  0  0  0  0  0
    7.3833  -15.4166   20.1757 C   0  0  1  0  0  0  0  0  0  0  0  0
    7.9119  -16.6925   19.5806 C   0  0  0  0  0  0  0  0  0  0  0  0
    6.9746  -17.3070   18.5949 C   0  0  0  0  0  0  0  0  0  0  0  0
    7.5739  -18.6178   18.1468 C   0  0  0  0  0  0  0  0  0  0  0  0
    7.2491  -19.7047   18.6763 O   0  0  0  0  0  0  0  0  0  0  0  0
    8.1071  -15.0288   21.4043 C   0  0  0  0  0  0  0  0  0  0  0  0
    9.2916  -14.5501   21.3926 O   0  0  0  0  0  0  0  0  0  0  0  0
    8.5067  -18.5339   17.1102 O   0  0  0  0  0  0  0  0  0  0  0  0
    9.7629  -13.6891   30.0323 O   0  0  0  0  0  0  0  0  0  0  0  0
    9.1531  -13.8744   28.7890 C   0  0  0  0  0  0  0  0  0  0  0  0
    8.7679  -12.8164   28.0231 C   0  0  0  0  0  0  0  0  0  0  0  0
    8.1583  -13.0043   26.7801 C   0  0  0  0  0  0  0  0  0  0  0  0
    7.9292  -14.2695   26.2934 C   0  0  0  0  0  0  0  0  0  0  0  0
    7.2849  -14.4963   24.9793 C   0  0  0  0  0  0  0  0  0  0  0  0
    8.2942  -14.8269   23.9042 C   0  0  2  0  0  0  0  0  0  0  0  0
    7.5467  -15.1550   22.7088 N   0  0  0  0  0  0  0  0  0  0  0  0
    9.1445  -15.9677   24.2444 C   0  0  0  0  0  0  0  0  0  0  0  0
    8.7381  -17.1339   24.0479 O   0  0  0  0  0  0  0  0  0  0  0  0
    8.3193  -15.3364   27.0692 C   0  0  0  0  0  0  0  0  0  0  0  0
    8.9294  -15.1500   28.3131 C   0  0  0  0  0  0  0  0  0  0  0  0
   10.4510  -15.8476   24.8041 N   0  0  0  0  0  0  0  0  0  0  0  0
   11.4059  -16.8935   24.8962 C   0  0  1  0  0  0  0  0  0  0  0  0
   12.7307  -16.5931   24.2580 C   0  0  0  0  0  0  0  0  0  0  0  0
   13.1957  -17.6621   23.3605 C   0  0  0  0  0  0  0  0  0  0  0  0
   12.5997  -18.7566   23.1845 O   0  0  0  0  0  0  0  0  0  0  0  0
   11.5955  -17.3263   26.2977 C   0  0  0  0  0  0  0  0  0  0  0  0
   11.5842  -18.6692   26.6288 O   0  0  0  0  0  0  0  0  0  0  0  0
   14.3723  -17.4532   22.6577 O   0  0  0  0  0  0  0  0  0  0  0  0
   11.7705  -16.4943   27.2181 O   0  0  0  0  0  0  0  0  0  0  0  0
  2  1  1  6
  2  3  1  0
  3  4  1  0
  4  5  1  0
  5  9  1  0
  6  5  2  0
  7  2  1  0
  8  7  2  0
 10 11  1  0
 11 12  2  0
 12 13  1  0
 14 15  1  0
 14 13  2  0
 16 15  1  1
 16 18  1  0
 16 17  1  0
 17  7  1  0
 18 19  2  0
 20 14  1  0
 21 20  2  0
 21 11  1  0
 22 23  1  0
 22 18  1  0
 24 25  1  0
 23 24  1  1
 25 29  1  0
 26 25  2  0
 27 28  1  0
 27 23  1  0
 30 27  2  0
M  END
$$$$
