EYD.pdb
     RDKit          3D

 30 30  0  0  1  0  0  0  0  0999 V2000
    8.6401  -15.9554   17.9490 N   0  0  0  0  0  0  0  0  0  0  0  0
    7.9551  -16.5903   19.0863 C   0  0  1  0  0  0  0  0  0  0  0  0
    8.3662  -18.0358   19.1399 C   0  0  0  0  0  0  0  0  0  0  0  0
    7.9977  -18.7918   17.9068 C   0  0  0  0  0  0  0  0  0  0  0  0
    7.4674  -20.1384   18.3349 C   0  0  0  0  0  0  0  0  0  0  0  0
    8.2122  -21.1408   18.4230 O   0  0  0  0  0  0  0  0  0  0  0  0
    8.3707  -15.8439   20.2921 C   0  0  0  0  0  0  0  0  0  0  0  0
    9.5942  -15.6753   20.6191 O   0  0  0  0  0  0  0  0  0  0  0  0
    6.1012  -20.1874   18.6230 O   0  0  0  0  0  0  0  0  0  0  0  0
    7.6022  -12.2194   28.3763 O   0  0  0  0  0  0  0  0  0  0  0  0
    7.3731  -12.6529   27.0680 C   0  0  0  0  0  0  0  0  0  0  0  0
    7.8693  -11.9722   25.9980 C   0  0  0  0  0  0  0  0  0  0  0  0
    7.6388  -12.4077   24.6907 C   0  0  0  0  0  0  0  0  0  0  0  0
    6.9006  -13.5416   24.4471 C   0  0  0  0  0  0  0  0  0  0  0  0
    6.6416  -14.0247   23.0713 C   0  0  0  0  0  0  0  0  0  0  0  0
    7.8503  -14.7082   22.4750 C   0  0  2  0  0  0  0  0  0  0  0  0
    7.4429  -15.2475   21.1950 N   0  0  0  0  0  0  0  0  0  0  0  0
    8.3551  -15.8066   23.2989 C   0  0  0  0  0  0  0  0  0  0  0  0
    7.8374  -16.9420   23.2167 O   0  0  0  0  0  0  0  0  0  0  0  0
    6.4005  -14.2273   25.5297 C   0  0  0  0  0  0  0  0  0  0  0  0
    6.6303  -13.7928   26.8385 C   0  0  0  0  0  0  0  0  0  0  0  0
    9.4332  -15.6774   24.2239 N   0  0  0  0  0  0  0  0  0  0  0  0
   10.2286  -16.7454   24.7148 C   0  0  1  0  0  0  0  0  0  0  0  0
   11.6324  -16.7786   24.1851 C   0  0  0  0  0  0  0  0  0  0  0  0
   12.4329  -17.8825   24.7377 C   0  0  0  0  0  0  0  0  0  0  0  0
   12.0144  -19.0589   24.8955 O   0  0  0  0  0  0  0  0  0  0  0  0
   10.2349  -16.7752   26.1935 C   0  0  0  0  0  0  0  0  0  0  0  0
    9.6084  -15.7800   26.9216 O   0  0  0  0  0  0  0  0  0  0  0  0
   13.7401  -17.6121   25.1120 O   0  0  0  0  0  0  0  0  0  0  0  0
   10.8042  -17.6964   26.8237 O   0  0  0  0  0  0  0  0  0  0  0  0
  2  1  1  6
  2  3  1  0
  3  4  1  0
  4  5  1  0
  5  9  1  0
  6  5  2  0
  7  2  1  0
  8  7  2  0
 10 11  1  0
 11 12  2  0
 12 13  1  0
 14 15  1  0
 14 13  2  0
 16 15  1  1
 16 18  1  0
 16 17  1  0
 17  7  1  0
 18 19  2  0
 20 14  1  0
 21 20  2  0
 21 11  1  0
 22 23  1  0
 22 18  1  0
 24 25  1  0
 23 24  1  1
 25 29  1  0
 26 25  2  0
 27 28  1  0
 27 23  1  0
 30 27  2  0
M  END
$$$$
