EYD.pdb
     RDKit          3D

 30 30  0  0  1  0  0  0  0  0999 V2000
    8.9507  -18.5061   18.8062 N   0  0  0  0  0  0  0  0  0  0  0  0
   10.4133  -18.3512   18.8556 C   0  0  1  0  0  0  0  0  0  0  0  0
   10.8544  -17.6226   17.6162 C   0  0  0  0  0  0  0  0  0  0  0  0
   10.1541  -18.0923   16.3847 C   0  0  0  0  0  0  0  0  0  0  0  0
   10.9115  -17.5580   15.1935 C   0  0  0  0  0  0  0  0  0  0  0  0
   12.1627  -17.5211   15.1722 O   0  0  0  0  0  0  0  0  0  0  0  0
   10.7103  -17.5919   20.0881 C   0  0  0  0  0  0  0  0  0  0  0  0
   11.8752  -17.1486   20.3689 O   0  0  0  0  0  0  0  0  0  0  0  0
   10.1265  -17.1121   14.1273 O   0  0  0  0  0  0  0  0  0  0  0  0
    7.5304  -12.1416   18.2367 O   0  0  0  0  0  0  0  0  0  0  0  0
    7.8530  -12.9988   19.2918 C   0  0  0  0  0  0  0  0  0  0  0  0
    9.0659  -12.9400   19.9081 C   0  0  0  0  0  0  0  0  0  0  0  0
    9.3860  -13.7983   20.9629 C   0  0  0  0  0  0  0  0  0  0  0  0
    8.4805  -14.7310   21.4103 C   0  0  0  0  0  0  0  0  0  0  0  0
    8.7946  -15.6524   22.5263 C   0  0  0  0  0  0  0  0  0  0  0  0
   10.0199  -16.4895   22.2407 C   0  0  2  0  0  0  0  0  0  0  0  0
    9.7232  -17.2883   21.0705 N   0  0  0  0  0  0  0  0  0  0  0  0
   10.3695  -17.3912   23.3383 C   0  0  0  0  0  0  0  0  0  0  0  0
    9.5335  -18.2200   23.7601 O   0  0  0  0  0  0  0  0  0  0  0  0
    7.2560  -14.7882   20.7859 C   0  0  0  0  0  0  0  0  0  0  0  0
    6.9342  -13.9301   19.7302 C   0  0  0  0  0  0  0  0  0  0  0  0
   11.6387  -17.3980   23.9892 N   0  0  0  0  0  0  0  0  0  0  0  0
   12.0055  -18.2439   25.0682 C   0  0  1  0  0  0  0  0  0  0  0  0
   13.4763  -18.2828   25.3645 C   0  0  0  0  0  0  0  0  0  0  0  0
   13.8220  -19.2072   26.4557 C   0  0  0  0  0  0  0  0  0  0  0  0
   13.1284  -20.2002   26.7972 O   0  0  0  0  0  0  0  0  0  0  0  0
   11.2419  -17.9162   26.2917 C   0  0  0  0  0  0  0  0  0  0  0  0
   11.3877  -16.6854   26.9055 O   0  0  0  0  0  0  0  0  0  0  0  0
   14.9929  -18.9713   27.1593 O   0  0  0  0  0  0  0  0  0  0  0  0
   10.4469  -18.7388   26.8029 O   0  0  0  0  0  0  0  0  0  0  0  0
  2  1  1  6
  2  3  1  0
  3  4  1  0
  4  5  1  0
  5  9  1  0
  6  5  2  0
  7  2  1  0
  8  7  2  0
 10 11  1  0
 11 12  2  0
 12 13  1  0
 14 15  1  0
 14 13  2  0
 16 15  1  1
 16 18  1  0
 16 17  1  0
 17  7  1  0
 18 19  2  0
 20 14  1  0
 21 20  2  0
 21 11  1  0
 22 23  1  0
 22 18  1  0
 24 25  1  0
 23 24  1  1
 25 29  1  0
 26 25  2  0
 27 28  1  0
 27 23  1  0
 30 27  2  0
M  END
$$$$
