EYD.pdb
     RDKit          3D

 30 30  0  0  1  0  0  0  0  0999 V2000
    8.2749  -15.2869   19.0717 N   0  0  0  0  0  0  0  0  0  0  0  0
    7.6040  -15.8999   20.2292 C   0  0  1  0  0  0  0  0  0  0  0  0
    7.5540  -17.3874   20.0145 C   0  0  0  0  0  0  0  0  0  0  0  0
    7.9400  -17.7889   18.6298 C   0  0  0  0  0  0  0  0  0  0  0  0
    7.2647  -19.1044   18.3277 C   0  0  0  0  0  0  0  0  0  0  0  0
    7.1305  -19.9908   19.2016 O   0  0  0  0  0  0  0  0  0  0  0  0
    8.4024  -15.5311   21.4167 C   0  0  0  0  0  0  0  0  0  0  0  0
    9.6585  -15.3026   21.3674 O   0  0  0  0  0  0  0  0  0  0  0  0
    6.8044  -19.2620   17.0181 O   0  0  0  0  0  0  0  0  0  0  0  0
   10.3992  -13.8450   29.9177 O   0  0  0  0  0  0  0  0  0  0  0  0
    9.7347  -14.0700   28.7095 C   0  0  0  0  0  0  0  0  0  0  0  0
    9.4000  -15.3273   28.3074 C   0  0  0  0  0  0  0  0  0  0  0  0
    8.7355  -15.5497   27.0988 C   0  0  0  0  0  0  0  0  0  0  0  0
    8.3993  -14.4996   26.2775 C   0  0  0  0  0  0  0  0  0  0  0  0
    7.6950  -14.7079   24.9915 C   0  0  0  0  0  0  0  0  0  0  0  0
    8.6476  -15.0792   23.8787 C   0  0  2  0  0  0  0  0  0  0  0  0
    7.8408  -15.3984   22.7201 N   0  0  0  0  0  0  0  0  0  0  0  0
    9.4790  -16.2402   24.1962 C   0  0  0  0  0  0  0  0  0  0  0  0
    8.9930  -17.3915   24.1499 O   0  0  0  0  0  0  0  0  0  0  0  0
    8.7386  -13.2306   26.6861 C   0  0  0  0  0  0  0  0  0  0  0  0
    9.4035  -13.0065   27.8953 C   0  0  0  0  0  0  0  0  0  0  0  0
   10.8534  -16.1570   24.5688 N   0  0  0  0  0  0  0  0  0  0  0  0
   11.7366  -17.2594   24.7067 C   0  0  1  0  0  0  0  0  0  0  0  0
   13.1191  -17.0281   24.1702 C   0  0  0  0  0  0  0  0  0  0  0  0
   14.0017  -18.1951   24.3241 C   0  0  0  0  0  0  0  0  0  0  0  0
   13.6072  -19.3898   24.3551 O   0  0  0  0  0  0  0  0  0  0  0  0
   11.7994  -17.7256   26.1089 C   0  0  0  0  0  0  0  0  0  0  0  0
   11.6510  -16.8340   27.1559 O   0  0  0  0  0  0  0  0  0  0  0  0
   15.3639  -17.9671   24.4436 O   0  0  0  0  0  0  0  0  0  0  0  0
   11.9874  -18.9330   26.3858 O   0  0  0  0  0  0  0  0  0  0  0  0
  2  1  1  6
  2  3  1  0
  3  4  1  0
  4  5  1  0
  5  9  1  0
  6  5  2  0
  7  2  1  0
  8  7  2  0
 10 11  1  0
 11 12  2  0
 12 13  1  0
 14 15  1  0
 14 13  2  0
 16 15  1  1
 16 18  1  0
 16 17  1  0
 17  7  1  0
 18 19  2  0
 20 14  1  0
 21 20  2  0
 21 11  1  0
 22 23  1  0
 22 18  1  0
 24 25  1  0
 23 24  1  1
 25 29  1  0
 26 25  2  0
 27 28  1  0
 27 23  1  0
 30 27  2  0
M  END
$$$$
