EYD.pdb
     RDKit          3D

 30 30  0  0  1  0  0  0  0  0999 V2000
    7.7256  -12.8063   17.9473 N   0  0  0  0  0  0  0  0  0  0  0  0
    7.4664  -14.1015   18.5960 C   0  0  1  0  0  0  0  0  0  0  0  0
    8.1595  -15.1752   17.8035 C   0  0  0  0  0  0  0  0  0  0  0  0
    8.0204  -14.9916   16.3288 C   0  0  0  0  0  0  0  0  0  0  0  0
    8.6859  -16.1668   15.6548 C   0  0  0  0  0  0  0  0  0  0  0  0
    8.0204  -17.1055   15.1616 O   0  0  0  0  0  0  0  0  0  0  0  0
    7.9940  -13.9911   19.9720 C   0  0  0  0  0  0  0  0  0  0  0  0
    9.1666  -13.5574   20.2351 O   0  0  0  0  0  0  0  0  0  0  0  0
   10.0821  -16.1338   15.6202 O   0  0  0  0  0  0  0  0  0  0  0  0
    8.0715  -13.2595   28.7984 O   0  0  0  0  0  0  0  0  0  0  0  0
    7.6947  -13.4425   27.4655 C   0  0  0  0  0  0  0  0  0  0  0  0
    7.2457  -14.6463   27.0142 C   0  0  0  0  0  0  0  0  0  0  0  0
    6.8694  -14.8268   25.6809 C   0  0  0  0  0  0  0  0  0  0  0  0
    6.9424  -13.7884   24.7829 C   0  0  0  0  0  0  0  0  0  0  0  0
    6.5498  -13.9531   23.3644 C   0  0  0  0  0  0  0  0  0  0  0  0
    7.7466  -14.1728   22.4682 C   0  0  2  0  0  0  0  0  0  0  0  0
    7.2406  -14.3587   21.1248 N   0  0  0  0  0  0  0  0  0  0  0  0
    8.5302  -15.3528   22.8337 C   0  0  0  0  0  0  0  0  0  0  0  0
    8.1271  -16.4949   22.5223 O   0  0  0  0  0  0  0  0  0  0  0  0
    7.3963  -12.5735   25.2415 C   0  0  0  0  0  0  0  0  0  0  0  0
    7.7732  -12.3913   26.5753 C   0  0  0  0  0  0  0  0  0  0  0  0
    9.7656  -15.2989   23.5447 N   0  0  0  0  0  0  0  0  0  0  0  0
   10.6152  -16.4060   23.8031 C   0  0  1  0  0  0  0  0  0  0  0  0
   12.0710  -16.1567   23.5368 C   0  0  0  0  0  0  0  0  0  0  0  0
   12.9024  -17.3600   23.6967 C   0  0  0  0  0  0  0  0  0  0  0  0
   12.4729  -18.5404   23.6184 O   0  0  0  0  0  0  0  0  0  0  0  0
   10.4234  -16.9219   25.1758 C   0  0  0  0  0  0  0  0  0  0  0  0
    9.5970  -16.2627   26.0678 O   0  0  0  0  0  0  0  0  0  0  0  0
   14.2539  -17.1857   23.9515 O   0  0  0  0  0  0  0  0  0  0  0  0
   11.0002  -17.9632   25.5666 O   0  0  0  0  0  0  0  0  0  0  0  0
  2  1  1  6
  2  3  1  0
  3  4  1  0
  4  5  1  0
  5  9  1  0
  6  5  2  0
  7  2  1  0
  8  7  2  0
 10 11  1  0
 11 12  2  0
 12 13  1  0
 14 15  1  0
 14 13  2  0
 16 15  1  1
 16 18  1  0
 16 17  1  0
 17  7  1  0
 18 19  2  0
 20 14  1  0
 21 20  2  0
 21 11  1  0
 22 23  1  0
 22 18  1  0
 24 25  1  0
 23 24  1  1
 25 29  1  0
 26 25  2  0
 27 28  1  0
 27 23  1  0
 30 27  2  0
M  END
$$$$
