EYD.pdb
     RDKit          3D

 30 30  0  0  1  0  0  0  0  0999 V2000
    9.5363  -18.6441   20.6431 N   0  0  0  0  0  0  0  0  0  0  0  0
   10.7248  -17.8010   20.4377 C   0  0  1  0  0  0  0  0  0  0  0  0
   10.7496  -17.3595   19.0004 C   0  0  0  0  0  0  0  0  0  0  0  0
    9.6154  -17.9114   18.2024 C   0  0  0  0  0  0  0  0  0  0  0  0
    9.8173  -17.4928   16.7665 C   0  0  0  0  0  0  0  0  0  0  0  0
    8.9647  -16.8108   16.1540 O   0  0  0  0  0  0  0  0  0  0  0  0
   10.5947  -16.6632   21.3716 C   0  0  0  0  0  0  0  0  0  0  0  0
   11.4827  -15.7518   21.4864 O   0  0  0  0  0  0  0  0  0  0  0  0
   11.0103  -17.9154   16.1748 O   0  0  0  0  0  0  0  0  0  0  0  0
    6.9535  -12.9794   17.7392 O   0  0  0  0  0  0  0  0  0  0  0  0
    7.2158  -13.4157   19.0403 C   0  0  0  0  0  0  0  0  0  0  0  0
    7.9886  -12.6853   19.8911 C   0  0  0  0  0  0  0  0  0  0  0  0
    8.2494  -13.1237   21.1917 C   0  0  0  0  0  0  0  0  0  0  0  0
    7.7304  -14.3110   21.6510 C   0  0  0  0  0  0  0  0  0  0  0  0
    7.9915  -14.7984   23.0249 C   0  0  0  0  0  0  0  0  0  0  0  0
    9.3775  -15.3846   23.1631 C   0  0  2  0  0  0  0  0  0  0  0  0
    9.4675  -16.4836   22.2254 N   0  0  0  0  0  0  0  0  0  0  0  0
    9.6538  -15.8987   24.5045 C   0  0  0  0  0  0  0  0  0  0  0  0
    9.4418  -15.1821   25.5072 O   0  0  0  0  0  0  0  0  0  0  0  0
    6.9502  -15.0468   20.7895 C   0  0  0  0  0  0  0  0  0  0  0  0
    6.6882  -14.6095   19.4877 C   0  0  0  0  0  0  0  0  0  0  0  0
   10.1658  -17.2040   24.7668 N   0  0  0  0  0  0  0  0  0  0  0  0
   10.4897  -17.7183   26.0493 C   0  0  1  0  0  0  0  0  0  0  0  0
    9.7809  -18.9901   26.4138 C   0  0  0  0  0  0  0  0  0  0  0  0
   10.1593  -19.5033   27.7397 C   0  0  0  0  0  0  0  0  0  0  0  0
   10.9201  -18.9071   28.5458 O   0  0  0  0  0  0  0  0  0  0  0  0
   11.9511  -17.8784   26.2109 C   0  0  0  0  0  0  0  0  0  0  0  0
   12.5412  -17.7509   27.4553 O   0  0  0  0  0  0  0  0  0  0  0  0
    9.6440  -20.7289   28.1324 O   0  0  0  0  0  0  0  0  0  0  0  0
   12.6905  -18.1321   25.2317 O   0  0  0  0  0  0  0  0  0  0  0  0
  2  1  1  6
  2  3  1  0
  3  4  1  0
  4  5  1  0
  5  9  1  0
  6  5  2  0
  7  2  1  0
  8  7  2  0
 10 11  1  0
 11 12  2  0
 12 13  1  0
 14 15  1  0
 14 13  2  0
 16 15  1  1
 16 18  1  0
 16 17  1  0
 17  7  1  0
 18 19  2  0
 20 14  1  0
 21 20  2  0
 21 11  1  0
 22 23  1  0
 22 18  1  0
 24 25  1  0
 23 24  1  6
 25 29  1  0
 26 25  2  0
 27 28  1  0
 27 23  1  0
 30 27  2  0
M  END
$$$$
