EYD.pdb
     RDKit          3D

 30 30  0  0  1  0  0  0  0  0999 V2000
   11.8603  -16.8925   18.8985 N   0  0  0  0  0  0  0  0  0  0  0  0
   12.6963  -15.7701   19.3534 C   0  0  1  0  0  0  0  0  0  0  0  0
   12.7513  -14.7448   18.2548 C   0  0  0  0  0  0  0  0  0  0  0  0
   13.9342  -14.9132   17.3603 C   0  0  0  0  0  0  0  0  0  0  0  0
   13.5046  -15.7560   16.1842 C   0  0  0  0  0  0  0  0  0  0  0  0
   12.6616  -15.3461   15.3544 O   0  0  0  0  0  0  0  0  0  0  0  0
   12.0582  -15.2454   20.5787 C   0  0  0  0  0  0  0  0  0  0  0  0
   12.5434  -14.2769   21.2562 O   0  0  0  0  0  0  0  0  0  0  0  0
   14.1074  -17.0126   16.0876 O   0  0  0  0  0  0  0  0  0  0  0  0
    7.9345  -12.2653   17.1004 O   0  0  0  0  0  0  0  0  0  0  0  0
    8.1329  -12.9632   18.2944 C   0  0  0  0  0  0  0  0  0  0  0  0
    8.0010  -14.3172   18.3549 C   0  0  0  0  0  0  0  0  0  0  0  0
    8.1999  -15.0128   19.5500 C   0  0  0  0  0  0  0  0  0  0  0  0
    8.5361  -14.3460   20.7043 C   0  0  0  0  0  0  0  0  0  0  0  0
    8.7524  -15.0592   21.9840 C   0  0  0  0  0  0  0  0  0  0  0  0
   10.2214  -15.2270   22.2966 C   0  0  2  0  0  0  0  0  0  0  0  0
   10.8463  -15.7741   21.1111 N   0  0  0  0  0  0  0  0  0  0  0  0
   10.4717  -16.1388   23.4129 C   0  0  0  0  0  0  0  0  0  0  0  0
    9.8054  -16.0388   24.4664 O   0  0  0  0  0  0  0  0  0  0  0  0
    8.6686  -12.9782   20.6403 C   0  0  0  0  0  0  0  0  0  0  0  0
    8.4699  -12.2807   19.4452 C   0  0  0  0  0  0  0  0  0  0  0  0
   11.4546  -17.1723   23.3913 N   0  0  0  0  0  0  0  0  0  0  0  0
   11.7207  -18.0769   24.4521 C   0  0  1  0  0  0  0  0  0  0  0  0
   11.9103  -19.5041   24.0283 C   0  0  0  0  0  0  0  0  0  0  0  0
   10.7849  -20.0270   23.2379 C   0  0  0  0  0  0  0  0  0  0  0  0
    9.7194  -19.3974   23.0092 O   0  0  0  0  0  0  0  0  0  0  0  0
   12.8680  -17.6251   25.2687 C   0  0  0  0  0  0  0  0  0  0  0  0
   13.6690  -16.5810   24.8428 O   0  0  0  0  0  0  0  0  0  0  0  0
   10.9024  -21.3018   22.7061 O   0  0  0  0  0  0  0  0  0  0  0  0
   13.1447  -18.1716   26.3616 O   0  0  0  0  0  0  0  0  0  0  0  0
  2  1  1  6
  2  3  1  0
  3  4  1  0
  4  5  1  0
  5  9  1  0
  6  5  2  0
  7  2  1  0
  8  7  2  0
 10 11  1  0
 11 12  2  0
 12 13  1  0
 14 15  1  0
 14 13  2  0
 16 15  1  6
 16 18  1  0
 16 17  1  0
 17  7  1  0
 18 19  2  0
 20 14  1  0
 21 20  2  0
 21 11  1  0
 22 23  1  0
 22 18  1  0
 24 25  1  0
 23 24  1  6
 25 29  1  0
 26 25  2  0
 27 28  1  0
 27 23  1  0
 30 27  2  0
M  END
$$$$
