EYD.pdb
     RDKit          3D

 30 30  0  0  1  0  0  0  0  0999 V2000
    9.4418  -18.1295   20.6526 N   0  0  0  0  0  0  0  0  0  0  0  0
   10.7511  -17.5365   20.9681 C   0  0  1  0  0  0  0  0  0  0  0  0
   11.3538  -17.0136   19.6935 C   0  0  0  0  0  0  0  0  0  0  0  0
   10.9814  -17.8255   18.4977 C   0  0  0  0  0  0  0  0  0  0  0  0
   12.2313  -18.0369   17.6786 C   0  0  0  0  0  0  0  0  0  0  0  0
   12.6040  -17.2049   16.8206 O   0  0  0  0  0  0  0  0  0  0  0  0
   10.4959  -16.4620   21.9500 C   0  0  0  0  0  0  0  0  0  0  0  0
   11.4074  -15.6703   22.3682 O   0  0  0  0  0  0  0  0  0  0  0  0
   12.9360  -19.2141   17.9422 O   0  0  0  0  0  0  0  0  0  0  0  0
    6.1568  -11.2360   27.6821 O   0  0  0  0  0  0  0  0  0  0  0  0
    6.5089  -12.1019   26.6437 C   0  0  0  0  0  0  0  0  0  0  0  0
    7.2964  -11.6893   25.6121 C   0  0  0  0  0  0  0  0  0  0  0  0
    7.6471  -12.5571   24.5749 C   0  0  0  0  0  0  0  0  0  0  0  0
    7.2044  -13.8586   24.5670 C   0  0  0  0  0  0  0  0  0  0  0  0
    7.5615  -14.7987   23.4798 C   0  0  0  0  0  0  0  0  0  0  0  0
    9.0045  -15.2393   23.5643 C   0  0  2  0  0  0  0  0  0  0  0  0
    9.2110  -16.2153   22.5155 N   0  0  0  0  0  0  0  0  0  0  0  0
    9.3427  -15.8597   24.8452 C   0  0  0  0  0  0  0  0  0  0  0  0
    9.2215  -15.2117   25.9079 O   0  0  0  0  0  0  0  0  0  0  0  0
    6.4091  -14.2728   25.6102 C   0  0  0  0  0  0  0  0  0  0  0  0
    6.0573  -13.4057   26.6488 C   0  0  0  0  0  0  0  0  0  0  0  0
    9.8182  -17.1977   24.9806 N   0  0  0  0  0  0  0  0  0  0  0  0
   10.1380  -17.8372   26.2066 C   0  0  1  0  0  0  0  0  0  0  0  0
    9.5887  -19.2262   26.3530 C   0  0  0  0  0  0  0  0  0  0  0  0
   10.0384  -19.8993   27.5816 C   0  0  0  0  0  0  0  0  0  0  0  0
   10.9902  -20.7208   27.6384 O   0  0  0  0  0  0  0  0  0  0  0  0
   11.5966  -17.8315   26.4513 C   0  0  0  0  0  0  0  0  0  0  0  0
   12.4890  -17.8748   25.3954 O   0  0  0  0  0  0  0  0  0  0  0  0
    9.3696  -19.6112   28.7612 O   0  0  0  0  0  0  0  0  0  0  0  0
   12.0616  -17.7875   27.6139 O   0  0  0  0  0  0  0  0  0  0  0  0
  2  1  1  6
  2  3  1  0
  3  4  1  0
  4  5  1  0
  5  9  1  0
  6  5  2  0
  7  2  1  0
  8  7  2  0
 10 11  1  0
 11 12  2  0
 12 13  1  0
 14 15  1  0
 14 13  2  0
 16 15  1  1
 16 18  1  0
 16 17  1  0
 17  7  1  0
 18 19  2  0
 20 14  1  0
 21 20  2  0
 21 11  1  0
 22 23  1  0
 22 18  1  0
 24 25  1  0
 23 24  1  6
 25 29  1  0
 26 25  2  0
 27 28  1  0
 27 23  1  0
 30 27  2  0
M  END
$$$$
