EYD.pdb
     RDKit          3D

 30 30  0  0  1  0  0  0  0  0999 V2000
    9.9108  -15.8147   19.7186 N   0  0  0  0  0  0  0  0  0  0  0  0
    9.4799  -16.8785   20.6397 C   0  0  1  0  0  0  0  0  0  0  0  0
    9.8985  -18.2027   20.0628 C   0  0  0  0  0  0  0  0  0  0  0  0
   10.0188  -18.1775   18.5753 C   0  0  0  0  0  0  0  0  0  0  0  0
   10.2558  -19.5935   18.1096 C   0  0  0  0  0  0  0  0  0  0  0  0
   11.1676  -20.3013   18.5942 O   0  0  0  0  0  0  0  0  0  0  0  0
   10.1347  -16.5987   21.9346 C   0  0  0  0  0  0  0  0  0  0  0  0
   11.3624  -16.8663   22.1659 O   0  0  0  0  0  0  0  0  0  0  0  0
    9.3951  -20.0541   17.1102 O   0  0  0  0  0  0  0  0  0  0  0  0
   10.8516  -14.4313   30.5398 O   0  0  0  0  0  0  0  0  0  0  0  0
   10.4622  -14.5334   29.2019 C   0  0  0  0  0  0  0  0  0  0  0  0
   11.3108  -14.2039   28.1890 C   0  0  0  0  0  0  0  0  0  0  0  0
   10.9191  -14.3068   26.8520 C   0  0  0  0  0  0  0  0  0  0  0  0
    9.6593  -14.7460   26.5200 C   0  0  0  0  0  0  0  0  0  0  0  0
    9.2191  -14.8642   25.1109 C   0  0  0  0  0  0  0  0  0  0  0  0
   10.0881  -15.8187   24.3252 C   0  0  2  0  0  0  0  0  0  0  0  0
    9.4537  -16.0062   23.0377 N   0  0  0  0  0  0  0  0  0  0  0  0
   10.2302  -17.1268   24.9645 C   0  0  0  0  0  0  0  0  0  0  0  0
    9.3126  -17.9717   24.8757 O   0  0  0  0  0  0  0  0  0  0  0  0
    8.8042  -15.0781   27.5451 C   0  0  0  0  0  0  0  0  0  0  0  0
    9.1946  -14.9757   28.8836 C   0  0  0  0  0  0  0  0  0  0  0  0
   11.3785  -17.5279   25.7096 N   0  0  0  0  0  0  0  0  0  0  0  0
   11.5679  -18.8013   26.3072 C   0  0  1  0  0  0  0  0  0  0  0  0
   12.8030  -19.5276   25.8607 C   0  0  0  0  0  0  0  0  0  0  0  0
   12.5211  -20.8610   25.3064 C   0  0  0  0  0  0  0  0  0  0  0  0
   11.3784  -21.3859   25.2546 O   0  0  0  0  0  0  0  0  0  0  0  0
   11.5266  -18.7139   27.7830 C   0  0  0  0  0  0  0  0  0  0  0  0
   10.9192  -19.7058   28.5315 O   0  0  0  0  0  0  0  0  0  0  0  0
   13.5858  -21.5936   24.8050 O   0  0  0  0  0  0  0  0  0  0  0  0
   12.0372  -17.7455   28.3924 O   0  0  0  0  0  0  0  0  0  0  0  0
  2  1  1  6
  2  3  1  0
  3  4  1  0
  4  5  1  0
  5  9  1  0
  6  5  2  0
  7  2  1  0
  8  7  2  0
 10 11  1  0
 11 12  2  0
 12 13  1  0
 14 15  1  0
 14 13  2  0
 16 15  1  1
 16 18  1  0
 16 17  1  0
 17  7  1  0
 18 19  2  0
 20 14  1  0
 21 20  2  0
 21 11  1  0
 22 23  1  0
 22 18  1  0
 24 25  1  0
 23 24  1  1
 25 29  1  0
 26 25  2  0
 27 28  1  0
 27 23  1  0
 30 27  2  0
M  END
$$$$
