EYD.pdb
     RDKit          3D

 30 30  0  0  1  0  0  0  0  0999 V2000
    8.3291  -13.1508   19.3076 N   0  0  0  0  0  0  0  0  0  0  0  0
    7.5724  -14.1648   20.0591 C   0  0  1  0  0  0  0  0  0  0  0  0
    7.5631  -15.4381   19.2591 C   0  0  0  0  0  0  0  0  0  0  0  0
    8.6613  -15.4996   18.2502 C   0  0  0  0  0  0  0  0  0  0  0  0
    8.5465  -16.8189   17.5261 C   0  0  0  0  0  0  0  0  0  0  0  0
    7.9512  -16.9176   16.4293 O   0  0  0  0  0  0  0  0  0  0  0  0
    8.2624  -14.3226   21.3564 C   0  0  0  0  0  0  0  0  0  0  0  0
    9.4196  -13.8355   21.5931 O   0  0  0  0  0  0  0  0  0  0  0  0
    9.1452  -17.9110   18.1592 O   0  0  0  0  0  0  0  0  0  0  0  0
    6.2023   -9.8635   27.1018 O   0  0  0  0  0  0  0  0  0  0  0  0
    6.4046  -11.1220   26.5296 C   0  0  0  0  0  0  0  0  0  0  0  0
    5.5473  -12.1538   26.7639 C   0  0  0  0  0  0  0  0  0  0  0  0
    5.7517  -13.4113   26.1906 C   0  0  0  0  0  0  0  0  0  0  0  0
    6.8298  -13.6431   25.3696 C   0  0  0  0  0  0  0  0  0  0  0  0
    7.0694  -14.9664   24.7494 C   0  0  0  0  0  0  0  0  0  0  0  0
    8.2404  -14.9396   23.7945 C   0  0  2  0  0  0  0  0  0  0  0  0
    7.6970  -15.0317   22.4560 N   0  0  0  0  0  0  0  0  0  0  0  0
    9.1700  -16.0517   23.9926 C   0  0  0  0  0  0  0  0  0  0  0  0
    9.6591  -16.2669   25.1232 O   0  0  0  0  0  0  0  0  0  0  0  0
    7.6942  -12.5990   25.1346 C   0  0  0  0  0  0  0  0  0  0  0  0
    7.4910  -11.3401   25.7076 C   0  0  0  0  0  0  0  0  0  0  0  0
    9.5769  -16.9432   22.9562 N   0  0  0  0  0  0  0  0  0  0  0  0
   10.8892  -17.4539   22.7783 C   0  0  1  0  0  0  0  0  0  0  0  0
   11.8126  -16.5586   22.0048 C   0  0  0  0  0  0  0  0  0  0  0  0
   13.1373  -17.1555   21.7736 C   0  0  0  0  0  0  0  0  0  0  0  0
   13.8678  -16.9092   20.7788 O   0  0  0  0  0  0  0  0  0  0  0  0
   11.4996  -17.8296   24.0720 C   0  0  0  0  0  0  0  0  0  0  0  0
   11.7184  -19.1580   24.3892 O   0  0  0  0  0  0  0  0  0  0  0  0
   13.6182  -18.0522   22.7151 O   0  0  0  0  0  0  0  0  0  0  0  0
   11.8333  -16.9611   24.9112 O   0  0  0  0  0  0  0  0  0  0  0  0
  2  1  1  6
  2  3  1  0
  3  4  1  0
  4  5  1  0
  5  9  1  0
  6  5  2  0
  7  2  1  0
  8  7  2  0
 10 11  1  0
 11 12  2  0
 12 13  1  0
 14 15  1  0
 14 13  2  0
 16 15  1  1
 16 18  1  0
 16 17  1  0
 17  7  1  0
 18 19  2  0
 20 14  1  0
 21 20  2  0
 21 11  1  0
 22 23  1  0
 22 18  1  0
 24 25  1  0
 23 24  1  1
 25 29  1  0
 26 25  2  0
 27 28  1  0
 27 23  1  0
 30 27  2  0
M  END
$$$$
