EYD.pdb
     RDKit          3D

 30 30  0  0  1  0  0  0  0  0999 V2000
    9.0735  -18.0804   20.6614 N   0  0  0  0  0  0  0  0  0  0  0  0
   10.3748  -17.5859   21.1385 C   0  0  1  0  0  0  0  0  0  0  0  0
   11.1192  -17.0060   19.9676 C   0  0  0  0  0  0  0  0  0  0  0  0
   10.3974  -17.1836   18.6733 C   0  0  0  0  0  0  0  0  0  0  0  0
   11.3764  -17.7532   17.6757 C   0  0  0  0  0  0  0  0  0  0  0  0
   12.3057  -17.0632   17.1987 O   0  0  0  0  0  0  0  0  0  0  0  0
   10.0813  -16.5730   22.1738 C   0  0  0  0  0  0  0  0  0  0  0  0
   10.9699  -15.7903   22.6535 O   0  0  0  0  0  0  0  0  0  0  0  0
   11.1748  -19.0905   17.3256 O   0  0  0  0  0  0  0  0  0  0  0  0
    7.6814  -12.6029   18.0339 O   0  0  0  0  0  0  0  0  0  0  0  0
    7.5714  -13.1162   19.3287 C   0  0  0  0  0  0  0  0  0  0  0  0
    6.8952  -14.2716   19.5787 C   0  0  0  0  0  0  0  0  0  0  0  0
    6.7867  -14.7828   20.8743 C   0  0  0  0  0  0  0  0  0  0  0  0
    7.3626  -14.1301   21.9384 C   0  0  0  0  0  0  0  0  0  0  0  0
    7.2624  -14.6505   23.3213 C   0  0  0  0  0  0  0  0  0  0  0  0
    8.5149  -15.3841   23.7416 C   0  0  2  0  0  0  0  0  0  0  0  0
    8.7817  -16.3813   22.7269 N   0  0  0  0  0  0  0  0  0  0  0  0
    8.3794  -16.0622   25.0307 C   0  0  0  0  0  0  0  0  0  0  0  0
    8.0466  -15.4156   26.0481 O   0  0  0  0  0  0  0  0  0  0  0  0
    8.0450  -12.9633   21.6830 C   0  0  0  0  0  0  0  0  0  0  0  0
    8.1545  -12.4504   20.3871 C   0  0  0  0  0  0  0  0  0  0  0  0
    8.6064  -17.4572   25.2240 N   0  0  0  0  0  0  0  0  0  0  0  0
    8.5007  -18.1443   26.4614 C   0  0  1  0  0  0  0  0  0  0  0  0
    8.0048  -19.5568   26.3555 C   0  0  0  0  0  0  0  0  0  0  0  0
    7.9825  -20.2602   27.6476 C   0  0  0  0  0  0  0  0  0  0  0  0
    8.9777  -20.3907   28.4069 O   0  0  0  0  0  0  0  0  0  0  0  0
    9.7747  -18.1003   27.2112 C   0  0  0  0  0  0  0  0  0  0  0  0
    9.7781  -18.0049   28.5910 O   0  0  0  0  0  0  0  0  0  0  0  0
    6.7834  -20.8196   28.0613 O   0  0  0  0  0  0  0  0  0  0  0  0
   10.8792  -18.1479   26.6215 O   0  0  0  0  0  0  0  0  0  0  0  0
  2  1  1  6
  2  3  1  0
  3  4  1  0
  4  5  1  0
  5  9  1  0
  6  5  2  0
  7  2  1  0
  8  7  2  0
 10 11  1  0
 11 12  2  0
 12 13  1  0
 14 15  1  0
 14 13  2  0
 16 15  1  6
 16 18  1  0
 16 17  1  0
 17  7  1  0
 18 19  2  0
 20 14  1  0
 21 20  2  0
 21 11  1  0
 22 23  1  0
 22 18  1  0
 24 25  1  0
 23 24  1  6
 25 29  1  0
 26 25  2  0
 27 28  1  0
 27 23  1  0
 30 27  2  0
M  END
$$$$
