EYD.pdb
     RDKit          3D

 30 30  0  0  1  0  0  0  0  0999 V2000
    9.6742  -16.4595   18.4944 N   0  0  0  0  0  0  0  0  0  0  0  0
    9.7015  -17.4419   19.5897 C   0  0  1  0  0  0  0  0  0  0  0  0
   10.8979  -18.3325   19.3974 C   0  0  0  0  0  0  0  0  0  0  0  0
   11.0229  -18.8458   18.0015 C   0  0  0  0  0  0  0  0  0  0  0  0
   11.6458  -20.2188   18.0710 C   0  0  0  0  0  0  0  0  0  0  0  0
   11.9839  -20.7333   19.1611 O   0  0  0  0  0  0  0  0  0  0  0  0
    9.7767  -16.6648   20.8444 C   0  0  0  0  0  0  0  0  0  0  0  0
   10.8669  -16.1743   21.2951 O   0  0  0  0  0  0  0  0  0  0  0  0
   11.8169  -20.8686   16.8461 O   0  0  0  0  0  0  0  0  0  0  0  0
    7.2078  -11.8949   27.8720 O   0  0  0  0  0  0  0  0  0  0  0  0
    7.2651  -12.6346   26.6880 C   0  0  0  0  0  0  0  0  0  0  0  0
    8.1769  -12.3502   25.7173 C   0  0  0  0  0  0  0  0  0  0  0  0
    8.2322  -13.0914   24.5344 C   0  0  0  0  0  0  0  0  0  0  0  0
    7.3629  -14.1339   24.3164 C   0  0  0  0  0  0  0  0  0  0  0  0
    7.4004  -14.9352   23.0715 C   0  0  0  0  0  0  0  0  0  0  0  0
    8.7325  -15.6229   22.8815 C   0  0  2  0  0  0  0  0  0  0  0  0
    8.6397  -16.3950   21.6606 N   0  0  0  0  0  0  0  0  0  0  0  0
    9.0730  -16.5308   23.9769 C   0  0  0  0  0  0  0  0  0  0  0  0
    8.3901  -17.5595   24.1745 O   0  0  0  0  0  0  0  0  0  0  0  0
    6.4429  -14.4190   25.2986 C   0  0  0  0  0  0  0  0  0  0  0  0
    6.3863  -13.6783   26.4829 C   0  0  0  0  0  0  0  0  0  0  0  0
   10.1654  -16.3251   24.8707 N   0  0  0  0  0  0  0  0  0  0  0  0
   10.5510  -17.2055   25.9150 C   0  0  1  0  0  0  0  0  0  0  0  0
   12.0047  -17.1455   26.2830 C   0  0  0  0  0  0  0  0  0  0  0  0
   12.4070  -18.2023   27.2243 C   0  0  0  0  0  0  0  0  0  0  0  0
   11.6916  -19.1890   27.5385 O   0  0  0  0  0  0  0  0  0  0  0  0
    9.7074  -17.0177   27.1152 C   0  0  0  0  0  0  0  0  0  0  0  0
    9.6530  -15.7923   27.7543 O   0  0  0  0  0  0  0  0  0  0  0  0
   13.6608  -18.1085   27.8080 O   0  0  0  0  0  0  0  0  0  0  0  0
    9.0232  -17.9570   27.5836 O   0  0  0  0  0  0  0  0  0  0  0  0
  2  1  1  6
  2  3  1  0
  3  4  1  0
  4  5  1  0
  5  9  1  0
  6  5  2  0
  7  2  1  0
  8  7  2  0
 10 11  1  0
 11 12  2  0
 12 13  1  0
 14 15  1  0
 14 13  2  0
 16 15  1  1
 16 18  1  0
 16 17  1  0
 17  7  1  0
 18 19  2  0
 20 14  1  0
 21 20  2  0
 21 11  1  0
 22 23  1  0
 22 18  1  0
 24 25  1  0
 23 24  1  1
 25 29  1  0
 26 25  2  0
 27 28  1  0
 27 23  1  0
 30 27  2  0
M  END
$$$$
