EYD.pdb
     RDKit          3D

 30 30  0  0  1  0  0  0  0  0999 V2000
    8.6268  -18.3651   19.7616 N   0  0  0  0  0  0  0  0  0  0  0  0
   10.0158  -18.0158   20.0997 C   0  0  1  0  0  0  0  0  0  0  0  0
   10.7922  -17.8697   18.8201 C   0  0  0  0  0  0  0  0  0  0  0  0
   10.0118  -18.2796   17.6158 C   0  0  0  0  0  0  0  0  0  0  0  0
   10.7239  -17.7375   16.4004 C   0  0  0  0  0  0  0  0  0  0  0  0
   10.0961  -17.3411   15.3925 O   0  0  0  0  0  0  0  0  0  0  0  0
    9.9532  -16.7532   20.8650 C   0  0  0  0  0  0  0  0  0  0  0  0
   10.9811  -16.0337   21.1061 O   0  0  0  0  0  0  0  0  0  0  0  0
   12.1186  -17.7094   16.4784 O   0  0  0  0  0  0  0  0  0  0  0  0
    6.8073  -11.7487   27.4794 O   0  0  0  0  0  0  0  0  0  0  0  0
    6.9295  -12.5288   26.3267 C   0  0  0  0  0  0  0  0  0  0  0  0
    6.4036  -13.7831   26.2600 C   0  0  0  0  0  0  0  0  0  0  0  0
    6.5271  -14.5612   25.1063 C   0  0  0  0  0  0  0  0  0  0  0  0
    7.1866  -14.0794   24.0004 C   0  0  0  0  0  0  0  0  0  0  0  0
    7.3317  -14.8834   22.7652 C   0  0  0  0  0  0  0  0  0  0  0  0
    8.6978  -15.5212   22.6627 C   0  0  2  0  0  0  0  0  0  0  0  0
    8.7409  -16.2285   21.4005 N   0  0  0  0  0  0  0  0  0  0  0  0
    8.9689  -16.4767   23.7367 C   0  0  0  0  0  0  0  0  0  0  0  0
    8.4232  -17.6019   23.7282 O   0  0  0  0  0  0  0  0  0  0  0  0
    7.7169  -12.8120   24.0705 C   0  0  0  0  0  0  0  0  0  0  0  0
    7.5942  -12.0322   25.2243 C   0  0  0  0  0  0  0  0  0  0  0  0
    9.8409  -16.2139   24.8345 N   0  0  0  0  0  0  0  0  0  0  0  0
   10.2696  -17.1700   25.7919 C   0  0  1  0  0  0  0  0  0  0  0  0
   11.6987  -17.6055   25.6488 C   0  0  0  0  0  0  0  0  0  0  0  0
   12.1045  -18.5973   26.6569 C   0  0  0  0  0  0  0  0  0  0  0  0
   11.3077  -19.3288   27.3004 O   0  0  0  0  0  0  0  0  0  0  0  0
   10.0086  -16.7038   27.1710 C   0  0  0  0  0  0  0  0  0  0  0  0
    9.5586  -15.4174   27.4073 O   0  0  0  0  0  0  0  0  0  0  0  0
   13.4583  -18.7391   26.9193 O   0  0  0  0  0  0  0  0  0  0  0  0
   10.1867  -17.4559   28.1571 O   0  0  0  0  0  0  0  0  0  0  0  0
  2  1  1  6
  2  3  1  0
  3  4  1  0
  4  5  1  0
  5  9  1  0
  6  5  2  0
  7  2  1  0
  8  7  2  0
 10 11  1  0
 11 12  2  0
 12 13  1  0
 14 15  1  0
 14 13  2  0
 16 15  1  1
 16 18  1  0
 16 17  1  0
 17  7  1  0
 18 19  2  0
 20 14  1  0
 21 20  2  0
 21 11  1  0
 22 23  1  0
 22 18  1  0
 24 25  1  0
 23 24  1  1
 25 29  1  0
 26 25  2  0
 27 28  1  0
 27 23  1  0
 30 27  2  0
M  END
$$$$
