IHR.pdb
     RDKit          3D

 30 30  0  0  1  0  0  0  0  0999 V2000
    7.3077  -11.9648   18.3731 C   0  0  0  0  0  0  0  0  0  0  0  0
    7.0619  -13.2589   19.1059 C   0  0  0  0  0  0  0  0  0  0  0  0
    8.1200  -13.5805   20.1231 C   0  0  2  0  0  0  0  0  0  0  0  0
    9.4475  -13.5500   19.3920 C   0  0  0  0  0  0  0  0  0  0  0  0
    7.8498  -14.8915   20.7706 C   0  0  2  0  0  0  0  0  0  0  0  0
    6.4956  -14.9538   21.3151 N   0  0  0  0  0  0  0  0  0  0  0  0
    8.8224  -15.1931   21.8509 C   0  0  0  0  0  0  0  0  0  0  0  0
    8.9668  -14.4765   22.8770 O   0  0  0  0  0  0  0  0  0  0  0  0
    9.6464  -16.3383   21.7548 N   0  0  0  0  0  0  0  0  0  0  0  0
   10.7176  -16.5610   22.8171 C   0  0  1  0  0  0  0  0  0  0  0  0
   10.3287  -17.8996   23.3602 C   0  0  0  0  0  0  0  0  0  0  0  0
    9.1624  -18.0161   24.2123 C   0  0  0  0  0  0  0  0  0  0  0  0
    8.3033  -17.1004   24.7486 C   0  0  0  0  0  0  0  0  0  0  0  0
    7.2957  -17.7324   25.4225 N   0  0  0  0  0  0  0  0  0  0  0  0
    7.5491  -19.0359   25.2899 C   0  0  0  0  0  0  0  0  0  0  0  0
    8.6455  -19.2215   24.5792 N   0  0  0  0  0  0  0  0  0  0  0  0
   11.9900  -16.5616   22.0379 C   0  0  0  0  0  0  0  0  0  0  0  0
   12.3576  -17.6663   21.4817 O   0  0  0  0  0  0  0  0  0  0  0  0
   16.1662  -12.3443   16.8142 N   0  0  0  0  0  0  0  0  0  0  0  0
   16.8150  -13.5844   16.5827 C   0  0  0  0  0  0  0  0  0  0  0  0
   17.9109  -13.6008   15.8685 N   0  0  0  0  0  0  0  0  0  0  0  0
   16.2882  -14.7975   17.1167 N   0  0  0  0  0  0  0  0  0  0  0  0
   15.1217  -14.7845   17.9591 C   0  0  0  0  0  0  0  0  0  0  0  0
   15.5160  -14.3817   19.3646 C   0  0  0  0  0  0  0  0  0  0  0  0
   14.3618  -14.3051   20.2963 C   0  0  0  0  0  0  0  0  0  0  0  0
   14.0367  -15.6040   20.9487 C   0  0  2  0  0  0  0  0  0  0  0  0
   12.8661  -15.5040   21.8150 N   0  0  0  0  0  0  0  0  0  0  0  0
   15.1679  -15.9998   21.8301 C   0  0  0  0  0  0  0  0  0  0  0  0
   16.2821  -16.2583   21.3609 O   0  0  0  0  0  0  0  0  0  0  0  0
   15.0159  -16.0954   23.2275 O   0  0  0  0  0  0  0  0  0  0  0  0
  1  2  1  0
  3  5  1  0
  3  2  1  0
  3  4  1  6
  5  7  1  0
  5  6  1  1
  7  8  2  0
  9 10  1  0
  9  7  1  0
 10 17  1  0
 11 12  1  0
 10 11  1  6
 12 13  2  0
 13 14  1  0
 15 14  1  0
 16 12  1  0
 16 15  2  0
 17 27  1  0
 17 18  2  0
 19 20  1  0
 20 22  1  0
 21 20  2  0
 23 22  1  0
 23 24  1  0
 24 25  1  0
 26 25  1  1
 26 28  1  0
 27 26  1  0
 28 29  2  0
 28 30  1  0
M  END
$$$$
