IHR.pdb
     RDKit          3D

 30 30  0  0  1  0  0  0  0  0999 V2000
    6.8599  -12.0744   27.4400 C   0  0  0  0  0  0  0  0  0  0  0  0
    6.1974  -13.1023   26.5589 C   0  0  0  0  0  0  0  0  0  0  0  0
    7.1697  -14.0308   25.8879 C   0  0  2  0  0  0  0  0  0  0  0  0
    8.1043  -13.1621   25.0696 C   0  0  0  0  0  0  0  0  0  0  0  0
    6.4539  -15.0406   25.0640 C   0  0  2  0  0  0  0  0  0  0  0  0
    5.5105  -15.8175   25.8646 N   0  0  0  0  0  0  0  0  0  0  0  0
    7.3887  -15.9681   24.3786 C   0  0  0  0  0  0  0  0  0  0  0  0
    7.7414  -17.0792   24.8564 O   0  0  0  0  0  0  0  0  0  0  0  0
    7.9306  -15.6167   23.1206 N   0  0  0  0  0  0  0  0  0  0  0  0
    8.9126  -16.5736   22.4531 C   0  0  1  0  0  0  0  0  0  0  0  0
    9.0249  -15.9822   21.0835 C   0  0  0  0  0  0  0  0  0  0  0  0
    9.9108  -16.5898   20.1110 C   0  0  0  0  0  0  0  0  0  0  0  0
   10.7904  -17.6321   20.1729 C   0  0  0  0  0  0  0  0  0  0  0  0
   11.3307  -17.8714   18.9403 N   0  0  0  0  0  0  0  0  0  0  0  0
   10.7721  -16.9687   18.1315 C   0  0  0  0  0  0  0  0  0  0  0  0
    9.9323  -16.2052   18.8046 N   0  0  0  0  0  0  0  0  0  0  0  0
   10.1474  -16.4430   23.2805 C   0  0  0  0  0  0  0  0  0  0  0  0
   10.3599  -15.3182   23.8758 O   0  0  0  0  0  0  0  0  0  0  0  0
   11.4224  -20.9881   30.2965 N   0  0  0  0  0  0  0  0  0  0  0  0
   12.5546  -20.1346   30.2484 C   0  0  0  0  0  0  0  0  0  0  0  0
   13.3536  -20.0857   31.2831 N   0  0  0  0  0  0  0  0  0  0  0  0
   12.8245  -19.3403   29.0949 N   0  0  0  0  0  0  0  0  0  0  0  0
   11.8197  -19.1482   28.0830 C   0  0  0  0  0  0  0  0  0  0  0  0
   12.4124  -18.3818   26.9192 C   0  0  0  0  0  0  0  0  0  0  0  0
   11.4426  -18.1477   25.8188 C   0  0  0  0  0  0  0  0  0  0  0  0
   12.0098  -17.3716   24.6812 C   0  0  2  0  0  0  0  0  0  0  0  0
   11.1355  -17.3946   23.5124 N   0  0  0  0  0  0  0  0  0  0  0  0
   13.2864  -18.0035   24.2523 C   0  0  0  0  0  0  0  0  0  0  0  0
   14.2671  -18.0345   25.0044 O   0  0  0  0  0  0  0  0  0  0  0  0
   13.4284  -18.5890   22.9787 O   0  0  0  0  0  0  0  0  0  0  0  0
  1  2  1  0
  3  5  1  0
  3  2  1  0
  3  4  1  6
  5  7  1  0
  5  6  1  1
  7  8  2  0
  9 10  1  0
  9  7  1  0
 10 17  1  0
 11 12  1  0
 10 11  1  6
 12 13  2  0
 13 14  1  0
 15 14  1  0
 16 12  1  0
 16 15  2  0
 17 27  1  0
 17 18  2  0
 19 20  1  0
 20 22  1  0
 21 20  2  0
 23 22  1  0
 23 24  1  0
 24 25  1  0
 26 25  1  1
 26 28  1  0
 27 26  1  0
 28 29  2  0
 28 30  1  0
M  END
$$$$
