IHR.pdb
     RDKit          3D

 30 30  0  0  1  0  0  0  0  0999 V2000
    7.4513  -11.9127   19.4227 C   0  0  0  0  0  0  0  0  0  0  0  0
    7.7038  -13.1864   20.1881 C   0  0  0  0  0  0  0  0  0  0  0  0
    8.7953  -14.0330   19.5969 C   0  0  2  0  0  0  0  0  0  0  0  0
    8.3897  -14.3258   18.1659 C   0  0  0  0  0  0  0  0  0  0  0  0
    9.0011  -15.2671   20.4004 C   0  0  2  0  0  0  0  0  0  0  0  0
    7.8379  -16.1491   20.3395 N   0  0  0  0  0  0  0  0  0  0  0  0
    9.3082  -14.9652   21.8211 C   0  0  0  0  0  0  0  0  0  0  0  0
   10.2255  -14.1811   22.1831 O   0  0  0  0  0  0  0  0  0  0  0  0
    8.5500  -15.5731   22.8484 N   0  0  0  0  0  0  0  0  0  0  0  0
    8.8035  -15.1528   24.2922 C   0  0  1  0  0  0  0  0  0  0  0  0
    7.4836  -14.5571   24.6681 C   0  0  0  0  0  0  0  0  0  0  0  0
    7.3844  -13.7214   25.8477 C   0  0  0  0  0  0  0  0  0  0  0  0
    8.2984  -13.2909   26.7660 C   0  0  0  0  0  0  0  0  0  0  0  0
    7.7108  -12.4360   27.6562 N   0  0  0  0  0  0  0  0  0  0  0  0
    6.4360  -12.3504   27.2707 C   0  0  0  0  0  0  0  0  0  0  0  0
    6.2259  -13.1014   26.2061 N   0  0  0  0  0  0  0  0  0  0  0  0
    9.1147  -16.4385   24.9825 C   0  0  0  0  0  0  0  0  0  0  0  0
    8.4115  -17.4755   24.6745 O   0  0  0  0  0  0  0  0  0  0  0  0
   15.8170  -15.6045   24.4509 N   0  0  0  0  0  0  0  0  0  0  0  0
   14.9905  -15.9353   23.3463 C   0  0  0  0  0  0  0  0  0  0  0  0
   15.2851  -15.4485   22.1684 N   0  0  0  0  0  0  0  0  0  0  0  0
   13.8558  -16.7840   23.5089 N   0  0  0  0  0  0  0  0  0  0  0  0
   13.4686  -17.2520   24.8134 C   0  0  0  0  0  0  0  0  0  0  0  0
   12.1359  -17.9650   24.7211 C   0  0  0  0  0  0  0  0  0  0  0  0
   11.6887  -18.5382   26.0163 C   0  0  0  0  0  0  0  0  0  0  0  0
   10.3688  -18.0200   26.4720 C   0  0  2  0  0  0  0  0  0  0  0  0
   10.0904  -16.6885   25.9423 N   0  0  0  0  0  0  0  0  0  0  0  0
   10.3892  -17.8774   27.9527 C   0  0  0  0  0  0  0  0  0  0  0  0
   10.2484  -16.7726   28.4892 O   0  0  0  0  0  0  0  0  0  0  0  0
   10.5688  -18.9897   28.7986 O   0  0  0  0  0  0  0  0  0  0  0  0
  1  2  1  0
  3  5  1  0
  3  2  1  0
  3  4  1  6
  5  7  1  0
  5  6  1  1
  7  8  2  0
  9 10  1  0
  9  7  1  0
 10 17  1  0
 11 12  1  0
 10 11  1  1
 12 13  2  0
 13 14  1  0
 15 14  1  0
 16 12  1  0
 16 15  2  0
 17 27  1  0
 17 18  2  0
 19 20  1  0
 20 22  1  0
 21 20  2  0
 23 22  1  0
 23 24  1  0
 24 25  1  0
 26 25  1  6
 26 28  1  0
 27 26  1  0
 28 29  2  0
 28 30  1  0
M  END
$$$$
