IHR.pdb
     RDKit          3D

 30 30  0  0  1  0  0  0  0  0999 V2000
    7.5890  -11.3316   19.5260 C   0  0  0  0  0  0  0  0  0  0  0  0
    7.8465  -12.4721   18.5748 C   0  0  0  0  0  0  0  0  0  0  0  0
    8.5100  -13.6539   19.2236 C   0  0  2  0  0  0  0  0  0  0  0  0
    9.8265  -13.1565   19.7867 C   0  0  0  0  0  0  0  0  0  0  0  0
    8.6836  -14.7635   18.2491 C   0  0  2  0  0  0  0  0  0  0  0  0
    7.4021  -15.2102   17.7083 N   0  0  0  0  0  0  0  0  0  0  0  0
    9.3916  -15.9249   18.8439 C   0  0  0  0  0  0  0  0  0  0  0  0
    8.8067  -16.8546   19.4610 O   0  0  0  0  0  0  0  0  0  0  0  0
   10.7976  -16.0242   18.7299 N   0  0  0  0  0  0  0  0  0  0  0  0
   11.5035  -17.2077   19.3831 C   0  0  1  0  0  0  0  0  0  0  0  0
   12.6665  -17.4088   18.4638 C   0  0  0  0  0  0  0  0  0  0  0  0
   13.7255  -18.3246   18.8376 C   0  0  0  0  0  0  0  0  0  0  0  0
   13.7957  -19.3560   19.7294 C   0  0  0  0  0  0  0  0  0  0  0  0
   15.0121  -19.9742   19.6456 N   0  0  0  0  0  0  0  0  0  0  0  0
   15.6772  -19.3119   18.6969 C   0  0  0  0  0  0  0  0  0  0  0  0
   14.9339  -18.3365   18.2095 N   0  0  0  0  0  0  0  0  0  0  0  0
   11.8720  -16.6943   20.7347 C   0  0  0  0  0  0  0  0  0  0  0  0
   12.2722  -15.4712   20.8283 O   0  0  0  0  0  0  0  0  0  0  0  0
   11.0924  -18.9765   29.2310 N   0  0  0  0  0  0  0  0  0  0  0  0
   11.6878  -17.6896   29.1865 C   0  0  0  0  0  0  0  0  0  0  0  0
   12.4385  -17.3056   30.1866 N   0  0  0  0  0  0  0  0  0  0  0  0
   11.4769  -16.8232   28.0734 N   0  0  0  0  0  0  0  0  0  0  0  0
   10.9809  -17.3380   26.8246 C   0  0  0  0  0  0  0  0  0  0  0  0
   11.8374  -16.8216   25.6875 C   0  0  0  0  0  0  0  0  0  0  0  0
   11.3967  -17.3093   24.3556 C   0  0  0  0  0  0  0  0  0  0  0  0
   12.1780  -16.7367   23.2241 C   0  0  2  0  0  0  0  0  0  0  0  0
   11.8421  -17.3682   21.9516 N   0  0  0  0  0  0  0  0  0  0  0  0
   13.6237  -17.0066   23.4481 C   0  0  0  0  0  0  0  0  0  0  0  0
   14.1359  -18.0743   23.0928 O   0  0  0  0  0  0  0  0  0  0  0  0
   14.4629  -16.0615   24.0706 O   0  0  0  0  0  0  0  0  0  0  0  0
  1  2  1  0
  3  5  1  0
  3  2  1  0
  3  4  1  6
  5  7  1  0
  5  6  1  1
  7  8  2  0
  9 10  1  0
  9  7  1  0
 10 17  1  0
 11 12  1  0
 10 11  1  6
 12 13  2  0
 13 14  1  0
 15 14  1  0
 16 12  1  0
 16 15  2  0
 17 27  1  0
 17 18  2  0
 19 20  1  0
 20 22  1  0
 21 20  2  0
 23 22  1  0
 23 24  1  0
 24 25  1  0
 26 25  1  1
 26 28  1  0
 27 26  1  0
 28 29  2  0
 28 30  1  0
M  END
$$$$
