IHR.pdb
     RDKit          3D

 30 30  0  0  1  0  0  0  0  0999 V2000
    7.0477  -11.6928   19.7141 C   0  0  0  0  0  0  0  0  0  0  0  0
    7.4099  -12.9363   18.9431 C   0  0  0  0  0  0  0  0  0  0  0  0
    7.9518  -14.0394   19.8075 C   0  0  2  0  0  0  0  0  0  0  0  0
    9.1498  -13.4677   20.5394 C   0  0  0  0  0  0  0  0  0  0  0  0
    8.2935  -15.2329   18.9891 C   0  0  2  0  0  0  0  0  0  0  0  0
    7.1301  -15.7404   18.2657 N   0  0  0  0  0  0  0  0  0  0  0  0
    8.8712  -16.3272   19.8093 C   0  0  0  0  0  0  0  0  0  0  0  0
    8.1757  -17.1329   20.4833 O   0  0  0  0  0  0  0  0  0  0  0  0
   10.2735  -16.5027   19.8591 N   0  0  0  0  0  0  0  0  0  0  0  0
   10.8406  -17.6288   20.7169 C   0  0  1  0  0  0  0  0  0  0  0  0
   12.2043  -17.7994   20.1260 C   0  0  0  0  0  0  0  0  0  0  0  0
   13.1384  -18.7251   20.7344 C   0  0  0  0  0  0  0  0  0  0  0  0
   13.0616  -19.5500   21.8197 C   0  0  0  0  0  0  0  0  0  0  0  0
   14.2003  -20.2985   21.9288 N   0  0  0  0  0  0  0  0  0  0  0  0
   14.9663  -19.9228   20.9026 C   0  0  0  0  0  0  0  0  0  0  0  0
   14.3560  -18.9964   20.1878 N   0  0  0  0  0  0  0  0  0  0  0  0
   10.8367  -17.0564   22.0949 C   0  0  0  0  0  0  0  0  0  0  0  0
   11.1932  -15.8247   22.2387 O   0  0  0  0  0  0  0  0  0  0  0  0
    6.4286  -19.5322   23.6556 N   0  0  0  0  0  0  0  0  0  0  0  0
    6.0275  -19.8839   24.9702 C   0  0  0  0  0  0  0  0  0  0  0  0
    5.4123  -21.0227   25.1599 N   0  0  0  0  0  0  0  0  0  0  0  0
    6.2874  -19.0162   26.0719 N   0  0  0  0  0  0  0  0  0  0  0  0
    6.9615  -17.7602   25.8755 C   0  0  0  0  0  0  0  0  0  0  0  0
    8.3631  -18.0122   25.3606 C   0  0  0  0  0  0  0  0  0  0  0  0
    9.1221  -16.7632   25.0964 C   0  0  0  0  0  0  0  0  0  0  0  0
   10.4986  -17.0017   24.5799 C   0  0  2  0  0  0  0  0  0  0  0  0
   10.4889  -17.6816   23.2881 N   0  0  0  0  0  0  0  0  0  0  0  0
   11.2171  -17.9076   25.5159 C   0  0  0  0  0  0  0  0  0  0  0  0
   11.5398  -19.0514   25.1751 O   0  0  0  0  0  0  0  0  0  0  0  0
   11.5572  -17.5008   26.8212 O   0  0  0  0  0  0  0  0  0  0  0  0
  1  2  1  0
  3  5  1  0
  3  2  1  0
  3  4  1  6
  5  7  1  0
  5  6  1  1
  7  8  2  0
  9 10  1  0
  9  7  1  0
 10 17  1  0
 11 12  1  0
 10 11  1  6
 12 13  2  0
 13 14  1  0
 15 14  1  0
 16 12  1  0
 16 15  2  0
 17 27  1  0
 17 18  2  0
 19 20  1  0
 20 22  1  0
 21 20  2  0
 23 22  1  0
 23 24  1  0
 24 25  1  0
 26 25  1  1
 26 28  1  0
 27 26  1  0
 28 29  2  0
 28 30  1  0
M  END
$$$$
