IHR.pdb
     RDKit          3D

 30 30  0  0  1  0  0  0  0  0999 V2000
   14.5719  -17.2254   15.8785 C   0  0  0  0  0  0  0  0  0  0  0  0
   14.7855  -15.7373   15.9873 C   0  0  0  0  0  0  0  0  0  0  0  0
   14.1810  -15.1351   17.2241 C   0  0  2  0  0  0  0  0  0  0  0  0
   14.8110  -15.8467   18.4050 C   0  0  0  0  0  0  0  0  0  0  0  0
   12.6993  -15.2581   17.2021 C   0  0  2  0  0  0  0  0  0  0  0  0
   12.1118  -14.4895   16.1073 N   0  0  0  0  0  0  0  0  0  0  0  0
   12.0830  -14.8291   18.4827 C   0  0  0  0  0  0  0  0  0  0  0  0
   12.3323  -13.7269   19.0399 O   0  0  0  0  0  0  0  0  0  0  0  0
   11.1627  -15.6789   19.1389 N   0  0  0  0  0  0  0  0  0  0  0  0
   10.5618  -15.2232   20.4644 C   0  0  1  0  0  0  0  0  0  0  0  0
    9.1041  -15.4684   20.2338 C   0  0  0  0  0  0  0  0  0  0  0  0
    8.3309  -14.5177   19.4607 C   0  0  0  0  0  0  0  0  0  0  0  0
    8.6663  -13.4036   18.7461 C   0  0  0  0  0  0  0  0  0  0  0  0
    7.5653  -12.8940   18.1164 N   0  0  0  0  0  0  0  0  0  0  0  0
    6.5616  -13.7067   18.4528 C   0  0  0  0  0  0  0  0  0  0  0  0
    6.9948  -14.6695   19.2445 N   0  0  0  0  0  0  0  0  0  0  0  0
   11.1864  -16.1365   21.4654 C   0  0  0  0  0  0  0  0  0  0  0  0
   11.2882  -17.3866   21.1623 O   0  0  0  0  0  0  0  0  0  0  0  0
   18.6296  -14.6116   22.6801 N   0  0  0  0  0  0  0  0  0  0  0  0
   17.8515  -14.7328   21.5001 C   0  0  0  0  0  0  0  0  0  0  0  0
   18.3819  -14.3880   20.3550 N   0  0  0  0  0  0  0  0  0  0  0  0
   16.5128  -15.2220   21.5526 N   0  0  0  0  0  0  0  0  0  0  0  0
   15.9066  -15.5718   22.8099 C   0  0  0  0  0  0  0  0  0  0  0  0
   14.5429  -16.1819   22.5629 C   0  0  0  0  0  0  0  0  0  0  0  0
   13.7897  -16.4556   23.8134 C   0  0  0  0  0  0  0  0  0  0  0  0
   12.3581  -16.7960   23.5831 C   0  0  2  0  0  0  0  0  0  0  0  0
   11.6951  -15.8218   22.7215 N   0  0  0  0  0  0  0  0  0  0  0  0
   11.6352  -16.7548   24.8827 C   0  0  0  0  0  0  0  0  0  0  0  0
   10.7173  -15.9497   25.0768 O   0  0  0  0  0  0  0  0  0  0  0  0
   11.9656  -17.6269   25.9387 O   0  0  0  0  0  0  0  0  0  0  0  0
  1  2  1  0
  3  5  1  0
  3  2  1  0
  3  4  1  1
  5  7  1  0
  5  6  1  6
  7  8  2  0
  9 10  1  0
  9  7  1  0
 10 17  1  0
 11 12  1  0
 10 11  1  6
 12 13  2  0
 13 14  1  0
 15 14  1  0
 16 12  1  0
 16 15  2  0
 17 27  1  0
 17 18  2  0
 19 20  1  0
 20 22  1  0
 21 20  2  0
 23 22  1  0
 23 24  1  0
 24 25  1  0
 26 25  1  1
 26 28  1  0
 27 26  1  0
 28 29  2  0
 28 30  1  0
M  END
$$$$
