IHR.pdb
     RDKit          3D

 30 30  0  0  1  0  0  0  0  0999 V2000
    7.3550  -12.2731   20.6076 C   0  0  0  0  0  0  0  0  0  0  0  0
    6.8284  -13.6626   20.3547 C   0  0  0  0  0  0  0  0  0  0  0  0
    7.8782  -14.6203   19.8663 C   0  0  2  0  0  0  0  0  0  0  0  0
    8.5599  -13.9523   18.6886 C   0  0  0  0  0  0  0  0  0  0  0  0
    7.2737  -15.9320   19.5128 C   0  0  2  0  0  0  0  0  0  0  0  0
    6.4713  -16.4678   20.6099 N   0  0  0  0  0  0  0  0  0  0  0  0
    8.2983  -16.9341   19.1255 C   0  0  0  0  0  0  0  0  0  0  0  0
    8.7565  -17.8017   19.9157 O   0  0  0  0  0  0  0  0  0  0  0  0
    8.8086  -16.9433   17.8067 N   0  0  0  0  0  0  0  0  0  0  0  0
    9.7673  -18.0574   17.4002 C   0  0  1  0  0  0  0  0  0  0  0  0
    9.8618  -17.8484   15.9219 C   0  0  0  0  0  0  0  0  0  0  0  0
   10.6901  -18.7305   15.1248 C   0  0  0  0  0  0  0  0  0  0  0  0
   11.8671  -19.3783   15.3683 C   0  0  0  0  0  0  0  0  0  0  0  0
   12.2004  -20.1726   14.3069 N   0  0  0  0  0  0  0  0  0  0  0  0
   11.2178  -20.0028   13.4199 C   0  0  0  0  0  0  0  0  0  0  0  0
   10.3188  -19.1564   13.8855 N   0  0  0  0  0  0  0  0  0  0  0  0
   11.0182  -17.7338   18.1464 C   0  0  0  0  0  0  0  0  0  0  0  0
   11.5228  -16.5555   17.9981 O   0  0  0  0  0  0  0  0  0  0  0  0
   10.8499  -14.2119   18.5509 N   0  0  0  0  0  0  0  0  0  0  0  0
   11.1762  -13.4414   19.6965 C   0  0  0  0  0  0  0  0  0  0  0  0
   11.2715  -12.1420   19.5782 N   0  0  0  0  0  0  0  0  0  0  0  0
   11.3977  -14.0653   20.9599 N   0  0  0  0  0  0  0  0  0  0  0  0
   11.3335  -15.4965   21.0944 C   0  0  0  0  0  0  0  0  0  0  0  0
   12.7318  -16.0746   21.0337 C   0  0  0  0  0  0  0  0  0  0  0  0
   12.7498  -17.5595   21.0087 C   0  0  0  0  0  0  0  0  0  0  0  0
   12.9849  -18.1287   19.6526 C   0  0  2  0  0  0  0  0  0  0  0  0
   11.7422  -18.5480   19.0116 N   0  0  0  0  0  0  0  0  0  0  0  0
   13.8163  -19.3558   19.7797 C   0  0  0  0  0  0  0  0  0  0  0  0
   13.2947  -20.4709   19.8928 O   0  0  0  0  0  0  0  0  0  0  0  0
   15.2240  -19.2969   19.7761 O   0  0  0  0  0  0  0  0  0  0  0  0
  1  2  1  0
  3  5  1  0
  3  2  1  0
  3  4  1  6
  5  7  1  0
  5  6  1  1
  7  8  2  0
  9 10  1  0
  9  7  1  0
 10 17  1  0
 11 12  1  0
 10 11  1  6
 12 13  2  0
 13 14  1  0
 15 14  1  0
 16 12  1  0
 16 15  2  0
 17 27  1  0
 17 18  2  0
 19 20  1  0
 20 22  1  0
 21 20  2  0
 23 22  1  0
 23 24  1  0
 24 25  1  0
 26 25  1  1
 26 28  1  0
 27 26  1  0
 28 29  2  0
 28 30  1  0
M  END
$$$$
