IHR.pdb
     RDKit          3D

 30 30  0  0  1  0  0  0  0  0999 V2000
    8.7678  -12.6183   27.2974 C   0  0  0  0  0  0  0  0  0  0  0  0
    8.0776  -13.7577   26.5921 C   0  0  0  0  0  0  0  0  0  0  0  0
    7.1177  -13.3082   25.5271 C   0  0  2  0  0  0  0  0  0  0  0  0
    6.0889  -12.4314   26.2131 C   0  0  0  0  0  0  0  0  0  0  0  0
    6.5094  -14.4762   24.8366 C   0  0  2  0  0  0  0  0  0  0  0  0
    5.9296  -15.4215   25.7877 N   0  0  0  0  0  0  0  0  0  0  0  0
    7.4870  -15.1895   23.9768 C   0  0  0  0  0  0  0  0  0  0  0  0
    7.7430  -16.4182   24.0861 O   0  0  0  0  0  0  0  0  0  0  0  0
    8.1858  -14.4820   22.9714 N   0  0  0  0  0  0  0  0  0  0  0  0
    9.1673  -15.2440   22.0874 C   0  0  1  0  0  0  0  0  0  0  0  0
    9.3327  -14.3001   20.9386 C   0  0  0  0  0  0  0  0  0  0  0  0
    8.3355  -14.2684   19.8878 C   0  0  0  0  0  0  0  0  0  0  0  0
    7.5140  -13.2880   19.4100 C   0  0  0  0  0  0  0  0  0  0  0  0
    6.8061  -13.7445   18.3334 N   0  0  0  0  0  0  0  0  0  0  0  0
    7.2047  -15.0065   18.1614 C   0  0  0  0  0  0  0  0  0  0  0  0
    8.1062  -15.3319   19.0685 N   0  0  0  0  0  0  0  0  0  0  0  0
   10.3793  -15.3823   22.9467 C   0  0  0  0  0  0  0  0  0  0  0  0
   10.4677  -14.6315   23.9923 O   0  0  0  0  0  0  0  0  0  0  0  0
   10.4964  -18.5813   29.9361 N   0  0  0  0  0  0  0  0  0  0  0  0
   11.2349  -17.4728   29.4479 C   0  0  0  0  0  0  0  0  0  0  0  0
   11.4024  -16.4334   30.2244 N   0  0  0  0  0  0  0  0  0  0  0  0
   11.7892  -17.4836   28.1337 N   0  0  0  0  0  0  0  0  0  0  0  0
   11.3085  -18.4072   27.1406 C   0  0  0  0  0  0  0  0  0  0  0  0
   12.1439  -18.2805   25.8839 C   0  0  0  0  0  0  0  0  0  0  0  0
   11.3980  -17.6902   24.7432 C   0  0  0  0  0  0  0  0  0  0  0  0
   12.2265  -16.7919   23.8918 C   0  0  2  0  0  0  0  0  0  0  0  0
   11.4643  -16.2366   22.7776 N   0  0  0  0  0  0  0  0  0  0  0  0
   13.3289  -17.5832   23.2820 C   0  0  0  0  0  0  0  0  0  0  0  0
   14.4306  -17.6742   23.8355 O   0  0  0  0  0  0  0  0  0  0  0  0
   13.1625  -18.2572   22.0561 O   0  0  0  0  0  0  0  0  0  0  0  0
  1  2  1  0
  3  5  1  0
  3  2  1  0
  3  4  1  1
  5  7  1  0
  5  6  1  1
  7  8  2  0
  9 10  1  0
  9  7  1  0
 10 17  1  0
 11 12  1  0
 10 11  1  6
 12 13  2  0
 13 14  1  0
 15 14  1  0
 16 12  1  0
 16 15  2  0
 17 27  1  0
 17 18  2  0
 19 20  1  0
 20 22  1  0
 21 20  2  0
 23 22  1  0
 23 24  1  0
 24 25  1  0
 26 25  1  6
 26 28  1  0
 27 26  1  0
 28 29  2  0
 28 30  1  0
M  END
$$$$
