IHR.pdb
     RDKit          3D

 30 30  0  0  1  0  0  0  0  0999 V2000
    6.5070  -11.2540   27.0521 C   0  0  0  0  0  0  0  0  0  0  0  0
    6.0281  -12.3518   26.1371 C   0  0  0  0  0  0  0  0  0  0  0  0
    7.1259  -13.2690   25.6776 C   0  0  2  0  0  0  0  0  0  0  0  0
    8.2036  -12.3882   25.0771 C   0  0  0  0  0  0  0  0  0  0  0  0
    6.6051  -14.2770   24.7165 C   0  0  2  0  0  0  0  0  0  0  0  0
    5.5203  -15.0644   25.2976 N   0  0  0  0  0  0  0  0  0  0  0  0
    7.6689  -15.1947   24.2368 C   0  0  0  0  0  0  0  0  0  0  0  0
    7.8763  -16.3363   24.7277 O   0  0  0  0  0  0  0  0  0  0  0  0
    8.5123  -14.7977   23.1735 N   0  0  0  0  0  0  0  0  0  0  0  0
    9.4829  -15.8181   22.5884 C   0  0  1  0  0  0  0  0  0  0  0  0
    9.7985  -15.2058   21.2604 C   0  0  0  0  0  0  0  0  0  0  0  0
    8.7308  -14.9618   20.3117 C   0  0  0  0  0  0  0  0  0  0  0  0
    7.6943  -15.7251   19.8565 C   0  0  0  0  0  0  0  0  0  0  0  0
    6.9001  -14.9953   19.0167 N   0  0  0  0  0  0  0  0  0  0  0  0
    7.4612  -13.7855   18.9670 C   0  0  0  0  0  0  0  0  0  0  0  0
    8.5410  -13.7476   19.7246 N   0  0  0  0  0  0  0  0  0  0  0  0
   10.6217  -15.8122   23.5525 C   0  0  0  0  0  0  0  0  0  0  0  0
   10.5893  -14.9604   24.5210 O   0  0  0  0  0  0  0  0  0  0  0  0
   10.1416  -20.5080   30.0669 N   0  0  0  0  0  0  0  0  0  0  0  0
   11.4053  -20.4085   29.4300 C   0  0  0  0  0  0  0  0  0  0  0  0
   12.4225  -19.9488   30.1123 N   0  0  0  0  0  0  0  0  0  0  0  0
   11.5726  -20.8014   28.0692 N   0  0  0  0  0  0  0  0  0  0  0  0
   10.9325  -20.0694   27.0085 C   0  0  0  0  0  0  0  0  0  0  0  0
   11.8675  -18.9924   26.4999 C   0  0  0  0  0  0  0  0  0  0  0  0
   11.3211  -18.2445   25.3388 C   0  0  0  0  0  0  0  0  0  0  0  0
   12.2762  -17.2560   24.7652 C   0  0  2  0  0  0  0  0  0  0  0  0
   11.7516  -16.6240   23.5584 N   0  0  0  0  0  0  0  0  0  0  0  0
   13.5172  -17.9648   24.3519 C   0  0  0  0  0  0  0  0  0  0  0  0
   13.6817  -18.3344   23.1837 O   0  0  0  0  0  0  0  0  0  0  0  0
   14.5493  -18.2416   25.2700 O   0  0  0  0  0  0  0  0  0  0  0  0
  1  2  1  0
  3  5  1  0
  3  2  1  0
  3  4  1  6
  5  7  1  0
  5  6  1  1
  7  8  2  0
  9 10  1  0
  9  7  1  0
 10 17  1  0
 11 12  1  0
 10 11  1  6
 12 13  2  0
 13 14  1  0
 15 14  1  0
 16 12  1  0
 16 15  2  0
 17 27  1  0
 17 18  2  0
 19 20  1  0
 20 22  1  0
 21 20  2  0
 23 22  1  0
 23 24  1  0
 24 25  1  0
 26 25  1  6
 26 28  1  0
 27 26  1  0
 28 29  2  0
 28 30  1  0
M  END
$$$$
