IHR.pdb
     RDKit          3D

 30 30  0  0  1  0  0  0  0  0999 V2000
    8.2077  -20.3430   18.4804 C   0  0  0  0  0  0  0  0  0  0  0  0
    8.1248  -18.8382   18.5088 C   0  0  0  0  0  0  0  0  0  0  0  0
    8.5684  -18.2393   19.8135 C   0  0  2  0  0  0  0  0  0  0  0  0
    7.7180  -18.8768   20.8944 C   0  0  0  0  0  0  0  0  0  0  0  0
    8.4455  -16.7577   19.7840 C   0  0  2  0  0  0  0  0  0  0  0  0
    9.2144  -16.1758   18.6865 N   0  0  0  0  0  0  0  0  0  0  0  0
    8.8743  -16.1351   21.0616 C   0  0  0  0  0  0  0  0  0  0  0  0
   10.0739  -16.0863   21.4436 O   0  0  0  0  0  0  0  0  0  0  0  0
    7.9104  -15.5565   21.9194 N   0  0  0  0  0  0  0  0  0  0  0  0
    8.3882  -14.8161   23.1640 C   0  0  1  0  0  0  0  0  0  0  0  0
    7.1562  -14.0643   23.5582 C   0  0  0  0  0  0  0  0  0  0  0  0
    7.1145  -13.3741   24.8315 C   0  0  0  0  0  0  0  0  0  0  0  0
    8.0356  -13.1858   25.8216 C   0  0  0  0  0  0  0  0  0  0  0  0
    7.5251  -12.3757   26.7973 N   0  0  0  0  0  0  0  0  0  0  0  0
    6.2901  -12.0737   26.3915 C   0  0  0  0  0  0  0  0  0  0  0  0
    6.0314  -12.6534   25.2346 N   0  0  0  0  0  0  0  0  0  0  0  0
    8.7635  -15.9134   24.1028 C   0  0  0  0  0  0  0  0  0  0  0  0
    7.9532  -16.9105   24.2219 O   0  0  0  0  0  0  0  0  0  0  0  0
   12.3262  -21.1348   22.5162 N   0  0  0  0  0  0  0  0  0  0  0  0
   12.8219  -20.0470   21.7522 C   0  0  0  0  0  0  0  0  0  0  0  0
   12.8270  -20.1414   20.4474 N   0  0  0  0  0  0  0  0  0  0  0  0
   13.3080  -18.8666   22.3883 N   0  0  0  0  0  0  0  0  0  0  0  0
   13.1275  -18.6656   23.8017 C   0  0  0  0  0  0  0  0  0  0  0  0
   11.7678  -18.0496   24.0565 C   0  0  0  0  0  0  0  0  0  0  0  0
   11.5181  -17.7572   25.4911 C   0  0  0  0  0  0  0  0  0  0  0  0
   10.1752  -17.1687   25.7532 C   0  0  2  0  0  0  0  0  0  0  0  0
    9.9031  -16.0205   24.8937 N   0  0  0  0  0  0  0  0  0  0  0  0
   10.1351  -16.6559   27.1492 C   0  0  0  0  0  0  0  0  0  0  0  0
   10.0310  -15.4462   27.3817 O   0  0  0  0  0  0  0  0  0  0  0  0
   10.2133  -17.5237   28.2564 O   0  0  0  0  0  0  0  0  0  0  0  0
  1  2  1  0
  3  5  1  0
  3  2  1  0
  3  4  1  1
  5  7  1  0
  5  6  1  6
  7  8  2  0
  9 10  1  0
  9  7  1  0
 10 17  1  0
 11 12  1  0
 10 11  1  1
 12 13  2  0
 13 14  1  0
 15 14  1  0
 16 12  1  0
 16 15  2  0
 17 27  1  0
 17 18  2  0
 19 20  1  0
 20 22  1  0
 21 20  2  0
 23 22  1  0
 23 24  1  0
 24 25  1  0
 26 25  1  6
 26 28  1  0
 27 26  1  0
 28 29  2  0
 28 30  1  0
M  END
$$$$
