IHR.pdb
     RDKit          3D

 30 30  0  0  1  0  0  0  0  0999 V2000
    6.7806  -12.0905   19.4406 C   0  0  0  0  0  0  0  0  0  0  0  0
    7.5349  -13.2642   18.8701 C   0  0  0  0  0  0  0  0  0  0  0  0
    8.0825  -14.1902   19.9191 C   0  0  2  0  0  0  0  0  0  0  0  0
    8.9938  -13.3577   20.7990 C   0  0  0  0  0  0  0  0  0  0  0  0
    8.7830  -15.3428   19.2931 C   0  0  2  0  0  0  0  0  0  0  0  0
    7.8848  -16.1216   18.4439 N   0  0  0  0  0  0  0  0  0  0  0  0
    9.3966  -16.2407   20.3037 C   0  0  0  0  0  0  0  0  0  0  0  0
    8.7788  -17.1876   20.8595 O   0  0  0  0  0  0  0  0  0  0  0  0
   10.7448  -16.0508   20.6858 N   0  0  0  0  0  0  0  0  0  0  0  0
   11.3420  -16.9702   21.7457 C   0  0  1  0  0  0  0  0  0  0  0  0
   12.7384  -17.1465   21.2387 C   0  0  0  0  0  0  0  0  0  0  0  0
   13.7090  -17.8590   22.0449 C   0  0  0  0  0  0  0  0  0  0  0  0
   13.6351  -18.4906   23.2531 C   0  0  0  0  0  0  0  0  0  0  0  0
   14.8258  -19.0941   23.5471 N   0  0  0  0  0  0  0  0  0  0  0  0
   15.6207  -18.8253   22.5093 C   0  0  0  0  0  0  0  0  0  0  0  0
   14.9787  -18.0985   21.6143 N   0  0  0  0  0  0  0  0  0  0  0  0
   11.2419  -16.1701   23.0012 C   0  0  0  0  0  0  0  0  0  0  0  0
   11.1052  -14.8916   22.8938 O   0  0  0  0  0  0  0  0  0  0  0  0
    4.6964  -20.0857   23.0414 N   0  0  0  0  0  0  0  0  0  0  0  0
    5.5033  -20.5869   24.0951 C   0  0  0  0  0  0  0  0  0  0  0  0
    5.2780  -21.7948   24.5440 N   0  0  0  0  0  0  0  0  0  0  0  0
    6.5451  -19.7937   24.6606 N   0  0  0  0  0  0  0  0  0  0  0  0
    6.6522  -18.3924   24.3520 C   0  0  0  0  0  0  0  0  0  0  0  0
    7.7770  -17.7799   25.1600 C   0  0  0  0  0  0  0  0  0  0  0  0
    8.9777  -17.4643   24.3448 C   0  0  0  0  0  0  0  0  0  0  0  0
   10.0727  -16.8209   25.1229 C   0  0  2  0  0  0  0  0  0  0  0  0
   11.2733  -16.6212   24.3169 N   0  0  0  0  0  0  0  0  0  0  0  0
   10.4705  -17.7234   26.2366 C   0  0  0  0  0  0  0  0  0  0  0  0
    9.9172  -17.6571   27.3401 O   0  0  0  0  0  0  0  0  0  0  0  0
   11.4883  -18.6849   26.0794 O   0  0  0  0  0  0  0  0  0  0  0  0
  1  2  1  0
  3  5  1  0
  3  2  1  0
  3  4  1  1
  5  7  1  0
  5  6  1  1
  7  8  2  0
  9 10  1  0
  9  7  1  0
 10 17  1  0
 11 12  1  0
 10 11  1  6
 12 13  2  0
 13 14  1  0
 15 14  1  0
 16 12  1  0
 16 15  2  0
 17 27  1  0
 17 18  2  0
 19 20  1  0
 20 22  1  0
 21 20  2  0
 23 22  1  0
 23 24  1  0
 24 25  1  0
 26 25  1  6
 26 28  1  0
 27 26  1  0
 28 29  2  0
 28 30  1  0
M  END
$$$$
