IHR.pdb
     RDKit          3D

 30 30  0  0  1  0  0  0  0  0999 V2000
    7.6514  -11.4519   19.5179 C   0  0  0  0  0  0  0  0  0  0  0  0
    8.0378  -12.7330   18.8242 C   0  0  0  0  0  0  0  0  0  0  0  0
    8.1837  -13.8995   19.7600 C   0  0  2  0  0  0  0  0  0  0  0  0
    9.2190  -13.4998   20.7925 C   0  0  0  0  0  0  0  0  0  0  0  0
    8.5591  -15.1307   19.0156 C   0  0  2  0  0  0  0  0  0  0  0  0
    7.5375  -15.5019   18.0395 N   0  0  0  0  0  0  0  0  0  0  0  0
    8.8051  -16.2799   19.9226 C   0  0  0  0  0  0  0  0  0  0  0  0
    7.8846  -16.9618   20.4469 O   0  0  0  0  0  0  0  0  0  0  0  0
   10.1317  -16.6562   20.2359 N   0  0  0  0  0  0  0  0  0  0  0  0
   10.3557  -17.7937   21.2266 C   0  0  1  0  0  0  0  0  0  0  0  0
   11.2869  -18.6800   20.4613 C   0  0  0  0  0  0  0  0  0  0  0  0
   10.7498  -19.6372   19.5153 C   0  0  0  0  0  0  0  0  0  0  0  0
    9.5872  -20.3515   19.4687 C   0  0  0  0  0  0  0  0  0  0  0  0
    9.5140  -21.0641   18.3044 N   0  0  0  0  0  0  0  0  0  0  0  0
   10.6384  -20.7760   17.6459 C   0  0  0  0  0  0  0  0  0  0  0  0
   11.3785  -19.9361   18.3447 N   0  0  0  0  0  0  0  0  0  0  0  0
   10.9795  -17.1180   22.4016 C   0  0  0  0  0  0  0  0  0  0  0  0
   11.8737  -16.2157   22.1756 O   0  0  0  0  0  0  0  0  0  0  0  0
    9.8578  -16.5426   29.6535 N   0  0  0  0  0  0  0  0  0  0  0  0
   10.3315  -15.2404   29.9574 C   0  0  0  0  0  0  0  0  0  0  0  0
   10.7936  -15.0000   31.1574 N   0  0  0  0  0  0  0  0  0  0  0  0
   10.3084  -14.2052   28.9765 N   0  0  0  0  0  0  0  0  0  0  0  0
    9.8330  -14.4659   27.6436 C   0  0  0  0  0  0  0  0  0  0  0  0
   10.7812  -15.4171   26.9442 C   0  0  0  0  0  0  0  0  0  0  0  0
   10.4130  -15.6739   25.5284 C   0  0  0  0  0  0  0  0  0  0  0  0
   11.3713  -16.5647   24.8168 C   0  0  2  0  0  0  0  0  0  0  0  0
   10.7242  -17.3270   23.7532 N   0  0  0  0  0  0  0  0  0  0  0  0
   11.9039  -17.5687   25.7767 C   0  0  0  0  0  0  0  0  0  0  0  0
   11.4039  -18.6960   25.8636 O   0  0  0  0  0  0  0  0  0  0  0  0
   12.9936  -17.2769   26.6207 O   0  0  0  0  0  0  0  0  0  0  0  0
  1  2  1  0
  3  5  1  0
  3  2  1  0
  3  4  1  1
  5  7  1  0
  5  6  1  6
  7  8  2  0
  9 10  1  0
  9  7  1  0
 10 17  1  0
 11 12  1  0
 10 11  1  6
 12 13  2  0
 13 14  1  0
 15 14  1  0
 16 12  1  0
 16 15  2  0
 17 27  1  0
 17 18  2  0
 19 20  1  0
 20 22  1  0
 21 20  2  0
 23 22  1  0
 23 24  1  0
 24 25  1  0
 26 25  1  1
 26 28  1  0
 27 26  1  0
 28 29  2  0
 28 30  1  0
M  END
$$$$
