IHR.pdb
     RDKit          3D

 30 30  0  0  1  0  0  0  0  0999 V2000
    8.5217  -12.6838   18.1888 C   0  0  0  0  0  0  0  0  0  0  0  0
    7.4927  -13.5636   18.8515 C   0  0  0  0  0  0  0  0  0  0  0  0
    7.8758  -13.9902   20.2404 C   0  0  2  0  0  0  0  0  0  0  0  0
    9.2276  -14.6668   20.1285 C   0  0  0  0  0  0  0  0  0  0  0  0
    6.8358  -14.8764   20.8270 C   0  0  2  0  0  0  0  0  0  0  0  0
    5.5043  -14.2837   20.7257 N   0  0  0  0  0  0  0  0  0  0  0  0
    7.1156  -15.2032   22.2479 C   0  0  0  0  0  0  0  0  0  0  0  0
    7.0807  -14.3532   23.1771 O   0  0  0  0  0  0  0  0  0  0  0  0
    7.4419  -16.5299   22.6125 N   0  0  0  0  0  0  0  0  0  0  0  0
    7.8015  -16.8228   24.0652 C   0  0  1  0  0  0  0  0  0  0  0  0
    6.7756  -17.8496   24.4278 C   0  0  0  0  0  0  0  0  0  0  0  0
    6.9394  -18.6303   25.6375 C   0  0  0  0  0  0  0  0  0  0  0  0
    7.7802  -18.5269   26.7083 C   0  0  0  0  0  0  0  0  0  0  0  0
    7.4738  -19.4733   27.6458 N   0  0  0  0  0  0  0  0  0  0  0  0
    6.4418  -20.1494   27.1370 C   0  0  0  0  0  0  0  0  0  0  0  0
    6.1134  -19.6659   25.9538 N   0  0  0  0  0  0  0  0  0  0  0  0
    9.1946  -17.3506   23.9824 C   0  0  0  0  0  0  0  0  0  0  0  0
    9.4514  -18.2405   23.0841 O   0  0  0  0  0  0  0  0  0  0  0  0
   15.3266  -14.4429   20.1581 N   0  0  0  0  0  0  0  0  0  0  0  0
   13.9669  -14.6136   19.7912 C   0  0  0  0  0  0  0  0  0  0  0  0
   13.5713  -14.1926   18.6175 N   0  0  0  0  0  0  0  0  0  0  0  0
   13.0404  -15.2332   20.6811 N   0  0  0  0  0  0  0  0  0  0  0  0
   13.4716  -15.7354   21.9588 C   0  0  0  0  0  0  0  0  0  0  0  0
   12.2897  -16.3310   22.6945 C   0  0  0  0  0  0  0  0  0  0  0  0
   12.6301  -16.8060   24.0600 C   0  0  0  0  0  0  0  0  0  0  0  0
   11.5864  -17.6812   24.6627 C   0  0  2  0  0  0  0  0  0  0  0  0
   10.2955  -17.0066   24.7605 N   0  0  0  0  0  0  0  0  0  0  0  0
   11.9817  -18.0168   26.0571 C   0  0  0  0  0  0  0  0  0  0  0  0
   11.3860  -17.5284   27.0240 O   0  0  0  0  0  0  0  0  0  0  0  0
   13.0448  -18.9000   26.3303 O   0  0  0  0  0  0  0  0  0  0  0  0
  1  2  1  0
  3  5  1  0
  3  2  1  0
  3  4  1  6
  5  7  1  0
  5  6  1  1
  7  8  2  0
  9 10  1  0
  9  7  1  0
 10 17  1  0
 11 12  1  0
 10 11  1  6
 12 13  2  0
 13 14  1  0
 15 14  1  0
 16 12  1  0
 16 15  2  0
 17 27  1  0
 17 18  2  0
 19 20  1  0
 20 22  1  0
 21 20  2  0
 23 22  1  0
 23 24  1  0
 24 25  1  0
 26 25  1  1
 26 28  1  0
 27 26  1  0
 28 29  2  0
 28 30  1  0
M  END
$$$$
