KDE.pdb
     RDKit          3D

 27 26  0  0  1  0  0  0  0  0999 V2000
   19.2396  -11.6434  -17.1548 N   0  0  0  0  0  0  0  0  0  0  0  0
   18.1997  -10.9389  -16.4797 C   0  0  1  0  0  0  0  0  0  0  0  0
   18.0389  -11.4001  -15.0699 C   0  0  0  0  0  0  0  0  0  0  0  0
   17.3898  -12.7258  -14.8840 C   0  0  0  0  0  0  0  0  0  0  0  0
   15.9137  -12.7675  -15.0547 C   0  0  0  0  0  0  0  0  0  0  0  0
   15.3035  -14.1332  -14.9079 C   0  0  0  0  0  0  0  0  0  0  0  0
   13.8730  -14.0086  -15.1618 N   0  0  0  0  0  0  0  0  0  0  0  0
   18.2374   -9.4702  -16.6169 C   0  0  0  0  0  0  0  0  0  0  0  0
   19.3684   -8.8755  -16.5738 O   0  0  0  0  0  0  0  0  0  0  0  0
   17.1116   -8.6244  -16.7963 N   0  0  0  0  0  0  0  0  0  0  0  0
   17.1927   -7.1970  -17.0401 C   0  0  1  0  0  0  0  0  0  0  0  0
   15.8830   -6.5541  -17.3507 C   0  0  0  0  0  0  0  0  0  0  0  0
   16.0844   -5.1604  -17.7700 C   0  0  0  0  0  0  0  0  0  0  0  0
   17.0787   -4.8415  -18.4624 O   0  0  0  0  0  0  0  0  0  0  0  0
   17.7703   -6.4795  -15.8687 C   0  0  0  0  0  0  0  0  0  0  0  0
   17.4890   -6.8559  -14.7056 O   0  0  0  0  0  0  0  0  0  0  0  0
   15.1972   -4.1341  -17.4271 O   0  0  0  0  0  0  0  0  0  0  0  0
   18.6292   -5.3834  -16.0451 N   0  0  0  0  0  0  0  0  0  0  0  0
   19.2716   -4.6691  -14.9575 C   0  0  1  0  0  0  0  0  0  0  0  0
   20.3197   -5.5154  -14.2632 C   0  0  0  0  0  0  0  0  0  0  0  0
   21.5199   -5.7190  -15.1318 C   0  0  0  0  0  0  0  0  0  0  0  0
   22.3832   -6.7806  -14.5699 C   0  0  0  0  0  0  0  0  0  0  0  0
   22.1687   -7.1740  -13.3999 O   0  0  0  0  0  0  0  0  0  0  0  0
   19.9166   -3.4613  -15.5344 C   0  0  0  0  0  0  0  0  0  0  0  0
   19.9095   -3.1875  -16.7617 O   0  0  0  0  0  0  0  0  0  0  0  0
   23.4201   -7.3655  -15.2700 O   0  0  0  0  0  0  0  0  0  0  0  0
   20.5852   -2.5407  -14.7080 O   0  0  0  0  0  0  0  0  0  0  0  0
  2  1  1  1
  2  3  1  0
  3  4  1  0
  4  5  1  0
  6  5  1  0
  7  6  1  0
  8  2  1  0
  9  8  2  0
 10  8  1  0
 11 10  1  0
 12 13  1  0
 11 12  1  1
 13 17  1  0
 14 13  2  0
 15 11  1  0
 15 18  1  0
 16 15  2  0
 19 24  1  0
 19 18  1  0
 20 21  1  0
 19 20  1  6
 21 22  1  0
 22 23  2  0
 22 26  1  0
 24 27  1  0
 25 24  2  0
M  END
$$$$
