KDE.pdb
     RDKit          3D

 27 26  0  0  1  0  0  0  0  0999 V2000
   27.2698  -21.5565  -10.4429 N   0  0  0  0  0  0  0  0  0  0  0  0
   27.3695  -20.7384  -11.6066 C   0  0  1  0  0  0  0  0  0  0  0  0
   28.6851  -20.9020  -12.2913 C   0  0  0  0  0  0  0  0  0  0  0  0
   29.8578  -21.1441  -11.4083 C   0  0  0  0  0  0  0  0  0  0  0  0
   29.5614  -21.4162   -9.9774 C   0  0  0  0  0  0  0  0  0  0  0  0
   30.7734  -21.6382   -9.1167 C   0  0  0  0  0  0  0  0  0  0  0  0
   30.3203  -21.7559   -7.7357 N   0  0  0  0  0  0  0  0  0  0  0  0
   26.2169  -20.8016  -12.5257 C   0  0  0  0  0  0  0  0  0  0  0  0
   26.2942  -20.2054  -13.6541 O   0  0  0  0  0  0  0  0  0  0  0  0
   24.9932  -21.4767  -12.2768 N   0  0  0  0  0  0  0  0  0  0  0  0
   23.9807  -21.7304  -13.2837 C   0  0  1  0  0  0  0  0  0  0  0  0
   23.7400  -23.1768  -13.5583 C   0  0  0  0  0  0  0  0  0  0  0  0
   22.7103  -23.3359  -14.5943 C   0  0  0  0  0  0  0  0  0  0  0  0
   21.5012  -23.4320  -14.2804 O   0  0  0  0  0  0  0  0  0  0  0  0
   22.6721  -21.1300  -12.8991 C   0  0  0  0  0  0  0  0  0  0  0  0
   22.2264  -21.2961  -11.7384 O   0  0  0  0  0  0  0  0  0  0  0  0
   23.0155  -23.3881  -15.9590 O   0  0  0  0  0  0  0  0  0  0  0  0
   21.9252  -20.3770  -13.8186 N   0  0  0  0  0  0  0  0  0  0  0  0
   20.6987  -19.6746  -13.4899 C   0  0  1  0  0  0  0  0  0  0  0  0
   20.2268  -18.7928  -14.6285 C   0  0  0  0  0  0  0  0  0  0  0  0
   19.6263  -19.6025  -15.7332 C   0  0  0  0  0  0  0  0  0  0  0  0
   19.9389  -18.9908  -17.0432 C   0  0  0  0  0  0  0  0  0  0  0  0
   20.5800  -17.9147  -17.0671 O   0  0  0  0  0  0  0  0  0  0  0  0
   19.6618  -20.6976  -13.1966 C   0  0  0  0  0  0  0  0  0  0  0  0
   18.5316  -20.4255  -12.7172 O   0  0  0  0  0  0  0  0  0  0  0  0
   19.5594  -19.5455  -18.2497 O   0  0  0  0  0  0  0  0  0  0  0  0
   19.9052  -22.0593  -13.4498 O   0  0  0  0  0  0  0  0  0  0  0  0
  2  1  1  1
  2  3  1  0
  3  4  1  0
  4  5  1  0
  6  5  1  0
  7  6  1  0
  8  2  1  0
  9  8  2  0
 10  8  1  0
 11 10  1  0
 12 13  1  0
 11 12  1  1
 13 17  1  0
 14 13  2  0
 15 11  1  0
 15 18  1  0
 16 15  2  0
 19 24  1  0
 19 18  1  0
 20 21  1  0
 19 20  1  6
 21 22  1  0
 22 23  2  0
 22 26  1  0
 24 27  1  0
 25 24  2  0
M  END
$$$$
