KDE.pdb
     RDKit          3D

 27 26  0  0  1  0  0  0  0  0999 V2000
   11.9992   -9.8639   -8.7757 N   0  0  0  0  0  0  0  0  0  0  0  0
   13.1601  -10.0478   -9.5832 C   0  0  1  0  0  0  0  0  0  0  0  0
   12.8607  -10.8277  -10.8194 C   0  0  0  0  0  0  0  0  0  0  0  0
   12.1904  -12.1408  -10.6197 C   0  0  0  0  0  0  0  0  0  0  0  0
   13.0806  -13.3263  -10.5106 C   0  0  0  0  0  0  0  0  0  0  0  0
   12.3662  -14.6281  -10.2788 C   0  0  0  0  0  0  0  0  0  0  0  0
   13.3741  -15.6794  -10.2058 N   0  0  0  0  0  0  0  0  0  0  0  0
   13.9559   -8.8308   -9.8344 C   0  0  0  0  0  0  0  0  0  0  0  0
   13.4575   -7.9080  -10.5657 O   0  0  0  0  0  0  0  0  0  0  0  0
   15.2583   -8.5727   -9.3324 N   0  0  0  0  0  0  0  0  0  0  0  0
   16.0436   -7.3992   -9.6633 C   0  0  1  0  0  0  0  0  0  0  0  0
   16.3172   -6.4998   -8.5050 C   0  0  0  0  0  0  0  0  0  0  0  0
   17.1671   -5.3755   -8.9205 C   0  0  0  0  0  0  0  0  0  0  0  0
   16.8668   -4.6876   -9.9236 O   0  0  0  0  0  0  0  0  0  0  0  0
   17.3603   -7.7765  -10.2503 C   0  0  0  0  0  0  0  0  0  0  0  0
   18.1463   -8.5077   -9.6014 O   0  0  0  0  0  0  0  0  0  0  0  0
   18.3333   -5.0183   -8.2347 O   0  0  0  0  0  0  0  0  0  0  0  0
   17.7384   -7.3256  -11.5248 N   0  0  0  0  0  0  0  0  0  0  0  0
   18.9824   -7.6854  -12.1796 C   0  0  1  0  0  0  0  0  0  0  0  0
   18.7533   -8.5786  -13.3823 C   0  0  0  0  0  0  0  0  0  0  0  0
   20.0465   -8.9940  -14.0080 C   0  0  0  0  0  0  0  0  0  0  0  0
   19.7912   -9.7909  -15.2278 C   0  0  0  0  0  0  0  0  0  0  0  0
   18.6057   -9.9767  -15.5879 O   0  0  0  0  0  0  0  0  0  0  0  0
   19.6376   -6.4262  -12.6187 C   0  0  0  0  0  0  0  0  0  0  0  0
   19.0268   -5.3359  -12.7584 O   0  0  0  0  0  0  0  0  0  0  0  0
   20.7960  -10.3449  -15.9965 O   0  0  0  0  0  0  0  0  0  0  0  0
   21.0136   -6.3958  -12.9071 O   0  0  0  0  0  0  0  0  0  0  0  0
  2  1  1  6
  2  3  1  0
  3  4  1  0
  4  5  1  0
  6  5  1  0
  7  6  1  0
  8  2  1  0
  9  8  2  0
 10  8  1  0
 11 10  1  0
 12 13  1  0
 11 12  1  1
 13 17  1  0
 14 13  2  0
 15 11  1  0
 15 18  1  0
 16 15  2  0
 19 24  1  0
 19 18  1  0
 20 21  1  0
 19 20  1  6
 21 22  1  0
 22 23  2  0
 22 26  1  0
 24 27  1  0
 25 24  2  0
M  END
$$$$
