KDE.pdb
     RDKit          3D

 27 26  0  0  1  0  0  0  0  0999 V2000
   18.4294  -11.5141  -14.8174 N   0  0  0  0  0  0  0  0  0  0  0  0
   18.7944  -10.4831  -15.7324 C   0  0  1  0  0  0  0  0  0  0  0  0
   17.8131  -10.3565  -16.8492 C   0  0  0  0  0  0  0  0  0  0  0  0
   16.4230  -10.7964  -16.5531 C   0  0  0  0  0  0  0  0  0  0  0  0
   15.9018  -11.9274  -17.3648 C   0  0  0  0  0  0  0  0  0  0  0  0
   14.4559  -12.2589  -17.1235 C   0  0  0  0  0  0  0  0  0  0  0  0
   14.1576  -13.4905  -17.8448 N   0  0  0  0  0  0  0  0  0  0  0  0
   19.1561   -9.1908  -15.1187 C   0  0  0  0  0  0  0  0  0  0  0  0
   18.3415   -8.6495  -14.2952 O   0  0  0  0  0  0  0  0  0  0  0  0
   20.3523   -8.4647  -15.3574 N   0  0  0  0  0  0  0  0  0  0  0  0
   20.6592   -7.1779  -14.7632 C   0  0  1  0  0  0  0  0  0  0  0  0
   22.1116   -6.9531  -14.5072 C   0  0  0  0  0  0  0  0  0  0  0  0
   22.3182   -5.6643  -13.8325 C   0  0  0  0  0  0  0  0  0  0  0  0
   21.8252   -5.4524  -12.7004 O   0  0  0  0  0  0  0  0  0  0  0  0
   20.1834   -6.0572  -15.6225 C   0  0  0  0  0  0  0  0  0  0  0  0
   20.3430   -6.1128  -16.8654 O   0  0  0  0  0  0  0  0  0  0  0  0
   23.0604   -4.6247  -14.4038 O   0  0  0  0  0  0  0  0  0  0  0  0
   19.5556   -4.9339  -15.0619 N   0  0  0  0  0  0  0  0  0  0  0  0
   18.9894   -3.8460  -15.8375 C   0  0  1  0  0  0  0  0  0  0  0  0
   17.9131   -3.1029  -15.0718 C   0  0  0  0  0  0  0  0  0  0  0  0
   17.3146   -2.0076  -15.8956 C   0  0  0  0  0  0  0  0  0  0  0  0
   16.2835   -1.2876  -15.1169 C   0  0  0  0  0  0  0  0  0  0  0  0
   15.9786   -1.7176  -13.9804 O   0  0  0  0  0  0  0  0  0  0  0  0
   20.0945   -2.9094  -16.1682 C   0  0  0  0  0  0  0  0  0  0  0  0
   21.1299   -2.7792  -15.4664 O   0  0  0  0  0  0  0  0  0  0  0  0
   15.6344   -0.1592  -15.5781 O   0  0  0  0  0  0  0  0  0  0  0  0
   20.0307   -2.1010  -17.3170 O   0  0  0  0  0  0  0  0  0  0  0  0
  2  1  1  1
  2  3  1  0
  3  4  1  0
  4  5  1  0
  6  5  1  0
  7  6  1  0
  8  2  1  0
  9  8  2  0
 10  8  1  0
 11 10  1  0
 12 13  1  0
 11 12  1  6
 13 17  1  0
 14 13  2  0
 15 11  1  0
 15 18  1  0
 16 15  2  0
 19 24  1  0
 19 18  1  0
 20 21  1  0
 19 20  1  1
 21 22  1  0
 22 23  2  0
 22 26  1  0
 24 27  1  0
 25 24  2  0
M  END
$$$$
