KDE.pdb
     RDKit          3D

 27 26  0  0  1  0  0  0  0  0999 V2000
   19.1783  -11.1257  -15.0793 N   0  0  0  0  0  0  0  0  0  0  0  0
   18.8661   -9.9771  -15.8645 C   0  0  1  0  0  0  0  0  0  0  0  0
   17.5204  -10.0858  -16.4998 C   0  0  0  0  0  0  0  0  0  0  0  0
   16.9974  -11.4648  -16.6952 C   0  0  0  0  0  0  0  0  0  0  0  0
   15.7265  -11.7935  -15.9977 C   0  0  0  0  0  0  0  0  0  0  0  0
   15.1467  -13.1349  -16.3491 C   0  0  0  0  0  0  0  0  0  0  0  0
   13.9095  -13.2941  -15.5940 N   0  0  0  0  0  0  0  0  0  0  0  0
   19.1022   -8.6773  -15.2070 C   0  0  0  0  0  0  0  0  0  0  0  0
   18.2477   -8.2522  -14.3563 O   0  0  0  0  0  0  0  0  0  0  0  0
   20.2149   -7.8246  -15.4301 N   0  0  0  0  0  0  0  0  0  0  0  0
   20.4002   -6.5381  -14.7867 C   0  0  1  0  0  0  0  0  0  0  0  0
   21.8221   -6.2060  -14.4815 C   0  0  0  0  0  0  0  0  0  0  0  0
   21.8933   -5.0858  -13.5333 C   0  0  0  0  0  0  0  0  0  0  0  0
   23.0014   -4.6625  -13.1303 O   0  0  0  0  0  0  0  0  0  0  0  0
   19.8577   -5.4309  -15.6234 C   0  0  0  0  0  0  0  0  0  0  0  0
   20.3180   -5.2348  -16.7737 O   0  0  0  0  0  0  0  0  0  0  0  0
   20.7529   -4.4435  -13.0383 O   0  0  0  0  0  0  0  0  0  0  0  0
   18.8339   -4.5986  -15.1441 N   0  0  0  0  0  0  0  0  0  0  0  0
   18.2688   -3.4903  -15.8912 C   0  0  1  0  0  0  0  0  0  0  0  0
   16.7891   -3.6809  -16.1574 C   0  0  0  0  0  0  0  0  0  0  0  0
   16.0318   -3.9134  -14.8889 C   0  0  0  0  0  0  0  0  0  0  0  0
   14.5976   -4.1265  -15.1817 C   0  0  0  0  0  0  0  0  0  0  0  0
   14.1799   -5.2993  -15.3214 O   0  0  0  0  0  0  0  0  0  0  0  0
   18.4698   -2.2584  -15.0853 C   0  0  0  0  0  0  0  0  0  0  0  0
   18.1278   -1.1112  -15.4704 O   0  0  0  0  0  0  0  0  0  0  0  0
   13.6880   -3.0953  -15.3104 O   0  0  0  0  0  0  0  0  0  0  0  0
   19.0706   -2.3216  -13.8154 O   0  0  0  0  0  0  0  0  0  0  0  0
  2  1  1  1
  2  3  1  0
  3  4  1  0
  4  5  1  0
  6  5  1  0
  7  6  1  0
  8  2  1  0
  9  8  2  0
 10  8  1  0
 11 10  1  0
 12 13  1  0
 11 12  1  6
 13 17  1  0
 14 13  2  0
 15 11  1  0
 15 18  1  0
 16 15  2  0
 19 24  1  0
 19 18  1  0
 20 21  1  0
 19 20  1  1
 21 22  1  0
 22 23  2  0
 22 26  1  0
 24 27  1  0
 25 24  2  0
M  END
$$$$
