KDE.pdb
     RDKit          3D

 27 26  0  0  1  0  0  0  0  0999 V2000
   20.2158  -12.9202  -16.0063 N   0  0  0  0  0  0  0  0  0  0  0  0
   20.5814  -12.0102  -17.0415 C   0  0  1  0  0  0  0  0  0  0  0  0
   20.1391  -12.4873  -18.3842 C   0  0  0  0  0  0  0  0  0  0  0  0
   20.5272  -13.8772  -18.7465 C   0  0  0  0  0  0  0  0  0  0  0  0
   19.5909  -14.9537  -18.3295 C   0  0  0  0  0  0  0  0  0  0  0  0
   19.9532  -16.3264  -18.8230 C   0  0  0  0  0  0  0  0  0  0  0  0
   18.9200  -17.2482  -18.3660 N   0  0  0  0  0  0  0  0  0  0  0  0
   20.2552  -10.5943  -16.7843 C   0  0  0  0  0  0  0  0  0  0  0  0
   20.4222   -9.7424  -17.7229 O   0  0  0  0  0  0  0  0  0  0  0  0
   19.7608  -10.0653  -15.5633 N   0  0  0  0  0  0  0  0  0  0  0  0
   19.3047   -8.6995  -15.3900 C   0  0  1  0  0  0  0  0  0  0  0  0
   18.1701   -8.5503  -14.4330 C   0  0  0  0  0  0  0  0  0  0  0  0
   17.0391   -9.3926  -14.8459 C   0  0  0  0  0  0  0  0  0  0  0  0
   16.4185   -9.1494  -15.9067 O   0  0  0  0  0  0  0  0  0  0  0  0
   20.4060   -7.8176  -14.9105 C   0  0  0  0  0  0  0  0  0  0  0  0
   21.2181   -8.2428  -14.0542 O   0  0  0  0  0  0  0  0  0  0  0  0
   16.6015  -10.4888  -14.0942 O   0  0  0  0  0  0  0  0  0  0  0  0
   20.5515   -6.5114  -15.4036 N   0  0  0  0  0  0  0  0  0  0  0  0
   21.6339   -5.6179  -15.0349 C   0  0  1  0  0  0  0  0  0  0  0  0
   21.6119   -4.3358  -15.8427 C   0  0  0  0  0  0  0  0  0  0  0  0
   22.7528   -3.4407  -15.4772 C   0  0  0  0  0  0  0  0  0  0  0  0
   22.7191   -2.2095  -16.2963 C   0  0  0  0  0  0  0  0  0  0  0  0
   22.0459   -2.2081  -17.3529 O   0  0  0  0  0  0  0  0  0  0  0  0
   21.4762   -5.2947  -13.5932 C   0  0  0  0  0  0  0  0  0  0  0  0
   22.4030   -4.8365  -12.8773 O   0  0  0  0  0  0  0  0  0  0  0  0
   23.3942   -1.0535  -15.9569 O   0  0  0  0  0  0  0  0  0  0  0  0
   20.2447   -5.4927  -12.9438 O   0  0  0  0  0  0  0  0  0  0  0  0
  2  1  1  1
  2  3  1  0
  3  4  1  0
  4  5  1  0
  6  5  1  0
  7  6  1  0
  8  2  1  0
  9  8  2  0
 10  8  1  0
 11 10  1  0
 12 13  1  0
 11 12  1  1
 13 17  1  0
 14 13  2  0
 15 11  1  0
 15 18  1  0
 16 15  2  0
 19 24  1  0
 19 18  1  0
 20 21  1  0
 19 20  1  6
 21 22  1  0
 22 23  2  0
 22 26  1  0
 24 27  1  0
 25 24  2  0
M  END
$$$$
