KDE.pdb
     RDKit          3D

 27 26  0  0  1  0  0  0  0  0999 V2000
   27.8848  -22.1761  -17.0577 N   0  0  0  0  0  0  0  0  0  0  0  0
   26.5377  -22.3306  -17.4993 C   0  0  1  0  0  0  0  0  0  0  0  0
   26.3306  -23.6242  -18.2133 C   0  0  0  0  0  0  0  0  0  0  0  0
   27.4756  -24.5739  -18.1942 C   0  0  0  0  0  0  0  0  0  0  0  0
   27.3660  -25.7209  -17.2551 C   0  0  0  0  0  0  0  0  0  0  0  0
   28.5132  -26.6903  -17.3120 C   0  0  0  0  0  0  0  0  0  0  0  0
   28.3344  -27.6519  -16.2306 N   0  0  0  0  0  0  0  0  0  0  0  0
   25.5029  -22.0462  -16.4865 C   0  0  0  0  0  0  0  0  0  0  0  0
   24.2769  -22.2589  -16.7806 O   0  0  0  0  0  0  0  0  0  0  0  0
   25.7368  -21.5443  -15.1794 N   0  0  0  0  0  0  0  0  0  0  0  0
   24.6967  -21.3086  -14.1965 C   0  0  1  0  0  0  0  0  0  0  0  0
   25.1974  -21.1638  -12.7988 C   0  0  0  0  0  0  0  0  0  0  0  0
   24.0739  -21.1522  -11.8520 C   0  0  0  0  0  0  0  0  0  0  0  0
   22.8945  -21.2518  -12.2627 O   0  0  0  0  0  0  0  0  0  0  0  0
   23.9179  -20.0791  -14.5164 C   0  0  0  0  0  0  0  0  0  0  0  0
   24.5142  -19.0461  -14.9049 O   0  0  0  0  0  0  0  0  0  0  0  0
   24.2541  -21.0318  -10.4696 O   0  0  0  0  0  0  0  0  0  0  0  0
   22.5200  -20.0567  -14.3902 N   0  0  0  0  0  0  0  0  0  0  0  0
   21.6442  -19.2164  -15.1856 C   0  0  1  0  0  0  0  0  0  0  0  0
   21.8378  -19.4410  -16.6718 C   0  0  0  0  0  0  0  0  0  0  0  0
   21.0445  -18.4637  -17.4794 C   0  0  0  0  0  0  0  0  0  0  0  0
   20.7274  -19.0356  -18.8062 C   0  0  0  0  0  0  0  0  0  0  0  0
   21.2862  -18.5532  -19.8185 O   0  0  0  0  0  0  0  0  0  0  0  0
   20.2448  -19.5510  -14.8149 C   0  0  0  0  0  0  0  0  0  0  0  0
   19.3873  -18.6917  -14.4867 O   0  0  0  0  0  0  0  0  0  0  0  0
   19.8425  -20.0798  -18.9907 O   0  0  0  0  0  0  0  0  0  0  0  0
   19.8021  -20.8858  -14.8141 O   0  0  0  0  0  0  0  0  0  0  0  0
  2  1  1  1
  2  3  1  0
  3  4  1  0
  4  5  1  0
  6  5  1  0
  7  6  1  0
  8  2  1  0
  9  8  2  0
 10  8  1  0
 11 10  1  0
 12 13  1  0
 11 12  1  1
 13 17  1  0
 14 13  2  0
 15 11  1  0
 15 18  1  0
 16 15  2  0
 19 24  1  0
 19 18  1  0
 20 21  1  0
 19 20  1  6
 21 22  1  0
 22 23  2  0
 22 26  1  0
 24 27  1  0
 25 24  2  0
M  END
$$$$
