KDE.pdb
     RDKit          3D

 27 26  0  0  1  0  0  0  0  0999 V2000
   27.7496  -19.5360  -16.2837 N   0  0  0  0  0  0  0  0  0  0  0  0
   26.9041  -20.6526  -16.5513 C   0  0  1  0  0  0  0  0  0  0  0  0
   27.6338  -21.7479  -17.2541 C   0  0  0  0  0  0  0  0  0  0  0  0
   29.0224  -21.4370  -17.6882 C   0  0  0  0  0  0  0  0  0  0  0  0
   29.1603  -20.5604  -18.8808 C   0  0  0  0  0  0  0  0  0  0  0  0
   30.5771  -20.3116  -19.3162 C   0  0  0  0  0  0  0  0  0  0  0  0
   30.5426  -19.3363  -20.3996 N   0  0  0  0  0  0  0  0  0  0  0  0
   26.0961  -21.1230  -15.4096 C   0  0  0  0  0  0  0  0  0  0  0  0
   25.2095  -22.0221  -15.6102 O   0  0  0  0  0  0  0  0  0  0  0  0
   26.2056  -20.6643  -14.0707 N   0  0  0  0  0  0  0  0  0  0  0  0
   25.2474  -20.9631  -13.0239 C   0  0  1  0  0  0  0  0  0  0  0  0
   25.7157  -20.6197  -11.6498 C   0  0  0  0  0  0  0  0  0  0  0  0
   24.8126  -21.1946  -10.6434 C   0  0  0  0  0  0  0  0  0  0  0  0
   23.8097  -21.8589  -10.9937 O   0  0  0  0  0  0  0  0  0  0  0  0
   23.9614  -20.2434  -13.2451 C   0  0  0  0  0  0  0  0  0  0  0  0
   23.9193  -18.9942  -13.1397 O   0  0  0  0  0  0  0  0  0  0  0  0
   25.0172  -21.0359   -9.2683 O   0  0  0  0  0  0  0  0  0  0  0  0
   22.7893  -20.9433  -13.5719 N   0  0  0  0  0  0  0  0  0  0  0  0
   21.5251  -20.3082  -13.8945 C   0  0  1  0  0  0  0  0  0  0  0  0
   21.0788  -20.6178  -15.3093 C   0  0  0  0  0  0  0  0  0  0  0  0
   19.8237  -19.8836  -15.6588 C   0  0  0  0  0  0  0  0  0  0  0  0
   19.3165  -20.3354  -16.9728 C   0  0  0  0  0  0  0  0  0  0  0  0
   19.9147  -21.2658  -17.5611 O   0  0  0  0  0  0  0  0  0  0  0  0
   20.5108  -20.8173  -12.9354 C   0  0  0  0  0  0  0  0  0  0  0  0
   20.5405  -21.9724  -12.4390 O   0  0  0  0  0  0  0  0  0  0  0  0
   18.2115  -19.7831  -17.5905 O   0  0  0  0  0  0  0  0  0  0  0  0
   19.4381  -20.0051  -12.5266 O   0  0  0  0  0  0  0  0  0  0  0  0
  2  1  1  1
  2  3  1  0
  3  4  1  0
  4  5  1  0
  6  5  1  0
  7  6  1  0
  8  2  1  0
  9  8  2  0
 10  8  1  0
 11 10  1  0
 12 13  1  0
 11 12  1  1
 13 17  1  0
 14 13  2  0
 15 11  1  0
 15 18  1  0
 16 15  2  0
 19 24  1  0
 19 18  1  0
 20 21  1  0
 19 20  1  6
 21 22  1  0
 22 23  2  0
 22 26  1  0
 24 27  1  0
 25 24  2  0
M  END
$$$$
