KDE.pdb
     RDKit          3D

 27 26  0  0  1  0  0  0  0  0999 V2000
   19.7262  -13.5497  -17.8720 N   0  0  0  0  0  0  0  0  0  0  0  0
   18.8855  -13.0772  -16.8215 C   0  0  1  0  0  0  0  0  0  0  0  0
   18.5927  -14.1438  -15.8202 C   0  0  0  0  0  0  0  0  0  0  0  0
   18.0284  -15.4109  -16.3583 C   0  0  0  0  0  0  0  0  0  0  0  0
   16.5571  -15.4413  -16.5680 C   0  0  0  0  0  0  0  0  0  0  0  0
   16.0161  -16.7662  -17.0274 C   0  0  0  0  0  0  0  0  0  0  0  0
   14.5652  -16.6471  -17.1109 N   0  0  0  0  0  0  0  0  0  0  0  0
   19.2918  -11.7956  -16.2133 C   0  0  0  0  0  0  0  0  0  0  0  0
   18.5853  -11.3121  -15.2636 O   0  0  0  0  0  0  0  0  0  0  0  0
   20.4210  -11.0208  -16.5870 N   0  0  0  0  0  0  0  0  0  0  0  0
   20.7669   -9.7428  -15.9951 C   0  0  1  0  0  0  0  0  0  0  0  0
   22.2112   -9.3869  -16.1088 C   0  0  0  0  0  0  0  0  0  0  0  0
   22.5053   -8.1849  -15.3166 C   0  0  0  0  0  0  0  0  0  0  0  0
   23.3444   -7.3466  -15.7198 O   0  0  0  0  0  0  0  0  0  0  0  0
   19.9883   -8.6319  -16.6116 C   0  0  0  0  0  0  0  0  0  0  0  0
   19.9417   -8.5204  -17.8602 O   0  0  0  0  0  0  0  0  0  0  0  0
   21.8789   -7.9153  -14.0947 O   0  0  0  0  0  0  0  0  0  0  0  0
   19.3014   -7.7026  -15.8147 N   0  0  0  0  0  0  0  0  0  0  0  0
   18.4923   -6.6192  -16.3414 C   0  0  1  0  0  0  0  0  0  0  0  0
   17.0748   -6.6573  -15.8065 C   0  0  0  0  0  0  0  0  0  0  0  0
   16.2451   -5.5533  -16.3801 C   0  0  0  0  0  0  0  0  0  0  0  0
   14.8598   -5.6363  -15.8682 C   0  0  0  0  0  0  0  0  0  0  0  0
   14.6745   -6.0404  -14.6969 O   0  0  0  0  0  0  0  0  0  0  0  0
   19.1368   -5.3425  -15.9386 C   0  0  0  0  0  0  0  0  0  0  0  0
   18.7777   -4.2160  -16.3671 O   0  0  0  0  0  0  0  0  0  0  0  0
   13.7520   -5.2902  -16.6168 O   0  0  0  0  0  0  0  0  0  0  0  0
   20.2113   -5.3358  -15.0315 O   0  0  0  0  0  0  0  0  0  0  0  0
  2  1  1  6
  2  3  1  0
  3  4  1  0
  4  5  1  0
  6  5  1  0
  7  6  1  0
  8  2  1  0
  9  8  2  0
 10  8  1  0
 11 10  1  0
 12 13  1  0
 11 12  1  6
 13 17  1  0
 14 13  2  0
 15 11  1  0
 15 18  1  0
 16 15  2  0
 19 24  1  0
 19 18  1  0
 20 21  1  0
 19 20  1  1
 21 22  1  0
 22 23  2  0
 22 26  1  0
 24 27  1  0
 25 24  2  0
M  END
$$$$
