KDE.pdb
     RDKit          3D

 27 26  0  0  1  0  0  0  0  0999 V2000
   23.4575  -12.3342  -19.4252 N   0  0  0  0  0  0  0  0  0  0  0  0
   22.6424  -12.1353  -18.2721 C   0  0  1  0  0  0  0  0  0  0  0  0
   22.4365  -13.4017  -17.5105 C   0  0  0  0  0  0  0  0  0  0  0  0
   22.2214  -14.6283  -18.3245 C   0  0  0  0  0  0  0  0  0  0  0  0
   22.2279  -15.9190  -17.5872 C   0  0  0  0  0  0  0  0  0  0  0  0
   21.9504  -17.1279  -18.4360 C   0  0  0  0  0  0  0  0  0  0  0  0
   21.9835  -18.2973  -17.5655 N   0  0  0  0  0  0  0  0  0  0  0  0
   23.0199  -10.9916  -17.4195 C   0  0  0  0  0  0  0  0  0  0  0  0
   22.4059  -10.8191  -16.3114 O   0  0  0  0  0  0  0  0  0  0  0  0
   24.0253  -10.0337  -17.7136 N   0  0  0  0  0  0  0  0  0  0  0  0
   24.3795   -8.9280  -16.8445 C   0  0  1  0  0  0  0  0  0  0  0  0
   25.7925   -8.4698  -16.9824 C   0  0  0  0  0  0  0  0  0  0  0  0
   26.7138   -9.4921  -16.4677 C   0  0  0  0  0  0  0  0  0  0  0  0
   26.3545  -10.2708  -15.5544 O   0  0  0  0  0  0  0  0  0  0  0  0
   23.5059   -7.7458  -17.0887 C   0  0  0  0  0  0  0  0  0  0  0  0
   23.4664   -7.2239  -18.2287 O   0  0  0  0  0  0  0  0  0  0  0  0
   28.0151   -9.6496  -16.9575 O   0  0  0  0  0  0  0  0  0  0  0  0
   22.7212   -7.2029  -16.0592 N   0  0  0  0  0  0  0  0  0  0  0  0
   21.7018   -6.1899  -16.2603 C   0  0  1  0  0  0  0  0  0  0  0  0
   20.3339   -6.6641  -15.8123 C   0  0  0  0  0  0  0  0  0  0  0  0
   19.2718   -5.6688  -16.1555 C   0  0  0  0  0  0  0  0  0  0  0  0
   17.9513   -6.1517  -15.6956 C   0  0  0  0  0  0  0  0  0  0  0  0
   17.2627   -5.4092  -14.9580 O   0  0  0  0  0  0  0  0  0  0  0  0
   22.0940   -4.9965  -15.4666 C   0  0  0  0  0  0  0  0  0  0  0  0
   22.5533   -5.0584  -14.2976 O   0  0  0  0  0  0  0  0  0  0  0  0
   17.4331   -7.3853  -16.0378 O   0  0  0  0  0  0  0  0  0  0  0  0
   21.9651   -3.7033  -16.0037 O   0  0  0  0  0  0  0  0  0  0  0  0
  2  1  1  6
  2  3  1  0
  3  4  1  0
  4  5  1  0
  6  5  1  0
  7  6  1  0
  8  2  1  0
  9  8  2  0
 10  8  1  0
 11 10  1  0
 12 13  1  0
 11 12  1  6
 13 17  1  0
 14 13  2  0
 15 11  1  0
 15 18  1  0
 16 15  2  0
 19 24  1  0
 19 18  1  0
 20 21  1  0
 19 20  1  1
 21 22  1  0
 22 23  2  0
 22 26  1  0
 24 27  1  0
 25 24  2  0
M  END
$$$$
