RYN.pdb
     RDKit          3D

 32 32  0  0  1  0  0  0  0  0999 V2000
    8.5337  -16.8708   15.9088 N   0  0  0  0  0  0  0  0  0  0  0  0
    7.6698  -16.2069   14.9973 C   0  0  0  0  0  0  0  0  0  0  0  0
    7.0883  -16.9003   14.0867 N   0  0  0  0  0  0  0  0  0  0  0  0
    7.4195  -14.8142   15.0538 N   0  0  0  0  0  0  0  0  0  0  0  0
    8.0751  -13.9459   15.9637 C   0  0  0  0  0  0  0  0  0  0  0  0
    7.3995  -13.7029   17.2703 C   0  0  0  0  0  0  0  0  0  0  0  0
    8.3661  -13.3245   18.3352 C   0  0  0  0  0  0  0  0  0  0  0  0
    8.7865  -14.5213   19.1789 C   0  0  2  0  0  0  0  0  0  0  0  0
    7.8348  -15.6007   19.0586 N   0  0  0  0  0  0  0  0  0  0  0  0
    9.0122  -14.1251   20.5916 C   0  0  0  0  0  0  0  0  0  0  0  0
    9.9182  -13.2853   20.8261 O   0  0  0  0  0  0  0  0  0  0  0  0
    6.4422  -16.4546   13.4282 O   0  0  0  0  0  0  0  0  0  0  0  0
    7.4138  -12.4791   29.1769 C   0  0  0  0  0  0  0  0  0  0  0  0
    7.3886  -12.8011   27.8234 C   0  0  0  0  0  0  0  0  0  0  0  0
    7.9256  -11.9611   26.8868 C   0  0  0  0  0  0  0  0  0  0  0  0
    7.8740  -12.3307   25.5479 C   0  0  0  0  0  0  0  0  0  0  0  0
    7.3115  -13.4965   25.1186 C   0  0  0  0  0  0  0  0  0  0  0  0
    7.2305  -13.9475   23.7253 C   0  0  2  0  0  0  0  0  0  0  0  0
    8.5156  -14.3342   23.0746 N   0  0  0  0  0  0  0  0  0  0  0  0
    8.2467  -14.6597   21.6531 C   0  0  0  0  0  0  0  0  0  0  0  0
    9.0803  -15.5525   23.6624 O   0  0  0  0  0  0  0  0  0  0  0  0
    8.5469  -16.6675   23.3735 C   0  0  0  0  0  0  0  0  0  0  0  0
    6.7755  -14.3222   26.1146 C   0  0  0  0  0  0  0  0  0  0  0  0
    6.8043  -13.9961   27.4531 N   0  0  0  0  0  0  0  0  0  0  0  0
   12.3276  -18.8832   23.0773 C   0  0  0  0  0  0  0  0  0  0  0  0
   12.4401  -18.4608   24.4116 O   0  0  0  0  0  0  0  0  0  0  0  0
   12.7991  -19.3115   25.2844 C   0  0  0  0  0  0  0  0  0  0  0  0
   12.1568  -17.0673   24.8339 C   0  0  2  0  0  0  0  0  0  0  0  0
   10.6555  -16.9040   25.0712 N   0  0  0  0  0  0  0  0  0  0  0  0
   10.1956  -15.6400   24.5402 C   0  0  0  0  0  0  0  0  0  0  0  0
   10.3146  -17.1695   26.4573 O   0  0  0  0  0  0  0  0  0  0  0  0
    9.8972  -18.3779   26.9641 O   0  0  0  0  0  0  0  0  0  0  0  0
  1  2  1  0
  2  3  2  0
  4  5  1  0
  4  2  1  0
  6  7  1  0
  6  5  1  0
  8 10  1  0
  8  7  1  0
  8  9  1  1
 10 11  2  0
 12 13  1  0
 13 23  2  0
 13 14  1  0
 14 15  2  0
 15 16  1  0
 16 17  1  0
 18 17  1  6
 19 18  1  0
 19 10  1  0
 20 21  2  0
 20 18  1  0
 22 16  2  0
 23 22  1  0
 24 25  1  0
 25 26  2  0
 25 27  1  0
 28 27  1  6
 28 30  1  0
 28 29  1  0
 29 20  1  0
 30 31  1  0
 32 30  2  0
M  END
$$$$
