RYN.pdb
     RDKit          3D

 32 32  0  0  1  0  0  0  0  0999 V2000
    9.2966  -15.7418   15.2761 N   0  0  0  0  0  0  0  0  0  0  0  0
    8.1560  -14.8980   15.2051 C   0  0  0  0  0  0  0  0  0  0  0  0
    7.1088  -15.3308   14.6017 N   0  0  0  0  0  0  0  0  0  0  0  0
    8.1241  -13.6023   15.7755 N   0  0  0  0  0  0  0  0  0  0  0  0
    8.3474  -13.3576   17.1546 C   0  0  0  0  0  0  0  0  0  0  0  0
    8.8734  -14.4931   17.9648 C   0  0  0  0  0  0  0  0  0  0  0  0
    9.1352  -14.0975   19.3742 C   0  0  0  0  0  0  0  0  0  0  0  0
    9.5944  -15.2757   20.2241 C   0  0  2  0  0  0  0  0  0  0  0  0
    8.6274  -16.3477   20.1903 N   0  0  0  0  0  0  0  0  0  0  0  0
    9.9076  -14.8440   21.6094 C   0  0  0  0  0  0  0  0  0  0  0  0
   10.5745  -13.7883   21.7567 O   0  0  0  0  0  0  0  0  0  0  0  0
    6.2999  -14.7179   14.4616 O   0  0  0  0  0  0  0  0  0  0  0  0
    5.6625  -11.2153   28.0546 C   0  0  0  0  0  0  0  0  0  0  0  0
    6.1864  -11.9349   26.9850 C   0  0  0  0  0  0  0  0  0  0  0  0
    5.6258  -13.1172   26.5860 C   0  0  0  0  0  0  0  0  0  0  0  0
    6.1885  -13.7960   25.5115 C   0  0  0  0  0  0  0  0  0  0  0  0
    7.2783  -13.3393   24.8307 C   0  0  0  0  0  0  0  0  0  0  0  0
    7.9150  -14.0022   23.6877 C   0  0  1  0  0  0  0  0  0  0  0  0
    9.0443  -14.9258   23.9976 N   0  0  0  0  0  0  0  0  0  0  0  0
    9.4805  -15.5783   22.7395 C   0  0  0  0  0  0  0  0  0  0  0  0
    8.6307  -16.0141   24.8883 O   0  0  0  0  0  0  0  0  0  0  0  0
    8.0469  -15.7178   25.9758 C   0  0  0  0  0  0  0  0  0  0  0  0
    7.8160  -12.1257   25.2768 C   0  0  0  0  0  0  0  0  0  0  0  0
    7.2912  -11.4191   26.3371 N   0  0  0  0  0  0  0  0  0  0  0  0
   11.3976  -19.9849   22.4479 C   0  0  0  0  0  0  0  0  0  0  0  0
   11.5617  -19.3964   23.7121 O   0  0  0  0  0  0  0  0  0  0  0  0
   12.1497  -20.0671   24.6170 C   0  0  0  0  0  0  0  0  0  0  0  0
   11.0765  -18.0300   24.0250 C   0  0  2  0  0  0  0  0  0  0  0  0
    9.9927  -18.1100   25.1002 N   0  0  0  0  0  0  0  0  0  0  0  0
    8.8033  -17.4087   24.6704 C   0  0  0  0  0  0  0  0  0  0  0  0
   10.5174  -17.7284   26.3990 O   0  0  0  0  0  0  0  0  0  0  0  0
   11.1537  -16.5448   26.6916 O   0  0  0  0  0  0  0  0  0  0  0  0
  1  2  1  0
  2  3  2  0
  4  5  1  0
  4  2  1  0
  6  7  1  0
  6  5  1  0
  8 10  1  0
  8  7  1  0
  8  9  1  1
 10 11  2  0
 12 13  1  0
 13 23  2  0
 13 14  1  0
 14 15  2  0
 15 16  1  0
 16 17  1  0
 18 17  1  6
 19 18  1  0
 19 10  1  0
 20 21  2  0
 20 18  1  0
 22 16  2  0
 23 22  1  0
 24 25  1  0
 25 26  2  0
 25 27  1  0
 28 27  1  6
 28 30  1  0
 28 29  1  0
 29 20  1  0
 30 31  1  0
 32 30  2  0
M  END
$$$$
