RYN.pdb
     RDKit          3D

 32 32  0  0  1  0  0  0  0  0999 V2000
    7.5632  -13.7125   19.5226 N   0  0  0  0  0  0  0  0  0  0  0  0
    8.0999  -13.6080   18.2115 C   0  0  0  0  0  0  0  0  0  0  0  0
    7.4724  -12.8968   17.3462 N   0  0  0  0  0  0  0  0  0  0  0  0
    9.2994  -14.2511   17.8204 N   0  0  0  0  0  0  0  0  0  0  0  0
   10.0526  -15.0803   18.6902 C   0  0  0  0  0  0  0  0  0  0  0  0
   10.1181  -16.5306   18.3511 C   0  0  0  0  0  0  0  0  0  0  0  0
   10.9151  -17.2993   19.3438 C   0  0  0  0  0  0  0  0  0  0  0  0
   10.0519  -17.8386   20.4774 C   0  0  2  0  0  0  0  0  0  0  0  0
    8.7186  -18.1436   20.0142 N   0  0  0  0  0  0  0  0  0  0  0  0
   10.0466  -16.9073   21.6333 C   0  0  0  0  0  0  0  0  0  0  0  0
   11.1567  -16.5067   22.0670 O   0  0  0  0  0  0  0  0  0  0  0  0
    7.7581  -12.9048   16.3624 O   0  0  0  0  0  0  0  0  0  0  0  0
    6.4923  -11.5952   27.9540 C   0  0  0  0  0  0  0  0  0  0  0  0
    6.7381  -12.4315   26.8693 C   0  0  0  0  0  0  0  0  0  0  0  0
    6.5167  -13.7789   26.9509 C   0  0  0  0  0  0  0  0  0  0  0  0
    6.7787  -14.5691   25.8379 C   0  0  0  0  0  0  0  0  0  0  0  0
    7.2481  -14.0650   24.6609 C   0  0  0  0  0  0  0  0  0  0  0  0
    7.5381  -14.8411   23.4506 C   0  0  1  0  0  0  0  0  0  0  0  0
    8.8302  -15.5857   23.4303 N   0  0  0  0  0  0  0  0  0  0  0  0
    8.8470  -16.4714   22.2411 C   0  0  0  0  0  0  0  0  0  0  0  0
    8.9676  -16.4722   24.5895 O   0  0  0  0  0  0  0  0  0  0  0  0
    8.2498  -17.5178   24.6405 C   0  0  0  0  0  0  0  0  0  0  0  0
    7.4589  -12.6810   24.6270 C   0  0  0  0  0  0  0  0  0  0  0  0
    7.2131  -11.8596   25.7057 N   0  0  0  0  0  0  0  0  0  0  0  0
   11.0734  -20.5229   27.1245 C   0  0  0  0  0  0  0  0  0  0  0  0
   11.6331  -19.2357   27.1604 O   0  0  0  0  0  0  0  0  0  0  0  0
   12.4429  -18.9569   28.0989 C   0  0  0  0  0  0  0  0  0  0  0  0
   11.3142  -18.1986   26.1489 C   0  0  1  0  0  0  0  0  0  0  0  0
   10.1201  -17.3727   26.6276 N   0  0  0  0  0  0  0  0  0  0  0  0
    9.8429  -16.3009   25.6971 C   0  0  0  0  0  0  0  0  0  0  0  0
   10.2810  -16.9794   28.0158 O   0  0  0  0  0  0  0  0  0  0  0  0
   10.0427  -17.7786   29.1094 O   0  0  0  0  0  0  0  0  0  0  0  0
  1  2  1  0
  2  3  2  0
  4  5  1  0
  4  2  1  0
  6  7  1  0
  6  5  1  0
  8 10  1  0
  8  7  1  0
  8  9  1  6
 10 11  2  0
 12 13  1  0
 13 23  2  0
 13 14  1  0
 14 15  2  0
 15 16  1  0
 16 17  1  0
 18 17  1  6
 19 18  1  0
 19 10  1  0
 20 21  2  0
 20 18  1  0
 22 16  2  0
 23 22  1  0
 24 25  1  0
 25 26  2  0
 25 27  1  0
 28 27  1  6
 28 30  1  0
 28 29  1  0
 29 20  1  0
 30 31  1  0
 32 30  2  0
M  END
$$$$
