RYN.pdb
     RDKit          3D

 32 32  0  0  1  0  0  0  0  0999 V2000
   10.3060  -17.8054   14.7753 N   0  0  0  0  0  0  0  0  0  0  0  0
    9.6482  -16.6097   14.3811 C   0  0  0  0  0  0  0  0  0  0  0  0
    9.4369  -16.4087   13.1308 N   0  0  0  0  0  0  0  0  0  0  0  0
    9.2118  -15.6328   15.3088 N   0  0  0  0  0  0  0  0  0  0  0  0
    9.0160  -15.9063   16.6867 C   0  0  0  0  0  0  0  0  0  0  0  0
   10.0404  -16.7563   17.3581 C   0  0  0  0  0  0  0  0  0  0  0  0
   10.6898  -16.0521   18.4955 C   0  0  0  0  0  0  0  0  0  0  0  0
   10.8006  -16.9382   19.7298 C   0  0  2  0  0  0  0  0  0  0  0  0
    9.7249  -17.9005   19.7758 N   0  0  0  0  0  0  0  0  0  0  0  0
   10.8786  -16.1219   20.9672 C   0  0  0  0  0  0  0  0  0  0  0  0
   11.8433  -15.3237   21.0818 O   0  0  0  0  0  0  0  0  0  0  0  0
    8.8666  -15.6158   12.8216 O   0  0  0  0  0  0  0  0  0  0  0  0
    6.5531  -12.4873   18.4849 C   0  0  0  0  0  0  0  0  0  0  0  0
    7.0172  -13.0601   19.6651 C   0  0  0  0  0  0  0  0  0  0  0  0
    6.4401  -14.1895   20.1775 C   0  0  0  0  0  0  0  0  0  0  0  0
    6.9424  -14.7208   21.3596 C   0  0  0  0  0  0  0  0  0  0  0  0
    7.9887  -14.1691   22.0382 C   0  0  0  0  0  0  0  0  0  0  0  0
    8.5692  -14.6823   23.2836 C   0  0  2  0  0  0  0  0  0  0  0  0
    9.9099  -15.3271   23.1775 N   0  0  0  0  0  0  0  0  0  0  0  0
    9.9124  -16.2212   21.9945 C   0  0  0  0  0  0  0  0  0  0  0  0
   10.1939  -16.1887   24.3288 O   0  0  0  0  0  0  0  0  0  0  0  0
   10.2292  -15.6637   25.4839 C   0  0  0  0  0  0  0  0  0  0  0  0
    8.5452  -13.0145   21.4742 C   0  0  0  0  0  0  0  0  0  0  0  0
    8.0797  -12.4533   20.3049 N   0  0  0  0  0  0  0  0  0  0  0  0
   11.0498  -19.8522   27.7996 C   0  0  0  0  0  0  0  0  0  0  0  0
   10.3739  -20.4438   26.7205 O   0  0  0  0  0  0  0  0  0  0  0  0
   10.0256  -21.6614   26.8224 C   0  0  0  0  0  0  0  0  0  0  0  0
   10.0551  -19.7025   25.4758 C   0  0  1  0  0  0  0  0  0  0  0  0
   10.7347  -18.3336   25.5119 N   0  0  0  0  0  0  0  0  0  0  0  0
   10.4351  -17.5900   24.3083 C   0  0  0  0  0  0  0  0  0  0  0  0
   12.1424  -18.4588   25.8440 O   0  0  0  0  0  0  0  0  0  0  0  0
   12.6694  -18.4724   27.1143 O   0  0  0  0  0  0  0  0  0  0  0  0
  1  2  1  0
  2  3  2  0
  4  5  1  0
  4  2  1  0
  6  7  1  0
  6  5  1  0
  8 10  1  0
  8  7  1  0
  8  9  1  1
 10 11  2  0
 12 13  1  0
 13 23  2  0
 13 14  1  0
 14 15  2  0
 15 16  1  0
 16 17  1  0
 18 17  1  6
 19 18  1  0
 19 10  1  0
 20 21  2  0
 20 18  1  0
 22 16  2  0
 23 22  1  0
 24 25  1  0
 25 26  2  0
 25 27  1  0
 28 27  1  1
 28 30  1  0
 28 29  1  0
 29 20  1  0
 30 31  1  0
 32 30  2  0
M  END
$$$$
