RYN.pdb
     RDKit          3D

 32 32  0  0  1  0  0  0  0  0999 V2000
    5.4639  -19.7211   23.9927 N   0  0  0  0  0  0  0  0  0  0  0  0
    6.6331  -20.2570   23.3895 C   0  0  0  0  0  0  0  0  0  0  0  0
    7.5172  -20.8036   24.1430 N   0  0  0  0  0  0  0  0  0  0  0  0
    6.8621  -20.2179   21.9926 N   0  0  0  0  0  0  0  0  0  0  0  0
    6.1896  -19.3222   21.1225 C   0  0  0  0  0  0  0  0  0  0  0  0
    6.8343  -17.9989   20.8865 C   0  0  0  0  0  0  0  0  0  0  0  0
    8.1068  -18.1266   20.1277 C   0  0  0  0  0  0  0  0  0  0  0  0
    8.8158  -16.7875   19.9684 C   0  0  2  0  0  0  0  0  0  0  0  0
   10.0486  -16.9377   19.2316 N   0  0  0  0  0  0  0  0  0  0  0  0
    9.0233  -16.1340   21.2850 C   0  0  0  0  0  0  0  0  0  0  0  0
   10.1969  -16.0797   21.7328 O   0  0  0  0  0  0  0  0  0  0  0  0
    8.3940  -21.1533   23.7450 O   0  0  0  0  0  0  0  0  0  0  0  0
    7.1013  -10.6997   28.1132 C   0  0  0  0  0  0  0  0  0  0  0  0
    7.0376  -11.5112   26.9845 C   0  0  0  0  0  0  0  0  0  0  0  0
    6.0957  -12.4971   26.8749 C   0  0  0  0  0  0  0  0  0  0  0  0
    6.0759  -13.2793   25.7261 C   0  0  0  0  0  0  0  0  0  0  0  0
    6.9539  -13.1118   24.6962 C   0  0  0  0  0  0  0  0  0  0  0  0
    6.9825  -13.8967   23.4575 C   0  0  1  0  0  0  0  0  0  0  0  0
    8.1631  -14.7863   23.2597 N   0  0  0  0  0  0  0  0  0  0  0  0
    7.9532  -15.5838   22.0273 C   0  0  0  0  0  0  0  0  0  0  0  0
    8.3007  -15.7606   24.3462 O   0  0  0  0  0  0  0  0  0  0  0  0
    8.4875  -15.3300   25.5256 C   0  0  0  0  0  0  0  0  0  0  0  0
    7.8986  -12.0905   24.8555 C   0  0  0  0  0  0  0  0  0  0  0  0
    7.9552  -11.2912   25.9765 N   0  0  0  0  0  0  0  0  0  0  0  0
   11.1645  -20.6505   25.2908 C   0  0  0  0  0  0  0  0  0  0  0  0
   11.1290  -19.2501   25.3857 O   0  0  0  0  0  0  0  0  0  0  0  0
   11.8013  -18.6917   26.3080 C   0  0  0  0  0  0  0  0  0  0  0  0
   10.3402  -18.4071   24.4543 C   0  0  1  0  0  0  0  0  0  0  0  0
    9.0042  -18.0462   25.1037 N   0  0  0  0  0  0  0  0  0  0  0  0
    8.2404  -17.1771   24.2362 C   0  0  0  0  0  0  0  0  0  0  0  0
    9.1958  -17.5736   26.4630 O   0  0  0  0  0  0  0  0  0  0  0  0
    9.4340  -16.2708   26.8339 O   0  0  0  0  0  0  0  0  0  0  0  0
  1  2  1  0
  2  3  2  0
  4  5  1  0
  4  2  1  0
  6  7  1  0
  6  5  1  0
  8 10  1  0
  8  7  1  0
  8  9  1  1
 10 11  2  0
 12 13  1  0
 13 23  2  0
 13 14  1  0
 14 15  2  0
 15 16  1  0
 16 17  1  0
 18 17  1  6
 19 18  1  0
 19 10  1  0
 20 21  2  0
 20 18  1  0
 22 16  2  0
 23 22  1  0
 24 25  1  0
 25 26  2  0
 25 27  1  0
 28 27  1  6
 28 30  1  0
 28 29  1  0
 29 20  1  0
 30 31  1  0
 32 30  2  0
M  END
$$$$
