RYN.pdb
     RDKit          3D

 32 32  0  0  1  0  0  0  0  0999 V2000
    7.6159  -14.4626   13.2648 N   0  0  0  0  0  0  0  0  0  0  0  0
    8.2031  -14.9017   14.4815 C   0  0  0  0  0  0  0  0  0  0  0  0
    8.5269  -16.1387   14.5956 N   0  0  0  0  0  0  0  0  0  0  0  0
    8.4503  -14.0319   15.5714 N   0  0  0  0  0  0  0  0  0  0  0  0
    7.6145  -13.9671   16.7154 C   0  0  0  0  0  0  0  0  0  0  0  0
    7.8163  -15.0126   17.7587 C   0  0  0  0  0  0  0  0  0  0  0  0
    9.0636  -14.7893   18.5371 C   0  0  0  0  0  0  0  0  0  0  0  0
    9.2192  -15.7951   19.6708 C   0  0  2  0  0  0  0  0  0  0  0  0
    8.1149  -16.7254   19.6941 N   0  0  0  0  0  0  0  0  0  0  0  0
    9.4026  -15.1068   20.9731 C   0  0  0  0  0  0  0  0  0  0  0  0
   10.3687  -14.3095   21.0826 O   0  0  0  0  0  0  0  0  0  0  0  0
    9.0050  -16.4746   15.4372 O   0  0  0  0  0  0  0  0  0  0  0  0
    6.6958  -11.3911   28.6674 C   0  0  0  0  0  0  0  0  0  0  0  0
    6.8790  -12.0675   27.4652 C   0  0  0  0  0  0  0  0  0  0  0  0
    7.9886  -11.8520   26.6948 C   0  0  0  0  0  0  0  0  0  0  0  0
    8.1226  -12.5541   25.5027 C   0  0  0  0  0  0  0  0  0  0  0  0
    7.1975  -13.4529   25.0601 C   0  0  0  0  0  0  0  0  0  0  0  0
    7.2817  -14.2292   23.8185 C   0  0  2  0  0  0  0  0  0  0  0  0
    8.6514  -14.5767   23.3417 N   0  0  0  0  0  0  0  0  0  0  0  0
    8.5329  -15.3239   22.0663 C   0  0  0  0  0  0  0  0  0  0  0  0
    9.3398  -15.4789   24.2695 O   0  0  0  0  0  0  0  0  0  0  0  0
    9.6221  -15.0525   25.4313 C   0  0  0  0  0  0  0  0  0  0  0  0
    6.0798  -13.6385   25.8831 C   0  0  0  0  0  0  0  0  0  0  0  0
    5.9056  -12.9645   27.0724 N   0  0  0  0  0  0  0  0  0  0  0  0
   12.1488  -19.7430   25.3993 C   0  0  0  0  0  0  0  0  0  0  0  0
   12.7391  -18.4858   25.1930 O   0  0  0  0  0  0  0  0  0  0  0  0
   14.0073  -18.4093   25.1882 C   0  0  0  0  0  0  0  0  0  0  0  0
   11.9398  -17.2541   24.9821 C   0  0  2  0  0  0  0  0  0  0  0  0
   10.4519  -17.6047   25.0024 N   0  0  0  0  0  0  0  0  0  0  0  0
    9.7359  -16.8217   24.0198 C   0  0  0  0  0  0  0  0  0  0  0  0
    9.9239  -17.5597   26.3540 O   0  0  0  0  0  0  0  0  0  0  0  0
   10.2859  -18.3941   27.3856 O   0  0  0  0  0  0  0  0  0  0  0  0
  1  2  1  0
  2  3  2  0
  4  5  1  0
  4  2  1  0
  6  7  1  0
  6  5  1  0
  8 10  1  0
  8  7  1  0
  8  9  1  1
 10 11  2  0
 12 13  1  0
 13 23  2  0
 13 14  1  0
 14 15  2  0
 15 16  1  0
 16 17  1  0
 18 17  1  6
 19 18  1  0
 19 10  1  0
 20 21  2  0
 20 18  1  0
 22 16  2  0
 23 22  1  0
 24 25  1  0
 25 26  2  0
 25 27  1  0
 28 27  1  6
 28 30  1  0
 28 29  1  0
 29 20  1  0
 30 31  1  0
 32 30  2  0
M  END
$$$$
