RYN.pdb
     RDKit          3D

 32 32  0  0  1  0  0  0  0  0999 V2000
    7.8491  -22.0439   15.6232 N   0  0  0  0  0  0  0  0  0  0  0  0
    8.4667  -20.7957   15.9035 C   0  0  0  0  0  0  0  0  0  0  0  0
    9.3047  -20.3210   15.0547 N   0  0  0  0  0  0  0  0  0  0  0  0
    8.1936  -20.0514   17.0769 N   0  0  0  0  0  0  0  0  0  0  0  0
    8.8555  -20.2796   18.3103 C   0  0  0  0  0  0  0  0  0  0  0  0
    8.3563  -19.5233   19.4941 C   0  0  0  0  0  0  0  0  0  0  0  0
    9.3748  -18.5758   20.0197 C   0  0  0  0  0  0  0  0  0  0  0  0
    9.0293  -17.1271   19.6987 C   0  0  2  0  0  0  0  0  0  0  0  0
    9.7452  -16.6696   18.5309 N   0  0  0  0  0  0  0  0  0  0  0  0
    9.2551  -16.2514   20.8759 C   0  0  0  0  0  0  0  0  0  0  0  0
   10.4440  -16.0010   21.1994 O   0  0  0  0  0  0  0  0  0  0  0  0
    9.7527  -19.4144   15.2190 O   0  0  0  0  0  0  0  0  0  0  0  0
    7.1529  -11.4159   28.1090 C   0  0  0  0  0  0  0  0  0  0  0  0
    7.1119  -12.1487   26.9268 C   0  0  0  0  0  0  0  0  0  0  0  0
    6.3222  -13.2596   26.8107 C   0  0  0  0  0  0  0  0  0  0  0  0
    6.3183  -13.9555   25.6074 C   0  0  0  0  0  0  0  0  0  0  0  0
    7.0669  -13.5835   24.5299 C   0  0  0  0  0  0  0  0  0  0  0  0
    7.1032  -14.2683   23.2334 C   0  0  1  0  0  0  0  0  0  0  0  0
    8.3966  -14.9060   22.8529 N   0  0  0  0  0  0  0  0  0  0  0  0
    8.1855  -15.7059   21.6222 C   0  0  0  0  0  0  0  0  0  0  0  0
    8.8577  -15.8549   23.8706 O   0  0  0  0  0  0  0  0  0  0  0  0
    8.1381  -16.8697   24.1225 C   0  0  0  0  0  0  0  0  0  0  0  0
    7.8585  -12.4407   24.6981 C   0  0  0  0  0  0  0  0  0  0  0  0
    7.8936  -11.7204   25.8723 N   0  0  0  0  0  0  0  0  0  0  0  0
   13.3401  -16.7876   23.6005 C   0  0  0  0  0  0  0  0  0  0  0  0
   12.3678  -17.4668   24.3520 O   0  0  0  0  0  0  0  0  0  0  0  0
   11.8708  -18.5327   23.8711 C   0  0  0  0  0  0  0  0  0  0  0  0
   11.9046  -16.9869   25.6770 C   0  0  2  0  0  0  0  0  0  0  0  0
   10.3932  -16.7612   25.6352 N   0  0  0  0  0  0  0  0  0  0  0  0
   10.0578  -15.7776   24.6295 C   0  0  0  0  0  0  0  0  0  0  0  0
    9.8662  -16.5114   26.9647 O   0  0  0  0  0  0  0  0  0  0  0  0
    9.1706  -15.3911   27.3552 O   0  0  0  0  0  0  0  0  0  0  0  0
  1  2  1  0
  2  3  2  0
  4  5  1  0
  4  2  1  0
  6  7  1  0
  6  5  1  0
  8 10  1  0
  8  7  1  0
  8  9  1  6
 10 11  2  0
 12 13  1  0
 13 23  2  0
 13 14  1  0
 14 15  2  0
 15 16  1  0
 16 17  1  0
 18 17  1  6
 19 18  1  0
 19 10  1  0
 20 21  2  0
 20 18  1  0
 22 16  2  0
 23 22  1  0
 24 25  1  0
 25 26  2  0
 25 27  1  0
 28 27  1  6
 28 30  1  0
 28 29  1  0
 29 20  1  0
 30 31  1  0
 32 30  2  0
M  END
$$$$
