RYN.pdb
     RDKit          3D

 32 32  0  0  1  0  0  0  0  0999 V2000
    8.2712  -13.8141   16.0071 N   0  0  0  0  0  0  0  0  0  0  0  0
    7.9167  -13.5023   17.3469 C   0  0  0  0  0  0  0  0  0  0  0  0
    8.0490  -12.2910   17.7510 N   0  0  0  0  0  0  0  0  0  0  0  0
    7.4193  -14.4699   18.2534 N   0  0  0  0  0  0  0  0  0  0  0  0
    7.2020  -15.8254   17.8971 C   0  0  0  0  0  0  0  0  0  0  0  0
    8.0580  -16.8451   18.5679 C   0  0  0  0  0  0  0  0  0  0  0  0
    9.4394  -16.3464   18.8011 C   0  0  0  0  0  0  0  0  0  0  0  0
    9.9923  -16.7987   20.1467 C   0  0  2  0  0  0  0  0  0  0  0  0
    9.5312  -18.1268   20.4770 N   0  0  0  0  0  0  0  0  0  0  0  0
    9.6778  -15.8131   21.2111 C   0  0  0  0  0  0  0  0  0  0  0  0
    9.2729  -14.6770   20.8556 O   0  0  0  0  0  0  0  0  0  0  0  0
    7.7783  -12.0291   18.7038 O   0  0  0  0  0  0  0  0  0  0  0  0
    5.8082  -11.3998   27.4233 C   0  0  0  0  0  0  0  0  0  0  0  0
    6.3338  -12.2721   26.4750 C   0  0  0  0  0  0  0  0  0  0  0  0
    6.1200  -13.6205   26.5595 C   0  0  0  0  0  0  0  0  0  0  0  0
    6.6677  -14.4476   25.5858 C   0  0  0  0  0  0  0  0  0  0  0  0
    7.4120  -13.9788   24.5436 C   0  0  0  0  0  0  0  0  0  0  0  0
    8.0111  -14.7949   23.4823 C   0  0  1  0  0  0  0  0  0  0  0  0
    9.4445  -15.1676   23.6575 N   0  0  0  0  0  0  0  0  0  0  0  0
    9.8204  -16.1191   22.5840 C   0  0  0  0  0  0  0  0  0  0  0  0
    9.6735  -15.8789   24.9186 O   0  0  0  0  0  0  0  0  0  0  0  0
    9.6241  -15.2206   26.0027 C   0  0  0  0  0  0  0  0  0  0  0  0
    7.6029  -12.5922   24.5010 C   0  0  0  0  0  0  0  0  0  0  0  0
    7.0790  -11.7350   25.4442 N   0  0  0  0  0  0  0  0  0  0  0  0
    8.8606  -20.1946   28.7377 C   0  0  0  0  0  0  0  0  0  0  0  0
    9.2467  -18.8958   28.3694 O   0  0  0  0  0  0  0  0  0  0  0  0
    9.8883  -18.1960   29.2138 C   0  0  0  0  0  0  0  0  0  0  0  0
    8.9341  -18.3174   27.0398 C   0  0  2  0  0  0  0  0  0  0  0  0
   10.2271  -17.8451   26.3748 N   0  0  0  0  0  0  0  0  0  0  0  0
    9.9457  -17.2653   25.0802 C   0  0  0  0  0  0  0  0  0  0  0  0
   11.2354  -18.8894   26.3945 O   0  0  0  0  0  0  0  0  0  0  0  0
   12.0726  -19.1772   27.4470 O   0  0  0  0  0  0  0  0  0  0  0  0
  1  2  1  0
  2  3  2  0
  4  5  1  0
  4  2  1  0
  6  7  1  0
  6  5  1  0
  8 10  1  0
  8  7  1  0
  8  9  1  1
 10 11  2  0
 12 13  1  0
 13 23  2  0
 13 14  1  0
 14 15  2  0
 15 16  1  0
 16 17  1  0
 18 17  1  6
 19 18  1  0
 19 10  1  0
 20 21  2  0
 20 18  1  0
 22 16  2  0
 23 22  1  0
 24 25  1  0
 25 26  2  0
 25 27  1  0
 28 27  1  1
 28 30  1  0
 28 29  1  0
 29 20  1  0
 30 31  1  0
 32 30  2  0
M  END
$$$$
