RYN.pdb
     RDKit          3D

 32 32  0  0  1  0  0  0  0  0999 V2000
    9.5168  -15.7449   15.2177 N   0  0  0  0  0  0  0  0  0  0  0  0
    8.2633  -15.1609   14.8925 C   0  0  0  0  0  0  0  0  0  0  0  0
    8.0830  -14.7179   13.7012 N   0  0  0  0  0  0  0  0  0  0  0  0
    7.2034  -15.0513   15.8253 N   0  0  0  0  0  0  0  0  0  0  0  0
    7.1490  -14.0421   16.8204 C   0  0  0  0  0  0  0  0  0  0  0  0
    8.4358  -13.6687   17.4739 C   0  0  0  0  0  0  0  0  0  0  0  0
    8.2768  -13.4581   18.9374 C   0  0  0  0  0  0  0  0  0  0  0  0
    8.5381  -14.7320   19.7312 C   0  0  2  0  0  0  0  0  0  0  0  0
    7.4252  -15.6461   19.6262 N   0  0  0  0  0  0  0  0  0  0  0  0
    8.8793  -14.4207   21.1419 C   0  0  0  0  0  0  0  0  0  0  0  0
    9.8842  -13.6955   21.3546 O   0  0  0  0  0  0  0  0  0  0  0  0
    7.1777  -14.3259   13.4246 O   0  0  0  0  0  0  0  0  0  0  0  0
    7.5943  -12.9199   29.8152 C   0  0  0  0  0  0  0  0  0  0  0  0
    7.4804  -13.2629   28.4715 C   0  0  0  0  0  0  0  0  0  0  0  0
    7.0733  -14.5128   28.0929 C   0  0  0  0  0  0  0  0  0  0  0  0
    6.9764  -14.8034   26.7371 C   0  0  0  0  0  0  0  0  0  0  0  0
    7.2686  -13.8989   25.7592 C   0  0  0  0  0  0  0  0  0  0  0  0
    7.1812  -14.1393   24.3150 C   0  0  1  0  0  0  0  0  0  0  0  0
    8.4317  -14.5880   23.6374 N   0  0  0  0  0  0  0  0  0  0  0  0
    8.1148  -14.9111   22.2253 C   0  0  0  0  0  0  0  0  0  0  0  0
    8.9551  -15.8263   24.2217 O   0  0  0  0  0  0  0  0  0  0  0  0
    8.2657  -16.8864   24.1114 C   0  0  0  0  0  0  0  0  0  0  0  0
    7.6810  -12.6342   26.1968 C   0  0  0  0  0  0  0  0  0  0  0  0
    7.7913  -12.3023   27.5296 N   0  0  0  0  0  0  0  0  0  0  0  0
   11.0433  -17.7464   22.9073 C   0  0  0  0  0  0  0  0  0  0  0  0
   12.1194  -17.8718   23.8004 O   0  0  0  0  0  0  0  0  0  0  0  0
   13.2489  -18.2235   23.3369 C   0  0  0  0  0  0  0  0  0  0  0  0
   11.9842  -17.6102   25.2542 C   0  0  2  0  0  0  0  0  0  0  0  0
   10.5372  -17.2309   25.5695 N   0  0  0  0  0  0  0  0  0  0  0  0
   10.1866  -15.9908   24.9134 C   0  0  0  0  0  0  0  0  0  0  0  0
   10.2833  -17.2847   26.9979 O   0  0  0  0  0  0  0  0  0  0  0  0
    9.8572  -16.2349   27.7776 O   0  0  0  0  0  0  0  0  0  0  0  0
  1  2  1  0
  2  3  2  0
  4  5  1  0
  4  2  1  0
  6  7  1  0
  6  5  1  0
  8 10  1  0
  8  7  1  0
  8  9  1  1
 10 11  2  0
 12 13  1  0
 13 23  2  0
 13 14  1  0
 14 15  2  0
 15 16  1  0
 16 17  1  0
 18 17  1  6
 19 18  1  0
 19 10  1  0
 20 21  2  0
 20 18  1  0
 22 16  2  0
 23 22  1  0
 24 25  1  0
 25 26  2  0
 25 27  1  0
 28 27  1  6
 28 30  1  0
 28 29  1  0
 29 20  1  0
 30 31  1  0
 32 30  2  0
M  END
$$$$
