RYN.pdb
     RDKit          3D

 32 32  0  0  1  0  0  0  0  0999 V2000
    9.3877  -18.5517   14.0484 N   0  0  0  0  0  0  0  0  0  0  0  0
   10.7412  -18.7808   13.6833 C   0  0  0  0  0  0  0  0  0  0  0  0
   10.9843  -19.4870   12.6391 N   0  0  0  0  0  0  0  0  0  0  0  0
   11.8329  -18.2594   14.4194 N   0  0  0  0  0  0  0  0  0  0  0  0
   11.6733  -17.4798   15.5934 C   0  0  0  0  0  0  0  0  0  0  0  0
   10.4191  -17.6832   16.3732 C   0  0  0  0  0  0  0  0  0  0  0  0
   10.3461  -16.7837   17.5552 C   0  0  0  0  0  0  0  0  0  0  0  0
   10.6646  -17.5159   18.8528 C   0  0  2  0  0  0  0  0  0  0  0  0
    9.6396  -18.4831   19.1678 N   0  0  0  0  0  0  0  0  0  0  0  0
   10.8945  -16.5578   19.9631 C   0  0  0  0  0  0  0  0  0  0  0  0
   11.8509  -15.7495   19.8499 O   0  0  0  0  0  0  0  0  0  0  0  0
   11.9436  -19.5914   12.2948 O   0  0  0  0  0  0  0  0  0  0  0  0
    6.1361  -12.6551   18.1486 C   0  0  0  0  0  0  0  0  0  0  0  0
    6.8568  -13.1742   19.2198 C   0  0  0  0  0  0  0  0  0  0  0  0
    7.9048  -12.4859   19.7666 C   0  0  0  0  0  0  0  0  0  0  0  0
    8.5913  -13.0497   20.8356 C   0  0  0  0  0  0  0  0  0  0  0  0
    8.2700  -14.2625   21.3701 C   0  0  0  0  0  0  0  0  0  0  0  0
    8.9480  -14.9089   22.4987 C   0  0  2  0  0  0  0  0  0  0  0  0
   10.2636  -15.5484   22.2078 N   0  0  0  0  0  0  0  0  0  0  0  0
   10.0785  -16.5362   21.1174 C   0  0  0  0  0  0  0  0  0  0  0  0
   10.7656  -16.3106   23.3549 O   0  0  0  0  0  0  0  0  0  0  0  0
   10.8690  -15.7217   24.4746 C   0  0  0  0  0  0  0  0  0  0  0  0
    7.1906  -14.9281   20.7761 C   0  0  0  0  0  0  0  0  0  0  0  0
    6.4819  -14.4072   19.7154 N   0  0  0  0  0  0  0  0  0  0  0  0
   11.1570  -19.9276   27.3975 C   0  0  0  0  0  0  0  0  0  0  0  0
   11.3543  -20.2657   26.0491 O   0  0  0  0  0  0  0  0  0  0  0  0
   12.0914  -21.2652   25.7804 C   0  0  0  0  0  0  0  0  0  0  0  0
   10.7373  -19.5028   24.9367 C   0  0  1  0  0  0  0  0  0  0  0  0
   11.6398  -18.3258   24.5663 N   0  0  0  0  0  0  0  0  0  0  0  0
   11.1566  -17.6778   23.3672 C   0  0  0  0  0  0  0  0  0  0  0  0
   13.0359  -18.7236   24.5515 O   0  0  0  0  0  0  0  0  0  0  0  0
   13.8680  -18.7736   25.6454 O   0  0  0  0  0  0  0  0  0  0  0  0
  1  2  1  0
  2  3  2  0
  4  5  1  0
  4  2  1  0
  6  7  1  0
  6  5  1  0
  8 10  1  0
  8  7  1  0
  8  9  1  1
 10 11  2  0
 12 13  1  0
 13 23  2  0
 13 14  1  0
 14 15  2  0
 15 16  1  0
 16 17  1  0
 18 17  1  6
 19 18  1  0
 19 10  1  0
 20 21  2  0
 20 18  1  0
 22 16  2  0
 23 22  1  0
 24 25  1  0
 25 26  2  0
 25 27  1  0
 28 27  1  1
 28 30  1  0
 28 29  1  0
 29 20  1  0
 30 31  1  0
 32 30  2  0
M  END
$$$$
