RYN.pdb
     RDKit          3D

 32 32  0  0  1  0  0  0  0  0999 V2000
    7.3608  -15.0561   15.4266 N   0  0  0  0  0  0  0  0  0  0  0  0
    8.1938  -14.0888   16.0498 C   0  0  0  0  0  0  0  0  0  0  0  0
    7.8646  -12.8507   15.9675 N   0  0  0  0  0  0  0  0  0  0  0  0
    9.3688  -14.4330   16.7614 N   0  0  0  0  0  0  0  0  0  0  0  0
    9.4866  -14.3061   18.1691 C   0  0  0  0  0  0  0  0  0  0  0  0
    8.2292  -14.0632   18.9323 C   0  0  0  0  0  0  0  0  0  0  0  0
    8.4778  -13.9514   20.3942 C   0  0  0  0  0  0  0  0  0  0  0  0
    8.8079  -15.2989   21.0239 C   0  0  2  0  0  0  0  0  0  0  0  0
    7.7135  -16.2276   20.8654 N   0  0  0  0  0  0  0  0  0  0  0  0
    9.2097  -15.1399   22.4440 C   0  0  0  0  0  0  0  0  0  0  0  0
   10.1202  -14.3131   22.7054 O   0  0  0  0  0  0  0  0  0  0  0  0
    8.4579  -12.1270   16.3845 O   0  0  0  0  0  0  0  0  0  0  0  0
    6.2143  -10.0451   26.1662 C   0  0  0  0  0  0  0  0  0  0  0  0
    6.5488  -11.3888   26.0286 C   0  0  0  0  0  0  0  0  0  0  0  0
    5.7326  -12.2551   25.3545 C   0  0  0  0  0  0  0  0  0  0  0  0
    6.1140  -13.5873   25.2461 C   0  0  0  0  0  0  0  0  0  0  0  0
    7.2687  -14.0770   25.7815 C   0  0  0  0  0  0  0  0  0  0  0  0
    7.7311  -15.4664   25.6976 C   0  0  2  0  0  0  0  0  0  0  0  0
    8.9736  -15.7084   24.9091 N   0  0  0  0  0  0  0  0  0  0  0  0
    8.6030  -15.8813   23.4837 C   0  0  0  0  0  0  0  0  0  0  0  0
    9.6357  -16.9556   25.3027 O   0  0  0  0  0  0  0  0  0  0  0  0
    9.0049  -18.0476   25.1586 C   0  0  0  0  0  0  0  0  0  0  0  0
    8.0700  -13.1518   26.4619 C   0  0  0  0  0  0  0  0  0  0  0  0
    7.7316  -11.8225   26.5939 N   0  0  0  0  0  0  0  0  0  0  0  0
   12.7819  -18.7145   23.5257 C   0  0  0  0  0  0  0  0  0  0  0  0
   13.3005  -18.0312   24.6373 O   0  0  0  0  0  0  0  0  0  0  0  0
   14.0670  -17.0391   24.4307 C   0  0  0  0  0  0  0  0  0  0  0  0
   12.9872  -18.4243   26.0329 C   0  0  2  0  0  0  0  0  0  0  0  0
   11.4740  -18.3782   26.2458 N   0  0  0  0  0  0  0  0  0  0  0  0
   10.9462  -17.0955   25.8369 C   0  0  0  0  0  0  0  0  0  0  0  0
   11.1227  -18.8084   27.5871 O   0  0  0  0  0  0  0  0  0  0  0  0
   11.4175  -20.0324   28.1407 O   0  0  0  0  0  0  0  0  0  0  0  0
  1  2  1  0
  2  3  2  0
  4  5  1  0
  4  2  1  0
  6  7  1  0
  6  5  1  0
  8 10  1  0
  8  7  1  0
  8  9  1  1
 10 11  2  0
 12 13  1  0
 13 23  2  0
 13 14  1  0
 14 15  2  0
 15 16  1  0
 16 17  1  0
 18 17  1  6
 19 18  1  0
 19 10  1  0
 20 21  2  0
 20 18  1  0
 22 16  2  0
 23 22  1  0
 24 25  1  0
 25 26  2  0
 25 27  1  0
 28 27  1  6
 28 30  1  0
 28 29  1  0
 29 20  1  0
 30 31  1  0
 32 30  2  0
M  END
$$$$
