RYN.pdb
     RDKit          3D

 32 32  0  0  1  0  0  0  0  0999 V2000
    8.6751  -15.4301   14.2293 N   0  0  0  0  0  0  0  0  0  0  0  0
    8.5831  -14.2372   14.9951 C   0  0  0  0  0  0  0  0  0  0  0  0
    7.9763  -13.2266   14.4866 N   0  0  0  0  0  0  0  0  0  0  0  0
    9.1280  -14.1176   16.2966 N   0  0  0  0  0  0  0  0  0  0  0  0
    9.8954  -15.1395   16.9118 C   0  0  0  0  0  0  0  0  0  0  0  0
    9.1485  -16.3085   17.4575 C   0  0  0  0  0  0  0  0  0  0  0  0
    9.5095  -16.5890   18.8726 C   0  0  0  0  0  0  0  0  0  0  0  0
    8.3382  -16.3584   19.8191 C   0  0  2  0  0  0  0  0  0  0  0  0
    7.2532  -15.6830   19.1469 N   0  0  0  0  0  0  0  0  0  0  0  0
    8.7749  -15.6412   21.0433 C   0  0  0  0  0  0  0  0  0  0  0  0
    9.2506  -14.4855   20.9060 O   0  0  0  0  0  0  0  0  0  0  0  0
    7.9397  -12.3355   14.9909 O   0  0  0  0  0  0  0  0  0  0  0  0
    6.2968  -11.4668   28.1324 C   0  0  0  0  0  0  0  0  0  0  0  0
    6.6315  -12.1719   26.9804 C   0  0  0  0  0  0  0  0  0  0  0  0
    7.7371  -11.8417   26.2456 C   0  0  0  0  0  0  0  0  0  0  0  0
    8.0262  -12.5786   25.1030 C   0  0  0  0  0  0  0  0  0  0  0  0
    7.2580  -13.6211   24.6754 C   0  0  0  0  0  0  0  0  0  0  0  0
    7.5106  -14.4410   23.4858 C   0  0  1  0  0  0  0  0  0  0  0  0
    8.6456  -15.4049   23.5697 N   0  0  0  0  0  0  0  0  0  0  0  0
    8.6685  -16.2178   22.3297 C   0  0  0  0  0  0  0  0  0  0  0  0
    8.4712  -16.3592   24.6686 O   0  0  0  0  0  0  0  0  0  0  0  0
    7.6367  -17.3045   24.5228 C   0  0  0  0  0  0  0  0  0  0  0  0
    6.1378  -13.9201   25.4606 C   0  0  0  0  0  0  0  0  0  0  0  0
    5.8130  -13.2169   26.6003 N   0  0  0  0  0  0  0  0  0  0  0  0
   11.0488  -19.1721   23.0864 C   0  0  0  0  0  0  0  0  0  0  0  0
   10.7974  -18.8908   24.4389 O   0  0  0  0  0  0  0  0  0  0  0  0
   10.3017  -19.8095   25.1631 C   0  0  0  0  0  0  0  0  0  0  0  0
   11.0880  -17.5690   25.0462 C   0  0  2  0  0  0  0  0  0  0  0  0
   10.1603  -17.3439   26.2402 N   0  0  0  0  0  0  0  0  0  0  0  0
    9.1523  -16.3587   25.9169 C   0  0  0  0  0  0  0  0  0  0  0  0
   10.9206  -17.0967   27.4521 O   0  0  0  0  0  0  0  0  0  0  0  0
   11.3110  -18.0499   28.3634 O   0  0  0  0  0  0  0  0  0  0  0  0
  1  2  1  0
  2  3  2  0
  4  5  1  0
  4  2  1  0
  6  7  1  0
  6  5  1  0
  8 10  1  0
  8  7  1  0
  8  9  1  6
 10 11  2  0
 12 13  1  0
 13 23  2  0
 13 14  1  0
 14 15  2  0
 15 16  1  0
 16 17  1  0
 18 17  1  6
 19 18  1  0
 19 10  1  0
 20 21  2  0
 20 18  1  0
 22 16  2  0
 23 22  1  0
 24 25  1  0
 25 26  2  0
 25 27  1  0
 28 27  1  6
 28 30  1  0
 28 29  1  0
 29 20  1  0
 30 31  1  0
 32 30  2  0
M  END
$$$$
