RYN.pdb
     RDKit          3D

 32 32  0  0  1  0  0  0  0  0999 V2000
    9.1304  -13.8705   14.8436 N   0  0  0  0  0  0  0  0  0  0  0  0
    8.5042  -13.4339   16.0416 C   0  0  0  0  0  0  0  0  0  0  0  0
    8.6958  -12.2251   16.4292 N   0  0  0  0  0  0  0  0  0  0  0  0
    7.6745  -14.2740   16.8233 N   0  0  0  0  0  0  0  0  0  0  0  0
    7.6859  -15.6884   16.7182 C   0  0  0  0  0  0  0  0  0  0  0  0
    7.8316  -16.4581   17.9866 C   0  0  0  0  0  0  0  0  0  0  0  0
    9.1381  -16.1997   18.6481 C   0  0  0  0  0  0  0  0  0  0  0  0
    9.3245  -17.0484   19.8995 C   0  0  2  0  0  0  0  0  0  0  0  0
    8.2953  -18.0564   20.0006 N   0  0  0  0  0  0  0  0  0  0  0  0
    9.4008  -16.1984   21.1140 C   0  0  0  0  0  0  0  0  0  0  0  0
   10.4384  -15.5082   21.2809 O   0  0  0  0  0  0  0  0  0  0  0  0
    8.2510  -11.8774   17.2841 O   0  0  0  0  0  0  0  0  0  0  0  0
    6.4242  -11.8227   28.3262 C   0  0  0  0  0  0  0  0  0  0  0  0
    6.6340  -12.4546   27.1043 C   0  0  0  0  0  0  0  0  0  0  0  0
    7.3326  -11.8404   26.1014 C   0  0  0  0  0  0  0  0  0  0  0  0
    7.5135  -12.5161   24.9003 C   0  0  0  0  0  0  0  0  0  0  0  0
    7.0263  -13.7689   24.6703 C   0  0  0  0  0  0  0  0  0  0  0  0
    7.1872  -14.5375   23.4315 C   0  0  1  0  0  0  0  0  0  0  0  0
    8.4379  -15.3396   23.3028 N   0  0  0  0  0  0  0  0  0  0  0  0
    8.3547  -16.1499   22.0638 C   0  0  0  0  0  0  0  0  0  0  0  0
    8.5847  -16.3017   24.3990 O   0  0  0  0  0  0  0  0  0  0  0  0
    8.0070  -17.4274   24.2980 C   0  0  0  0  0  0  0  0  0  0  0  0
    6.3182  -14.3552   25.7267 C   0  0  0  0  0  0  0  0  0  0  0  0
    6.1148  -13.7227   26.9339 N   0  0  0  0  0  0  0  0  0  0  0  0
   11.6992  -19.3089   26.9654 C   0  0  0  0  0  0  0  0  0  0  0  0
   11.8675  -18.8631   25.6446 O   0  0  0  0  0  0  0  0  0  0  0  0
   12.7296  -19.4476   24.9169 C   0  0  0  0  0  0  0  0  0  0  0  0
   11.0802  -17.7427   25.0743 C   0  0  2  0  0  0  0  0  0  0  0  0
   10.1557  -17.1726   26.1500 N   0  0  0  0  0  0  0  0  0  0  0  0
    9.3273  -16.1234   25.5986 C   0  0  0  0  0  0  0  0  0  0  0  0
   10.8998  -16.8274   27.3479 O   0  0  0  0  0  0  0  0  0  0  0  0
   11.7532  -15.7573   27.4823 O   0  0  0  0  0  0  0  0  0  0  0  0
  1  2  1  0
  2  3  2  0
  4  5  1  0
  4  2  1  0
  6  7  1  0
  6  5  1  0
  8 10  1  0
  8  7  1  0
  8  9  1  1
 10 11  2  0
 12 13  1  0
 13 23  2  0
 13 14  1  0
 14 15  2  0
 15 16  1  0
 16 17  1  0
 18 17  1  6
 19 18  1  0
 19 10  1  0
 20 21  2  0
 20 18  1  0
 22 16  2  0
 23 22  1  0
 24 25  1  0
 25 26  2  0
 25 27  1  0
 28 27  1  6
 28 30  1  0
 28 29  1  0
 29 20  1  0
 30 31  1  0
 32 30  2  0
M  END
$$$$
