RYN.pdb
     RDKit          3D

 32 32  0  0  1  0  0  0  0  0999 V2000
    8.2839  -22.2577   18.6533 N   0  0  0  0  0  0  0  0  0  0  0  0
    9.2079  -22.0270   17.5993 C   0  0  0  0  0  0  0  0  0  0  0  0
    8.8950  -22.4082   16.4141 N   0  0  0  0  0  0  0  0  0  0  0  0
   10.4568  -21.3903   17.8002 N   0  0  0  0  0  0  0  0  0  0  0  0
   10.6607  -20.3729   18.7670 C   0  0  0  0  0  0  0  0  0  0  0  0
    9.8288  -19.1426   18.6377 C   0  0  0  0  0  0  0  0  0  0  0  0
   10.1960  -18.1133   19.6462 C   0  0  0  0  0  0  0  0  0  0  0  0
    9.2258  -16.9386   19.6453 C   0  0  2  0  0  0  0  0  0  0  0  0
    9.3304  -16.1804   18.4207 N   0  0  0  0  0  0  0  0  0  0  0  0
    9.4134  -16.0911   20.8495 C   0  0  0  0  0  0  0  0  0  0  0  0
   10.5817  -15.7180   21.1263 O   0  0  0  0  0  0  0  0  0  0  0  0
    9.5353  -22.2465   15.6308 O   0  0  0  0  0  0  0  0  0  0  0  0
    6.8718  -11.9147   28.4043 C   0  0  0  0  0  0  0  0  0  0  0  0
    6.9689  -12.4818   27.1373 C   0  0  0  0  0  0  0  0  0  0  0  0
    7.5755  -11.8146   26.1087 C   0  0  0  0  0  0  0  0  0  0  0  0
    7.6456  -12.4266   24.8627 C   0  0  0  0  0  0  0  0  0  0  0  0
    7.1368  -13.6669   24.6129 C   0  0  0  0  0  0  0  0  0  0  0  0
    7.1834  -14.3697   23.3263 C   0  0  1  0  0  0  0  0  0  0  0  0
    8.5112  -14.9033   22.9065 N   0  0  0  0  0  0  0  0  0  0  0  0
    8.3302  -15.7037   21.6714 C   0  0  0  0  0  0  0  0  0  0  0  0
    9.0683  -15.8253   23.9007 O   0  0  0  0  0  0  0  0  0  0  0  0
    8.5419  -16.9738   24.0231 C   0  0  0  0  0  0  0  0  0  0  0  0
    6.5257  -14.3090   25.6970 C   0  0  0  0  0  0  0  0  0  0  0  0
    6.4336  -13.7405   26.9488 N   0  0  0  0  0  0  0  0  0  0  0  0
   13.1946  -16.4127   23.4074 C   0  0  0  0  0  0  0  0  0  0  0  0
   12.4583  -17.2155   24.2933 O   0  0  0  0  0  0  0  0  0  0  0  0
   12.0841  -18.3632   23.8968 C   0  0  0  0  0  0  0  0  0  0  0  0
   12.1051  -16.7737   25.6646 C   0  0  2  0  0  0  0  0  0  0  0  0
   10.5952  -16.5521   25.7535 N   0  0  0  0  0  0  0  0  0  0  0  0
   10.1688  -15.5833   24.7681 C   0  0  0  0  0  0  0  0  0  0  0  0
   10.1868  -16.2851   27.1209 O   0  0  0  0  0  0  0  0  0  0  0  0
   10.3889  -17.1183   28.1963 O   0  0  0  0  0  0  0  0  0  0  0  0
  1  2  1  0
  2  3  2  0
  4  5  1  0
  4  2  1  0
  6  7  1  0
  6  5  1  0
  8 10  1  0
  8  7  1  0
  8  9  1  6
 10 11  2  0
 12 13  1  0
 13 23  2  0
 13 14  1  0
 14 15  2  0
 15 16  1  0
 16 17  1  0
 18 17  1  6
 19 18  1  0
 19 10  1  0
 20 21  2  0
 20 18  1  0
 22 16  2  0
 23 22  1  0
 24 25  1  0
 25 26  2  0
 25 27  1  0
 28 27  1  6
 28 30  1  0
 28 29  1  0
 29 20  1  0
 30 31  1  0
 32 30  2  0
M  END
$$$$
