RYN.pdb
     RDKit          3D

 32 32  0  0  1  0  0  0  0  0999 V2000
    7.7305  -15.8401   14.4522 N   0  0  0  0  0  0  0  0  0  0  0  0
    8.1669  -14.4886   14.4198 C   0  0  0  0  0  0  0  0  0  0  0  0
    7.9383  -13.7947   13.3642 N   0  0  0  0  0  0  0  0  0  0  0  0
    8.8390  -13.8736   15.5041 N   0  0  0  0  0  0  0  0  0  0  0  0
    9.5214  -14.6067   16.5083 C   0  0  0  0  0  0  0  0  0  0  0  0
    8.7251  -15.0252   17.6970 C   0  0  0  0  0  0  0  0  0  0  0  0
    9.3113  -14.5191   18.9665 C   0  0  0  0  0  0  0  0  0  0  0  0
    9.4676  -15.6226   20.0053 C   0  0  2  0  0  0  0  0  0  0  0  0
    8.4492  -16.6337   19.8452 N   0  0  0  0  0  0  0  0  0  0  0  0
    9.4926  -15.0618   21.3795 C   0  0  0  0  0  0  0  0  0  0  0  0
   10.5965  -14.6600   21.8275 O   0  0  0  0  0  0  0  0  0  0  0  0
    8.2306  -12.8141   13.3142 O   0  0  0  0  0  0  0  0  0  0  0  0
    6.4379  -11.0673   28.7186 C   0  0  0  0  0  0  0  0  0  0  0  0
    6.5497  -11.7477   27.5100 C   0  0  0  0  0  0  0  0  0  0  0  0
    5.8018  -12.8644   27.2555 C   0  0  0  0  0  0  0  0  0  0  0  0
    5.9521  -13.5064   26.0319 C   0  0  0  0  0  0  0  0  0  0  0  0
    6.8132  -13.0757   25.0661 C   0  0  0  0  0  0  0  0  0  0  0  0
    7.0140  -13.7020   23.7551 C   0  0  1  0  0  0  0  0  0  0  0  0
    8.3298  -14.3668   23.5290 N   0  0  0  0  0  0  0  0  0  0  0  0
    8.3275  -14.9718   22.1752 C   0  0  0  0  0  0  0  0  0  0  0  0
    8.5478  -15.4769   24.4611 O   0  0  0  0  0  0  0  0  0  0  0  0
    8.6112  -15.2213   25.7029 C   0  0  0  0  0  0  0  0  0  0  0  0
    7.5563  -11.9294   25.3738 C   0  0  0  0  0  0  0  0  0  0  0  0
    7.4399  -11.2612   26.5733 N   0  0  0  0  0  0  0  0  0  0  0  0
    7.2557  -18.5719   27.1873 C   0  0  0  0  0  0  0  0  0  0  0  0
    7.2249  -19.3560   26.0230 O   0  0  0  0  0  0  0  0  0  0  0  0
    6.3877  -20.3097   25.9611 C   0  0  0  0  0  0  0  0  0  0  0  0
    8.1285  -19.1115   24.8724 C   0  0  2  0  0  0  0  0  0  0  0  0
    8.9607  -17.8569   25.1380 N   0  0  0  0  0  0  0  0  0  0  0  0
    8.6940  -16.8526   24.1321 C   0  0  0  0  0  0  0  0  0  0  0  0
   10.3585  -18.1917   25.3425 O   0  0  0  0  0  0  0  0  0  0  0  0
   11.3672  -18.0232   24.4229 O   0  0  0  0  0  0  0  0  0  0  0  0
  1  2  1  0
  2  3  2  0
  4  5  1  0
  4  2  1  0
  6  7  1  0
  6  5  1  0
  8 10  1  0
  8  7  1  0
  8  9  1  1
 10 11  2  0
 12 13  1  0
 13 23  2  0
 13 14  1  0
 14 15  2  0
 15 16  1  0
 16 17  1  0
 18 17  1  6
 19 18  1  0
 19 10  1  0
 20 21  2  0
 20 18  1  0
 22 16  2  0
 23 22  1  0
 24 25  1  0
 25 26  2  0
 25 27  1  0
 28 27  1  1
 28 30  1  0
 28 29  1  0
 29 20  1  0
 30 31  1  0
 32 30  2  0
M  END
$$$$
