KHQ.pdb
     RDKit          3D

 29 29  0  0  1  0  0  0  0  0999 V2000
   18.1580  -25.4000   -7.9951 N   0  0  0  0  0  0  0  0  0  0  0  0
   17.3187  -25.2489   -6.8220 C   0  0  1  0  0  0  0  0  0  0  0  0
   15.8780  -25.3129   -7.2782 C   0  0  0  0  0  0  0  0  0  0  0  0
   15.3907  -23.8897   -7.4465 C   0  0  0  0  0  0  0  0  0  0  0  0
   14.9623  -23.6400   -8.8628 C   0  0  0  0  0  0  0  0  0  0  0  0
   14.4654  -22.2440   -9.0480 C   0  0  0  0  0  0  0  0  0  0  0  0
   14.0091  -22.0275  -10.4089 N   0  0  0  0  0  0  0  0  0  0  0  0
   17.6179  -26.3409   -5.8410 C   0  0  0  0  0  0  0  0  0  0  0  0
   17.6830  -27.5558   -6.1597 O   0  0  0  0  0  0  0  0  0  0  0  0
   17.8437  -26.0150   -4.4749 N   0  0  0  0  0  0  0  0  0  0  0  0
   18.1887  -26.9521   -3.4603 C   0  0  1  0  0  0  0  0  0  0  0  0
   19.1947  -26.4394   -2.4751 C   0  0  0  0  0  0  0  0  0  0  0  0
   19.5046  -27.4349   -1.4184 C   0  0  0  0  0  0  0  0  0  0  0  0
   19.0665  -27.4666   -0.1112 C   0  0  0  0  0  0  0  0  0  0  0  0
   19.6050  -28.5564    0.4915 N   0  0  0  0  0  0  0  0  0  0  0  0
   20.3614  -29.1967   -0.4056 C   0  0  0  0  0  0  0  0  0  0  0  0
   20.2991  -28.5190   -1.5555 N   0  0  0  0  0  0  0  0  0  0  0  0
   16.9928  -27.5077   -2.7363 C   0  0  0  0  0  0  0  0  0  0  0  0
   16.1396  -26.6571   -2.3840 O   0  0  0  0  0  0  0  0  0  0  0  0
   15.0972  -29.3063   -6.1164 N   0  0  0  0  0  0  0  0  0  0  0  0
   15.3927  -30.2470   -5.0668 C   0  0  0  0  0  0  0  0  0  0  0  0
   16.3966  -30.9616   -5.2564 O   0  0  0  0  0  0  0  0  0  0  0  0
   14.5236  -30.3141   -3.8603 C   0  0  0  0  0  0  0  0  0  0  0  0
   15.2359  -30.7301   -2.6164 C   0  0  0  0  0  0  0  0  0  0  0  0
   15.7327  -29.5148   -1.8602 C   0  0  2  0  0  0  0  0  0  0  0  0
   16.8901  -28.8940   -2.4993 N   0  0  0  0  0  0  0  0  0  0  0  0
   16.0421  -29.8414   -0.4502 C   0  0  0  0  0  0  0  0  0  0  0  0
   15.0928  -30.1421    0.4937 O   0  0  0  0  0  0  0  0  0  0  0  0
   17.2503  -29.8423   -0.1002 O   0  0  0  0  0  0  0  0  0  0  0  0
  2  1  1  6
  2  8  1  0
  3  2  1  0
  3  4  1  0
  4  5  1  0
  5  6  1  0
  7  6  1  0
  8  9  2  0
 10  8  1  0
 10 11  1  0
 11 18  1  0
 11 12  1  1
 12 13  1  0
 13 17  1  0
 14 13  2  0
 14 15  1  0
 15 16  1  0
 17 16  2  0
 18 19  2  0
 20 21  1  0
 21 23  1  0
 22 21  2  0
 23 24  1  0
 25 24  1  6
 25 27  1  0
 26 25  1  0
 26 18  1  0
 27 28  1  0
 29 27  2  0
M  END
$$$$
