KHQ.pdb
     RDKit          3D

 29 29  0  0  1  0  0  0  0  0999 V2000
   24.3853  -16.0881  -17.9895 N   0  0  0  0  0  0  0  0  0  0  0  0
   23.7162  -17.2328  -18.5772 C   0  0  1  0  0  0  0  0  0  0  0  0
   24.5780  -17.7325  -19.7153 C   0  0  0  0  0  0  0  0  0  0  0  0
   25.3445  -16.5464  -20.2601 C   0  0  0  0  0  0  0  0  0  0  0  0
   26.8076  -16.6739  -19.9521 C   0  0  0  0  0  0  0  0  0  0  0  0
   27.5834  -15.5136  -20.4829 C   0  0  0  0  0  0  0  0  0  0  0  0
   29.0032  -15.6716  -20.2246 N   0  0  0  0  0  0  0  0  0  0  0  0
   23.5296  -18.2979  -17.5403 C   0  0  0  0  0  0  0  0  0  0  0  0
   22.9362  -19.3836  -17.7657 O   0  0  0  0  0  0  0  0  0  0  0  0
   24.0392  -18.0968  -16.2276 N   0  0  0  0  0  0  0  0  0  0  0  0
   23.9023  -19.0178  -15.1508 C   0  0  1  0  0  0  0  0  0  0  0  0
   24.9128  -18.8329  -14.0598 C   0  0  0  0  0  0  0  0  0  0  0  0
   24.7417  -19.8179  -12.9623 C   0  0  0  0  0  0  0  0  0  0  0  0
   23.8407  -20.8579  -12.8724 C   0  0  0  0  0  0  0  0  0  0  0  0
   24.0425  -21.4946  -11.6914 N   0  0  0  0  0  0  0  0  0  0  0  0
   25.0411  -20.8777  -11.0516 C   0  0  0  0  0  0  0  0  0  0  0  0
   25.4606  -19.8679  -11.8195 N   0  0  0  0  0  0  0  0  0  0  0  0
   22.5148  -19.0481  -14.5705 C   0  0  0  0  0  0  0  0  0  0  0  0
   22.0288  -17.9251  -14.2905 O   0  0  0  0  0  0  0  0  0  0  0  0
   17.4578  -18.9265  -16.6980 N   0  0  0  0  0  0  0  0  0  0  0  0
   17.0643  -19.4189  -15.4031 C   0  0  0  0  0  0  0  0  0  0  0  0
   15.8426  -19.3659  -15.1596 O   0  0  0  0  0  0  0  0  0  0  0  0
   18.0910  -19.9449  -14.4626 C   0  0  0  0  0  0  0  0  0  0  0  0
   19.4956  -19.7942  -14.9447 C   0  0  0  0  0  0  0  0  0  0  0  0
   20.4651  -20.3846  -13.9411 C   0  0  2  0  0  0  0  0  0  0  0  0
   21.8547  -20.2793  -14.3784 N   0  0  0  0  0  0  0  0  0  0  0  0
   20.1333  -21.7928  -13.6289 C   0  0  0  0  0  0  0  0  0  0  0  0
   19.0705  -22.1761  -12.8504 O   0  0  0  0  0  0  0  0  0  0  0  0
   20.8734  -22.6896  -14.1087 O   0  0  0  0  0  0  0  0  0  0  0  0
  2  1  1  1
  2  8  1  0
  3  2  1  0
  3  4  1  0
  4  5  1  0
  5  6  1  0
  7  6  1  0
  8  9  2  0
 10  8  1  0
 10 11  1  0
 11 18  1  0
 11 12  1  1
 12 13  1  0
 13 17  1  0
 14 13  2  0
 14 15  1  0
 15 16  1  0
 17 16  2  0
 18 19  2  0
 20 21  1  0
 21 23  1  0
 22 21  2  0
 23 24  1  0
 25 24  1  6
 25 27  1  0
 26 25  1  0
 26 18  1  0
 27 28  1  0
 29 27  2  0
M  END
$$$$
