KHQ.pdb
     RDKit          3D

 29 29  0  0  1  0  0  0  0  0999 V2000
   26.3373  -17.1331  -17.7709 N   0  0  0  0  0  0  0  0  0  0  0  0
   24.9324  -17.1955  -18.1257 C   0  0  1  0  0  0  0  0  0  0  0  0
   24.8466  -17.4028  -19.6215 C   0  0  0  0  0  0  0  0  0  0  0  0
   25.6171  -16.2794  -20.2814 C   0  0  0  0  0  0  0  0  0  0  0  0
   24.6828  -15.2122  -20.7713 C   0  0  0  0  0  0  0  0  0  0  0  0
   25.4181  -14.1206  -21.4770 C   0  0  0  0  0  0  0  0  0  0  0  0
   24.5151  -13.0584  -21.8816 N   0  0  0  0  0  0  0  0  0  0  0  0
   24.2739  -18.3227  -17.3910 C   0  0  0  0  0  0  0  0  0  0  0  0
   23.1091  -18.7239  -17.6439 O   0  0  0  0  0  0  0  0  0  0  0  0
   24.9790  -18.9899  -16.3511 N   0  0  0  0  0  0  0  0  0  0  0  0
   24.4059  -19.9367  -15.4559 C   0  0  1  0  0  0  0  0  0  0  0  0
   25.4044  -20.8580  -14.8235 C   0  0  0  0  0  0  0  0  0  0  0  0
   26.3085  -21.4791  -15.8238 C   0  0  0  0  0  0  0  0  0  0  0  0
   26.2787  -21.3659  -17.1978 C   0  0  0  0  0  0  0  0  0  0  0  0
   27.2938  -22.1079  -17.7078 N   0  0  0  0  0  0  0  0  0  0  0  0
   27.9476  -22.6744  -16.6888 C   0  0  0  0  0  0  0  0  0  0  0  0
   27.3521  -22.2939  -15.5548 N   0  0  0  0  0  0  0  0  0  0  0  0
   23.5434  -19.3044  -14.3979 C   0  0  0  0  0  0  0  0  0  0  0  0
   23.8801  -18.1439  -14.0583 O   0  0  0  0  0  0  0  0  0  0  0  0
   19.5383  -16.2206  -15.7848 N   0  0  0  0  0  0  0  0  0  0  0  0
   18.9580  -16.5251  -14.5024 C   0  0  0  0  0  0  0  0  0  0  0  0
   17.9635  -15.8413  -14.1897 O   0  0  0  0  0  0  0  0  0  0  0  0
   19.5480  -17.5955  -13.6530 C   0  0  0  0  0  0  0  0  0  0  0  0
   20.7656  -18.2346  -14.2334 C   0  0  0  0  0  0  0  0  0  0  0  0
   21.2496  -19.3585  -13.3400 C   0  0  2  0  0  0  0  0  0  0  0  0
   22.4469  -20.0115  -13.8629 N   0  0  0  0  0  0  0  0  0  0  0  0
   20.1854  -20.3590  -13.1010 C   0  0  0  0  0  0  0  0  0  0  0  0
   20.0292  -21.5042  -13.8403 O   0  0  0  0  0  0  0  0  0  0  0  0
   19.3772  -20.1422  -12.1619 O   0  0  0  0  0  0  0  0  0  0  0  0
  2  1  1  1
  2  8  1  0
  3  2  1  0
  3  4  1  0
  4  5  1  0
  5  6  1  0
  7  6  1  0
  8  9  2  0
 10  8  1  0
 10 11  1  0
 11 18  1  0
 11 12  1  1
 12 13  1  0
 13 17  1  0
 14 13  2  0
 14 15  1  0
 15 16  1  0
 17 16  2  0
 18 19  2  0
 20 21  1  0
 21 23  1  0
 22 21  2  0
 23 24  1  0
 25 24  1  6
 25 27  1  0
 26 25  1  0
 26 18  1  0
 27 28  1  0
 29 27  2  0
M  END
$$$$
