KHQ.pdb
     RDKit          3D

 29 29  0  0  1  0  0  0  0  0999 V2000
   28.6827  -35.4902  -18.9702 N   0  0  0  0  0  0  0  0  0  0  0  0
   27.7764  -35.6321  -17.8469 C   0  0  1  0  0  0  0  0  0  0  0  0
   27.5684  -37.1114  -17.6102 C   0  0  0  0  0  0  0  0  0  0  0  0
   26.4037  -37.5505  -18.4716 C   0  0  0  0  0  0  0  0  0  0  0  0
   25.1029  -37.3299  -17.7568 C   0  0  0  0  0  0  0  0  0  0  0  0
   23.9527  -37.8954  -18.5232 C   0  0  0  0  0  0  0  0  0  0  0  0
   22.6898  -37.5759  -17.8826 N   0  0  0  0  0  0  0  0  0  0  0  0
   28.3637  -34.9742  -16.6359 C   0  0  0  0  0  0  0  0  0  0  0  0
   29.4780  -35.2948  -16.1488 O   0  0  0  0  0  0  0  0  0  0  0  0
   27.6463  -33.9323  -15.9855 N   0  0  0  0  0  0  0  0  0  0  0  0
   28.0011  -33.3587  -14.7318 C   0  0  1  0  0  0  0  0  0  0  0  0
   28.4491  -31.9314  -14.8207 C   0  0  0  0  0  0  0  0  0  0  0  0
   28.5655  -31.4652  -16.2253 C   0  0  0  0  0  0  0  0  0  0  0  0
   28.3651  -32.1789  -17.3881 C   0  0  0  0  0  0  0  0  0  0  0  0
   28.5854  -31.3499  -18.4394 N   0  0  0  0  0  0  0  0  0  0  0  0
   28.9153  -30.1471  -17.9585 C   0  0  0  0  0  0  0  0  0  0  0  0
   28.9025  -30.2192  -16.6243 N   0  0  0  0  0  0  0  0  0  0  0  0
   26.9243  -33.4986  -13.6908 C   0  0  0  0  0  0  0  0  0  0  0  0
   25.7604  -33.6317  -14.1415 O   0  0  0  0  0  0  0  0  0  0  0  0
   27.1623  -32.5083   -7.9436 N   0  0  0  0  0  0  0  0  0  0  0  0
   25.7311  -32.5220   -8.1027 C   0  0  0  0  0  0  0  0  0  0  0  0
   25.0800  -32.7505   -7.0643 O   0  0  0  0  0  0  0  0  0  0  0  0
   25.1278  -32.2717   -9.4402 C   0  0  0  0  0  0  0  0  0  0  0  0
   26.1211  -32.1742  -10.5500 C   0  0  0  0  0  0  0  0  0  0  0  0
   26.2613  -33.5091  -11.2527 C   0  0  2  0  0  0  0  0  0  0  0  0
   27.2572  -33.4762  -12.3207 N   0  0  0  0  0  0  0  0  0  0  0  0
   24.9627  -33.9845  -11.7800 C   0  0  0  0  0  0  0  0  0  0  0  0
   24.3879  -35.1824  -11.4378 O   0  0  0  0  0  0  0  0  0  0  0  0
   24.3521  -33.2418  -12.5911 O   0  0  0  0  0  0  0  0  0  0  0  0
  2  1  1  6
  2  8  1  0
  3  2  1  0
  3  4  1  0
  4  5  1  0
  5  6  1  0
  7  6  1  0
  8  9  2  0
 10  8  1  0
 10 11  1  0
 11 18  1  0
 11 12  1  6
 12 13  1  0
 13 17  1  0
 14 13  2  0
 14 15  1  0
 15 16  1  0
 17 16  2  0
 18 19  2  0
 20 21  1  0
 21 23  1  0
 22 21  2  0
 23 24  1  0
 25 24  1  6
 25 27  1  0
 26 25  1  0
 26 18  1  0
 27 28  1  0
 29 27  2  0
M  END
$$$$
