KHQ.pdb
     RDKit          3D

 29 29  0  0  1  0  0  0  0  0999 V2000
   13.5137  -21.1612    1.0870 N   0  0  0  0  0  0  0  0  0  0  0  0
   14.8265  -21.7678    0.9774 C   0  0  1  0  0  0  0  0  0  0  0  0
   15.3111  -21.5580   -0.4399 C   0  0  0  0  0  0  0  0  0  0  0  0
   14.6014  -22.5668   -1.3173 C   0  0  0  0  0  0  0  0  0  0  0  0
   15.5863  -23.5081   -1.9463 C   0  0  0  0  0  0  0  0  0  0  0  0
   14.9267  -24.4131   -2.9342 C   0  0  0  0  0  0  0  0  0  0  0  0
   15.8912  -25.3057   -3.5510 N   0  0  0  0  0  0  0  0  0  0  0  0
   15.7612  -21.1338    1.9615 C   0  0  0  0  0  0  0  0  0  0  0  0
   16.9719  -21.4570    2.0699 O   0  0  0  0  0  0  0  0  0  0  0  0
   15.2816  -20.1130    2.8283 N   0  0  0  0  0  0  0  0  0  0  0  0
   16.0486  -19.4854    3.8503 C   0  0  1  0  0  0  0  0  0  0  0  0
   15.6592  -18.0631    4.1167 C   0  0  0  0  0  0  0  0  0  0  0  0
   16.6075  -17.0971    3.5074 C   0  0  0  0  0  0  0  0  0  0  0  0
   17.8082  -17.3505    2.8782 C   0  0  0  0  0  0  0  0  0  0  0  0
   18.3378  -16.1665    2.4799 N   0  0  0  0  0  0  0  0  0  0  0  0
   17.4991  -15.1918    2.8449 C   0  0  0  0  0  0  0  0  0  0  0  0
   16.4574  -15.7551    3.4638 N   0  0  0  0  0  0  0  0  0  0  0  0
   16.0709  -20.2649    5.1367 C   0  0  0  0  0  0  0  0  0  0  0  0
   15.0540  -20.9684    5.3521 O   0  0  0  0  0  0  0  0  0  0  0  0
   20.4856  -23.8433    7.4714 N   0  0  0  0  0  0  0  0  0  0  0  0
   19.6069  -23.6548    8.5968 C   0  0  0  0  0  0  0  0  0  0  0  0
   19.8672  -24.3476    9.6001 O   0  0  0  0  0  0  0  0  0  0  0  0
   18.4827  -22.6832    8.5096 C   0  0  0  0  0  0  0  0  0  0  0  0
   18.4171  -21.9391    7.2174 C   0  0  0  0  0  0  0  0  0  0  0  0
   17.2917  -20.9250    7.2480 C   0  0  2  0  0  0  0  0  0  0  0  0
   17.1823  -20.1742    5.9999 N   0  0  0  0  0  0  0  0  0  0  0  0
   17.4285  -19.9962    8.3922 C   0  0  0  0  0  0  0  0  0  0  0  0
   17.0970  -20.3168    9.6844 O   0  0  0  0  0  0  0  0  0  0  0  0
   17.8764  -18.8437    8.1614 O   0  0  0  0  0  0  0  0  0  0  0  0
  2  1  1  6
  2  8  1  0
  3  2  1  0
  3  4  1  0
  4  5  1  0
  5  6  1  0
  7  6  1  0
  8  9  2  0
 10  8  1  0
 10 11  1  0
 11 18  1  0
 11 12  1  1
 12 13  1  0
 13 17  1  0
 14 13  2  0
 14 15  1  0
 15 16  1  0
 17 16  2  0
 18 19  2  0
 20 21  1  0
 21 23  1  0
 22 21  2  0
 23 24  1  0
 25 24  1  6
 25 27  1  0
 26 25  1  0
 26 18  1  0
 27 28  1  0
 29 27  2  0
M  END
$$$$
