KHQ.pdb
     RDKit          3D

 29 29  0  0  1  0  0  0  0  0999 V2000
   19.3683   -9.8957  -17.0642 N   0  0  0  0  0  0  0  0  0  0  0  0
   18.5771   -8.7480  -17.4641 C   0  0  1  0  0  0  0  0  0  0  0  0
   17.1209   -9.1527  -17.4052 C   0  0  0  0  0  0  0  0  0  0  0  0
   16.8564  -10.0715  -18.5786 C   0  0  0  0  0  0  0  0  0  0  0  0
   16.4532  -11.4364  -18.1028 C   0  0  0  0  0  0  0  0  0  0  0  0
   16.1580  -12.3511  -19.2456 C   0  0  0  0  0  0  0  0  0  0  0  0
   15.7733  -13.6693  -18.7746 N   0  0  0  0  0  0  0  0  0  0  0  0
   18.8503   -7.5986  -16.5429 C   0  0  0  0  0  0  0  0  0  0  0  0
   18.2304   -6.5058  -16.6007 O   0  0  0  0  0  0  0  0  0  0  0  0
   19.8555   -7.7229  -15.5442 N   0  0  0  0  0  0  0  0  0  0  0  0
   20.1814   -6.7204  -14.5874 C   0  0  1  0  0  0  0  0  0  0  0  0
   20.5624   -7.2629  -13.2435 C   0  0  0  0  0  0  0  0  0  0  0  0
   19.4528   -8.0149  -12.6056 C   0  0  0  0  0  0  0  0  0  0  0  0
   18.1800   -8.2420  -13.0852 C   0  0  0  0  0  0  0  0  0  0  0  0
   17.5033   -8.9748  -12.1654 N   0  0  0  0  0  0  0  0  0  0  0  0
   18.3216   -9.2058  -11.1339 C   0  0  0  0  0  0  0  0  0  0  0  0
   19.4955   -8.6265  -11.4016 N   0  0  0  0  0  0  0  0  0  0  0  0
   21.2304   -5.7576  -15.0726 C   0  0  0  0  0  0  0  0  0  0  0  0
   22.2287   -6.2871  -15.6193 O   0  0  0  0  0  0  0  0  0  0  0  0
   21.4142   -3.6259  -19.9760 N   0  0  0  0  0  0  0  0  0  0  0  0
   22.2443   -2.6051  -19.3905 C   0  0  0  0  0  0  0  0  0  0  0  0
   22.8082   -1.8443  -20.2014 O   0  0  0  0  0  0  0  0  0  0  0  0
   22.3795   -2.5128  -17.9111 C   0  0  0  0  0  0  0  0  0  0  0  0
   21.6920   -3.6076  -17.1651 C   0  0  0  0  0  0  0  0  0  0  0  0
   21.7782   -3.3650  -15.6720 C   0  0  2  0  0  0  0  0  0  0  0  0
   21.0512   -4.3696  -14.9001 N   0  0  0  0  0  0  0  0  0  0  0  0
   21.3085   -2.0078  -15.3142 C   0  0  0  0  0  0  0  0  0  0  0  0
   20.0819   -1.7419  -14.7599 O   0  0  0  0  0  0  0  0  0  0  0  0
   22.0843   -1.0423  -15.5334 O   0  0  0  0  0  0  0  0  0  0  0  0
  2  1  1  1
  2  8  1  0
  3  2  1  0
  3  4  1  0
  4  5  1  0
  5  6  1  0
  7  6  1  0
  8  9  2  0
 10  8  1  0
 10 11  1  0
 11 18  1  0
 11 12  1  1
 12 13  1  0
 13 17  1  0
 14 13  2  0
 14 15  1  0
 15 16  1  0
 17 16  2  0
 18 19  2  0
 20 21  1  0
 21 23  1  0
 22 21  2  0
 23 24  1  0
 25 24  1  6
 25 27  1  0
 26 25  1  0
 26 18  1  0
 27 28  1  0
 29 27  2  0
M  END
$$$$
