KHQ.pdb
     RDKit          3D

 29 29  0  0  1  0  0  0  0  0999 V2000
   22.6713  -11.3435  -19.9150 N   0  0  0  0  0  0  0  0  0  0  0  0
   21.5005  -11.3258  -19.0593 C   0  0  1  0  0  0  0  0  0  0  0  0
   21.1548  -12.7601  -18.7261 C   0  0  0  0  0  0  0  0  0  0  0  0
   21.1194  -13.5333  -20.0269 C   0  0  0  0  0  0  0  0  0  0  0  0
   20.8038  -14.9787  -19.7761 C   0  0  0  0  0  0  0  0  0  0  0  0
   20.7316  -15.7539  -21.0504 C   0  0  0  0  0  0  0  0  0  0  0  0
   20.5710  -17.1732  -20.7908 N   0  0  0  0  0  0  0  0  0  0  0  0
   21.7938  -10.5437  -17.8156 C   0  0  0  0  0  0  0  0  0  0  0  0
   20.9788  -10.4288  -16.8647 O   0  0  0  0  0  0  0  0  0  0  0  0
   23.0490   -9.8889  -17.6777 N   0  0  0  0  0  0  0  0  0  0  0  0
   23.4517   -9.1308  -16.5421 C   0  0  1  0  0  0  0  0  0  0  0  0
   24.9153   -9.2262  -16.2346 C   0  0  0  0  0  0  0  0  0  0  0  0
   25.3398  -10.6196  -15.9484 C   0  0  0  0  0  0  0  0  0  0  0  0
   24.5579  -11.7483  -15.8209 C   0  0  0  0  0  0  0  0  0  0  0  0
   25.3711  -12.8014  -15.5553 N   0  0  0  0  0  0  0  0  0  0  0  0
   26.6304  -12.3548  -15.5157 C   0  0  0  0  0  0  0  0  0  0  0  0
   26.6089  -11.0401  -15.7528 N   0  0  0  0  0  0  0  0  0  0  0  0
   23.0317   -7.6881  -16.6142 C   0  0  0  0  0  0  0  0  0  0  0  0
   23.4997   -7.0439  -17.5845 O   0  0  0  0  0  0  0  0  0  0  0  0
   18.0235   -2.5817  -16.6243 N   0  0  0  0  0  0  0  0  0  0  0  0
   18.5080   -3.9326  -16.5051 C   0  0  0  0  0  0  0  0  0  0  0  0
   17.7576   -4.8127  -16.9707 O   0  0  0  0  0  0  0  0  0  0  0  0
   19.8239   -4.1980  -15.8620 C   0  0  0  0  0  0  0  0  0  0  0  0
   20.2319   -5.6337  -15.8749 C   0  0  0  0  0  0  0  0  0  0  0  0
   21.7224   -5.7618  -15.6350 C   0  0  2  0  0  0  0  0  0  0  0  0
   22.1706   -7.1519  -15.6346 N   0  0  0  0  0  0  0  0  0  0  0  0
   22.1298   -5.0936  -14.3788 C   0  0  0  0  0  0  0  0  0  0  0  0
   22.3904   -3.7506  -14.2738 O   0  0  0  0  0  0  0  0  0  0  0  0
   22.2426   -5.8040  -13.3469 O   0  0  0  0  0  0  0  0  0  0  0  0
  2  1  1  6
  2  8  1  0
  3  2  1  0
  3  4  1  0
  4  5  1  0
  5  6  1  0
  7  6  1  0
  8  9  2  0
 10  8  1  0
 10 11  1  0
 11 18  1  0
 11 12  1  6
 12 13  1  0
 13 17  1  0
 14 13  2  0
 14 15  1  0
 15 16  1  0
 17 16  2  0
 18 19  2  0
 20 21  1  0
 21 23  1  0
 22 21  2  0
 23 24  1  0
 25 24  1  1
 25 27  1  0
 26 25  1  0
 26 18  1  0
 27 28  1  0
 29 27  2  0
M  END
$$$$
