KHQ.pdb
     RDKit          3D

 29 29  0  0  1  0  0  0  0  0999 V2000
   21.4760  -13.3765  -16.9214 N   0  0  0  0  0  0  0  0  0  0  0  0
   20.9011  -12.6582  -18.0425 C   0  0  1  0  0  0  0  0  0  0  0  0
   20.0527  -13.6351  -18.8258 C   0  0  0  0  0  0  0  0  0  0  0  0
   20.8450  -14.9175  -18.9629 C   0  0  0  0  0  0  0  0  0  0  0  0
   20.0108  -15.9907  -19.5985 C   0  0  0  0  0  0  0  0  0  0  0  0
   20.7505  -17.2855  -19.6790 C   0  0  0  0  0  0  0  0  0  0  0  0
   19.9086  -18.3359  -20.2225 N   0  0  0  0  0  0  0  0  0  0  0  0
   20.0740  -11.5144  -17.5407 C   0  0  0  0  0  0  0  0  0  0  0  0
   19.4853  -10.7033  -18.3005 O   0  0  0  0  0  0  0  0  0  0  0  0
   19.9308  -11.3129  -16.1399 N   0  0  0  0  0  0  0  0  0  0  0  0
   19.2326  -10.2267  -15.5404 C   0  0  1  0  0  0  0  0  0  0  0  0
   18.4569  -10.6041  -14.3151 C   0  0  0  0  0  0  0  0  0  0  0  0
   17.1909  -11.3056  -14.6452 C   0  0  0  0  0  0  0  0  0  0  0  0
   16.6609  -11.5855  -15.8871 C   0  0  0  0  0  0  0  0  0  0  0  0
   15.4851  -12.2391  -15.7104 N   0  0  0  0  0  0  0  0  0  0  0  0
   15.2755  -12.3701  -14.3967 C   0  0  0  0  0  0  0  0  0  0  0  0
   16.3046  -11.8070  -13.7571 N   0  0  0  0  0  0  0  0  0  0  0  0
   20.1155   -9.0440  -15.2494 C   0  0  0  0  0  0  0  0  0  0  0  0
   21.3126   -9.3219  -14.9936 O   0  0  0  0  0  0  0  0  0  0  0  0
   22.9092   -5.5209  -18.5203 N   0  0  0  0  0  0  0  0  0  0  0  0
   22.9757   -4.7327  -17.3168 C   0  0  0  0  0  0  0  0  0  0  0  0
   23.7711   -3.7732  -17.3495 O   0  0  0  0  0  0  0  0  0  0  0  0
   22.1268   -5.0869  -16.1466 C   0  0  0  0  0  0  0  0  0  0  0  0
   21.2011   -6.2326  -16.3877 C   0  0  0  0  0  0  0  0  0  0  0  0
   20.3989   -6.5358  -15.1386 C   0  0  2  0  0  0  0  0  0  0  0  0
   19.5824   -7.7389  -15.2776 N   0  0  0  0  0  0  0  0  0  0  0  0
   19.5528   -5.3872  -14.7443 C   0  0  0  0  0  0  0  0  0  0  0  0
   20.0021   -4.3209  -14.0070 O   0  0  0  0  0  0  0  0  0  0  0  0
   18.3492   -5.3931  -15.1095 O   0  0  0  0  0  0  0  0  0  0  0  0
  2  1  1  1
  2  8  1  0
  3  2  1  0
  3  4  1  0
  4  5  1  0
  5  6  1  0
  7  6  1  0
  8  9  2  0
 10  8  1  0
 10 11  1  0
 11 18  1  0
 11 12  1  1
 12 13  1  0
 13 17  1  0
 14 13  2  0
 14 15  1  0
 15 16  1  0
 17 16  2  0
 18 19  2  0
 20 21  1  0
 21 23  1  0
 22 21  2  0
 23 24  1  0
 25 24  1  6
 25 27  1  0
 26 25  1  0
 26 18  1  0
 27 28  1  0
 29 27  2  0
M  END
$$$$
