KHQ.pdb
     RDKit          3D

 29 29  0  0  1  0  0  0  0  0999 V2000
   25.4076  -19.9063  -15.5098 N   0  0  0  0  0  0  0  0  0  0  0  0
   23.9676  -20.0786  -15.5235 C   0  0  1  0  0  0  0  0  0  0  0  0
   23.6070  -20.8199  -16.7917 C   0  0  0  0  0  0  0  0  0  0  0  0
   23.9269  -19.9089  -17.9574 C   0  0  0  0  0  0  0  0  0  0  0  0
   23.5409  -20.5543  -19.2560 C   0  0  0  0  0  0  0  0  0  0  0  0
   23.8983  -19.6949  -20.4237 C   0  0  0  0  0  0  0  0  0  0  0  0
   23.4431  -20.2877  -21.6682 N   0  0  0  0  0  0  0  0  0  0  0  0
   23.5382  -20.8497  -14.3130 C   0  0  0  0  0  0  0  0  0  0  0  0
   23.4008  -22.0999  -14.3043 O   0  0  0  0  0  0  0  0  0  0  0  0
   23.2661  -20.1581  -13.1001 N   0  0  0  0  0  0  0  0  0  0  0  0
   22.9340  -20.7814  -11.8641 C   0  0  1  0  0  0  0  0  0  0  0  0
   23.5749  -20.1432  -10.6693 C   0  0  0  0  0  0  0  0  0  0  0  0
   25.0181  -20.4742  -10.5615 C   0  0  0  0  0  0  0  0  0  0  0  0
   25.7816  -21.2725  -11.3870 C   0  0  0  0  0  0  0  0  0  0  0  0
   27.0495  -21.2937  -10.9043 N   0  0  0  0  0  0  0  0  0  0  0  0
   27.0893  -20.5321   -9.8065 C   0  0  0  0  0  0  0  0  0  0  0  0
   25.8642  -20.0395   -9.6022 N   0  0  0  0  0  0  0  0  0  0  0  0
   21.4512  -20.9127  -11.6469 C   0  0  0  0  0  0  0  0  0  0  0  0
   20.7401  -20.1483  -12.3438 O   0  0  0  0  0  0  0  0  0  0  0  0
   18.4787  -25.1537   -7.6499 N   0  0  0  0  0  0  0  0  0  0  0  0
   17.4490  -24.2983   -8.1811 C   0  0  0  0  0  0  0  0  0  0  0  0
   16.2914  -24.5506   -7.7930 O   0  0  0  0  0  0  0  0  0  0  0  0
   17.8039  -23.2026   -9.1241 C   0  0  0  0  0  0  0  0  0  0  0  0
   19.2704  -23.0430   -9.3512 C   0  0  0  0  0  0  0  0  0  0  0  0
   19.5281  -22.0296  -10.4478 C   0  0  2  0  0  0  0  0  0  0  0  0
   20.9524  -21.8459  -10.7149 N   0  0  0  0  0  0  0  0  0  0  0  0
   18.8935  -20.7275  -10.1442 C   0  0  0  0  0  0  0  0  0  0  0  0
   17.6639  -20.3445  -10.6173 O   0  0  0  0  0  0  0  0  0  0  0  0
   19.5233  -19.9261   -9.4070 O   0  0  0  0  0  0  0  0  0  0  0  0
  2  1  1  1
  2  8  1  0
  3  2  1  0
  3  4  1  0
  4  5  1  0
  5  6  1  0
  7  6  1  0
  8  9  2  0
 10  8  1  0
 10 11  1  0
 11 18  1  0
 11 12  1  1
 12 13  1  0
 13 17  1  0
 14 13  2  0
 14 15  1  0
 15 16  1  0
 17 16  2  0
 18 19  2  0
 20 21  1  0
 21 23  1  0
 22 21  2  0
 23 24  1  0
 25 24  1  1
 25 27  1  0
 26 25  1  0
 26 18  1  0
 27 28  1  0
 29 27  2  0
M  END
$$$$
