KHQ.pdb
     RDKit          3D

 29 29  0  0  1  0  0  0  0  0999 V2000
   37.3830  -36.9532   -3.5197 N   0  0  0  0  0  0  0  0  0  0  0  0
   36.4401  -36.9407   -4.6216 C   0  0  1  0  0  0  0  0  0  0  0  0
   36.3389  -38.3528   -5.1539 C   0  0  0  0  0  0  0  0  0  0  0  0
   37.3933  -38.5104   -6.2285 C   0  0  0  0  0  0  0  0  0  0  0  0
   37.3826  -39.9054   -6.7812 C   0  0  0  0  0  0  0  0  0  0  0  0
   38.4666  -40.1050   -7.7886 C   0  0  0  0  0  0  0  0  0  0  0  0
   38.4207  -41.4438   -8.3480 N   0  0  0  0  0  0  0  0  0  0  0  0
   35.1072  -36.4532   -4.1422 C   0  0  0  0  0  0  0  0  0  0  0  0
   34.8387  -36.2609   -2.9286 O   0  0  0  0  0  0  0  0  0  0  0  0
   34.0763  -36.1867   -5.0854 N   0  0  0  0  0  0  0  0  0  0  0  0
   32.7467  -35.8026   -4.7520 C   0  0  1  0  0  0  0  0  0  0  0  0
   31.9004  -35.4484   -5.9369 C   0  0  0  0  0  0  0  0  0  0  0  0
   30.5417  -34.9982   -5.5429 C   0  0  0  0  0  0  0  0  0  0  0  0
   29.9870  -34.9391   -4.2818 C   0  0  0  0  0  0  0  0  0  0  0  0
   28.7196  -34.4683   -4.3964 N   0  0  0  0  0  0  0  0  0  0  0  0
   28.4777  -34.2357   -5.6903 C   0  0  0  0  0  0  0  0  0  0  0  0
   29.5770  -34.5557   -6.3789 N   0  0  0  0  0  0  0  0  0  0  0  0
   32.0364  -36.8128   -3.8929 C   0  0  0  0  0  0  0  0  0  0  0  0
   32.0754  -37.9941   -4.3155 O   0  0  0  0  0  0  0  0  0  0  0  0
   30.7913  -36.5789    2.4038 N   0  0  0  0  0  0  0  0  0  0  0  0
   30.1221  -37.7538    1.9078 C   0  0  0  0  0  0  0  0  0  0  0  0
   29.5906  -38.4731    2.7764 O   0  0  0  0  0  0  0  0  0  0  0  0
   30.0983  -38.0363    0.4466 C   0  0  0  0  0  0  0  0  0  0  0  0
   30.8458  -37.0435   -0.3801 C   0  0  0  0  0  0  0  0  0  0  0  0
   30.6295  -37.3142   -1.8551 C   0  0  2  0  0  0  0  0  0  0  0  0
   31.3912  -36.4048   -2.7073 N   0  0  0  0  0  0  0  0  0  0  0  0
   29.1938  -37.2657   -2.2113 C   0  0  0  0  0  0  0  0  0  0  0  0
   28.3733  -38.3650   -2.2415 O   0  0  0  0  0  0  0  0  0  0  0  0
   28.6998  -36.1464   -2.5036 O   0  0  0  0  0  0  0  0  0  0  0  0
  2  1  1  1
  2  8  1  0
  3  2  1  0
  3  4  1  0
  4  5  1  0
  5  6  1  0
  7  6  1  0
  8  9  2  0
 10  8  1  0
 10 11  1  0
 11 18  1  0
 11 12  1  6
 12 13  1  0
 13 17  1  0
 14 13  2  0
 14 15  1  0
 15 16  1  0
 17 16  2  0
 18 19  2  0
 20 21  1  0
 21 23  1  0
 22 21  2  0
 23 24  1  0
 25 24  1  1
 25 27  1  0
 26 25  1  0
 26 18  1  0
 27 28  1  0
 29 27  2  0
M  END
$$$$
