KHQ.pdb
     RDKit          3D

 29 29  0  0  1  0  0  0  0  0999 V2000
   22.9053  -22.7012  -16.7318 N   0  0  0  0  0  0  0  0  0  0  0  0
   22.4996  -21.3664  -17.1281 C   0  0  1  0  0  0  0  0  0  0  0  0
   21.0632  -21.1764  -16.6941 C   0  0  0  0  0  0  0  0  0  0  0  0
   20.1917  -21.9635  -17.6493 C   0  0  0  0  0  0  0  0  0  0  0  0
   18.7408  -21.6601  -17.4155 C   0  0  0  0  0  0  0  0  0  0  0  0
   17.8609  -22.4505  -18.3272 C   0  0  0  0  0  0  0  0  0  0  0  0
   18.0264  -23.8759  -18.1079 N   0  0  0  0  0  0  0  0  0  0  0  0
   23.3924  -20.3525  -16.4806 C   0  0  0  0  0  0  0  0  0  0  0  0
   23.2865  -20.0100  -15.2751 O   0  0  0  0  0  0  0  0  0  0  0  0
   24.4189  -19.7312  -17.2445 N   0  0  0  0  0  0  0  0  0  0  0  0
   25.2449  -18.6666  -16.7852 C   0  0  1  0  0  0  0  0  0  0  0  0
   26.6982  -18.8425  -17.1052 C   0  0  0  0  0  0  0  0  0  0  0  0
   27.1879  -20.2024  -16.7664 C   0  0  0  0  0  0  0  0  0  0  0  0
   26.4913  -21.2532  -16.2077 C   0  0  0  0  0  0  0  0  0  0  0  0
   27.3407  -22.3026  -16.0727 N   0  0  0  0  0  0  0  0  0  0  0  0
   28.5393  -21.9293  -16.5318 C   0  0  0  0  0  0  0  0  0  0  0  0
   28.4446  -20.6636  -16.9491 N   0  0  0  0  0  0  0  0  0  0  0  0
   24.7749  -17.3129  -17.2430 C   0  0  0  0  0  0  0  0  0  0  0  0
   24.0163  -17.3215  -18.2429 O   0  0  0  0  0  0  0  0  0  0  0  0
   20.7557  -16.7435  -16.2330 N   0  0  0  0  0  0  0  0  0  0  0  0
   20.7422  -15.3137  -16.4045 C   0  0  0  0  0  0  0  0  0  0  0  0
   19.6928  -14.8429  -16.8855 O   0  0  0  0  0  0  0  0  0  0  0  0
   21.9295  -14.5054  -16.0139 C   0  0  0  0  0  0  0  0  0  0  0  0
   23.0922  -15.3149  -15.5443 C   0  0  0  0  0  0  0  0  0  0  0  0
   24.3271  -14.9886  -16.3594 C   0  0  2  0  0  0  0  0  0  0  0  0
   25.1882  -16.1514  -16.5584 N   0  0  0  0  0  0  0  0  0  0  0  0
   25.0987  -13.8791  -15.7559 C   0  0  0  0  0  0  0  0  0  0  0  0
   24.7765  -12.5532  -15.9002 O   0  0  0  0  0  0  0  0  0  0  0  0
   26.1107  -14.1741  -15.0698 O   0  0  0  0  0  0  0  0  0  0  0  0
  2  1  1  1
  2  8  1  0
  3  2  1  0
  3  4  1  0
  4  5  1  0
  5  6  1  0
  7  6  1  0
  8  9  2  0
 10  8  1  0
 10 11  1  0
 11 18  1  0
 11 12  1  6
 12 13  1  0
 13 17  1  0
 14 13  2  0
 14 15  1  0
 15 16  1  0
 17 16  2  0
 18 19  2  0
 20 21  1  0
 21 23  1  0
 22 21  2  0
 23 24  1  0
 25 24  1  1
 25 27  1  0
 26 25  1  0
 26 18  1  0
 27 28  1  0
 29 27  2  0
M  END
$$$$
