KHQ.pdb
     RDKit          3D

 29 29  0  0  1  0  0  0  0  0999 V2000
   36.4749  -30.8330  -22.4595 N   0  0  0  0  0  0  0  0  0  0  0  0
   35.0445  -31.0687  -22.4174 C   0  0  1  0  0  0  0  0  0  0  0  0
   34.8193  -32.5530  -22.6015 C   0  0  0  0  0  0  0  0  0  0  0  0
   33.8718  -32.7278  -23.7689 C   0  0  0  0  0  0  0  0  0  0  0  0
   33.6179  -34.1831  -24.0323 C   0  0  0  0  0  0  0  0  0  0  0  0
   32.6646  -34.3778  -25.1651 C   0  0  0  0  0  0  0  0  0  0  0  0
   32.4397  -35.7886  -25.4229 N   0  0  0  0  0  0  0  0  0  0  0  0
   34.4929  -30.6030  -21.1047 C   0  0  0  0  0  0  0  0  0  0  0  0
   34.2694  -31.3750  -20.1374 O   0  0  0  0  0  0  0  0  0  0  0  0
   34.1984  -29.2241  -20.9164 N   0  0  0  0  0  0  0  0  0  0  0  0
   33.6909  -28.6565  -19.7136 C   0  0  1  0  0  0  0  0  0  0  0  0
   34.7193  -27.9271  -18.9037 C   0  0  0  0  0  0  0  0  0  0  0  0
   35.6681  -28.8525  -18.2349 C   0  0  0  0  0  0  0  0  0  0  0  0
   35.6925  -30.2309  -18.2671 C   0  0  0  0  0  0  0  0  0  0  0  0
   36.7334  -30.6557  -17.5075 N   0  0  0  0  0  0  0  0  0  0  0  0
   37.3506  -29.5800  -17.0087 C   0  0  0  0  0  0  0  0  0  0  0  0
   36.7069  -28.4949  -17.4485 N   0  0  0  0  0  0  0  0  0  0  0  0
   32.4890  -27.7791  -19.9341 C   0  0  0  0  0  0  0  0  0  0  0  0
   32.4763  -27.1555  -21.0234 O   0  0  0  0  0  0  0  0  0  0  0  0
   27.3761  -27.8855  -16.0079 N   0  0  0  0  0  0  0  0  0  0  0  0
   27.2395  -28.5121  -17.2974 C   0  0  0  0  0  0  0  0  0  0  0  0
   26.2599  -29.2735  -17.4206 O   0  0  0  0  0  0  0  0  0  0  0  0
   28.2304  -28.2298  -18.3715 C   0  0  0  0  0  0  0  0  0  0  0  0
   29.2480  -27.1999  -18.0088 C   0  0  0  0  0  0  0  0  0  0  0  0
   30.2193  -26.9907  -19.1527 C   0  0  2  0  0  0  0  0  0  0  0  0
   31.4789  -27.7027  -18.9531 N   0  0  0  0  0  0  0  0  0  0  0  0
   30.4776  -25.5528  -19.3898 C   0  0  0  0  0  0  0  0  0  0  0  0
   29.8646  -24.8148  -20.3707 O   0  0  0  0  0  0  0  0  0  0  0  0
   31.3106  -24.9761  -18.6444 O   0  0  0  0  0  0  0  0  0  0  0  0
  2  1  1  1
  2  8  1  0
  3  2  1  0
  3  4  1  0
  4  5  1  0
  5  6  1  0
  7  6  1  0
  8  9  2  0
 10  8  1  0
 10 11  1  0
 11 18  1  0
 11 12  1  6
 12 13  1  0
 13 17  1  0
 14 13  2  0
 14 15  1  0
 15 16  1  0
 17 16  2  0
 18 19  2  0
 20 21  1  0
 21 23  1  0
 22 21  2  0
 23 24  1  0
 25 24  1  1
 25 27  1  0
 26 25  1  0
 26 18  1  0
 27 28  1  0
 29 27  2  0
M  END
$$$$
