KHQ.pdb
     RDKit          3D

 29 29  0  0  1  0  0  0  0  0999 V2000
   45.8808  -15.8056   -7.0689 N   0  0  0  0  0  0  0  0  0  0  0  0
   44.9549  -15.1465   -7.9698 C   0  0  1  0  0  0  0  0  0  0  0  0
   43.9059  -16.1599   -8.3704 C   0  0  0  0  0  0  0  0  0  0  0  0
   44.5737  -17.1715   -9.2769 C   0  0  0  0  0  0  0  0  0  0  0  0
   43.6046  -18.2446   -9.6784 C   0  0  0  0  0  0  0  0  0  0  0  0
   44.2514  -19.2703  -10.5499 C   0  0  0  0  0  0  0  0  0  0  0  0
   43.3279  -20.3443  -10.8676 N   0  0  0  0  0  0  0  0  0  0  0  0
   44.3287  -13.9720   -7.2824 C   0  0  0  0  0  0  0  0  0  0  0  0
   43.9441  -13.9978   -6.0852 O   0  0  0  0  0  0  0  0  0  0  0  0
   44.1486  -12.7548   -7.9961 N   0  0  0  0  0  0  0  0  0  0  0  0
   43.5759  -11.5697   -7.4538 C   0  0  1  0  0  0  0  0  0  0  0  0
   44.5602  -10.4597   -7.2427 C   0  0  0  0  0  0  0  0  0  0  0  0
   44.7813  -10.1705   -5.8035 C   0  0  0  0  0  0  0  0  0  0  0  0
   44.1671  -10.7389   -4.7075 C   0  0  0  0  0  0  0  0  0  0  0  0
   44.6790  -10.1667   -3.5887 N   0  0  0  0  0  0  0  0  0  0  0  0
   45.5900   -9.2632   -3.9633 C   0  0  0  0  0  0  0  0  0  0  0  0
   45.6499   -9.2674   -5.2981 N   0  0  0  0  0  0  0  0  0  0  0  0
   42.3940  -11.0703   -8.2392 C   0  0  0  0  0  0  0  0  0  0  0  0
   42.5189  -11.1296   -9.4868 O   0  0  0  0  0  0  0  0  0  0  0  0
   36.4172   -9.9444   -5.9463 N   0  0  0  0  0  0  0  0  0  0  0  0
   36.4345   -9.4199   -7.2874 C   0  0  0  0  0  0  0  0  0  0  0  0
   35.3730   -8.8872   -7.6668 O   0  0  0  0  0  0  0  0  0  0  0  0
   37.6659   -9.5334   -8.1158 C   0  0  0  0  0  0  0  0  0  0  0  0
   38.8194  -10.1676   -7.4121 C   0  0  0  0  0  0  0  0  0  0  0  0
   40.0712  -10.0765   -8.2609 C   0  0  2  0  0  0  0  0  0  0  0  0
   41.2535  -10.5827   -7.5685 N   0  0  0  0  0  0  0  0  0  0  0  0
   40.3084   -8.6938   -8.7323 C   0  0  0  0  0  0  0  0  0  0  0  0
   39.8278   -8.1938   -9.9161 O   0  0  0  0  0  0  0  0  0  0  0  0
   40.9929   -7.9341   -7.9998 O   0  0  0  0  0  0  0  0  0  0  0  0
  2  1  1  1
  2  8  1  0
  3  2  1  0
  3  4  1  0
  4  5  1  0
  5  6  1  0
  7  6  1  0
  8  9  2  0
 10  8  1  0
 10 11  1  0
 11 18  1  0
 11 12  1  6
 12 13  1  0
 13 17  1  0
 14 13  2  0
 14 15  1  0
 15 16  1  0
 17 16  2  0
 18 19  2  0
 20 21  1  0
 21 23  1  0
 22 21  2  0
 23 24  1  0
 25 24  1  1
 25 27  1  0
 26 25  1  0
 26 18  1  0
 27 28  1  0
 29 27  2  0
M  END
$$$$
