TVQ.pdb
     RDKit          3D

 24 23  0  0  1  0  0  0  0  0999 V2000
   21.1692  -20.0313  -18.4423 C   0  0  0  0  0  0  0  0  0  0  0  0
   22.4329  -20.2811  -17.6421 C   0  0  1  0  0  0  0  0  0  0  0  0
   22.7600  -21.6162  -17.5816 O   0  0  0  0  0  0  0  0  0  0  0  0
   23.5739  -19.4282  -18.1440 C   0  0  2  0  0  0  0  0  0  0  0  0
   23.8702  -19.7843  -19.5158 N   0  0  0  0  0  0  0  0  0  0  0  0
   24.7826  -19.5045  -17.3255 C   0  0  0  0  0  0  0  0  0  0  0  0
   25.7608  -20.1908  -17.7379 O   0  0  0  0  0  0  0  0  0  0  0  0
   27.2018  -16.8345  -16.2178 C   0  0  0  0  0  0  0  0  0  0  0  0
   26.6776  -17.5390  -15.0072 C   0  0  1  0  0  0  0  0  0  0  0  0
   25.7072  -16.7790  -14.1811 C   0  0  0  0  0  0  0  0  0  0  0  0
   26.2324  -18.9686  -15.3411 C   0  0  2  0  0  0  0  0  0  0  0  0
   24.9563  -18.8604  -16.0805 N   0  0  0  0  0  0  0  0  0  0  0  0
   26.0182  -19.7269  -14.1103 C   0  0  0  0  0  0  0  0  0  0  0  0
   24.8795  -19.8454  -13.5533 O   0  0  0  0  0  0  0  0  0  0  0  0
   30.8534  -21.6433  -10.4563 N   0  0  0  0  0  0  0  0  0  0  0  0
   29.7251  -21.7653   -9.6053 C   0  0  0  0  0  0  0  0  0  0  0  0
   29.9337  -21.9252   -8.3810 O   0  0  0  0  0  0  0  0  0  0  0  0
   28.3781  -21.7014  -10.1814 C   0  0  0  0  0  0  0  0  0  0  0  0
   28.3184  -21.2133  -11.5864 C   0  0  0  0  0  0  0  0  0  0  0  0
   26.9508  -20.9770  -12.1377 C   0  0  2  0  0  0  0  0  0  0  0  0
   27.0947  -20.3792  -13.4703 N   0  0  0  0  0  0  0  0  0  0  0  0
   26.1574  -20.0460  -11.3213 C   0  0  0  0  0  0  0  0  0  0  0  0
   25.0981  -20.5250  -10.5796 O   0  0  0  0  0  0  0  0  0  0  0  0
   26.4373  -18.8323  -11.2979 O   0  0  0  0  0  0  0  0  0  0  0  0
  2  3  1  0
  2  1  1  6
  4  2  1  0
  4  5  1  6
  6 12  1  0
  6  4  1  0
  7  6  2  0
  9  8  1  6
  9 11  1  0
  9 10  1  0
 11 12  1  1
 13 11  1  0
 14 13  2  0
 16 17  2  0
 16 15  1  0
 18 16  1  0
 19 18  1  0
 20 21  1  0
 20 19  1  1
 21 13  1  0
 22 20  1  0
 23 22  1  0
 24 22  2  0
M  END
$$$$
