TVQ.pdb
     RDKit          3D

 24 23  0  0  1  0  0  0  0  0999 V2000
   17.2792  -12.3495  -19.2429 C   0  0  0  0  0  0  0  0  0  0  0  0
   17.9289  -11.5007  -18.1672 C   0  0  1  0  0  0  0  0  0  0  0  0
   17.0429  -10.6235  -17.5851 O   0  0  0  0  0  0  0  0  0  0  0  0
   18.6435  -12.3603  -17.1516 C   0  0  2  0  0  0  0  0  0  0  0  0
   17.6859  -13.2314  -16.5032 N   0  0  0  0  0  0  0  0  0  0  0  0
   19.4006  -11.6045  -16.1554 C   0  0  0  0  0  0  0  0  0  0  0  0
   18.8928  -11.4136  -15.0137 O   0  0  0  0  0  0  0  0  0  0  0  0
   23.4147  -11.0348  -16.5212 C   0  0  0  0  0  0  0  0  0  0  0  0
   22.7849  -10.8482  -15.1776 C   0  0  1  0  0  0  0  0  0  0  0  0
   23.6205  -10.1703  -14.1558 C   0  0  0  0  0  0  0  0  0  0  0  0
   21.3634  -10.2846  -15.2996 C   0  0  2  0  0  0  0  0  0  0  0  0
   20.6849  -11.0547  -16.3642 N   0  0  0  0  0  0  0  0  0  0  0  0
   21.4146   -8.8738  -15.6776 C   0  0  0  0  0  0  0  0  0  0  0  0
   21.7117   -8.4763  -16.8501 O   0  0  0  0  0  0  0  0  0  0  0  0
   17.3103   -4.7993  -15.5423 N   0  0  0  0  0  0  0  0  0  0  0  0
   18.4006   -3.8934  -15.4893 C   0  0  0  0  0  0  0  0  0  0  0  0
   18.1421   -2.6686  -15.5210 O   0  0  0  0  0  0  0  0  0  0  0  0
   19.7678   -4.4162  -15.4016 C   0  0  0  0  0  0  0  0  0  0  0  0
   19.8669   -5.8940  -15.2525 C   0  0  0  0  0  0  0  0  0  0  0  0
   21.2443   -6.4404  -15.0670 C   0  0  2  0  0  0  0  0  0  0  0  0
   21.1273   -7.8646  -14.7327 N   0  0  0  0  0  0  0  0  0  0  0  0
   21.9753   -5.7895  -13.9695 C   0  0  0  0  0  0  0  0  0  0  0  0
   21.9769   -6.3667  -12.7171 O   0  0  0  0  0  0  0  0  0  0  0  0
   22.5896   -4.7236  -14.1661 O   0  0  0  0  0  0  0  0  0  0  0  0
  2  3  1  0
  2  1  1  6
  4  2  1  0
  4  5  1  1
  6 12  1  0
  6  4  1  0
  7  6  2  0
  9  8  1  6
  9 11  1  0
  9 10  1  0
 11 12  1  6
 13 11  1  0
 14 13  2  0
 16 17  2  0
 16 15  1  0
 18 16  1  0
 19 18  1  0
 20 21  1  0
 20 19  1  1
 21 13  1  0
 22 20  1  0
 23 22  1  0
 24 22  2  0
M  END
$$$$
