TVQ.pdb
     RDKit          3D

 24 23  0  0  1  0  0  0  0  0999 V2000
   15.8541   -9.2258  -15.2595 C   0  0  0  0  0  0  0  0  0  0  0  0
   16.4956  -10.5911  -15.4147 C   0  0  1  0  0  0  0  0  0  0  0  0
   15.6612  -11.4955  -16.0305 O   0  0  0  0  0  0  0  0  0  0  0  0
   17.8399  -10.4880  -16.0953 C   0  0  2  0  0  0  0  0  0  0  0  0
   18.2784  -11.8097  -16.4918 N   0  0  0  0  0  0  0  0  0  0  0  0
   18.8683   -9.8300  -15.2913 C   0  0  0  0  0  0  0  0  0  0  0  0
   18.5390   -9.2876  -14.1981 O   0  0  0  0  0  0  0  0  0  0  0  0
   22.6781  -11.0249  -14.4810 C   0  0  0  0  0  0  0  0  0  0  0  0
   22.5777   -9.6416  -15.0406 C   0  0  1  0  0  0  0  0  0  0  0  0
   23.0612   -9.4660  -16.4324 C   0  0  0  0  0  0  0  0  0  0  0  0
   21.1963   -9.0297  -14.7748 C   0  0  2  0  0  0  0  0  0  0  0  0
   20.2345   -9.7460  -15.6400 N   0  0  0  0  0  0  0  0  0  0  0  0
   21.2014   -7.6107  -15.1243 C   0  0  0  0  0  0  0  0  0  0  0  0
   20.7455   -7.1619  -16.2251 O   0  0  0  0  0  0  0  0  0  0  0  0
   18.1257   -4.1112  -16.1340 N   0  0  0  0  0  0  0  0  0  0  0  0
   18.7023   -3.0903  -15.3357 C   0  0  0  0  0  0  0  0  0  0  0  0
   18.2647   -1.9253  -15.4747 O   0  0  0  0  0  0  0  0  0  0  0  0
   19.7727   -3.4311  -14.3931 C   0  0  0  0  0  0  0  0  0  0  0  0
   20.1164   -4.8781  -14.3293 C   0  0  0  0  0  0  0  0  0  0  0  0
   21.5657   -5.2113  -14.4656 C   0  0  2  0  0  0  0  0  0  0  0  0
   21.7252   -6.6512  -14.2306 N   0  0  0  0  0  0  0  0  0  0  0  0
   22.4090   -4.5095  -13.4864 C   0  0  0  0  0  0  0  0  0  0  0  0
   22.6405   -5.0827  -12.2538 O   0  0  0  0  0  0  0  0  0  0  0  0
   22.9120   -3.4043  -13.7650 O   0  0  0  0  0  0  0  0  0  0  0  0
  2  3  1  0
  2  1  1  6
  4  2  1  0
  4  5  1  1
  6 12  1  0
  6  4  1  0
  7  6  2  0
  9  8  1  6
  9 11  1  0
  9 10  1  0
 11 12  1  6
 13 11  1  0
 14 13  2  0
 16 17  2  0
 16 15  1  0
 18 16  1  0
 19 18  1  0
 20 21  1  0
 20 19  1  1
 21 13  1  0
 22 20  1  0
 23 22  1  0
 24 22  2  0
M  END
$$$$
