TVQ.pdb
     RDKit          3D

 24 23  0  0  1  0  0  0  0  0999 V2000
   20.5901  -17.1474  -18.2623 C   0  0  0  0  0  0  0  0  0  0  0  0
   21.1202  -16.1787  -17.2229 C   0  0  1  0  0  0  0  0  0  0  0  0
   22.1641  -16.7065  -16.4985 O   0  0  0  0  0  0  0  0  0  0  0  0
   21.4630  -14.8456  -17.8444 C   0  0  2  0  0  0  0  0  0  0  0  0
   22.5121  -15.0302  -18.8251 N   0  0  0  0  0  0  0  0  0  0  0  0
   21.8435  -13.8159  -16.8791 C   0  0  0  0  0  0  0  0  0  0  0  0
   21.0533  -13.5410  -15.9315 O   0  0  0  0  0  0  0  0  0  0  0  0
   25.5506  -12.0218  -17.0662 C   0  0  0  0  0  0  0  0  0  0  0  0
   24.8532  -11.9692  -15.7443 C   0  0  1  0  0  0  0  0  0  0  0  0
   25.3170  -10.9181  -14.8051 C   0  0  0  0  0  0  0  0  0  0  0  0
   23.3297  -12.0314  -15.9129 C   0  0  2  0  0  0  0  0  0  0  0  0
   23.0501  -13.0825  -16.9148 N   0  0  0  0  0  0  0  0  0  0  0  0
   22.8269  -10.7488  -16.4006 C   0  0  0  0  0  0  0  0  0  0  0  0
   23.0621  -10.3071  -17.5713 O   0  0  0  0  0  0  0  0  0  0  0  0
   20.0657   -7.8918  -18.8795 N   0  0  0  0  0  0  0  0  0  0  0  0
   19.5569   -9.1828  -18.5854 C   0  0  0  0  0  0  0  0  0  0  0  0
   19.0871   -9.8533  -19.5328 O   0  0  0  0  0  0  0  0  0  0  0  0
   19.5986   -9.6762  -17.2051 C   0  0  0  0  0  0  0  0  0  0  0  0
   20.0801   -8.6897  -16.1996 C   0  0  0  0  0  0  0  0  0  0  0  0
   21.5606   -8.6097  -16.0208 C   0  0  2  0  0  0  0  0  0  0  0  0
   22.0360   -9.9235  -15.5716 N   0  0  0  0  0  0  0  0  0  0  0  0
   21.9621   -7.6255  -15.0046 C   0  0  0  0  0  0  0  0  0  0  0  0
   21.8517   -6.2791  -15.2810 O   0  0  0  0  0  0  0  0  0  0  0  0
   22.3999   -8.0021  -13.9007 O   0  0  0  0  0  0  0  0  0  0  0  0
  2  3  1  0
  2  1  1  6
  4  2  1  0
  4  5  1  6
  6 12  1  0
  6  4  1  0
  7  6  2  0
  9  8  1  6
  9 11  1  0
  9 10  1  0
 11 12  1  6
 13 11  1  0
 14 13  2  0
 16 17  2  0
 16 15  1  0
 18 16  1  0
 19 18  1  0
 20 21  1  0
 20 19  1  1
 21 13  1  0
 22 20  1  0
 23 22  1  0
 24 22  2  0
M  END
$$$$
