TVQ.pdb
     RDKit          3D

 24 23  0  0  1  0  0  0  0  0999 V2000
   20.0420  -21.6469  -16.0596 C   0  0  0  0  0  0  0  0  0  0  0  0
   21.5116  -21.3725  -16.3140 C   0  0  1  0  0  0  0  0  0  0  0  0
   21.7509  -20.9497  -17.6013 O   0  0  0  0  0  0  0  0  0  0  0  0
   22.0770  -20.4275  -15.2803 C   0  0  2  0  0  0  0  0  0  0  0  0
   23.4824  -20.2078  -15.5504 N   0  0  0  0  0  0  0  0  0  0  0  0
   21.8865  -20.8682  -13.8996 C   0  0  0  0  0  0  0  0  0  0  0  0
   22.7675  -21.5972  -13.3609 O   0  0  0  0  0  0  0  0  0  0  0  0
   22.0061  -19.0907  -10.6579 C   0  0  0  0  0  0  0  0  0  0  0  0
   20.6485  -19.6941  -10.8296 C   0  0  1  0  0  0  0  0  0  0  0  0
   19.5639  -18.7573  -11.2142 C   0  0  0  0  0  0  0  0  0  0  0  0
   20.7067  -20.9693  -11.6804 C   0  0  2  0  0  0  0  0  0  0  0  0
   20.7733  -20.5408  -13.0942 N   0  0  0  0  0  0  0  0  0  0  0  0
   19.5003  -21.7670  -11.4705 C   0  0  0  0  0  0  0  0  0  0  0  0
   18.5525  -21.8343  -12.3179 O   0  0  0  0  0  0  0  0  0  0  0  0
   18.5815  -25.4802   -6.3794 N   0  0  0  0  0  0  0  0  0  0  0  0
   17.3172  -25.5378   -7.0201 C   0  0  0  0  0  0  0  0  0  0  0  0
   16.4142  -26.2064   -6.4674 O   0  0  0  0  0  0  0  0  0  0  0  0
   17.1180  -24.8245   -8.2858 C   0  0  0  0  0  0  0  0  0  0  0  0
   18.2985  -24.0553   -8.7659 C   0  0  0  0  0  0  0  0  0  0  0  0
   18.1017  -23.2754  -10.0241 C   0  0  2  0  0  0  0  0  0  0  0  0
   19.3313  -22.5186  -10.2871 N   0  0  0  0  0  0  0  0  0  0  0  0
   16.9999  -22.3060   -9.9304 C   0  0  0  0  0  0  0  0  0  0  0  0
   15.7435  -22.6593  -10.3756 O   0  0  0  0  0  0  0  0  0  0  0  0
   17.1968  -21.1722   -9.4531 O   0  0  0  0  0  0  0  0  0  0  0  0
  2  3  1  0
  2  1  1  1
  4  2  1  0
  4  5  1  6
  6 12  1  0
  6  4  1  0
  7  6  2  0
  9  8  1  6
  9 11  1  0
  9 10  1  0
 11 12  1  6
 13 11  1  0
 14 13  2  0
 16 17  2  0
 16 15  1  0
 18 16  1  0
 19 18  1  0
 20 21  1  0
 20 19  1  1
 21 13  1  0
 22 20  1  0
 23 22  1  0
 24 22  2  0
M  END
$$$$
