TVQ.pdb
     RDKit          3D

 24 23  0  0  1  0  0  0  0  0999 V2000
   28.2826  -18.8979  -16.8326 C   0  0  0  0  0  0  0  0  0  0  0  0
   27.1665  -19.6389  -16.1220 C   0  0  1  0  0  0  0  0  0  0  0  0
   26.2318  -20.1431  -16.9969 O   0  0  0  0  0  0  0  0  0  0  0  0
   27.7177  -20.6944  -15.1929 C   0  0  2  0  0  0  0  0  0  0  0  0
   28.4731  -21.6614  -15.9613 N   0  0  0  0  0  0  0  0  0  0  0  0
   26.7033  -21.3672  -14.3835 C   0  0  0  0  0  0  0  0  0  0  0  0
   26.3482  -22.5398  -14.6948 O   0  0  0  0  0  0  0  0  0  0  0  0
   26.4666  -21.4559  -10.4628 C   0  0  0  0  0  0  0  0  0  0  0  0
   25.1302  -21.1205  -11.0444 C   0  0  1  0  0  0  0  0  0  0  0  0
   24.6347  -19.7458  -10.7863 C   0  0  0  0  0  0  0  0  0  0  0  0
   25.0335  -21.5567  -12.5119 C   0  0  2  0  0  0  0  0  0  0  0  0
   26.0690  -20.8053  -13.2535 N   0  0  0  0  0  0  0  0  0  0  0  0
   23.7148  -21.2246  -13.0473 C   0  0  0  0  0  0  0  0  0  0  0  0
   23.4442  -20.1052  -13.5902 O   0  0  0  0  0  0  0  0  0  0  0  0
   19.5612  -25.5713  -14.8401 N   0  0  0  0  0  0  0  0  0  0  0  0
   18.7514  -24.4071  -14.8700 C   0  0  0  0  0  0  0  0  0  0  0  0
   17.5640  -24.5332  -15.2471 O   0  0  0  0  0  0  0  0  0  0  0  0
   19.3254  -23.1197  -14.4654 C   0  0  0  0  0  0  0  0  0  0  0  0
   20.7134  -23.1906  -13.9324 C   0  0  0  0  0  0  0  0  0  0  0  0
   21.3504  -21.8829  -13.5944 C   0  0  2  0  0  0  0  0  0  0  0  0
   22.6568  -22.1575  -12.9846 N   0  0  0  0  0  0  0  0  0  0  0  0
   20.5691  -21.0988  -12.6262 C   0  0  0  0  0  0  0  0  0  0  0  0
   19.5490  -20.2864  -13.0744 O   0  0  0  0  0  0  0  0  0  0  0  0
   20.8246  -21.1653  -11.4087 O   0  0  0  0  0  0  0  0  0  0  0  0
  2  3  1  0
  2  1  1  6
  4  2  1  0
  4  5  1  6
  6 12  1  0
  6  4  1  0
  7  6  2  0
  9  8  1  6
  9 11  1  0
  9 10  1  0
 11 12  1  6
 13 11  1  0
 14 13  2  0
 16 17  2  0
 16 15  1  0
 18 16  1  0
 19 18  1  0
 20 21  1  0
 20 19  1  1
 21 13  1  0
 22 20  1  0
 23 22  1  0
 24 22  2  0
M  END
$$$$
