TVQ.pdb
     RDKit          3D

 24 23  0  0  1  0  0  0  0  0999 V2000
   21.8566  -13.4718  -19.9714 C   0  0  0  0  0  0  0  0  0  0  0  0
   22.0321  -12.4622  -18.8536 C   0  0  1  0  0  0  0  0  0  0  0  0
   20.8544  -12.2037  -18.1908 O   0  0  0  0  0  0  0  0  0  0  0  0
   23.1445  -12.8723  -17.9179 C   0  0  2  0  0  0  0  0  0  0  0  0
   22.8223  -14.1525  -17.3233 N   0  0  0  0  0  0  0  0  0  0  0  0
   23.4447  -11.8891  -16.8786 C   0  0  0  0  0  0  0  0  0  0  0  0
   22.8427  -11.9650  -15.7697 O   0  0  0  0  0  0  0  0  0  0  0  0
   26.6655  -10.8038  -15.1375 C   0  0  0  0  0  0  0  0  0  0  0  0
   26.0210   -9.5957  -15.7391 C   0  0  1  0  0  0  0  0  0  0  0  0
   26.7186   -8.9983  -16.9046 C   0  0  0  0  0  0  0  0  0  0  0  0
   24.5171   -9.8113  -15.9515 C   0  0  2  0  0  0  0  0  0  0  0  0
   24.3742  -10.8337  -17.0103 N   0  0  0  0  0  0  0  0  0  0  0  0
   23.8896   -8.5664  -16.3899 C   0  0  0  0  0  0  0  0  0  0  0  0
   23.8872   -8.1756  -17.6016 O   0  0  0  0  0  0  0  0  0  0  0  0
   18.3811   -6.7959  -15.1636 N   0  0  0  0  0  0  0  0  0  0  0  0
   18.8703   -5.5606  -15.6604 C   0  0  0  0  0  0  0  0  0  0  0  0
   18.0521   -4.6226  -15.7963 O   0  0  0  0  0  0  0  0  0  0  0  0
   20.2928   -5.4302  -15.9918 C   0  0  0  0  0  0  0  0  0  0  0  0
   21.1187   -6.6338  -15.7001 C   0  0  0  0  0  0  0  0  0  0  0  0
   22.5925   -6.4733  -15.8801 C   0  0  2  0  0  0  0  0  0  0  0  0
   23.2402   -7.7223  -15.4627 N   0  0  0  0  0  0  0  0  0  0  0  0
   23.1550   -5.3904  -15.0595 C   0  0  0  0  0  0  0  0  0  0  0  0
   23.0233   -4.0826  -15.4765 O   0  0  0  0  0  0  0  0  0  0  0  0
   23.7474   -5.6492  -13.9946 O   0  0  0  0  0  0  0  0  0  0  0  0
  2  3  1  0
  2  1  1  6
  4  2  1  0
  4  5  1  1
  6 12  1  0
  6  4  1  0
  7  6  2  0
  9  8  1  6
  9 11  1  0
  9 10  1  0
 11 12  1  6
 13 11  1  0
 14 13  2  0
 16 17  2  0
 16 15  1  0
 18 16  1  0
 19 18  1  0
 20 21  1  0
 20 19  1  1
 21 13  1  0
 22 20  1  0
 23 22  1  0
 24 22  2  0
M  END
$$$$
