TVQ.pdb
     RDKit          3D

 24 23  0  0  1  0  0  0  0  0999 V2000
   17.5867  -10.1946  -17.9346 C   0  0  0  0  0  0  0  0  0  0  0  0
   17.2212  -11.4538  -17.1726 C   0  0  1  0  0  0  0  0  0  0  0  0
   16.2549  -12.1934  -17.8148 O   0  0  0  0  0  0  0  0  0  0  0  0
   18.4498  -12.2684  -16.8437 C   0  0  2  0  0  0  0  0  0  0  0  0
   18.0493  -13.4942  -16.1855 N   0  0  0  0  0  0  0  0  0  0  0  0
   19.4404  -11.5575  -16.0375 C   0  0  0  0  0  0  0  0  0  0  0  0
   19.1319  -11.1928  -14.8671 O   0  0  0  0  0  0  0  0  0  0  0  0
   24.1556  -10.2998  -15.2419 C   0  0  0  0  0  0  0  0  0  0  0  0
   23.0579  -11.1829  -15.7440 C   0  0  1  0  0  0  0  0  0  0  0  0
   23.1095  -12.5991  -15.3042 C   0  0  0  0  0  0  0  0  0  0  0  0
   21.6846  -10.5219  -15.5699 C   0  0  2  0  0  0  0  0  0  0  0  0
   20.7474  -11.2345  -16.4648 N   0  0  0  0  0  0  0  0  0  0  0  0
   21.7530   -9.1148  -15.9587 C   0  0  0  0  0  0  0  0  0  0  0  0
   21.9565   -8.7310  -17.1555 O   0  0  0  0  0  0  0  0  0  0  0  0
   17.7748   -5.1097  -15.5293 N   0  0  0  0  0  0  0  0  0  0  0  0
   18.8094   -4.2731  -16.0209 C   0  0  0  0  0  0  0  0  0  0  0  0
   18.5254   -3.0784  -16.2656 O   0  0  0  0  0  0  0  0  0  0  0  0
   20.1512   -4.8294  -16.2220 C   0  0  0  0  0  0  0  0  0  0  0  0
   20.2997   -6.2624  -15.8476 C   0  0  0  0  0  0  0  0  0  0  0  0
   21.6511   -6.6738  -15.3632 C   0  0  2  0  0  0  0  0  0  0  0  0
   21.5902   -8.0937  -14.9971 N   0  0  0  0  0  0  0  0  0  0  0  0
   22.0827   -5.9300  -14.1703 C   0  0  0  0  0  0  0  0  0  0  0  0
   22.6244   -4.6701  -14.3136 O   0  0  0  0  0  0  0  0  0  0  0  0
   21.9616   -6.4319  -13.0365 O   0  0  0  0  0  0  0  0  0  0  0  0
  2  3  1  0
  2  1  1  6
  4  2  1  0
  4  5  1  1
  6 12  1  0
  6  4  1  0
  7  6  2  0
  9  8  1  1
  9 11  1  0
  9 10  1  0
 11 12  1  6
 13 11  1  0
 14 13  2  0
 16 17  2  0
 16 15  1  0
 18 16  1  0
 19 18  1  0
 20 21  1  0
 20 19  1  1
 21 13  1  0
 22 20  1  0
 23 22  1  0
 24 22  2  0
M  END
$$$$
