TVQ.pdb
     RDKit          3D

 24 23  0  0  1  0  0  0  0  0999 V2000
   26.7653  -10.8129  -15.2451 C   0  0  0  0  0  0  0  0  0  0  0  0
   26.6817  -11.7367  -16.4447 C   0  0  1  0  0  0  0  0  0  0  0  0
   27.6582  -12.7059  -16.4292 O   0  0  0  0  0  0  0  0  0  0  0  0
   25.2945  -12.3156  -16.5918 C   0  0  2  0  0  0  0  0  0  0  0  0
   25.2870  -13.2700  -17.6806 N   0  0  0  0  0  0  0  0  0  0  0  0
   24.2463  -11.3151  -16.7843 C   0  0  0  0  0  0  0  0  0  0  0  0
   24.0761  -10.8178  -17.9340 O   0  0  0  0  0  0  0  0  0  0  0  0
   20.0548   -9.2889  -15.2120 C   0  0  0  0  0  0  0  0  0  0  0  0
   21.0195  -10.3892  -15.5209 C   0  0  1  0  0  0  0  0  0  0  0  0
   20.4762  -11.5330  -16.2945 C   0  0  0  0  0  0  0  0  0  0  0  0
   22.3429   -9.8363  -16.0652 C   0  0  2  0  0  0  0  0  0  0  0  0
   23.3843  -10.8436  -15.7695 N   0  0  0  0  0  0  0  0  0  0  0  0
   22.6755   -8.5816  -15.3937 C   0  0  0  0  0  0  0  0  0  0  0  0
   22.9675   -8.5087  -14.1566 O   0  0  0  0  0  0  0  0  0  0  0  0
   23.8527   -3.1637  -18.4808 N   0  0  0  0  0  0  0  0  0  0  0  0
   23.9140   -2.7457  -17.1267 C   0  0  0  0  0  0  0  0  0  0  0  0
   24.1836   -1.5442  -16.8998 O   0  0  0  0  0  0  0  0  0  0  0  0
   23.6641   -3.7205  -16.0600 C   0  0  0  0  0  0  0  0  0  0  0  0
   23.2888   -5.0825  -16.5290 C   0  0  0  0  0  0  0  0  0  0  0  0
   23.0325   -6.0933  -15.4600 C   0  0  2  0  0  0  0  0  0  0  0  0
   22.6890   -7.3641  -16.1088 N   0  0  0  0  0  0  0  0  0  0  0  0
   21.9087   -5.7283  -14.5846 C   0  0  0  0  0  0  0  0  0  0  0  0
   20.6155   -5.9316  -15.0178 O   0  0  0  0  0  0  0  0  0  0  0  0
   22.1200   -5.2382  -13.4589 O   0  0  0  0  0  0  0  0  0  0  0  0
  2  3  1  0
  2  1  1  1
  4  2  1  0
  4  5  1  6
  6 12  1  0
  6  4  1  0
  7  6  2  0
  9  8  1  6
  9 11  1  0
  9 10  1  0
 11 12  1  1
 13 11  1  0
 14 13  2  0
 16 17  2  0
 16 15  1  0
 18 16  1  0
 19 18  1  0
 20 21  1  0
 20 19  1  6
 21 13  1  0
 22 20  1  0
 23 22  1  0
 24 22  2  0
M  END
$$$$
