TVQ.pdb
     RDKit          3D

 24 23  0  0  1  0  0  0  0  0999 V2000
   17.4671  -14.1755  -18.1744 C   0  0  0  0  0  0  0  0  0  0  0  0
   18.1428  -13.3310  -17.1113 C   0  0  1  0  0  0  0  0  0  0  0  0
   17.7636  -13.6890  -15.8380 O   0  0  0  0  0  0  0  0  0  0  0  0
   19.6427  -13.3280  -17.2889 C   0  0  2  0  0  0  0  0  0  0  0  0
   20.1612  -14.6493  -17.0034 N   0  0  0  0  0  0  0  0  0  0  0  0
   20.3379  -12.3236  -16.4860 C   0  0  0  0  0  0  0  0  0  0  0  0
   20.3297  -12.4314  -15.2266 O   0  0  0  0  0  0  0  0  0  0  0  0
   22.3758   -9.2257  -18.2946 C   0  0  0  0  0  0  0  0  0  0  0  0
   22.7314   -9.4908  -16.8663 C   0  0  1  0  0  0  0  0  0  0  0  0
   23.3550   -8.3630  -16.1307 C   0  0  0  0  0  0  0  0  0  0  0  0
   21.5741  -10.1642  -16.1175 C   0  0  2  0  0  0  0  0  0  0  0  0
   21.0366  -11.2135  -17.0101 N   0  0  0  0  0  0  0  0  0  0  0  0
   20.5266   -9.1863  -15.8310 C   0  0  0  0  0  0  0  0  0  0  0  0
   19.6581   -8.8231  -16.6882 O   0  0  0  0  0  0  0  0  0  0  0  0
   17.2938   -9.0549  -10.7353 N   0  0  0  0  0  0  0  0  0  0  0  0
   16.8708   -7.8234  -11.2979 C   0  0  0  0  0  0  0  0  0  0  0  0
   15.8890   -7.2502  -10.7731 O   0  0  0  0  0  0  0  0  0  0  0  0
   17.5867   -7.2764  -12.4549 C   0  0  0  0  0  0  0  0  0  0  0  0
   18.6515   -8.1570  -13.0085 C   0  0  0  0  0  0  0  0  0  0  0  0
   19.3522   -7.6482  -14.2252 C   0  0  2  0  0  0  0  0  0  0  0  0
   20.4300   -8.5879  -14.5556 N   0  0  0  0  0  0  0  0  0  0  0  0
   19.9669   -6.3278  -14.0217 C   0  0  0  0  0  0  0  0  0  0  0  0
   19.2084   -5.1900  -14.1997 O   0  0  0  0  0  0  0  0  0  0  0  0
   21.1644   -6.2341  -13.6912 O   0  0  0  0  0  0  0  0  0  0  0  0
  2  3  1  0
  2  1  1  6
  4  2  1  0
  4  5  1  1
  6 12  1  0
  6  4  1  0
  7  6  2  0
  9  8  1  6
  9 11  1  0
  9 10  1  0
 11 12  1  6
 13 11  1  0
 14 13  2  0
 16 17  2  0
 16 15  1  0
 18 16  1  0
 19 18  1  0
 20 21  1  0
 20 19  1  1
 21 13  1  0
 22 20  1  0
 23 22  1  0
 24 22  2  0
M  END
$$$$
