TVQ.pdb
     RDKit          3D

 24 23  0  0  1  0  0  0  0  0999 V2000
   18.2111  -12.1911  -19.7905 C   0  0  0  0  0  0  0  0  0  0  0  0
   18.6883  -11.3980  -18.5893 C   0  0  1  0  0  0  0  0  0  0  0  0
   17.6707  -10.6935  -17.9882 O   0  0  0  0  0  0  0  0  0  0  0  0
   19.4354  -12.2788  -17.6160 C   0  0  2  0  0  0  0  0  0  0  0  0
   18.5452  -13.3078  -17.1210 N   0  0  0  0  0  0  0  0  0  0  0  0
   20.0468  -11.5553  -16.5026 C   0  0  0  0  0  0  0  0  0  0  0  0
   19.4366  -11.5014  -15.3969 O   0  0  0  0  0  0  0  0  0  0  0  0
   23.0689  -12.0831  -14.4651 C   0  0  0  0  0  0  0  0  0  0  0  0
   23.1818  -10.7126  -15.0531 C   0  0  1  0  0  0  0  0  0  0  0  0
   24.1916  -10.5467  -16.1277 C   0  0  0  0  0  0  0  0  0  0  0  0
   21.8023  -10.1351  -15.3944 C   0  0  2  0  0  0  0  0  0  0  0  0
   21.2936  -10.8940  -16.5573 N   0  0  0  0  0  0  0  0  0  0  0  0
   21.9246   -8.7231  -15.7512 C   0  0  0  0  0  0  0  0  0  0  0  0
   21.9800   -8.3100  -16.9542 O   0  0  0  0  0  0  0  0  0  0  0  0
   18.2963   -5.2718  -16.9705 N   0  0  0  0  0  0  0  0  0  0  0  0
   19.1982   -4.2171  -16.6770 C   0  0  0  0  0  0  0  0  0  0  0  0
   18.8545   -3.0537  -16.9872 O   0  0  0  0  0  0  0  0  0  0  0  0
   20.4793   -4.5232  -16.0324 C   0  0  0  0  0  0  0  0  0  0  0  0
   20.7137   -5.9668  -15.7550 C   0  0  0  0  0  0  0  0  0  0  0  0
   22.0037   -6.3008  -15.0808 C   0  0  2  0  0  0  0  0  0  0  0  0
   21.9866   -7.7303  -14.7491 N   0  0  0  0  0  0  0  0  0  0  0  0
   22.2024   -5.5603  -13.8259 C   0  0  0  0  0  0  0  0  0  0  0  0
   22.6397   -4.2533  -13.8695 O   0  0  0  0  0  0  0  0  0  0  0  0
   21.9786   -6.1071  -12.7291 O   0  0  0  0  0  0  0  0  0  0  0  0
  2  3  1  0
  2  1  1  6
  4  2  1  0
  4  5  1  1
  6 12  1  0
  6  4  1  0
  7  6  2  0
  9  8  1  6
  9 11  1  0
  9 10  1  0
 11 12  1  6
 13 11  1  0
 14 13  2  0
 16 17  2  0
 16 15  1  0
 18 16  1  0
 19 18  1  0
 20 21  1  0
 20 19  1  1
 21 13  1  0
 22 20  1  0
 23 22  1  0
 24 22  2  0
M  END
$$$$
