GFK.pdb
     RDKit          3D

 25 25  0  0  1  0  0  0  0  0999 V2000
   18.8300  -25.7868  -11.1785 N   0  0  0  0  0  0  0  0  0  0  0  0
   18.5015  -24.8720  -10.1021 C   0  0  0  0  0  0  0  0  0  0  0  0
   18.1119  -25.6094   -8.8756 C   0  0  0  0  0  0  0  0  0  0  0  0
   17.9864  -26.8544   -8.9471 O   0  0  0  0  0  0  0  0  0  0  0  0
   17.8830  -24.9637   -7.6552 N   0  0  0  0  0  0  0  0  0  0  0  0
   17.5436  -25.6305   -6.4163 C   0  0  1  0  0  0  0  0  0  0  0  0
   18.1034  -24.8307   -5.2811 C   0  0  0  0  0  0  0  0  0  0  0  0
   17.7571  -25.3653   -3.9631 C   0  0  0  0  0  0  0  0  0  0  0  0
   16.6722  -24.8893   -3.2697 C   0  0  0  0  0  0  0  0  0  0  0  0
   16.3442  -25.3883   -2.0330 C   0  0  0  0  0  0  0  0  0  0  0  0
   17.1175  -26.3883   -1.4716 C   0  0  0  0  0  0  0  0  0  0  0  0
   18.2241  -26.8767   -2.1738 C   0  0  0  0  0  0  0  0  0  0  0  0
   18.5347  -26.3602   -3.4153 C   0  0  0  0  0  0  0  0  0  0  0  0
   16.0500  -25.6686   -6.2590 C   0  0  0  0  0  0  0  0  0  0  0  0
   15.3853  -24.6181   -6.4443 O   0  0  0  0  0  0  0  0  0  0  0  0
   15.3656  -26.8438   -5.9099 N   0  0  0  0  0  0  0  0  0  0  0  0
   13.9372  -26.8179   -5.7391 C   0  0  1  0  0  0  0  0  0  0  0  0
   13.2883  -28.0405   -6.3987 C   0  0  0  0  0  0  0  0  0  0  0  0
   13.9102  -29.2913   -5.8742 C   0  0  0  0  0  0  0  0  0  0  0  0
   15.1419  -29.7543   -6.5573 C   0  0  0  0  0  0  0  0  0  0  0  0
   15.1558  -31.1567   -7.0456 C   0  0  0  0  0  0  0  0  0  0  0  0
   16.3172  -31.5166   -7.8283 N   0  0  0  0  0  0  0  0  0  0  0  0
   13.5872  -26.8207   -4.3006 C   0  0  0  0  0  0  0  0  0  0  0  0
   14.4890  -27.0420   -3.4410 O   0  0  0  0  0  0  0  0  0  0  0  0
   12.2868  -26.5824   -3.9240 O   0  0  0  0  0  0  0  0  0  0  0  0
  1  2  1  0
  2  3  1  0
  3  4  2  0
  5  3  1  0
  6  5  1  0
  6  7  1  1
  8  7  1  0
  9  8  2  0
 10  9  1  0
 11 12  1  0
 11 10  2  0
 12 13  2  0
 13  8  1  0
 14  6  1  0
 15 14  2  0
 16 14  1  0
 17 16  1  0
 17 23  1  0
 17 18  1  6
 19 20  1  0
 19 18  1  0
 20 21  1  0
 22 21  1  0
 23 24  2  0
 23 25  1  0
M  END
$$$$
