GFK.pdb
     RDKit          3D

 25 25  0  0  1  0  0  0  0  0999 V2000
   31.3989  -21.7865  -10.4602 N   0  0  0  0  0  0  0  0  0  0  0  0
   30.6987  -20.5972  -10.0146 C   0  0  0  0  0  0  0  0  0  0  0  0
   29.3554  -20.9359   -9.4847 C   0  0  0  0  0  0  0  0  0  0  0  0
   28.9567  -22.1193   -9.5927 O   0  0  0  0  0  0  0  0  0  0  0  0
   28.5298  -19.9847   -8.8748 N   0  0  0  0  0  0  0  0  0  0  0  0
   27.1896  -20.2394   -8.3914 C   0  0  1  0  0  0  0  0  0  0  0  0
   26.9082  -19.2974   -7.2621 C   0  0  0  0  0  0  0  0  0  0  0  0
   27.7130  -19.5599   -6.0679 C   0  0  0  0  0  0  0  0  0  0  0  0
   28.7324  -18.7162   -5.7025 C   0  0  0  0  0  0  0  0  0  0  0  0
   29.4895  -18.9592   -4.5829 C   0  0  0  0  0  0  0  0  0  0  0  0
   29.2245  -20.0724   -3.8060 C   0  0  0  0  0  0  0  0  0  0  0  0
   28.1870  -20.9353   -4.1737 C   0  0  0  0  0  0  0  0  0  0  0  0
   27.4392  -20.6711   -5.3031 C   0  0  0  0  0  0  0  0  0  0  0  0
   26.1987  -19.9553   -9.4844 C   0  0  0  0  0  0  0  0  0  0  0  0
   26.1247  -18.7945   -9.9606 O   0  0  0  0  0  0  0  0  0  0  0  0
   25.3467  -20.9470   -9.9962 N   0  0  0  0  0  0  0  0  0  0  0  0
   24.5827  -20.6907  -11.1881 C   0  0  1  0  0  0  0  0  0  0  0  0
   24.8725  -21.7498  -12.2582 C   0  0  0  0  0  0  0  0  0  0  0  0
   25.6773  -21.1503  -13.3623 C   0  0  0  0  0  0  0  0  0  0  0  0
   26.0441  -22.0535  -14.4793 C   0  0  0  0  0  0  0  0  0  0  0  0
   26.7805  -21.4513  -15.6197 C   0  0  0  0  0  0  0  0  0  0  0  0
   27.1496  -22.3809  -16.6640 N   0  0  0  0  0  0  0  0  0  0  0  0
   23.1329  -20.7116  -10.8888 C   0  0  0  0  0  0  0  0  0  0  0  0
   22.7426  -21.0046   -9.7214 O   0  0  0  0  0  0  0  0  0  0  0  0
   22.2356  -20.4118  -11.8860 O   0  0  0  0  0  0  0  0  0  0  0  0
  1  2  1  0
  2  3  1  0
  3  4  2  0
  5  3  1  0
  6  5  1  0
  6  7  1  1
  8  7  1  0
  9  8  2  0
 10  9  1  0
 11 12  1  0
 11 10  2  0
 12 13  2  0
 13  8  1  0
 14  6  1  0
 15 14  2  0
 16 14  1  0
 17 16  1  0
 17 23  1  0
 17 18  1  6
 19 20  1  0
 19 18  1  0
 20 21  1  0
 22 21  1  0
 23 24  2  0
 23 25  1  0
M  END
$$$$
