GFK.pdb
     RDKit          3D

 25 25  0  0  1  0  0  0  0  0999 V2000
   23.6491  -13.6915  -18.8751 N   0  0  0  0  0  0  0  0  0  0  0  0
   24.0051  -12.2987  -19.0665 C   0  0  0  0  0  0  0  0  0  0  0  0
   23.2424  -11.4216  -18.1452 C   0  0  0  0  0  0  0  0  0  0  0  0
   22.0032  -11.5880  -18.0585 O   0  0  0  0  0  0  0  0  0  0  0  0
   23.8582  -10.4255  -17.3789 N   0  0  0  0  0  0  0  0  0  0  0  0
   23.1604   -9.3640  -16.6855 C   0  0  1  0  0  0  0  0  0  0  0  0
   24.0318   -8.8765  -15.5698 C   0  0  0  0  0  0  0  0  0  0  0  0
   23.4695   -7.7359  -14.8449 C   0  0  0  0  0  0  0  0  0  0  0  0
   23.8133   -6.4487  -15.1756 C   0  0  0  0  0  0  0  0  0  0  0  0
   23.2879   -5.3760  -14.4979 C   0  0  0  0  0  0  0  0  0  0  0  0
   22.3959   -5.5909  -13.4628 C   0  0  0  0  0  0  0  0  0  0  0  0
   22.0422   -6.9004  -13.1217 C   0  0  0  0  0  0  0  0  0  0  0  0
   22.5829   -7.9630  -13.8168 C   0  0  0  0  0  0  0  0  0  0  0  0
   22.9321   -8.2147  -17.6259 C   0  0  0  0  0  0  0  0  0  0  0  0
   23.8661   -7.8430  -18.3805 O   0  0  0  0  0  0  0  0  0  0  0  0
   21.7045   -7.5366  -17.6922 N   0  0  0  0  0  0  0  0  0  0  0  0
   21.5483   -6.4224  -18.5890 C   0  0  1  0  0  0  0  0  0  0  0  0
   20.4122   -6.6814  -19.5856 C   0  0  0  0  0  0  0  0  0  0  0  0
   19.1110   -6.7717  -18.8611 C   0  0  0  0  0  0  0  0  0  0  0  0
   17.9064   -7.0094  -19.6921 C   0  0  0  0  0  0  0  0  0  0  0  0
   16.6029   -7.0845  -18.9845 C   0  0  0  0  0  0  0  0  0  0  0  0
   15.4751   -7.4265  -19.8223 N   0  0  0  0  0  0  0  0  0  0  0  0
   21.2360   -5.1884  -17.8329 C   0  0  0  0  0  0  0  0  0  0  0  0
   20.8039   -5.2777  -16.6470 O   0  0  0  0  0  0  0  0  0  0  0  0
   21.4213   -3.9661  -18.4338 O   0  0  0  0  0  0  0  0  0  0  0  0
  1  2  1  0
  2  3  1  0
  3  4  2  0
  5  3  1  0
  6  5  1  0
  6  7  1  1
  8  7  1  0
  9  8  2  0
 10  9  1  0
 11 12  1  0
 11 10  2  0
 12 13  2  0
 13  8  1  0
 14  6  1  0
 15 14  2  0
 16 14  1  0
 17 16  1  0
 17 23  1  0
 17 18  1  6
 19 20  1  0
 19 18  1  0
 20 21  1  0
 22 21  1  0
 23 24  2  0
 23 25  1  0
M  END
$$$$
