GFK.pdb
     RDKit          3D

 25 25  0  0  1  0  0  0  0  0999 V2000
   25.6541  -11.0953  -20.5460 N   0  0  0  0  0  0  0  0  0  0  0  0
   24.9874   -9.8075  -20.5270 C   0  0  0  0  0  0  0  0  0  0  0  0
   24.2655   -9.5992  -19.2481 C   0  0  0  0  0  0  0  0  0  0  0  0
   23.7131  -10.5880  -18.7115 O   0  0  0  0  0  0  0  0  0  0  0  0
   24.1839   -8.3461  -18.6303 N   0  0  0  0  0  0  0  0  0  0  0  0
   23.5575   -8.0931  -17.3503 C   0  0  1  0  0  0  0  0  0  0  0  0
   24.6105   -7.6264  -16.3936 C   0  0  0  0  0  0  0  0  0  0  0  0
   25.5482   -8.6786  -15.9981 C   0  0  0  0  0  0  0  0  0  0  0  0
   26.7516   -8.8315  -16.6407 C   0  0  0  0  0  0  0  0  0  0  0  0
   27.6339   -9.8173  -16.2725 C   0  0  0  0  0  0  0  0  0  0  0  0
   27.3092  -10.6741  -15.2363 C   0  0  0  0  0  0  0  0  0  0  0  0
   26.0844  -10.5227  -14.5782 C   0  0  0  0  0  0  0  0  0  0  0  0
   25.2133   -9.5247  -14.9654 C   0  0  0  0  0  0  0  0  0  0  0  0
   22.5469   -6.9908  -17.4947 C   0  0  0  0  0  0  0  0  0  0  0  0
   22.8267   -5.9887  -18.1999 O   0  0  0  0  0  0  0  0  0  0  0  0
   21.2926   -7.0406  -16.8657 N   0  0  0  0  0  0  0  0  0  0  0  0
   20.3140   -6.0210  -17.1357 C   0  0  1  0  0  0  0  0  0  0  0  0
   18.9363   -6.6435  -17.3913 C   0  0  0  0  0  0  0  0  0  0  0  0
   17.9673   -5.5843  -17.7980 C   0  0  0  0  0  0  0  0  0  0  0  0
   16.5889   -6.0332  -18.1090 C   0  0  0  0  0  0  0  0  0  0  0  0
   15.6588   -5.0184  -18.6664 C   0  0  0  0  0  0  0  0  0  0  0  0
   14.3421   -5.5167  -18.9964 N   0  0  0  0  0  0  0  0  0  0  0  0
   20.2030   -5.0924  -15.9880 C   0  0  0  0  0  0  0  0  0  0  0  0
   20.4595   -5.5108  -14.8218 O   0  0  0  0  0  0  0  0  0  0  0  0
   19.8226   -3.7903  -16.2104 O   0  0  0  0  0  0  0  0  0  0  0  0
  1  2  1  0
  2  3  1  0
  3  4  2  0
  5  3  1  0
  6  5  1  0
  6  7  1  1
  8  7  1  0
  9  8  2  0
 10  9  1  0
 11 12  1  0
 11 10  2  0
 12 13  2  0
 13  8  1  0
 14  6  1  0
 15 14  2  0
 16 14  1  0
 17 16  1  0
 17 23  1  0
 17 18  1  1
 19 20  1  0
 19 18  1  0
 20 21  1  0
 22 21  1  0
 23 24  2  0
 23 25  1  0
M  END
$$$$
