GFK.pdb
     RDKit          3D

 25 25  0  0  1  0  0  0  0  0999 V2000
   28.4205  -22.6134  -15.9458 N   0  0  0  0  0  0  0  0  0  0  0  0
   28.1165  -21.3768  -15.2518 C   0  0  0  0  0  0  0  0  0  0  0  0
   27.1797  -21.6130  -14.1263 C   0  0  0  0  0  0  0  0  0  0  0  0
   26.6087  -22.7264  -14.0541 O   0  0  0  0  0  0  0  0  0  0  0  0
   26.9177  -20.6410  -13.1542 N   0  0  0  0  0  0  0  0  0  0  0  0
   25.9699  -20.7881  -12.0704 C   0  0  1  0  0  0  0  0  0  0  0  0
   26.3166  -19.7975  -11.0025 C   0  0  0  0  0  0  0  0  0  0  0  0
   27.1953  -20.3403   -9.9651 C   0  0  0  0  0  0  0  0  0  0  0  0
   26.8276  -20.3153   -8.6428 C   0  0  0  0  0  0  0  0  0  0  0  0
   27.6492  -20.8235   -7.6667 C   0  0  0  0  0  0  0  0  0  0  0  0
   28.8700  -21.3714   -8.0169 C   0  0  0  0  0  0  0  0  0  0  0  0
   29.2494  -21.3994   -9.3628 C   0  0  0  0  0  0  0  0  0  0  0  0
   28.4075  -20.8828  -10.3266 C   0  0  0  0  0  0  0  0  0  0  0  0
   24.5879  -20.4663  -12.5642 C   0  0  0  0  0  0  0  0  0  0  0  0
   24.4365  -19.5567  -13.4182 O   0  0  0  0  0  0  0  0  0  0  0  0
   23.4519  -21.1503  -12.1027 N   0  0  0  0  0  0  0  0  0  0  0  0
   22.2166  -21.0650  -12.8353 C   0  0  1  0  0  0  0  0  0  0  0  0
   21.8929  -22.4016  -13.5133 C   0  0  0  0  0  0  0  0  0  0  0  0
   20.6722  -22.2601  -14.3595 C   0  0  0  0  0  0  0  0  0  0  0  0
   20.2479  -23.4632  -15.1149 C   0  0  0  0  0  0  0  0  0  0  0  0
   19.0644  -23.3208  -16.0007 C   0  0  0  0  0  0  0  0  0  0  0  0
   18.6196  -24.5480  -16.6229 N   0  0  0  0  0  0  0  0  0  0  0  0
   21.0993  -20.7169  -11.9285 C   0  0  0  0  0  0  0  0  0  0  0  0
   20.4486  -19.6495  -12.1238 O   0  0  0  0  0  0  0  0  0  0  0  0
   20.7884  -21.5609  -10.8890 O   0  0  0  0  0  0  0  0  0  0  0  0
  1  2  1  0
  2  3  1  0
  3  4  2  0
  5  3  1  0
  6  5  1  0
  6  7  1  1
  8  7  1  0
  9  8  2  0
 10  9  1  0
 11 12  1  0
 11 10  2  0
 12 13  2  0
 13  8  1  0
 14  6  1  0
 15 14  2  0
 16 14  1  0
 17 16  1  0
 17 23  1  0
 17 18  1  1
 19 20  1  0
 19 18  1  0
 20 21  1  0
 22 21  1  0
 23 24  2  0
 23 25  1  0
M  END
$$$$
