GFK.pdb
     RDKit          3D

 25 25  0  0  1  0  0  0  0  0999 V2000
   22.1242  -21.8836   -6.5602 N   0  0  0  0  0  0  0  0  0  0  0  0
   23.5479  -22.1459   -6.4732 C   0  0  0  0  0  0  0  0  0  0  0  0
   24.3109  -21.2564   -7.3823 C   0  0  0  0  0  0  0  0  0  0  0  0
   23.6720  -20.4393   -8.0860 O   0  0  0  0  0  0  0  0  0  0  0  0
   25.7064  -21.3018   -7.4765 N   0  0  0  0  0  0  0  0  0  0  0  0
   26.5041  -20.4786   -8.3601 C   0  0  1  0  0  0  0  0  0  0  0  0
   27.9306  -20.5483   -7.9104 C   0  0  0  0  0  0  0  0  0  0  0  0
   28.1453  -20.0161   -6.5638 C   0  0  0  0  0  0  0  0  0  0  0  0
   27.8518  -18.7088   -6.2649 C   0  0  0  0  0  0  0  0  0  0  0  0
   28.0519  -18.2059   -5.0027 C   0  0  0  0  0  0  0  0  0  0  0  0
   28.5580  -19.0270   -4.0113 C   0  0  0  0  0  0  0  0  0  0  0  0
   28.8588  -20.3598   -4.3105 C   0  0  0  0  0  0  0  0  0  0  0  0
   28.6495  -20.8434   -5.5860 C   0  0  0  0  0  0  0  0  0  0  0  0
   26.4354  -21.0278   -9.7568 C   0  0  0  0  0  0  0  0  0  0  0  0
   26.5807  -22.2628   -9.9396 O   0  0  0  0  0  0  0  0  0  0  0  0
   26.2131  -20.2051  -10.8726 N   0  0  0  0  0  0  0  0  0  0  0  0
   26.0697  -20.7914  -12.1787 C   0  0  1  0  0  0  0  0  0  0  0  0
   24.6101  -21.1785  -12.4439 C   0  0  0  0  0  0  0  0  0  0  0  0
   23.7905  -19.9513  -12.6643 C   0  0  0  0  0  0  0  0  0  0  0  0
   22.3331  -20.1532  -12.8469 C   0  0  0  0  0  0  0  0  0  0  0  0
   21.5046  -18.9383  -13.0545 C   0  0  0  0  0  0  0  0  0  0  0  0
   20.1015  -19.1928  -13.2941 N   0  0  0  0  0  0  0  0  0  0  0  0
   26.4987  -19.8362  -13.2254 C   0  0  0  0  0  0  0  0  0  0  0  0
   26.7327  -18.6329  -12.9118 O   0  0  0  0  0  0  0  0  0  0  0  0
   26.6354  -20.2745  -14.5211 O   0  0  0  0  0  0  0  0  0  0  0  0
  1  2  1  0
  2  3  1  0
  3  4  2  0
  5  3  1  0
  6  5  1  0
  6  7  1  1
  8  7  1  0
  9  8  2  0
 10  9  1  0
 11 12  1  0
 11 10  2  0
 12 13  2  0
 13  8  1  0
 14  6  1  0
 15 14  2  0
 16 14  1  0
 17 16  1  0
 17 23  1  0
 17 18  1  6
 19 20  1  0
 19 18  1  0
 20 21  1  0
 22 21  1  0
 23 24  2  0
 23 25  1  0
M  END
$$$$
