GFK.pdb
     RDKit          3D

 25 25  0  0  1  0  0  0  0  0999 V2000
   21.9023  -21.1987   -6.6661 N   0  0  0  0  0  0  0  0  0  0  0  0
   22.7334  -21.8133   -7.6835 C   0  0  0  0  0  0  0  0  0  0  0  0
   23.7241  -20.8476   -8.2181 C   0  0  0  0  0  0  0  0  0  0  0  0
   23.3436  -19.6766   -8.4525 O   0  0  0  0  0  0  0  0  0  0  0  0
   25.0554  -21.2010   -8.4656 N   0  0  0  0  0  0  0  0  0  0  0  0
   26.0719  -20.3007   -8.9664 C   0  0  1  0  0  0  0  0  0  0  0  0
   27.3804  -20.6708   -8.3397 C   0  0  0  0  0  0  0  0  0  0  0  0
   27.5443  -20.1533   -6.9803 C   0  0  0  0  0  0  0  0  0  0  0  0
   27.4204  -18.8123   -6.7144 C   0  0  0  0  0  0  0  0  0  0  0  0
   27.5735  -18.3231   -5.4403 C   0  0  0  0  0  0  0  0  0  0  0  0
   27.8576  -19.1927   -4.4030 C   0  0  0  0  0  0  0  0  0  0  0  0
   27.9848  -20.5601   -4.6684 C   0  0  0  0  0  0  0  0  0  0  0  0
   27.8268  -21.0291   -5.9567 C   0  0  0  0  0  0  0  0  0  0  0  0
   26.2088  -20.4741  -10.4525 C   0  0  0  0  0  0  0  0  0  0  0  0
   25.8204  -21.5443  -10.9849 O   0  0  0  0  0  0  0  0  0  0  0  0
   26.7589  -19.4764  -11.2731 N   0  0  0  0  0  0  0  0  0  0  0  0
   26.7447  -19.6356  -12.7030 C   0  0  1  0  0  0  0  0  0  0  0  0
   27.2618  -18.3696  -13.3964 C   0  0  0  0  0  0  0  0  0  0  0  0
   27.2499  -18.5594  -14.8762 C   0  0  0  0  0  0  0  0  0  0  0  0
   27.7369  -17.4219  -15.6929 C   0  0  0  0  0  0  0  0  0  0  0  0
   27.6511  -17.5654  -17.1685 C   0  0  0  0  0  0  0  0  0  0  0  0
   26.8836  -16.5375  -17.8358 N   0  0  0  0  0  0  0  0  0  0  0  0
   27.6014  -20.7738  -13.1062 C   0  0  0  0  0  0  0  0  0  0  0  0
   28.5878  -21.0973  -12.3827 O   0  0  0  0  0  0  0  0  0  0  0  0
   27.3093  -21.4597  -14.2611 O   0  0  0  0  0  0  0  0  0  0  0  0
  1  2  1  0
  2  3  1  0
  3  4  2  0
  5  3  1  0
  6  5  1  0
  6  7  1  1
  8  7  1  0
  9  8  2  0
 10  9  1  0
 11 12  1  0
 11 10  2  0
 12 13  2  0
 13  8  1  0
 14  6  1  0
 15 14  2  0
 16 14  1  0
 17 16  1  0
 17 23  1  0
 17 18  1  6
 19 20  1  0
 19 18  1  0
 20 21  1  0
 22 21  1  0
 23 24  2  0
 23 25  1  0
M  END
$$$$
