GFK.pdb
     RDKit          3D

 25 25  0  0  1  0  0  0  0  0999 V2000
   21.9985  -21.8082   -6.2669 N   0  0  0  0  0  0  0  0  0  0  0  0
   23.2252  -22.3069   -6.8585 C   0  0  0  0  0  0  0  0  0  0  0  0
   23.7654  -21.3489   -7.8537 C   0  0  0  0  0  0  0  0  0  0  0  0
   23.0146  -20.4323   -8.2624 O   0  0  0  0  0  0  0  0  0  0  0  0
   25.0732  -21.4373   -8.3441 N   0  0  0  0  0  0  0  0  0  0  0  0
   25.6713  -20.5090   -9.2796 C   0  0  1  0  0  0  0  0  0  0  0  0
   27.1602  -20.6050   -9.1532 C   0  0  0  0  0  0  0  0  0  0  0  0
   27.6907  -19.9288   -7.9683 C   0  0  0  0  0  0  0  0  0  0  0  0
   27.2208  -18.6964   -7.5876 C   0  0  0  0  0  0  0  0  0  0  0  0
   27.7161  -18.0589   -6.4766 C   0  0  0  0  0  0  0  0  0  0  0  0
   28.7061  -18.6648   -5.7244 C   0  0  0  0  0  0  0  0  0  0  0  0
   29.1885  -19.9204   -6.1079 C   0  0  0  0  0  0  0  0  0  0  0  0
   28.6758  -20.5423   -7.2282 C   0  0  0  0  0  0  0  0  0  0  0  0
   25.3031  -20.9018  -10.6823 C   0  0  0  0  0  0  0  0  0  0  0  0
   25.3309  -22.1154  -11.0082 O   0  0  0  0  0  0  0  0  0  0  0  0
   24.9265  -19.9552  -11.6484 N   0  0  0  0  0  0  0  0  0  0  0  0
   24.4491  -20.3928  -12.9332 C   0  0  1  0  0  0  0  0  0  0  0  0
   23.9259  -19.2067  -13.7518 C   0  0  0  0  0  0  0  0  0  0  0  0
   23.4535  -19.6786  -15.0861 C   0  0  0  0  0  0  0  0  0  0  0  0
   22.9250  -18.6423  -16.0052 C   0  0  0  0  0  0  0  0  0  0  0  0
   22.3496  -19.1114  -17.2914 C   0  0  0  0  0  0  0  0  0  0  0  0
   21.9177  -18.0591  -18.1841 N   0  0  0  0  0  0  0  0  0  0  0  0
   25.5378  -21.0446  -13.6959 C   0  0  0  0  0  0  0  0  0  0  0  0
   25.2616  -21.9905  -14.4898 O   0  0  0  0  0  0  0  0  0  0  0  0
   26.8309  -20.6099  -13.5277 O   0  0  0  0  0  0  0  0  0  0  0  0
  1  2  1  0
  2  3  1  0
  3  4  2  0
  5  3  1  0
  6  5  1  0
  6  7  1  6
  8  7  1  0
  9  8  2  0
 10  9  1  0
 11 12  1  0
 11 10  2  0
 12 13  2  0
 13  8  1  0
 14  6  1  0
 15 14  2  0
 16 14  1  0
 17 16  1  0
 17 23  1  0
 17 18  1  6
 19 20  1  0
 19 18  1  0
 20 21  1  0
 22 21  1  0
 23 24  2  0
 23 25  1  0
M  END
$$$$
