GFK.pdb
     RDKit          3D

 25 25  0  0  1  0  0  0  0  0999 V2000
   29.1290  -22.2013  -13.3921 N   0  0  0  0  0  0  0  0  0  0  0  0
   29.0682  -20.9751  -12.6201 C   0  0  0  0  0  0  0  0  0  0  0  0
   28.1275  -21.1079  -11.4810 C   0  0  0  0  0  0  0  0  0  0  0  0
   27.3362  -22.0799  -11.4760 O   0  0  0  0  0  0  0  0  0  0  0  0
   28.0979  -20.1910  -10.4242 N   0  0  0  0  0  0  0  0  0  0  0  0
   27.0826  -20.1476   -9.3937 C   0  0  1  0  0  0  0  0  0  0  0  0
   27.4657  -19.0975   -8.3975 C   0  0  0  0  0  0  0  0  0  0  0  0
   27.6912  -19.6244   -7.0506 C   0  0  0  0  0  0  0  0  0  0  0  0
   28.8862  -19.4264   -6.4046 C   0  0  0  0  0  0  0  0  0  0  0  0
   29.1014  -19.9192   -5.1410 C   0  0  0  0  0  0  0  0  0  0  0  0
   28.0996  -20.6283   -4.5032 C   0  0  0  0  0  0  0  0  0  0  0  0
   26.8801  -20.8328   -5.1569 C   0  0  0  0  0  0  0  0  0  0  0  0
   26.6863  -20.3283   -6.4267 C   0  0  0  0  0  0  0  0  0  0  0  0
   25.7676  -19.7474  -10.0003 C   0  0  0  0  0  0  0  0  0  0  0  0
   25.6784  -18.6491  -10.6048 O   0  0  0  0  0  0  0  0  0  0  0  0
   24.6273  -20.5621   -9.9154 N   0  0  0  0  0  0  0  0  0  0  0  0
   23.5042  -20.3160  -10.7803 C   0  0  1  0  0  0  0  0  0  0  0  0
   23.3654  -21.4320  -11.8224 C   0  0  0  0  0  0  0  0  0  0  0  0
   22.1635  -21.1877  -12.6722 C   0  0  0  0  0  0  0  0  0  0  0  0
   21.8735  -22.2012  -13.7147 C   0  0  0  0  0  0  0  0  0  0  0  0
   20.6972  -21.9540  -14.5869 C   0  0  0  0  0  0  0  0  0  0  0  0
   20.4242  -22.9977  -15.5497 N   0  0  0  0  0  0  0  0  0  0  0  0
   22.2506  -20.2493   -9.9955 C   0  0  0  0  0  0  0  0  0  0  0  0
   21.3132  -19.4929  -10.3829 O   0  0  0  0  0  0  0  0  0  0  0  0
   22.1274  -21.0115   -8.8582 O   0  0  0  0  0  0  0  0  0  0  0  0
  1  2  1  0
  2  3  1  0
  3  4  2  0
  5  3  1  0
  6  5  1  0
  6  7  1  1
  8  7  1  0
  9  8  2  0
 10  9  1  0
 11 12  1  0
 11 10  2  0
 12 13  2  0
 13  8  1  0
 14  6  1  0
 15 14  2  0
 16 14  1  0
 17 16  1  0
 17 23  1  0
 17 18  1  6
 19 20  1  0
 19 18  1  0
 20 21  1  0
 22 21  1  0
 23 24  2  0
 23 25  1  0
M  END
$$$$
