GFK.pdb
     RDKit          3D

 25 25  0  0  1  0  0  0  0  0999 V2000
   21.6876  -16.5556  -19.0995 N   0  0  0  0  0  0  0  0  0  0  0  0
   21.0477  -16.9480  -17.8586 C   0  0  0  0  0  0  0  0  0  0  0  0
   21.7045  -18.1425  -17.2740 C   0  0  0  0  0  0  0  0  0  0  0  0
   22.1894  -18.9942  -18.0553 O   0  0  0  0  0  0  0  0  0  0  0  0
   21.7977  -18.3444  -15.8923 N   0  0  0  0  0  0  0  0  0  0  0  0
   22.3070  -19.5441  -15.2631 C   0  0  1  0  0  0  0  0  0  0  0  0
   23.1026  -19.1444  -14.0593 C   0  0  0  0  0  0  0  0  0  0  0  0
   23.6889  -20.2786  -13.3434 C   0  0  0  0  0  0  0  0  0  0  0  0
   24.7018  -21.0191  -13.9003 C   0  0  0  0  0  0  0  0  0  0  0  0
   25.2544  -22.0839  -13.2318 C   0  0  0  0  0  0  0  0  0  0  0  0
   24.7857  -22.4204  -11.9747 C   0  0  0  0  0  0  0  0  0  0  0  0
   23.7537  -21.6692  -11.4028 C   0  0  0  0  0  0  0  0  0  0  0  0
   23.2136  -20.6033  -12.0932 C   0  0  0  0  0  0  0  0  0  0  0  0
   21.1587  -20.3918  -14.7942 C   0  0  0  0  0  0  0  0  0  0  0  0
   20.2088  -19.8513  -14.1735 O   0  0  0  0  0  0  0  0  0  0  0  0
   21.1086  -21.7757  -15.0262 N   0  0  0  0  0  0  0  0  0  0  0  0
   19.9824  -22.5405  -14.5605 C   0  0  1  0  0  0  0  0  0  0  0  0
   20.0014  -23.9537  -15.1550 C   0  0  0  0  0  0  0  0  0  0  0  0
   21.1086  -24.7469  -14.5458 C   0  0  0  0  0  0  0  0  0  0  0  0
   22.2643  -25.0516  -15.4230 C   0  0  0  0  0  0  0  0  0  0  0  0
   23.3734  -25.8398  -14.8279 C   0  0  0  0  0  0  0  0  0  0  0  0
   24.4226  -26.2073  -15.7527 N   0  0  0  0  0  0  0  0  0  0  0  0
   20.0072  -22.6528  -13.0844 C   0  0  0  0  0  0  0  0  0  0  0  0
   18.9192  -22.6188  -12.4393 O   0  0  0  0  0  0  0  0  0  0  0  0
   21.2135  -22.7922  -12.4404 O   0  0  0  0  0  0  0  0  0  0  0  0
  1  2  1  0
  2  3  1  0
  3  4  2  0
  5  3  1  0
  6  5  1  0
  6  7  1  1
  8  7  1  0
  9  8  2  0
 10  9  1  0
 11 12  1  0
 11 10  2  0
 12 13  2  0
 13  8  1  0
 14  6  1  0
 15 14  2  0
 16 14  1  0
 17 16  1  0
 17 23  1  0
 17 18  1  6
 19 20  1  0
 19 18  1  0
 20 21  1  0
 22 21  1  0
 23 24  2  0
 23 25  1  0
M  END
$$$$
