GFK.pdb
     RDKit          3D

 25 25  0  0  1  0  0  0  0  0999 V2000
   28.8475  -23.5009  -16.6788 N   0  0  0  0  0  0  0  0  0  0  0  0
   28.2660  -22.1762  -16.5769 C   0  0  0  0  0  0  0  0  0  0  0  0
   27.2362  -22.1261  -15.5105 C   0  0  0  0  0  0  0  0  0  0  0  0
   26.6941  -23.2002  -15.1592 O   0  0  0  0  0  0  0  0  0  0  0  0
   26.8566  -20.9293  -14.8924 N   0  0  0  0  0  0  0  0  0  0  0  0
   25.8784  -20.8192  -13.8314 C   0  0  1  0  0  0  0  0  0  0  0  0
   26.3614  -19.7984  -12.8483 C   0  0  0  0  0  0  0  0  0  0  0  0
   27.4061  -20.2979  -11.9529 C   0  0  0  0  0  0  0  0  0  0  0  0
   27.0897  -20.8593  -10.7408 C   0  0  0  0  0  0  0  0  0  0  0  0
   28.0670  -21.3291   -9.8981 C   0  0  0  0  0  0  0  0  0  0  0  0
   29.3954  -21.2374  -10.2725 C   0  0  0  0  0  0  0  0  0  0  0  0
   29.7232  -20.6664  -11.5065 C   0  0  0  0  0  0  0  0  0  0  0  0
   28.7242  -20.2009  -12.3371 C   0  0  0  0  0  0  0  0  0  0  0  0
   24.5754  -20.3309  -14.3980 C   0  0  0  0  0  0  0  0  0  0  0  0
   24.5865  -19.4505  -15.2949 O   0  0  0  0  0  0  0  0  0  0  0  0
   23.3375  -20.8264  -13.9583 N   0  0  0  0  0  0  0  0  0  0  0  0
   22.1245  -20.4025  -14.6056 C   0  0  1  0  0  0  0  0  0  0  0  0
   21.0693  -21.5141  -14.5652 C   0  0  0  0  0  0  0  0  0  0  0  0
   20.6119  -21.7302  -13.1615 C   0  0  0  0  0  0  0  0  0  0  0  0
   19.5987  -22.7921  -12.9521 C   0  0  0  0  0  0  0  0  0  0  0  0
   19.1864  -23.0642  -11.5516 C   0  0  0  0  0  0  0  0  0  0  0  0
   18.1736  -24.0857  -11.4035 N   0  0  0  0  0  0  0  0  0  0  0  0
   21.5699  -19.2053  -13.9341 C   0  0  0  0  0  0  0  0  0  0  0  0
   22.0015  -18.8769  -12.7909 O   0  0  0  0  0  0  0  0  0  0  0  0
   20.5945  -18.4709  -14.5656 O   0  0  0  0  0  0  0  0  0  0  0  0
  1  2  1  0
  2  3  1  0
  3  4  2  0
  5  3  1  0
  6  5  1  0
  6  7  1  1
  8  7  1  0
  9  8  2  0
 10  9  1  0
 11 12  1  0
 11 10  2  0
 12 13  2  0
 13  8  1  0
 14  6  1  0
 15 14  2  0
 16 14  1  0
 17 16  1  0
 17 23  1  0
 17 18  1  1
 19 20  1  0
 19 18  1  0
 20 21  1  0
 22 21  1  0
 23 24  2  0
 23 25  1  0
M  END
$$$$
