GFK.pdb
     RDKit          3D

 25 25  0  0  1  0  0  0  0  0999 V2000
   27.8149  -23.8540  -17.3025 N   0  0  0  0  0  0  0  0  0  0  0  0
   27.6880  -22.5157  -16.7584 C   0  0  0  0  0  0  0  0  0  0  0  0
   26.8089  -22.5065  -15.5638 C   0  0  0  0  0  0  0  0  0  0  0  0
   26.0268  -23.4714  -15.3961 O   0  0  0  0  0  0  0  0  0  0  0  0
   26.8266  -21.4647  -14.6296 N   0  0  0  0  0  0  0  0  0  0  0  0
   26.0341  -21.4241  -13.4193 C   0  0  1  0  0  0  0  0  0  0  0  0
   26.6856  -20.4769  -12.4600 C   0  0  0  0  0  0  0  0  0  0  0  0
   26.0573  -20.4599  -11.1380 C   0  0  0  0  0  0  0  0  0  0  0  0
   26.4465  -21.3398  -10.1588 C   0  0  0  0  0  0  0  0  0  0  0  0
   25.8594  -21.3269   -8.9173 C   0  0  0  0  0  0  0  0  0  0  0  0
   24.8577  -20.4132   -8.6436 C   0  0  0  0  0  0  0  0  0  0  0  0
   24.4575  -19.5145   -9.6378 C   0  0  0  0  0  0  0  0  0  0  0  0
   25.0617  -19.5458  -10.8782 C   0  0  0  0  0  0  0  0  0  0  0  0
   24.6649  -20.8909  -13.7329 C   0  0  0  0  0  0  0  0  0  0  0  0
   24.5542  -19.8651  -14.4508 O   0  0  0  0  0  0  0  0  0  0  0  0
   23.4969  -21.5018  -13.2494 N   0  0  0  0  0  0  0  0  0  0  0  0
   22.2095  -20.9535  -13.5844 C   0  0  1  0  0  0  0  0  0  0  0  0
   21.2982  -22.0317  -14.1828 C   0  0  0  0  0  0  0  0  0  0  0  0
   19.9757  -21.4396  -14.5386 C   0  0  0  0  0  0  0  0  0  0  0  0
   18.9599  -22.3707  -15.0857 C   0  0  0  0  0  0  0  0  0  0  0  0
   17.6747  -21.7780  -15.5357 C   0  0  0  0  0  0  0  0  0  0  0  0
   16.7546  -22.7124  -16.1451 N   0  0  0  0  0  0  0  0  0  0  0  0
   21.5520  -20.4007  -12.3787 C   0  0  0  0  0  0  0  0  0  0  0  0
   21.6077  -21.0426  -11.2897 O   0  0  0  0  0  0  0  0  0  0  0  0
   20.8917  -19.1980  -12.4640 O   0  0  0  0  0  0  0  0  0  0  0  0
  1  2  1  0
  2  3  1  0
  3  4  2  0
  5  3  1  0
  6  5  1  0
  6  7  1  1
  8  7  1  0
  9  8  2  0
 10  9  1  0
 11 12  1  0
 11 10  2  0
 12 13  2  0
 13  8  1  0
 14  6  1  0
 15 14  2  0
 16 14  1  0
 17 16  1  0
 17 23  1  0
 17 18  1  1
 19 20  1  0
 19 18  1  0
 20 21  1  0
 22 21  1  0
 23 24  2  0
 23 25  1  0
M  END
$$$$
