GFK.pdb
     RDKit          3D

 25 25  0  0  1  0  0  0  0  0999 V2000
   27.3849  -22.9667  -17.5293 N   0  0  0  0  0  0  0  0  0  0  0  0
   27.3623  -21.7549  -16.7327 C   0  0  0  0  0  0  0  0  0  0  0  0
   26.6219  -21.9638  -15.4646 C   0  0  0  0  0  0  0  0  0  0  0  0
   25.8507  -22.9485  -15.3838 O   0  0  0  0  0  0  0  0  0  0  0  0
   26.7575  -21.1042  -14.3686 N   0  0  0  0  0  0  0  0  0  0  0  0
   25.9951  -21.1995  -13.1420 C   0  0  1  0  0  0  0  0  0  0  0  0
   26.7011  -20.4085  -12.0849 C   0  0  0  0  0  0  0  0  0  0  0  0
   26.0898  -20.5273  -10.7601 C   0  0  0  0  0  0  0  0  0  0  0  0
   25.3087  -19.5208  -10.2489 C   0  0  0  0  0  0  0  0  0  0  0  0
   24.7335  -19.6286   -9.0065 C   0  0  0  0  0  0  0  0  0  0  0  0
   24.9416  -20.7696   -8.2528 C   0  0  0  0  0  0  0  0  0  0  0  0
   25.7366  -21.7981   -8.7690 C   0  0  0  0  0  0  0  0  0  0  0  0
   26.3046  -21.6677  -10.0200 C   0  0  0  0  0  0  0  0  0  0  0  0
   24.6383  -20.5871  -13.3448 C   0  0  0  0  0  0  0  0  0  0  0  0
   24.5508  -19.3636  -13.6188 O   0  0  0  0  0  0  0  0  0  0  0  0
   23.4567  -21.3380  -13.2384 N   0  0  0  0  0  0  0  0  0  0  0  0
   22.1800  -20.6898  -13.3800 C   0  0  1  0  0  0  0  0  0  0  0  0
   21.2416  -21.5232  -14.2607 C   0  0  0  0  0  0  0  0  0  0  0  0
   21.8566  -21.7316  -15.6040 C   0  0  0  0  0  0  0  0  0  0  0  0
   21.9029  -20.5518  -16.5006 C   0  0  0  0  0  0  0  0  0  0  0  0
   22.5324  -20.7409  -17.8323 C   0  0  0  0  0  0  0  0  0  0  0  0
   21.6450  -20.5471  -18.9574 N   0  0  0  0  0  0  0  0  0  0  0  0
   21.5417  -20.5078  -12.0566 C   0  0  0  0  0  0  0  0  0  0  0  0
   20.7073  -19.5710  -11.8915 O   0  0  0  0  0  0  0  0  0  0  0  0
   21.8676  -21.3611  -11.0293 O   0  0  0  0  0  0  0  0  0  0  0  0
  1  2  1  0
  2  3  1  0
  3  4  2  0
  5  3  1  0
  6  5  1  0
  6  7  1  1
  8  7  1  0
  9  8  2  0
 10  9  1  0
 11 12  1  0
 11 10  2  0
 12 13  2  0
 13  8  1  0
 14  6  1  0
 15 14  2  0
 16 14  1  0
 17 16  1  0
 17 23  1  0
 17 18  1  6
 19 20  1  0
 19 18  1  0
 20 21  1  0
 22 21  1  0
 23 24  2  0
 23 25  1  0
M  END
$$$$
