GFK.pdb
     RDKit          3D

 25 25  0  0  1  0  0  0  0  0999 V2000
   31.3237  -21.8953  -10.4058 N   0  0  0  0  0  0  0  0  0  0  0  0
   30.5921  -20.7012  -10.0284 C   0  0  0  0  0  0  0  0  0  0  0  0
   29.2093  -21.0336   -9.6073 C   0  0  0  0  0  0  0  0  0  0  0  0
   28.8061  -22.2090   -9.7712 O   0  0  0  0  0  0  0  0  0  0  0  0
   28.3516  -20.0848   -9.0392 N   0  0  0  0  0  0  0  0  0  0  0  0
   26.9987  -20.3500   -8.5987 C   0  0  1  0  0  0  0  0  0  0  0  0
   26.6772  -19.4165   -7.4732 C   0  0  0  0  0  0  0  0  0  0  0  0
   27.4728  -19.6579   -6.2684 C   0  0  0  0  0  0  0  0  0  0  0  0
   28.3719  -18.7245   -5.8158 C   0  0  0  0  0  0  0  0  0  0  0  0
   29.1201  -18.9475   -4.6860 C   0  0  0  0  0  0  0  0  0  0  0  0
   28.9689  -20.1320   -3.9879 C   0  0  0  0  0  0  0  0  0  0  0  0
   28.0542  -21.0864   -4.4447 C   0  0  0  0  0  0  0  0  0  0  0  0
   27.3131  -20.8406   -5.5827 C   0  0  0  0  0  0  0  0  0  0  0  0
   26.0402  -20.0650   -9.7200 C   0  0  0  0  0  0  0  0  0  0  0  0
   25.9386  -18.8915  -10.1586 O   0  0  0  0  0  0  0  0  0  0  0  0
   25.2486  -21.0696  -10.2992 N   0  0  0  0  0  0  0  0  0  0  0  0
   24.5093  -20.7953  -11.5027 C   0  0  1  0  0  0  0  0  0  0  0  0
   24.7102  -21.9143  -12.5314 C   0  0  0  0  0  0  0  0  0  0  0  0
   23.9336  -21.6127  -13.7692 C   0  0  0  0  0  0  0  0  0  0  0  0
   24.0290  -22.6036  -14.8679 C   0  0  0  0  0  0  0  0  0  0  0  0
   23.3271  -22.2756  -16.1349 C   0  0  0  0  0  0  0  0  0  0  0  0
   23.5126  -23.2367  -17.1992 N   0  0  0  0  0  0  0  0  0  0  0  0
   23.0626  -20.6840  -11.2081 C   0  0  0  0  0  0  0  0  0  0  0  0
   22.3322  -19.9567  -11.9419 O   0  0  0  0  0  0  0  0  0  0  0  0
   22.5383  -21.3738  -10.1410 O   0  0  0  0  0  0  0  0  0  0  0  0
  1  2  1  0
  2  3  1  0
  3  4  2  0
  5  3  1  0
  6  5  1  0
  6  7  1  1
  8  7  1  0
  9  8  2  0
 10  9  1  0
 11 12  1  0
 11 10  2  0
 12 13  2  0
 13  8  1  0
 14  6  1  0
 15 14  2  0
 16 14  1  0
 17 16  1  0
 17 23  1  0
 17 18  1  6
 19 20  1  0
 19 18  1  0
 20 21  1  0
 22 21  1  0
 23 24  2  0
 23 25  1  0
M  END
$$$$
