GFK.pdb
     RDKit          3D

 25 25  0  0  1  0  0  0  0  0999 V2000
   13.5282  -13.2252    6.1794 N   0  0  0  0  0  0  0  0  0  0  0  0
   14.9736  -13.1222    6.2369 C   0  0  0  0  0  0  0  0  0  0  0  0
   15.6106  -14.4502    6.0612 C   0  0  0  0  0  0  0  0  0  0  0  0
   14.8687  -15.4443    5.8822 O   0  0  0  0  0  0  0  0  0  0  0  0
   16.9990  -14.6238    6.0892 N   0  0  0  0  0  0  0  0  0  0  0  0
   17.6750  -15.9023    6.0341 C   0  0  1  0  0  0  0  0  0  0  0  0
   18.8245  -15.7878    5.0815 C   0  0  0  0  0  0  0  0  0  0  0  0
   18.4137  -15.6730    3.6812 C   0  0  0  0  0  0  0  0  0  0  0  0
   18.2166  -16.7902    2.9082 C   0  0  0  0  0  0  0  0  0  0  0  0
   17.8312  -16.6866    1.5942 C   0  0  0  0  0  0  0  0  0  0  0  0
   17.6368  -15.4367    1.0347 C   0  0  0  0  0  0  0  0  0  0  0  0
   17.8363  -14.2951    1.8178 C   0  0  0  0  0  0  0  0  0  0  0  0
   18.2235  -14.4235    3.1362 C   0  0  0  0  0  0  0  0  0  0  0  0
   18.2325  -16.2348    7.3890 C   0  0  0  0  0  0  0  0  0  0  0  0
   18.7636  -15.3255    8.0752 O   0  0  0  0  0  0  0  0  0  0  0  0
   18.1810  -17.5337    7.9195 N   0  0  0  0  0  0  0  0  0  0  0  0
   18.6619  -17.7836    9.2523 C   0  0  1  0  0  0  0  0  0  0  0  0
   17.4946  -17.8888   10.2409 C   0  0  0  0  0  0  0  0  0  0  0  0
   18.0154  -17.9551   11.6375 C   0  0  0  0  0  0  0  0  0  0  0  0
   17.0257  -18.2587   12.6988 C   0  0  0  0  0  0  0  0  0  0  0  0
   17.5088  -18.2201   14.1026 C   0  0  0  0  0  0  0  0  0  0  0  0
   16.5322  -18.6160   15.0928 N   0  0  0  0  0  0  0  0  0  0  0  0
   19.4297  -19.0486    9.2975 C   0  0  0  0  0  0  0  0  0  0  0  0
   19.3651  -19.8511    8.3214 O   0  0  0  0  0  0  0  0  0  0  0  0
   20.2001  -19.3290   10.4009 O   0  0  0  0  0  0  0  0  0  0  0  0
  1  2  1  0
  2  3  1  0
  3  4  2  0
  5  3  1  0
  6  5  1  0
  6  7  1  6
  8  7  1  0
  9  8  2  0
 10  9  1  0
 11 12  1  0
 11 10  2  0
 12 13  2  0
 13  8  1  0
 14  6  1  0
 15 14  2  0
 16 14  1  0
 17 16  1  0
 17 23  1  0
 17 18  1  1
 19 20  1  0
 19 18  1  0
 20 21  1  0
 22 21  1  0
 23 24  2  0
 23 25  1  0
M  END
$$$$
