EAH.pdb
     RDKit          3D

 25 25  0  0  1  0  0  0  0  0999 V2000
   23.4984  -20.1038  -14.8167 N   0  0  0  0  0  0  0  0  0  0  0  0
   24.2428  -19.3091  -15.7620 C   0  0  1  0  0  0  0  0  0  0  0  0
   23.8301  -19.5639  -17.1636 C   0  0  0  0  0  0  0  0  0  0  0  0
   22.4229  -19.8990  -17.4343 C   0  0  0  0  0  0  0  0  0  0  0  0
   22.0032  -20.2030  -18.7852 C   0  0  0  0  0  0  0  0  0  0  0  0
   22.9142  -20.1234  -19.6868 O   0  0  0  0  0  0  0  0  0  0  0  0
   24.0203  -17.8726  -15.4344 C   0  0  0  0  0  0  0  0  0  0  0  0
   22.8766  -17.4719  -15.0174 O   0  0  0  0  0  0  0  0  0  0  0  0
   20.7660  -20.5662  -19.2594 O   0  0  0  0  0  0  0  0  0  0  0  0
   26.0350  -14.6665  -15.1624 C   0  0  0  0  0  0  0  0  0  0  0  0
   24.7932  -15.4927  -15.1799 C   0  0  2  0  0  0  0  0  0  0  0  0
   25.0237  -16.8831  -15.5582 N   0  0  0  0  0  0  0  0  0  0  0  0
   23.7864  -14.8998  -16.1099 C   0  0  0  0  0  0  0  0  0  0  0  0
   23.6987  -15.2599  -17.3122 O   0  0  0  0  0  0  0  0  0  0  0  0
   22.9222  -13.9199  -15.6302 N   0  0  0  0  0  0  0  0  0  0  0  0
   21.8974  -13.2342  -16.4481 C   0  0  1  0  0  0  0  0  0  0  0  0
   20.8600  -12.7934  -15.4795 C   0  0  0  0  0  0  0  0  0  0  0  0
   19.7338  -12.0372  -16.0224 C   0  0  0  0  0  0  0  0  0  0  0  0
   19.6271  -11.8120  -17.4014 C   0  0  0  0  0  0  0  0  0  0  0  0
   18.5093  -11.1019  -17.6186 N   0  0  0  0  0  0  0  0  0  0  0  0
   17.9427  -10.8915  -16.4371 C   0  0  0  0  0  0  0  0  0  0  0  0
   18.6822  -11.4557  -15.4772 N   0  0  0  0  0  0  0  0  0  0  0  0
   22.5606  -12.1385  -17.1701 C   0  0  0  0  0  0  0  0  0  0  0  0
   23.7046  -11.7339  -16.8518 O   0  0  0  0  0  0  0  0  0  0  0  0
   21.9357  -11.5167  -18.2323 O   0  0  0  0  0  0  0  0  0  0  0  0
  2  1  1  1
  2  7  1  0
  3  4  1  0
  3  2  1  0
  4  5  1  0
  5  9  1  0
  6  5  2  0
  7 12  1  0
  7  8  2  0
 11 10  1  6
 11 13  1  0
 12 11  1  0
 13 14  2  0
 15 13  1  0
 15 16  1  0
 16 23  1  0
 16 17  1  1
 17 18  1  0
 18 19  2  0
 18 22  1  0
 19 20  1  0
 20 21  1  0
 22 21  2  0
 23 25  1  0
 24 23  2  0
M  END
$$$$
