EAH.pdb
     RDKit          3D

 25 25  0  0  1  0  0  0  0  0999 V2000
   15.8605  -10.0160  -17.8428 N   0  0  0  0  0  0  0  0  0  0  0  0
   15.9756   -9.4561  -16.5189 C   0  0  1  0  0  0  0  0  0  0  0  0
   16.2785  -10.4850  -15.4944 C   0  0  0  0  0  0  0  0  0  0  0  0
   15.2902  -11.5475  -15.2487 C   0  0  0  0  0  0  0  0  0  0  0  0
   15.5280  -12.5237  -14.2075 C   0  0  0  0  0  0  0  0  0  0  0  0
   15.7775  -12.0495  -13.0406 O   0  0  0  0  0  0  0  0  0  0  0  0
   17.0674   -8.4422  -16.5393 C   0  0  0  0  0  0  0  0  0  0  0  0
   18.1882   -8.7070  -17.1018 O   0  0  0  0  0  0  0  0  0  0  0  0
   15.5301  -13.8959  -14.2746 O   0  0  0  0  0  0  0  0  0  0  0  0
   17.5305   -4.7612  -15.8996 C   0  0  0  0  0  0  0  0  0  0  0  0
   18.0128   -6.1658  -16.0394 C   0  0  2  0  0  0  0  0  0  0  0  0
   16.9467   -7.1587  -15.9568 N   0  0  0  0  0  0  0  0  0  0  0  0
   19.0381   -6.4704  -14.9973 C   0  0  0  0  0  0  0  0  0  0  0  0
   18.7234   -6.9285  -13.8687 O   0  0  0  0  0  0  0  0  0  0  0  0
   20.3799   -6.2385  -15.2854 N   0  0  0  0  0  0  0  0  0  0  0  0
   21.4968   -6.5232  -14.3576 C   0  0  1  0  0  0  0  0  0  0  0  0
   22.6154   -6.9757  -15.2251 C   0  0  0  0  0  0  0  0  0  0  0  0
   22.4804   -8.2966  -15.8352 C   0  0  0  0  0  0  0  0  0  0  0  0
   21.4564   -9.1644  -15.4328 C   0  0  0  0  0  0  0  0  0  0  0  0
   21.5655  -10.2930  -16.1507 N   0  0  0  0  0  0  0  0  0  0  0  0
   22.6046  -10.1423  -16.9623 C   0  0  0  0  0  0  0  0  0  0  0  0
   23.1541   -8.9390  -16.7703 N   0  0  0  0  0  0  0  0  0  0  0  0
   21.7734   -5.2941  -13.5997 C   0  0  0  0  0  0  0  0  0  0  0  0
   21.4671   -4.1611  -14.0426 O   0  0  0  0  0  0  0  0  0  0  0  0
   22.3848   -5.3528  -12.3636 O   0  0  0  0  0  0  0  0  0  0  0  0
  2  1  1  6
  2  7  1  0
  3  4  1  0
  3  2  1  0
  4  5  1  0
  5  9  1  0
  6  5  2  0
  7 12  1  0
  7  8  2  0
 11 10  1  1
 11 13  1  0
 12 11  1  0
 13 14  2  0
 15 13  1  0
 15 16  1  0
 16 23  1  0
 16 17  1  6
 17 18  1  0
 18 19  2  0
 18 22  1  0
 19 20  1  0
 20 21  1  0
 22 21  2  0
 23 25  1  0
 24 23  2  0
M  END
$$$$
