EAH.pdb
     RDKit          3D

 25 25  0  0  1  0  0  0  0  0999 V2000
   20.9015  -15.0788  -18.2838 N   0  0  0  0  0  0  0  0  0  0  0  0
   19.7951  -14.1540  -18.2984 C   0  0  1  0  0  0  0  0  0  0  0  0
   18.7381  -14.5218  -17.3252 C   0  0  0  0  0  0  0  0  0  0  0  0
   19.0509  -14.4614  -15.8884 C   0  0  0  0  0  0  0  0  0  0  0  0
   18.0644  -14.8873  -14.9193 C   0  0  0  0  0  0  0  0  0  0  0  0
   17.1676  -14.0204  -14.6139 O   0  0  0  0  0  0  0  0  0  0  0  0
   20.3209  -12.7992  -17.9689 C   0  0  0  0  0  0  0  0  0  0  0  0
   21.3511  -12.6681  -17.2176 O   0  0  0  0  0  0  0  0  0  0  0  0
   17.9376  -16.0890  -14.2657 O   0  0  0  0  0  0  0  0  0  0  0  0
   19.6358   -9.1790  -18.9045 C   0  0  0  0  0  0  0  0  0  0  0  0
   20.3541  -10.2977  -18.2282 C   0  0  2  0  0  0  0  0  0  0  0  0
   19.7375  -11.6022  -18.4462 N   0  0  0  0  0  0  0  0  0  0  0  0
   20.4444  -10.0458  -16.7591 C   0  0  0  0  0  0  0  0  0  0  0  0
   19.7568  -10.6954  -15.9296 O   0  0  0  0  0  0  0  0  0  0  0  0
   21.3143   -9.0625  -16.2971 N   0  0  0  0  0  0  0  0  0  0  0  0
   21.4470   -8.6609  -14.8792 C   0  0  1  0  0  0  0  0  0  0  0  0
   22.1826   -9.7759  -14.2279 C   0  0  0  0  0  0  0  0  0  0  0  0
   23.5475  -10.0200  -14.6890 C   0  0  0  0  0  0  0  0  0  0  0  0
   24.0969   -9.2509  -15.7235 C   0  0  0  0  0  0  0  0  0  0  0  0
   25.3491   -9.6828  -15.9390 N   0  0  0  0  0  0  0  0  0  0  0  0
   25.5750  -10.6724  -15.0842 C   0  0  0  0  0  0  0  0  0  0  0  0
   24.4883  -10.8738  -14.3324 N   0  0  0  0  0  0  0  0  0  0  0  0
   22.1462   -7.3679  -14.8439 C   0  0  0  0  0  0  0  0  0  0  0  0
   22.5998   -6.8329  -15.8839 O   0  0  0  0  0  0  0  0  0  0  0  0
   22.3248   -6.6976  -13.6505 O   0  0  0  0  0  0  0  0  0  0  0  0
  2  1  1  1
  2  7  1  0
  3  4  1  0
  3  2  1  0
  4  5  1  0
  5  9  1  0
  6  5  2  0
  7 12  1  0
  7  8  2  0
 11 10  1  6
 11 13  1  0
 12 11  1  0
 13 14  2  0
 15 13  1  0
 15 16  1  0
 16 23  1  0
 16 17  1  1
 17 18  1  0
 18 19  2  0
 18 22  1  0
 19 20  1  0
 20 21  1  0
 22 21  2  0
 23 25  1  0
 24 23  2  0
M  END
$$$$
