EAH.pdb
     RDKit          3D

 25 25  0  0  1  0  0  0  0  0999 V2000
   27.7402   -9.1793  -18.7310 N   0  0  0  0  0  0  0  0  0  0  0  0
   28.2317  -10.5347  -18.7538 C   0  0  1  0  0  0  0  0  0  0  0  0
   29.7131  -10.5994  -18.7258 C   0  0  0  0  0  0  0  0  0  0  0  0
   30.4573   -9.4688  -18.1481 C   0  0  0  0  0  0  0  0  0  0  0  0
   31.8990   -9.5350  -18.0442 C   0  0  0  0  0  0  0  0  0  0  0  0
   32.4650   -8.5430  -17.4572 O   0  0  0  0  0  0  0  0  0  0  0  0
   27.6832  -11.2452  -17.5643 C   0  0  0  0  0  0  0  0  0  0  0  0
   27.9197  -12.4923  -17.3873 O   0  0  0  0  0  0  0  0  0  0  0  0
   32.7672  -10.5051  -18.4829 O   0  0  0  0  0  0  0  0  0  0  0  0
   25.7139  -10.4755  -14.4132 C   0  0  0  0  0  0  0  0  0  0  0  0
   26.2873  -11.3525  -15.4749 C   0  0  2  0  0  0  0  0  0  0  0  0
   26.8878  -10.6128  -16.5801 N   0  0  0  0  0  0  0  0  0  0  0  0
   25.2382  -12.2656  -16.0185 C   0  0  0  0  0  0  0  0  0  0  0  0
   24.4661  -11.9131  -16.9472 O   0  0  0  0  0  0  0  0  0  0  0  0
   25.1126  -13.5427  -15.4795 N   0  0  0  0  0  0  0  0  0  0  0  0
   24.0625  -14.5129  -15.8609 C   0  0  1  0  0  0  0  0  0  0  0  0
   24.5229  -15.8164  -15.3155 C   0  0  0  0  0  0  0  0  0  0  0  0
   23.5923  -16.9380  -15.4213 C   0  0  0  0  0  0  0  0  0  0  0  0
   22.3556  -16.7780  -16.0606 C   0  0  0  0  0  0  0  0  0  0  0  0
   21.7122  -17.9549  -16.0157 N   0  0  0  0  0  0  0  0  0  0  0  0
   22.5035  -18.8103  -15.3808 C   0  0  0  0  0  0  0  0  0  0  0  0
   23.6353  -18.1954  -15.0236 N   0  0  0  0  0  0  0  0  0  0  0  0
   22.7885  -14.0357  -15.3032 C   0  0  0  0  0  0  0  0  0  0  0  0
   22.7404  -13.3633  -14.2453 O   0  0  0  0  0  0  0  0  0  0  0  0
   21.5946  -14.3169  -15.9363 O   0  0  0  0  0  0  0  0  0  0  0  0
  2  1  1  1
  2  7  1  0
  3  4  1  0
  3  2  1  0
  4  5  1  0
  5  9  1  0
  6  5  2  0
  7 12  1  0
  7  8  2  0
 11 10  1  1
 11 13  1  0
 12 11  1  0
 13 14  2  0
 15 13  1  0
 15 16  1  0
 16 23  1  0
 16 17  1  1
 17 18  1  0
 18 19  2  0
 18 22  1  0
 19 20  1  0
 20 21  1  0
 22 21  2  0
 23 25  1  0
 24 23  2  0
M  END
$$$$
