EAH.pdb
     RDKit          3D

 25 25  0  0  1  0  0  0  0  0999 V2000
   27.4320   -7.3089  -18.7232 N   0  0  0  0  0  0  0  0  0  0  0  0
   26.2334   -6.6113  -19.1180 C   0  0  1  0  0  0  0  0  0  0  0  0
   25.5654   -7.2477  -20.2793 C   0  0  0  0  0  0  0  0  0  0  0  0
   26.3811   -8.0367  -21.2164 C   0  0  0  0  0  0  0  0  0  0  0  0
   25.7573   -8.6602  -22.3634 C   0  0  0  0  0  0  0  0  0  0  0  0
   24.5122   -8.3981  -22.5363 O   0  0  0  0  0  0  0  0  0  0  0  0
   25.3008   -6.6009  -17.9558 C   0  0  0  0  0  0  0  0  0  0  0  0
   25.0111   -7.6907  -17.3467 O   0  0  0  0  0  0  0  0  0  0  0  0
   26.2963   -9.5009  -23.3069 O   0  0  0  0  0  0  0  0  0  0  0  0
   23.4125   -4.0793  -15.8329 C   0  0  0  0  0  0  0  0  0  0  0  0
   23.8034   -5.4404  -16.3015 C   0  0  2  0  0  0  0  0  0  0  0  0
   24.6892   -5.4252  -17.4610 N   0  0  0  0  0  0  0  0  0  0  0  0
   22.5900   -6.2458  -16.6314 C   0  0  0  0  0  0  0  0  0  0  0  0
   22.1100   -6.2794  -17.7939 O   0  0  0  0  0  0  0  0  0  0  0  0
   21.9737   -6.9786  -15.6214 N   0  0  0  0  0  0  0  0  0  0  0  0
   20.7102   -7.7313  -15.7847 C   0  0  1  0  0  0  0  0  0  0  0  0
   20.9954   -9.0878  -15.2489 C   0  0  0  0  0  0  0  0  0  0  0  0
   19.8572   -9.9947  -15.1178 C   0  0  0  0  0  0  0  0  0  0  0  0
   18.5699   -9.5774  -15.4816 C   0  0  0  0  0  0  0  0  0  0  0  0
   17.7274  -10.5989  -15.2632 N   0  0  0  0  0  0  0  0  0  0  0  0
   18.4480  -11.6062  -14.7865 C   0  0  0  0  0  0  0  0  0  0  0  0
   19.7305  -11.2398  -14.6997 N   0  0  0  0  0  0  0  0  0  0  0  0
   19.6578   -7.0009  -15.0632 C   0  0  0  0  0  0  0  0  0  0  0  0
   18.4640   -7.0093  -15.4486 O   0  0  0  0  0  0  0  0  0  0  0  0
   19.9570   -6.2768  -13.9267 O   0  0  0  0  0  0  0  0  0  0  0  0
  2  1  1  1
  2  7  1  0
  3  4  1  0
  3  2  1  0
  4  5  1  0
  5  9  1  0
  6  5  2  0
  7 12  1  0
  7  8  2  0
 11 10  1  6
 11 13  1  0
 12 11  1  0
 13 14  2  0
 15 13  1  0
 15 16  1  0
 16 23  1  0
 16 17  1  1
 17 18  1  0
 18 19  2  0
 18 22  1  0
 19 20  1  0
 20 21  1  0
 22 21  2  0
 23 25  1  0
 24 23  2  0
M  END
$$$$
