EAH.pdb
     RDKit          3D

 25 25  0  0  1  0  0  0  0  0999 V2000
   18.5055  -14.1187  -19.3170 N   0  0  0  0  0  0  0  0  0  0  0  0
   17.7320  -13.4976  -18.2704 C   0  0  1  0  0  0  0  0  0  0  0  0
   17.6314  -14.3493  -17.0604 C   0  0  0  0  0  0  0  0  0  0  0  0
   18.8186  -15.1046  -16.6292 C   0  0  0  0  0  0  0  0  0  0  0  0
   18.7641  -15.9030  -15.4237 C   0  0  0  0  0  0  0  0  0  0  0  0
   17.6470  -15.8872  -14.7907 O   0  0  0  0  0  0  0  0  0  0  0  0
   18.3883  -12.2080  -17.9141 C   0  0  0  0  0  0  0  0  0  0  0  0
   19.6085  -11.9893  -18.2400 O   0  0  0  0  0  0  0  0  0  0  0  0
   19.7342  -16.6835  -14.8431 O   0  0  0  0  0  0  0  0  0  0  0  0
   17.5214   -8.9471  -16.1603 C   0  0  0  0  0  0  0  0  0  0  0  0
   18.3966   -9.9127  -16.8860 C   0  0  2  0  0  0  0  0  0  0  0  0
   17.7315  -11.1697  -17.2129 N   0  0  0  0  0  0  0  0  0  0  0  0
   19.6216  -10.2087  -16.0849 C   0  0  0  0  0  0  0  0  0  0  0  0
   19.9055  -11.3758  -15.7108 O   0  0  0  0  0  0  0  0  0  0  0  0
   20.4713   -9.1608  -15.7428 N   0  0  0  0  0  0  0  0  0  0  0  0
   21.8207   -9.3330  -15.1607 C   0  0  1  0  0  0  0  0  0  0  0  0
   22.6057  -10.0412  -16.2052 C   0  0  0  0  0  0  0  0  0  0  0  0
   24.0183  -10.2787  -15.9169 C   0  0  0  0  0  0  0  0  0  0  0  0
   24.5320  -10.0418  -14.6349 C   0  0  0  0  0  0  0  0  0  0  0  0
   25.8398  -10.3426  -14.6519 N   0  0  0  0  0  0  0  0  0  0  0  0
   26.1329  -10.7475  -15.8813 C   0  0  0  0  0  0  0  0  0  0  0  0
   25.0342  -10.7080  -16.6415 N   0  0  0  0  0  0  0  0  0  0  0  0
   22.3326   -7.9988  -14.8149 C   0  0  0  0  0  0  0  0  0  0  0  0
   22.2110   -7.0219  -15.5925 O   0  0  0  0  0  0  0  0  0  0  0  0
   22.9687   -7.7804  -13.6095 O   0  0  0  0  0  0  0  0  0  0  0  0
  2  1  1  6
  2  7  1  0
  3  4  1  0
  3  2  1  0
  4  5  1  0
  5  9  1  0
  6  5  2  0
  7 12  1  0
  7  8  2  0
 11 10  1  1
 11 13  1  0
 12 11  1  0
 13 14  2  0
 15 13  1  0
 15 16  1  0
 16 23  1  0
 16 17  1  6
 17 18  1  0
 18 19  2  0
 18 22  1  0
 19 20  1  0
 20 21  1  0
 22 21  2  0
 23 25  1  0
 24 23  2  0
M  END
$$$$
