EAH.pdb
     RDKit          3D

 25 25  0  0  1  0  0  0  0  0999 V2000
   20.3936  -13.5798  -17.9479 N   0  0  0  0  0  0  0  0  0  0  0  0
   19.4208  -12.5180  -18.0237 C   0  0  1  0  0  0  0  0  0  0  0  0
   18.2198  -12.7916  -17.1977 C   0  0  0  0  0  0  0  0  0  0  0  0
   17.2904  -13.8466  -17.6327 C   0  0  0  0  0  0  0  0  0  0  0  0
   16.6780  -13.7705  -18.9414 C   0  0  0  0  0  0  0  0  0  0  0  0
   15.5582  -13.1448  -19.0010 O   0  0  0  0  0  0  0  0  0  0  0  0
   20.0697  -11.2623  -17.5520 C   0  0  0  0  0  0  0  0  0  0  0  0
   20.4912  -11.1634  -16.3456 O   0  0  0  0  0  0  0  0  0  0  0  0
   17.1127  -14.2712  -20.1446 O   0  0  0  0  0  0  0  0  0  0  0  0
   21.1890   -7.9226  -18.9778 C   0  0  0  0  0  0  0  0  0  0  0  0
   20.9596   -8.9370  -17.9085 C   0  0  2  0  0  0  0  0  0  0  0  0
   20.2584  -10.1282  -18.3762 N   0  0  0  0  0  0  0  0  0  0  0  0
   20.1906   -8.3368  -16.7779 C   0  0  0  0  0  0  0  0  0  0  0  0
   18.9435   -8.4689  -16.6778 O   0  0  0  0  0  0  0  0  0  0  0  0
   20.8759   -7.6099  -15.8088 N   0  0  0  0  0  0  0  0  0  0  0  0
   20.2484   -7.0173  -14.6070 C   0  0  1  0  0  0  0  0  0  0  0  0
   20.8650   -7.7288  -13.4572 C   0  0  0  0  0  0  0  0  0  0  0  0
   20.5307   -7.2346  -12.1234 C   0  0  0  0  0  0  0  0  0  0  0  0
   21.2696   -6.1940  -11.5447 C   0  0  0  0  0  0  0  0  0  0  0  0
   20.7501   -5.9426  -10.3331 N   0  0  0  0  0  0  0  0  0  0  0  0
   19.7371   -6.7821  -10.1592 C   0  0  0  0  0  0  0  0  0  0  0  0
   19.6070   -7.5594  -11.2388 N   0  0  0  0  0  0  0  0  0  0  0  0
   20.5053   -5.5699  -14.6356 C   0  0  0  0  0  0  0  0  0  0  0  0
   21.4887   -5.0848  -15.2448 O   0  0  0  0  0  0  0  0  0  0  0  0
   19.6607   -4.6929  -13.9853 O   0  0  0  0  0  0  0  0  0  0  0  0
  2  1  1  1
  2  7  1  0
  3  4  1  0
  3  2  1  0
  4  5  1  0
  5  9  1  0
  6  5  2  0
  7 12  1  0
  7  8  2  0
 11 10  1  6
 11 13  1  0
 12 11  1  0
 13 14  2  0
 15 13  1  0
 15 16  1  0
 16 23  1  0
 16 17  1  1
 17 18  1  0
 18 19  2  0
 18 22  1  0
 19 20  1  0
 20 21  1  0
 22 21  2  0
 23 25  1  0
 24 23  2  0
M  END
$$$$
