EAH.pdb
     RDKit          3D

 25 25  0  0  1  0  0  0  0  0999 V2000
   16.0449  -12.1285  -13.8239 N   0  0  0  0  0  0  0  0  0  0  0  0
   17.0932  -12.5928  -14.6984 C   0  0  1  0  0  0  0  0  0  0  0  0
   16.5922  -13.5283  -15.7345 C   0  0  0  0  0  0  0  0  0  0  0  0
   15.1461  -13.5726  -16.0043 C   0  0  0  0  0  0  0  0  0  0  0  0
   14.6440  -14.3678  -17.1039 C   0  0  0  0  0  0  0  0  0  0  0  0
   14.0835  -13.7155  -18.0575 O   0  0  0  0  0  0  0  0  0  0  0  0
   17.7041  -11.4047  -15.3587 C   0  0  0  0  0  0  0  0  0  0  0  0
   18.7101  -11.5429  -16.1407 O   0  0  0  0  0  0  0  0  0  0  0  0
   14.6722  -15.7290  -17.2876 O   0  0  0  0  0  0  0  0  0  0  0  0
   17.1979   -7.6427  -15.5332 C   0  0  0  0  0  0  0  0  0  0  0  0
   17.9409   -8.9247  -15.7041 C   0  0  2  0  0  0  0  0  0  0  0  0
   17.2318  -10.0842  -15.1730 N   0  0  0  0  0  0  0  0  0  0  0  0
   19.2824   -8.8396  -15.0536 C   0  0  0  0  0  0  0  0  0  0  0  0
   19.5107   -9.3575  -13.9300 O   0  0  0  0  0  0  0  0  0  0  0  0
   20.3077   -8.1663  -15.7113 N   0  0  0  0  0  0  0  0  0  0  0  0
   21.7468   -8.3327  -15.4102 C   0  0  1  0  0  0  0  0  0  0  0  0
   22.0151   -9.7832  -15.5906 C   0  0  0  0  0  0  0  0  0  0  0  0
   23.4029  -10.2172  -15.4464 C   0  0  0  0  0  0  0  0  0  0  0  0
   24.4008   -9.3012  -15.0875 C   0  0  0  0  0  0  0  0  0  0  0  0
   25.5664   -9.9635  -15.0254 N   0  0  0  0  0  0  0  0  0  0  0  0
   25.3141  -11.2303  -15.3298 C   0  0  0  0  0  0  0  0  0  0  0  0
   24.0103  -11.3807  -15.5831 N   0  0  0  0  0  0  0  0  0  0  0  0
   22.4987   -7.4569  -16.3208 C   0  0  0  0  0  0  0  0  0  0  0  0
   22.3151   -7.4792  -17.5616 O   0  0  0  0  0  0  0  0  0  0  0  0
   23.4393   -6.5738  -15.8301 O   0  0  0  0  0  0  0  0  0  0  0  0
  2  1  1  1
  2  7  1  0
  3  4  1  0
  3  2  1  0
  4  5  1  0
  5  9  1  0
  6  5  2  0
  7 12  1  0
  7  8  2  0
 11 10  1  1
 11 13  1  0
 12 11  1  0
 13 14  2  0
 15 13  1  0
 15 16  1  0
 16 23  1  0
 16 17  1  6
 17 18  1  0
 18 19  2  0
 18 22  1  0
 19 20  1  0
 20 21  1  0
 22 21  2  0
 23 25  1  0
 24 23  2  0
M  END
$$$$
