EAH.pdb
     RDKit          3D

 25 25  0  0  1  0  0  0  0  0999 V2000
   15.1593  -14.3687  -15.1560 N   0  0  0  0  0  0  0  0  0  0  0  0
   16.2762  -13.4618  -15.2533 C   0  0  1  0  0  0  0  0  0  0  0  0
   16.9530  -13.5380  -16.5708 C   0  0  0  0  0  0  0  0  0  0  0  0
   16.1278  -13.5211  -17.7893 C   0  0  0  0  0  0  0  0  0  0  0  0
   16.7580  -13.6423  -19.0861 C   0  0  0  0  0  0  0  0  0  0  0  0
   16.8110  -14.8285  -19.5752 O   0  0  0  0  0  0  0  0  0  0  0  0
   15.7677  -12.0778  -15.0379 C   0  0  0  0  0  0  0  0  0  0  0  0
   14.8893  -11.5792  -15.8268 O   0  0  0  0  0  0  0  0  0  0  0  0
   17.3169  -12.6741  -19.8845 O   0  0  0  0  0  0  0  0  0  0  0  0
   14.5695   -9.8446  -12.7766 C   0  0  0  0  0  0  0  0  0  0  0  0
   15.6716   -9.9019  -13.7801 C   0  0  2  0  0  0  0  0  0  0  0  0
   16.2062  -11.2446  -13.9821 N   0  0  0  0  0  0  0  0  0  0  0  0
   16.7872   -8.9931  -13.3806 C   0  0  0  0  0  0  0  0  0  0  0  0
   17.6858   -9.3562  -12.5785 O   0  0  0  0  0  0  0  0  0  0  0  0
   16.8308   -7.7074  -13.9118 N   0  0  0  0  0  0  0  0  0  0  0  0
   17.9262   -6.7410  -13.6766 C   0  0  1  0  0  0  0  0  0  0  0  0
   18.9660   -7.0816  -14.6824 C   0  0  0  0  0  0  0  0  0  0  0  0
   20.1074   -6.1746  -14.7799 C   0  0  0  0  0  0  0  0  0  0  0  0
   21.1893   -6.2955  -13.8976 C   0  0  0  0  0  0  0  0  0  0  0  0
   22.0863   -5.3480  -14.2117 N   0  0  0  0  0  0  0  0  0  0  0  0
   21.5934   -4.6666  -15.2383 C   0  0  0  0  0  0  0  0  0  0  0  0
   20.4013   -5.1662  -15.5786 N   0  0  0  0  0  0  0  0  0  0  0  0
   17.3668   -5.3883  -13.8139 C   0  0  0  0  0  0  0  0  0  0  0  0
   16.2407   -5.1876  -14.3290 O   0  0  0  0  0  0  0  0  0  0  0  0
   18.0734   -4.2872  -13.3738 O   0  0  0  0  0  0  0  0  0  0  0  0
  2  1  1  6
  2  7  1  0
  3  4  1  0
  3  2  1  0
  4  5  1  0
  5  9  1  0
  6  5  2  0
  7 12  1  0
  7  8  2  0
 11 10  1  1
 11 13  1  0
 12 11  1  0
 13 14  2  0
 15 13  1  0
 15 16  1  0
 16 23  1  0
 16 17  1  6
 17 18  1  0
 18 19  2  0
 18 22  1  0
 19 20  1  0
 20 21  1  0
 22 21  2  0
 23 25  1  0
 24 23  2  0
M  END
$$$$
