EAH.pdb
     RDKit          3D

 25 25  0  0  1  0  0  0  0  0999 V2000
   18.7759  -12.5623  -18.6312 N   0  0  0  0  0  0  0  0  0  0  0  0
   17.7566  -11.5619  -18.4325 C   0  0  1  0  0  0  0  0  0  0  0  0
   16.9805  -11.7849  -17.1884 C   0  0  0  0  0  0  0  0  0  0  0  0
   17.6096  -12.5358  -16.0901 C   0  0  0  0  0  0  0  0  0  0  0  0
   16.9132  -12.6865  -14.8308 C   0  0  0  0  0  0  0  0  0  0  0  0
   16.5546  -13.8818  -14.5279 O   0  0  0  0  0  0  0  0  0  0  0  0
   18.4225  -10.2303  -18.3679 C   0  0  0  0  0  0  0  0  0  0  0  0
   19.6907  -10.1465  -18.2023 O   0  0  0  0  0  0  0  0  0  0  0  0
   16.5702  -11.7378  -13.8983 O   0  0  0  0  0  0  0  0  0  0  0  0
   17.4935   -6.5618  -18.7384 C   0  0  0  0  0  0  0  0  0  0  0  0
   18.4135   -7.7229  -18.5637 C   0  0  2  0  0  0  0  0  0  0  0  0
   17.7232   -9.0057  -18.4801 N   0  0  0  0  0  0  0  0  0  0  0  0
   19.2505   -7.5443  -17.3399 C   0  0  0  0  0  0  0  0  0  0  0  0
   18.9233   -8.0425  -16.2320 O   0  0  0  0  0  0  0  0  0  0  0  0
   20.4255   -6.8038  -17.4305 N   0  0  0  0  0  0  0  0  0  0  0  0
   21.3541   -6.5658  -16.3034 C   0  0  1  0  0  0  0  0  0  0  0  0
   22.6989   -6.4548  -16.9261 C   0  0  0  0  0  0  0  0  0  0  0  0
   23.2795   -7.6853  -17.4587 C   0  0  0  0  0  0  0  0  0  0  0  0
   23.1548   -8.8921  -16.7574 C   0  0  0  0  0  0  0  0  0  0  0  0
   23.7715   -9.8487  -17.4686 N   0  0  0  0  0  0  0  0  0  0  0  0
   24.2588   -9.2728  -18.5604 C   0  0  0  0  0  0  0  0  0  0  0  0
   23.9613   -7.9697  -18.5521 N   0  0  0  0  0  0  0  0  0  0  0  0
   20.9060   -5.3533  -15.6027 C   0  0  0  0  0  0  0  0  0  0  0  0
   21.5212   -4.8987  -14.6085 O   0  0  0  0  0  0  0  0  0  0  0  0
   19.7821   -4.6722  -16.0248 O   0  0  0  0  0  0  0  0  0  0  0  0
  2  1  1  1
  2  7  1  0
  3  4  1  0
  3  2  1  0
  4  5  1  0
  5  9  1  0
  6  5  2  0
  7 12  1  0
  7  8  2  0
 11 10  1  1
 11 13  1  0
 12 11  1  0
 13 14  2  0
 15 13  1  0
 15 16  1  0
 16 23  1  0
 16 17  1  6
 17 18  1  0
 18 19  2  0
 18 22  1  0
 19 20  1  0
 20 21  1  0
 22 21  2  0
 23 25  1  0
 24 23  2  0
M  END
$$$$
