EAH.pdb
     RDKit          3D

 25 25  0  0  1  0  0  0  0  0999 V2000
   18.0467  -13.4341  -17.8428 N   0  0  0  0  0  0  0  0  0  0  0  0
   18.8126  -13.2762  -16.6312 C   0  0  1  0  0  0  0  0  0  0  0  0
   20.0837  -14.0396  -16.6625 C   0  0  0  0  0  0  0  0  0  0  0  0
   20.0324  -15.4831  -16.9445 C   0  0  0  0  0  0  0  0  0  0  0  0
   19.5263  -16.3942  -15.9407 C   0  0  0  0  0  0  0  0  0  0  0  0
   18.2894  -16.2515  -15.6264 O   0  0  0  0  0  0  0  0  0  0  0  0
   19.1106  -11.8264  -16.4587 C   0  0  0  0  0  0  0  0  0  0  0  0
   19.7641  -11.4157  -15.4354 O   0  0  0  0  0  0  0  0  0  0  0  0
   20.1717  -17.3993  -15.2621 O   0  0  0  0  0  0  0  0  0  0  0  0
   18.6631   -8.5569  -18.3324 C   0  0  0  0  0  0  0  0  0  0  0  0
   18.9203   -9.4122  -17.1377 C   0  0  2  0  0  0  0  0  0  0  0  0
   18.7048  -10.8345  -17.3821 N   0  0  0  0  0  0  0  0  0  0  0  0
   18.0598   -8.9829  -15.9952 C   0  0  0  0  0  0  0  0  0  0  0  0
   17.1027   -9.6872  -15.5823 O   0  0  0  0  0  0  0  0  0  0  0  0
   18.3262   -7.7673  -15.3718 N   0  0  0  0  0  0  0  0  0  0  0  0
   17.5571   -7.2259  -14.2295 C   0  0  1  0  0  0  0  0  0  0  0  0
   17.7239   -8.2249  -13.1419 C   0  0  0  0  0  0  0  0  0  0  0  0
   17.2096   -7.8542  -11.8254 C   0  0  0  0  0  0  0  0  0  0  0  0
   16.5689   -6.6229  -11.6330 C   0  0  0  0  0  0  0  0  0  0  0  0
   16.2000   -6.5461  -10.3450 N   0  0  0  0  0  0  0  0  0  0  0  0
   16.5889   -7.6710   -9.7581 C   0  0  0  0  0  0  0  0  0  0  0  0
   17.1969   -8.4573  -10.6518 N   0  0  0  0  0  0  0  0  0  0  0  0
   18.0949   -5.8931  -13.9194 C   0  0  0  0  0  0  0  0  0  0  0  0
   19.2702   -5.5691  -14.2152 O   0  0  0  0  0  0  0  0  0  0  0  0
   17.3119   -4.9487  -13.2867 O   0  0  0  0  0  0  0  0  0  0  0  0
  2  1  1  6
  2  7  1  0
  3  4  1  0
  3  2  1  0
  4  5  1  0
  5  9  1  0
  6  5  2  0
  7 12  1  0
  7  8  2  0
 11 10  1  6
 11 13  1  0
 12 11  1  0
 13 14  2  0
 15 13  1  0
 15 16  1  0
 16 23  1  0
 16 17  1  1
 17 18  1  0
 18 19  2  0
 18 22  1  0
 19 20  1  0
 20 21  1  0
 22 21  2  0
 23 25  1  0
 24 23  2  0
M  END
$$$$
