EAH.pdb
     RDKit          3D

 25 25  0  0  1  0  0  0  0  0999 V2000
   24.8197  -12.3846  -15.6972 N   0  0  0  0  0  0  0  0  0  0  0  0
   24.6421  -11.7247  -16.9670 C   0  0  1  0  0  0  0  0  0  0  0  0
   24.6697  -12.6740  -18.1062 C   0  0  0  0  0  0  0  0  0  0  0  0
   24.0942  -14.0157  -17.9198 C   0  0  0  0  0  0  0  0  0  0  0  0
   24.0488  -14.9394  -19.0326 C   0  0  0  0  0  0  0  0  0  0  0  0
   22.8890  -15.1442  -19.5444 O   0  0  0  0  0  0  0  0  0  0  0  0
   23.3291  -11.0204  -16.9419 C   0  0  0  0  0  0  0  0  0  0  0  0
   23.0372  -10.1597  -17.8457 O   0  0  0  0  0  0  0  0  0  0  0  0
   25.0657  -15.6414  -19.6329 O   0  0  0  0  0  0  0  0  0  0  0  0
   19.9741  -11.2586  -15.2667 C   0  0  0  0  0  0  0  0  0  0  0  0
   21.0834  -10.5133  -15.9292 C   0  0  2  0  0  0  0  0  0  0  0  0
   22.3458  -11.2449  -15.9500 N   0  0  0  0  0  0  0  0  0  0  0  0
   21.2994   -9.1967  -15.2585 C   0  0  0  0  0  0  0  0  0  0  0  0
   22.3454   -8.9465  -14.6059 O   0  0  0  0  0  0  0  0  0  0  0  0
   20.3126   -8.2203  -15.3592 N   0  0  0  0  0  0  0  0  0  0  0  0
   20.4379   -6.8453  -14.8273 C   0  0  1  0  0  0  0  0  0  0  0  0
   21.6477   -6.2847  -15.4836 C   0  0  0  0  0  0  0  0  0  0  0  0
   21.9162   -4.8654  -15.2632 C   0  0  0  0  0  0  0  0  0  0  0  0
   22.2186   -4.3897  -13.9803 C   0  0  0  0  0  0  0  0  0  0  0  0
   22.4205   -3.0658  -14.0676 N   0  0  0  0  0  0  0  0  0  0  0  0
   22.2534   -2.7270  -15.3398 C   0  0  0  0  0  0  0  0  0  0  0  0
   21.9495   -3.8126  -16.0580 N   0  0  0  0  0  0  0  0  0  0  0  0
   19.1910   -6.1303  -15.1370 C   0  0  0  0  0  0  0  0  0  0  0  0
   18.6021   -6.2734  -16.2354 O   0  0  0  0  0  0  0  0  0  0  0  0
   18.6258   -5.2711  -14.2163 O   0  0  0  0  0  0  0  0  0  0  0  0
  2  1  1  1
  2  7  1  0
  3  4  1  0
  3  2  1  0
  4  5  1  0
  5  9  1  0
  6  5  2  0
  7 12  1  0
  7  8  2  0
 11 10  1  1
 11 13  1  0
 12 11  1  0
 13 14  2  0
 15 13  1  0
 15 16  1  0
 16 23  1  0
 16 17  1  6
 17 18  1  0
 18 19  2  0
 18 22  1  0
 19 20  1  0
 20 21  1  0
 22 21  2  0
 23 25  1  0
 24 23  2  0
M  END
$$$$
