EAH.pdb
     RDKit          3D

 25 25  0  0  1  0  0  0  0  0999 V2000
   27.0133  -19.3915  -18.3315 N   0  0  0  0  0  0  0  0  0  0  0  0
   27.3381  -18.5767  -17.1870 C   0  0  1  0  0  0  0  0  0  0  0  0
   26.4084  -17.4325  -17.0254 C   0  0  0  0  0  0  0  0  0  0  0  0
   25.1674  -17.4155  -17.8163 C   0  0  0  0  0  0  0  0  0  0  0  0
   24.0924  -18.3263  -17.4871 C   0  0  0  0  0  0  0  0  0  0  0  0
   23.6857  -18.2969  -16.2694 O   0  0  0  0  0  0  0  0  0  0  0  0
   27.2765  -19.4392  -15.9734 C   0  0  0  0  0  0  0  0  0  0  0  0
   26.2906  -20.2385  -15.7950 O   0  0  0  0  0  0  0  0  0  0  0  0
   23.4323  -19.2299  -18.2840 O   0  0  0  0  0  0  0  0  0  0  0  0
   29.3549  -20.1806  -12.8783 C   0  0  0  0  0  0  0  0  0  0  0  0
   28.1486  -20.2383  -13.7538 C   0  0  2  0  0  0  0  0  0  0  0  0
   28.2694  -19.4347  -14.9657 N   0  0  0  0  0  0  0  0  0  0  0  0
   26.9371  -19.7970  -13.0006 C   0  0  0  0  0  0  0  0  0  0  0  0
   26.4951  -18.6220  -13.0816 O   0  0  0  0  0  0  0  0  0  0  0  0
   26.2805  -20.7142  -12.1851 N   0  0  0  0  0  0  0  0  0  0  0  0
   25.0963  -20.3996  -11.3556 C   0  0  1  0  0  0  0  0  0  0  0  0
   23.9314  -20.8713  -12.1487 C   0  0  0  0  0  0  0  0  0  0  0  0
   22.6243  -20.8042  -11.4991 C   0  0  0  0  0  0  0  0  0  0  0  0
   22.5044  -20.3159  -10.1911 C   0  0  0  0  0  0  0  0  0  0  0  0
   21.2074  -20.3634   -9.8497 N   0  0  0  0  0  0  0  0  0  0  0  0
   20.5462  -20.8563  -10.8894 C   0  0  0  0  0  0  0  0  0  0  0  0
   21.4018  -21.1212  -11.8817 N   0  0  0  0  0  0  0  0  0  0  0  0
   25.2647  -21.0754  -10.0607 C   0  0  0  0  0  0  0  0  0  0  0  0
   24.9949  -20.5043   -8.9769 O   0  0  0  0  0  0  0  0  0  0  0  0
   25.7295  -22.3737  -10.0003 O   0  0  0  0  0  0  0  0  0  0  0  0
  2  1  1  6
  2  7  1  0
  3  4  1  0
  3  2  1  0
  4  5  1  0
  5  9  1  0
  6  5  2  0
  7 12  1  0
  7  8  2  0
 11 10  1  1
 11 13  1  0
 12 11  1  0
 13 14  2  0
 15 13  1  0
 15 16  1  0
 16 23  1  0
 16 17  1  6
 17 18  1  0
 18 19  2  0
 18 22  1  0
 19 20  1  0
 20 21  1  0
 22 21  2  0
 23 25  1  0
 24 23  2  0
M  END
$$$$
