EAH.pdb
     RDKit          3D

 25 25  0  0  1  0  0  0  0  0999 V2000
   22.7939  -14.8167  -19.8965 N   0  0  0  0  0  0  0  0  0  0  0  0
   23.5452  -15.0099  -18.6809 C   0  0  1  0  0  0  0  0  0  0  0  0
   23.3178  -13.9237  -17.6970 C   0  0  0  0  0  0  0  0  0  0  0  0
   21.9332  -13.5674  -17.3479 C   0  0  0  0  0  0  0  0  0  0  0  0
   21.6677  -12.3497  -16.6128 C   0  0  0  0  0  0  0  0  0  0  0  0
   20.4444  -12.1543  -16.2745 O   0  0  0  0  0  0  0  0  0  0  0  0
   23.1324  -16.3117  -18.0846 C   0  0  0  0  0  0  0  0  0  0  0  0
   21.9148  -16.7043  -18.1633 O   0  0  0  0  0  0  0  0  0  0  0  0
   22.5312  -11.3570  -16.2173 O   0  0  0  0  0  0  0  0  0  0  0  0
   24.7288  -19.3299  -16.4309 C   0  0  0  0  0  0  0  0  0  0  0  0
   23.5974  -18.4526  -16.8493 C   0  0  2  0  0  0  0  0  0  0  0  0
   24.0268  -17.1760  -17.4108 N   0  0  0  0  0  0  0  0  0  0  0  0
   22.6873  -18.1905  -15.6947 C   0  0  0  0  0  0  0  0  0  0  0  0
   22.8387  -17.1943  -14.9415 O   0  0  0  0  0  0  0  0  0  0  0  0
   21.6429  -19.0764  -15.4466 N   0  0  0  0  0  0  0  0  0  0  0  0
   20.6200  -18.8909  -14.3936 C   0  0  1  0  0  0  0  0  0  0  0  0
   19.9493  -17.6073  -14.7269 C   0  0  0  0  0  0  0  0  0  0  0  0
   18.7709  -17.2576  -13.9368 C   0  0  0  0  0  0  0  0  0  0  0  0
   18.8799  -16.3865  -12.8446 C   0  0  0  0  0  0  0  0  0  0  0  0
   17.6580  -16.2405  -12.3092 N   0  0  0  0  0  0  0  0  0  0  0  0
   16.8241  -16.9818  -13.0277 C   0  0  0  0  0  0  0  0  0  0  0  0
   17.4968  -17.5936  -14.0074 N   0  0  0  0  0  0  0  0  0  0  0  0
   19.7346  -20.0644  -14.4182 C   0  0  0  0  0  0  0  0  0  0  0  0
   19.5678  -20.7453  -15.4585 O   0  0  0  0  0  0  0  0  0  0  0  0
   19.0538  -20.4555  -13.2828 O   0  0  0  0  0  0  0  0  0  0  0  0
  2  1  1  6
  2  7  1  0
  3  4  1  0
  3  2  1  0
  4  5  1  0
  5  9  1  0
  6  5  2  0
  7 12  1  0
  7  8  2  0
 11 10  1  1
 11 13  1  0
 12 11  1  0
 13 14  2  0
 15 13  1  0
 15 16  1  0
 16 23  1  0
 16 17  1  6
 17 18  1  0
 18 19  2  0
 18 22  1  0
 19 20  1  0
 20 21  1  0
 22 21  2  0
 23 25  1  0
 24 23  2  0
M  END
$$$$
