LES.pdb
     RDKit          3D

 24 23  0  0  1  0  0  0  0  0999 V2000
    6.7283  -12.2641   24.7038 C   0  0  0  0  0  0  0  0  0  0  0  0
    6.3389  -12.8885   26.0347 C   0  0  2  0  0  0  0  0  0  0  0  0
    6.6156  -11.9115   27.1637 C   0  0  0  0  0  0  0  0  0  0  0  0
    7.1597  -14.1466   26.2132 C   0  0  0  0  0  0  0  0  0  0  0  0
    6.7646  -15.0984   25.0810 C   0  0  2  0  0  0  0  0  0  0  0  0
    5.4807  -15.6628   25.3777 N   0  0  0  0  0  0  0  0  0  0  0  0
    7.8147  -16.1358   24.8688 C   0  0  0  0  0  0  0  0  0  0  0  0
    7.8618  -17.1035   25.6468 O   0  0  0  0  0  0  0  0  0  0  0  0
    8.7273  -16.0030   23.8000 N   0  0  0  0  0  0  0  0  0  0  0  0
    9.7028  -17.0851   23.4798 C   0  0  1  0  0  0  0  0  0  0  0  0
   10.4325  -16.6508   22.2231 C   0  0  0  0  0  0  0  0  0  0  0  0
   11.4881  -17.6498   21.8659 C   0  0  0  0  0  0  0  0  0  0  0  0
   11.4284  -17.9349   20.3953 C   0  0  0  0  0  0  0  0  0  0  0  0
   10.9150  -17.1165   19.6108 O   0  0  0  0  0  0  0  0  0  0  0  0
   10.6260  -17.1746   24.6180 C   0  0  0  0  0  0  0  0  0  0  0  0
   11.1530  -16.0935   25.0563 O   0  0  0  0  0  0  0  0  0  0  0  0
   11.9505  -19.1157   19.9293 O   0  0  0  0  0  0  0  0  0  0  0  0
   10.3862  -18.6689   27.8978 O   0  0  0  0  0  0  0  0  0  0  0  0
   11.5740  -19.2190   27.4596 C   0  0  0  0  0  0  0  0  0  0  0  0
   12.0825  -18.3519   26.3020 C   0  0  2  0  0  0  0  0  0  0  0  0
   11.0053  -18.3477   25.3058 N   0  0  0  0  0  0  0  0  0  0  0  0
   13.3097  -18.9541   25.7763 C   0  0  0  0  0  0  0  0  0  0  0  0
   14.4475  -19.0720   26.5473 O   0  0  0  0  0  0  0  0  0  0  0  0
   13.3620  -19.3833   24.6005 O   0  0  0  0  0  0  0  0  0  0  0  0
  2  1  1  6
  2  3  1  0
  4  2  1  0
  4  5  1  0
  5  7  1  0
  5  6  1  1
  7  8  2  0
  9 10  1  0
  9  7  1  0
 10 11  1  6
 11 12  1  0
 12 13  1  0
 13 14  2  0
 13 17  1  0
 15 16  2  0
 15 10  1  0
 18 19  1  0
 20 19  1  1
 20 22  1  0
 20 21  1  0
 21 15  1  0
 22 23  1  0
 24 22  2  0
M  END
$$$$
