LES.pdb
     RDKit          3D

 24 23  0  0  1  0  0  0  0  0999 V2000
    9.2863  -12.3025   19.4424 C   0  0  0  0  0  0  0  0  0  0  0  0
    8.0800  -13.2094   19.6298 C   0  0  2  0  0  0  0  0  0  0  0  0
    6.9395  -12.4279   20.2576 C   0  0  0  0  0  0  0  0  0  0  0  0
    8.4955  -14.3514   20.5309 C   0  0  0  0  0  0  0  0  0  0  0  0
    9.6496  -15.0724   19.8296 C   0  0  2  0  0  0  0  0  0  0  0  0
    9.2570  -15.3754   18.4846 N   0  0  0  0  0  0  0  0  0  0  0  0
   10.0627  -16.2835   20.5958 C   0  0  0  0  0  0  0  0  0  0  0  0
    9.1875  -16.9495   21.1741 O   0  0  0  0  0  0  0  0  0  0  0  0
   11.4251  -16.6489   20.6507 N   0  0  0  0  0  0  0  0  0  0  0  0
   11.8553  -17.9289   21.2846 C   0  0  1  0  0  0  0  0  0  0  0  0
   13.2585  -18.2095   20.7818 C   0  0  0  0  0  0  0  0  0  0  0  0
   13.7423  -19.5255   21.3050 C   0  0  0  0  0  0  0  0  0  0  0  0
   15.1021  -19.8161   20.7445 C   0  0  0  0  0  0  0  0  0  0  0  0
   16.0981  -19.8646   21.4891 O   0  0  0  0  0  0  0  0  0  0  0  0
   11.8529  -17.7056   22.7357 C   0  0  0  0  0  0  0  0  0  0  0  0
   12.3016  -16.5910   23.1773 O   0  0  0  0  0  0  0  0  0  0  0  0
   15.2289  -20.0277   19.3942 O   0  0  0  0  0  0  0  0  0  0  0  0
   10.3108  -18.7903   27.1487 O   0  0  0  0  0  0  0  0  0  0  0  0
   10.2317  -18.9721   25.7827 C   0  0  0  0  0  0  0  0  0  0  0  0
   11.4434  -18.2731   25.1551 C   0  0  2  0  0  0  0  0  0  0  0  0
   11.3954  -18.6018   23.7260 N   0  0  0  0  0  0  0  0  0  0  0  0
   12.6571  -18.7878   25.7931 C   0  0  0  0  0  0  0  0  0  0  0  0
   13.0454  -18.3761   27.0512 O   0  0  0  0  0  0  0  0  0  0  0  0
   13.3843  -19.6244   25.2093 O   0  0  0  0  0  0  0  0  0  0  0  0
  2  1  1  1
  2  3  1  0
  4  2  1  0
  4  5  1  0
  5  7  1  0
  5  6  1  6
  7  8  2  0
  9 10  1  0
  9  7  1  0
 10 11  1  6
 11 12  1  0
 12 13  1  0
 13 14  2  0
 13 17  1  0
 15 16  2  0
 15 10  1  0
 18 19  1  0
 20 19  1  1
 20 22  1  0
 20 21  1  0
 21 15  1  0
 22 23  1  0
 24 22  2  0
M  END
$$$$
