LES.pdb
     RDKit          3D

 24 23  0  0  1  0  0  0  0  0999 V2000
    8.2201  -13.2107   18.9631 C   0  0  0  0  0  0  0  0  0  0  0  0
    7.6483  -13.5375   20.3339 C   0  0  2  0  0  0  0  0  0  0  0  0
    7.6006  -12.2815   21.1859 C   0  0  0  0  0  0  0  0  0  0  0  0
    8.5447  -14.5748   20.9737 C   0  0  0  0  0  0  0  0  0  0  0  0
    8.3411  -15.8774   20.1956 C   0  0  2  0  0  0  0  0  0  0  0  0
    6.9443  -16.1997   20.1899 N   0  0  0  0  0  0  0  0  0  0  0  0
    9.1822  -16.9710   20.7620 C   0  0  0  0  0  0  0  0  0  0  0  0
    8.6644  -17.7659   21.5645 O   0  0  0  0  0  0  0  0  0  0  0  0
   10.5370  -17.0838   20.3815 N   0  0  0  0  0  0  0  0  0  0  0  0
   11.3994  -18.1775   20.9155 C   0  0  1  0  0  0  0  0  0  0  0  0
   12.6847  -18.1458   20.1108 C   0  0  0  0  0  0  0  0  0  0  0  0
   12.4551  -18.7150   18.7458 C   0  0  0  0  0  0  0  0  0  0  0  0
   13.7311  -18.6595   17.9607 C   0  0  0  0  0  0  0  0  0  0  0  0
   14.2755  -19.7044   17.5603 O   0  0  0  0  0  0  0  0  0  0  0  0
   11.6564  -17.8646   22.3268 C   0  0  0  0  0  0  0  0  0  0  0  0
   11.9009  -16.6483   22.6423 O   0  0  0  0  0  0  0  0  0  0  0  0
   14.2884  -17.4343   17.6912 O   0  0  0  0  0  0  0  0  0  0  0  0
   10.0378  -18.4876   26.6016 O   0  0  0  0  0  0  0  0  0  0  0  0
   10.1480  -18.7876   25.2588 C   0  0  0  0  0  0  0  0  0  0  0  0
   11.5379  -18.3323   24.7987 C   0  0  2  0  0  0  0  0  0  0  0  0
   11.6599  -18.7756   23.4053 N   0  0  0  0  0  0  0  0  0  0  0  0
   12.5405  -18.9611   25.6612 C   0  0  0  0  0  0  0  0  0  0  0  0
   12.6958  -18.5917   26.9813 O   0  0  0  0  0  0  0  0  0  0  0  0
   13.2931  -19.8608   25.2212 O   0  0  0  0  0  0  0  0  0  0  0  0
  2  1  1  6
  2  3  1  0
  4  2  1  0
  4  5  1  0
  5  7  1  0
  5  6  1  1
  7  8  2  0
  9 10  1  0
  9  7  1  0
 10 11  1  6
 11 12  1  0
 12 13  1  0
 13 14  2  0
 13 17  1  0
 15 16  2  0
 15 10  1  0
 18 19  1  0
 20 19  1  1
 20 22  1  0
 20 21  1  0
 21 15  1  0
 22 23  1  0
 24 22  2  0
M  END
$$$$
