LES.pdb
     RDKit          3D

 24 23  0  0  1  0  0  0  0  0999 V2000
    9.7169  -12.8934   19.0730 C   0  0  0  0  0  0  0  0  0  0  0  0
    8.2182  -13.0452   18.8649 C   0  0  2  0  0  0  0  0  0  0  0  0
    7.4832  -11.9140   19.5622 C   0  0  0  0  0  0  0  0  0  0  0  0
    7.8035  -14.3796   19.4446 C   0  0  0  0  0  0  0  0  0  0  0  0
    8.6960  -15.4413   18.7964 C   0  0  2  0  0  0  0  0  0  0  0  0
    7.9681  -16.0724   17.7348 N   0  0  0  0  0  0  0  0  0  0  0  0
    9.1892  -16.4135   19.8140 C   0  0  0  0  0  0  0  0  0  0  0  0
    8.4016  -16.8107   20.6891 O   0  0  0  0  0  0  0  0  0  0  0  0
   10.5272  -16.8612   19.7670 N   0  0  0  0  0  0  0  0  0  0  0  0
   11.0118  -17.9400   20.6762 C   0  0  1  0  0  0  0  0  0  0  0  0
   12.0216  -18.7497   19.8857 C   0  0  0  0  0  0  0  0  0  0  0  0
   11.3191  -19.7221   18.9909 C   0  0  0  0  0  0  0  0  0  0  0  0
   12.3327  -20.5156   18.2224 C   0  0  0  0  0  0  0  0  0  0  0  0
   13.5201  -20.1470   18.1704 O   0  0  0  0  0  0  0  0  0  0  0  0
   11.6511  -17.2762   21.8192 C   0  0  0  0  0  0  0  0  0  0  0  0
   12.2310  -16.1525   21.6198 O   0  0  0  0  0  0  0  0  0  0  0  0
   11.9270  -21.6569   17.5766 O   0  0  0  0  0  0  0  0  0  0  0  0
   12.1355  -16.5919   26.5287 O   0  0  0  0  0  0  0  0  0  0  0  0
   11.5201  -17.2505   25.4832 C   0  0  0  0  0  0  0  0  0  0  0  0
   12.3500  -16.9861   24.2214 C   0  0  2  0  0  0  0  0  0  0  0  0
   11.6963  -17.7458   23.1498 N   0  0  0  0  0  0  0  0  0  0  0  0
   13.7187  -17.4485   24.4616 C   0  0  0  0  0  0  0  0  0  0  0  0
   14.2380  -18.5471   23.8086 O   0  0  0  0  0  0  0  0  0  0  0  0
   14.4641  -16.8543   25.2744 O   0  0  0  0  0  0  0  0  0  0  0  0
  2  1  1  1
  2  3  1  0
  4  2  1  0
  4  5  1  0
  5  7  1  0
  5  6  1  6
  7  8  2  0
  9 10  1  0
  9  7  1  0
 10 11  1  6
 11 12  1  0
 12 13  1  0
 13 14  2  0
 13 17  1  0
 15 16  2  0
 15 10  1  0
 18 19  1  0
 20 19  1  1
 20 22  1  0
 20 21  1  0
 21 15  1  0
 22 23  1  0
 24 22  2  0
M  END
$$$$
