LES.pdb
     RDKit          3D

 24 23  0  0  1  0  0  0  0  0999 V2000
    6.6151  -12.2000   24.5158 C   0  0  0  0  0  0  0  0  0  0  0  0
    6.1050  -12.9020   25.7647 C   0  0  2  0  0  0  0  0  0  0  0  0
    5.9807  -11.9045   26.9029 C   0  0  0  0  0  0  0  0  0  0  0  0
    7.0953  -13.9885   26.1217 C   0  0  0  0  0  0  0  0  0  0  0  0
    7.0539  -15.0163   24.9877 C   0  0  2  0  0  0  0  0  0  0  0  0
    5.7550  -15.6222   24.9594 N   0  0  0  0  0  0  0  0  0  0  0  0
    8.1521  -16.0145   25.1357 C   0  0  0  0  0  0  0  0  0  0  0  0
    8.0426  -16.8960   26.0045 O   0  0  0  0  0  0  0  0  0  0  0  0
    9.2845  -15.9422   24.2960 N   0  0  0  0  0  0  0  0  0  0  0  0
   10.4060  -16.9170   24.4282 C   0  0  1  0  0  0  0  0  0  0  0  0
   11.3663  -16.6273   23.2905 C   0  0  0  0  0  0  0  0  0  0  0  0
   10.8949  -17.2893   22.0339 C   0  0  0  0  0  0  0  0  0  0  0  0
   11.8212  -16.9402   20.9080 C   0  0  0  0  0  0  0  0  0  0  0  0
   11.3813  -16.4435   19.8553 O   0  0  0  0  0  0  0  0  0  0  0  0
   11.0398  -16.6609   25.7276 C   0  0  0  0  0  0  0  0  0  0  0  0
   11.7484  -15.6027   25.8574 O   0  0  0  0  0  0  0  0  0  0  0  0
   13.1646  -17.1786   21.0593 O   0  0  0  0  0  0  0  0  0  0  0  0
   11.0935  -15.7583   30.0442 O   0  0  0  0  0  0  0  0  0  0  0  0
   10.5914  -16.0829   28.8000 C   0  0  0  0  0  0  0  0  0  0  0  0
   11.5666  -17.0751   28.1554 C   0  0  2  0  0  0  0  0  0  0  0  0
   10.9506  -17.4675   26.8829 N   0  0  0  0  0  0  0  0  0  0  0  0
   11.7298  -18.2170   29.0578 C   0  0  0  0  0  0  0  0  0  0  0  0
   11.2240  -19.4629   28.7496 O   0  0  0  0  0  0  0  0  0  0  0  0
   12.3388  -18.0941   30.1456 O   0  0  0  0  0  0  0  0  0  0  0  0
  2  1  1  6
  2  3  1  0
  4  2  1  0
  4  5  1  0
  5  7  1  0
  5  6  1  1
  7  8  2  0
  9 10  1  0
  9  7  1  0
 10 11  1  6
 11 12  1  0
 12 13  1  0
 13 14  2  0
 13 17  1  0
 15 16  2  0
 15 10  1  0
 18 19  1  0
 20 19  1  1
 20 22  1  0
 20 21  1  0
 21 15  1  0
 22 23  1  0
 24 22  2  0
M  END
$$$$
