LES.pdb
     RDKit          3D

 24 23  0  0  1  0  0  0  0  0999 V2000
    9.4908  -13.1098   19.5849 C   0  0  0  0  0  0  0  0  0  0  0  0
    7.9778  -13.2420   19.5074 C   0  0  2  0  0  0  0  0  0  0  0  0
    7.3219  -11.9715   20.0186 C   0  0  0  0  0  0  0  0  0  0  0  0
    7.5725  -14.4242   20.3599 C   0  0  0  0  0  0  0  0  0  0  0  0
    8.2957  -15.6487   19.7928 C   0  0  2  0  0  0  0  0  0  0  0  0
    7.5011  -16.2087   18.7393 N   0  0  0  0  0  0  0  0  0  0  0  0
    8.5987  -16.6330   20.8714 C   0  0  0  0  0  0  0  0  0  0  0  0
    7.6666  -17.3065   21.3421 O   0  0  0  0  0  0  0  0  0  0  0  0
    9.9240  -16.7817   21.3344 N   0  0  0  0  0  0  0  0  0  0  0  0
   10.2784  -17.8304   22.3344 C   0  0  1  0  0  0  0  0  0  0  0  0
   11.7756  -18.0455   22.2223 C   0  0  0  0  0  0  0  0  0  0  0  0
   12.2304  -19.0553   23.2289 C   0  0  0  0  0  0  0  0  0  0  0  0
   13.7037  -19.2854   23.0746 C   0  0  0  0  0  0  0  0  0  0  0  0
   14.5150  -18.3654   23.2844 O   0  0  0  0  0  0  0  0  0  0  0  0
    9.9228  -17.2953   23.6546 C   0  0  0  0  0  0  0  0  0  0  0  0
   10.5206  -16.2387   24.0605 O   0  0  0  0  0  0  0  0  0  0  0  0
   14.1422  -20.5303   22.6974 O   0  0  0  0  0  0  0  0  0  0  0  0
    6.7916  -18.5236   25.6357 O   0  0  0  0  0  0  0  0  0  0  0  0
    7.2434  -17.3155   26.1272 C   0  0  0  0  0  0  0  0  0  0  0  0
    8.7566  -17.2584   25.8866 C   0  0  2  0  0  0  0  0  0  0  0  0
    8.9677  -17.8245   24.5495 N   0  0  0  0  0  0  0  0  0  0  0  0
    9.4211  -18.0488   26.9251 C   0  0  0  0  0  0  0  0  0  0  0  0
    9.3414  -17.7066   28.2591 O   0  0  0  0  0  0  0  0  0  0  0  0
   10.0872  -19.0677   26.6292 O   0  0  0  0  0  0  0  0  0  0  0  0
  2  1  1  1
  2  3  1  0
  4  2  1  0
  4  5  1  0
  5  7  1  0
  5  6  1  6
  7  8  2  0
  9 10  1  0
  9  7  1  0
 10 11  1  1
 11 12  1  0
 12 13  1  0
 13 14  2  0
 13 17  1  0
 15 16  2  0
 15 10  1  0
 18 19  1  0
 20 19  1  1
 20 22  1  0
 20 21  1  0
 21 15  1  0
 22 23  1  0
 24 22  2  0
M  END
$$$$
