LES.pdb
     RDKit          3D

 24 23  0  0  1  0  0  0  0  0999 V2000
    8.5652  -13.5625   19.1479 C   0  0  0  0  0  0  0  0  0  0  0  0
    7.5415  -13.3890   20.2590 C   0  0  2  0  0  0  0  0  0  0  0  0
    7.6175  -11.9780   20.8150 C   0  0  0  0  0  0  0  0  0  0  0  0
    7.8565  -14.3993   21.3401 C   0  0  0  0  0  0  0  0  0  0  0  0
    7.7601  -15.7842   20.6946 C   0  0  2  0  0  0  0  0  0  0  0  0
    6.4207  -16.2724   20.8445 N   0  0  0  0  0  0  0  0  0  0  0  0
    8.7783  -16.7099   21.2695 C   0  0  0  0  0  0  0  0  0  0  0  0
    8.4621  -17.4113   22.2451 O   0  0  0  0  0  0  0  0  0  0  0  0
   10.0695  -16.7733   20.7023 N   0  0  0  0  0  0  0  0  0  0  0  0
   11.0707  -17.7734   21.1740 C   0  0  1  0  0  0  0  0  0  0  0  0
   12.3119  -17.5753   20.3251 C   0  0  0  0  0  0  0  0  0  0  0  0
   13.3799  -18.5395   20.7367 C   0  0  0  0  0  0  0  0  0  0  0  0
   14.5498  -18.4151   19.8075 C   0  0  0  0  0  0  0  0  0  0  0  0
   15.4485  -19.2759   19.8001 O   0  0  0  0  0  0  0  0  0  0  0  0
   11.3449  -17.4670   22.5835 C   0  0  0  0  0  0  0  0  0  0  0  0
   11.9489  -16.3724   22.8585 O   0  0  0  0  0  0  0  0  0  0  0  0
   14.6119  -17.3337   18.9643 O   0  0  0  0  0  0  0  0  0  0  0  0
    9.6338  -19.3119   25.5679 O   0  0  0  0  0  0  0  0  0  0  0  0
   10.2616  -18.1506   25.9712 C   0  0  0  0  0  0  0  0  0  0  0  0
   11.4720  -17.9401   25.0540 C   0  0  2  0  0  0  0  0  0  0  0  0
   11.0051  -18.2608   23.7005 N   0  0  0  0  0  0  0  0  0  0  0  0
   12.5443  -18.8380   25.4885 C   0  0  0  0  0  0  0  0  0  0  0  0
   13.1380  -18.7122   26.7274 O   0  0  0  0  0  0  0  0  0  0  0  0
   12.9572  -19.7544   24.7408 O   0  0  0  0  0  0  0  0  0  0  0  0
  2  1  1  6
  2  3  1  0
  4  2  1  0
  4  5  1  0
  5  7  1  0
  5  6  1  1
  7  8  2  0
  9 10  1  0
  9  7  1  0
 10 11  1  6
 11 12  1  0
 12 13  1  0
 13 14  2  0
 13 17  1  0
 15 16  2  0
 15 10  1  0
 18 19  1  0
 20 19  1  1
 20 22  1  0
 20 21  1  0
 21 15  1  0
 22 23  1  0
 24 22  2  0
M  END
$$$$
