LES.pdb
     RDKit          3D

 24 23  0  0  1  0  0  0  0  0999 V2000
    8.7405  -13.3243   18.5420 C   0  0  0  0  0  0  0  0  0  0  0  0
    7.6700  -13.4396   19.6160 C   0  0  2  0  0  0  0  0  0  0  0  0
    7.3738  -12.0690   20.1986 C   0  0  0  0  0  0  0  0  0  0  0  0
    8.1912  -14.3680   20.6908 C   0  0  0  0  0  0  0  0  0  0  0  0
    8.4060  -15.7331   20.0318 C   0  0  2  0  0  0  0  0  0  0  0  0
    7.1435  -16.2247   19.5634 N   0  0  0  0  0  0  0  0  0  0  0  0
    9.0787  -16.6760   20.9713 C   0  0  0  0  0  0  0  0  0  0  0  0
    8.3748  -17.3690   21.7251 O   0  0  0  0  0  0  0  0  0  0  0  0
   10.4874  -16.7648   20.9884 N   0  0  0  0  0  0  0  0  0  0  0  0
   11.1912  -17.6769   21.9359 C   0  0  1  0  0  0  0  0  0  0  0  0
   12.6323  -17.7558   21.4694 C   0  0  0  0  0  0  0  0  0  0  0  0
   13.4396  -18.5829   22.4201 C   0  0  0  0  0  0  0  0  0  0  0  0
   14.8244  -18.7620   21.8742 C   0  0  0  0  0  0  0  0  0  0  0  0
   15.7042  -17.9071   22.0831 O   0  0  0  0  0  0  0  0  0  0  0  0
   11.1032  -17.0585   23.2646 C   0  0  0  0  0  0  0  0  0  0  0  0
   11.7231  -15.9559   23.4614 O   0  0  0  0  0  0  0  0  0  0  0  0
   15.1045  -19.8869   21.1390 O   0  0  0  0  0  0  0  0  0  0  0  0
    8.2684  -16.2817   24.9287 O   0  0  0  0  0  0  0  0  0  0  0  0
    8.9463  -16.6662   26.0680 C   0  0  0  0  0  0  0  0  0  0  0  0
   10.4149  -16.8753   25.6804 C   0  0  2  0  0  0  0  0  0  0  0  0
   10.3896  -17.5516   24.3786 N   0  0  0  0  0  0  0  0  0  0  0  0
   11.0534  -17.6976   26.7104 C   0  0  0  0  0  0  0  0  0  0  0  0
   11.2048  -17.2487   28.0060 O   0  0  0  0  0  0  0  0  0  0  0  0
   11.4846  -18.8428   26.4421 O   0  0  0  0  0  0  0  0  0  0  0  0
  2  1  1  6
  2  3  1  0
  4  2  1  0
  4  5  1  0
  5  7  1  0
  5  6  1  1
  7  8  2  0
  9 10  1  0
  9  7  1  0
 10 11  1  6
 11 12  1  0
 12 13  1  0
 13 14  2  0
 13 17  1  0
 15 16  2  0
 15 10  1  0
 18 19  1  0
 20 19  1  1
 20 22  1  0
 20 21  1  0
 21 15  1  0
 22 23  1  0
 24 22  2  0
M  END
$$$$
