LES.pdb
     RDKit          3D

 24 23  0  0  1  0  0  0  0  0999 V2000
    6.7432  -12.2769   24.6479 C   0  0  0  0  0  0  0  0  0  0  0  0
    6.4382  -12.9211   25.9912 C   0  0  2  0  0  0  0  0  0  0  0  0
    6.6979  -11.9283   27.1104 C   0  0  0  0  0  0  0  0  0  0  0  0
    7.3364  -14.1294   26.1393 C   0  0  0  0  0  0  0  0  0  0  0  0
    6.9058  -15.1359   25.0690 C   0  0  2  0  0  0  0  0  0  0  0  0
    5.5807  -15.5925   25.3695 N   0  0  0  0  0  0  0  0  0  0  0  0
    7.8895  -16.2518   24.9634 C   0  0  0  0  0  0  0  0  0  0  0  0
    7.7802  -17.2175   25.7377 O   0  0  0  0  0  0  0  0  0  0  0  0
    8.9167  -16.1935   23.9968 N   0  0  0  0  0  0  0  0  0  0  0  0
    9.8895  -17.3130   23.8367 C   0  0  1  0  0  0  0  0  0  0  0  0
   10.7250  -16.9874   22.6135 C   0  0  0  0  0  0  0  0  0  0  0  0
    9.9916  -17.3743   21.3676 C   0  0  0  0  0  0  0  0  0  0  0  0
   10.8110  -16.9998   20.1693 C   0  0  0  0  0  0  0  0  0  0  0  0
   10.2686  -16.5376   19.1491 O   0  0  0  0  0  0  0  0  0  0  0  0
   10.7185  -17.3313   25.0484 C   0  0  0  0  0  0  0  0  0  0  0  0
   11.2386  -16.2302   25.4427 O   0  0  0  0  0  0  0  0  0  0  0  0
   12.1715  -17.1760   20.2177 O   0  0  0  0  0  0  0  0  0  0  0  0
   10.4973  -20.0481   27.7644 O   0  0  0  0  0  0  0  0  0  0  0  0
   11.2022  -18.9391   28.1871 C   0  0  0  0  0  0  0  0  0  0  0  0
   11.9561  -18.3835   26.9731 C   0  0  2  0  0  0  0  0  0  0  0  0
   11.0114  -18.4541   25.8527 N   0  0  0  0  0  0  0  0  0  0  0  0
   13.1396  -19.2148   26.7424 C   0  0  0  0  0  0  0  0  0  0  0  0
   14.1670  -19.2843   27.6603 O   0  0  0  0  0  0  0  0  0  0  0  0
   13.2541  -19.8927   25.6952 O   0  0  0  0  0  0  0  0  0  0  0  0
  2  1  1  6
  2  3  1  0
  4  2  1  0
  4  5  1  0
  5  7  1  0
  5  6  1  1
  7  8  2  0
  9 10  1  0
  9  7  1  0
 10 11  1  6
 11 12  1  0
 12 13  1  0
 13 14  2  0
 13 17  1  0
 15 16  2  0
 15 10  1  0
 18 19  1  0
 20 19  1  1
 20 22  1  0
 20 21  1  0
 21 15  1  0
 22 23  1  0
 24 22  2  0
M  END
$$$$
