LES.pdb
     RDKit          3D

 24 23  0  0  1  0  0  0  0  0999 V2000
    8.8649  -12.9994   18.8314 C   0  0  0  0  0  0  0  0  0  0  0  0
    7.8444  -13.5694   19.8042 C   0  0  2  0  0  0  0  0  0  0  0  0
    7.2688  -12.4550   20.6600 C   0  0  0  0  0  0  0  0  0  0  0  0
    8.5506  -14.5886   20.6709 C   0  0  0  0  0  0  0  0  0  0  0  0
    9.0323  -15.7046   19.7401 C   0  0  2  0  0  0  0  0  0  0  0  0
    7.8927  -16.3148   19.1206 N   0  0  0  0  0  0  0  0  0  0  0  0
    9.8793  -16.6842   20.4799 C   0  0  0  0  0  0  0  0  0  0  0  0
    9.3212  -17.5328   21.1957 O   0  0  0  0  0  0  0  0  0  0  0  0
   11.2845  -16.6319   20.3562 N   0  0  0  0  0  0  0  0  0  0  0  0
   12.1534  -17.6666   20.9883 C   0  0  1  0  0  0  0  0  0  0  0  0
   13.5728  -17.3682   20.5448 C   0  0  0  0  0  0  0  0  0  0  0  0
   14.5112  -18.4032   21.0814 C   0  0  0  0  0  0  0  0  0  0  0  0
   15.7184  -18.4892   20.1965 C   0  0  0  0  0  0  0  0  0  0  0  0
   15.7185  -19.2258   19.1935 O   0  0  0  0  0  0  0  0  0  0  0  0
   12.0136  -17.5082   22.4413 C   0  0  0  0  0  0  0  0  0  0  0  0
   12.3092  -16.3748   22.9578 O   0  0  0  0  0  0  0  0  0  0  0  0
   16.8244  -17.7403   20.5129 O   0  0  0  0  0  0  0  0  0  0  0  0
    9.8817  -19.9053   24.6853 O   0  0  0  0  0  0  0  0  0  0  0  0
   10.1410  -18.6790   25.2635 C   0  0  0  0  0  0  0  0  0  0  0  0
   11.5360  -18.2397   24.8035 C   0  0  2  0  0  0  0  0  0  0  0  0
   11.5739  -18.4878   23.3579 N   0  0  0  0  0  0  0  0  0  0  0  0
   12.5330  -19.0376   25.5205 C   0  0  0  0  0  0  0  0  0  0  0  0
   12.7105  -18.9218   26.8837 O   0  0  0  0  0  0  0  0  0  0  0  0
   13.2601  -19.8558   24.9111 O   0  0  0  0  0  0  0  0  0  0  0  0
  2  1  1  6
  2  3  1  0
  4  2  1  0
  4  5  1  0
  5  7  1  0
  5  6  1  1
  7  8  2  0
  9 10  1  0
  9  7  1  0
 10 11  1  1
 11 12  1  0
 12 13  1  0
 13 14  2  0
 13 17  1  0
 15 16  2  0
 15 10  1  0
 18 19  1  0
 20 19  1  1
 20 22  1  0
 20 21  1  0
 21 15  1  0
 22 23  1  0
 24 22  2  0
M  END
$$$$
