LES.pdb
     RDKit          3D

 24 23  0  0  1  0  0  0  0  0999 V2000
    9.6070  -12.9953   18.6253 C   0  0  0  0  0  0  0  0  0  0  0  0
    8.1796  -13.2444   19.0871 C   0  0  2  0  0  0  0  0  0  0  0  0
    7.5616  -11.9465   19.5763 C   0  0  0  0  0  0  0  0  0  0  0  0
    8.2264  -14.2609   20.2067 C   0  0  0  0  0  0  0  0  0  0  0  0
    8.8317  -15.5390   19.6202 C   0  0  2  0  0  0  0  0  0  0  0  0
    7.9056  -16.1013   18.6816 N   0  0  0  0  0  0  0  0  0  0  0  0
    9.2062  -16.4941   20.7027 C   0  0  0  0  0  0  0  0  0  0  0  0
    8.3003  -17.0422   21.3530 O   0  0  0  0  0  0  0  0  0  0  0  0
   10.5676  -16.7567   20.9675 N   0  0  0  0  0  0  0  0  0  0  0  0
   10.9741  -17.7914   21.9622 C   0  0  1  0  0  0  0  0  0  0  0  0
   12.3360  -18.2976   21.5267 C   0  0  0  0  0  0  0  0  0  0  0  0
   13.2650  -17.1480   21.2925 C   0  0  0  0  0  0  0  0  0  0  0  0
   14.6185  -17.6693   20.9130 C   0  0  0  0  0  0  0  0  0  0  0  0
   15.0126  -18.7738   21.3293 O   0  0  0  0  0  0  0  0  0  0  0  0
   11.0566  -17.1187   23.2646 C   0  0  0  0  0  0  0  0  0  0  0  0
   11.7936  -16.0766   23.3621 O   0  0  0  0  0  0  0  0  0  0  0  0
   15.4158  -16.9056   20.0973 O   0  0  0  0  0  0  0  0  0  0  0  0
    8.3266  -17.2761   25.9198 O   0  0  0  0  0  0  0  0  0  0  0  0
    9.2480  -16.2769   26.1610 C   0  0  0  0  0  0  0  0  0  0  0  0
   10.6207  -16.8026   25.7250 C   0  0  2  0  0  0  0  0  0  0  0  0
   10.3941  -17.4972   24.4526 N   0  0  0  0  0  0  0  0  0  0  0  0
   11.1197  -17.7099   26.7607 C   0  0  0  0  0  0  0  0  0  0  0  0
   11.3542  -17.2794   28.0502 O   0  0  0  0  0  0  0  0  0  0  0  0
   11.3501  -18.9141   26.5031 O   0  0  0  0  0  0  0  0  0  0  0  0
  2  1  1  1
  2  3  1  0
  4  2  1  0
  4  5  1  0
  5  7  1  0
  5  6  1  6
  7  8  2  0
  9 10  1  0
  9  7  1  0
 10 11  1  6
 11 12  1  0
 12 13  1  0
 13 14  2  0
 13 17  1  0
 15 16  2  0
 15 10  1  0
 18 19  1  0
 20 19  1  1
 20 22  1  0
 20 21  1  0
 21 15  1  0
 22 23  1  0
 24 22  2  0
M  END
$$$$
