LES.pdb
     RDKit          3D

 24 23  0  0  1  0  0  0  0  0999 V2000
    9.3717  -12.8728   19.2328 C   0  0  0  0  0  0  0  0  0  0  0  0
    7.9142  -13.2958   19.3301 C   0  0  2  0  0  0  0  0  0  0  0  0
    7.0654  -12.1219   19.7855 C   0  0  0  0  0  0  0  0  0  0  0  0
    7.8269  -14.4284   20.3292 C   0  0  0  0  0  0  0  0  0  0  0  0
    8.6869  -15.5704   19.7812 C   0  0  2  0  0  0  0  0  0  0  0  0
    7.9923  -16.1912   18.6918 N   0  0  0  0  0  0  0  0  0  0  0  0
    9.0409  -16.5344   20.8627 C   0  0  0  0  0  0  0  0  0  0  0  0
    8.2094  -17.3996   21.1850 O   0  0  0  0  0  0  0  0  0  0  0  0
   10.3001  -16.4490   21.4951 N   0  0  0  0  0  0  0  0  0  0  0  0
   10.7245  -17.4585   22.5080 C   0  0  1  0  0  0  0  0  0  0  0  0
   12.2389  -17.4004   22.5675 C   0  0  0  0  0  0  0  0  0  0  0  0
   12.8327  -18.4187   21.6455 C   0  0  0  0  0  0  0  0  0  0  0  0
   14.3093  -18.5110   21.8882 C   0  0  0  0  0  0  0  0  0  0  0  0
   14.7957  -19.4960   22.4729 O   0  0  0  0  0  0  0  0  0  0  0  0
   10.1332  -17.0495   23.7882 C   0  0  0  0  0  0  0  0  0  0  0  0
   10.4915  -15.9274   24.2894 O   0  0  0  0  0  0  0  0  0  0  0  0
   15.1156  -17.4888   21.4535 O   0  0  0  0  0  0  0  0  0  0  0  0
    6.6183  -17.3646   24.7521 O   0  0  0  0  0  0  0  0  0  0  0  0
    7.2344  -17.7342   25.9308 C   0  0  0  0  0  0  0  0  0  0  0  0
    8.6981  -17.2862   25.8444 C   0  0  2  0  0  0  0  0  0  0  0  0
    9.1854  -17.7695   24.5476 N   0  0  0  0  0  0  0  0  0  0  0  0
    9.4327  -17.8849   26.9610 C   0  0  0  0  0  0  0  0  0  0  0  0
    9.1367  -17.5758   28.2725 O   0  0  0  0  0  0  0  0  0  0  0  0
   10.3594  -18.7023   26.7556 O   0  0  0  0  0  0  0  0  0  0  0  0
  2  1  1  1
  2  3  1  0
  4  2  1  0
  4  5  1  0
  5  7  1  0
  5  6  1  6
  7  8  2  0
  9 10  1  0
  9  7  1  0
 10 11  1  1
 11 12  1  0
 12 13  1  0
 13 14  2  0
 13 17  1  0
 15 16  2  0
 15 10  1  0
 18 19  1  0
 20 19  1  1
 20 22  1  0
 20 21  1  0
 21 15  1  0
 22 23  1  0
 24 22  2  0
M  END
$$$$
