LES.pdb
     RDKit          3D

 24 23  0  0  1  0  0  0  0  0999 V2000
    8.7341  -13.1158   18.1006 C   0  0  0  0  0  0  0  0  0  0  0  0
    7.5277  -13.5206   18.9334 C   0  0  2  0  0  0  0  0  0  0  0  0
    6.8747  -12.2862   19.5296 C   0  0  0  0  0  0  0  0  0  0  0  0
    8.0116  -14.4431   20.0305 C   0  0  0  0  0  0  0  0  0  0  0  0
    8.5934  -15.6817   19.3441 C   0  0  2  0  0  0  0  0  0  0  0  0
    7.5385  -16.3701   18.6599 N   0  0  0  0  0  0  0  0  0  0  0  0
    9.3043  -16.5488   20.3274 C   0  0  0  0  0  0  0  0  0  0  0  0
    8.6316  -17.2923   21.0613 O   0  0  0  0  0  0  0  0  0  0  0  0
   10.7132  -16.5111   20.4072 N   0  0  0  0  0  0  0  0  0  0  0  0
   11.4533  -17.3623   21.3833 C   0  0  1  0  0  0  0  0  0  0  0  0
   12.8815  -17.4533   20.8809 C   0  0  0  0  0  0  0  0  0  0  0  0
   13.0956  -18.7477   20.1609 C   0  0  0  0  0  0  0  0  0  0  0  0
   14.3856  -18.6879   19.3993 C   0  0  0  0  0  0  0  0  0  0  0  0
   14.4034  -18.8605   18.1670 O   0  0  0  0  0  0  0  0  0  0  0  0
   11.3957  -16.6718   22.6777 C   0  0  0  0  0  0  0  0  0  0  0  0
   12.1193  -15.6285   22.8399 O   0  0  0  0  0  0  0  0  0  0  0  0
   15.5476  -18.4390   20.0863 O   0  0  0  0  0  0  0  0  0  0  0  0
    8.3963  -16.7909   25.1534 O   0  0  0  0  0  0  0  0  0  0  0  0
    9.2964  -15.7601   25.3342 C   0  0  0  0  0  0  0  0  0  0  0  0
   10.6983  -16.3231   25.0726 C   0  0  2  0  0  0  0  0  0  0  0  0
   10.6083  -17.0339   23.7922 N   0  0  0  0  0  0  0  0  0  0  0  0
   11.0490  -17.2234   26.1732 C   0  0  0  0  0  0  0  0  0  0  0  0
   11.2537  -18.5723   25.9694 O   0  0  0  0  0  0  0  0  0  0  0  0
   11.1742  -16.7905   27.3421 O   0  0  0  0  0  0  0  0  0  0  0  0
  2  1  1  1
  2  3  1  0
  4  2  1  0
  4  5  1  0
  5  7  1  0
  5  6  1  1
  7  8  2  0
  9 10  1  0
  9  7  1  0
 10 11  1  6
 11 12  1  0
 12 13  1  0
 13 14  2  0
 13 17  1  0
 15 16  2  0
 15 10  1  0
 18 19  1  0
 20 19  1  1
 20 22  1  0
 20 21  1  0
 21 15  1  0
 22 23  1  0
 24 22  2  0
M  END
$$$$
