LES.pdb
     RDKit          3D

 24 23  0  0  1  0  0  0  0  0999 V2000
    8.0518  -13.3598   18.3039 C   0  0  0  0  0  0  0  0  0  0  0  0
    7.3418  -13.3770   19.6486 C   0  0  2  0  0  0  0  0  0  0  0  0
    7.2529  -11.9663   20.2033 C   0  0  0  0  0  0  0  0  0  0  0  0
    8.1396  -14.2611   20.5816 C   0  0  0  0  0  0  0  0  0  0  0  0
    8.0202  -15.6910   20.0478 C   0  0  2  0  0  0  0  0  0  0  0  0
    6.6664  -16.1337   20.2089 N   0  0  0  0  0  0  0  0  0  0  0  0
    9.0039  -16.5909   20.7161 C   0  0  0  0  0  0  0  0  0  0  0  0
    8.6610  -17.1821   21.7538 O   0  0  0  0  0  0  0  0  0  0  0  0
   10.2934  -16.7544   20.1652 N   0  0  0  0  0  0  0  0  0  0  0  0
   11.2882  -17.6735   20.7903 C   0  0  1  0  0  0  0  0  0  0  0  0
   12.4665  -17.7465   19.8382 C   0  0  0  0  0  0  0  0  0  0  0  0
   13.5017  -18.6892   20.3668 C   0  0  0  0  0  0  0  0  0  0  0  0
   14.6398  -18.7770   19.3949 C   0  0  0  0  0  0  0  0  0  0  0  0
   15.6160  -19.5134   19.6259 O   0  0  0  0  0  0  0  0  0  0  0  0
   11.6827  -17.0666   22.0676 C   0  0  0  0  0  0  0  0  0  0  0  0
   12.3658  -15.9843   22.0381 O   0  0  0  0  0  0  0  0  0  0  0  0
   14.5857  -18.0298   18.2447 O   0  0  0  0  0  0  0  0  0  0  0  0
    9.6694  -17.3620   25.2797 O   0  0  0  0  0  0  0  0  0  0  0  0
   10.6010  -16.3435   25.2709 C   0  0  0  0  0  0  0  0  0  0  0  0
   11.8578  -16.8763   24.5729 C   0  0  2  0  0  0  0  0  0  0  0  0
   11.3825  -17.5505   23.3595 N   0  0  0  0  0  0  0  0  0  0  0  0
   12.5354  -17.8029   25.4823 C   0  0  0  0  0  0  0  0  0  0  0  0
   12.7203  -19.1312   25.1589 O   0  0  0  0  0  0  0  0  0  0  0  0
   12.9705  -17.4125   26.5903 O   0  0  0  0  0  0  0  0  0  0  0  0
  2  1  1  6
  2  3  1  0
  4  2  1  0
  4  5  1  0
  5  7  1  0
  5  6  1  1
  7  8  2  0
  9 10  1  0
  9  7  1  0
 10 11  1  6
 11 12  1  0
 12 13  1  0
 13 14  2  0
 13 17  1  0
 15 16  2  0
 15 10  1  0
 18 19  1  0
 20 19  1  1
 20 22  1  0
 20 21  1  0
 21 15  1  0
 22 23  1  0
 24 22  2  0
M  END
$$$$
