LWV.pdb
     RDKit          3D

 30 31  0  0  1  0  0  0  0  0999 V2000
    8.2579  -12.4518   19.9717 C   0  0  0  0  0  0  0  0  0  0  0  0
    8.1163  -13.7534   20.7361 C   0  0  1  0  0  0  0  0  0  0  0  0
    6.7588  -14.3167   20.4384 C   0  0  0  0  0  0  0  0  0  0  0  0
    9.2488  -14.6402   20.3647 C   0  0  0  0  0  0  0  0  0  0  0  0
    9.2719  -15.9409   21.1260 C   0  0  2  0  0  0  0  0  0  0  0  0
    8.0183  -16.6395   21.0782 N   0  0  0  0  0  0  0  0  0  0  0  0
    9.5636  -15.6776   22.5720 C   0  0  0  0  0  0  0  0  0  0  0  0
   10.5185  -14.8978   22.9139 O   0  0  0  0  0  0  0  0  0  0  0  0
    8.8128  -16.2652   23.6250 N   0  0  0  0  0  0  0  0  0  0  0  0
    9.0505  -15.8629   25.0373 C   0  0  1  0  0  0  0  0  0  0  0  0
    7.8156  -16.1786   25.8356 C   0  0  0  0  0  0  0  0  0  0  0  0
    6.7136  -15.2164   25.7174 C   0  0  0  0  0  0  0  0  0  0  0  0
    5.3890  -15.4673   25.4310 C   0  0  0  0  0  0  0  0  0  0  0  0
    4.6933  -14.3244   25.3783 N   0  0  0  0  0  0  0  0  0  0  0  0
    5.5376  -13.2944   25.6279 C   0  0  0  0  0  0  0  0  0  0  0  0
    5.3335  -11.9273   25.6917 C   0  0  0  0  0  0  0  0  0  0  0  0
    6.3836  -11.0593   25.9705 C   0  0  0  0  0  0  0  0  0  0  0  0
    7.6234  -11.6020   26.1790 C   0  0  0  0  0  0  0  0  0  0  0  0
    7.8216  -12.9525   26.1152 C   0  0  0  0  0  0  0  0  0  0  0  0
    6.7912  -13.8390   25.8390 C   0  0  0  0  0  0  0  0  0  0  0  0
   10.1938  -16.6384   25.5441 C   0  0  0  0  0  0  0  0  0  0  0  0
   10.5230  -17.6791   24.8758 O   0  0  0  0  0  0  0  0  0  0  0  0
   13.4309  -15.2546   27.3784 C   0  0  0  0  0  0  0  0  0  0  0  0
   12.8875  -16.4831   28.0456 C   0  0  1  0  0  0  0  0  0  0  0  0
   12.0619  -16.1090   29.2339 C   0  0  0  0  0  0  0  0  0  0  0  0
   11.9891  -17.2861   27.0940 C   0  0  2  0  0  0  0  0  0  0  0  0
   10.9621  -16.3557   26.6777 N   0  0  0  0  0  0  0  0  0  0  0  0
   11.4880  -18.5025   27.7378 C   0  0  0  0  0  0  0  0  0  0  0  0
   12.3223  -19.6226   27.9425 O   0  0  0  0  0  0  0  0  0  0  0  0
   10.3147  -18.6345   28.1427 O   0  0  0  0  0  0  0  0  0  0  0  0
  2  1  1  6
  2  3  1  0
  4  2  1  0
  5  6  1  1
  5  4  1  0
  7  5  1  0
  8  7  2  0
  9  7  1  0
 10 21  1  0
 10  9  1  0
 11 12  1  0
 10 11  1  1
 12 20  1  0
 13 12  2  0
 13 14  1  0
 14 15  1  0
 15 16  1  0
 16 17  2  0
 18 17  1  0
 19 18  2  0
 20 15  2  0
 20 19  1  0
 21 27  1  0
 22 21  2  0
 24 23  1  6
 24 25  1  0
 26 24  1  0
 26 28  1  0
 26 27  1  1
 28 30  2  0
 28 29  1  0
M  END
$$$$
