LWV.pdb
     RDKit          3D

 30 31  0  0  1  0  0  0  0  0999 V2000
    7.6824  -12.6611   18.7777 C   0  0  0  0  0  0  0  0  0  0  0  0
    8.2229  -14.0254   19.1584 C   0  0  1  0  0  0  0  0  0  0  0  0
    9.2423  -14.4197   18.1317 C   0  0  0  0  0  0  0  0  0  0  0  0
    8.7418  -13.9524   20.5485 C   0  0  0  0  0  0  0  0  0  0  0  0
    9.2692  -15.2661   21.0660 C   0  0  2  0  0  0  0  0  0  0  0  0
    8.3429  -16.3491   20.8902 N   0  0  0  0  0  0  0  0  0  0  0  0
    9.5360  -15.1620   22.5368 C   0  0  0  0  0  0  0  0  0  0  0  0
   10.2594  -14.2157   23.0037 O   0  0  0  0  0  0  0  0  0  0  0  0
    9.0124  -16.0877   23.4785 N   0  0  0  0  0  0  0  0  0  0  0  0
    9.0857  -15.8039   24.9370 C   0  0  1  0  0  0  0  0  0  0  0  0
    7.8191  -16.2964   25.5812 C   0  0  0  0  0  0  0  0  0  0  0  0
    6.7149  -15.3314   25.6427 C   0  0  0  0  0  0  0  0  0  0  0  0
    5.3693  -15.5615   25.4533 C   0  0  0  0  0  0  0  0  0  0  0  0
    4.6763  -14.4207   25.5596 N   0  0  0  0  0  0  0  0  0  0  0  0
    5.5434  -13.4128   25.8210 C   0  0  0  0  0  0  0  0  0  0  0  0
    5.3514  -12.0569   26.0187 C   0  0  0  0  0  0  0  0  0  0  0  0
    6.4255  -11.2122   26.2772 C   0  0  0  0  0  0  0  0  0  0  0  0
    7.6765  -11.7665   26.3291 C   0  0  0  0  0  0  0  0  0  0  0  0
    7.8628  -13.1060   26.1332 C   0  0  0  0  0  0  0  0  0  0  0  0
    6.8086  -13.9692   25.8739 C   0  0  0  0  0  0  0  0  0  0  0  0
   10.2460  -16.5261   25.4824 C   0  0  0  0  0  0  0  0  0  0  0  0
   10.7168  -17.4783   24.7686 O   0  0  0  0  0  0  0  0  0  0  0  0
   13.1304  -15.0061   27.7891 C   0  0  0  0  0  0  0  0  0  0  0  0
   12.6794  -16.3623   28.2444 C   0  0  1  0  0  0  0  0  0  0  0  0
   11.7005  -16.2364   29.3666 C   0  0  0  0  0  0  0  0  0  0  0  0
   11.9856  -17.1313   27.1110 C   0  0  2  0  0  0  0  0  0  0  0  0
   10.8919  -16.2787   26.6976 N   0  0  0  0  0  0  0  0  0  0  0  0
   11.5857  -18.4713   27.5465 C   0  0  0  0  0  0  0  0  0  0  0  0
   10.2351  -18.7859   27.8096 O   0  0  0  0  0  0  0  0  0  0  0  0
   12.3908  -19.4105   27.7130 O   0  0  0  0  0  0  0  0  0  0  0  0
  2  1  1  6
  2  3  1  0
  4  2  1  0
  5  6  1  1
  5  4  1  0
  7  5  1  0
  8  7  2  0
  9  7  1  0
 10 21  1  0
 10  9  1  0
 11 12  1  0
 10 11  1  1
 12 20  1  0
 13 12  2  0
 13 14  1  0
 14 15  1  0
 15 16  1  0
 16 17  2  0
 18 17  1  0
 19 18  2  0
 20 15  2  0
 20 19  1  0
 21 27  1  0
 22 21  2  0
 24 23  1  6
 24 25  1  0
 26 24  1  0
 26 28  1  0
 26 27  1  1
 28 30  2  0
 28 29  1  0
M  END
$$$$
