LWV.pdb
     RDKit          3D

 30 31  0  0  1  0  0  0  0  0999 V2000
    7.9014  -12.9161   18.1005 C   0  0  0  0  0  0  0  0  0  0  0  0
    8.3735  -14.2315   18.6880 C   0  0  1  0  0  0  0  0  0  0  0  0
    9.3085  -14.8666   17.7025 C   0  0  0  0  0  0  0  0  0  0  0  0
    8.9706  -13.9615   20.0212 C   0  0  0  0  0  0  0  0  0  0  0  0
    9.4326  -15.2039   20.7388 C   0  0  2  0  0  0  0  0  0  0  0  0
    8.5444  -16.3175   20.5577 N   0  0  0  0  0  0  0  0  0  0  0  0
    9.5013  -14.9429   22.2127 C   0  0  0  0  0  0  0  0  0  0  0  0
   10.0795  -13.8945   22.6638 O   0  0  0  0  0  0  0  0  0  0  0  0
    8.9403  -15.8248   23.1746 N   0  0  0  0  0  0  0  0  0  0  0  0
    8.7503  -15.3842   24.5827 C   0  0  1  0  0  0  0  0  0  0  0  0
    7.4653  -15.9737   25.0959 C   0  0  0  0  0  0  0  0  0  0  0  0
    6.4557  -15.0104   25.5507 C   0  0  0  0  0  0  0  0  0  0  0  0
    5.1166  -15.2284   25.7930 C   0  0  0  0  0  0  0  0  0  0  0  0
    4.5138  -14.0924   26.1661 N   0  0  0  0  0  0  0  0  0  0  0  0
    5.4362  -13.0999   26.1798 C   0  0  0  0  0  0  0  0  0  0  0  0
    5.3408  -11.7544   26.4883 C   0  0  0  0  0  0  0  0  0  0  0  0
    6.4555  -10.9252   26.4257 C   0  0  0  0  0  0  0  0  0  0  0  0
    7.6475  -11.4840   26.0491 C   0  0  0  0  0  0  0  0  0  0  0  0
    7.7383  -12.8130   25.7448 C   0  0  0  0  0  0  0  0  0  0  0  0
    6.6419  -13.6608   25.7996 C   0  0  0  0  0  0  0  0  0  0  0  0
    9.8877  -15.8829   25.3719 C   0  0  0  0  0  0  0  0  0  0  0  0
   10.6627  -16.7223   24.7950 O   0  0  0  0  0  0  0  0  0  0  0  0
   11.4482  -13.8867   28.4514 C   0  0  0  0  0  0  0  0  0  0  0  0
   11.5296  -15.3719   28.6449 C   0  0  1  0  0  0  0  0  0  0  0  0
   10.4352  -15.8405   29.5485 C   0  0  0  0  0  0  0  0  0  0  0  0
   11.3793  -16.1193   27.3121 C   0  0  2  0  0  0  0  0  0  0  0  0
   10.2141  -15.5328   26.6858 N   0  0  0  0  0  0  0  0  0  0  0  0
   11.2978  -17.5665   27.5219 C   0  0  0  0  0  0  0  0  0  0  0  0
   12.4582  -18.3490   27.7044 O   0  0  0  0  0  0  0  0  0  0  0  0
   10.2218  -18.1986   27.5538 O   0  0  0  0  0  0  0  0  0  0  0  0
  2  1  1  6
  2  3  1  0
  4  2  1  0
  5  6  1  1
  5  4  1  0
  7  5  1  0
  8  7  2  0
  9  7  1  0
 10 21  1  0
 10  9  1  0
 11 12  1  0
 10 11  1  1
 12 20  1  0
 13 12  2  0
 13 14  1  0
 14 15  1  0
 15 16  1  0
 16 17  2  0
 18 17  1  0
 19 18  2  0
 20 15  2  0
 20 19  1  0
 21 27  1  0
 22 21  2  0
 24 23  1  6
 24 25  1  0
 26 24  1  0
 26 28  1  0
 26 27  1  1
 28 30  2  0
 28 29  1  0
M  END
$$$$
