LWV.pdb
     RDKit          3D

 30 31  0  0  1  0  0  0  0  0999 V2000
    8.7140  -12.5824   18.6428 C   0  0  0  0  0  0  0  0  0  0  0  0
    8.7245  -13.8328   19.4999 C   0  0  1  0  0  0  0  0  0  0  0  0
    7.6230  -14.7297   19.0192 C   0  0  0  0  0  0  0  0  0  0  0  0
   10.0821  -14.4325   19.4367 C   0  0  0  0  0  0  0  0  0  0  0  0
   10.2542  -15.6332   20.3315 C   0  0  2  0  0  0  0  0  0  0  0  0
    9.3492  -16.7018   20.0140 N   0  0  0  0  0  0  0  0  0  0  0  0
    9.9843  -15.2487   21.7544 C   0  0  0  0  0  0  0  0  0  0  0  0
   10.6110  -14.2743   22.2975 O   0  0  0  0  0  0  0  0  0  0  0  0
    9.0371  -15.9283   22.5659 N   0  0  0  0  0  0  0  0  0  0  0  0
    8.6138  -15.3563   23.8723 C   0  0  1  0  0  0  0  0  0  0  0  0
    7.2507  -15.8961   24.2082 C   0  0  0  0  0  0  0  0  0  0  0  0
    6.4601  -15.0965   25.1514 C   0  0  0  0  0  0  0  0  0  0  0  0
    5.3627  -15.4856   25.8889 C   0  0  0  0  0  0  0  0  0  0  0  0
    4.8948  -14.4618   26.6140 N   0  0  0  0  0  0  0  0  0  0  0  0
    5.6685  -13.3754   26.3747 C   0  0  0  0  0  0  0  0  0  0  0  0
    5.6191  -12.0809   26.8609 C   0  0  0  0  0  0  0  0  0  0  0  0
    6.5464  -11.1278   26.4538 C   0  0  0  0  0  0  0  0  0  0  0  0
    7.5074  -11.5129   25.5575 C   0  0  0  0  0  0  0  0  0  0  0  0
    7.5533  -12.7920   25.0792 C   0  0  0  0  0  0  0  0  0  0  0  0
    6.6405  -13.7607   25.4694 C   0  0  0  0  0  0  0  0  0  0  0  0
    9.5902  -15.7764   24.8898 C   0  0  0  0  0  0  0  0  0  0  0  0
   10.3872  -16.7234   24.5641 O   0  0  0  0  0  0  0  0  0  0  0  0
   11.7789  -15.2530   29.2823 C   0  0  0  0  0  0  0  0  0  0  0  0
   10.6565  -14.9467   28.3357 C   0  0  1  0  0  0  0  0  0  0  0  0
   10.6823  -13.5041   27.9460 C   0  0  0  0  0  0  0  0  0  0  0  0
   10.7688  -15.7746   27.0475 C   0  0  2  0  0  0  0  0  0  0  0  0
    9.7425  -15.2465   26.1748 N   0  0  0  0  0  0  0  0  0  0  0  0
   10.6564  -17.2080   27.3268 C   0  0  0  0  0  0  0  0  0  0  0  0
   11.8014  -18.0147   27.5012 O   0  0  0  0  0  0  0  0  0  0  0  0
    9.5658  -17.8066   27.4285 O   0  0  0  0  0  0  0  0  0  0  0  0
  2  1  1  6
  2  3  1  0
  4  2  1  0
  5  6  1  6
  5  4  1  0
  7  5  1  0
  8  7  2  0
  9  7  1  0
 10 21  1  0
 10  9  1  0
 11 12  1  0
 10 11  1  1
 12 20  1  0
 13 12  2  0
 13 14  1  0
 14 15  1  0
 15 16  1  0
 16 17  2  0
 18 17  1  0
 19 18  2  0
 20 15  2  0
 20 19  1  0
 21 27  1  0
 22 21  2  0
 24 23  1  1
 24 25  1  0
 26 24  1  0
 26 28  1  0
 26 27  1  6
 28 30  2  0
 28 29  1  0
M  END
$$$$
