LWV.pdb
     RDKit          3D

 30 31  0  0  1  0  0  0  0  0999 V2000
    7.8959  -13.2964   17.2610 C   0  0  0  0  0  0  0  0  0  0  0  0
    8.6816  -14.4690   17.8144 C   0  0  1  0  0  0  0  0  0  0  0  0
    9.8943  -14.6581   16.9529 C   0  0  0  0  0  0  0  0  0  0  0  0
    8.9756  -14.2019   19.2458 C   0  0  0  0  0  0  0  0  0  0  0  0
    9.7842  -15.2874   19.9089 C   0  0  2  0  0  0  0  0  0  0  0  0
    9.1699  -16.5816   19.8112 N   0  0  0  0  0  0  0  0  0  0  0  0
    9.9317  -14.9899   21.3701 C   0  0  0  0  0  0  0  0  0  0  0  0
   10.5136  -13.9203   21.7631 O   0  0  0  0  0  0  0  0  0  0  0  0
    9.4441  -15.8587   22.3826 N   0  0  0  0  0  0  0  0  0  0  0  0
    8.9486  -15.3104   23.6736 C   0  0  1  0  0  0  0  0  0  0  0  0
    7.4821  -15.6232   23.7912 C   0  0  0  0  0  0  0  0  0  0  0  0
    6.7826  -14.9976   24.9196 C   0  0  0  0  0  0  0  0  0  0  0  0
    6.0478  -15.6089   25.9126 C   0  0  0  0  0  0  0  0  0  0  0  0
    5.5360  -14.6975   26.7494 N   0  0  0  0  0  0  0  0  0  0  0  0
    5.9186  -13.4665   26.3319 C   0  0  0  0  0  0  0  0  0  0  0  0
    5.6667  -12.2015   26.8326 C   0  0  0  0  0  0  0  0  0  0  0  0
    6.1835  -11.0699   26.2110 C   0  0  0  0  0  0  0  0  0  0  0  0
    6.9481  -11.2496   25.0894 C   0  0  0  0  0  0  0  0  0  0  0  0
    7.1949  -12.5002   24.5973 C   0  0  0  0  0  0  0  0  0  0  0  0
    6.6913  -13.6442   25.1986 C   0  0  0  0  0  0  0  0  0  0  0  0
    9.6950  -15.9634   24.7607 C   0  0  0  0  0  0  0  0  0  0  0  0
   10.2517  -17.0820   24.4836 O   0  0  0  0  0  0  0  0  0  0  0  0
   11.2641  -13.8180   27.7496 C   0  0  0  0  0  0  0  0  0  0  0  0
   10.9191  -15.2175   28.1645 C   0  0  1  0  0  0  0  0  0  0  0  0
    9.6063  -15.2407   28.8785 C   0  0  0  0  0  0  0  0  0  0  0  0
   10.7998  -16.1485   26.9493 C   0  0  2  0  0  0  0  0  0  0  0  0
    9.8640  -15.4882   26.0649 N   0  0  0  0  0  0  0  0  0  0  0  0
   10.4092  -17.5009   27.3537 C   0  0  0  0  0  0  0  0  0  0  0  0
   11.3311  -18.3818   27.9593 O   0  0  0  0  0  0  0  0  0  0  0  0
    9.2602  -17.9624   27.1961 O   0  0  0  0  0  0  0  0  0  0  0  0
  2  1  1  6
  2  3  1  0
  4  2  1  0
  5  6  1  1
  5  4  1  0
  7  5  1  0
  8  7  2  0
  9  7  1  0
 10 21  1  0
 10  9  1  0
 11 12  1  0
 10 11  1  1
 12 20  1  0
 13 12  2  0
 13 14  1  0
 14 15  1  0
 15 16  1  0
 16 17  2  0
 18 17  1  0
 19 18  2  0
 20 15  2  0
 20 19  1  0
 21 27  1  0
 22 21  2  0
 24 23  1  6
 24 25  1  0
 26 24  1  0
 26 28  1  0
 26 27  1  6
 28 30  2  0
 28 29  1  0
M  END
$$$$
