LWV.pdb
     RDKit          3D

 30 31  0  0  1  0  0  0  0  0999 V2000
    7.2587  -12.0386   18.9782 C   0  0  0  0  0  0  0  0  0  0  0  0
    7.5040  -13.5210   19.1802 C   0  0  1  0  0  0  0  0  0  0  0  0
    8.1213  -14.0607   17.9247 C   0  0  0  0  0  0  0  0  0  0  0  0
    8.3320  -13.6965   20.4011 C   0  0  0  0  0  0  0  0  0  0  0  0
    8.6789  -15.1337   20.6940 C   0  0  2  0  0  0  0  0  0  0  0  0
    7.5213  -15.9731   20.8253 N   0  0  0  0  0  0  0  0  0  0  0  0
    9.4243  -15.2219   21.9908 C   0  0  0  0  0  0  0  0  0  0  0  0
   10.4603  -14.5004   22.1988 O   0  0  0  0  0  0  0  0  0  0  0  0
    9.0327  -16.0925   23.0427 N   0  0  0  0  0  0  0  0  0  0  0  0
    9.7170  -16.0375   24.3624 C   0  0  1  0  0  0  0  0  0  0  0  0
    8.7204  -16.3972   25.4299 C   0  0  0  0  0  0  0  0  0  0  0  0
    7.6068  -15.4579   25.6086 C   0  0  0  0  0  0  0  0  0  0  0  0
    6.2606  -15.6850   25.4197 C   0  0  0  0  0  0  0  0  0  0  0  0
    5.5570  -14.5701   25.6540 N   0  0  0  0  0  0  0  0  0  0  0  0
    6.4174  -13.5830   26.0024 C   0  0  0  0  0  0  0  0  0  0  0  0
    6.2138  -12.2569   26.3412 C   0  0  0  0  0  0  0  0  0  0  0  0
    7.2830  -11.4292   26.6664 C   0  0  0  0  0  0  0  0  0  0  0  0
    8.5408  -11.9697   26.6399 C   0  0  0  0  0  0  0  0  0  0  0  0
    8.7385  -13.2795   26.3047 C   0  0  0  0  0  0  0  0  0  0  0  0
    7.6894  -14.1253   25.9765 C   0  0  0  0  0  0  0  0  0  0  0  0
   10.8164  -17.0155   24.3451 C   0  0  0  0  0  0  0  0  0  0  0  0
   10.5475  -18.1730   23.8699 O   0  0  0  0  0  0  0  0  0  0  0  0
   15.4974  -18.2047   24.0592 C   0  0  0  0  0  0  0  0  0  0  0  0
   14.3788  -17.2140   24.1894 C   0  0  1  0  0  0  0  0  0  0  0  0
   14.0788  -16.5896   22.8651 C   0  0  0  0  0  0  0  0  0  0  0  0
   13.0904  -17.8862   24.6850 C   0  0  2  0  0  0  0  0  0  0  0  0
   12.1265  -16.8120   24.7894 N   0  0  0  0  0  0  0  0  0  0  0  0
   13.3217  -18.6238   25.9290 C   0  0  0  0  0  0  0  0  0  0  0  0
   13.7885  -19.9558   25.9175 O   0  0  0  0  0  0  0  0  0  0  0  0
   13.1275  -18.1399   27.0631 O   0  0  0  0  0  0  0  0  0  0  0  0
  2  1  1  6
  2  3  1  0
  4  2  1  0
  5  6  1  1
  5  4  1  0
  7  5  1  0
  8  7  2  0
  9  7  1  0
 10 21  1  0
 10  9  1  0
 11 12  1  0
 10 11  1  1
 12 20  1  0
 13 12  2  0
 13 14  1  0
 14 15  1  0
 15 16  1  0
 16 17  2  0
 18 17  1  0
 19 18  2  0
 20 15  2  0
 20 19  1  0
 21 27  1  0
 22 21  2  0
 24 23  1  6
 24 25  1  0
 26 24  1  0
 26 28  1  0
 26 27  1  1
 28 30  2  0
 28 29  1  0
M  END
$$$$
