LWV.pdb
     RDKit          3D

 30 31  0  0  1  0  0  0  0  0999 V2000
    8.5332  -13.3602   17.1666 C   0  0  0  0  0  0  0  0  0  0  0  0
    9.0636  -14.6064   17.8478 C   0  0  1  0  0  0  0  0  0  0  0  0
    9.9434  -15.3264   16.8698 C   0  0  0  0  0  0  0  0  0  0  0  0
    9.7409  -14.2001   19.1060 C   0  0  0  0  0  0  0  0  0  0  0  0
   10.1506  -15.3624   19.9737 C   0  0  2  0  0  0  0  0  0  0  0  0
    9.3490  -16.5336   19.7552 N   0  0  0  0  0  0  0  0  0  0  0  0
    9.9947  -14.9971   21.4185 C   0  0  0  0  0  0  0  0  0  0  0  0
   10.5508  -13.9456   21.8897 O   0  0  0  0  0  0  0  0  0  0  0  0
    9.2363  -15.7796   22.3298 N   0  0  0  0  0  0  0  0  0  0  0  0
    8.7508  -15.1918   23.6072 C   0  0  1  0  0  0  0  0  0  0  0  0
    7.2847  -15.4983   23.7444 C   0  0  0  0  0  0  0  0  0  0  0  0
    6.6232  -14.9440   24.9315 C   0  0  0  0  0  0  0  0  0  0  0  0
    5.8233  -15.5961   25.8450 C   0  0  0  0  0  0  0  0  0  0  0  0
    5.3778  -14.7425   26.7756 N   0  0  0  0  0  0  0  0  0  0  0  0
    5.8707  -13.5105   26.5013 C   0  0  0  0  0  0  0  0  0  0  0  0
    5.7197  -12.2920   27.1393 C   0  0  0  0  0  0  0  0  0  0  0  0
    6.3410  -11.1473   26.6519 C   0  0  0  0  0  0  0  0  0  0  0  0
    7.1053  -11.2666   25.5220 C   0  0  0  0  0  0  0  0  0  0  0  0
    7.2523  -12.4714   24.8942 C   0  0  0  0  0  0  0  0  0  0  0  0
    6.6433  -13.6272   25.3601 C   0  0  0  0  0  0  0  0  0  0  0  0
    9.5038  -15.8132   24.7082 C   0  0  0  0  0  0  0  0  0  0  0  0
   10.0954  -16.9178   24.4474 O   0  0  0  0  0  0  0  0  0  0  0  0
   11.3473  -15.7056   29.2883 C   0  0  0  0  0  0  0  0  0  0  0  0
   10.3264  -15.2825   28.2742 C   0  0  1  0  0  0  0  0  0  0  0  0
   10.3982  -13.8072   28.0466 C   0  0  0  0  0  0  0  0  0  0  0  0
   10.5622  -15.9700   26.9217 C   0  0  2  0  0  0  0  0  0  0  0  0
    9.6451  -15.3215   26.0095 N   0  0  0  0  0  0  0  0  0  0  0  0
   10.3953  -17.4212   27.0283 C   0  0  0  0  0  0  0  0  0  0  0  0
   11.5059  -18.2795   27.1778 O   0  0  0  0  0  0  0  0  0  0  0  0
    9.2854  -17.9914   26.9954 O   0  0  0  0  0  0  0  0  0  0  0  0
  2  1  1  6
  2  3  1  0
  4  2  1  0
  5  6  1  6
  5  4  1  0
  7  5  1  0
  8  7  2  0
  9  7  1  0
 10 21  1  0
 10  9  1  0
 11 12  1  0
 10 11  1  1
 12 20  1  0
 13 12  2  0
 13 14  1  0
 14 15  1  0
 15 16  1  0
 16 17  2  0
 18 17  1  0
 19 18  2  0
 20 15  2  0
 20 19  1  0
 21 27  1  0
 22 21  2  0
 24 23  1  1
 24 25  1  0
 26 24  1  0
 26 28  1  0
 26 27  1  6
 28 30  2  0
 28 29  1  0
M  END
$$$$
