LWV.pdb
     RDKit          3D

 30 31  0  0  1  0  0  0  0  0999 V2000
    7.6284  -13.2050   17.7856 C   0  0  0  0  0  0  0  0  0  0  0  0
    8.3953  -14.3914   18.3358 C   0  0  1  0  0  0  0  0  0  0  0  0
    9.5351  -14.6752   17.4036 C   0  0  0  0  0  0  0  0  0  0  0  0
    8.8002  -14.0810   19.7310 C   0  0  0  0  0  0  0  0  0  0  0  0
    9.5292  -15.2100   20.4135 C   0  0  2  0  0  0  0  0  0  0  0  0
    8.8803  -16.4794   20.2423 N   0  0  0  0  0  0  0  0  0  0  0  0
    9.5934  -14.9545   21.8886 C   0  0  0  0  0  0  0  0  0  0  0  0
   10.1791  -13.9130   22.3459 O   0  0  0  0  0  0  0  0  0  0  0  0
    9.0199  -15.8344   22.8449 N   0  0  0  0  0  0  0  0  0  0  0  0
    8.6660  -15.3449   24.2044 C   0  0  1  0  0  0  0  0  0  0  0  0
    7.3565  -15.9656   24.6070 C   0  0  0  0  0  0  0  0  0  0  0  0
    6.4179  -15.0817   25.3084 C   0  0  0  0  0  0  0  0  0  0  0  0
    5.1290  -15.3547   25.7129 C   0  0  0  0  0  0  0  0  0  0  0  0
    4.5803  -14.2813   26.2957 N   0  0  0  0  0  0  0  0  0  0  0  0
    5.4896  -13.2767   26.2909 C   0  0  0  0  0  0  0  0  0  0  0  0
    5.4326  -11.9768   26.7617 C   0  0  0  0  0  0  0  0  0  0  0  0
    6.5220  -11.1217   26.6358 C   0  0  0  0  0  0  0  0  0  0  0  0
    7.6502  -11.6085   26.0314 C   0  0  0  0  0  0  0  0  0  0  0  0
    7.7032  -12.8927   25.5674 C   0  0  0  0  0  0  0  0  0  0  0  0
    6.6308  -13.7649   25.6809 C   0  0  0  0  0  0  0  0  0  0  0  0
    9.7311  -15.7636   25.1293 C   0  0  0  0  0  0  0  0  0  0  0  0
   10.6230  -16.5517   24.6588 O   0  0  0  0  0  0  0  0  0  0  0  0
   11.9056  -15.7285   29.5648 C   0  0  0  0  0  0  0  0  0  0  0  0
   10.7919  -15.3188   28.6474 C   0  0  1  0  0  0  0  0  0  0  0  0
   10.7695  -13.8332   28.4859 C   0  0  0  0  0  0  0  0  0  0  0  0
   10.9631  -15.9322   27.2503 C   0  0  2  0  0  0  0  0  0  0  0  0
    9.8743  -15.3873   26.4684 N   0  0  0  0  0  0  0  0  0  0  0  0
   10.9982  -17.3951   27.3140 C   0  0  0  0  0  0  0  0  0  0  0  0
    9.8166  -18.1526   27.4638 O   0  0  0  0  0  0  0  0  0  0  0  0
   12.0504  -18.0628   27.2422 O   0  0  0  0  0  0  0  0  0  0  0  0
  2  1  1  6
  2  3  1  0
  4  2  1  0
  5  6  1  1
  5  4  1  0
  7  5  1  0
  8  7  2  0
  9  7  1  0
 10 21  1  0
 10  9  1  0
 11 12  1  0
 10 11  1  1
 12 20  1  0
 13 12  2  0
 13 14  1  0
 14 15  1  0
 15 16  1  0
 16 17  2  0
 18 17  1  0
 19 18  2  0
 20 15  2  0
 20 19  1  0
 21 27  1  0
 22 21  2  0
 24 23  1  1
 24 25  1  0
 26 24  1  0
 26 28  1  0
 26 27  1  6
 28 30  2  0
 28 29  1  0
M  END
$$$$
