LWV.pdb
     RDKit          3D

 30 31  0  0  1  0  0  0  0  0999 V2000
    8.4108  -12.4073   18.9516 C   0  0  0  0  0  0  0  0  0  0  0  0
    8.5777  -13.9019   19.1428 C   0  0  1  0  0  0  0  0  0  0  0  0
    7.8866  -14.5916   18.0046 C   0  0  0  0  0  0  0  0  0  0  0  0
   10.0285  -14.2003   19.2573 C   0  0  0  0  0  0  0  0  0  0  0  0
   10.3302  -15.4203   20.0894 C   0  0  2  0  0  0  0  0  0  0  0  0
    9.4515  -16.5206   19.8082 N   0  0  0  0  0  0  0  0  0  0  0  0
   10.1640  -15.0970   21.5431 C   0  0  0  0  0  0  0  0  0  0  0  0
   10.8214  -14.1385   22.0780 O   0  0  0  0  0  0  0  0  0  0  0  0
    9.2857  -15.8198   22.3939 N   0  0  0  0  0  0  0  0  0  0  0  0
    8.8266  -15.2310   23.6806 C   0  0  1  0  0  0  0  0  0  0  0  0
    7.3877  -15.6144   23.8920 C   0  0  0  0  0  0  0  0  0  0  0  0
    6.7008  -14.9377   24.9985 C   0  0  0  0  0  0  0  0  0  0  0  0
    5.9677  -15.5020   26.0201 C   0  0  0  0  0  0  0  0  0  0  0  0
    5.4689  -14.5531   26.8225 N   0  0  0  0  0  0  0  0  0  0  0  0
    5.8589  -13.3434   26.3529 C   0  0  0  0  0  0  0  0  0  0  0  0
    5.6206  -12.0569   26.8034 C   0  0  0  0  0  0  0  0  0  0  0  0
    6.1425  -10.9558   26.1332 C   0  0  0  0  0  0  0  0  0  0  0  0
    6.8981  -11.1874   25.0150 C   0  0  0  0  0  0  0  0  0  0  0  0
    7.1314  -12.4590   24.5725 C   0  0  0  0  0  0  0  0  0  0  0  0
    6.6224  -13.5733   25.2229 C   0  0  0  0  0  0  0  0  0  0  0  0
    9.6623  -15.7851   24.7575 C   0  0  0  0  0  0  0  0  0  0  0  0
   10.5279  -16.6645   24.4176 O   0  0  0  0  0  0  0  0  0  0  0  0
   11.4862  -15.4996   29.3269 C   0  0  0  0  0  0  0  0  0  0  0  0
   10.4456  -15.1441   28.3069 C   0  0  1  0  0  0  0  0  0  0  0  0
   10.5290  -13.6925   27.9613 C   0  0  0  0  0  0  0  0  0  0  0  0
   10.6399  -15.9396   27.0081 C   0  0  2  0  0  0  0  0  0  0  0  0
    9.6136  -15.4487   26.1138 N   0  0  0  0  0  0  0  0  0  0  0  0
   10.5950  -17.3820   27.2578 C   0  0  0  0  0  0  0  0  0  0  0  0
    9.3920  -18.1109   27.1405 O   0  0  0  0  0  0  0  0  0  0  0  0
   11.5934  -18.0561   27.5849 O   0  0  0  0  0  0  0  0  0  0  0  0
  2  1  1  6
  2  3  1  0
  4  2  1  0
  5  6  1  6
  5  4  1  0
  7  5  1  0
  8  7  2  0
  9  7  1  0
 10 21  1  0
 10  9  1  0
 11 12  1  0
 10 11  1  1
 12 20  1  0
 13 12  2  0
 13 14  1  0
 14 15  1  0
 15 16  1  0
 16 17  2  0
 18 17  1  0
 19 18  2  0
 20 15  2  0
 20 19  1  0
 21 27  1  0
 22 21  2  0
 24 23  1  1
 24 25  1  0
 26 24  1  0
 26 28  1  0
 26 27  1  6
 28 30  2  0
 28 29  1  0
M  END
$$$$
