LWV.pdb
     RDKit          3D

 30 31  0  0  1  0  0  0  0  0999 V2000
    7.8755  -13.0393   17.7941 C   0  0  0  0  0  0  0  0  0  0  0  0
    8.3853  -14.3528   18.3540 C   0  0  1  0  0  0  0  0  0  0  0  0
    8.9448  -15.1523   17.2153 C   0  0  0  0  0  0  0  0  0  0  0  0
    9.3577  -14.0543   19.4366 C   0  0  0  0  0  0  0  0  0  0  0  0
    9.8161  -15.2765   20.1903 C   0  0  2  0  0  0  0  0  0  0  0  0
    8.9778  -16.4202   19.9643 N   0  0  0  0  0  0  0  0  0  0  0  0
    9.7865  -15.0051   21.6636 C   0  0  0  0  0  0  0  0  0  0  0  0
   10.3840  -13.9844   22.1516 O   0  0  0  0  0  0  0  0  0  0  0  0
    9.1076  -15.8467   22.5849 N   0  0  0  0  0  0  0  0  0  0  0  0
    8.6921  -15.3286   23.9160 C   0  0  1  0  0  0  0  0  0  0  0  0
    7.3396  -15.8974   24.2464 C   0  0  0  0  0  0  0  0  0  0  0  0
    6.4963  -15.0759   25.1228 C   0  0  0  0  0  0  0  0  0  0  0  0
    5.3030  -15.4165   25.7225 C   0  0  0  0  0  0  0  0  0  0  0  0
    4.8171  -14.3852   26.4249 N   0  0  0  0  0  0  0  0  0  0  0  0
    5.6740  -13.3422   26.3073 C   0  0  0  0  0  0  0  0  0  0  0  0
    5.6456  -12.0601   26.8270 C   0  0  0  0  0  0  0  0  0  0  0  0
    6.6658  -11.1550   26.5552 C   0  0  0  0  0  0  0  0  0  0  0  0
    7.6968  -11.5745   25.7577 C   0  0  0  0  0  0  0  0  0  0  0  0
    7.7218  -12.8412   25.2459 C   0  0  0  0  0  0  0  0  0  0  0  0
    6.7170  -13.7623   25.5020 C   0  0  0  0  0  0  0  0  0  0  0  0
    9.6850  -15.7737   24.9066 C   0  0  0  0  0  0  0  0  0  0  0  0
   10.4761  -16.7125   24.5447 O   0  0  0  0  0  0  0  0  0  0  0  0
   11.8837  -15.4371   29.3136 C   0  0  0  0  0  0  0  0  0  0  0  0
   10.7852  -15.0545   28.3666 C   0  0  1  0  0  0  0  0  0  0  0  0
   10.8874  -13.6074   28.0074 C   0  0  0  0  0  0  0  0  0  0  0  0
   10.8644  -15.8604   27.0622 C   0  0  2  0  0  0  0  0  0  0  0  0
    9.8587  -15.2757   26.2017 N   0  0  0  0  0  0  0  0  0  0  0  0
   10.6966  -17.2936   27.3132 C   0  0  0  0  0  0  0  0  0  0  0  0
    9.4173  -17.8646   27.4848 O   0  0  0  0  0  0  0  0  0  0  0  0
   11.6500  -18.0955   27.3919 O   0  0  0  0  0  0  0  0  0  0  0  0
  2  1  1  6
  2  3  1  0
  4  2  1  0
  5  6  1  1
  5  4  1  0
  7  5  1  0
  8  7  2  0
  9  7  1  0
 10 21  1  0
 10  9  1  0
 11 12  1  0
 10 11  1  1
 12 20  1  0
 13 12  2  0
 13 14  1  0
 14 15  1  0
 15 16  1  0
 16 17  2  0
 18 17  1  0
 19 18  2  0
 20 15  2  0
 20 19  1  0
 21 27  1  0
 22 21  2  0
 24 23  1  1
 24 25  1  0
 26 24  1  0
 26 28  1  0
 26 27  1  6
 28 30  2  0
 28 29  1  0
M  END
$$$$
