LWV.pdb
     RDKit          3D

 30 31  0  0  1  0  0  0  0  0999 V2000
    8.0415  -13.6708   16.8959 C   0  0  0  0  0  0  0  0  0  0  0  0
    8.7963  -14.7885   17.5885 C   0  0  1  0  0  0  0  0  0  0  0  0
    9.9803  -15.1403   16.7381 C   0  0  0  0  0  0  0  0  0  0  0  0
    9.1342  -14.3426   18.9647 C   0  0  0  0  0  0  0  0  0  0  0  0
    9.8312  -15.3964   19.7867 C   0  0  2  0  0  0  0  0  0  0  0  0
    9.2110  -16.6873   19.6836 N   0  0  0  0  0  0  0  0  0  0  0  0
    9.7955  -15.0159   21.2356 C   0  0  0  0  0  0  0  0  0  0  0  0
   10.3395  -13.9304   21.6391 O   0  0  0  0  0  0  0  0  0  0  0  0
    9.1687  -15.8203   22.2245 N   0  0  0  0  0  0  0  0  0  0  0  0
    8.7038  -15.2191   23.5033 C   0  0  1  0  0  0  0  0  0  0  0  0
    7.2928  -15.6738   23.7569 C   0  0  0  0  0  0  0  0  0  0  0  0
    6.6428  -15.1111   24.9465 C   0  0  0  0  0  0  0  0  0  0  0  0
    5.8815  -15.7639   25.8919 C   0  0  0  0  0  0  0  0  0  0  0  0
    5.4337  -14.9020   26.8137 N   0  0  0  0  0  0  0  0  0  0  0  0
    5.8865  -13.6637   26.5015 C   0  0  0  0  0  0  0  0  0  0  0  0
    5.7163  -12.4357   27.1161 C   0  0  0  0  0  0  0  0  0  0  0  0
    6.2951  -11.2859   26.5900 C   0  0  0  0  0  0  0  0  0  0  0  0
    7.0371  -11.4098   25.4458 C   0  0  0  0  0  0  0  0  0  0  0  0
    7.2030  -12.6239   24.8411 C   0  0  0  0  0  0  0  0  0  0  0  0
    6.6364  -13.7850   25.3458 C   0  0  0  0  0  0  0  0  0  0  0  0
    9.5903  -15.6942   24.5773 C   0  0  0  0  0  0  0  0  0  0  0  0
   10.2714  -16.7503   24.3344 O   0  0  0  0  0  0  0  0  0  0  0  0
    9.3833  -14.5842   28.5951 C   0  0  0  0  0  0  0  0  0  0  0  0
   10.7346  -14.7409   27.9633 C   0  0  1  0  0  0  0  0  0  0  0  0
   11.7128  -15.2854   28.9533 C   0  0  0  0  0  0  0  0  0  0  0  0
   10.6886  -15.7146   26.7769 C   0  0  2  0  0  0  0  0  0  0  0  0
    9.7708  -15.1107   25.8351 N   0  0  0  0  0  0  0  0  0  0  0  0
   10.3192  -17.0634   27.2119 C   0  0  0  0  0  0  0  0  0  0  0  0
    8.9927  -17.5334   27.1023 O   0  0  0  0  0  0  0  0  0  0  0  0
   11.1310  -17.8766   27.6997 O   0  0  0  0  0  0  0  0  0  0  0  0
  2  1  1  6
  2  3  1  0
  4  2  1  0
  5  6  1  1
  5  4  1  0
  7  5  1  0
  8  7  2  0
  9  7  1  0
 10 21  1  0
 10  9  1  0
 11 12  1  0
 10 11  1  1
 12 20  1  0
 13 12  2  0
 13 14  1  0
 14 15  1  0
 15 16  1  0
 16 17  2  0
 18 17  1  0
 19 18  2  0
 20 15  2  0
 20 19  1  0
 21 27  1  0
 22 21  2  0
 24 23  1  1
 24 25  1  0
 26 24  1  0
 26 28  1  0
 26 27  1  6
 28 30  2  0
 28 29  1  0
M  END
$$$$
