LWV.pdb
     RDKit          3D

 30 31  0  0  1  0  0  0  0  0999 V2000
    8.7154  -12.4837   18.4633 C   0  0  0  0  0  0  0  0  0  0  0  0
    8.7725  -13.7010   19.3652 C   0  0  1  0  0  0  0  0  0  0  0  0
    7.6513  -14.6167   18.9741 C   0  0  0  0  0  0  0  0  0  0  0  0
   10.1272  -14.3009   19.2569 C   0  0  0  0  0  0  0  0  0  0  0  0
   10.3341  -15.4916   20.1576 C   0  0  2  0  0  0  0  0  0  0  0  0
    9.4286  -16.5700   19.8762 N   0  0  0  0  0  0  0  0  0  0  0  0
   10.1021  -15.0955   21.5840 C   0  0  0  0  0  0  0  0  0  0  0  0
   10.5087  -13.9641   22.0218 O   0  0  0  0  0  0  0  0  0  0  0  0
    9.4312  -15.9344   22.5135 N   0  0  0  0  0  0  0  0  0  0  0  0
    8.9235  -15.3831   23.7984 C   0  0  1  0  0  0  0  0  0  0  0  0
    7.4825  -15.7858   23.9521 C   0  0  0  0  0  0  0  0  0  0  0  0
    6.7282  -15.0799   24.9945 C   0  0  0  0  0  0  0  0  0  0  0  0
    5.8581  -15.6082   25.9237 C   0  0  0  0  0  0  0  0  0  0  0  0
    5.3394  -14.6390   26.6884 N   0  0  0  0  0  0  0  0  0  0  0  0
    5.8522  -13.4514   26.2852 C   0  0  0  0  0  0  0  0  0  0  0  0
    5.6503  -12.1580   26.7335 C   0  0  0  0  0  0  0  0  0  0  0  0
    6.3082  -11.0849   26.1423 C   0  0  0  0  0  0  0  0  0  0  0  0
    7.1603  -11.3509   25.1040 C   0  0  0  0  0  0  0  0  0  0  0  0
    7.3573  -12.6293   24.6635 C   0  0  0  0  0  0  0  0  0  0  0  0
    6.7135  -13.7163   25.2360 C   0  0  0  0  0  0  0  0  0  0  0  0
    9.7290  -15.9561   24.8884 C   0  0  0  0  0  0  0  0  0  0  0  0
   10.4539  -16.9693   24.5949 O   0  0  0  0  0  0  0  0  0  0  0  0
   11.0366  -13.7684   27.9773 C   0  0  0  0  0  0  0  0  0  0  0  0
   10.7357  -15.1883   28.3556 C   0  0  1  0  0  0  0  0  0  0  0  0
    9.3844  -15.2844   28.9868 C   0  0  0  0  0  0  0  0  0  0  0  0
   10.7368  -16.1077   27.1258 C   0  0  2  0  0  0  0  0  0  0  0  0
    9.7896  -15.5074   26.2113 N   0  0  0  0  0  0  0  0  0  0  0  0
   10.4349  -17.4917   27.4980 C   0  0  0  0  0  0  0  0  0  0  0  0
   11.4029  -18.3153   28.1121 O   0  0  0  0  0  0  0  0  0  0  0  0
    9.3261  -18.0311   27.3040 O   0  0  0  0  0  0  0  0  0  0  0  0
  2  1  1  6
  2  3  1  0
  4  2  1  0
  5  6  1  6
  5  4  1  0
  7  5  1  0
  8  7  2  0
  9  7  1  0
 10 21  1  0
 10  9  1  0
 11 12  1  0
 10 11  1  1
 12 20  1  0
 13 12  2  0
 13 14  1  0
 14 15  1  0
 15 16  1  0
 16 17  2  0
 18 17  1  0
 19 18  2  0
 20 15  2  0
 20 19  1  0
 21 27  1  0
 22 21  2  0
 24 23  1  6
 24 25  1  0
 26 24  1  0
 26 28  1  0
 26 27  1  6
 28 30  2  0
 28 29  1  0
M  END
$$$$
