LWV.pdb
     RDKit          3D

 30 31  0  0  1  0  0  0  0  0999 V2000
    7.2114  -11.9297   19.3038 C   0  0  0  0  0  0  0  0  0  0  0  0
    7.3894  -13.4281   19.4505 C   0  0  1  0  0  0  0  0  0  0  0  0
    7.8937  -13.9618   18.1430 C   0  0  0  0  0  0  0  0  0  0  0  0
    8.2844  -13.6822   20.6086 C   0  0  0  0  0  0  0  0  0  0  0  0
    8.5679  -15.1438   20.8433 C   0  0  2  0  0  0  0  0  0  0  0  0
    7.3742  -15.9319   20.9699 N   0  0  0  0  0  0  0  0  0  0  0  0
    9.3336  -15.3138   22.1201 C   0  0  0  0  0  0  0  0  0  0  0  0
   10.3878  -14.6248   22.3457 O   0  0  0  0  0  0  0  0  0  0  0  0
    8.9422  -16.2296   23.1329 N   0  0  0  0  0  0  0  0  0  0  0  0
    9.6813  -16.2903   24.4224 C   0  0  1  0  0  0  0  0  0  0  0  0
    8.7007  -16.6074   25.5178 C   0  0  0  0  0  0  0  0  0  0  0  0
    7.6337  -15.6216   25.7270 C   0  0  0  0  0  0  0  0  0  0  0  0
    6.2836  -15.7621   25.4883 C   0  0  0  0  0  0  0  0  0  0  0  0
    5.6335  -14.6271   25.7751 N   0  0  0  0  0  0  0  0  0  0  0  0
    6.5343  -13.7126   26.2088 C   0  0  0  0  0  0  0  0  0  0  0  0
    6.3914  -12.4012   26.6266 C   0  0  0  0  0  0  0  0  0  0  0  0
    7.4927  -11.6555   27.0325 C   0  0  0  0  0  0  0  0  0  0  0  0
    8.7204  -12.2614   27.0046 C   0  0  0  0  0  0  0  0  0  0  0  0
    8.8582  -13.5565   26.5914 C   0  0  0  0  0  0  0  0  0  0  0  0
    7.7760  -14.3212   26.1818 C   0  0  0  0  0  0  0  0  0  0  0  0
   10.6884  -17.3582   24.3187 C   0  0  0  0  0  0  0  0  0  0  0  0
   10.3134  -18.4490   23.7641 O   0  0  0  0  0  0  0  0  0  0  0  0
   15.2329  -19.0505   24.1019 C   0  0  0  0  0  0  0  0  0  0  0  0
   14.2253  -17.9449   24.2124 C   0  0  1  0  0  0  0  0  0  0  0  0
   14.0491  -17.2665   22.8924 C   0  0  0  0  0  0  0  0  0  0  0  0
   12.8521  -18.4798   24.6431 C   0  0  2  0  0  0  0  0  0  0  0  0
   12.0146  -17.3055   24.7587 N   0  0  0  0  0  0  0  0  0  0  0  0
   12.9545  -19.2809   25.8650 C   0  0  0  0  0  0  0  0  0  0  0  0
   12.7244  -18.7136   27.1369 O   0  0  0  0  0  0  0  0  0  0  0  0
   13.2456  -20.4947   25.8707 O   0  0  0  0  0  0  0  0  0  0  0  0
  2  1  1  6
  2  3  1  0
  4  2  1  0
  5  6  1  1
  5  4  1  0
  7  5  1  0
  8  7  2  0
  9  7  1  0
 10 21  1  0
 10  9  1  0
 11 12  1  0
 10 11  1  1
 12 20  1  0
 13 12  2  0
 13 14  1  0
 14 15  1  0
 15 16  1  0
 16 17  2  0
 18 17  1  0
 19 18  2  0
 20 15  2  0
 20 19  1  0
 21 27  1  0
 22 21  2  0
 24 23  1  6
 24 25  1  0
 26 24  1  0
 26 28  1  0
 26 27  1  1
 28 30  2  0
 28 29  1  0
M  END
$$$$
