SLE.pdb
     RDKit          3D

 24 23  0  0  1  0  0  0  0  0999 V2000
   26.8620  -19.2047  -17.9007 O   0  0  0  0  0  0  0  0  0  0  0  0
   26.0361  -20.0113  -17.1102 C   0  0  0  0  0  0  0  0  0  0  0  0
   26.8823  -20.9929  -16.2859 C   0  0  2  0  0  0  0  0  0  0  0  0
   27.3664  -22.0606  -17.1025 N   0  0  0  0  0  0  0  0  0  0  0  0
   26.0105  -21.5290  -15.1991 C   0  0  0  0  0  0  0  0  0  0  0  0
   25.2373  -22.4943  -15.3088 O   0  0  0  0  0  0  0  0  0  0  0  0
   25.9496  -20.6820   -9.0343 C   0  0  0  0  0  0  0  0  0  0  0  0
   25.2836  -21.2493  -10.2810 C   0  0  1  0  0  0  0  0  0  0  0  0
   23.8744  -20.5733  -10.2810 C   0  0  0  0  0  0  0  0  0  0  0  0
   25.9527  -20.7700  -11.5302 C   0  0  0  0  0  0  0  0  0  0  0  0
   25.3201  -21.3289  -12.7764 C   0  0  2  0  0  0  0  0  0  0  0  0
   26.0905  -20.8664  -13.9467 N   0  0  0  0  0  0  0  0  0  0  0  0
   23.9843  -20.7535  -12.9577 C   0  0  0  0  0  0  0  0  0  0  0  0
   23.8745  -19.5098  -13.2200 O   0  0  0  0  0  0  0  0  0  0  0  0
   22.7431  -21.4339  -12.8816 N   0  0  0  0  0  0  0  0  0  0  0  0
   21.5066  -20.8571  -13.3924 C   0  0  1  0  0  0  0  0  0  0  0  0
   21.6470  -20.3983  -14.8097 C   0  0  0  0  0  0  0  0  0  0  0  0
   20.3958  -19.8353  -15.4182 C   0  0  0  0  0  0  0  0  0  0  0  0
   20.7853  -18.6672  -16.2588 C   0  0  0  0  0  0  0  0  0  0  0  0
   20.4003  -17.5180  -15.8905 O   0  0  0  0  0  0  0  0  0  0  0  0
   20.3409  -21.7120  -13.2027 C   0  0  0  0  0  0  0  0  0  0  0  0
   20.4476  -22.9548  -13.2329 O   0  0  0  0  0  0  0  0  0  0  0  0
   21.5478  -18.8305  -17.4182 O   0  0  0  0  0  0  0  0  0  0  0  0
   19.0942  -21.1621  -12.9859 O   0  0  0  0  0  0  0  0  0  0  0  0
  2  3  1  0
  2  1  1  0
  3  4  1  6
  5  3  1  0
  5  6  2  0
  8  7  1  1
  8 10  1  0
  8  9  1  0
 11 10  1  1
 11 12  1  0
 11 13  1  0
 12  5  1  0
 13 15  1  0
 14 13  2  0
 15 16  1  0
 16 21  1  0
 17 18  1  0
 16 17  1  6
 19 23  1  0
 19 18  1  0
 20 19  2  0
 21 22  2  0
 21 24  1  0
M  END
$$$$
