SLE.pdb
     RDKit          3D

 24 23  0  0  1  0  0  0  0  0999 V2000
   27.6770  -36.6652   -3.6892 O   0  0  0  0  0  0  0  0  0  0  0  0
   27.8720  -35.5513   -2.8653 C   0  0  0  0  0  0  0  0  0  0  0  0
   26.7480  -34.5269   -3.0808 C   0  0  2  0  0  0  0  0  0  0  0  0
   26.8930  -33.8667   -4.3394 N   0  0  0  0  0  0  0  0  0  0  0  0
   26.8279  -33.5367   -1.9665 C   0  0  0  0  0  0  0  0  0  0  0  0
   27.6639  -32.6233   -1.8758 O   0  0  0  0  0  0  0  0  0  0  0  0
   22.7507  -31.1928    1.9593 C   0  0  0  0  0  0  0  0  0  0  0  0
   24.2121  -31.5376    1.7048 C   0  0  1  0  0  0  0  0  0  0  0  0
   24.6127  -32.3767    2.9611 C   0  0  0  0  0  0  0  0  0  0  0  0
   24.3651  -32.4671    0.5426 C   0  0  0  0  0  0  0  0  0  0  0  0
   25.8066  -32.7343    0.2013 C   0  0  2  0  0  0  0  0  0  0  0  0
   25.8575  -33.6688   -0.9393 N   0  0  0  0  0  0  0  0  0  0  0  0
   26.4538  -33.4535    1.3023 C   0  0  0  0  0  0  0  0  0  0  0  0
   26.4025  -34.7280    1.3264 O   0  0  0  0  0  0  0  0  0  0  0  0
   27.1669  -32.8890    2.3896 N   0  0  0  0  0  0  0  0  0  0  0  0
   28.0668  -33.6756    3.2226 C   0  0  1  0  0  0  0  0  0  0  0  0
   29.0373  -34.4679    2.4044 C   0  0  0  0  0  0  0  0  0  0  0  0
   29.0115  -35.9480    2.6521 C   0  0  0  0  0  0  0  0  0  0  0  0
   30.0979  -36.5638    1.8377 C   0  0  0  0  0  0  0  0  0  0  0  0
   31.2962  -36.3023    2.1545 O   0  0  0  0  0  0  0  0  0  0  0  0
   28.7290  -32.8983    4.2632 C   0  0  0  0  0  0  0  0  0  0  0  0
   28.8041  -31.6553    4.1830 O   0  0  0  0  0  0  0  0  0  0  0  0
   29.8084  -37.4007    0.7569 O   0  0  0  0  0  0  0  0  0  0  0  0
   29.2871  -33.5233    5.3593 O   0  0  0  0  0  0  0  0  0  0  0  0
  2  3  1  0
  2  1  1  0
  3  4  1  6
  5  3  1  0
  5  6  2  0
  8  7  1  1
  8 10  1  0
  8  9  1  0
 11 10  1  1
 11 12  1  0
 11 13  1  0
 12  5  1  0
 13 15  1  0
 14 13  2  0
 15 16  1  0
 16 21  1  0
 17 18  1  0
 16 17  1  6
 19 23  1  0
 19 18  1  0
 20 19  2  0
 21 22  2  0
 21 24  1  0
M  END
$$$$
