SLE.pdb
     RDKit          3D

 24 23  0  0  1  0  0  0  0  0999 V2000
   42.2075   -6.5318   -5.6058 O   0  0  0  0  0  0  0  0  0  0  0  0
   43.3041   -7.2144   -6.1434 C   0  0  0  0  0  0  0  0  0  0  0  0
   42.8938   -8.6337   -6.5633 C   0  0  2  0  0  0  0  0  0  0  0  0
   44.0032   -9.3433   -7.1172 N   0  0  0  0  0  0  0  0  0  0  0  0
   41.8071   -8.5015   -7.5782 C   0  0  0  0  0  0  0  0  0  0  0  0
   41.9717   -8.2031   -8.7721 O   0  0  0  0  0  0  0  0  0  0  0  0
   37.3088  -11.5081   -6.4037 C   0  0  0  0  0  0  0  0  0  0  0  0
   38.4339  -10.8346   -7.1784 C   0  0  1  0  0  0  0  0  0  0  0  0
   38.3371  -11.4814   -8.5979 C   0  0  0  0  0  0  0  0  0  0  0  0
   38.1645   -9.3780   -7.3877 C   0  0  0  0  0  0  0  0  0  0  0  0
   39.3247   -8.6606   -8.0239 C   0  0  2  0  0  0  0  0  0  0  0  0
   40.4865   -8.7431   -7.1181 N   0  0  0  0  0  0  0  0  0  0  0  0
   39.0302   -7.2283   -8.1237 C   0  0  0  0  0  0  0  0  0  0  0  0
   38.8131   -6.5633   -7.0568 O   0  0  0  0  0  0  0  0  0  0  0  0
   38.9586   -6.4508   -9.3068 N   0  0  0  0  0  0  0  0  0  0  0  0
   38.6107   -5.0362   -9.2889 C   0  0  1  0  0  0  0  0  0  0  0  0
   39.8101   -4.1679   -9.0735 C   0  0  0  0  0  0  0  0  0  0  0  0
   39.5208   -2.6967   -9.0069 C   0  0  0  0  0  0  0  0  0  0  0  0
   40.8222   -1.9841   -8.8596 C   0  0  0  0  0  0  0  0  0  0  0  0
   40.8405   -0.7351   -9.0699 O   0  0  0  0  0  0  0  0  0  0  0  0
   37.8238   -4.6133  -10.4411 C   0  0  0  0  0  0  0  0  0  0  0  0
   37.6780   -5.3647  -11.4266 O   0  0  0  0  0  0  0  0  0  0  0  0
   41.9873   -2.6685   -8.5042 O   0  0  0  0  0  0  0  0  0  0  0  0
   37.2239   -3.3711  -10.4645 O   0  0  0  0  0  0  0  0  0  0  0  0
  2  3  1  0
  2  1  1  0
  3  4  1  6
  5  3  1  0
  5  6  2  0
  8  7  1  1
  8 10  1  0
  8  9  1  0
 11 10  1  1
 11 12  1  0
 11 13  1  0
 12  5  1  0
 13 15  1  0
 14 13  2  0
 15 16  1  0
 16 21  1  0
 17 18  1  0
 16 17  1  6
 19 23  1  0
 19 18  1  0
 20 19  2  0
 21 22  2  0
 21 24  1  0
M  END
$$$$
