SLE.pdb
     RDKit          3D

 24 23  0  0  1  0  0  0  0  0999 V2000
   17.2803  -11.1135  -19.1299 O   0  0  0  0  0  0  0  0  0  0  0  0
   17.9595  -10.7819  -17.9524 C   0  0  0  0  0  0  0  0  0  0  0  0
   18.8643   -9.5628  -18.1853 C   0  0  2  0  0  0  0  0  0  0  0  0
   19.9886   -9.9087  -18.9961 N   0  0  0  0  0  0  0  0  0  0  0  0
   19.3209   -9.0846  -16.8469 C   0  0  0  0  0  0  0  0  0  0  0  0
   18.5786   -8.8152  -15.8888 O   0  0  0  0  0  0  0  0  0  0  0  0
   23.8546  -11.4225  -15.0383 C   0  0  0  0  0  0  0  0  0  0  0  0
   22.5046  -10.7191  -14.9930 C   0  0  1  0  0  0  0  0  0  0  0  0
   22.0726  -10.8554  -13.4972 C   0  0  0  0  0  0  0  0  0  0  0  0
   22.6404   -9.2488  -15.2335 C   0  0  0  0  0  0  0  0  0  0  0  0
   21.3095   -8.5608  -15.3782 C   0  0  2  0  0  0  0  0  0  0  0  0
   20.7221   -8.9350  -16.6789 N   0  0  0  0  0  0  0  0  0  0  0  0
   21.5051   -7.1105  -15.4604 C   0  0  0  0  0  0  0  0  0  0  0  0
   22.1483   -6.6258  -16.4498 O   0  0  0  0  0  0  0  0  0  0  0  0
   21.0449   -6.1327  -14.5430 N   0  0  0  0  0  0  0  0  0  0  0  0
   21.3627   -4.7184  -14.6882 C   0  0  1  0  0  0  0  0  0  0  0  0
   20.1376   -3.8904  -14.9174 C   0  0  0  0  0  0  0  0  0  0  0  0
   19.3866   -4.2091  -16.1772 C   0  0  0  0  0  0  0  0  0  0  0  0
   17.9372   -4.2827  -15.8357 C   0  0  0  0  0  0  0  0  0  0  0  0
   17.5958   -4.0233  -14.6437 O   0  0  0  0  0  0  0  0  0  0  0  0
   22.1901   -4.1916  -13.6095 C   0  0  0  0  0  0  0  0  0  0  0  0
   22.4417   -4.8819  -12.6010 O   0  0  0  0  0  0  0  0  0  0  0  0
   16.9828   -4.6292  -16.7956 O   0  0  0  0  0  0  0  0  0  0  0  0
   22.7120   -2.9165  -13.6829 O   0  0  0  0  0  0  0  0  0  0  0  0
  2  3  1  0
  2  1  1  0
  3  4  1  6
  5  3  1  0
  5  6  2  0
  8  7  1  1
  8 10  1  0
  8  9  1  0
 11 10  1  6
 11 12  1  0
 11 13  1  0
 12  5  1  0
 13 15  1  0
 14 13  2  0
 15 16  1  0
 16 21  1  0
 17 18  1  0
 16 17  1  1
 19 23  1  0
 19 18  1  0
 20 19  2  0
 21 22  2  0
 21 24  1  0
M  END
$$$$
