SLE.pdb
     RDKit          3D

 24 23  0  0  1  0  0  0  0  0999 V2000
   14.6044  -13.1804  -11.2484 O   0  0  0  0  0  0  0  0  0  0  0  0
   14.9862  -12.1904  -12.1604 C   0  0  0  0  0  0  0  0  0  0  0  0
   16.1974  -11.4122  -11.6250 C   0  0  2  0  0  0  0  0  0  0  0  0
   16.5554  -11.8614  -10.3168 N   0  0  0  0  0  0  0  0  0  0  0  0
   15.8193   -9.9685  -11.5894 C   0  0  0  0  0  0  0  0  0  0  0  0
   15.3978   -9.3124  -12.5555 O   0  0  0  0  0  0  0  0  0  0  0  0
   13.6479   -5.8776   -8.9030 C   0  0  0  0  0  0  0  0  0  0  0  0
   15.0386   -6.2197   -8.3849 C   0  0  1  0  0  0  0  0  0  0  0  0
   14.8775   -6.1451   -6.8320 C   0  0  0  0  0  0  0  0  0  0  0  0
   15.4020   -7.6411   -8.6775 C   0  0  0  0  0  0  0  0  0  0  0  0
   15.5548   -7.9077  -10.1510 C   0  0  2  0  0  0  0  0  0  0  0  0
   15.9597   -9.3141  -10.3380 N   0  0  0  0  0  0  0  0  0  0  0  0
   16.6716   -7.1234  -10.6857 C   0  0  0  0  0  0  0  0  0  0  0  0
   17.8099   -7.1943  -10.1140 O   0  0  0  0  0  0  0  0  0  0  0  0
   16.6493   -6.2621  -11.8113 N   0  0  0  0  0  0  0  0  0  0  0  0
   17.7974   -5.4506  -12.1933 C   0  0  1  0  0  0  0  0  0  0  0  0
   18.4941   -5.9993  -13.3986 C   0  0  0  0  0  0  0  0  0  0  0  0
   19.2943   -7.2451  -13.1529 C   0  0  0  0  0  0  0  0  0  0  0  0
   19.8620   -7.6852  -14.4594 C   0  0  0  0  0  0  0  0  0  0  0  0
   20.9171   -7.1158  -14.8684 O   0  0  0  0  0  0  0  0  0  0  0  0
   17.4901   -4.0322  -12.3324 C   0  0  0  0  0  0  0  0  0  0  0  0
   16.3086   -3.6382  -12.4083 O   0  0  0  0  0  0  0  0  0  0  0  0
   19.2517   -8.6910  -15.2132 O   0  0  0  0  0  0  0  0  0  0  0  0
   18.5020   -3.0958  -12.3833 O   0  0  0  0  0  0  0  0  0  0  0  0
  2  3  1  0
  2  1  1  0
  3  4  1  1
  5  3  1  0
  5  6  2  0
  8  7  1  6
  8 10  1  0
  8  9  1  0
 11 10  1  1
 11 12  1  0
 11 13  1  0
 12  5  1  0
 13 15  1  0
 14 13  2  0
 15 16  1  0
 16 21  1  0
 17 18  1  0
 16 17  1  6
 19 23  1  0
 19 18  1  0
 20 19  2  0
 21 22  2  0
 21 24  1  0
M  END
$$$$
