SLE.pdb
     RDKit          3D

 24 23  0  0  1  0  0  0  0  0999 V2000
   14.9925   -9.4381  -17.0837 O   0  0  0  0  0  0  0  0  0  0  0  0
   15.6142   -9.7150  -15.8612 C   0  0  0  0  0  0  0  0  0  0  0  0
   17.1260   -9.8975  -16.0624 C   0  0  2  0  0  0  0  0  0  0  0  0
   17.4125  -11.1625  -16.6613 N   0  0  0  0  0  0  0  0  0  0  0  0
   17.7686   -9.8056  -14.7181 C   0  0  0  0  0  0  0  0  0  0  0  0
   18.0319  -10.7690  -13.9805 O   0  0  0  0  0  0  0  0  0  0  0  0
   21.3415   -8.2300  -11.2560 C   0  0  0  0  0  0  0  0  0  0  0  0
   20.6964   -7.0422  -11.9577 C   0  0  1  0  0  0  0  0  0  0  0  0
   21.9179   -6.1754  -12.4044 C   0  0  0  0  0  0  0  0  0  0  0  0
   20.0174   -7.4529  -13.2259 C   0  0  0  0  0  0  0  0  0  0  0  0
   18.7814   -8.2760  -12.9800 C   0  0  2  0  0  0  0  0  0  0  0  0
   18.0983   -8.5006  -14.2684 N   0  0  0  0  0  0  0  0  0  0  0  0
   17.8236   -7.5090  -12.1784 C   0  0  0  0  0  0  0  0  0  0  0  0
   17.2771   -6.4741  -12.6865 O   0  0  0  0  0  0  0  0  0  0  0  0
   17.4032   -7.7857  -10.8533 N   0  0  0  0  0  0  0  0  0  0  0  0
   16.4043   -6.9760  -10.1684 C   0  0  1  0  0  0  0  0  0  0  0  0
   15.3278   -7.8157   -9.5558 C   0  0  0  0  0  0  0  0  0  0  0  0
   14.2914   -8.3154  -10.5194 C   0  0  0  0  0  0  0  0  0  0  0  0
   13.3579   -9.1994   -9.7644 C   0  0  0  0  0  0  0  0  0  0  0  0
   13.6237   -9.4411   -8.5496 O   0  0  0  0  0  0  0  0  0  0  0  0
   16.9724   -6.0282   -9.2173 C   0  0  0  0  0  0  0  0  0  0  0  0
   18.0932   -6.2285   -8.7068 O   0  0  0  0  0  0  0  0  0  0  0  0
   12.2268   -9.7484  -10.3739 O   0  0  0  0  0  0  0  0  0  0  0  0
   16.2801   -4.8889   -8.8622 O   0  0  0  0  0  0  0  0  0  0  0  0
  2  3  1  0
  2  1  1  0
  3  4  1  1
  5  3  1  0
  5  6  2  0
  8  7  1  6
  8 10  1  0
  8  9  1  0
 11 10  1  6
 11 12  1  0
 11 13  1  0
 12  5  1  0
 13 15  1  0
 14 13  2  0
 15 16  1  0
 16 21  1  0
 17 18  1  0
 16 17  1  1
 19 23  1  0
 19 18  1  0
 20 19  2  0
 21 22  2  0
 21 24  1  0
M  END
$$$$
