SLE.pdb
     RDKit          3D

 24 23  0  0  1  0  0  0  0  0999 V2000
   26.8145  -19.2580  -15.5574 O   0  0  0  0  0  0  0  0  0  0  0  0
   27.8021  -19.4066  -14.5776 C   0  0  0  0  0  0  0  0  0  0  0  0
   27.9827  -20.8906  -14.2249 C   0  0  2  0  0  0  0  0  0  0  0  0
   28.0964  -21.6862  -15.4061 N   0  0  0  0  0  0  0  0  0  0  0  0
   26.7878  -21.3092  -13.4339 C   0  0  0  0  0  0  0  0  0  0  0  0
   26.0421  -22.2629  -13.7094 O   0  0  0  0  0  0  0  0  0  0  0  0
   26.5887  -19.8133   -7.9063 C   0  0  0  0  0  0  0  0  0  0  0  0
   26.3802  -20.7019   -9.1255 C   0  0  1  0  0  0  0  0  0  0  0  0
   25.5655  -21.9102   -8.5608 C   0  0  0  0  0  0  0  0  0  0  0  0
   25.4827  -20.0551  -10.1325 C   0  0  0  0  0  0  0  0  0  0  0  0
   25.3590  -20.8596  -11.3986 C   0  0  2  0  0  0  0  0  0  0  0  0
   26.5016  -20.5405  -12.2758 N   0  0  0  0  0  0  0  0  0  0  0  0
   24.1783  -20.4256  -12.1509 C   0  0  0  0  0  0  0  0  0  0  0  0
   24.2549  -19.3794  -12.8771 O   0  0  0  0  0  0  0  0  0  0  0  0
   22.9066  -21.0511  -12.1811 N   0  0  0  0  0  0  0  0  0  0  0  0
   21.8248  -20.5747  -13.0327 C   0  0  1  0  0  0  0  0  0  0  0  0
   21.6848  -21.3997  -14.2732 C   0  0  0  0  0  0  0  0  0  0  0  0
   22.4077  -20.8626  -15.4738 C   0  0  0  0  0  0  0  0  0  0  0  0
   21.4434  -20.8364  -16.6105 C   0  0  0  0  0  0  0  0  0  0  0  0
   20.8051  -21.8993  -16.8702 O   0  0  0  0  0  0  0  0  0  0  0  0
   20.5567  -20.4140  -12.3316 C   0  0  0  0  0  0  0  0  0  0  0  0
   20.4389  -20.7539  -11.1368 O   0  0  0  0  0  0  0  0  0  0  0  0
   21.2488  -19.6796  -17.3697 O   0  0  0  0  0  0  0  0  0  0  0  0
   19.4595  -19.8819  -12.9771 O   0  0  0  0  0  0  0  0  0  0  0  0
  2  3  1  0
  2  1  1  0
  3  4  1  6
  5  3  1  0
  5  6  2  0
  8  7  1  1
  8 10  1  0
  8  9  1  0
 11 10  1  1
 11 12  1  0
 11 13  1  0
 12  5  1  0
 13 15  1  0
 14 13  2  0
 15 16  1  0
 16 21  1  0
 17 18  1  0
 16 17  1  6
 19 23  1  0
 19 18  1  0
 20 19  2  0
 21 22  2  0
 21 24  1  0
M  END
$$$$
