SLE.pdb
     RDKit          3D

 24 23  0  0  1  0  0  0  0  0999 V2000
   19.7482  -10.2564  -20.3206 O   0  0  0  0  0  0  0  0  0  0  0  0
   20.1625   -9.9276  -19.0253 C   0  0  0  0  0  0  0  0  0  0  0  0
   20.6006  -11.1912  -18.2699 C   0  0  2  0  0  0  0  0  0  0  0  0
   19.4933  -12.0683  -18.0563 N   0  0  0  0  0  0  0  0  0  0  0  0
   21.1715  -10.7530  -16.9619 C   0  0  0  0  0  0  0  0  0  0  0  0
   20.5331  -10.6321  -15.9039 O   0  0  0  0  0  0  0  0  0  0  0  0
   26.1500  -12.4822  -15.7201 C   0  0  0  0  0  0  0  0  0  0  0  0
   24.7222  -11.9711  -15.5799 C   0  0  1  0  0  0  0  0  0  0  0  0
   24.3798  -12.2525  -14.0811 C   0  0  0  0  0  0  0  0  0  0  0  0
   24.6514  -10.4843  -15.7298 C   0  0  0  0  0  0  0  0  0  0  0  0
   23.2369   -9.9699  -15.7343 C   0  0  2  0  0  0  0  0  0  0  0  0
   22.5596  -10.4579  -16.9509 N   0  0  0  0  0  0  0  0  0  0  0  0
   23.2383   -8.5103  -15.8679 C   0  0  0  0  0  0  0  0  0  0  0  0
   23.5808   -7.9891  -16.9809 O   0  0  0  0  0  0  0  0  0  0  0  0
   22.8860   -7.5609  -14.8760 N   0  0  0  0  0  0  0  0  0  0  0  0
   22.7586   -6.1396  -15.1692 C   0  0  1  0  0  0  0  0  0  0  0  0
   21.8256   -5.8854  -16.3111 C   0  0  0  0  0  0  0  0  0  0  0  0
   20.3757   -6.1275  -16.0079 C   0  0  0  0  0  0  0  0  0  0  0  0
   19.5827   -5.6653  -17.1827 C   0  0  0  0  0  0  0  0  0  0  0  0
   19.2460   -4.4449  -17.2268 O   0  0  0  0  0  0  0  0  0  0  0  0
   22.4343   -5.3288  -14.0016 C   0  0  0  0  0  0  0  0  0  0  0  0
   22.5134   -4.0843  -14.0452 O   0  0  0  0  0  0  0  0  0  0  0  0
   19.2177   -6.5471  -18.2033 O   0  0  0  0  0  0  0  0  0  0  0  0
   22.0330   -5.9233  -12.8230 O   0  0  0  0  0  0  0  0  0  0  0  0
  2  3  1  0
  2  1  1  0
  3  4  1  1
  5  3  1  0
  5  6  2  0
  8  7  1  1
  8 10  1  0
  8  9  1  0
 11 10  1  6
 11 12  1  0
 11 13  1  0
 12  5  1  0
 13 15  1  0
 14 13  2  0
 15 16  1  0
 16 21  1  0
 17 18  1  0
 16 17  1  6
 19 23  1  0
 19 18  1  0
 20 19  2  0
 21 22  2  0
 21 24  1  0
M  END
$$$$
