SLE.pdb
     RDKit          3D

 24 23  0  0  1  0  0  0  0  0999 V2000
   13.6518   -9.7872  -12.2723 O   0  0  0  0  0  0  0  0  0  0  0  0
   14.8908   -9.1656  -12.4621 C   0  0  0  0  0  0  0  0  0  0  0  0
   15.8806   -9.6086  -11.3743 C   0  0  2  0  0  0  0  0  0  0  0  0
   15.3772   -9.3059  -10.0719 N   0  0  0  0  0  0  0  0  0  0  0  0
   17.1617   -8.8809  -11.6143 C   0  0  0  0  0  0  0  0  0  0  0  0
   17.4948   -7.8148  -11.0720 O   0  0  0  0  0  0  0  0  0  0  0  0
   22.4259   -8.7443  -13.0074 C   0  0  0  0  0  0  0  0  0  0  0  0
   21.4825   -9.2339  -14.0982 C   0  0  1  0  0  0  0  0  0  0  0  0
   22.2611  -10.4240  -14.7464 C   0  0  0  0  0  0  0  0  0  0  0  0
   20.2412   -9.8393  -13.5230 C   0  0  0  0  0  0  0  0  0  0  0  0
   19.3095   -8.8086  -12.9440 C   0  0  2  0  0  0  0  0  0  0  0  0
   18.0570   -9.4762  -12.5406 N   0  0  0  0  0  0  0  0  0  0  0  0
   18.9076   -7.8594  -13.9861 C   0  0  0  0  0  0  0  0  0  0  0  0
   17.8272   -8.0673  -14.6320 O   0  0  0  0  0  0  0  0  0  0  0  0
   19.5935   -6.6837  -14.3817 N   0  0  0  0  0  0  0  0  0  0  0  0
   19.0018   -5.7029  -15.2820 C   0  0  1  0  0  0  0  0  0  0  0  0
   17.6671   -5.2317  -14.7967 C   0  0  0  0  0  0  0  0  0  0  0  0
   17.0636   -4.1133  -15.5952 C   0  0  0  0  0  0  0  0  0  0  0  0
   15.7721   -3.7403  -14.9504 C   0  0  0  0  0  0  0  0  0  0  0  0
   15.8182   -3.0677  -13.8780 O   0  0  0  0  0  0  0  0  0  0  0  0
   19.8927   -4.5955  -15.6067 C   0  0  0  0  0  0  0  0  0  0  0  0
   20.9960   -4.4739  -15.0367 O   0  0  0  0  0  0  0  0  0  0  0  0
   14.5479   -4.1208  -15.5061 O   0  0  0  0  0  0  0  0  0  0  0  0
   19.5322   -3.6579  -16.5526 O   0  0  0  0  0  0  0  0  0  0  0  0
  2  3  1  0
  2  1  1  0
  3  4  1  1
  5  3  1  0
  5  6  2  0
  8  7  1  1
  8 10  1  0
  8  9  1  0
 11 10  1  6
 11 12  1  0
 11 13  1  0
 12  5  1  0
 13 15  1  0
 14 13  2  0
 15 16  1  0
 16 21  1  0
 17 18  1  0
 16 17  1  1
 19 23  1  0
 19 18  1  0
 20 19  2  0
 21 22  2  0
 21 24  1  0
M  END
$$$$
