SLE.pdb
     RDKit          3D

 24 23  0  0  1  0  0  0  0  0999 V2000
   19.3624  -10.2855  -19.9379 O   0  0  0  0  0  0  0  0  0  0  0  0
   20.5975  -10.9373  -19.8515 C   0  0  0  0  0  0  0  0  0  0  0  0
   20.5833  -11.9540  -18.7003 C   0  0  2  0  0  0  0  0  0  0  0  0
   19.2490  -12.3673  -18.4003 N   0  0  0  0  0  0  0  0  0  0  0  0
   21.1973  -11.2906  -17.5123 C   0  0  0  0  0  0  0  0  0  0  0  0
   20.6038  -11.0138  -16.4574 O   0  0  0  0  0  0  0  0  0  0  0  0
   25.5756  -10.6014  -14.3762 C   0  0  0  0  0  0  0  0  0  0  0  0
   25.6273   -9.8533  -15.7017 C   0  0  1  0  0  0  0  0  0  0  0  0
   27.1053  -10.0465  -16.1719 C   0  0  0  0  0  0  0  0  0  0  0  0
   24.7892  -10.5215  -16.7453 C   0  0  0  0  0  0  0  0  0  0  0  0
   23.3141  -10.3568  -16.4956 C   0  0  2  0  0  0  0  0  0  0  0  0
   22.5733  -10.9604  -17.6198 N   0  0  0  0  0  0  0  0  0  0  0  0
   22.9582   -8.9355  -16.5344 C   0  0  0  0  0  0  0  0  0  0  0  0
   23.1222   -8.2838  -17.6189 O   0  0  0  0  0  0  0  0  0  0  0  0
   22.4252   -8.1586  -15.4752 N   0  0  0  0  0  0  0  0  0  0  0  0
   22.0866   -6.7508  -15.6364 C   0  0  1  0  0  0  0  0  0  0  0  0
   20.6161   -6.5471  -15.8236 C   0  0  0  0  0  0  0  0  0  0  0  0
   20.1865   -5.1134  -15.9360 C   0  0  0  0  0  0  0  0  0  0  0  0
   18.7087   -5.0962  -16.1333 C   0  0  0  0  0  0  0  0  0  0  0  0
   18.1004   -6.2073  -16.1481 O   0  0  0  0  0  0  0  0  0  0  0  0
   22.6328   -5.8950  -14.5900 C   0  0  0  0  0  0  0  0  0  0  0  0
   23.0679   -6.3827  -13.5271 O   0  0  0  0  0  0  0  0  0  0  0  0
   18.0134   -3.8958  -16.3000 O   0  0  0  0  0  0  0  0  0  0  0  0
   22.6791   -4.5260  -14.7550 O   0  0  0  0  0  0  0  0  0  0  0  0
  2  3  1  0
  2  1  1  0
  3  4  1  1
  5  3  1  0
  5  6  2  0
  8  7  1  1
  8 10  1  0
  8  9  1  0
 11 10  1  6
 11 12  1  0
 11 13  1  0
 12  5  1  0
 13 15  1  0
 14 13  2  0
 15 16  1  0
 16 21  1  0
 17 18  1  0
 16 17  1  1
 19 23  1  0
 19 18  1  0
 20 19  2  0
 21 22  2  0
 21 24  1  0
M  END
$$$$
