SLE.pdb
     RDKit          3D

 24 23  0  0  1  0  0  0  0  0999 V2000
   18.3469   -9.8775  -18.2814 O   0  0  0  0  0  0  0  0  0  0  0  0
   19.3263  -10.5612  -19.0100 C   0  0  0  0  0  0  0  0  0  0  0  0
   19.8207  -11.7828  -18.2211 C   0  0  2  0  0  0  0  0  0  0  0  0
   18.7275  -12.6168  -17.8331 N   0  0  0  0  0  0  0  0  0  0  0  0
   20.5353  -11.2738  -17.0133 C   0  0  0  0  0  0  0  0  0  0  0  0
   20.1129  -11.3401  -15.8476 O   0  0  0  0  0  0  0  0  0  0  0  0
   26.3166  -10.6227  -15.3116 C   0  0  0  0  0  0  0  0  0  0  0  0
   24.9158  -10.0337  -15.2103 C   0  0  1  0  0  0  0  0  0  0  0  0
   25.1398   -8.5113  -15.4839 C   0  0  0  0  0  0  0  0  0  0  0  0
   24.0353  -10.5104  -16.3219 C   0  0  0  0  0  0  0  0  0  0  0  0
   22.5974  -10.1067  -16.1347 C   0  0  2  0  0  0  0  0  0  0  0  0
   21.7996  -10.6707  -17.2404 N   0  0  0  0  0  0  0  0  0  0  0  0
   22.4648   -8.6544  -16.2817 C   0  0  0  0  0  0  0  0  0  0  0  0
   22.7879   -8.1105  -17.3895 O   0  0  0  0  0  0  0  0  0  0  0  0
   21.9966   -7.7362  -15.3086 N   0  0  0  0  0  0  0  0  0  0  0  0
   21.8809   -6.3090  -15.5771 C   0  0  1  0  0  0  0  0  0  0  0  0
   20.4537   -5.8774  -15.7036 C   0  0  0  0  0  0  0  0  0  0  0  0
   20.2559   -4.4057  -15.9215 C   0  0  0  0  0  0  0  0  0  0  0  0
   18.8040   -4.1743  -16.1690 C   0  0  0  0  0  0  0  0  0  0  0  0
   18.0305   -5.1770  -16.1360 O   0  0  0  0  0  0  0  0  0  0  0  0
   22.6277   -5.4760  -14.6422 C   0  0  0  0  0  0  0  0  0  0  0  0
   22.9874   -5.9228  -13.5341 O   0  0  0  0  0  0  0  0  0  0  0  0
   18.3082   -2.8948  -16.4322 O   0  0  0  0  0  0  0  0  0  0  0  0
   22.9519   -4.1744  -14.9652 O   0  0  0  0  0  0  0  0  0  0  0  0
  2  3  1  0
  2  1  1  0
  3  4  1  1
  5  3  1  0
  5  6  2  0
  8  7  1  6
  8 10  1  0
  8  9  1  0
 11 10  1  6
 11 12  1  0
 11 13  1  0
 12  5  1  0
 13 15  1  0
 14 13  2  0
 15 16  1  0
 16 21  1  0
 17 18  1  0
 16 17  1  1
 19 23  1  0
 19 18  1  0
 20 19  2  0
 21 22  2  0
 21 24  1  0
M  END
$$$$
