SLE.pdb
     RDKit          3D

 24 23  0  0  1  0  0  0  0  0999 V2000
   19.2837   -9.2067  -20.8887 O   0  0  0  0  0  0  0  0  0  0  0  0
   19.5230   -8.9053  -19.5435 C   0  0  0  0  0  0  0  0  0  0  0  0
   19.5093  -10.1889  -18.7000 C   0  0  2  0  0  0  0  0  0  0  0  0
   18.2057  -10.7731  -18.6802 N   0  0  0  0  0  0  0  0  0  0  0  0
   19.9293   -9.8174  -17.3165 C   0  0  0  0  0  0  0  0  0  0  0  0
   19.1677   -9.6923  -16.3438 O   0  0  0  0  0  0  0  0  0  0  0  0
   24.6562  -11.7354  -15.2428 C   0  0  0  0  0  0  0  0  0  0  0  0
   23.2414  -11.1887  -15.3800 C   0  0  1  0  0  0  0  0  0  0  0  0
   22.6513  -11.3393  -13.9406 C   0  0  0  0  0  0  0  0  0  0  0  0
   23.2425   -9.7183  -15.6557 C   0  0  0  0  0  0  0  0  0  0  0  0
   21.8545   -9.1590  -15.8178 C   0  0  2  0  0  0  0  0  0  0  0  0
   21.3173   -9.5959  -17.1206 N   0  0  0  0  0  0  0  0  0  0  0  0
   21.9143   -7.6974  -15.9099 C   0  0  0  0  0  0  0  0  0  0  0  0
   22.4321   -7.1613  -16.9453 O   0  0  0  0  0  0  0  0  0  0  0  0
   21.4438   -6.7609  -14.9554 N   0  0  0  0  0  0  0  0  0  0  0  0
   21.4886   -5.3234  -15.1876 C   0  0  1  0  0  0  0  0  0  0  0  0
   20.1189   -4.7332  -15.3080 C   0  0  0  0  0  0  0  0  0  0  0  0
   20.0877   -3.2474  -15.5183 C   0  0  0  0  0  0  0  0  0  0  0  0
   18.7363   -2.8904  -16.0370 C   0  0  0  0  0  0  0  0  0  0  0  0
   17.8954   -3.8252  -16.1916 O   0  0  0  0  0  0  0  0  0  0  0  0
   22.3172   -4.6022  -14.2291 C   0  0  0  0  0  0  0  0  0  0  0  0
   22.5159   -5.0584  -13.0848 O   0  0  0  0  0  0  0  0  0  0  0  0
   18.4044   -1.5690  -16.3469 O   0  0  0  0  0  0  0  0  0  0  0  0
   22.8991   -3.3983  -14.5692 O   0  0  0  0  0  0  0  0  0  0  0  0
  2  3  1  0
  2  1  1  0
  3  4  1  1
  5  3  1  0
  5  6  2  0
  8  7  1  1
  8 10  1  0
  8  9  1  0
 11 10  1  6
 11 12  1  0
 11 13  1  0
 12  5  1  0
 13 15  1  0
 14 13  2  0
 15 16  1  0
 16 21  1  0
 17 18  1  0
 16 17  1  1
 19 23  1  0
 19 18  1  0
 20 19  2  0
 21 22  2  0
 21 24  1  0
M  END
$$$$
