WMI.pdb
     RDKit          3D

 31 32  0  0  1  0  0  0  0  0999 V2000
   25.7903  -20.5769  -16.6748 N   0  0  0  0  0  0  0  0  0  0  0  0
   26.3055  -19.7270  -15.6280 C   0  0  1  0  0  0  0  0  0  0  0  0
   25.2571  -18.7351  -15.1740 C   0  0  0  0  0  0  0  0  0  0  0  0
   25.1363  -17.6583  -16.1831 C   0  0  0  0  0  0  0  0  0  0  0  0
   24.0815  -17.5129  -17.0489 C   0  0  0  0  0  0  0  0  0  0  0  0
   24.2970  -16.4184  -17.8366 N   0  0  0  0  0  0  0  0  0  0  0  0
   25.4736  -15.8702  -17.4804 C   0  0  0  0  0  0  0  0  0  0  0  0
   26.1194  -14.7634  -17.9770 C   0  0  0  0  0  0  0  0  0  0  0  0
   27.3331  -14.4137  -17.4249 C   0  0  0  0  0  0  0  0  0  0  0  0
   27.9088  -15.1457  -16.3922 C   0  0  0  0  0  0  0  0  0  0  0  0
   27.2334  -16.2544  -15.9148 C   0  0  0  0  0  0  0  0  0  0  0  0
   26.0156  -16.6335  -16.4446 C   0  0  0  0  0  0  0  0  0  0  0  0
   26.7999  -20.5608  -14.5163 C   0  0  0  0  0  0  0  0  0  0  0  0
   26.2730  -21.6488  -14.1780 O   0  0  0  0  0  0  0  0  0  0  0  0
   32.5150  -22.8450   -9.9416 C   0  0  0  0  0  0  0  0  0  0  0  0
   31.8350  -21.3344  -10.6786 S   0  0  0  0  0  0  0  0  0  0  0  0
   30.1934  -21.6424  -11.3952 C   0  0  0  0  0  0  0  0  0  0  0  0
   29.5578  -20.3711  -11.9053 C   0  0  0  0  0  0  0  0  0  0  0  0
   28.2173  -20.6767  -12.4651 C   0  0  2  0  0  0  0  0  0  0  0  0
   27.9225  -20.1695  -13.7524 N   0  0  0  0  0  0  0  0  0  0  0  0
   27.1150  -20.2758  -11.5433 C   0  0  0  0  0  0  0  0  0  0  0  0
   26.7316  -19.0682  -11.6456 O   0  0  0  0  0  0  0  0  0  0  0  0
   22.4083  -21.2951  -11.6925 C   0  0  0  0  0  0  0  0  0  0  0  0
   23.7026  -20.6195  -11.2869 C   0  0  0  0  0  0  0  0  0  0  0  0
   24.1873  -21.1275   -9.9488 C   0  0  2  0  0  0  0  0  0  0  0  0
   23.1357  -20.8417   -8.9331 C   0  0  0  0  0  0  0  0  0  0  0  0
   25.5574  -20.6648   -9.6067 C   0  0  2  0  0  0  0  0  0  0  0  0
   26.5168  -21.1420  -10.6142 N   0  0  0  0  0  0  0  0  0  0  0  0
   26.0575  -21.0371   -8.2839 C   0  0  0  0  0  0  0  0  0  0  0  0
   25.8042  -20.4229   -7.2182 O   0  0  0  0  0  0  0  0  0  0  0  0
   26.8767  -22.1520   -8.1705 O   0  0  0  0  0  0  0  0  0  0  0  0
  2  1  1  6
  2  3  1  0
  4  3  1  0
  5  4  2  0
  6  5  1  0
  7  6  1  0
  7 12  2  0
  8  7  1  0
  9  8  2  0
  9 10  1  0
 10 11  2  0
 11 12  1  0
 12  4  1  0
 13 20  1  0
 13  2  1  0
 14 13  2  0
 16 15  1  0
 17 16  1  0
 18 17  1  0
 19 18  1  1
 19 20  1  0
 21 19  1  0
 22 21  2  0
 23 24  1  0
 24 25  1  0
 25 26  1  1
 27 25  1  0
 27 28  1  6
 28 21  1  0
 29 31  1  0
 29 27  1  0
 30 29  2  0
M  END
$$$$
