WMI.pdb
     RDKit          3D

 31 32  0  0  1  0  0  0  0  0999 V2000
   24.8105  -19.5264   -9.7848 N   0  0  0  0  0  0  0  0  0  0  0  0
   26.0286  -20.0985  -10.3065 C   0  0  1  0  0  0  0  0  0  0  0  0
   26.4589  -21.2929   -9.4834 C   0  0  0  0  0  0  0  0  0  0  0  0
   26.7454  -20.8524   -8.0991 C   0  0  0  0  0  0  0  0  0  0  0  0
   25.8045  -20.7279   -7.1078 C   0  0  0  0  0  0  0  0  0  0  0  0
   26.4148  -20.3016   -5.9629 N   0  0  0  0  0  0  0  0  0  0  0  0
   27.7284  -20.1549   -6.2173 C   0  0  0  0  0  0  0  0  0  0  0  0
   28.7488  -19.7501   -5.3906 C   0  0  0  0  0  0  0  0  0  0  0  0
   30.0235  -19.6850   -5.9113 C   0  0  0  0  0  0  0  0  0  0  0  0
   30.2945  -20.0153   -7.2346 C   0  0  0  0  0  0  0  0  0  0  0  0
   29.2453  -20.4191   -8.0407 C   0  0  0  0  0  0  0  0  0  0  0  0
   27.9558  -20.4957   -7.5520 C   0  0  0  0  0  0  0  0  0  0  0  0
   25.8409  -20.4423  -11.7286 C   0  0  0  0  0  0  0  0  0  0  0  0
   24.7800  -20.9298  -12.1898 O   0  0  0  0  0  0  0  0  0  0  0  0
   29.4605  -17.5169  -16.4449 C   0  0  0  0  0  0  0  0  0  0  0  0
   28.2557  -16.6433  -15.4092 S   0  0  0  0  0  0  0  0  0  0  0  0
   27.2324  -17.8167  -14.4716 C   0  0  0  0  0  0  0  0  0  0  0  0
   27.5407  -19.2481  -14.8413 C   0  0  0  0  0  0  0  0  0  0  0  0
   26.6602  -20.1604  -14.0693 C   0  0  2  0  0  0  0  0  0  0  0  0
   26.8719  -20.2360  -12.6726 N   0  0  0  0  0  0  0  0  0  0  0  0
   26.6654  -21.5483  -14.6165 C   0  0  0  0  0  0  0  0  0  0  0  0
   27.7254  -22.2153  -14.3995 O   0  0  0  0  0  0  0  0  0  0  0  0
   23.4247  -26.4756  -14.6589 C   0  0  0  0  0  0  0  0  0  0  0  0
   24.4501  -25.7217  -15.4812 C   0  0  0  0  0  0  0  0  0  0  0  0
   24.5955  -24.2969  -14.9991 C   0  0  2  0  0  0  0  0  0  0  0  0
   23.2366  -23.6918  -14.9169 C   0  0  0  0  0  0  0  0  0  0  0  0
   25.6032  -23.5182  -15.7649 C   0  0  2  0  0  0  0  0  0  0  0  0
   25.5946  -22.1143  -15.3267 N   0  0  0  0  0  0  0  0  0  0  0  0
   25.4753  -23.5454  -17.2214 C   0  0  0  0  0  0  0  0  0  0  0  0
   25.7426  -24.5324  -17.9504 O   0  0  0  0  0  0  0  0  0  0  0  0
   25.0249  -22.4051  -17.8724 O   0  0  0  0  0  0  0  0  0  0  0  0
  2  1  1  1
  2  3  1  0
  4  3  1  0
  5  4  2  0
  6  5  1  0
  7  6  1  0
  7 12  2  0
  8  7  1  0
  9  8  2  0
  9 10  1  0
 10 11  2  0
 11 12  1  0
 12  4  1  0
 13 20  1  0
 13  2  1  0
 14 13  2  0
 16 15  1  0
 17 16  1  0
 18 17  1  0
 19 18  1  6
 19 20  1  0
 21 19  1  0
 22 21  2  0
 23 24  1  0
 24 25  1  0
 25 26  1  6
 27 25  1  0
 27 28  1  1
 28 21  1  0
 29 31  1  0
 29 27  1  0
 30 29  2  0
M  END
$$$$
