WMI.pdb
     RDKit          3D

 31 32  0  0  1  0  0  0  0  0999 V2000
   24.8802  -18.4745  -15.8886 N   0  0  0  0  0  0  0  0  0  0  0  0
   25.6451  -18.5742  -14.6686 C   0  0  1  0  0  0  0  0  0  0  0  0
   26.0428  -17.2028  -14.1682 C   0  0  0  0  0  0  0  0  0  0  0  0
   26.7527  -16.4780  -15.2467 C   0  0  0  0  0  0  0  0  0  0  0  0
   26.3995  -15.2392  -15.7200 C   0  0  0  0  0  0  0  0  0  0  0  0
   27.2673  -14.8743  -16.7093 N   0  0  0  0  0  0  0  0  0  0  0  0
   28.1640  -15.8656  -16.8676 C   0  0  0  0  0  0  0  0  0  0  0  0
   29.2263  -15.9664  -17.7335 C   0  0  0  0  0  0  0  0  0  0  0  0
   29.9985  -17.1075  -17.6889 C   0  0  0  0  0  0  0  0  0  0  0  0
   29.7294  -18.1425  -16.8000 C   0  0  0  0  0  0  0  0  0  0  0  0
   28.6529  -18.0101  -15.9415 C   0  0  0  0  0  0  0  0  0  0  0  0
   27.8581  -16.8807  -15.9591 C   0  0  0  0  0  0  0  0  0  0  0  0
   24.8728  -19.3296  -13.6643 C   0  0  0  0  0  0  0  0  0  0  0  0
   23.6204  -19.4146  -13.6729 O   0  0  0  0  0  0  0  0  0  0  0  0
   23.0025  -23.7164  -15.2545 C   0  0  0  0  0  0  0  0  0  0  0  0
   24.6288  -24.0907  -14.5457 S   0  0  0  0  0  0  0  0  0  0  0  0
   25.2835  -22.6633  -13.6309 C   0  0  0  0  0  0  0  0  0  0  0  0
   24.3118  -22.1772  -12.5819 C   0  0  0  0  0  0  0  0  0  0  0  0
   24.9090  -21.0363  -11.8434 C   0  0  2  0  0  0  0  0  0  0  0  0
   25.5181  -20.0160  -12.6111 N   0  0  0  0  0  0  0  0  0  0  0  0
   25.8836  -21.4826  -10.8058 C   0  0  0  0  0  0  0  0  0  0  0  0
   26.1827  -22.7176  -10.8349 O   0  0  0  0  0  0  0  0  0  0  0  0
   28.1178  -19.1033   -5.4854 C   0  0  0  0  0  0  0  0  0  0  0  0
   27.5591  -20.2898   -6.2445 C   0  0  0  0  0  0  0  0  0  0  0  0
   27.1485  -19.8975   -7.6449 C   0  0  2  0  0  0  0  0  0  0  0  0
   26.2527  -18.7107   -7.5525 C   0  0  0  0  0  0  0  0  0  0  0  0
   26.6293  -21.0369   -8.4451 C   0  0  2  0  0  0  0  0  0  0  0  0
   26.4528  -20.6291   -9.8471 N   0  0  0  0  0  0  0  0  0  0  0  0
   25.3805  -21.6406   -7.9818 C   0  0  0  0  0  0  0  0  0  0  0  0
   25.2925  -22.5223   -7.0919 O   0  0  0  0  0  0  0  0  0  0  0  0
   24.1862  -21.2234   -8.5533 O   0  0  0  0  0  0  0  0  0  0  0  0
  2  1  1  6
  2  3  1  0
  4  3  1  0
  5  4  2  0
  6  5  1  0
  7  6  1  0
  7 12  2  0
  8  7  1  0
  9  8  2  0
  9 10  1  0
 10 11  2  0
 11 12  1  0
 12  4  1  0
 13 20  1  0
 13  2  1  0
 14 13  2  0
 16 15  1  0
 17 16  1  0
 18 17  1  0
 19 18  1  6
 19 20  1  0
 21 19  1  0
 22 21  2  0
 23 24  1  0
 24 25  1  0
 25 26  1  1
 27 25  1  0
 27 28  1  6
 28 21  1  0
 29 31  1  0
 29 27  1  0
 30 29  2  0
M  END
$$$$
