WMI.pdb
     RDKit          3D

 31 32  0  0  1  0  0  0  0  0999 V2000
   28.9165  -20.5875  -15.4099 N   0  0  0  0  0  0  0  0  0  0  0  0
   27.8156  -19.9556  -14.7228 C   0  0  1  0  0  0  0  0  0  0  0  0
   26.7945  -19.4314  -15.7086 C   0  0  0  0  0  0  0  0  0  0  0  0
   27.3850  -18.3068  -16.4695 C   0  0  0  0  0  0  0  0  0  0  0  0
   27.8543  -18.3945  -17.7562 C   0  0  0  0  0  0  0  0  0  0  0  0
   28.3274  -17.1736  -18.1439 N   0  0  0  0  0  0  0  0  0  0  0  0
   28.1635  -16.3156  -17.1198 C   0  0  0  0  0  0  0  0  0  0  0  0
   28.4819  -14.9821  -17.0244 C   0  0  0  0  0  0  0  0  0  0  0  0
   28.2041  -14.3279  -15.8433 C   0  0  0  0  0  0  0  0  0  0  0  0
   27.6175  -14.9784  -14.7633 C   0  0  0  0  0  0  0  0  0  0  0  0
   27.3092  -16.3208  -14.8914 C   0  0  0  0  0  0  0  0  0  0  0  0
   27.5737  -17.0074  -16.0602 C   0  0  0  0  0  0  0  0  0  0  0  0
   27.2240  -20.9065  -13.7629 C   0  0  0  0  0  0  0  0  0  0  0  0
   27.8477  -21.8835  -13.2809 O   0  0  0  0  0  0  0  0  0  0  0  0
   26.0120  -21.0782   -6.6050 C   0  0  0  0  0  0  0  0  0  0  0  0
   26.6380  -20.3829   -8.1581 S   0  0  0  0  0  0  0  0  0  0  0  0
   25.6743  -20.9864   -9.5758 C   0  0  0  0  0  0  0  0  0  0  0  0
   26.2471  -20.5051  -10.8877 C   0  0  0  0  0  0  0  0  0  0  0  0
   25.4537  -21.0649  -12.0105 C   0  0  2  0  0  0  0  0  0  0  0  0
   25.8887  -20.7652  -13.3229 N   0  0  0  0  0  0  0  0  0  0  0  0
   24.0067  -20.7168  -11.9090 C   0  0  0  0  0  0  0  0  0  0  0  0
   23.7481  -19.4734  -11.8567 O   0  0  0  0  0  0  0  0  0  0  0  0
   22.3326  -23.5626  -15.6686 C   0  0  0  0  0  0  0  0  0  0  0  0
   22.4955  -22.4046  -14.7050 C   0  0  0  0  0  0  0  0  0  0  0  0
   21.4725  -22.4705  -13.5947 C   0  0  2  0  0  0  0  0  0  0  0  0
   20.1166  -22.4959  -14.2113 C   0  0  0  0  0  0  0  0  0  0  0  0
   21.6830  -21.4439  -12.5411 C   0  0  2  0  0  0  0  0  0  0  0  0
   22.9733  -21.6665  -11.8712 N   0  0  0  0  0  0  0  0  0  0  0  0
   20.6449  -21.3427  -11.5161 C   0  0  0  0  0  0  0  0  0  0  0  0
   19.5165  -20.8172  -11.6821 O   0  0  0  0  0  0  0  0  0  0  0  0
   20.9016  -21.8605  -10.2540 O   0  0  0  0  0  0  0  0  0  0  0  0
  2  1  1  6
  2  3  1  0
  4  3  1  0
  5  4  2  0
  6  5  1  0
  7  6  1  0
  7 12  2  0
  8  7  1  0
  9  8  2  0
  9 10  1  0
 10 11  2  0
 11 12  1  0
 12  4  1  0
 13 20  1  0
 13  2  1  0
 14 13  2  0
 16 15  1  0
 17 16  1  0
 18 17  1  0
 19 18  1  1
 19 20  1  0
 21 19  1  0
 22 21  2  0
 23 24  1  0
 24 25  1  0
 25 26  1  6
 27 25  1  0
 27 28  1  1
 28 21  1  0
 29 31  1  0
 29 27  1  0
 30 29  2  0
M  END
$$$$
