WMI.pdb
     RDKit          3D

 31 32  0  0  1  0  0  0  0  0999 V2000
   26.2254  -22.4210  -11.9349 N   0  0  0  0  0  0  0  0  0  0  0  0
   25.7038  -21.2434  -11.2833 C   0  0  1  0  0  0  0  0  0  0  0  0
   26.7273  -20.1290  -11.2843 C   0  0  0  0  0  0  0  0  0  0  0  0
   27.8900  -20.5351  -10.4625 C   0  0  0  0  0  0  0  0  0  0  0  0
   28.9532  -21.2713  -10.9221 C   0  0  0  0  0  0  0  0  0  0  0  0
   29.8398  -21.4620   -9.9012 N   0  0  0  0  0  0  0  0  0  0  0  0
   29.3515  -20.8563   -8.8028 C   0  0  0  0  0  0  0  0  0  0  0  0
   29.8751  -20.7690   -7.5352 C   0  0  0  0  0  0  0  0  0  0  0  0
   29.1597  -20.0792   -6.5798 C   0  0  0  0  0  0  0  0  0  0  0  0
   27.9386  -19.4792   -6.8672 C   0  0  0  0  0  0  0  0  0  0  0  0
   27.4390  -19.5854   -8.1527 C   0  0  0  0  0  0  0  0  0  0  0  0
   28.1291  -20.2690   -9.1345 C   0  0  0  0  0  0  0  0  0  0  0  0
   24.4424  -20.8399  -11.9327 C   0  0  0  0  0  0  0  0  0  0  0  0
   23.7141  -19.9074  -11.5134 O   0  0  0  0  0  0  0  0  0  0  0  0
   23.0523  -20.0090  -18.1969 C   0  0  0  0  0  0  0  0  0  0  0  0
   21.4184  -20.4294  -17.5328 S   0  0  0  0  0  0  0  0  0  0  0  0
   21.4627  -20.5419  -15.7194 C   0  0  0  0  0  0  0  0  0  0  0  0
   22.8122  -21.0003  -15.2198 C   0  0  0  0  0  0  0  0  0  0  0  0
   22.7618  -21.1774  -13.7469 C   0  0  2  0  0  0  0  0  0  0  0  0
   23.9738  -21.4985  -13.0917 N   0  0  0  0  0  0  0  0  0  0  0  0
   21.7309  -22.1727  -13.3321 C   0  0  0  0  0  0  0  0  0  0  0  0
   21.9973  -23.3829  -13.6153 O   0  0  0  0  0  0  0  0  0  0  0  0
   18.4816  -23.8429   -8.6827 C   0  0  0  0  0  0  0  0  0  0  0  0
   18.4895  -23.8441  -10.1979 C   0  0  0  0  0  0  0  0  0  0  0  0
   19.5282  -22.8892  -10.7391 C   0  0  2  0  0  0  0  0  0  0  0  0
   19.3432  -21.5713  -10.0695 C   0  0  0  0  0  0  0  0  0  0  0  0
   19.5789  -22.8571  -12.2238 C   0  0  2  0  0  0  0  0  0  0  0  0
   20.5374  -21.8362  -12.6734 N   0  0  0  0  0  0  0  0  0  0  0  0
   18.3090  -22.6294  -12.9124 C   0  0  0  0  0  0  0  0  0  0  0  0
   18.0122  -21.5907  -13.5529 O   0  0  0  0  0  0  0  0  0  0  0  0
   17.3404  -23.6230  -12.8705 O   0  0  0  0  0  0  0  0  0  0  0  0
  2  1  1  6
  2  3  1  0
  4  3  1  0
  5  4  2  0
  6  5  1  0
  7  6  1  0
  7 12  2  0
  8  7  1  0
  9  8  2  0
  9 10  1  0
 10 11  2  0
 11 12  1  0
 12  4  1  0
 13 20  1  0
 13  2  1  0
 14 13  2  0
 16 15  1  0
 17 16  1  0
 18 17  1  0
 19 18  1  6
 19 20  1  0
 21 19  1  0
 22 21  2  0
 23 24  1  0
 24 25  1  0
 25 26  1  6
 27 25  1  0
 27 28  1  1
 28 21  1  0
 29 31  1  0
 29 27  1  0
 30 29  2  0
M  END
$$$$
