WMI.pdb
     RDKit          3D

 31 32  0  0  1  0  0  0  0  0999 V2000
   24.8285  -21.5225  -13.6816 N   0  0  0  0  0  0  0  0  0  0  0  0
   25.2313  -20.2219  -13.2023 C   0  0  1  0  0  0  0  0  0  0  0  0
   24.6771  -19.1263  -14.0866 C   0  0  0  0  0  0  0  0  0  0  0  0
   24.6601  -19.5958  -15.4907 C   0  0  0  0  0  0  0  0  0  0  0  0
   25.2171  -20.7711  -15.9288 C   0  0  0  0  0  0  0  0  0  0  0  0
   25.0176  -20.8861  -17.2749 N   0  0  0  0  0  0  0  0  0  0  0  0
   24.3421  -19.7996  -17.6933 C   0  0  0  0  0  0  0  0  0  0  0  0
   23.9103  -19.4580  -18.9524 C   0  0  0  0  0  0  0  0  0  0  0  0
   23.2304  -18.2691  -19.1088 C   0  0  0  0  0  0  0  0  0  0  0  0
   22.9761  -17.4215  -18.0363 C   0  0  0  0  0  0  0  0  0  0  0  0
   23.4239  -17.7942  -16.7817 C   0  0  0  0  0  0  0  0  0  0  0  0
   24.1084  -18.9782  -16.5888 C   0  0  0  0  0  0  0  0  0  0  0  0
   24.8145  -20.0651  -11.7961 C   0  0  0  0  0  0  0  0  0  0  0  0
   23.6725  -19.6747  -11.4508 O   0  0  0  0  0  0  0  0  0  0  0  0
   21.2942  -21.9866   -8.0590 C   0  0  0  0  0  0  0  0  0  0  0  0
   22.5547  -21.7238   -6.7826 S   0  0  0  0  0  0  0  0  0  0  0  0
   23.9463  -20.7527   -7.4332 C   0  0  0  0  0  0  0  0  0  0  0  0
   24.1786  -21.0212   -8.9011 C   0  0  0  0  0  0  0  0  0  0  0  0
   25.3567  -20.2473   -9.3666 C   0  0  2  0  0  0  0  0  0  0  0  0
   25.7014  -20.3534  -10.7346 N   0  0  0  0  0  0  0  0  0  0  0  0
   26.5763  -20.5320   -8.5560 C   0  0  0  0  0  0  0  0  0  0  0  0
   27.3294  -21.4502   -9.0092 O   0  0  0  0  0  0  0  0  0  0  0  0
   29.2388  -16.8068   -5.4570 C   0  0  0  0  0  0  0  0  0  0  0  0
   28.9522  -17.9667   -6.3891 C   0  0  0  0  0  0  0  0  0  0  0  0
   28.4380  -19.1656   -5.6264 C   0  0  2  0  0  0  0  0  0  0  0  0
   29.4350  -19.5113   -4.5747 C   0  0  0  0  0  0  0  0  0  0  0  0
   28.0156  -20.2848   -6.5078 C   0  0  2  0  0  0  0  0  0  0  0  0
   26.9043  -19.8554   -7.3703 N   0  0  0  0  0  0  0  0  0  0  0  0
   27.6253  -21.5259   -5.8400 C   0  0  0  0  0  0  0  0  0  0  0  0
   26.4858  -21.7635   -5.3687 O   0  0  0  0  0  0  0  0  0  0  0  0
   28.5686  -22.5352   -5.7046 O   0  0  0  0  0  0  0  0  0  0  0  0
  2  1  1  6
  2  3  1  0
  4  3  1  0
  5  4  2  0
  6  5  1  0
  7  6  1  0
  7 12  2  0
  8  7  1  0
  9  8  2  0
  9 10  1  0
 10 11  2  0
 11 12  1  0
 12  4  1  0
 13 20  1  0
 13  2  1  0
 14 13  2  0
 16 15  1  0
 17 16  1  0
 18 17  1  0
 19 18  1  1
 19 20  1  0
 21 19  1  0
 22 21  2  0
 23 24  1  0
 24 25  1  0
 25 26  1  1
 27 25  1  0
 27 28  1  1
 28 21  1  0
 29 31  1  0
 29 27  1  0
 30 29  2  0
M  END
$$$$
