WMI.pdb
     RDKit          3D

 31 32  0  0  1  0  0  0  0  0999 V2000
   24.2830  -19.2156  -16.8796 N   0  0  0  0  0  0  0  0  0  0  0  0
   24.7565  -18.6776  -15.6267 C   0  0  1  0  0  0  0  0  0  0  0  0
   23.6623  -17.9038  -14.9245 C   0  0  0  0  0  0  0  0  0  0  0  0
   23.3878  -16.6580  -15.6761 C   0  0  0  0  0  0  0  0  0  0  0  0
   22.2128  -16.3817  -16.3291 C   0  0  0  0  0  0  0  0  0  0  0  0
   22.3044  -15.1507  -16.9132 N   0  0  0  0  0  0  0  0  0  0  0  0
   23.5213  -14.6454  -16.6382 C   0  0  0  0  0  0  0  0  0  0  0  0
   24.0827  -13.4450  -17.0023 C   0  0  0  0  0  0  0  0  0  0  0  0
   25.3664  -13.1708  -16.5814 C   0  0  0  0  0  0  0  0  0  0  0  0
   26.0939  -14.0689  -15.8083 C   0  0  0  0  0  0  0  0  0  0  0  0
   25.5003  -15.2684  -15.4588 C   0  0  0  0  0  0  0  0  0  0  0  0
   24.2160  -15.5759  -15.8631 C   0  0  0  0  0  0  0  0  0  0  0  0
   25.2876  -19.7711  -14.7913 C   0  0  0  0  0  0  0  0  0  0  0  0
   24.8163  -20.9346  -14.7903 O   0  0  0  0  0  0  0  0  0  0  0  0
   31.1228  -20.4082  -10.6907 C   0  0  0  0  0  0  0  0  0  0  0  0
   30.5426  -21.8070  -11.6877 S   0  0  0  0  0  0  0  0  0  0  0  0
   28.7465  -21.7175  -11.9504 C   0  0  0  0  0  0  0  0  0  0  0  0
   28.3618  -20.5185  -12.7841 C   0  0  0  0  0  0  0  0  0  0  0  0
   26.9026  -20.5504  -13.0551 C   0  0  2  0  0  0  0  0  0  0  0  0
   26.3840  -19.5623  -13.9247 N   0  0  0  0  0  0  0  0  0  0  0  0
   26.0943  -20.5373  -11.8013 C   0  0  0  0  0  0  0  0  0  0  0  0
   25.6198  -19.4053  -11.4711 O   0  0  0  0  0  0  0  0  0  0  0  0
   27.3988  -20.1512   -7.3613 C   0  0  0  0  0  0  0  0  0  0  0  0
   26.8629  -21.1354   -8.3812 C   0  0  0  0  0  0  0  0  0  0  0  0
   25.4554  -20.7768   -8.7984 C   0  0  2  0  0  0  0  0  0  0  0  0
   24.6169  -20.6766   -7.5711 C   0  0  0  0  0  0  0  0  0  0  0  0
   24.9216  -21.6513   -9.8748 C   0  0  2  0  0  0  0  0  0  0  0  0
   25.8521  -21.6740  -11.0136 N   0  0  0  0  0  0  0  0  0  0  0  0
   23.5885  -21.3223  -10.3778 C   0  0  0  0  0  0  0  0  0  0  0  0
   23.2953  -20.2816  -11.0166 O   0  0  0  0  0  0  0  0  0  0  0  0
   22.5496  -22.2131  -10.1450 O   0  0  0  0  0  0  0  0  0  0  0  0
  2  1  1  6
  2  3  1  0
  4  3  1  0
  5  4  2  0
  6  5  1  0
  7  6  1  0
  7 12  2  0
  8  7  1  0
  9  8  2  0
  9 10  1  0
 10 11  2  0
 11 12  1  0
 12  4  1  0
 13 20  1  0
 13  2  1  0
 14 13  2  0
 16 15  1  0
 17 16  1  0
 18 17  1  0
 19 18  1  1
 19 20  1  0
 21 19  1  0
 22 21  2  0
 23 24  1  0
 24 25  1  0
 25 26  1  1
 27 25  1  0
 27 28  1  6
 28 21  1  0
 29 31  1  0
 29 27  1  0
 30 29  2  0
M  END
$$$$
