WMI.pdb
     RDKit          3D

 31 32  0  0  1  0  0  0  0  0999 V2000
   25.0119  -20.2194  -13.3268 N   0  0  0  0  0  0  0  0  0  0  0  0
   23.9615  -20.1155  -12.3423 C   0  0  1  0  0  0  0  0  0  0  0  0
   22.6359  -20.5622  -12.9191 C   0  0  0  0  0  0  0  0  0  0  0  0
   22.0357  -19.4443  -13.6823 C   0  0  0  0  0  0  0  0  0  0  0  0
   22.3838  -19.0965  -14.9634 C   0  0  0  0  0  0  0  0  0  0  0  0
   21.6338  -18.0246  -15.3553 N   0  0  0  0  0  0  0  0  0  0  0  0
   20.8166  -17.6903  -14.3392 C   0  0  0  0  0  0  0  0  0  0  0  0
   19.8817  -16.6870  -14.2504 C   0  0  0  0  0  0  0  0  0  0  0  0
   19.1692  -16.5612  -13.0770 C   0  0  0  0  0  0  0  0  0  0  0  0
   19.3732  -17.4146  -11.9983 C   0  0  0  0  0  0  0  0  0  0  0  0
   20.3216  -18.4143  -12.1197 C   0  0  0  0  0  0  0  0  0  0  0  0
   21.0535  -18.5692  -13.2806 C   0  0  0  0  0  0  0  0  0  0  0  0
   24.3338  -20.8883  -11.1423 C   0  0  0  0  0  0  0  0  0  0  0  0
   24.5061  -22.1317  -11.1442 O   0  0  0  0  0  0  0  0  0  0  0  0
   27.6920  -18.1972   -6.3937 C   0  0  0  0  0  0  0  0  0  0  0  0
   28.0543  -19.9256   -6.8046 S   0  0  0  0  0  0  0  0  0  0  0  0
   26.8924  -20.5546   -8.0526 C   0  0  0  0  0  0  0  0  0  0  0  0
   25.4572  -20.4047   -7.6071 C   0  0  0  0  0  0  0  0  0  0  0  0
   24.5537  -20.9394   -8.6566 C   0  0  2  0  0  0  0  0  0  0  0  0
   24.5215  -20.2539   -9.8937 N   0  0  0  0  0  0  0  0  0  0  0  0
   23.1510  -21.0905   -8.1717 C   0  0  0  0  0  0  0  0  0  0  0  0
   22.4997  -20.0066   -8.0426 O   0  0  0  0  0  0  0  0  0  0  0  0
   19.3230  -22.8935  -10.6458 C   0  0  0  0  0  0  0  0  0  0  0  0
   20.1175  -22.1677   -9.5790 C   0  0  0  0  0  0  0  0  0  0  0  0
   20.2861  -23.0252   -8.3461 C   0  0  2  0  0  0  0  0  0  0  0  0
   18.9324  -23.4113   -7.8585 C   0  0  0  0  0  0  0  0  0  0  0  0
   21.1899  -22.4232   -7.3317 C   0  0  2  0  0  0  0  0  0  0  0  0
   22.5558  -22.3254   -7.8684 N   0  0  0  0  0  0  0  0  0  0  0  0
   21.2530  -23.0980   -6.0359 C   0  0  0  0  0  0  0  0  0  0  0  0
   20.4147  -22.9622   -5.1107 O   0  0  0  0  0  0  0  0  0  0  0  0
   22.3108  -23.9610   -5.7845 O   0  0  0  0  0  0  0  0  0  0  0  0
  2  1  1  6
  2  3  1  0
  4  3  1  0
  5  4  2  0
  6  5  1  0
  7  6  1  0
  7 12  2  0
  8  7  1  0
  9  8  2  0
  9 10  1  0
 10 11  2  0
 11 12  1  0
 12  4  1  0
 13 20  1  0
 13  2  1  0
 14 13  2  0
 16 15  1  0
 17 16  1  0
 18 17  1  0
 19 18  1  1
 19 20  1  0
 21 19  1  0
 22 21  2  0
 23 24  1  0
 24 25  1  0
 25 26  1  1
 27 25  1  0
 27 28  1  6
 28 21  1  0
 29 31  1  0
 29 27  1  0
 30 29  2  0
M  END
$$$$
