WMI.pdb
     RDKit          3D

 31 32  0  0  1  0  0  0  0  0999 V2000
   28.5083  -21.6809  -11.0622 N   0  0  0  0  0  0  0  0  0  0  0  0
   27.2688  -21.2449  -10.4646 C   0  0  1  0  0  0  0  0  0  0  0  0
   27.4846  -20.0113   -9.6154 C   0  0  0  0  0  0  0  0  0  0  0  0
   28.4742  -20.3159   -8.5570 C   0  0  0  0  0  0  0  0  0  0  0  0
   29.7064  -20.8787   -8.7774 C   0  0  0  0  0  0  0  0  0  0  0  0
   30.3544  -21.0181   -7.5834 N   0  0  0  0  0  0  0  0  0  0  0  0
   29.5485  -20.5511   -6.6116 C   0  0  0  0  0  0  0  0  0  0  0  0
   29.7515  -20.4778   -5.2544 C   0  0  0  0  0  0  0  0  0  0  0  0
   28.7477  -19.9477   -4.4723 C   0  0  0  0  0  0  0  0  0  0  0  0
   27.5528  -19.4927   -5.0190 C   0  0  0  0  0  0  0  0  0  0  0  0
   27.3797  -19.5805   -6.3886 C   0  0  0  0  0  0  0  0  0  0  0  0
   28.3643  -20.1061   -7.2022 C   0  0  0  0  0  0  0  0  0  0  0  0
   26.2644  -21.0230  -11.5217 C   0  0  0  0  0  0  0  0  0  0  0  0
   26.3680  -20.1328  -12.4007 O   0  0  0  0  0  0  0  0  0  0  0  0
   24.8025  -25.9764  -15.3239 C   0  0  0  0  0  0  0  0  0  0  0  0
   23.2123  -25.1135  -15.2052 S   0  0  0  0  0  0  0  0  0  0  0  0
   23.4340  -23.4266  -14.5661 C   0  0  0  0  0  0  0  0  0  0  0  0
   24.1627  -23.4204  -13.2434 C   0  0  0  0  0  0  0  0  0  0  0  0
   24.3622  -22.0199  -12.7936 C   0  0  2  0  0  0  0  0  0  0  0  0
   25.1013  -21.8212  -11.6038 N   0  0  0  0  0  0  0  0  0  0  0  0
   23.0746  -21.2765  -12.6711 C   0  0  0  0  0  0  0  0  0  0  0  0
   22.5220  -21.3293  -11.5277 O   0  0  0  0  0  0  0  0  0  0  0  0
   22.2001  -16.6897  -15.5061 C   0  0  0  0  0  0  0  0  0  0  0  0
   22.2104  -17.6875  -14.3658 C   0  0  0  0  0  0  0  0  0  0  0  0
   21.1248  -18.7246  -14.5384 C   0  0  2  0  0  0  0  0  0  0  0  0
   19.8138  -18.0202  -14.6041 C   0  0  0  0  0  0  0  0  0  0  0  0
   21.2122  -19.8348  -13.5545 C   0  0  2  0  0  0  0  0  0  0  0  0
   22.4822  -20.5575  -13.7216 N   0  0  0  0  0  0  0  0  0  0  0  0
   20.1226  -20.8099  -13.5771 C   0  0  0  0  0  0  0  0  0  0  0  0
   19.1091  -20.7760  -12.8363 O   0  0  0  0  0  0  0  0  0  0  0  0
   20.1896  -21.8636  -14.4783 O   0  0  0  0  0  0  0  0  0  0  0  0
  2  1  1  6
  2  3  1  0
  4  3  1  0
  5  4  2  0
  6  5  1  0
  7  6  1  0
  7 12  2  0
  8  7  1  0
  9  8  2  0
  9 10  1  0
 10 11  2  0
 11 12  1  0
 12  4  1  0
 13 20  1  0
 13  2  1  0
 14 13  2  0
 16 15  1  0
 17 16  1  0
 18 17  1  0
 19 18  1  1
 19 20  1  0
 21 19  1  0
 22 21  2  0
 23 24  1  0
 24 25  1  0
 25 26  1  1
 27 25  1  0
 27 28  1  6
 28 21  1  0
 29 31  1  0
 29 27  1  0
 30 29  2  0
M  END
$$$$
