WMI.pdb
     RDKit          3D

 31 32  0  0  1  0  0  0  0  0999 V2000
   27.6466  -21.6282  -14.5117 N   0  0  0  0  0  0  0  0  0  0  0  0
   26.6610  -21.0084  -13.6584 C   0  0  1  0  0  0  0  0  0  0  0  0
   27.2635  -19.8521  -12.8907 C   0  0  0  0  0  0  0  0  0  0  0  0
   28.1198  -20.3819  -11.8053 C   0  0  0  0  0  0  0  0  0  0  0  0
   29.4152  -20.8053  -11.9675 C   0  0  0  0  0  0  0  0  0  0  0  0
   29.9013  -21.2290  -10.7637 N   0  0  0  0  0  0  0  0  0  0  0  0
   28.9308  -21.0791   -9.8430 C   0  0  0  0  0  0  0  0  0  0  0  0
   28.9367  -21.3631   -8.4985 C   0  0  0  0  0  0  0  0  0  0  0  0
   27.7917  -21.1111   -7.7734 C   0  0  0  0  0  0  0  0  0  0  0  0
   26.6488  -20.5837   -8.3644 C   0  0  0  0  0  0  0  0  0  0  0  0
   26.6754  -20.3088   -9.7198 C   0  0  0  0  0  0  0  0  0  0  0  0
   27.8054  -20.5490  -10.4768 C   0  0  0  0  0  0  0  0  0  0  0  0
   25.5005  -20.5930  -14.4685 C   0  0  0  0  0  0  0  0  0  0  0  0
   25.4011  -19.4649  -15.0100 O   0  0  0  0  0  0  0  0  0  0  0  0
   22.4225  -25.1427  -18.6285 C   0  0  0  0  0  0  0  0  0  0  0  0
   22.3744  -23.3415  -18.4272 S   0  0  0  0  0  0  0  0  0  0  0  0
   22.7197  -22.8701  -16.7063 C   0  0  0  0  0  0  0  0  0  0  0  0
   22.7706  -21.3703  -16.5362 C   0  0  0  0  0  0  0  0  0  0  0  0
   23.1377  -21.0422  -15.1358 C   0  0  2  0  0  0  0  0  0  0  0  0
   24.4099  -21.4652  -14.6840 N   0  0  0  0  0  0  0  0  0  0  0  0
   22.1156  -21.5155  -14.1576 C   0  0  0  0  0  0  0  0  0  0  0  0
   22.3183  -22.6742  -13.6759 O   0  0  0  0  0  0  0  0  0  0  0  0
   21.4005  -19.4069   -9.7219 C   0  0  0  0  0  0  0  0  0  0  0  0
   21.3528  -20.4539  -10.8163 C   0  0  0  0  0  0  0  0  0  0  0  0
   20.0458  -20.3938  -11.5724 C   0  0  2  0  0  0  0  0  0  0  0  0
   18.9361  -20.6119  -10.6027 C   0  0  0  0  0  0  0  0  0  0  0  0
   20.0263  -21.2590  -12.7804 C   0  0  2  0  0  0  0  0  0  0  0  0
   20.9947  -20.7639  -13.7706 N   0  0  0  0  0  0  0  0  0  0  0  0
   18.7330  -21.4196  -13.4436 C   0  0  0  0  0  0  0  0  0  0  0  0
   17.8511  -22.2503  -13.1126 O   0  0  0  0  0  0  0  0  0  0  0  0
   18.4321  -20.6024  -14.5246 O   0  0  0  0  0  0  0  0  0  0  0  0
  2  1  1  6
  2  3  1  0
  4  3  1  0
  5  4  2  0
  6  5  1  0
  7  6  1  0
  7 12  2  0
  8  7  1  0
  9  8  2  0
  9 10  1  0
 10 11  2  0
 11 12  1  0
 12  4  1  0
 13 20  1  0
 13  2  1  0
 14 13  2  0
 16 15  1  0
 17 16  1  0
 18 17  1  0
 19 18  1  6
 19 20  1  0
 21 19  1  0
 22 21  2  0
 23 24  1  0
 24 25  1  0
 25 26  1  1
 27 25  1  0
 27 28  1  6
 28 21  1  0
 29 31  1  0
 29 27  1  0
 30 29  2  0
M  END
$$$$
