WMI.pdb
     RDKit          3D

 31 32  0  0  1  0  0  0  0  0999 V2000
   24.8942  -17.9333  -15.8675 N   0  0  0  0  0  0  0  0  0  0  0  0
   25.9287  -18.3434  -14.9482 C   0  0  1  0  0  0  0  0  0  0  0  0
   26.6798  -17.1442  -14.4123 C   0  0  0  0  0  0  0  0  0  0  0  0
   27.3166  -16.4253  -15.5392 C   0  0  0  0  0  0  0  0  0  0  0  0
   27.1305  -15.0956  -15.8232 C   0  0  0  0  0  0  0  0  0  0  0  0
   27.8665  -14.7663  -16.9254 N   0  0  0  0  0  0  0  0  0  0  0  0
   28.5152  -15.8698  -17.3417 C   0  0  0  0  0  0  0  0  0  0  0  0
   29.3713  -16.0444  -18.4024 C   0  0  0  0  0  0  0  0  0  0  0  0
   29.9063  -17.2979  -18.6096 C   0  0  0  0  0  0  0  0  0  0  0  0
   29.6028  -18.3725  -17.7810 C   0  0  0  0  0  0  0  0  0  0  0  0
   28.7377  -18.1638  -16.7220 C   0  0  0  0  0  0  0  0  0  0  0  0
   28.1833  -16.9212  -16.4850 C   0  0  0  0  0  0  0  0  0  0  0  0
   25.3344  -19.1545  -13.8690 C   0  0  0  0  0  0  0  0  0  0  0  0
   24.2924  -18.8281  -13.2499 O   0  0  0  0  0  0  0  0  0  0  0  0
   26.3395  -24.4869  -15.0355 C   0  0  0  0  0  0  0  0  0  0  0  0
   24.6192  -23.9508  -15.2363 S   0  0  0  0  0  0  0  0  0  0  0  0
   24.1275  -22.8273  -13.8951 C   0  0  0  0  0  0  0  0  0  0  0  0
   25.2215  -22.6718  -12.8657 C   0  0  0  0  0  0  0  0  0  0  0  0
   25.3566  -21.2400  -12.4979 C   0  0  2  0  0  0  0  0  0  0  0  0
   25.9215  -20.3742  -13.4636 N   0  0  0  0  0  0  0  0  0  0  0  0
   26.0963  -21.0530  -11.2160 C   0  0  0  0  0  0  0  0  0  0  0  0
   27.3116  -21.4252  -11.2291 O   0  0  0  0  0  0  0  0  0  0  0  0
   29.2942  -20.1469   -7.3549 C   0  0  0  0  0  0  0  0  0  0  0  0
   28.1809  -21.0327   -7.8766 C   0  0  0  0  0  0  0  0  0  0  0  0
   26.9078  -20.2450   -8.0824 C   0  0  2  0  0  0  0  0  0  0  0  0
   26.5574  -19.5813   -6.7955 C   0  0  0  0  0  0  0  0  0  0  0  0
   25.8226  -21.0385   -8.7154 C   0  0  2  0  0  0  0  0  0  0  0  0
   25.5257  -20.5079  -10.0546 N   0  0  0  0  0  0  0  0  0  0  0  0
   24.5678  -21.1332   -7.9705 C   0  0  0  0  0  0  0  0  0  0  0  0
   24.4504  -21.6053   -6.8127 O   0  0  0  0  0  0  0  0  0  0  0  0
   23.4022  -20.6718   -8.5667 O   0  0  0  0  0  0  0  0  0  0  0  0
  2  1  1  6
  2  3  1  0
  4  3  1  0
  5  4  2  0
  6  5  1  0
  7  6  1  0
  7 12  2  0
  8  7  1  0
  9  8  2  0
  9 10  1  0
 10 11  2  0
 11 12  1  0
 12  4  1  0
 13 20  1  0
 13  2  1  0
 14 13  2  0
 16 15  1  0
 17 16  1  0
 18 17  1  0
 19 18  1  6
 19 20  1  0
 21 19  1  0
 22 21  2  0
 23 24  1  0
 24 25  1  0
 25 26  1  1
 27 25  1  0
 27 28  1  6
 28 21  1  0
 29 31  1  0
 29 27  1  0
 30 29  2  0
M  END
$$$$
