WMI.pdb
     RDKit          3D

 31 32  0  0  1  0  0  0  0  0999 V2000
   27.6522  -22.0607  -13.0802 N   0  0  0  0  0  0  0  0  0  0  0  0
   26.5902  -21.3431  -12.4164 C   0  0  1  0  0  0  0  0  0  0  0  0
   27.1117  -20.0703  -11.7861 C   0  0  0  0  0  0  0  0  0  0  0  0
   28.0645  -20.4164  -10.7069 C   0  0  0  0  0  0  0  0  0  0  0  0
   29.3380  -20.8861  -10.9093 C   0  0  0  0  0  0  0  0  0  0  0  0
   29.9335  -21.0999   -9.6991 N   0  0  0  0  0  0  0  0  0  0  0  0
   29.0537  -20.7716   -8.7347 C   0  0  0  0  0  0  0  0  0  0  0  0
   29.1845  -20.8141   -7.3674 C   0  0  0  0  0  0  0  0  0  0  0  0
   28.1129  -20.4165   -6.5968 C   0  0  0  0  0  0  0  0  0  0  0  0
   26.9211  -19.9801   -7.1648 C   0  0  0  0  0  0  0  0  0  0  0  0
   26.8214  -19.9492   -8.5441 C   0  0  0  0  0  0  0  0  0  0  0  0
   27.8752  -20.3405   -9.3467 C   0  0  0  0  0  0  0  0  0  0  0  0
   25.4992  -21.0823  -13.3742 C   0  0  0  0  0  0  0  0  0  0  0  0
   25.6772  -20.5636  -14.5034 O   0  0  0  0  0  0  0  0  0  0  0  0
   24.4380  -22.8679  -18.3226 C   0  0  0  0  0  0  0  0  0  0  0  0
   23.3364  -21.4600  -18.0195 S   0  0  0  0  0  0  0  0  0  0  0  0
   23.5368  -20.8303  -16.3265 C   0  0  0  0  0  0  0  0  0  0  0  0
   23.1960  -21.8794  -15.2950 C   0  0  0  0  0  0  0  0  0  0  0  0
   23.0781  -21.2421  -13.9596 C   0  0  2  0  0  0  0  0  0  0  0  0
   24.1603  -21.4108  -13.0641 N   0  0  0  0  0  0  0  0  0  0  0  0
   21.8244  -21.6363  -13.2537 C   0  0  0  0  0  0  0  0  0  0  0  0
   21.8684  -22.7531  -12.6482 O   0  0  0  0  0  0  0  0  0  0  0  0
   18.4716  -17.4370  -11.6145 C   0  0  0  0  0  0  0  0  0  0  0  0
   18.8228  -18.6780  -12.4100 C   0  0  0  0  0  0  0  0  0  0  0  0
   19.3469  -19.7729  -11.5100 C   0  0  2  0  0  0  0  0  0  0  0  0
   20.4926  -19.2265  -10.7301 C   0  0  0  0  0  0  0  0  0  0  0  0
   19.6044  -21.0488  -12.2269 C   0  0  2  0  0  0  0  0  0  0  0  0
   20.6571  -20.8563  -13.2359 N   0  0  0  0  0  0  0  0  0  0  0  0
   18.4528  -21.6720  -12.8780 C   0  0  0  0  0  0  0  0  0  0  0  0
   17.4174  -22.0675  -12.2875 O   0  0  0  0  0  0  0  0  0  0  0  0
   18.4813  -21.8510  -14.2543 O   0  0  0  0  0  0  0  0  0  0  0  0
  2  1  1  6
  2  3  1  0
  4  3  1  0
  5  4  2  0
  6  5  1  0
  7  6  1  0
  7 12  2  0
  8  7  1  0
  9  8  2  0
  9 10  1  0
 10 11  2  0
 11 12  1  0
 12  4  1  0
 13 20  1  0
 13  2  1  0
 14 13  2  0
 16 15  1  0
 17 16  1  0
 18 17  1  0
 19 18  1  6
 19 20  1  0
 21 19  1  0
 22 21  2  0
 23 24  1  0
 24 25  1  0
 25 26  1  6
 27 25  1  0
 27 28  1  6
 28 21  1  0
 29 31  1  0
 29 27  1  0
 30 29  2  0
M  END
$$$$
