WMI.pdb
     RDKit          3D

 31 32  0  0  1  0  0  0  0  0999 V2000
   26.3743  -20.6184  -15.8106 N   0  0  0  0  0  0  0  0  0  0  0  0
   26.2994  -19.7791  -14.6387 C   0  0  1  0  0  0  0  0  0  0  0  0
   25.2578  -18.6963  -14.8169 C   0  0  0  0  0  0  0  0  0  0  0  0
   25.6086  -17.8727  -15.9963 C   0  0  0  0  0  0  0  0  0  0  0  0
   24.7903  -17.6691  -17.0791 C   0  0  0  0  0  0  0  0  0  0  0  0
   25.4287  -16.8620  -17.9767 N   0  0  0  0  0  0  0  0  0  0  0  0
   26.6393  -16.5527  -17.4760 C   0  0  0  0  0  0  0  0  0  0  0  0
   27.6416  -15.7747  -18.0039 C   0  0  0  0  0  0  0  0  0  0  0  0
   28.8000  -15.6187  -17.2731 C   0  0  0  0  0  0  0  0  0  0  0  0
   28.9730  -16.2224  -16.0324 C   0  0  0  0  0  0  0  0  0  0  0  0
   27.9452  -16.9993  -15.5289 C   0  0  0  0  0  0  0  0  0  0  0  0
   26.7711  -17.1771  -16.2342 C   0  0  0  0  0  0  0  0  0  0  0  0
   26.0355  -20.6141  -13.4518 C   0  0  0  0  0  0  0  0  0  0  0  0
   25.3978  -21.6946  -13.4921 O   0  0  0  0  0  0  0  0  0  0  0  0
   26.5716  -19.1573   -6.4758 C   0  0  0  0  0  0  0  0  0  0  0  0
   27.0966  -20.8095   -7.0066 S   0  0  0  0  0  0  0  0  0  0  0  0
   26.2902  -21.2783   -8.5664 C   0  0  0  0  0  0  0  0  0  0  0  0
   26.8682  -20.5283   -9.7428 C   0  0  0  0  0  0  0  0  0  0  0  0
   26.1004  -20.8612  -10.9689 C   0  0  2  0  0  0  0  0  0  0  0  0
   26.4981  -20.2326  -12.1723 N   0  0  0  0  0  0  0  0  0  0  0  0
   24.6346  -20.6459  -10.7940 C   0  0  0  0  0  0  0  0  0  0  0  0
   24.2556  -19.4328  -10.8180 O   0  0  0  0  0  0  0  0  0  0  0  0
   21.3786  -22.0831  -14.2366 C   0  0  0  0  0  0  0  0  0  0  0  0
   21.9689  -21.3541  -13.0466 C   0  0  0  0  0  0  0  0  0  0  0  0
   21.5963  -22.0347  -11.7499 C   0  0  2  0  0  0  0  0  0  0  0  0
   20.1110  -22.1302  -11.6838 C   0  0  0  0  0  0  0  0  0  0  0  0
   22.2577  -21.4359  -10.5616 C   0  0  2  0  0  0  0  0  0  0  0  0
   23.7065  -21.6838  -10.6129 N   0  0  0  0  0  0  0  0  0  0  0  0
   21.7636  -21.8699   -9.2554 C   0  0  0  0  0  0  0  0  0  0  0  0
   20.7486  -21.4074   -8.6784 O   0  0  0  0  0  0  0  0  0  0  0  0
   22.4514  -22.8695   -8.5811 O   0  0  0  0  0  0  0  0  0  0  0  0
  2  1  1  6
  2  3  1  0
  4  3  1  0
  5  4  2  0
  6  5  1  0
  7  6  1  0
  7 12  2  0
  8  7  1  0
  9  8  2  0
  9 10  1  0
 10 11  2  0
 11 12  1  0
 12  4  1  0
 13 20  1  0
 13  2  1  0
 14 13  2  0
 16 15  1  0
 17 16  1  0
 18 17  1  0
 19 18  1  1
 19 20  1  0
 21 19  1  0
 22 21  2  0
 23 24  1  0
 24 25  1  0
 25 26  1  1
 27 25  1  0
 27 28  1  1
 28 21  1  0
 29 31  1  0
 29 27  1  0
 30 29  2  0
M  END
$$$$
