WMI.pdb
     RDKit          3D

 31 32  0  0  1  0  0  0  0  0999 V2000
   16.6966  -11.4557  -14.7679 N   0  0  0  0  0  0  0  0  0  0  0  0
   16.3943  -10.0671  -14.5152 C   0  0  1  0  0  0  0  0  0  0  0  0
   14.9102   -9.8054  -14.6506 C   0  0  0  0  0  0  0  0  0  0  0  0
   14.5727   -9.6461  -16.0835 C   0  0  0  0  0  0  0  0  0  0  0  0
   14.0199  -10.6256  -16.8700 C   0  0  0  0  0  0  0  0  0  0  0  0
   13.8419  -10.1376  -18.1330 N   0  0  0  0  0  0  0  0  0  0  0  0
   14.2747   -8.8632  -18.1552 C   0  0  0  0  0  0  0  0  0  0  0  0
   14.3039   -7.9577  -19.1886 C   0  0  0  0  0  0  0  0  0  0  0  0
   14.8064   -6.6986  -18.9388 C   0  0  0  0  0  0  0  0  0  0  0  0
   15.2769   -6.3311  -17.6829 C   0  0  0  0  0  0  0  0  0  0  0  0
   15.2337   -7.2656  -16.6640 C   0  0  0  0  0  0  0  0  0  0  0  0
   14.7369   -8.5363  -16.8790 C   0  0  0  0  0  0  0  0  0  0  0  0
   16.9066   -9.6863  -13.1855 C   0  0  0  0  0  0  0  0  0  0  0  0
   16.7789  -10.4020  -12.1622 O   0  0  0  0  0  0  0  0  0  0  0  0
   23.2183   -9.4437  -12.6734 C   0  0  0  0  0  0  0  0  0  0  0  0
   22.1367   -8.1799  -11.9521 S   0  0  0  0  0  0  0  0  0  0  0  0
   20.3902   -8.6636  -12.0889 C   0  0  0  0  0  0  0  0  0  0  0  0
   19.4655   -7.5490  -11.6606 C   0  0  0  0  0  0  0  0  0  0  0  0
   18.0586   -8.0175  -11.7302 C   0  0  2  0  0  0  0  0  0  0  0  0
   17.5863   -8.4634  -12.9870 N   0  0  0  0  0  0  0  0  0  0  0  0
   17.0985   -7.0034  -11.2055 C   0  0  0  0  0  0  0  0  0  0  0  0
   16.6011   -6.2226  -12.0764 O   0  0  0  0  0  0  0  0  0  0  0  0
   12.7588   -7.9738   -8.6915 C   0  0  0  0  0  0  0  0  0  0  0  0
   13.8483   -7.3049   -9.5050 C   0  0  0  0  0  0  0  0  0  0  0  0
   14.7017   -6.4066   -8.6400 C   0  0  2  0  0  0  0  0  0  0  0  0
   13.8065   -5.4335   -7.9535 C   0  0  0  0  0  0  0  0  0  0  0  0
   15.8577   -5.8189   -9.3656 C   0  0  2  0  0  0  0  0  0  0  0  0
   16.7435   -6.8876   -9.8520 N   0  0  0  0  0  0  0  0  0  0  0  0
   16.6676   -4.8534   -8.6238 C   0  0  0  0  0  0  0  0  0  0  0  0
   16.3428   -3.6612   -8.3995 O   0  0  0  0  0  0  0  0  0  0  0  0
   17.8939   -5.2616   -8.1173 O   0  0  0  0  0  0  0  0  0  0  0  0
  2  1  1  1
  2  3  1  0
  4  3  1  0
  5  4  2  0
  6  5  1  0
  7  6  1  0
  7 12  2  0
  8  7  1  0
  9  8  2  0
  9 10  1  0
 10 11  2  0
 11 12  1  0
 12  4  1  0
 13 20  1  0
 13  2  1  0
 14 13  2  0
 16 15  1  0
 17 16  1  0
 18 17  1  0
 19 18  1  6
 19 20  1  0
 21 19  1  0
 22 21  2  0
 23 24  1  0
 24 25  1  0
 25 26  1  6
 27 25  1  0
 27 28  1  1
 28 21  1  0
 29 31  1  0
 29 27  1  0
 30 29  2  0
M  END
$$$$
