WMI.pdb
     RDKit          3D

 31 32  0  0  1  0  0  0  0  0999 V2000
   26.9714  -20.4832  -13.4992 N   0  0  0  0  0  0  0  0  0  0  0  0
   25.8945  -20.1891  -12.5841 C   0  0  1  0  0  0  0  0  0  0  0  0
   24.5524  -20.4762  -13.2211 C   0  0  0  0  0  0  0  0  0  0  0  0
   24.2934  -19.4766  -14.2822 C   0  0  0  0  0  0  0  0  0  0  0  0
   25.2587  -18.9161  -15.0807 C   0  0  0  0  0  0  0  0  0  0  0  0
   24.6696  -18.0389  -15.9458 N   0  0  0  0  0  0  0  0  0  0  0  0
   23.3453  -18.0375  -15.7049 C   0  0  0  0  0  0  0  0  0  0  0  0
   22.3377  -17.3252  -16.3099 C   0  0  0  0  0  0  0  0  0  0  0  0
   21.0469  -17.5136  -15.8641 C   0  0  0  0  0  0  0  0  0  0  0  0
   20.7475  -18.3953  -14.8314 C   0  0  0  0  0  0  0  0  0  0  0  0
   21.7843  -19.0972  -14.2433 C   0  0  0  0  0  0  0  0  0  0  0  0
   23.0893  -18.9330  -14.6648 C   0  0  0  0  0  0  0  0  0  0  0  0
   26.0900  -20.9478  -11.3344 C   0  0  0  0  0  0  0  0  0  0  0  0
   26.2033  -22.1973  -11.2923 O   0  0  0  0  0  0  0  0  0  0  0  0
   28.1133  -19.4977   -4.6828 C   0  0  0  0  0  0  0  0  0  0  0  0
   28.2213  -18.6267   -6.2693 S   0  0  0  0  0  0  0  0  0  0  0  0
   26.9024  -19.1652   -7.3978 C   0  0  0  0  0  0  0  0  0  0  0  0
   27.0683  -20.6103   -7.8037 C   0  0  0  0  0  0  0  0  0  0  0  0
   26.0610  -20.9536   -8.8386 C   0  0  2  0  0  0  0  0  0  0  0  0
   26.1621  -20.2919  -10.0849 N   0  0  0  0  0  0  0  0  0  0  0  0
   24.6634  -20.7976   -8.3409 C   0  0  0  0  0  0  0  0  0  0  0  0
   24.1973  -19.6160   -8.3879 O   0  0  0  0  0  0  0  0  0  0  0  0
   20.7098  -23.7021   -9.9862 C   0  0  0  0  0  0  0  0  0  0  0  0
   21.5235  -22.5575   -9.4169 C   0  0  0  0  0  0  0  0  0  0  0  0
   21.5905  -22.6327   -7.9091 C   0  0  2  0  0  0  0  0  0  0  0  0
   20.1987  -22.6012   -7.3787 C   0  0  0  0  0  0  0  0  0  0  0  0
   22.5303  -21.6476   -7.3137 C   0  0  2  0  0  0  0  0  0  0  0  0
   23.8847  -21.8567   -7.8476 N   0  0  0  0  0  0  0  0  0  0  0  0
   22.6105  -21.6267   -5.8537 C   0  0  0  0  0  0  0  0  0  0  0  0
   23.5358  -22.1369   -5.1750 O   0  0  0  0  0  0  0  0  0  0  0  0
   21.5986  -21.0000   -5.1393 O   0  0  0  0  0  0  0  0  0  0  0  0
  2  1  1  6
  2  3  1  0
  4  3  1  0
  5  4  2  0
  6  5  1  0
  7  6  1  0
  7 12  2  0
  8  7  1  0
  9  8  2  0
  9 10  1  0
 10 11  2  0
 11 12  1  0
 12  4  1  0
 13 20  1  0
 13  2  1  0
 14 13  2  0
 16 15  1  0
 17 16  1  0
 18 17  1  0
 19 18  1  1
 19 20  1  0
 21 19  1  0
 22 21  2  0
 23 24  1  0
 24 25  1  0
 25 26  1  1
 27 25  1  0
 27 28  1  6
 28 21  1  0
 29 31  1  0
 29 27  1  0
 30 29  2  0
M  END
$$$$
