WMI.pdb
     RDKit          3D

 31 32  0  0  1  0  0  0  0  0999 V2000
   27.7450  -18.8454  -15.1193 N   0  0  0  0  0  0  0  0  0  0  0  0
   26.7724  -19.8643  -14.8042 C   0  0  1  0  0  0  0  0  0  0  0  0
   26.3855  -20.6417  -16.0432 C   0  0  0  0  0  0  0  0  0  0  0  0
   25.7268  -19.7286  -17.0049 C   0  0  0  0  0  0  0  0  0  0  0  0
   26.2863  -19.2960  -18.1810 C   0  0  0  0  0  0  0  0  0  0  0  0
   25.4056  -18.4689  -18.8176 N   0  0  0  0  0  0  0  0  0  0  0  0
   24.2973  -18.3731  -18.0598 C   0  0  0  0  0  0  0  0  0  0  0  0
   23.1397  -17.6636  -18.2727 C   0  0  0  0  0  0  0  0  0  0  0  0
   22.1436  -17.7399  -17.3229 C   0  0  0  0  0  0  0  0  0  0  0  0
   22.2831  -18.5076  -16.1719 C   0  0  0  0  0  0  0  0  0  0  0  0
   23.4605  -19.2098  -15.9873 C   0  0  0  0  0  0  0  0  0  0  0  0
   24.4792  -19.1562  -16.9184 C   0  0  0  0  0  0  0  0  0  0  0  0
   27.3036  -20.7396  -13.7423 C   0  0  0  0  0  0  0  0  0  0  0  0
   27.8535  -21.8457  -13.9660 O   0  0  0  0  0  0  0  0  0  0  0  0
   27.2847  -20.3626   -6.7975 C   0  0  0  0  0  0  0  0  0  0  0  0
   27.6440  -19.0238   -7.9662 S   0  0  0  0  0  0  0  0  0  0  0  0
   27.1866  -19.4988   -9.6598 C   0  0  0  0  0  0  0  0  0  0  0  0
   27.6746  -20.8861  -10.0032 C   0  0  0  0  0  0  0  0  0  0  0  0
   27.1178  -21.2968  -11.3165 C   0  0  2  0  0  0  0  0  0  0  0  0
   27.2197  -20.3706  -12.3809 N   0  0  0  0  0  0  0  0  0  0  0  0
   25.6953  -21.7348  -11.2154 C   0  0  0  0  0  0  0  0  0  0  0  0
   25.4749  -22.6863  -10.4019 O   0  0  0  0  0  0  0  0  0  0  0  0
   20.3197  -19.8260  -10.0285 C   0  0  0  0  0  0  0  0  0  0  0  0
   21.0362  -20.8993  -10.8229 C   0  0  0  0  0  0  0  0  0  0  0  0
   22.4873  -20.5390  -11.0419 C   0  0  2  0  0  0  0  0  0  0  0  0
   22.5444  -19.1694  -11.6253 C   0  0  0  0  0  0  0  0  0  0  0  0
   23.2474  -21.5846  -11.7747 C   0  0  2  0  0  0  0  0  0  0  0  0
   24.6451  -21.1618  -11.9503 N   0  0  0  0  0  0  0  0  0  0  0  0
   22.7189  -21.9766  -13.0807 C   0  0  0  0  0  0  0  0  0  0  0  0
   21.5569  -22.4051  -13.2893 O   0  0  0  0  0  0  0  0  0  0  0  0
   23.5450  -21.8761  -14.1917 O   0  0  0  0  0  0  0  0  0  0  0  0
  2  1  1  6
  2  3  1  0
  4  3  1  0
  5  4  2  0
  6  5  1  0
  7  6  1  0
  7 12  2  0
  8  7  1  0
  9  8  2  0
  9 10  1  0
 10 11  2  0
 11 12  1  0
 12  4  1  0
 13 20  1  0
 13  2  1  0
 14 13  2  0
 16 15  1  0
 17 16  1  0
 18 17  1  0
 19 18  1  1
 19 20  1  0
 21 19  1  0
 22 21  2  0
 23 24  1  0
 24 25  1  0
 25 26  1  6
 27 25  1  0
 27 28  1  6
 28 21  1  0
 29 31  1  0
 29 27  1  0
 30 29  2  0
M  END
$$$$
