KLF.pdb
     RDKit          3D

 29 29  0  0  1  0  0  0  0  0999 V2000
   27.6627  -18.4988  -14.3073 N   0  0  0  0  0  0  0  0  0  0  0  0
   27.1470  -19.6146  -15.0797 C   0  0  1  0  0  0  0  0  0  0  0  0
   28.2484  -20.4495  -15.6440 C   0  0  0  0  0  0  0  0  0  0  0  0
   28.6205  -19.9269  -17.0080 C   0  0  0  0  0  0  0  0  0  0  0  0
   29.2387  -18.5685  -16.9747 C   0  0  0  0  0  0  0  0  0  0  0  0
   29.5190  -18.1090  -18.4130 C   0  0  0  0  0  0  0  0  0  0  0  0
   29.0358  -16.7500  -18.6059 N   0  0  0  0  0  0  0  0  0  0  0  0
   26.2006  -20.4350  -14.2501 C   0  0  0  0  0  0  0  0  0  0  0  0
   25.8316  -21.5280  -14.7426 O   0  0  0  0  0  0  0  0  0  0  0  0
   26.8484  -21.9384  -10.2009 C   0  0  0  0  0  0  0  0  0  0  0  0
   26.3146  -20.4949  -10.1354 C   0  0  2  0  0  0  0  0  0  0  0  0
   26.3834  -20.1222   -8.6755 C   0  0  0  0  0  0  0  0  0  0  0  0
   24.9465  -20.5393  -10.7127 C   0  0  0  0  0  0  0  0  0  0  0  0
   24.8386  -20.7739  -12.1756 C   0  0  2  0  0  0  0  0  0  0  0  0
   25.7393  -20.0121  -12.9774 N   0  0  0  0  0  0  0  0  0  0  0  0
   23.4108  -20.5410  -12.5795 C   0  0  0  0  0  0  0  0  0  0  0  0
   22.8993  -19.3960  -12.6603 O   0  0  0  0  0  0  0  0  0  0  0  0
   22.5748  -21.6454  -12.8908 N   0  0  0  0  0  0  0  0  0  0  0  0
   21.1709  -21.4750  -13.2502 C   0  0  1  0  0  0  0  0  0  0  0  0
   20.5833  -22.7251  -13.8057 C   0  0  0  0  0  0  0  0  0  0  0  0
   19.1486  -22.6513  -14.1315 C   0  0  0  0  0  0  0  0  0  0  0  0
   18.1621  -23.0136  -13.2323 C   0  0  0  0  0  0  0  0  0  0  0  0
   16.8323  -22.9392  -13.5205 C   0  0  0  0  0  0  0  0  0  0  0  0
   16.3922  -22.4918  -14.7438 C   0  0  0  0  0  0  0  0  0  0  0  0
   17.3684  -22.1197  -15.6710 C   0  0  0  0  0  0  0  0  0  0  0  0
   18.7092  -22.2007  -15.3639 C   0  0  0  0  0  0  0  0  0  0  0  0
   20.4339  -21.0494  -12.0500 C   0  0  0  0  0  0  0  0  0  0  0  0
   20.7262  -21.6465  -10.8328 O   0  0  0  0  0  0  0  0  0  0  0  0
   19.5353  -20.1536  -12.0778 O   0  0  0  0  0  0  0  0  0  0  0  0
  2  1  1  1
  2  3  1  0
  3  4  1  0
  5  4  1  0
  5  6  1  0
  7  6  1  0
  8  9  2  0
  8  2  1  0
 11 10  1  1
 11 13  1  0
 12 11  1  0
 14 13  1  1
 14 16  1  0
 14 15  1  0
 15  8  1  0
 16 18  1  0
 17 16  2  0
 18 19  1  0
 19 20  1  1
 20 21  1  0
 21 26  2  0
 21 22  1  0
 22 23  2  0
 23 24  1  0
 25 24  2  0
 26 25  1  0
 27 19  1  0
 28 27  1  0
 29 27  2  0
M  END
$$$$
