KLF.pdb
     RDKit          3D

 29 29  0  0  1  0  0  0  0  0999 V2000
   18.9659  -13.5264  -19.2496 N   0  0  0  0  0  0  0  0  0  0  0  0
   19.8400  -12.4078  -19.5534 C   0  0  1  0  0  0  0  0  0  0  0  0
   19.3459  -11.6251  -20.7247 C   0  0  0  0  0  0  0  0  0  0  0  0
   17.9057  -11.9818  -20.9901 C   0  0  0  0  0  0  0  0  0  0  0  0
   17.7353  -12.9959  -22.0723 C   0  0  0  0  0  0  0  0  0  0  0  0
   16.2486  -13.0856  -22.4469 C   0  0  0  0  0  0  0  0  0  0  0  0
   16.0253  -14.2155  -23.3362 N   0  0  0  0  0  0  0  0  0  0  0  0
   20.0196  -11.5372  -18.3424 C   0  0  0  0  0  0  0  0  0  0  0  0
   18.9889  -10.9726  -17.9040 O   0  0  0  0  0  0  0  0  0  0  0  0
   24.3571  -10.3278  -14.0920 C   0  0  0  0  0  0  0  0  0  0  0  0
   22.9644   -9.9288  -14.6156 C   0  0  2  0  0  0  0  0  0  0  0  0
   22.0273  -10.1917  -13.4633 C   0  0  0  0  0  0  0  0  0  0  0  0
   22.7293  -10.7604  -15.8240 C   0  0  0  0  0  0  0  0  0  0  0  0
   21.4749  -10.5126  -16.5801 C   0  0  2  0  0  0  0  0  0  0  0  0
   21.2786  -11.3526  -17.7160 N   0  0  0  0  0  0  0  0  0  0  0  0
   21.4396   -9.0593  -16.9579 C   0  0  0  0  0  0  0  0  0  0  0  0
   22.0639   -8.5918  -17.9432 O   0  0  0  0  0  0  0  0  0  0  0  0
   20.6742   -8.1463  -16.1857 N   0  0  0  0  0  0  0  0  0  0  0  0
   20.5244   -6.7463  -16.5684 C   0  0  1  0  0  0  0  0  0  0  0  0
   19.6500   -6.5866  -17.7629 C   0  0  0  0  0  0  0  0  0  0  0  0
   19.3838   -5.1938  -18.1619 C   0  0  0  0  0  0  0  0  0  0  0  0
   20.3830   -4.2416  -18.2505 C   0  0  0  0  0  0  0  0  0  0  0  0
   20.1485   -2.9536  -18.6285 C   0  0  0  0  0  0  0  0  0  0  0  0
   18.8821   -2.5238  -18.9476 C   0  0  0  0  0  0  0  0  0  0  0  0
   17.8540   -3.4659  -18.8660 C   0  0  0  0  0  0  0  0  0  0  0  0
   18.1078   -4.7648  -18.4822 C   0  0  0  0  0  0  0  0  0  0  0  0
   19.9689   -6.0097  -15.4223 C   0  0  0  0  0  0  0  0  0  0  0  0
   20.3703   -4.7001  -15.2043 O   0  0  0  0  0  0  0  0  0  0  0  0
   19.1322   -6.5222  -14.6172 O   0  0  0  0  0  0  0  0  0  0  0  0
  2  1  1  1
  2  3  1  0
  3  4  1  0
  5  4  1  0
  5  6  1  0
  7  6  1  0
  8  9  2  0
  8  2  1  0
 11 10  1  1
 11 13  1  0
 12 11  1  0
 14 13  1  6
 14 16  1  0
 14 15  1  0
 15  8  1  0
 16 18  1  0
 17 16  2  0
 18 19  1  0
 19 20  1  6
 20 21  1  0
 21 26  2  0
 21 22  1  0
 22 23  2  0
 23 24  1  0
 25 24  2  0
 26 25  1  0
 27 19  1  0
 28 27  1  0
 29 27  2  0
M  END
$$$$
