KLF.pdb
     RDKit          3D

 29 29  0  0  1  0  0  0  0  0999 V2000
   22.8633  -20.6979   -8.1084 N   0  0  0  0  0  0  0  0  0  0  0  0
   24.1588  -21.1142   -8.6146 C   0  0  1  0  0  0  0  0  0  0  0  0
   24.1355  -21.3071  -10.0948 C   0  0  0  0  0  0  0  0  0  0  0  0
   22.8031  -21.8829  -10.5010 C   0  0  0  0  0  0  0  0  0  0  0  0
   21.9365  -20.9135  -11.2344 C   0  0  0  0  0  0  0  0  0  0  0  0
   20.6810  -21.6421  -11.7359 C   0  0  0  0  0  0  0  0  0  0  0  0
   19.8627  -20.7377  -12.5296 N   0  0  0  0  0  0  0  0  0  0  0  0
   25.2230  -20.1379   -8.2007 C   0  0  0  0  0  0  0  0  0  0  0  0
   25.0207  -18.9353   -8.4939 O   0  0  0  0  0  0  0  0  0  0  0  0
   27.1590  -18.7356   -4.6769 C   0  0  0  0  0  0  0  0  0  0  0  0
   27.7568  -20.1082   -5.0394 C   0  0  2  0  0  0  0  0  0  0  0  0
   28.6433  -20.4651   -3.8724 C   0  0  0  0  0  0  0  0  0  0  0  0
   28.4613  -19.9175   -6.3333 C   0  0  0  0  0  0  0  0  0  0  0  0
   27.6174  -19.7970   -7.5499 C   0  0  2  0  0  0  0  0  0  0  0  0
   26.3986  -20.5370   -7.5149 N   0  0  0  0  0  0  0  0  0  0  0  0
   28.4567  -20.1750   -8.7368 C   0  0  0  0  0  0  0  0  0  0  0  0
   29.6982  -20.3571   -8.6684 O   0  0  0  0  0  0  0  0  0  0  0  0
   27.8484  -20.3420  -10.0086 N   0  0  0  0  0  0  0  0  0  0  0  0
   28.6216  -20.6934  -11.1951 C   0  0  1  0  0  0  0  0  0  0  0  0
   29.1003  -22.1026  -11.1498 C   0  0  0  0  0  0  0  0  0  0  0  0
   30.3957  -22.3021  -10.4775 C   0  0  0  0  0  0  0  0  0  0  0  0
   30.5349  -23.0919   -9.3505 C   0  0  0  0  0  0  0  0  0  0  0  0
   31.7304  -23.2909   -8.7275 C   0  0  0  0  0  0  0  0  0  0  0  0
   32.8835  -22.7059   -9.1947 C   0  0  0  0  0  0  0  0  0  0  0  0
   32.7707  -21.9027  -10.3319 C   0  0  0  0  0  0  0  0  0  0  0  0
   31.5544  -21.7116  -10.9504 C   0  0  0  0  0  0  0  0  0  0  0  0
   27.7769  -20.4751  -12.3799 C   0  0  0  0  0  0  0  0  0  0  0  0
   28.3034  -20.7258  -13.6382 O   0  0  0  0  0  0  0  0  0  0  0  0
   26.5786  -20.0643  -12.3023 O   0  0  0  0  0  0  0  0  0  0  0  0
  2  1  1  6
  2  3  1  0
  3  4  1  0
  5  4  1  0
  5  6  1  0
  7  6  1  0
  8  9  2  0
  8  2  1  0
 11 10  1  1
 11 13  1  0
 12 11  1  0
 14 13  1  1
 14 16  1  0
 14 15  1  0
 15  8  1  0
 16 18  1  0
 17 16  2  0
 18 19  1  0
 19 20  1  1
 20 21  1  0
 21 26  2  0
 21 22  1  0
 22 23  2  0
 23 24  1  0
 25 24  2  0
 26 25  1  0
 27 19  1  0
 28 27  1  0
 29 27  2  0
M  END
$$$$
