KLF.pdb
     RDKit          3D

 29 29  0  0  1  0  0  0  0  0999 V2000
   26.8228  -17.9121  -15.6594 N   0  0  0  0  0  0  0  0  0  0  0  0
   26.5710  -19.1663  -16.3458 C   0  0  1  0  0  0  0  0  0  0  0  0
   27.4135  -19.3025  -17.5707 C   0  0  0  0  0  0  0  0  0  0  0  0
   27.7395  -17.9316  -18.1057 C   0  0  0  0  0  0  0  0  0  0  0  0
   26.5736  -17.2502  -18.7420 C   0  0  0  0  0  0  0  0  0  0  0  0
   26.7484  -17.2755  -20.2676 C   0  0  0  0  0  0  0  0  0  0  0  0
   25.6474  -16.5717  -20.9079 N   0  0  0  0  0  0  0  0  0  0  0  0
   26.7642  -20.3255  -15.4099 C   0  0  0  0  0  0  0  0  0  0  0  0
   26.6835  -21.4702  -15.9162 O   0  0  0  0  0  0  0  0  0  0  0  0
   30.2251  -21.6428  -13.5697 C   0  0  0  0  0  0  0  0  0  0  0  0
   29.6209  -20.5180  -12.7080 C   0  0  2  0  0  0  0  0  0  0  0  0
   30.6781  -20.2090  -11.6775 C   0  0  0  0  0  0  0  0  0  0  0  0
   28.3481  -21.0587  -12.1653 C   0  0  0  0  0  0  0  0  0  0  0  0
   27.2282  -21.2392  -13.1245 C   0  0  2  0  0  0  0  0  0  0  0  0
   27.0247  -20.1532  -14.0264 N   0  0  0  0  0  0  0  0  0  0  0  0
   25.9855  -21.5403  -12.3364 C   0  0  0  0  0  0  0  0  0  0  0  0
   25.8709  -22.5492  -11.5960 O   0  0  0  0  0  0  0  0  0  0  0  0
   24.8716  -20.6632  -12.4101 N   0  0  0  0  0  0  0  0  0  0  0  0
   23.6393  -20.9150  -11.6704 C   0  0  1  0  0  0  0  0  0  0  0  0
   23.4559  -19.9509  -10.5507 C   0  0  0  0  0  0  0  0  0  0  0  0
   24.3551  -20.1490   -9.4008 C   0  0  0  0  0  0  0  0  0  0  0  0
   25.4939  -19.3883   -9.2076 C   0  0  0  0  0  0  0  0  0  0  0  0
   26.3264  -19.5568   -8.1420 C   0  0  0  0  0  0  0  0  0  0  0  0
   26.0738  -20.5104   -7.1843 C   0  0  0  0  0  0  0  0  0  0  0  0
   24.9296  -21.2930   -7.3556 C   0  0  0  0  0  0  0  0  0  0  0  0
   24.0978  -21.1098   -8.4388 C   0  0  0  0  0  0  0  0  0  0  0  0
   22.5100  -20.8326  -12.6101 C   0  0  0  0  0  0  0  0  0  0  0  0
   21.2407  -21.1767  -12.1698 O   0  0  0  0  0  0  0  0  0  0  0  0
   22.6456  -20.4581  -13.8151 O   0  0  0  0  0  0  0  0  0  0  0  0
  2  1  1  1
  2  3  1  0
  3  4  1  0
  5  4  1  0
  5  6  1  0
  7  6  1  0
  8  9  2  0
  8  2  1  0
 11 10  1  6
 11 13  1  0
 12 11  1  0
 14 13  1  1
 14 16  1  0
 14 15  1  0
 15  8  1  0
 16 18  1  0
 17 16  2  0
 18 19  1  0
 19 20  1  1
 20 21  1  0
 21 26  2  0
 21 22  1  0
 22 23  2  0
 23 24  1  0
 25 24  2  0
 26 25  1  0
 27 19  1  0
 28 27  1  0
 29 27  2  0
M  END
$$$$
