KLF.pdb
     RDKit          3D

 29 29  0  0  1  0  0  0  0  0999 V2000
   23.7678  -22.6674  -15.2914 N   0  0  0  0  0  0  0  0  0  0  0  0
   24.5468  -23.5652  -14.4579 C   0  0  1  0  0  0  0  0  0  0  0  0
   25.1448  -24.6768  -15.2550 C   0  0  0  0  0  0  0  0  0  0  0  0
   24.0937  -25.2577  -16.1659 C   0  0  0  0  0  0  0  0  0  0  0  0
   23.2368  -26.2853  -15.5038 C   0  0  0  0  0  0  0  0  0  0  0  0
   23.1373  -27.5183  -16.4139 C   0  0  0  0  0  0  0  0  0  0  0  0
   21.7671  -27.6909  -16.8724 N   0  0  0  0  0  0  0  0  0  0  0  0
   25.5955  -22.8016  -13.7003 C   0  0  0  0  0  0  0  0  0  0  0  0
   26.6166  -23.4454  -13.3594 O   0  0  0  0  0  0  0  0  0  0  0  0
   28.0752  -19.2252  -14.5276 C   0  0  0  0  0  0  0  0  0  0  0  0
   26.6598  -18.7328  -14.1712 C   0  0  2  0  0  0  0  0  0  0  0  0
   26.7255  -17.2322  -14.3088 C   0  0  0  0  0  0  0  0  0  0  0  0
   26.3885  -19.2304  -12.7979 C   0  0  0  0  0  0  0  0  0  0  0  0
   26.4032  -20.7024  -12.5983 C   0  0  2  0  0  0  0  0  0  0  0  0
   25.4552  -21.4272  -13.3795 N   0  0  0  0  0  0  0  0  0  0  0  0
   26.2298  -20.9740  -11.1313 C   0  0  0  0  0  0  0  0  0  0  0  0
   25.1261  -21.2857  -10.6176 O   0  0  0  0  0  0  0  0  0  0  0  0
   27.3458  -20.8828  -10.2585 N   0  0  0  0  0  0  0  0  0  0  0  0
   27.2023  -20.9677   -8.8089 C   0  0  1  0  0  0  0  0  0  0  0  0
   28.3987  -20.4364   -8.0995 C   0  0  0  0  0  0  0  0  0  0  0  0
   28.2470  -20.2875   -6.6418 C   0  0  0  0  0  0  0  0  0  0  0  0
   27.7859  -19.1219   -6.0572 C   0  0  0  0  0  0  0  0  0  0  0  0
   27.6324  -18.9778   -4.7109 C   0  0  0  0  0  0  0  0  0  0  0  0
   27.9338  -20.0028   -3.8456 C   0  0  0  0  0  0  0  0  0  0  0  0
   28.4021  -21.1916   -4.4102 C   0  0  0  0  0  0  0  0  0  0  0  0
   28.5515  -21.3213   -5.7738 C   0  0  0  0  0  0  0  0  0  0  0  0
   25.9979  -20.2184   -8.4181 C   0  0  0  0  0  0  0  0  0  0  0  0
   25.1421  -20.7641   -7.4729 O   0  0  0  0  0  0  0  0  0  0  0  0
   25.7038  -19.0862   -8.9105 O   0  0  0  0  0  0  0  0  0  0  0  0
  2  1  1  6
  2  3  1  0
  3  4  1  0
  5  4  1  0
  5  6  1  0
  7  6  1  0
  8  9  2  0
  8  2  1  0
 11 10  1  1
 11 13  1  0
 12 11  1  0
 14 13  1  1
 14 16  1  0
 14 15  1  0
 15  8  1  0
 16 18  1  0
 17 16  2  0
 18 19  1  0
 19 20  1  1
 20 21  1  0
 21 26  2  0
 21 22  1  0
 22 23  2  0
 23 24  1  0
 25 24  2  0
 26 25  1  0
 27 19  1  0
 28 27  1  0
 29 27  2  0
M  END
$$$$
