KLF.pdb
     RDKit          3D

 29 29  0  0  1  0  0  0  0  0999 V2000
   27.5401  -20.3167  -15.7250 N   0  0  0  0  0  0  0  0  0  0  0  0
   26.9160  -19.4910  -14.7070 C   0  0  1  0  0  0  0  0  0  0  0  0
   26.2496  -18.2944  -15.3008 C   0  0  0  0  0  0  0  0  0  0  0  0
   27.1434  -17.7007  -16.3593 C   0  0  0  0  0  0  0  0  0  0  0  0
   26.6337  -17.9024  -17.7479 C   0  0  0  0  0  0  0  0  0  0  0  0
   27.5106  -17.1061  -18.7254 C   0  0  0  0  0  0  0  0  0  0  0  0
   28.9082  -17.4740  -18.5555 N   0  0  0  0  0  0  0  0  0  0  0  0
   25.9590  -20.3055  -13.8838 C   0  0  0  0  0  0  0  0  0  0  0  0
   25.2935  -21.1730  -14.4985 O   0  0  0  0  0  0  0  0  0  0  0  0
   27.3270  -21.7935  -10.2214 C   0  0  0  0  0  0  0  0  0  0  0  0
   26.5216  -20.5566   -9.7803 C   0  0  2  0  0  0  0  0  0  0  0  0
   26.7146  -20.4813   -8.2863 C   0  0  0  0  0  0  0  0  0  0  0  0
   25.1253  -20.7988  -10.2261 C   0  0  0  0  0  0  0  0  0  0  0  0
   24.8863  -20.8651  -11.6907 C   0  0  2  0  0  0  0  0  0  0  0  0
   25.8037  -20.1173  -12.4866 N   0  0  0  0  0  0  0  0  0  0  0  0
   23.4667  -20.4481  -11.9491 C   0  0  0  0  0  0  0  0  0  0  0  0
   22.9740  -19.3809  -11.5047 O   0  0  0  0  0  0  0  0  0  0  0  0
   22.6170  -21.2766  -12.7283 N   0  0  0  0  0  0  0  0  0  0  0  0
   21.3447  -20.7977  -13.2584 C   0  0  1  0  0  0  0  0  0  0  0  0
   21.5198  -20.0490  -14.5334 C   0  0  0  0  0  0  0  0  0  0  0  0
   20.2730  -19.5674  -15.1527 C   0  0  0  0  0  0  0  0  0  0  0  0
   19.7272  -20.1548  -16.2797 C   0  0  0  0  0  0  0  0  0  0  0  0
   18.5692  -19.7233  -16.8539 C   0  0  0  0  0  0  0  0  0  0  0  0
   17.8687  -18.6606  -16.3339 C   0  0  0  0  0  0  0  0  0  0  0  0
   18.3986  -18.0488  -15.1954 C   0  0  0  0  0  0  0  0  0  0  0  0
   19.5707  -18.4974  -14.6266 C   0  0  0  0  0  0  0  0  0  0  0  0
   20.4611  -21.9568  -13.4599 C   0  0  0  0  0  0  0  0  0  0  0  0
   19.1077  -21.8280  -13.1857 O   0  0  0  0  0  0  0  0  0  0  0  0
   20.8844  -23.0784  -13.8766 O   0  0  0  0  0  0  0  0  0  0  0  0
  2  1  1  6
  2  3  1  0
  3  4  1  0
  5  4  1  0
  5  6  1  0
  7  6  1  0
  8  9  2  0
  8  2  1  0
 11 10  1  1
 11 13  1  0
 12 11  1  0
 14 13  1  1
 14 16  1  0
 14 15  1  0
 15  8  1  0
 16 18  1  0
 17 16  2  0
 18 19  1  0
 19 20  1  6
 20 21  1  0
 21 26  2  0
 21 22  1  0
 22 23  2  0
 23 24  1  0
 25 24  2  0
 26 25  1  0
 27 19  1  0
 28 27  1  0
 29 27  2  0
M  END
$$$$
