KLF.pdb
     RDKit          3D

 29 29  0  0  1  0  0  0  0  0999 V2000
   24.9084  -18.2583  -15.0977 N   0  0  0  0  0  0  0  0  0  0  0  0
   25.1790  -19.2067  -16.1630 C   0  0  1  0  0  0  0  0  0  0  0  0
   25.8462  -18.5517  -17.3269 C   0  0  0  0  0  0  0  0  0  0  0  0
   25.2170  -17.2033  -17.5674 C   0  0  0  0  0  0  0  0  0  0  0  0
   25.7963  -16.4782  -18.7367 C   0  0  0  0  0  0  0  0  0  0  0  0
   25.1344  -15.0970  -18.8493 C   0  0  0  0  0  0  0  0  0  0  0  0
   25.6700  -14.3788  -19.9959 N   0  0  0  0  0  0  0  0  0  0  0  0
   25.9835  -20.3644  -15.6440 C   0  0  0  0  0  0  0  0  0  0  0  0
   26.2149  -21.2913  -16.4568 O   0  0  0  0  0  0  0  0  0  0  0  0
   28.8130  -19.4791  -13.3476 C   0  0  0  0  0  0  0  0  0  0  0  0
   28.6257  -20.6023  -12.3102 C   0  0  2  0  0  0  0  0  0  0  0  0
   29.9912  -20.7981  -11.7004 C   0  0  0  0  0  0  0  0  0  0  0  0
   28.0963  -21.7686  -13.0630 C   0  0  0  0  0  0  0  0  0  0  0  0
   26.7261  -21.6446  -13.6234 C   0  0  2  0  0  0  0  0  0  0  0  0
   26.4631  -20.4228  -14.3105 N   0  0  0  0  0  0  0  0  0  0  0  0
   25.7458  -21.8706  -12.5081 C   0  0  0  0  0  0  0  0  0  0  0  0
   26.0851  -22.2808  -11.3698 O   0  0  0  0  0  0  0  0  0  0  0  0
   24.3647  -21.6181  -12.7186 N   0  0  0  0  0  0  0  0  0  0  0  0
   23.4959  -21.1346  -11.6506 C   0  0  1  0  0  0  0  0  0  0  0  0
   23.9868  -19.8540  -11.0711 C   0  0  0  0  0  0  0  0  0  0  0  0
   24.6537  -19.9740   -9.7631 C   0  0  0  0  0  0  0  0  0  0  0  0
   24.1711  -20.7876   -8.7540 C   0  0  0  0  0  0  0  0  0  0  0  0
   24.7863  -20.9132   -7.5446 C   0  0  0  0  0  0  0  0  0  0  0  0
   25.9411  -20.2246   -7.2576 C   0  0  0  0  0  0  0  0  0  0  0  0
   26.4499  -19.3951   -8.2597 C   0  0  0  0  0  0  0  0  0  0  0  0
   25.8159  -19.2792   -9.4776 C   0  0  0  0  0  0  0  0  0  0  0  0
   22.1403  -20.9654  -12.1972 C   0  0  0  0  0  0  0  0  0  0  0  0
   21.9830  -20.3511  -13.4306 O   0  0  0  0  0  0  0  0  0  0  0  0
   21.0998  -21.3593  -11.5864 O   0  0  0  0  0  0  0  0  0  0  0  0
  2  1  1  1
  2  3  1  0
  3  4  1  0
  5  4  1  0
  5  6  1  0
  7  6  1  0
  8  9  2  0
  8  2  1  0
 11 10  1  6
 11 13  1  0
 12 11  1  0
 14 13  1  1
 14 16  1  0
 14 15  1  0
 15  8  1  0
 16 18  1  0
 17 16  2  0
 18 19  1  0
 19 20  1  6
 20 21  1  0
 21 26  2  0
 21 22  1  0
 22 23  2  0
 23 24  1  0
 25 24  2  0
 26 25  1  0
 27 19  1  0
 28 27  1  0
 29 27  2  0
M  END
$$$$
