KLF.pdb
     RDKit          3D

 29 29  0  0  1  0  0  0  0  0999 V2000
   29.3026  -35.7905  -20.4450 N   0  0  0  0  0  0  0  0  0  0  0  0
   28.0212  -35.1438  -20.2273 C   0  0  1  0  0  0  0  0  0  0  0  0
   26.8958  -35.9490  -20.7875 C   0  0  0  0  0  0  0  0  0  0  0  0
   26.3986  -35.2971  -22.0523 C   0  0  0  0  0  0  0  0  0  0  0  0
   25.0420  -35.7627  -22.4662 C   0  0  0  0  0  0  0  0  0  0  0  0
   24.6639  -35.0906  -23.7943 C   0  0  0  0  0  0  0  0  0  0  0  0
   23.3039  -35.4505  -24.1664 N   0  0  0  0  0  0  0  0  0  0  0  0
   27.8204  -34.8538  -18.7670 C   0  0  0  0  0  0  0  0  0  0  0  0
   28.3232  -35.6734  -17.9616 O   0  0  0  0  0  0  0  0  0  0  0  0
   29.1124  -31.4379  -16.3819 C   0  0  0  0  0  0  0  0  0  0  0  0
   27.8174  -31.0722  -17.1317 C   0  0  2  0  0  0  0  0  0  0  0  0
   27.6024  -29.6077  -16.8419 C   0  0  0  0  0  0  0  0  0  0  0  0
   26.7689  -31.9820  -16.6025 C   0  0  0  0  0  0  0  0  0  0  0  0
   26.9026  -33.4258  -16.9253 C   0  0  2  0  0  0  0  0  0  0  0  0
   27.1041  -33.7196  -18.3064 N   0  0  0  0  0  0  0  0  0  0  0  0
   25.6964  -34.1369  -16.3818 C   0  0  0  0  0  0  0  0  0  0  0  0
   24.5784  -34.1269  -16.9554 O   0  0  0  0  0  0  0  0  0  0  0  0
   25.7920  -34.8630  -15.1656 N   0  0  0  0  0  0  0  0  0  0  0  0
   24.6780  -35.6485  -14.6447 C   0  0  1  0  0  0  0  0  0  0  0  0
   25.1020  -36.5483  -13.5368 C   0  0  0  0  0  0  0  0  0  0  0  0
   24.0250  -37.3580  -12.9413 C   0  0  0  0  0  0  0  0  0  0  0  0
   23.3725  -36.9884  -11.7792 C   0  0  0  0  0  0  0  0  0  0  0  0
   22.3683  -37.7251  -11.2261 C   0  0  0  0  0  0  0  0  0  0  0  0
   21.9426  -38.8974  -11.8047 C   0  0  0  0  0  0  0  0  0  0  0  0
   22.5855  -39.2939  -12.9797 C   0  0  0  0  0  0  0  0  0  0  0  0
   23.5992  -38.5375  -13.5264 C   0  0  0  0  0  0  0  0  0  0  0  0
   23.6334  -34.7210  -14.1827 C   0  0  0  0  0  0  0  0  0  0  0  0
   24.0074  -33.4970  -13.6485 O   0  0  0  0  0  0  0  0  0  0  0  0
   22.3954  -34.9922  -14.2512 O   0  0  0  0  0  0  0  0  0  0  0  0
  2  1  1  1
  2  3  1  0
  3  4  1  0
  5  4  1  0
  5  6  1  0
  7  6  1  0
  8  9  2  0
  8  2  1  0
 11 10  1  1
 11 13  1  0
 12 11  1  0
 14 13  1  6
 14 16  1  0
 14 15  1  0
 15  8  1  0
 16 18  1  0
 17 16  2  0
 18 19  1  0
 19 20  1  1
 20 21  1  0
 21 26  2  0
 21 22  1  0
 22 23  2  0
 23 24  1  0
 25 24  2  0
 26 25  1  0
 27 19  1  0
 28 27  1  0
 29 27  2  0
M  END
$$$$
