KLF.pdb
     RDKit          3D

 29 29  0  0  1  0  0  0  0  0999 V2000
   27.5558  -22.3406  -16.7746 N   0  0  0  0  0  0  0  0  0  0  0  0
   27.2688  -21.1660  -15.9711 C   0  0  1  0  0  0  0  0  0  0  0  0
   27.1907  -19.9321  -16.8078 C   0  0  0  0  0  0  0  0  0  0  0  0
   27.8708  -20.1828  -18.1293 C   0  0  0  0  0  0  0  0  0  0  0  0
   29.1627  -19.4501  -18.2802 C   0  0  0  0  0  0  0  0  0  0  0  0
   29.1887  -18.7547  -19.6493 C   0  0  0  0  0  0  0  0  0  0  0  0
   30.4592  -18.0706  -19.8376 N   0  0  0  0  0  0  0  0  0  0  0  0
   26.0147  -21.3713  -15.1698 C   0  0  0  0  0  0  0  0  0  0  0  0
   25.1530  -22.1341  -15.6687 O   0  0  0  0  0  0  0  0  0  0  0  0
   25.2183  -20.6801   -9.4467 C   0  0  0  0  0  0  0  0  0  0  0  0
   25.1520  -21.4044  -10.8046 C   0  0  2  0  0  0  0  0  0  0  0  0
   26.5595  -21.8843  -11.0568 C   0  0  0  0  0  0  0  0  0  0  0  0
   24.6417  -20.4034  -11.7764 C   0  0  0  0  0  0  0  0  0  0  0  0
   24.5687  -20.8211  -13.2001 C   0  0  2  0  0  0  0  0  0  0  0  0
   25.8001  -20.7447  -13.9156 N   0  0  0  0  0  0  0  0  0  0  0  0
   23.4936  -20.0118  -13.8672 C   0  0  0  0  0  0  0  0  0  0  0  0
   23.5460  -18.7611  -13.9778 O   0  0  0  0  0  0  0  0  0  0  0  0
   22.3527  -20.6610  -14.4081 N   0  0  0  0  0  0  0  0  0  0  0  0
   21.3289  -19.9333  -15.1507 C   0  0  1  0  0  0  0  0  0  0  0  0
   21.2230  -20.4043  -16.5592 C   0  0  0  0  0  0  0  0  0  0  0  0
   20.8182  -21.8116  -16.7196 C   0  0  0  0  0  0  0  0  0  0  0  0
   19.4938  -22.2103  -16.7103 C   0  0  0  0  0  0  0  0  0  0  0  0
   19.1088  -23.5079  -16.8681 C   0  0  0  0  0  0  0  0  0  0  0  0
   20.0340  -24.5088  -17.0480 C   0  0  0  0  0  0  0  0  0  0  0  0
   21.3793  -24.1333  -17.0611 C   0  0  0  0  0  0  0  0  0  0  0  0
   21.7522  -22.8166  -16.9003 C   0  0  0  0  0  0  0  0  0  0  0  0
   20.0439  -20.1016  -14.4542 C   0  0  0  0  0  0  0  0  0  0  0  0
   18.9360  -19.3995  -14.9050 O   0  0  0  0  0  0  0  0  0  0  0  0
   19.9017  -20.8663  -13.4512 O   0  0  0  0  0  0  0  0  0  0  0  0
  2  1  1  6
  2  3  1  0
  3  4  1  0
  5  4  1  0
  5  6  1  0
  7  6  1  0
  8  9  2  0
  8  2  1  0
 11 10  1  1
 11 13  1  0
 12 11  1  0
 14 13  1  1
 14 16  1  0
 14 15  1  0
 15  8  1  0
 16 18  1  0
 17 16  2  0
 18 19  1  0
 19 20  1  6
 20 21  1  0
 21 26  2  0
 21 22  1  0
 22 23  2  0
 23 24  1  0
 25 24  2  0
 26 25  1  0
 27 19  1  0
 28 27  1  0
 29 27  2  0
M  END
$$$$
