KLF.pdb
     RDKit          3D

 29 29  0  0  1  0  0  0  0  0999 V2000
   22.4391  -22.1338  -15.1351 N   0  0  0  0  0  0  0  0  0  0  0  0
   22.4682  -21.2371  -13.9937 C   0  0  1  0  0  0  0  0  0  0  0  0
   21.2652  -21.4098  -13.1269 C   0  0  0  0  0  0  0  0  0  0  0  0
   20.3186  -20.2590  -13.3539 C   0  0  0  0  0  0  0  0  0  0  0  0
   20.0981  -19.9478  -14.7972 C   0  0  0  0  0  0  0  0  0  0  0  0
   19.3918  -18.5893  -14.9158 C   0  0  0  0  0  0  0  0  0  0  0  0
   19.1094  -18.2938  -16.3124 N   0  0  0  0  0  0  0  0  0  0  0  0
   23.7408  -21.4177  -13.2161 C   0  0  0  0  0  0  0  0  0  0  0  0
   23.9098  -22.5369  -12.6757 O   0  0  0  0  0  0  0  0  0  0  0  0
   28.1928  -21.0226  -14.2152 C   0  0  0  0  0  0  0  0  0  0  0  0
   27.5145  -19.6462  -14.0805 C   0  0  2  0  0  0  0  0  0  0  0  0
   28.5962  -18.6475  -14.4084 C   0  0  0  0  0  0  0  0  0  0  0  0
   26.9949  -19.5818  -12.6902 C   0  0  0  0  0  0  0  0  0  0  0  0
   25.9092  -20.5299  -12.3310 C   0  0  2  0  0  0  0  0  0  0  0  0
   24.7095  -20.3895  -13.0895 N   0  0  0  0  0  0  0  0  0  0  0  0
   25.6471  -20.3994  -10.8578 C   0  0  0  0  0  0  0  0  0  0  0  0
   24.7153  -19.7003  -10.3865 O   0  0  0  0  0  0  0  0  0  0  0  0
   26.4730  -21.0858   -9.9291 N   0  0  0  0  0  0  0  0  0  0  0  0
   26.3374  -20.8983   -8.4884 C   0  0  1  0  0  0  0  0  0  0  0  0
   27.4243  -21.5812   -7.7340 C   0  0  0  0  0  0  0  0  0  0  0  0
   28.0340  -20.7839   -6.6557 C   0  0  0  0  0  0  0  0  0  0  0  0
   27.4373  -20.6276   -5.4178 C   0  0  0  0  0  0  0  0  0  0  0  0
   27.9980  -19.9009   -4.4107 C   0  0  0  0  0  0  0  0  0  0  0  0
   29.2095  -19.2720   -4.5748 C   0  0  0  0  0  0  0  0  0  0  0  0
   29.8338  -19.4136   -5.8164 C   0  0  0  0  0  0  0  0  0  0  0  0
   29.2536  -20.1522   -6.8245 C   0  0  0  0  0  0  0  0  0  0  0  0
   26.3447  -19.4542   -8.2066 C   0  0  0  0  0  0  0  0  0  0  0  0
   25.4891  -18.9527   -7.2371 O   0  0  0  0  0  0  0  0  0  0  0  0
   27.1043  -18.6398   -8.8152 O   0  0  0  0  0  0  0  0  0  0  0  0
  2  1  1  6
  2  3  1  0
  3  4  1  0
  5  4  1  0
  5  6  1  0
  7  6  1  0
  8  9  2  0
  8  2  1  0
 11 10  1  1
 11 13  1  0
 12 11  1  0
 14 13  1  6
 14 16  1  0
 14 15  1  0
 15  8  1  0
 16 18  1  0
 17 16  2  0
 18 19  1  0
 19 20  1  1
 20 21  1  0
 21 26  2  0
 21 22  1  0
 22 23  2  0
 23 24  1  0
 25 24  2  0
 26 25  1  0
 27 19  1  0
 28 27  1  0
 29 27  2  0
M  END
$$$$
