WCR.pdb
     RDKit          3D

 32 33  0  0  1  0  0  0  0  0999 V2000
   27.0451  -18.8937  -11.3080 N   0  0  0  0  0  0  0  0  0  0  0  0
   27.0321  -20.3367  -11.5999 C   0  0  1  0  0  0  0  0  0  0  0  0
   26.3107  -20.9725  -10.4359 C   0  0  0  0  0  0  0  0  0  0  0  0
   26.8071  -20.5575   -9.1191 C   0  0  0  0  0  0  0  0  0  0  0  0
   26.1391  -19.8095   -8.1724 C   0  0  0  0  0  0  0  0  0  0  0  0
   26.9351  -19.6460   -7.1063 N   0  0  0  0  0  0  0  0  0  0  0  0
   28.1163  -20.2565   -7.2983 C   0  0  0  0  0  0  0  0  0  0  0  0
   29.2441  -20.3777   -6.5200 C   0  0  0  0  0  0  0  0  0  0  0  0
   30.3061  -21.0883   -7.0277 C   0  0  0  0  0  0  0  0  0  0  0  0
   30.2436  -21.6622   -8.2782 C   0  0  0  0  0  0  0  0  0  0  0  0
   29.1152  -21.5347   -9.0444 C   0  0  0  0  0  0  0  0  0  0  0  0
   28.0459  -20.8334   -8.5628 C   0  0  0  0  0  0  0  0  0  0  0  0
   26.4094  -20.6088  -12.8908 C   0  0  0  0  0  0  0  0  0  0  0  0
   25.6686  -19.7560  -13.4227 O   0  0  0  0  0  0  0  0  0  0  0  0
   26.6358  -21.8361  -13.5523 N   0  0  0  0  0  0  0  0  0  0  0  0
   25.9944  -22.0840  -14.8271 C   0  0  1  0  0  0  0  0  0  0  0  0
   26.9700  -22.8631  -15.6835 C   0  0  0  0  0  0  0  0  0  0  0  0
   28.6799  -22.5827  -15.1176 S   0  0  0  0  0  0  0  0  0  0  0  0
   24.7723  -22.9322  -14.6072 C   0  0  0  0  0  0  0  0  0  0  0  0
   24.7795  -23.7779  -13.6781 O   0  0  0  0  0  0  0  0  0  0  0  0
   18.4034  -22.8688  -10.2954 N   0  0  0  0  0  0  0  0  0  0  0  0
   18.9496  -24.0289  -10.9157 C   0  0  0  0  0  0  0  0  0  0  0  0
   18.9103  -25.1710  -10.3376 N   0  0  0  0  0  0  0  0  0  0  0  0
   19.5488  -23.9026  -12.2041 N   0  0  0  0  0  0  0  0  0  0  0  0
   19.6365  -22.5829  -12.8451 C   0  0  0  0  0  0  0  0  0  0  0  0
   20.0630  -22.7557  -14.2726 C   0  0  0  0  0  0  0  0  0  0  0  0
   21.4638  -22.3795  -14.5753 C   0  0  0  0  0  0  0  0  0  0  0  0
   22.3437  -23.4325  -15.1340 C   0  0  2  0  0  0  0  0  0  0  0  0
   23.6357  -22.7976  -15.4121 N   0  0  0  0  0  0  0  0  0  0  0  0
   21.8062  -24.0763  -16.3543 C   0  0  0  0  0  0  0  0  0  0  0  0
   21.9553  -23.6270  -17.5039 O   0  0  0  0  0  0  0  0  0  0  0  0
   21.0935  -25.2524  -16.2039 O   0  0  0  0  0  0  0  0  0  0  0  0
  2  1  1  1
  3  4  1  0
  3  2  1  0
  4  5  2  0
  5  6  1  0
  7  8  2  0
  7  6  1  0
  9  8  1  0
 10  9  2  0
 11 10  1  0
 11 12  2  0
 12  4  1  0
 12  7  1  0
 13  2  1  0
 13 14  2  0
 15 13  1  0
 16 15  1  0
 16 17  1  6
 18 17  1  0
 19 16  1  0
 20 19  2  0
 22 21  1  0
 22 23  2  0
 24 22  1  0
 25 24  1  0
 26 25  1  0
 28 27  1  6
 27 26  1  0
 28 29  1  0
 29 19  1  0
 30 28  1  0
 30 32  1  0
 31 30  2  0
M  END
$$$$
