WCR.pdb
     RDKit          3D

 32 33  0  0  1  0  0  0  0  0999 V2000
   27.9223  -23.4224  -12.9283 N   0  0  0  0  0  0  0  0  0  0  0  0
   27.6067  -22.2292  -12.1255 C   0  0  1  0  0  0  0  0  0  0  0  0
   28.4193  -21.1122  -12.7349 C   0  0  0  0  0  0  0  0  0  0  0  0
   29.8692  -21.2584  -12.5642 C   0  0  0  0  0  0  0  0  0  0  0  0
   30.8396  -21.1547  -13.5386 C   0  0  0  0  0  0  0  0  0  0  0  0
   32.0412  -21.3537  -12.9787 N   0  0  0  0  0  0  0  0  0  0  0  0
   31.9177  -21.5878  -11.6616 C   0  0  0  0  0  0  0  0  0  0  0  0
   32.8331  -21.8439  -10.6671 C   0  0  0  0  0  0  0  0  0  0  0  0
   32.3619  -22.0423   -9.3907 C   0  0  0  0  0  0  0  0  0  0  0  0
   31.0136  -21.9865   -9.1149 C   0  0  0  0  0  0  0  0  0  0  0  0
   30.1113  -21.7309  -10.1135 C   0  0  0  0  0  0  0  0  0  0  0  0
   30.5540  -21.5301  -11.3905 C   0  0  0  0  0  0  0  0  0  0  0  0
   26.1718  -21.9662  -12.1120 C   0  0  0  0  0  0  0  0  0  0  0  0
   25.4293  -22.4907  -12.9680 O   0  0  0  0  0  0  0  0  0  0  0  0
   25.6069  -21.1178  -11.1342 N   0  0  0  0  0  0  0  0  0  0  0  0
   24.1663  -21.0518  -10.9987 C   0  0  1  0  0  0  0  0  0  0  0  0
   23.8618  -20.1849   -9.7953 C   0  0  0  0  0  0  0  0  0  0  0  0
   22.0608  -20.0313   -9.5597 S   0  0  0  0  0  0  0  0  0  0  0  0
   23.5863  -20.3920  -12.2191 C   0  0  0  0  0  0  0  0  0  0  0  0
   24.1284  -19.3479  -12.6602 O   0  0  0  0  0  0  0  0  0  0  0  0
   18.9552  -25.1874  -15.6361 N   0  0  0  0  0  0  0  0  0  0  0  0
   17.9745  -24.4790  -14.8843 C   0  0  0  0  0  0  0  0  0  0  0  0
   16.7387  -24.8124  -14.9250 N   0  0  0  0  0  0  0  0  0  0  0  0
   18.3896  -23.3795  -14.0754 N   0  0  0  0  0  0  0  0  0  0  0  0
   19.8133  -23.0220  -13.9999 C   0  0  0  0  0  0  0  0  0  0  0  0
   20.0916  -21.9020  -14.9578 C   0  0  0  0  0  0  0  0  0  0  0  0
   21.4834  -21.3941  -14.9664 C   0  0  0  0  0  0  0  0  0  0  0  0
   21.8113  -20.2968  -14.0264 C   0  0  2  0  0  0  0  0  0  0  0  0
   22.4625  -20.9156  -12.8677 N   0  0  0  0  0  0  0  0  0  0  0  0
   20.6366  -19.5020  -13.6010 C   0  0  0  0  0  0  0  0  0  0  0  0
   20.1204  -18.5996  -14.2829 O   0  0  0  0  0  0  0  0  0  0  0  0
   20.0793  -19.7829  -12.3664 O   0  0  0  0  0  0  0  0  0  0  0  0
  2  1  1  6
  3  4  1  0
  3  2  1  0
  4  5  2  0
  5  6  1  0
  7  8  2  0
  7  6  1  0
  9  8  1  0
 10  9  2  0
 11 10  1  0
 11 12  2  0
 12  4  1  0
 12  7  1  0
 13  2  1  0
 13 14  2  0
 15 13  1  0
 16 15  1  0
 16 17  1  1
 18 17  1  0
 19 16  1  0
 20 19  2  0
 22 21  1  0
 22 23  2  0
 24 22  1  0
 25 24  1  0
 26 25  1  0
 28 27  1  6
 27 26  1  0
 28 29  1  0
 29 19  1  0
 30 28  1  0
 30 32  1  0
 31 30  2  0
M  END
$$$$
