WCR.pdb
     RDKit          3D

 32 33  0  0  1  0  0  0  0  0999 V2000
   24.9368  -20.8567  -14.8353 N   0  0  0  0  0  0  0  0  0  0  0  0
   24.5666  -20.8413  -13.4104 C   0  0  1  0  0  0  0  0  0  0  0  0
   25.2087  -19.5972  -12.8450 C   0  0  0  0  0  0  0  0  0  0  0  0
   26.6728  -19.5781  -12.9388 C   0  0  0  0  0  0  0  0  0  0  0  0
   27.4440  -18.8470  -13.8179 C   0  0  0  0  0  0  0  0  0  0  0  0
   28.7376  -19.1075  -13.5820 N   0  0  0  0  0  0  0  0  0  0  0  0
   28.8682  -19.9877  -12.5755 C   0  0  0  0  0  0  0  0  0  0  0  0
   29.9626  -20.5602  -11.9696 C   0  0  0  0  0  0  0  0  0  0  0  0
   29.7421  -21.4445  -10.9400 C   0  0  0  0  0  0  0  0  0  0  0  0
   28.4639  -21.7487  -10.5269 C   0  0  0  0  0  0  0  0  0  0  0  0
   27.3817  -21.1725  -11.1379 C   0  0  0  0  0  0  0  0  0  0  0  0
   27.5739  -20.2903  -12.1635 C   0  0  0  0  0  0  0  0  0  0  0  0
   23.1182  -20.8786  -13.2405 C   0  0  0  0  0  0  0  0  0  0  0  0
   22.4649  -19.8159  -13.1864 O   0  0  0  0  0  0  0  0  0  0  0  0
   22.4396  -22.1129  -13.1352 N   0  0  0  0  0  0  0  0  0  0  0  0
   21.0100  -22.1191  -12.9025 C   0  0  1  0  0  0  0  0  0  0  0  0
   20.3290  -22.1407  -14.2545 C   0  0  0  0  0  0  0  0  0  0  0  0
   21.2131  -21.0650  -15.4309 S   0  0  0  0  0  0  0  0  0  0  0  0
   20.6366  -23.3734  -12.1619 C   0  0  0  0  0  0  0  0  0  0  0  0
   20.9233  -24.4863  -12.6697 O   0  0  0  0  0  0  0  0  0  0  0  0
   15.5867  -23.3306   -5.1760 N   0  0  0  0  0  0  0  0  0  0  0  0
   15.4528  -24.5572   -5.8875 C   0  0  0  0  0  0  0  0  0  0  0  0
   14.3000  -25.0451   -6.1577 N   0  0  0  0  0  0  0  0  0  0  0  0
   16.6323  -25.2451   -6.3007 N   0  0  0  0  0  0  0  0  0  0  0  0
   17.8226  -24.4821   -6.7027 C   0  0  0  0  0  0  0  0  0  0  0  0
   18.3261  -25.0087   -8.0136 C   0  0  0  0  0  0  0  0  0  0  0  0
   18.9334  -24.0055   -8.9191 C   0  0  0  0  0  0  0  0  0  0  0  0
   19.5303  -24.5032  -10.1806 C   0  0  2  0  0  0  0  0  0  0  0  0
   19.9810  -23.3243  -10.9267 N   0  0  0  0  0  0  0  0  0  0  0  0
   18.6041  -25.3164  -11.0011 C   0  0  0  0  0  0  0  0  0  0  0  0
   17.6844  -24.8434  -11.6912 O   0  0  0  0  0  0  0  0  0  0  0  0
   18.7743  -26.6892  -10.9986 O   0  0  0  0  0  0  0  0  0  0  0  0
  2  1  1  6
  3  4  1  0
  3  2  1  0
  4  5  2  0
  5  6  1  0
  7  8  2  0
  7  6  1  0
  9  8  1  0
 10  9  2  0
 11 10  1  0
 11 12  2  0
 12  4  1  0
 12  7  1  0
 13  2  1  0
 13 14  2  0
 15 13  1  0
 16 15  1  0
 16 17  1  6
 18 17  1  0
 19 16  1  0
 20 19  2  0
 22 21  1  0
 22 23  2  0
 24 22  1  0
 25 24  1  0
 26 25  1  0
 28 27  1  1
 27 26  1  0
 28 29  1  0
 29 19  1  0
 30 28  1  0
 30 32  1  0
 31 30  2  0
M  END
$$$$
