WCR.pdb
     RDKit          3D

 32 33  0  0  1  0  0  0  0  0999 V2000
   26.9647  -18.4475   -9.2455 N   0  0  0  0  0  0  0  0  0  0  0  0
   27.0324  -19.8739   -9.6036 C   0  0  1  0  0  0  0  0  0  0  0  0
   26.4428  -20.6095   -8.4243 C   0  0  0  0  0  0  0  0  0  0  0  0
   26.8017  -20.0433   -7.1192 C   0  0  0  0  0  0  0  0  0  0  0  0
   26.2071  -18.9759   -6.4797 C   0  0  0  0  0  0  0  0  0  0  0  0
   26.8258  -18.7711   -5.3083 N   0  0  0  0  0  0  0  0  0  0  0  0
   27.8164  -19.6614   -5.1332 C   0  0  0  0  0  0  0  0  0  0  0  0
   28.7227  -19.8648   -4.1185 C   0  0  0  0  0  0  0  0  0  0  0  0
   29.6270  -20.8915   -4.2561 C   0  0  0  0  0  0  0  0  0  0  0  0
   29.6262  -21.6930   -5.3761 C   0  0  0  0  0  0  0  0  0  0  0  0
   28.7189  -21.4808   -6.3803 C   0  0  0  0  0  0  0  0  0  0  0  0
   27.8097  -20.4670   -6.2679 C   0  0  0  0  0  0  0  0  0  0  0  0
   26.3397  -20.1364  -10.8603 C   0  0  0  0  0  0  0  0  0  0  0  0
   25.1785  -19.7128  -11.0374 O   0  0  0  0  0  0  0  0  0  0  0  0
   26.9715  -20.8707  -11.8883 N   0  0  0  0  0  0  0  0  0  0  0  0
   26.3950  -20.8714  -13.2171 C   0  0  1  0  0  0  0  0  0  0  0  0
   27.5187  -21.1219  -14.2003 C   0  0  0  0  0  0  0  0  0  0  0  0
   26.8676  -21.2247  -15.8998 S   0  0  0  0  0  0  0  0  0  0  0  0
   25.4078  -22.0006  -13.3254 C   0  0  0  0  0  0  0  0  0  0  0  0
   25.4743  -22.9462  -12.5008 O   0  0  0  0  0  0  0  0  0  0  0  0
   18.8894  -21.8281   -9.1326 N   0  0  0  0  0  0  0  0  0  0  0  0
   19.0759  -23.1779   -9.5477 C   0  0  0  0  0  0  0  0  0  0  0  0
   18.5608  -24.1506   -8.8931 N   0  0  0  0  0  0  0  0  0  0  0  0
   19.8532  -23.4373  -10.7155 N   0  0  0  0  0  0  0  0  0  0  0  0
   20.5057  -22.3264  -11.4230 C   0  0  0  0  0  0  0  0  0  0  0  0
   21.1627  -22.8512  -12.6648 C   0  0  0  0  0  0  0  0  0  0  0  0
   22.4792  -22.2574  -12.9959 C   0  0  0  0  0  0  0  0  0  0  0  0
   23.1564  -22.7474  -14.2193 C   0  0  2  0  0  0  0  0  0  0  0  0
   24.4238  -22.0172  -14.3199 N   0  0  0  0  0  0  0  0  0  0  0  0
   22.3576  -22.5773  -15.4544 C   0  0  0  0  0  0  0  0  0  0  0  0
   21.6641  -23.4734  -15.9660 O   0  0  0  0  0  0  0  0  0  0  0  0
   22.3858  -21.3423  -16.0771 O   0  0  0  0  0  0  0  0  0  0  0  0
  2  1  1  1
  3  4  1  0
  3  2  1  0
  4  5  2  0
  5  6  1  0
  7  8  2  0
  7  6  1  0
  9  8  1  0
 10  9  2  0
 11 10  1  0
 11 12  2  0
 12  4  1  0
 12  7  1  0
 13  2  1  0
 13 14  2  0
 15 13  1  0
 16 15  1  0
 16 17  1  6
 18 17  1  0
 19 16  1  0
 20 19  2  0
 22 21  1  0
 22 23  2  0
 24 22  1  0
 25 24  1  0
 26 25  1  0
 28 27  1  1
 27 26  1  0
 28 29  1  0
 29 19  1  0
 30 28  1  0
 30 32  1  0
 31 30  2  0
M  END
$$$$
