WCR.pdb
     RDKit          3D

 32 33  0  0  1  0  0  0  0  0999 V2000
   27.1187  -20.3161  -12.7121 N   0  0  0  0  0  0  0  0  0  0  0  0
   25.8540  -20.0611  -13.4213 C   0  0  1  0  0  0  0  0  0  0  0  0
   26.1557  -20.3152  -14.8786 C   0  0  0  0  0  0  0  0  0  0  0  0
   27.0335  -19.3150  -15.4964 C   0  0  0  0  0  0  0  0  0  0  0  0
   28.2641  -19.5306  -16.0806 C   0  0  0  0  0  0  0  0  0  0  0  0
   28.7446  -18.3613  -16.5265 N   0  0  0  0  0  0  0  0  0  0  0  0
   27.8833  -17.3640  -16.2651 C   0  0  0  0  0  0  0  0  0  0  0  0
   27.9138  -16.0118  -16.5164 C   0  0  0  0  0  0  0  0  0  0  0  0
   26.8416  -15.2544  -16.1074 C   0  0  0  0  0  0  0  0  0  0  0  0
   25.7685  -15.8314  -15.4651 C   0  0  0  0  0  0  0  0  0  0  0  0
   25.7494  -17.1790  -15.2201 C   0  0  0  0  0  0  0  0  0  0  0  0
   26.8027  -17.9539  -15.6165 C   0  0  0  0  0  0  0  0  0  0  0  0
   24.7766  -20.8922  -12.8952 C   0  0  0  0  0  0  0  0  0  0  0  0
   25.0404  -21.9034  -12.2118 O   0  0  0  0  0  0  0  0  0  0  0  0
   23.4268  -20.5648  -13.1519 N   0  0  0  0  0  0  0  0  0  0  0  0
   22.3776  -21.4010  -12.6062 C   0  0  1  0  0  0  0  0  0  0  0  0
   22.2322  -21.0503  -11.1406 C   0  0  0  0  0  0  0  0  0  0  0  0
   21.9436  -19.2618  -10.9387 S   0  0  0  0  0  0  0  0  0  0  0  0
   21.0827  -21.0839  -13.3018 C   0  0  0  0  0  0  0  0  0  0  0  0
   20.7644  -19.8806  -13.4728 O   0  0  0  0  0  0  0  0  0  0  0  0
   22.6700  -25.4686  -14.6168 N   0  0  0  0  0  0  0  0  0  0  0  0
   21.4807  -25.7437  -13.8827 C   0  0  0  0  0  0  0  0  0  0  0  0
   21.5278  -26.2697  -12.7160 N   0  0  0  0  0  0  0  0  0  0  0  0
   20.2205  -25.4229  -14.4693 N   0  0  0  0  0  0  0  0  0  0  0  0
   20.1341  -25.1350  -15.9080 C   0  0  0  0  0  0  0  0  0  0  0  0
   19.8559  -23.6741  -16.1024 C   0  0  0  0  0  0  0  0  0  0  0  0
   18.7481  -23.1170  -15.2914 C   0  0  0  0  0  0  0  0  0  0  0  0
   19.0164  -21.8655  -14.5449 C   0  0  2  0  0  0  0  0  0  0  0  0
   20.2324  -22.0966  -13.7590 N   0  0  0  0  0  0  0  0  0  0  0  0
   17.9017  -21.4414  -13.6674 C   0  0  0  0  0  0  0  0  0  0  0  0
   17.9569  -21.4292  -12.4254 O   0  0  0  0  0  0  0  0  0  0  0  0
   16.7250  -21.0329  -14.2693 O   0  0  0  0  0  0  0  0  0  0  0  0
  2  1  1  1
  3  4  1  0
  3  2  1  0
  4  5  2  0
  5  6  1  0
  7  8  2  0
  7  6  1  0
  9  8  1  0
 10  9  2  0
 11 10  1  0
 11 12  2  0
 12  4  1  0
 12  7  1  0
 13  2  1  0
 13 14  2  0
 15 13  1  0
 16 15  1  0
 16 17  1  1
 18 17  1  0
 19 16  1  0
 20 19  2  0
 22 21  1  0
 22 23  2  0
 24 22  1  0
 25 24  1  0
 26 25  1  0
 28 27  1  1
 27 26  1  0
 28 29  1  0
 29 19  1  0
 30 28  1  0
 30 32  1  0
 31 30  2  0
M  END
$$$$
