WCR.pdb
     RDKit          3D

 32 33  0  0  1  0  0  0  0  0999 V2000
   26.0732  -18.4697  -11.1893 N   0  0  0  0  0  0  0  0  0  0  0  0
   26.3193  -19.6662  -12.0111 C   0  0  1  0  0  0  0  0  0  0  0  0
   25.8068  -20.8256  -11.1909 C   0  0  0  0  0  0  0  0  0  0  0  0
   26.3147  -20.8624   -9.8149 C   0  0  0  0  0  0  0  0  0  0  0  0
   25.5833  -20.7489   -8.6513 C   0  0  0  0  0  0  0  0  0  0  0  0
   26.4161  -20.8321   -7.6042 N   0  0  0  0  0  0  0  0  0  0  0  0
   27.6834  -20.9979   -8.0182 C   0  0  0  0  0  0  0  0  0  0  0  0
   28.8765  -21.1340   -7.3471 C   0  0  0  0  0  0  0  0  0  0  0  0
   30.0219  -21.2917   -8.0913 C   0  0  0  0  0  0  0  0  0  0  0  0
   29.9772  -21.3129   -9.4677 C   0  0  0  0  0  0  0  0  0  0  0  0
   28.7831  -21.1763  -10.1251 C   0  0  0  0  0  0  0  0  0  0  0  0
   27.6304  -21.0182   -9.4087 C   0  0  0  0  0  0  0  0  0  0  0  0
   25.6818  -19.5495  -13.3180 C   0  0  0  0  0  0  0  0  0  0  0  0
   24.4946  -19.1728  -13.4060 O   0  0  0  0  0  0  0  0  0  0  0  0
   26.3969  -19.8606  -14.4957 N   0  0  0  0  0  0  0  0  0  0  0  0
   25.8183  -19.5371  -15.7836 C   0  0  1  0  0  0  0  0  0  0  0  0
   26.9206  -18.9586  -16.6453 C   0  0  0  0  0  0  0  0  0  0  0  0
   27.6428  -17.4849  -15.8521 S   0  0  0  0  0  0  0  0  0  0  0  0
   25.3212  -20.7997  -16.4316 C   0  0  0  0  0  0  0  0  0  0  0  0
   26.0655  -21.8119  -16.4390 O   0  0  0  0  0  0  0  0  0  0  0  0
   20.5833  -21.2578  -11.5891 N   0  0  0  0  0  0  0  0  0  0  0  0
   19.9186  -22.4800  -11.8945 C   0  0  0  0  0  0  0  0  0  0  0  0
   18.8262  -22.8051  -11.3104 N   0  0  0  0  0  0  0  0  0  0  0  0
   20.4909  -23.3491  -12.8703 N   0  0  0  0  0  0  0  0  0  0  0  0
   21.8849  -23.1570  -13.2949 C   0  0  0  0  0  0  0  0  0  0  0  0
   21.9287  -22.9999  -14.7858 C   0  0  0  0  0  0  0  0  0  0  0  0
   22.9172  -22.0237  -15.3008 C   0  0  0  0  0  0  0  0  0  0  0  0
   23.0794  -21.9334  -16.7707 C   0  0  2  0  0  0  0  0  0  0  0  0
   24.0545  -20.8676  -17.0219 N   0  0  0  0  0  0  0  0  0  0  0  0
   21.8170  -21.6663  -17.4969 C   0  0  0  0  0  0  0  0  0  0  0  0
   21.3463  -20.5309  -17.6841 O   0  0  0  0  0  0  0  0  0  0  0  0
   21.1184  -22.7498  -17.9985 O   0  0  0  0  0  0  0  0  0  0  0  0
  2  1  1  1
  3  4  1  0
  3  2  1  0
  4  5  2  0
  5  6  1  0
  7  8  2  0
  7  6  1  0
  9  8  1  0
 10  9  2  0
 11 10  1  0
 11 12  2  0
 12  4  1  0
 12  7  1  0
 13  2  1  0
 13 14  2  0
 15 13  1  0
 16 15  1  0
 16 17  1  6
 18 17  1  0
 19 16  1  0
 20 19  2  0
 22 21  1  0
 22 23  2  0
 24 22  1  0
 25 24  1  0
 26 25  1  0
 28 27  1  1
 27 26  1  0
 28 29  1  0
 29 19  1  0
 30 28  1  0
 30 32  1  0
 31 30  2  0
M  END
$$$$
