WCR.pdb
     RDKit          3D

 32 33  0  0  1  0  0  0  0  0999 V2000
   24.2115  -20.8163  -11.5557 N   0  0  0  0  0  0  0  0  0  0  0  0
   24.0161  -21.1095  -10.1262 C   0  0  1  0  0  0  0  0  0  0  0  0
   24.8438  -20.0824   -9.3918 C   0  0  0  0  0  0  0  0  0  0  0  0
   26.2531  -20.4530   -9.2213 C   0  0  0  0  0  0  0  0  0  0  0  0
   27.0394  -21.1724  -10.0966 C   0  0  0  0  0  0  0  0  0  0  0  0
   28.2676  -21.2988   -9.5748 N   0  0  0  0  0  0  0  0  0  0  0  0
   28.3397  -20.6907   -8.3790 C   0  0  0  0  0  0  0  0  0  0  0  0
   29.3575  -20.5406   -7.4657 C   0  0  0  0  0  0  0  0  0  0  0  0
   29.0916  -19.8429   -6.3110 C   0  0  0  0  0  0  0  0  0  0  0  0
   27.8438  -19.3099   -6.0748 C   0  0  0  0  0  0  0  0  0  0  0  0
   26.8380  -19.4660   -6.9916 C   0  0  0  0  0  0  0  0  0  0  0  0
   27.0764  -20.1551   -8.1471 C   0  0  0  0  0  0  0  0  0  0  0  0
   22.6018  -21.0819   -9.7699 C   0  0  0  0  0  0  0  0  0  0  0  0
   21.8701  -20.1550  -10.1759 O   0  0  0  0  0  0  0  0  0  0  0  0
   22.0447  -22.0992   -8.9638 N   0  0  0  0  0  0  0  0  0  0  0  0
   20.6236  -22.0847   -8.6842 C   0  0  1  0  0  0  0  0  0  0  0  0
   19.8997  -22.3073   -9.9951 C   0  0  0  0  0  0  0  0  0  0  0  0
   19.5281  -24.0769  -10.2256 S   0  0  0  0  0  0  0  0  0  0  0  0
   20.2918  -23.2224   -7.7586 C   0  0  0  0  0  0  0  0  0  0  0  0
   20.9440  -24.2921   -7.8534 O   0  0  0  0  0  0  0  0  0  0  0  0
   12.4080  -23.5730   -5.3818 N   0  0  0  0  0  0  0  0  0  0  0  0
   13.1228  -22.4046   -5.7725 C   0  0  0  0  0  0  0  0  0  0  0  0
   12.5192  -21.3973   -6.2835 N   0  0  0  0  0  0  0  0  0  0  0  0
   14.5367  -22.3686   -5.5860 N   0  0  0  0  0  0  0  0  0  0  0  0
   15.2208  -23.5030   -4.9491 C   0  0  0  0  0  0  0  0  0  0  0  0
   16.4214  -23.8765   -5.7665 C   0  0  0  0  0  0  0  0  0  0  0  0
   17.7337  -23.6885   -5.1049 C   0  0  0  0  0  0  0  0  0  0  0  0
   18.9348  -24.1595   -5.8334 C   0  0  2  0  0  0  0  0  0  0  0  0
   19.2780  -23.1124   -6.8006 N   0  0  0  0  0  0  0  0  0  0  0  0
   18.7485  -25.4595   -6.5173 C   0  0  0  0  0  0  0  0  0  0  0  0
   18.2392  -25.5888   -7.6440 O   0  0  0  0  0  0  0  0  0  0  0  0
   19.1685  -26.6017   -5.8594 O   0  0  0  0  0  0  0  0  0  0  0  0
  2  1  1  6
  3  4  1  0
  3  2  1  0
  4  5  2  0
  5  6  1  0
  7  8  2  0
  7  6  1  0
  9  8  1  0
 10  9  2  0
 11 10  1  0
 11 12  2  0
 12  4  1  0
 12  7  1  0
 13  2  1  0
 13 14  2  0
 15 13  1  0
 16 15  1  0
 16 17  1  6
 18 17  1  0
 19 16  1  0
 20 19  2  0
 22 21  1  0
 22 23  2  0
 24 22  1  0
 25 24  1  0
 26 25  1  0
 28 27  1  6
 27 26  1  0
 28 29  1  0
 29 19  1  0
 30 28  1  0
 30 32  1  0
 31 30  2  0
M  END
$$$$
