WCR.pdb
     RDKit          3D

 32 33  0  0  1  0  0  0  0  0999 V2000
   24.9519  -19.4032   -8.8279 N   0  0  0  0  0  0  0  0  0  0  0  0
   26.0703  -20.1102   -9.4735 C   0  0  1  0  0  0  0  0  0  0  0  0
   26.2305  -21.3955   -8.6977 C   0  0  0  0  0  0  0  0  0  0  0  0
   26.5264  -21.2074   -7.2730 C   0  0  0  0  0  0  0  0  0  0  0  0
   25.7220  -21.5367   -6.2023 C   0  0  0  0  0  0  0  0  0  0  0  0
   26.3525  -21.2055   -5.0666 N   0  0  0  0  0  0  0  0  0  0  0  0
   27.5535  -20.6648   -5.3312 C   0  0  0  0  0  0  0  0  0  0  0  0
   28.5568  -20.1757   -4.5272 C   0  0  0  0  0  0  0  0  0  0  0  0
   29.6873  -19.6807   -5.1336 C   0  0  0  0  0  0  0  0  0  0  0  0
   29.8123  -19.6742   -6.5052 C   0  0  0  0  0  0  0  0  0  0  0  0
   28.8063  -20.1638   -7.2958 C   0  0  0  0  0  0  0  0  0  0  0  0
   27.6726  -20.6614   -6.7177 C   0  0  0  0  0  0  0  0  0  0  0  0
   25.8155  -20.3151  -10.8952 C   0  0  0  0  0  0  0  0  0  0  0  0
   24.6494  -20.4935  -11.3046 O   0  0  0  0  0  0  0  0  0  0  0  0
   26.8808  -20.3145  -11.8226 N   0  0  0  0  0  0  0  0  0  0  0  0
   26.5956  -20.1297  -13.2307 C   0  0  1  0  0  0  0  0  0  0  0  0
   27.9180  -19.9290  -13.9401 C   0  0  0  0  0  0  0  0  0  0  0  0
   28.4299  -18.1818  -13.8523 S   0  0  0  0  0  0  0  0  0  0  0  0
   25.9507  -21.3761  -13.7707 C   0  0  0  0  0  0  0  0  0  0  0  0
   26.1111  -22.4588  -13.1537 O   0  0  0  0  0  0  0  0  0  0  0  0
   18.1619  -22.4591  -12.1826 N   0  0  0  0  0  0  0  0  0  0  0  0
   19.2903  -22.9657  -11.4762 C   0  0  0  0  0  0  0  0  0  0  0  0
   19.1538  -23.8264  -10.5378 N   0  0  0  0  0  0  0  0  0  0  0  0
   20.5905  -22.4972  -11.8299 N   0  0  0  0  0  0  0  0  0  0  0  0
   20.7452  -21.5084  -12.9063 C   0  0  0  0  0  0  0  0  0  0  0  0
   21.6292  -22.0783  -13.9756 C   0  0  0  0  0  0  0  0  0  0  0  0
   23.0142  -21.5535  -14.0123 C   0  0  0  0  0  0  0  0  0  0  0  0
   23.8962  -22.0411  -15.0984 C   0  0  2  0  0  0  0  0  0  0  0  0
   25.1807  -21.3525  -14.9387 N   0  0  0  0  0  0  0  0  0  0  0  0
   23.3513  -21.8189  -16.4571 C   0  0  0  0  0  0  0  0  0  0  0  0
   23.3913  -20.7300  -17.0557 O   0  0  0  0  0  0  0  0  0  0  0  0
   22.7609  -22.8922  -17.0999 O   0  0  0  0  0  0  0  0  0  0  0  0
  2  1  1  1
  3  4  1  0
  3  2  1  0
  4  5  2  0
  5  6  1  0
  7  8  2  0
  7  6  1  0
  9  8  1  0
 10  9  2  0
 11 10  1  0
 11 12  2  0
 12  4  1  0
 12  7  1  0
 13  2  1  0
 13 14  2  0
 15 13  1  0
 16 15  1  0
 16 17  1  6
 18 17  1  0
 19 16  1  0
 20 19  2  0
 22 21  1  0
 22 23  2  0
 24 22  1  0
 25 24  1  0
 26 25  1  0
 28 27  1  1
 27 26  1  0
 28 29  1  0
 29 19  1  0
 30 28  1  0
 30 32  1  0
 31 30  2  0
M  END
$$$$
