WCR.pdb
     RDKit          3D

 32 33  0  0  1  0  0  0  0  0999 V2000
   26.5869  -19.7209  -16.9601 N   0  0  0  0  0  0  0  0  0  0  0  0
   26.3875  -19.2122  -15.5930 C   0  0  1  0  0  0  0  0  0  0  0  0
   25.1715  -18.3209  -15.6727 C   0  0  0  0  0  0  0  0  0  0  0  0
   25.3415  -17.1436  -16.5317 C   0  0  0  0  0  0  0  0  0  0  0  0
   24.5332  -16.7486  -17.5770 C   0  0  0  0  0  0  0  0  0  0  0  0
   25.0289  -15.6221  -18.1084 N   0  0  0  0  0  0  0  0  0  0  0  0
   26.1423  -15.2418  -17.4599 C   0  0  0  0  0  0  0  0  0  0  0  0
   27.0004  -14.1784  -17.6191 C   0  0  0  0  0  0  0  0  0  0  0  0
   28.0727  -14.0801  -16.7640 C   0  0  0  0  0  0  0  0  0  0  0  0
   28.2824  -15.0178  -15.7774 C   0  0  0  0  0  0  0  0  0  0  0  0
   27.4212  -16.0727  -15.6286 C   0  0  0  0  0  0  0  0  0  0  0  0
   26.3478  -16.1932  -16.4654 C   0  0  0  0  0  0  0  0  0  0  0  0
   26.2474  -20.3057  -14.6377 C   0  0  0  0  0  0  0  0  0  0  0  0
   25.8387  -21.4228  -15.0177 O   0  0  0  0  0  0  0  0  0  0  0  0
   26.5707  -20.1150  -13.2760 N   0  0  0  0  0  0  0  0  0  0  0  0
   25.8036  -20.8072  -12.2609 C   0  0  1  0  0  0  0  0  0  0  0  0
   26.4465  -20.5093  -10.9229 C   0  0  0  0  0  0  0  0  0  0  0  0
   25.4721  -21.2452   -9.5695 S   0  0  0  0  0  0  0  0  0  0  0  0
   24.4017  -20.2636  -12.2463 C   0  0  0  0  0  0  0  0  0  0  0  0
   24.2159  -19.0558  -12.5384 O   0  0  0  0  0  0  0  0  0  0  0  0
   20.5909  -18.2152  -17.4788 N   0  0  0  0  0  0  0  0  0  0  0  0
   19.3423  -18.2057  -16.7933 C   0  0  0  0  0  0  0  0  0  0  0  0
   18.4506  -17.3234  -17.0511 N   0  0  0  0  0  0  0  0  0  0  0  0
   19.0933  -19.2025  -15.8035 N   0  0  0  0  0  0  0  0  0  0  0  0
   20.1173  -20.2152  -15.5098 C   0  0  0  0  0  0  0  0  0  0  0  0
   20.3024  -20.3126  -14.0247 C   0  0  0  0  0  0  0  0  0  0  0  0
   21.6827  -20.5945  -13.5658 C   0  0  0  0  0  0  0  0  0  0  0  0
   21.9064  -20.6867  -12.1041 C   0  0  2  0  0  0  0  0  0  0  0  0
   23.3085  -21.0721  -11.9163 N   0  0  0  0  0  0  0  0  0  0  0  0
   21.0070  -21.6437  -11.4202 C   0  0  0  0  0  0  0  0  0  0  0  0
   19.7740  -21.5067  -11.3387 O   0  0  0  0  0  0  0  0  0  0  0  0
   21.5764  -22.7607  -10.8355 O   0  0  0  0  0  0  0  0  0  0  0  0
  2  1  1  6
  3  4  1  0
  3  2  1  0
  4  5  2  0
  5  6  1  0
  7  8  2  0
  7  6  1  0
  9  8  1  0
 10  9  2  0
 11 10  1  0
 11 12  2  0
 12  4  1  0
 12  7  1  0
 13  2  1  0
 13 14  2  0
 15 13  1  0
 16 15  1  0
 16 17  1  1
 18 17  1  0
 19 16  1  0
 20 19  2  0
 22 21  1  0
 22 23  2  0
 24 22  1  0
 25 24  1  0
 26 25  1  0
 28 27  1  6
 27 26  1  0
 28 29  1  0
 29 19  1  0
 30 28  1  0
 30 32  1  0
 31 30  2  0
M  END
$$$$
