WCR.pdb
     RDKit          3D

 32 33  0  0  1  0  0  0  0  0999 V2000
   24.0106  -17.8927  -16.1633 N   0  0  0  0  0  0  0  0  0  0  0  0
   22.6918  -18.5461  -16.1287 C   0  0  1  0  0  0  0  0  0  0  0  0
   22.6262  -19.3788  -17.3864 C   0  0  0  0  0  0  0  0  0  0  0  0
   22.6688  -18.5996  -18.6288 C   0  0  0  0  0  0  0  0  0  0  0  0
   23.7493  -18.4232  -19.4674 C   0  0  0  0  0  0  0  0  0  0  0  0
   23.3803  -17.6444  -20.4943 N   0  0  0  0  0  0  0  0  0  0  0  0
   22.0899  -17.2887  -20.3799 C   0  0  0  0  0  0  0  0  0  0  0  0
   21.2600  -16.5160  -21.1587 C   0  0  0  0  0  0  0  0  0  0  0  0
   19.9590  -16.3477  -20.7466 C   0  0  0  0  0  0  0  0  0  0  0  0
   19.4995  -16.9348  -19.5886 C   0  0  0  0  0  0  0  0  0  0  0  0
   20.3353  -17.7021  -18.8209 C   0  0  0  0  0  0  0  0  0  0  0  0
   21.6327  -17.8849  -19.2085 C   0  0  0  0  0  0  0  0  0  0  0  0
   22.5188  -19.3222  -14.9057 C   0  0  0  0  0  0  0  0  0  0  0  0
   23.5043  -19.8592  -14.3583 O   0  0  0  0  0  0  0  0  0  0  0  0
   21.2390  -19.4756  -14.3279 N   0  0  0  0  0  0  0  0  0  0  0  0
   21.0997  -20.2375  -13.1040 C   0  0  1  0  0  0  0  0  0  0  0  0
   20.8752  -19.2513  -11.9773 C   0  0  0  0  0  0  0  0  0  0  0  0
   19.2454  -18.4524  -12.1447 S   0  0  0  0  0  0  0  0  0  0  0  0
   19.8887  -21.1226  -13.2095 C   0  0  0  0  0  0  0  0  0  0  0  0
   18.9138  -20.7374  -13.9021 O   0  0  0  0  0  0  0  0  0  0  0  0
   19.8172  -29.1939  -10.3015 N   0  0  0  0  0  0  0  0  0  0  0  0
   20.3712  -28.4079  -11.3523 C   0  0  0  0  0  0  0  0  0  0  0  0
   21.4321  -28.7763  -11.9678 N   0  0  0  0  0  0  0  0  0  0  0  0
   19.7231  -27.1901  -11.7158 N   0  0  0  0  0  0  0  0  0  0  0  0
   18.4701  -26.8010  -11.0531 C   0  0  0  0  0  0  0  0  0  0  0  0
   17.9994  -25.4938  -11.6178 C   0  0  0  0  0  0  0  0  0  0  0  0
   19.0563  -24.4897  -11.8826 C   0  0  0  0  0  0  0  0  0  0  0  0
   18.6389  -23.2146  -12.5112 C   0  0  2  0  0  0  0  0  0  0  0  0
   19.8282  -22.3582  -12.5559 N   0  0  0  0  0  0  0  0  0  0  0  0
   17.5319  -22.5323  -11.8031 C   0  0  0  0  0  0  0  0  0  0  0  0
   17.6777  -21.5312  -11.0804 O   0  0  0  0  0  0  0  0  0  0  0  0
   16.2552  -23.0423  -11.9566 O   0  0  0  0  0  0  0  0  0  0  0  0
  2  1  1  1
  3  4  1  0
  3  2  1  0
  4  5  2  0
  5  6  1  0
  7  8  2  0
  7  6  1  0
  9  8  1  0
 10  9  2  0
 11 10  1  0
 11 12  2  0
 12  4  1  0
 12  7  1  0
 13  2  1  0
 13 14  2  0
 15 13  1  0
 16 15  1  0
 16 17  1  1
 18 17  1  0
 19 16  1  0
 20 19  2  0
 22 21  1  0
 22 23  2  0
 24 22  1  0
 25 24  1  0
 26 25  1  0
 28 27  1  1
 27 26  1  0
 28 29  1  0
 29 19  1  0
 30 28  1  0
 30 32  1  0
 31 30  2  0
M  END
$$$$
