WCR.pdb
     RDKit          3D

 32 33  0  0  1  0  0  0  0  0999 V2000
   28.5211  -22.7491   -9.8274 N   0  0  0  0  0  0  0  0  0  0  0  0
   27.7209  -21.5239   -9.9890 C   0  0  1  0  0  0  0  0  0  0  0  0
   28.6425  -20.3920   -9.6032 C   0  0  0  0  0  0  0  0  0  0  0  0
   29.1682  -20.4811   -8.2362 C   0  0  0  0  0  0  0  0  0  0  0  0
   30.3161  -21.1242   -7.8231 C   0  0  0  0  0  0  0  0  0  0  0  0
   30.4455  -20.9742   -6.4973 N   0  0  0  0  0  0  0  0  0  0  0  0
   29.4269  -20.2530   -6.0000 C   0  0  0  0  0  0  0  0  0  0  0  0
   29.1106  -19.8340   -4.7285 C   0  0  0  0  0  0  0  0  0  0  0  0
   27.9662  -19.0908   -4.5591 C   0  0  0  0  0  0  0  0  0  0  0  0
   27.1598  -18.7748   -5.6301 C   0  0  0  0  0  0  0  0  0  0  0  0
   27.4849  -19.1978   -6.8918 C   0  0  0  0  0  0  0  0  0  0  0  0
   28.6170  -19.9378   -7.0868 C   0  0  0  0  0  0  0  0  0  0  0  0
   27.1953  -21.4115  -11.3452 C   0  0  0  0  0  0  0  0  0  0  0  0
   27.9201  -21.6860  -12.3242 O   0  0  0  0  0  0  0  0  0  0  0  0
   25.8649  -20.9918  -11.5667 N   0  0  0  0  0  0  0  0  0  0  0  0
   25.3677  -20.8961  -12.9238 C   0  0  1  0  0  0  0  0  0  0  0  0
   25.2344  -22.3058  -13.4599 C   0  0  0  0  0  0  0  0  0  0  0  0
   24.9979  -23.4881  -12.0929 S   0  0  0  0  0  0  0  0  0  0  0  0
   24.0036  -20.2635  -12.9054 C   0  0  0  0  0  0  0  0  0  0  0  0
   23.2713  -20.4289  -11.8980 O   0  0  0  0  0  0  0  0  0  0  0  0
   17.9447  -17.8615  -15.8564 N   0  0  0  0  0  0  0  0  0  0  0  0
   18.0749  -16.6277  -16.5561 C   0  0  0  0  0  0  0  0  0  0  0  0
   17.0490  -15.9187  -16.8475 N   0  0  0  0  0  0  0  0  0  0  0  0
   19.3774  -16.1852  -16.9339 N   0  0  0  0  0  0  0  0  0  0  0  0
   20.5174  -17.1095  -16.8527 C   0  0  0  0  0  0  0  0  0  0  0  0
   21.0611  -17.0997  -15.4550 C   0  0  0  0  0  0  0  0  0  0  0  0
   22.2505  -17.9519  -15.2217 C   0  0  0  0  0  0  0  0  0  0  0  0
   22.2537  -18.7935  -14.0023 C   0  0  2  0  0  0  0  0  0  0  0  0
   23.5386  -19.4994  -13.9814 N   0  0  0  0  0  0  0  0  0  0  0  0
   21.1299  -19.7552  -13.9357 C   0  0  0  0  0  0  0  0  0  0  0  0
   20.0732  -19.5519  -13.3129 O   0  0  0  0  0  0  0  0  0  0  0  0
   21.2657  -20.9554  -14.6100 O   0  0  0  0  0  0  0  0  0  0  0  0
  2  1  1  6
  3  4  1  0
  3  2  1  0
  4  5  2  0
  5  6  1  0
  7  8  2  0
  7  6  1  0
  9  8  1  0
 10  9  2  0
 11 10  1  0
 11 12  2  0
 12  4  1  0
 12  7  1  0
 13  2  1  0
 13 14  2  0
 15 13  1  0
 16 15  1  0
 16 17  1  1
 18 17  1  0
 19 16  1  0
 20 19  2  0
 22 21  1  0
 22 23  2  0
 24 22  1  0
 25 24  1  0
 26 25  1  0
 28 27  1  6
 27 26  1  0
 28 29  1  0
 29 19  1  0
 30 28  1  0
 30 32  1  0
 31 30  2  0
M  END
$$$$
