WCR.pdb
     RDKit          3D

 32 33  0  0  1  0  0  0  0  0999 V2000
   25.6070  -19.0677  -11.5805 N   0  0  0  0  0  0  0  0  0  0  0  0
   26.0934  -20.4364  -11.8206 C   0  0  1  0  0  0  0  0  0  0  0  0
   25.6331  -21.2383  -10.6271 C   0  0  0  0  0  0  0  0  0  0  0  0
   26.1236  -20.7374   -9.3382 C   0  0  0  0  0  0  0  0  0  0  0  0
   25.3734  -20.2206   -8.3028 C   0  0  0  0  0  0  0  0  0  0  0  0
   26.1945  -19.8748   -7.3012 N   0  0  0  0  0  0  0  0  0  0  0  0
   27.4718  -20.1396   -7.6222 C   0  0  0  0  0  0  0  0  0  0  0  0
   28.6597  -19.9715   -6.9491 C   0  0  0  0  0  0  0  0  0  0  0  0
   29.8195  -20.3570   -7.5791 C   0  0  0  0  0  0  0  0  0  0  0  0
   29.7938  -20.8956   -8.8465 C   0  0  0  0  0  0  0  0  0  0  0  0
   28.6048  -21.0580   -9.5072 C   0  0  0  0  0  0  0  0  0  0  0  0
   27.4381  -20.6828   -8.9030 C   0  0  0  0  0  0  0  0  0  0  0  0
   25.6058  -20.9543  -13.0943 C   0  0  0  0  0  0  0  0  0  0  0  0
   24.4770  -20.6256  -13.5149 O   0  0  0  0  0  0  0  0  0  0  0  0
   26.4016  -21.8312  -13.8644 N   0  0  0  0  0  0  0  0  0  0  0  0
   25.9514  -22.2239  -15.1839 C   0  0  1  0  0  0  0  0  0  0  0  0
   27.1449  -22.7940  -15.9208 C   0  0  0  0  0  0  0  0  0  0  0  0
   28.4797  -21.5571  -16.0255 S   0  0  0  0  0  0  0  0  0  0  0  0
   24.9148  -23.3049  -15.0495 C   0  0  0  0  0  0  0  0  0  0  0  0
   25.0509  -24.1675  -14.1461 O   0  0  0  0  0  0  0  0  0  0  0  0
   17.9749  -23.4022  -11.4081 N   0  0  0  0  0  0  0  0  0  0  0  0
   19.2163  -23.7030  -10.7777 C   0  0  0  0  0  0  0  0  0  0  0  0
   19.2628  -24.3898   -9.6978 N   0  0  0  0  0  0  0  0  0  0  0  0
   20.4225  -23.2240  -11.3701 N   0  0  0  0  0  0  0  0  0  0  0  0
   20.3645  -22.3974  -12.5841 C   0  0  0  0  0  0  0  0  0  0  0  0
   20.7280  -23.2391  -13.7711 C   0  0  0  0  0  0  0  0  0  0  0  0
   22.0702  -22.9921  -14.3478 C   0  0  0  0  0  0  0  0  0  0  0  0
   22.4758  -23.8250  -15.5041 C   0  0  2  0  0  0  0  0  0  0  0  0
   23.8096  -23.3672  -15.9053 N   0  0  0  0  0  0  0  0  0  0  0  0
   21.5370  -23.7598  -16.6472 C   0  0  0  0  0  0  0  0  0  0  0  0
   21.2479  -22.7141  -17.2543 O   0  0  0  0  0  0  0  0  0  0  0  0
   20.9450  -24.9382  -17.0651 O   0  0  0  0  0  0  0  0  0  0  0  0
  2  1  1  1
  3  4  1  0
  3  2  1  0
  4  5  2  0
  5  6  1  0
  7  8  2  0
  7  6  1  0
  9  8  1  0
 10  9  2  0
 11 10  1  0
 11 12  2  0
 12  4  1  0
 12  7  1  0
 13  2  1  0
 13 14  2  0
 15 13  1  0
 16 15  1  0
 16 17  1  6
 18 17  1  0
 19 16  1  0
 20 19  2  0
 22 21  1  0
 22 23  2  0
 24 22  1  0
 25 24  1  0
 26 25  1  0
 28 27  1  1
 27 26  1  0
 28 29  1  0
 29 19  1  0
 30 28  1  0
 30 32  1  0
 31 30  2  0
M  END
$$$$
