TQT.pdb
     RDKit          3D

 24 23  0  0  1  0  0  0  0  0999 V2000
   20.8938  -13.3544  -16.3404 C   0  0  0  0  0  0  0  0  0  0  0  0
   20.8048  -11.8700  -16.1207 C   0  0  1  0  0  0  0  0  0  0  0  0
   21.3031  -11.2440  -17.2762 O   0  0  0  0  0  0  0  0  0  0  0  0
   19.3275  -11.5119  -16.0391 C   0  0  2  0  0  0  0  0  0  0  0  0
   18.7122  -11.8552  -17.2579 N   0  0  0  0  0  0  0  0  0  0  0  0
   19.1144  -10.1374  -15.5816 C   0  0  0  0  0  0  0  0  0  0  0  0
   18.9571   -9.2356  -16.4440 O   0  0  0  0  0  0  0  0  0  0  0  0
   16.9234   -8.5657  -10.0330 N   0  0  0  0  0  0  0  0  0  0  0  0
   16.0335   -8.7617  -11.1098 C   0  0  0  0  0  0  0  0  0  0  0  0
   14.8332   -8.9775  -10.8979 O   0  0  0  0  0  0  0  0  0  0  0  0
   16.5752   -8.7021  -12.5001 C   0  0  0  0  0  0  0  0  0  0  0  0
   18.0608   -8.5211  -12.4064 C   0  0  0  0  0  0  0  0  0  0  0  0
   18.7894   -8.4482  -13.7180 C   0  0  2  0  0  0  0  0  0  0  0  0
   19.0814   -9.8018  -14.2010 N   0  0  0  0  0  0  0  0  0  0  0  0
   20.0404   -7.6704  -13.5800 C   0  0  0  0  0  0  0  0  0  0  0  0
   20.9591   -8.1358  -12.8677 O   0  0  0  0  0  0  0  0  0  0  0  0
   22.7669   -6.9764  -15.8773 C   0  0  0  0  0  0  0  0  0  0  0  0
   22.2160   -5.6432  -15.4475 C   0  0  1  0  0  0  0  0  0  0  0  0
   21.3334   -5.1453  -16.4050 O   0  0  0  0  0  0  0  0  0  0  0  0
   21.5247   -5.7554  -14.0961 C   0  0  2  0  0  0  0  0  0  0  0  0
   20.2538   -6.4250  -14.2123 N   0  0  0  0  0  0  0  0  0  0  0  0
   21.3049   -4.4043  -13.5213 C   0  0  0  0  0  0  0  0  0  0  0  0
   22.2669   -3.6989  -13.1662 O   0  0  0  0  0  0  0  0  0  0  0  0
   19.9944   -3.9665  -13.3985 O   0  0  0  0  0  0  0  0  0  0  0  0
  2  1  1  6
  2  3  1  0
  4  5  1  6
  4  2  1  0
  6  4  1  0
  7  6  2  0
  8  9  1  0
  9 11  1  0
  9 10  2  0
 11 12  1  0
 13 12  1  1
 13 14  1  0
 14  6  1  0
 15 21  1  0
 15 13  1  0
 16 15  2  0
 18 17  1  6
 18 20  1  0
 18 19  1  0
 20 21  1  6
 20 22  1  0
 22 24  1  0
 23 22  2  0
M  END
$$$$
