TQT.pdb
     RDKit          3D

 24 23  0  0  1  0  0  0  0  0999 V2000
   26.7295  -10.7720  -15.3377 C   0  0  0  0  0  0  0  0  0  0  0  0
   26.9093  -11.3763  -16.7023 C   0  0  1  0  0  0  0  0  0  0  0  0
   27.8133  -12.4446  -16.5726 O   0  0  0  0  0  0  0  0  0  0  0  0
   25.5749  -11.9873  -17.1066 C   0  0  2  0  0  0  0  0  0  0  0  0
   25.7818  -12.8284  -18.2164 N   0  0  0  0  0  0  0  0  0  0  0  0
   24.5256  -10.9773  -17.2582 C   0  0  0  0  0  0  0  0  0  0  0  0
   24.4625  -10.3351  -18.3377 O   0  0  0  0  0  0  0  0  0  0  0  0
   18.9882  -11.5333  -15.2030 N   0  0  0  0  0  0  0  0  0  0  0  0
   18.8283  -10.1696  -15.5270 C   0  0  0  0  0  0  0  0  0  0  0  0
   17.7074   -9.6457  -15.4916 O   0  0  0  0  0  0  0  0  0  0  0  0
   20.0383   -9.3830  -15.9103 C   0  0  0  0  0  0  0  0  0  0  0  0
   21.2019  -10.3274  -15.9629 C   0  0  0  0  0  0  0  0  0  0  0  0
   22.5149   -9.7171  -16.3631 C   0  0  2  0  0  0  0  0  0  0  0  0
   23.5869  -10.7085  -16.2255 N   0  0  0  0  0  0  0  0  0  0  0  0
   22.8101   -8.5231  -15.5408 C   0  0  0  0  0  0  0  0  0  0  0  0
   23.1754   -8.6886  -14.3546 O   0  0  0  0  0  0  0  0  0  0  0  0
   22.7146   -4.5594  -17.1296 C   0  0  0  0  0  0  0  0  0  0  0  0
   23.6519   -4.9460  -16.0170 C   0  0  1  0  0  0  0  0  0  0  0  0
   23.9276   -3.8476  -15.2039 O   0  0  0  0  0  0  0  0  0  0  0  0
   23.0690   -6.0843  -15.1916 C   0  0  2  0  0  0  0  0  0  0  0  0
   22.7009   -7.2005  -16.0257 N   0  0  0  0  0  0  0  0  0  0  0  0
   21.8669   -5.6177  -14.4557 C   0  0  0  0  0  0  0  0  0  0  0  0
   20.7430   -6.0897  -14.7072 O   0  0  0  0  0  0  0  0  0  0  0  0
   22.0486   -4.6430  -13.4857 O   0  0  0  0  0  0  0  0  0  0  0  0
  2  1  1  1
  2  3  1  0
  4  5  1  6
  4  2  1  0
  6  4  1  0
  7  6  2  0
  8  9  1  0
  9 11  1  0
  9 10  2  0
 11 12  1  0
 13 12  1  1
 13 14  1  0
 14  6  1  0
 15 21  1  0
 15 13  1  0
 16 15  2  0
 18 17  1  6
 18 20  1  0
 18 19  1  0
 20 21  1  6
 20 22  1  0
 22 24  1  0
 23 22  2  0
M  END
$$$$
