TQT.pdb
     RDKit          3D

 24 23  0  0  1  0  0  0  0  0999 V2000
   25.7311  -10.4885  -14.9427 C   0  0  0  0  0  0  0  0  0  0  0  0
   25.9298  -11.1225  -16.2910 C   0  0  1  0  0  0  0  0  0  0  0  0
   26.8561  -12.1673  -16.1313 O   0  0  0  0  0  0  0  0  0  0  0  0
   24.6107  -11.7722  -16.6850 C   0  0  2  0  0  0  0  0  0  0  0  0
   24.8355  -12.6157  -17.7895 N   0  0  0  0  0  0  0  0  0  0  0  0
   23.5339  -10.7920  -16.8393 C   0  0  0  0  0  0  0  0  0  0  0  0
   23.5016  -10.0961  -17.8865 O   0  0  0  0  0  0  0  0  0  0  0  0
   17.9514  -11.2632  -14.4500 N   0  0  0  0  0  0  0  0  0  0  0  0
   18.2753  -11.7700  -15.7260 C   0  0  0  0  0  0  0  0  0  0  0  0
   17.5452  -12.6087  -16.2697 O   0  0  0  0  0  0  0  0  0  0  0  0
   19.5127  -11.2706  -16.3964 C   0  0  0  0  0  0  0  0  0  0  0  0
   20.1568  -10.2698  -15.4843 C   0  0  0  0  0  0  0  0  0  0  0  0
   21.4309   -9.6563  -15.9909 C   0  0  2  0  0  0  0  0  0  0  0  0
   22.5351  -10.6104  -15.8447 N   0  0  0  0  0  0  0  0  0  0  0  0
   21.7343   -8.4035  -15.2647 C   0  0  0  0  0  0  0  0  0  0  0  0
   22.2071   -8.4816  -14.1078 O   0  0  0  0  0  0  0  0  0  0  0  0
   23.0402   -3.7548  -15.0519 C   0  0  0  0  0  0  0  0  0  0  0  0
   22.7902   -5.0284  -15.8143 C   0  0  1  0  0  0  0  0  0  0  0  0
   23.9906   -5.6882  -16.0743 O   0  0  0  0  0  0  0  0  0  0  0  0
   21.8399   -5.9379  -15.0485 C   0  0  2  0  0  0  0  0  0  0  0  0
   21.5175   -7.1182  -15.8101 N   0  0  0  0  0  0  0  0  0  0  0  0
   20.5837   -5.2129  -14.7317 C   0  0  0  0  0  0  0  0  0  0  0  0
   19.6980   -5.0663  -15.5938 O   0  0  0  0  0  0  0  0  0  0  0  0
   20.4411   -4.7110  -13.4464 O   0  0  0  0  0  0  0  0  0  0  0  0
  2  1  1  1
  2  3  1  0
  4  5  1  6
  4  2  1  0
  6  4  1  0
  7  6  2  0
  8  9  1  0
  9 11  1  0
  9 10  2  0
 11 12  1  0
 13 12  1  1
 13 14  1  0
 14  6  1  0
 15 21  1  0
 15 13  1  0
 16 15  2  0
 18 17  1  1
 18 20  1  0
 18 19  1  0
 20 21  1  6
 20 22  1  0
 22 24  1  0
 23 22  2  0
M  END
$$$$
