TQT.pdb
     RDKit          3D

 24 23  0  0  1  0  0  0  0  0999 V2000
   26.4167  -17.8847  -15.3402 C   0  0  0  0  0  0  0  0  0  0  0  0
   27.1571  -18.9296  -16.1274 C   0  0  1  0  0  0  0  0  0  0  0  0
   28.3012  -18.3167  -16.6665 O   0  0  0  0  0  0  0  0  0  0  0  0
   27.6533  -19.9749  -15.1382 C   0  0  2  0  0  0  0  0  0  0  0  0
   28.6086  -20.7856  -15.7802 N   0  0  0  0  0  0  0  0  0  0  0  0
   26.5532  -20.6834  -14.4813 C   0  0  0  0  0  0  0  0  0  0  0  0
   25.9588  -21.5907  -15.1179 O   0  0  0  0  0  0  0  0  0  0  0  0
   24.9672  -20.5756   -8.3954 N   0  0  0  0  0  0  0  0  0  0  0  0
   26.2457  -20.8781   -8.9092 C   0  0  0  0  0  0  0  0  0  0  0  0
   27.2242  -20.9422   -8.1538 O   0  0  0  0  0  0  0  0  0  0  0  0
   26.3842  -21.1166  -10.3768 C   0  0  0  0  0  0  0  0  0  0  0  0
   25.0677  -20.7973  -11.0198 C   0  0  0  0  0  0  0  0  0  0  0  0
   25.0004  -21.0180  -12.5041 C   0  0  2  0  0  0  0  0  0  0  0  0
   26.1454  -20.3734  -13.1556 N   0  0  0  0  0  0  0  0  0  0  0  0
   23.7321  -20.4918  -13.0552 C   0  0  0  0  0  0  0  0  0  0  0  0
   23.5780  -19.2510  -13.1231 O   0  0  0  0  0  0  0  0  0  0  0  0
   19.8378  -20.7108  -15.9060 C   0  0  0  0  0  0  0  0  0  0  0  0
   21.1843  -21.1986  -15.4423 C   0  0  1  0  0  0  0  0  0  0  0  0
   22.1890  -20.7554  -16.3012 O   0  0  0  0  0  0  0  0  0  0  0  0
   21.4631  -20.7399  -14.0181 C   0  0  2  0  0  0  0  0  0  0  0  0
   22.6813  -21.3193  -13.5106 N   0  0  0  0  0  0  0  0  0  0  0  0
   20.3399  -21.1271  -13.1279 C   0  0  0  0  0  0  0  0  0  0  0  0
   20.4457  -22.0957  -12.3534 O   0  0  0  0  0  0  0  0  0  0  0  0
   19.1793  -20.3706  -13.1958 O   0  0  0  0  0  0  0  0  0  0  0  0
  2  1  1  1
  2  3  1  0
  4  5  1  6
  4  2  1  0
  6  4  1  0
  7  6  2  0
  8  9  1  0
  9 11  1  0
  9 10  2  0
 11 12  1  0
 13 12  1  1
 13 14  1  0
 14  6  1  0
 15 21  1  0
 15 13  1  0
 16 15  2  0
 18 17  1  6
 18 20  1  0
 18 19  1  0
 20 21  1  1
 20 22  1  0
 22 24  1  0
 23 22  2  0
M  END
$$$$
