TQT.pdb
     RDKit          3D

 24 23  0  0  1  0  0  0  0  0999 V2000
   19.4689  -14.0276  -16.2171 C   0  0  0  0  0  0  0  0  0  0  0  0
   18.1368  -14.6539  -16.5215 C   0  0  1  0  0  0  0  0  0  0  0  0
   18.1420  -15.9437  -15.9634 O   0  0  0  0  0  0  0  0  0  0  0  0
   17.0800  -13.8610  -15.7654 C   0  0  2  0  0  0  0  0  0  0  0  0
   15.8501  -14.5387  -15.8656 N   0  0  0  0  0  0  0  0  0  0  0  0
   17.0638  -12.4488  -16.1521 C   0  0  0  0  0  0  0  0  0  0  0  0
   16.7088  -12.1510  -17.3213 O   0  0  0  0  0  0  0  0  0  0  0  0
   14.2573   -8.0010  -14.2247 N   0  0  0  0  0  0  0  0  0  0  0  0
   15.1715   -7.1571  -14.8897 C   0  0  0  0  0  0  0  0  0  0  0  0
   14.9383   -5.9466  -15.0006 O   0  0  0  0  0  0  0  0  0  0  0  0
   16.4172   -7.7599  -15.4508 C   0  0  0  0  0  0  0  0  0  0  0  0
   16.3652   -9.2374  -15.2004 C   0  0  0  0  0  0  0  0  0  0  0  0
   17.5690  -10.0144  -15.6516 C   0  0  2  0  0  0  0  0  0  0  0  0
   17.4356  -11.4179  -15.2473 N   0  0  0  0  0  0  0  0  0  0  0  0
   18.8085   -9.4332  -15.0904 C   0  0  0  0  0  0  0  0  0  0  0  0
   19.0509   -9.6013  -13.8735 O   0  0  0  0  0  0  0  0  0  0  0  0
   22.4796  -10.0015  -16.1990 C   0  0  0  0  0  0  0  0  0  0  0  0
   22.1556   -8.5315  -16.1899 C   0  0  1  0  0  0  0  0  0  0  0  0
   21.8892   -8.0800  -17.4818 O   0  0  0  0  0  0  0  0  0  0  0  0
   20.9745   -8.2451  -15.2736 C   0  0  2  0  0  0  0  0  0  0  0  0
   19.7368   -8.6954  -15.8587 N   0  0  0  0  0  0  0  0  0  0  0  0
   20.8773   -6.7880  -15.0064 C   0  0  0  0  0  0  0  0  0  0  0  0
   19.8785   -6.1393  -15.3681 O   0  0  0  0  0  0  0  0  0  0  0  0
   21.9368   -6.1868  -14.3429 O   0  0  0  0  0  0  0  0  0  0  0  0
  2  1  1  1
  2  3  1  0
  4  5  1  6
  4  2  1  0
  6  4  1  0
  7  6  2  0
  8  9  1  0
  9 11  1  0
  9 10  2  0
 11 12  1  0
 13 12  1  1
 13 14  1  0
 14  6  1  0
 15 21  1  0
 15 13  1  0
 16 15  2  0
 18 17  1  6
 18 20  1  0
 18 19  1  0
 20 21  1  6
 20 22  1  0
 22 24  1  0
 23 22  2  0
M  END
$$$$
