TQT.pdb
     RDKit          3D

 24 23  0  0  1  0  0  0  0  0999 V2000
   27.9432  -24.7316  -22.8161 C   0  0  0  0  0  0  0  0  0  0  0  0
   27.8913  -23.4936  -21.9650 C   0  0  1  0  0  0  0  0  0  0  0  0
   27.0565  -22.5703  -22.6175 O   0  0  0  0  0  0  0  0  0  0  0  0
   27.1903  -23.8659  -20.6660 C   0  0  2  0  0  0  0  0  0  0  0  0
   26.9280  -22.6878  -19.9414 N   0  0  0  0  0  0  0  0  0  0  0  0
   27.8979  -24.9198  -19.9362 C   0  0  0  0  0  0  0  0  0  0  0  0
   28.8890  -24.5998  -19.2313 O   0  0  0  0  0  0  0  0  0  0  0  0
   27.2288  -27.4987  -15.8202 N   0  0  0  0  0  0  0  0  0  0  0  0
   27.6872  -28.7897  -16.1568 C   0  0  0  0  0  0  0  0  0  0  0  0
   28.1261  -29.5457  -15.2805 O   0  0  0  0  0  0  0  0  0  0  0  0
   27.6287  -29.2146  -17.5872 C   0  0  0  0  0  0  0  0  0  0  0  0
   27.1166  -28.0560  -18.3895 C   0  0  0  0  0  0  0  0  0  0  0  0
   28.1411  -27.3419  -19.2243 C   0  0  2  0  0  0  0  0  0  0  0  0
   27.4954  -26.2811  -20.0047 N   0  0  0  0  0  0  0  0  0  0  0  0
   28.8381  -28.2891  -20.1221 C   0  0  0  0  0  0  0  0  0  0  0  0
   28.2395  -28.6964  -21.1437 O   0  0  0  0  0  0  0  0  0  0  0  0
   32.9818  -29.3655  -19.6569 C   0  0  0  0  0  0  0  0  0  0  0  0
   32.2838  -29.2348  -20.9841 C   0  0  1  0  0  0  0  0  0  0  0  0
   32.8996  -30.0374  -21.9434 O   0  0  0  0  0  0  0  0  0  0  0  0
   30.8106  -29.5954  -20.8567 C   0  0  2  0  0  0  0  0  0  0  0  0
   30.1492  -28.7600  -19.8863 N   0  0  0  0  0  0  0  0  0  0  0  0
   30.6662  -31.0149  -20.4463 C   0  0  0  0  0  0  0  0  0  0  0  0
   30.1795  -31.3117  -19.3399 O   0  0  0  0  0  0  0  0  0  0  0  0
   31.0927  -31.9861  -21.3401 O   0  0  0  0  0  0  0  0  0  0  0  0
  2  1  1  6
  2  3  1  0
  4  5  1  1
  4  2  1  0
  6  4  1  0
  7  6  2  0
  8  9  1  0
  9 11  1  0
  9 10  2  0
 11 12  1  0
 13 12  1  6
 13 14  1  0
 14  6  1  0
 15 21  1  0
 15 13  1  0
 16 15  2  0
 18 17  1  1
 18 20  1  0
 18 19  1  0
 20 21  1  1
 20 22  1  0
 22 24  1  0
 23 22  2  0
M  END
$$$$
