TQT.pdb
     RDKit          3D

 24 23  0  0  1  0  0  0  0  0999 V2000
   14.2088   -5.4492   -8.4138 C   0  0  0  0  0  0  0  0  0  0  0  0
   15.4706   -5.9376   -9.0688 C   0  0  1  0  0  0  0  0  0  0  0  0
   16.4690   -5.9759   -8.0804 O   0  0  0  0  0  0  0  0  0  0  0  0
   15.2307   -7.3790   -9.4957 C   0  0  2  0  0  0  0  0  0  0  0  0
   14.9517   -8.1482   -8.3501 N   0  0  0  0  0  0  0  0  0  0  0  0
   16.2977   -7.8862  -10.3606 C   0  0  0  0  0  0  0  0  0  0  0  0
   17.2177   -8.5687   -9.8412 O   0  0  0  0  0  0  0  0  0  0  0  0
   15.7288  -10.2071  -15.7447 N   0  0  0  0  0  0  0  0  0  0  0  0
   17.1361  -10.1396  -15.8153 C   0  0  0  0  0  0  0  0  0  0  0  0
   17.7463  -10.7322  -16.7144 O   0  0  0  0  0  0  0  0  0  0  0  0
   17.8624   -9.3403  -14.7840 C   0  0  0  0  0  0  0  0  0  0  0  0
   16.8554   -8.8618  -13.7812 C   0  0  0  0  0  0  0  0  0  0  0  0
   17.4104   -8.0690  -12.6323 C   0  0  2  0  0  0  0  0  0  0  0  0
   16.3183   -7.6285  -11.7581 N   0  0  0  0  0  0  0  0  0  0  0  0
   18.1786   -6.9034  -13.1226 C   0  0  0  0  0  0  0  0  0  0  0  0
   17.5561   -5.8586  -13.4207 O   0  0  0  0  0  0  0  0  0  0  0  0
   22.3429   -6.6772  -12.5790 C   0  0  0  0  0  0  0  0  0  0  0  0
   21.4519   -5.4650  -12.6278 C   0  0  1  0  0  0  0  0  0  0  0  0
   22.1791   -4.3365  -13.0038 O   0  0  0  0  0  0  0  0  0  0  0  0
   20.2882   -5.6889  -13.5829 C   0  0  2  0  0  0  0  0  0  0  0  0
   19.5835   -6.9073  -13.2728 N   0  0  0  0  0  0  0  0  0  0  0  0
   20.7821   -5.7624  -14.9810 C   0  0  0  0  0  0  0  0  0  0  0  0
   20.6858   -6.8164  -15.6361 O   0  0  0  0  0  0  0  0  0  0  0  0
   21.3498   -4.6174  -15.5203 O   0  0  0  0  0  0  0  0  0  0  0  0
  2  1  1  1
  2  3  1  0
  4  5  1  1
  4  2  1  0
  6  4  1  0
  7  6  2  0
  8  9  1  0
  9 11  1  0
  9 10  2  0
 11 12  1  0
 13 12  1  6
 13 14  1  0
 14  6  1  0
 15 21  1  0
 15 13  1  0
 16 15  2  0
 18 17  1  6
 18 20  1  0
 18 19  1  0
 20 21  1  1
 20 22  1  0
 22 24  1  0
 23 22  2  0
M  END
$$$$
