TQT.pdb
     RDKit          3D

 24 23  0  0  1  0  0  0  0  0999 V2000
   23.7327  -11.3860  -17.9418 C   0  0  0  0  0  0  0  0  0  0  0  0
   22.8213  -12.1040  -18.8974 C   0  0  1  0  0  0  0  0  0  0  0  0
   23.3967  -13.3582  -19.1642 O   0  0  0  0  0  0  0  0  0  0  0  0
   21.5167  -12.3758  -18.1616 C   0  0  2  0  0  0  0  0  0  0  0  0
   20.7574  -13.2924  -18.9134 N   0  0  0  0  0  0  0  0  0  0  0  0
   20.8292  -11.1416  -17.7770 C   0  0  0  0  0  0  0  0  0  0  0  0
   20.3938  -10.3892  -18.6859 O   0  0  0  0  0  0  0  0  0  0  0  0
   16.0458  -11.6919  -14.7062 N   0  0  0  0  0  0  0  0  0  0  0  0
   16.4061  -10.3674  -15.0316 C   0  0  0  0  0  0  0  0  0  0  0  0
   15.8021   -9.4127  -14.5259 O   0  0  0  0  0  0  0  0  0  0  0  0
   17.5267  -10.1514  -15.9947 C   0  0  0  0  0  0  0  0  0  0  0  0
   18.7603   -9.8402  -15.2012 C   0  0  0  0  0  0  0  0  0  0  0  0
   19.9892   -9.5304  -16.0076 C   0  0  2  0  0  0  0  0  0  0  0  0
   20.6442  -10.7776  -16.4157 N   0  0  0  0  0  0  0  0  0  0  0  0
   20.9260   -8.6875  -15.2323 C   0  0  0  0  0  0  0  0  0  0  0  0
   21.8550   -9.2458  -14.6053 O   0  0  0  0  0  0  0  0  0  0  0  0
   23.7433   -7.3826  -15.9491 C   0  0  0  0  0  0  0  0  0  0  0  0
   22.9633   -6.1554  -15.5602 C   0  0  1  0  0  0  0  0  0  0  0  0
   22.4060   -5.5511  -16.6863 O   0  0  0  0  0  0  0  0  0  0  0  0
   21.8771   -6.5034  -14.5524 C   0  0  2  0  0  0  0  0  0  0  0  0
   20.8269   -7.2798  -15.1619 N   0  0  0  0  0  0  0  0  0  0  0  0
   21.2903   -5.2632  -13.9855 C   0  0  0  0  0  0  0  0  0  0  0  0
   20.0965   -4.9737  -14.1864 O   0  0  0  0  0  0  0  0  0  0  0  0
   22.1213   -4.4491  -13.2300 O   0  0  0  0  0  0  0  0  0  0  0  0
  2  1  1  1
  2  3  1  0
  4  5  1  6
  4  2  1  0
  6  4  1  0
  7  6  2  0
  8  9  1  0
  9 11  1  0
  9 10  2  0
 11 12  1  0
 13 12  1  1
 13 14  1  0
 14  6  1  0
 15 21  1  0
 15 13  1  0
 16 15  2  0
 18 17  1  6
 18 20  1  0
 18 19  1  0
 20 21  1  6
 20 22  1  0
 22 24  1  0
 23 22  2  0
M  END
$$$$
