TQT.pdb
     RDKit          3D

 24 23  0  0  1  0  0  0  0  0999 V2000
   27.6254  -15.6098  -15.8918 C   0  0  0  0  0  0  0  0  0  0  0  0
   26.6540  -16.6896  -15.5045 C   0  0  1  0  0  0  0  0  0  0  0  0
   25.7626  -16.8573  -16.5781 O   0  0  0  0  0  0  0  0  0  0  0  0
   27.4411  -17.9876  -15.3906 C   0  0  2  0  0  0  0  0  0  0  0  0
   28.0539  -18.2536  -16.6298 N   0  0  0  0  0  0  0  0  0  0  0  0
   26.6383  -19.0758  -14.8291 C   0  0  0  0  0  0  0  0  0  0  0  0
   26.1864  -19.9524  -15.6096 O   0  0  0  0  0  0  0  0  0  0  0  0
   26.0002  -20.1333   -8.7679 N   0  0  0  0  0  0  0  0  0  0  0  0
   25.0862  -21.1183   -9.1975 C   0  0  0  0  0  0  0  0  0  0  0  0
   24.5791  -21.8991   -8.3820 O   0  0  0  0  0  0  0  0  0  0  0  0
   24.7508  -21.1917  -10.6508 C   0  0  0  0  0  0  0  0  0  0  0  0
   25.6048  -20.1908  -11.3701 C   0  0  0  0  0  0  0  0  0  0  0  0
   25.4753  -20.1840  -12.8666 C   0  0  2  0  0  0  0  0  0  0  0  0
   26.3605  -19.1638  -13.4381 N   0  0  0  0  0  0  0  0  0  0  0  0
   24.0741  -19.9334  -13.2702 C   0  0  0  0  0  0  0  0  0  0  0  0
   23.6430  -18.7582  -13.2385 O   0  0  0  0  0  0  0  0  0  0  0  0
   20.0027  -21.0828  -15.6812 C   0  0  0  0  0  0  0  0  0  0  0  0
   21.4817  -21.1926  -15.4235 C   0  0  1  0  0  0  0  0  0  0  0  0
   22.2027  -20.5236  -16.4116 O   0  0  0  0  0  0  0  0  0  0  0  0
   21.8318  -20.6438  -14.0477 C   0  0  2  0  0  0  0  0  0  0  0  0
   23.1932  -20.9548  -13.6911 N   0  0  0  0  0  0  0  0  0  0  0  0
   20.9239  -21.2179  -13.0229 C   0  0  0  0  0  0  0  0  0  0  0  0
   21.2017  -22.2896  -12.4543 O   0  0  0  0  0  0  0  0  0  0  0  0
   19.7643  -20.5154  -12.7296 O   0  0  0  0  0  0  0  0  0  0  0  0
  2  1  1  6
  2  3  1  0
  4  5  1  6
  4  2  1  0
  6  4  1  0
  7  6  2  0
  8  9  1  0
  9 11  1  0
  9 10  2  0
 11 12  1  0
 13 12  1  1
 13 14  1  0
 14  6  1  0
 15 21  1  0
 15 13  1  0
 16 15  2  0
 18 17  1  6
 18 20  1  0
 18 19  1  0
 20 21  1  1
 20 22  1  0
 22 24  1  0
 23 22  2  0
M  END
$$$$
