TQT.pdb
     RDKit          3D

 24 23  0  0  1  0  0  0  0  0999 V2000
   14.5411  -14.0456  -10.1544 C   0  0  0  0  0  0  0  0  0  0  0  0
   14.9804  -12.7628  -10.8031 C   0  0  1  0  0  0  0  0  0  0  0  0
   14.6952  -12.8671  -12.1753 O   0  0  0  0  0  0  0  0  0  0  0  0
   14.0906  -11.6530  -10.2608 C   0  0  2  0  0  0  0  0  0  0  0  0
   12.7467  -11.9895  -10.5113 N   0  0  0  0  0  0  0  0  0  0  0  0
   14.5132  -10.3286  -10.7206 C   0  0  0  0  0  0  0  0  0  0  0  0
   13.8327   -9.7571  -11.6106 O   0  0  0  0  0  0  0  0  0  0  0  0
   15.8543   -5.5152   -7.6264 N   0  0  0  0  0  0  0  0  0  0  0  0
   14.6041   -5.8017   -8.2138 C   0  0  0  0  0  0  0  0  0  0  0  0
   13.5869   -5.2017   -7.8434 O   0  0  0  0  0  0  0  0  0  0  0  0
   14.5431   -6.8397   -9.2856 C   0  0  0  0  0  0  0  0  0  0  0  0
   15.9307   -7.3697   -9.4906 C   0  0  0  0  0  0  0  0  0  0  0  0
   16.0917   -8.3461  -10.6208 C   0  0  2  0  0  0  0  0  0  0  0  0
   15.6617   -9.6806  -10.1906 N   0  0  0  0  0  0  0  0  0  0  0  0
   17.4960   -8.3832  -11.0852 C   0  0  0  0  0  0  0  0  0  0  0  0
   18.3568   -8.9143  -10.3471 O   0  0  0  0  0  0  0  0  0  0  0  0
   20.8448   -8.8370  -14.4849 C   0  0  0  0  0  0  0  0  0  0  0  0
   19.4097   -8.7549  -14.0383 C   0  0  1  0  0  0  0  0  0  0  0  0
   18.8700  -10.0312  -13.8848 O   0  0  0  0  0  0  0  0  0  0  0  0
   19.2928   -7.9697  -12.7397 C   0  0  2  0  0  0  0  0  0  0  0  0
   17.9185   -7.8487  -12.3230 N   0  0  0  0  0  0  0  0  0  0  0  0
   19.8638   -6.6101  -12.9121 C   0  0  0  0  0  0  0  0  0  0  0  0
   19.1243   -5.6294  -13.1134 O   0  0  0  0  0  0  0  0  0  0  0  0
   21.2431   -6.4813  -12.8398 O   0  0  0  0  0  0  0  0  0  0  0  0
  2  1  1  1
  2  3  1  0
  4  5  1  6
  4  2  1  0
  6  4  1  0
  7  6  2  0
  8  9  1  0
  9 11  1  0
  9 10  2  0
 11 12  1  0
 13 12  1  1
 13 14  1  0
 14  6  1  0
 15 21  1  0
 15 13  1  0
 16 15  2  0
 18 17  1  1
 18 20  1  0
 18 19  1  0
 20 21  1  6
 20 22  1  0
 22 24  1  0
 23 22  2  0
M  END
$$$$
