TQT.pdb
     RDKit          3D

 24 23  0  0  1  0  0  0  0  0999 V2000
   25.9651  -20.5689  -15.0827 C   0  0  0  0  0  0  0  0  0  0  0  0
   26.2025  -22.0349  -15.3150 C   0  0  1  0  0  0  0  0  0  0  0  0
   27.4412  -22.3567  -14.7344 O   0  0  0  0  0  0  0  0  0  0  0  0
   25.1458  -22.7955  -14.5261 C   0  0  2  0  0  0  0  0  0  0  0  0
   25.4730  -24.1647  -14.5378 N   0  0  0  0  0  0  0  0  0  0  0  0
   23.7862  -22.4607  -14.9541 C   0  0  0  0  0  0  0  0  0  0  0  0
   23.3625  -22.9409  -16.0366 O   0  0  0  0  0  0  0  0  0  0  0  0
   18.7160  -23.3613  -12.6780 N   0  0  0  0  0  0  0  0  0  0  0  0
   19.7093  -22.8608  -11.8103 C   0  0  0  0  0  0  0  0  0  0  0  0
   19.6565  -23.0975  -10.5966 O   0  0  0  0  0  0  0  0  0  0  0  0
   20.8163  -22.0448  -12.3922 C   0  0  0  0  0  0  0  0  0  0  0  0
   20.5509  -21.8916  -13.8600 C   0  0  0  0  0  0  0  0  0  0  0  0
   21.6190  -21.1809  -14.6415 C   0  0  2  0  0  0  0  0  0  0  0  0
   22.9429  -21.6151  -14.1836 N   0  0  0  0  0  0  0  0  0  0  0  0
   21.4821  -19.7143  -14.5021 C   0  0  0  0  0  0  0  0  0  0  0  0
   21.6402  -19.2032  -13.3700 O   0  0  0  0  0  0  0  0  0  0  0  0
   23.4520  -16.8926  -16.1690 C   0  0  0  0  0  0  0  0  0  0  0  0
   21.9833  -16.7110  -16.4440 C   0  0  1  0  0  0  0  0  0  0  0  0
   21.6626  -17.1712  -17.7203 O   0  0  0  0  0  0  0  0  0  0  0  0
   21.1454  -17.4283  -15.3952 C   0  0  2  0  0  0  0  0  0  0  0  0
   21.1812  -18.8567  -15.5839 N   0  0  0  0  0  0  0  0  0  0  0  0
   19.7353  -16.9696  -15.4671 C   0  0  0  0  0  0  0  0  0  0  0  0
   19.4432  -15.7753  -15.2731 O   0  0  0  0  0  0  0  0  0  0  0  0
   18.7671  -17.9198  -15.7570 O   0  0  0  0  0  0  0  0  0  0  0  0
  2  1  1  1
  2  3  1  0
  4  5  1  6
  4  2  1  0
  6  4  1  0
  7  6  2  0
  8  9  1  0
  9 11  1  0
  9 10  2  0
 11 12  1  0
 13 12  1  1
 13 14  1  0
 14  6  1  0
 15 21  1  0
 15 13  1  0
 16 15  2  0
 18 17  1  1
 18 20  1  0
 18 19  1  0
 20 21  1  6
 20 22  1  0
 22 24  1  0
 23 22  2  0
M  END
$$$$
