TQT.pdb
     RDKit          3D

 24 23  0  0  1  0  0  0  0  0999 V2000
   19.3274  -10.1123  -19.4355 C   0  0  0  0  0  0  0  0  0  0  0  0
   18.8062  -11.0191  -18.3559 C   0  0  1  0  0  0  0  0  0  0  0  0
   18.8445  -12.3321  -18.8556 O   0  0  0  0  0  0  0  0  0  0  0  0
   19.7986  -10.9675  -17.2027 C   0  0  2  0  0  0  0  0  0  0  0  0
   19.5117  -12.0203  -16.3132 N   0  0  0  0  0  0  0  0  0  0  0  0
   19.8861   -9.6335  -16.6054 C   0  0  0  0  0  0  0  0  0  0  0  0
   18.8474   -9.1308  -16.1051 O   0  0  0  0  0  0  0  0  0  0  0  0
   21.8579   -7.1099  -12.9829 N   0  0  0  0  0  0  0  0  0  0  0  0
   22.3762   -5.9193  -13.5341 C   0  0  0  0  0  0  0  0  0  0  0  0
   22.4347   -4.8881  -12.8520 O   0  0  0  0  0  0  0  0  0  0  0  0
   22.8478   -5.9378  -14.9508 C   0  0  0  0  0  0  0  0  0  0  0  0
   22.5897   -7.3080  -15.5025 C   0  0  0  0  0  0  0  0  0  0  0  0
   21.2036   -7.5438  -16.0313 C   0  0  2  0  0  0  0  0  0  0  0  0
   21.1037   -8.9011  -16.5779 N   0  0  0  0  0  0  0  0  0  0  0  0
   20.8613   -6.5454  -17.0681 C   0  0  0  0  0  0  0  0  0  0  0  0
   21.3078   -6.7082  -18.2266 O   0  0  0  0  0  0  0  0  0  0  0  0
   17.8492   -3.2283  -18.9545 C   0  0  0  0  0  0  0  0  0  0  0  0
   18.1941   -4.2705  -17.9246 C   0  0  1  0  0  0  0  0  0  0  0  0
   17.5083   -5.4574  -18.1791 O   0  0  0  0  0  0  0  0  0  0  0  0
   19.6950   -4.5213  -17.8925 C   0  0  2  0  0  0  0  0  0  0  0  0
   20.0538   -5.4131  -16.8187 N   0  0  0  0  0  0  0  0  0  0  0  0
   20.4231   -3.2396  -17.7159 C   0  0  0  0  0  0  0  0  0  0  0  0
   20.5301   -2.4328  -18.6576 O   0  0  0  0  0  0  0  0  0  0  0  0
   20.9733   -2.9827  -16.4688 O   0  0  0  0  0  0  0  0  0  0  0  0
  2  1  1  6
  2  3  1  0
  4  5  1  1
  4  2  1  0
  6  4  1  0
  7  6  2  0
  8  9  1  0
  9 11  1  0
  9 10  2  0
 11 12  1  0
 13 12  1  6
 13 14  1  0
 14  6  1  0
 15 21  1  0
 15 13  1  0
 16 15  2  0
 18 17  1  6
 18 20  1  0
 18 19  1  0
 20 21  1  1
 20 22  1  0
 22 24  1  0
 23 22  2  0
M  END
$$$$
