TQT.pdb
     RDKit          3D

 24 23  0  0  1  0  0  0  0  0999 V2000
   26.1242  -17.9736  -14.7335 C   0  0  0  0  0  0  0  0  0  0  0  0
   27.0865  -19.1197  -14.8742 C   0  0  1  0  0  0  0  0  0  0  0  0
   28.3790  -18.5746  -14.9601 O   0  0  0  0  0  0  0  0  0  0  0  0
   27.0385  -19.9135  -13.5762 C   0  0  2  0  0  0  0  0  0  0  0  0
   28.1430  -20.7857  -13.5398 N   0  0  0  0  0  0  0  0  0  0  0  0
   25.7300  -20.5311  -13.3516 C   0  0  0  0  0  0  0  0  0  0  0  0
   25.4779  -21.6252  -13.9182 O   0  0  0  0  0  0  0  0  0  0  0  0
   21.8629  -19.2668   -8.6851 N   0  0  0  0  0  0  0  0  0  0  0  0
   22.8264  -20.2889   -8.5536 C   0  0  0  0  0  0  0  0  0  0  0  0
   23.1731  -20.6809   -7.4319 O   0  0  0  0  0  0  0  0  0  0  0  0
   23.4109  -20.8791   -9.7945 C   0  0  0  0  0  0  0  0  0  0  0  0
   22.8888  -20.0990  -10.9638 C   0  0  0  0  0  0  0  0  0  0  0  0
   23.4189  -20.5114  -12.3074 C   0  0  2  0  0  0  0  0  0  0  0  0
   24.7488  -19.9299  -12.5176 N   0  0  0  0  0  0  0  0  0  0  0  0
   22.4975  -20.0907  -13.3859 C   0  0  0  0  0  0  0  0  0  0  0  0
   22.7588  -19.0445  -14.0223 O   0  0  0  0  0  0  0  0  0  0  0  0
   22.1905  -22.5540  -15.8699 C   0  0  0  0  0  0  0  0  0  0  0  0
   21.7424  -21.1401  -16.1266 C   0  0  1  0  0  0  0  0  0  0  0  0
   21.1648  -21.0304  -17.3907 O   0  0  0  0  0  0  0  0  0  0  0  0
   20.7643  -20.6811  -15.0546 C   0  0  2  0  0  0  0  0  0  0  0  0
   21.3334  -20.8105  -13.7368 N   0  0  0  0  0  0  0  0  0  0  0  0
   19.5190  -21.4865  -15.1212 C   0  0  0  0  0  0  0  0  0  0  0  0
   19.1742  -22.2065  -14.1662 O   0  0  0  0  0  0  0  0  0  0  0  0
   18.7639  -21.4029  -16.2818 O   0  0  0  0  0  0  0  0  0  0  0  0
  2  1  1  1
  2  3  1  0
  4  5  1  6
  4  2  1  0
  6  4  1  0
  7  6  2  0
  8  9  1  0
  9 11  1  0
  9 10  2  0
 11 12  1  0
 13 12  1  1
 13 14  1  0
 14  6  1  0
 15 21  1  0
 15 13  1  0
 16 15  2  0
 18 17  1  1
 18 20  1  0
 18 19  1  0
 20 21  1  1
 20 22  1  0
 22 24  1  0
 23 22  2  0
M  END
$$$$
