WIP.pdb
     RDKit          3D

 30 32  0  0  1  0  0  0  0  0999 V2000
    5.5775  -17.9341   24.4435 N   0  0  0  0  0  0  0  0  0  0  0  0
    6.3840  -16.7631   24.3026 C   0  0  1  0  0  0  0  0  0  0  0  0
    7.2044  -16.4844   25.5415 C   0  0  0  0  0  0  0  0  0  0  0  0
    6.6347  -15.3037   26.2362 C   0  0  0  0  0  0  0  0  0  0  0  0
    5.4414  -15.2268   26.9213 C   0  0  0  0  0  0  0  0  0  0  0  0
    5.2733  -13.9797   27.4140 N   0  0  0  0  0  0  0  0  0  0  0  0
    6.3417  -13.2426   27.0589 C   0  0  0  0  0  0  0  0  0  0  0  0
    6.6460  -11.9206   27.3142 C   0  0  0  0  0  0  0  0  0  0  0  0
    7.8143  -11.3606   26.8470 C   0  0  0  0  0  0  0  0  0  0  0  0
    8.6559  -12.1764   26.1197 C   0  0  0  0  0  0  0  0  0  0  0  0
    8.3771  -13.5000   25.8499 C   0  0  0  0  0  0  0  0  0  0  0  0
    7.2104  -14.0411   26.3222 C   0  0  0  0  0  0  0  0  0  0  0  0
    7.2614  -16.8620   23.0924 C   0  0  0  0  0  0  0  0  0  0  0  0
    7.7222  -17.9950   22.7970 O   0  0  0  0  0  0  0  0  0  0  0  0
    6.9606  -12.5486   19.8629 C   0  0  0  0  0  0  0  0  0  0  0  0
    7.0120  -13.9849   20.2923 C   0  0  0  0  0  0  0  0  0  0  0  0
    8.4445  -14.3584   20.6192 C   0  0  2  0  0  0  0  0  0  0  0  0
    9.2462  -14.0741   19.3964 C   0  0  0  0  0  0  0  0  0  0  0  0
    8.4563  -15.7395   21.1500 C   0  0  2  0  0  0  0  0  0  0  0  0
    7.5506  -15.7108   22.3209 N   0  0  0  0  0  0  0  0  0  0  0  0
    9.7372  -16.3407   21.4896 C   0  0  0  0  0  0  0  0  0  0  0  0
   10.2423  -15.9083   22.6056 O   0  0  0  0  0  0  0  0  0  0  0  0
   10.5069  -17.2892   20.8384 N   0  0  0  0  0  0  0  0  0  0  0  0
   10.2089  -18.0274   19.6427 C   0  0  0  0  0  0  0  0  0  0  0  0
   10.8160  -19.4131   19.7989 C   0  0  0  0  0  0  0  0  0  0  0  0
   11.9855  -19.1532   20.6936 C   0  0  0  0  0  0  0  0  0  0  0  0
   11.8064  -17.7874   21.2691 C   0  0  1  0  0  0  0  0  0  0  0  0
   12.9016  -16.8818   20.7868 C   0  0  0  0  0  0  0  0  0  0  0  0
   14.0692  -16.9678   21.1990 O   0  0  0  0  0  0  0  0  0  0  0  0
   12.5811  -15.9298   19.8557 O   0  0  0  0  0  0  0  0  0  0  0  0
  2  1  1  1
  2 13  1  0
  3  4  1  0
  3  2  1  0
  4  5  2  0
  5  6  1  0
  7  6  1  0
  8  7  2  0
  9  8  1  0
 10 11  1  0
 10  9  2  0
 11 12  2  0
 12  4  1  0
 12  7  1  0
 13 20  1  0
 13 14  2  0
 16 17  1  0
 16 15  1  0
 17 18  1  6
 19 17  1  0
 19 21  1  0
 19 20  1  1
 21 22  2  0
 23 27  1  0
 23 21  1  0
 24 23  1  0
 25 24  1  0
 25 26  1  0
 26 27  1  0
 27 28  1  6
 28 29  2  0
 28 30  1  0
M  END
$$$$
