WIP.pdb
     RDKit          3D

 30 32  0  0  1  0  0  0  0  0999 V2000
    7.5990  -14.5394   20.6677 N   0  0  0  0  0  0  0  0  0  0  0  0
    7.9097  -15.5420   21.6372 C   0  0  1  0  0  0  0  0  0  0  0  0
    8.7977  -16.6263   21.0705 C   0  0  0  0  0  0  0  0  0  0  0  0
    7.9927  -17.4743   20.1571 C   0  0  0  0  0  0  0  0  0  0  0  0
    7.3897  -17.0997   18.9760 C   0  0  0  0  0  0  0  0  0  0  0  0
    6.7455  -18.1563   18.4330 N   0  0  0  0  0  0  0  0  0  0  0  0
    6.9209  -19.2149   19.2449 C   0  0  0  0  0  0  0  0  0  0  0  0
    6.4679  -20.5144   19.1375 C   0  0  0  0  0  0  0  0  0  0  0  0
    6.7711  -21.4513   20.1004 C   0  0  0  0  0  0  0  0  0  0  0  0
    7.5409  -21.0321   21.1654 C   0  0  0  0  0  0  0  0  0  0  0  0
    8.0067  -19.7406   21.2981 C   0  0  0  0  0  0  0  0  0  0  0  0
    7.6959  -18.8213   20.3311 C   0  0  0  0  0  0  0  0  0  0  0  0
    8.5265  -14.9307   22.8580 C   0  0  0  0  0  0  0  0  0  0  0  0
    9.6832  -14.4479   22.7477 O   0  0  0  0  0  0  0  0  0  0  0  0
    5.6570  -11.9686   25.7606 C   0  0  0  0  0  0  0  0  0  0  0  0
    6.9160  -12.5576   25.1969 C   0  0  0  0  0  0  0  0  0  0  0  0
    7.3531  -13.7243   26.0609 C   0  0  2  0  0  0  0  0  0  0  0  0
    7.6585  -13.1638   27.4067 C   0  0  0  0  0  0  0  0  0  0  0  0
    8.4297  -14.4510   25.3522 C   0  0  2  0  0  0  0  0  0  0  0  0
    7.8177  -14.9062   24.0832 N   0  0  0  0  0  0  0  0  0  0  0  0
    9.0943  -15.5480   26.0396 C   0  0  0  0  0  0  0  0  0  0  0  0
    8.3744  -16.6256   26.1304 O   0  0  0  0  0  0  0  0  0  0  0  0
   10.3526  -15.6464   26.6080 N   0  0  0  0  0  0  0  0  0  0  0  0
   11.3501  -14.6263   26.7746 C   0  0  0  0  0  0  0  0  0  0  0  0
   12.7100  -15.2861   26.6054 C   0  0  0  0  0  0  0  0  0  0  0  0
   12.4489  -16.6844   27.0661 C   0  0  0  0  0  0  0  0  0  0  0  0
   10.9677  -16.8577   27.1342 C   0  0  1  0  0  0  0  0  0  0  0  0
   10.5445  -17.0860   28.5559 C   0  0  0  0  0  0  0  0  0  0  0  0
   10.8513  -18.1094   29.1877 O   0  0  0  0  0  0  0  0  0  0  0  0
    9.7911  -16.1164   29.1627 O   0  0  0  0  0  0  0  0  0  0  0  0
  2  1  1  6
  2 13  1  0
  3  4  1  0
  3  2  1  0
  4  5  2  0
  5  6  1  0
  7  6  1  0
  8  7  2  0
  9  8  1  0
 10 11  1  0
 10  9  2  0
 11 12  2  0
 12  4  1  0
 12  7  1  0
 13 20  1  0
 13 14  2  0
 16 17  1  0
 16 15  1  0
 17 18  1  1
 19 17  1  0
 19 21  1  0
 19 20  1  6
 21 22  2  0
 23 27  1  0
 23 21  1  0
 24 23  1  0
 25 24  1  0
 25 26  1  0
 26 27  1  0
 27 28  1  1
 28 29  2  0
 28 30  1  0
M  END
$$$$
