WIP.pdb
     RDKit          3D

 30 32  0  0  1  0  0  0  0  0999 V2000
    6.0401  -17.6725   21.7642 N   0  0  0  0  0  0  0  0  0  0  0  0
    6.8452  -16.6825   22.4073 C   0  0  1  0  0  0  0  0  0  0  0  0
    6.4208  -15.2783   22.0422 C   0  0  0  0  0  0  0  0  0  0  0  0
    7.2814  -14.3143   22.7711 C   0  0  0  0  0  0  0  0  0  0  0  0
    8.5742  -13.9459   22.4676 C   0  0  0  0  0  0  0  0  0  0  0  0
    9.0191  -13.0432   23.3696 N   0  0  0  0  0  0  0  0  0  0  0  0
    8.0330  -12.8185   24.2572 C   0  0  0  0  0  0  0  0  0  0  0  0
    7.9885  -11.9893   25.3598 C   0  0  0  0  0  0  0  0  0  0  0  0
    6.8578  -11.9129   26.1425 C   0  0  0  0  0  0  0  0  0  0  0  0
    5.7841  -12.6968   25.7745 C   0  0  0  0  0  0  0  0  0  0  0  0
    5.8010  -13.5338   24.6784 C   0  0  0  0  0  0  0  0  0  0  0  0
    6.9339  -13.5977   23.9107 C   0  0  0  0  0  0  0  0  0  0  0  0
    6.8390  -16.8728   23.8932 C   0  0  0  0  0  0  0  0  0  0  0  0
    5.7217  -16.9528   24.4664 O   0  0  0  0  0  0  0  0  0  0  0  0
    7.1367  -20.3610   27.8811 C   0  0  0  0  0  0  0  0  0  0  0  0
    7.5424  -18.9283   27.7010 C   0  0  0  0  0  0  0  0  0  0  0  0
    7.6245  -18.6139   26.2201 C   0  0  2  0  0  0  0  0  0  0  0  0
    8.4230  -19.7070   25.5985 C   0  0  0  0  0  0  0  0  0  0  0  0
    8.1116  -17.2254   26.0650 C   0  0  2  0  0  0  0  0  0  0  0  0
    8.0568  -16.9573   24.6100 N   0  0  0  0  0  0  0  0  0  0  0  0
    9.4144  -16.8823   26.6151 C   0  0  0  0  0  0  0  0  0  0  0  0
   10.4144  -17.3614   25.9382 O   0  0  0  0  0  0  0  0  0  0  0  0
    9.7743  -16.1372   27.7247 N   0  0  0  0  0  0  0  0  0  0  0  0
    8.9302  -15.4731   28.6786 C   0  0  0  0  0  0  0  0  0  0  0  0
    9.6401  -14.1976   29.1057 C   0  0  0  0  0  0  0  0  0  0  0  0
   11.0814  -14.5629   28.9474 C   0  0  0  0  0  0  0  0  0  0  0  0
   11.1326  -15.8218   28.1468 C   0  0  1  0  0  0  0  0  0  0  0  0
   11.6946  -16.9356   28.9812 C   0  0  0  0  0  0  0  0  0  0  0  0
   10.9891  -17.8491   29.4379 O   0  0  0  0  0  0  0  0  0  0  0  0
   13.0400  -16.9267   29.2377 O   0  0  0  0  0  0  0  0  0  0  0  0
  2  1  1  6
  2 13  1  0
  3  4  1  0
  3  2  1  0
  4  5  2  0
  5  6  1  0
  7  6  1  0
  8  7  2  0
  9  8  1  0
 10 11  1  0
 10  9  2  0
 11 12  2  0
 12  4  1  0
 12  7  1  0
 13 20  1  0
 13 14  2  0
 16 17  1  0
 16 15  1  0
 17 18  1  6
 19 17  1  0
 19 21  1  0
 19 20  1  6
 21 22  2  0
 23 27  1  0
 23 21  1  0
 24 23  1  0
 25 24  1  0
 25 26  1  0
 26 27  1  0
 27 28  1  1
 28 29  2  0
 28 30  1  0
M  END
$$$$
