WIP.pdb
     RDKit          3D

 30 32  0  0  1  0  0  0  0  0999 V2000
    5.7529  -17.5707   24.2311 N   0  0  0  0  0  0  0  0  0  0  0  0
    6.6030  -16.4455   24.0009 C   0  0  1  0  0  0  0  0  0  0  0  0
    7.4922  -16.1514   25.1875 C   0  0  0  0  0  0  0  0  0  0  0  0
    6.8029  -15.1799   26.0720 C   0  0  0  0  0  0  0  0  0  0  0  0
    5.7205  -15.4120   26.8927 C   0  0  0  0  0  0  0  0  0  0  0  0
    5.3815  -14.2749   27.5396 N   0  0  0  0  0  0  0  0  0  0  0  0
    6.2289  -13.3046   27.1511 C   0  0  0  0  0  0  0  0  0  0  0  0
    6.3026  -11.9759   27.5183 C   0  0  0  0  0  0  0  0  0  0  0  0
    7.2665  -11.1476   26.9877 C   0  0  0  0  0  0  0  0  0  0  0  0
    8.1449  -11.7045   26.0816 C   0  0  0  0  0  0  0  0  0  0  0  0
    8.0943  -13.0282   25.6969 C   0  0  0  0  0  0  0  0  0  0  0  0
    7.1291  -13.8382   26.2345 C   0  0  0  0  0  0  0  0  0  0  0  0
    7.4173  -16.6376   22.7582 C   0  0  0  0  0  0  0  0  0  0  0  0
    7.6830  -17.8176   22.4115 O   0  0  0  0  0  0  0  0  0  0  0  0
    7.2302  -12.2923   19.7845 C   0  0  0  0  0  0  0  0  0  0  0  0
    7.2030  -13.7468   20.1501 C   0  0  0  0  0  0  0  0  0  0  0  0
    8.6198  -14.2865   20.1610 C   0  0  2  0  0  0  0  0  0  0  0  0
    9.1477  -14.1193   18.7782 C   0  0  0  0  0  0  0  0  0  0  0  0
    8.5941  -15.6509   20.7328 C   0  0  2  0  0  0  0  0  0  0  0  0
    7.8630  -15.5191   22.0134 N   0  0  0  0  0  0  0  0  0  0  0  0
    9.8575  -16.3492   20.9171 C   0  0  0  0  0  0  0  0  0  0  0  0
   10.5087  -15.9871   21.9812 O   0  0  0  0  0  0  0  0  0  0  0  0
   10.4829  -17.3280   20.1642 N   0  0  0  0  0  0  0  0  0  0  0  0
   10.0454  -17.9447   18.9429 C   0  0  0  0  0  0  0  0  0  0  0  0
   10.5006  -19.3955   18.9760 C   0  0  0  0  0  0  0  0  0  0  0  0
   11.7346  -19.3267   19.8175 C   0  0  0  0  0  0  0  0  0  0  0  0
   11.7382  -17.9929   20.4879 C   0  0  1  0  0  0  0  0  0  0  0  0
   12.9028  -17.1800   20.0027 C   0  0  0  0  0  0  0  0  0  0  0  0
   12.7855  -16.2924   19.1429 O   0  0  0  0  0  0  0  0  0  0  0  0
   14.1346  -17.4422   20.5410 O   0  0  0  0  0  0  0  0  0  0  0  0
  2  1  1  1
  2 13  1  0
  3  4  1  0
  3  2  1  0
  4  5  2  0
  5  6  1  0
  7  6  1  0
  8  7  2  0
  9  8  1  0
 10 11  1  0
 10  9  2  0
 11 12  2  0
 12  4  1  0
 12  7  1  0
 13 20  1  0
 13 14  2  0
 16 17  1  0
 16 15  1  0
 17 18  1  6
 19 17  1  0
 19 21  1  0
 19 20  1  1
 21 22  2  0
 23 27  1  0
 23 21  1  0
 24 23  1  0
 25 24  1  0
 25 26  1  0
 26 27  1  0
 27 28  1  6
 28 29  2  0
 28 30  1  0
M  END
$$$$
