WIP.pdb
     RDKit          3D

 30 32  0  0  1  0  0  0  0  0999 V2000
    5.6495  -18.2368   24.6788 N   0  0  0  0  0  0  0  0  0  0  0  0
    6.3284  -16.9894   24.5209 C   0  0  1  0  0  0  0  0  0  0  0  0
    7.0460  -16.5680   25.7829 C   0  0  0  0  0  0  0  0  0  0  0  0
    6.5594  -15.2248   26.1835 C   0  0  0  0  0  0  0  0  0  0  0  0
    5.2521  -14.8124   26.3244 C   0  0  0  0  0  0  0  0  0  0  0  0
    5.2170  -13.5157   26.7034 N   0  0  0  0  0  0  0  0  0  0  0  0
    6.4847  -13.0775   26.8113 C   0  0  0  0  0  0  0  0  0  0  0  0
    6.9800  -11.8385   27.1651 C   0  0  0  0  0  0  0  0  0  0  0  0
    8.3367  -11.6059   27.2116 C   0  0  0  0  0  0  0  0  0  0  0  0
    9.1669  -12.6597   26.8910 C   0  0  0  0  0  0  0  0  0  0  0  0
    8.6995  -13.9075   26.5342 C   0  0  0  0  0  0  0  0  0  0  0  0
    7.3470  -14.1217   26.4930 C   0  0  0  0  0  0  0  0  0  0  0  0
    7.2744  -17.0400   23.3604 C   0  0  0  0  0  0  0  0  0  0  0  0
    7.7411  -18.1628   23.0368 O   0  0  0  0  0  0  0  0  0  0  0  0
    7.1177  -12.6028   20.3129 C   0  0  0  0  0  0  0  0  0  0  0  0
    7.1523  -14.0543   20.6893 C   0  0  0  0  0  0  0  0  0  0  0  0
    8.5732  -14.4452   21.0453 C   0  0  2  0  0  0  0  0  0  0  0  0
    9.4122  -14.1199   19.8583 C   0  0  0  0  0  0  0  0  0  0  0  0
    8.5649  -15.8446   21.5257 C   0  0  2  0  0  0  0  0  0  0  0  0
    7.6192  -15.8563   22.6647 N   0  0  0  0  0  0  0  0  0  0  0  0
    9.8326  -16.4609   21.8873 C   0  0  0  0  0  0  0  0  0  0  0  0
   10.2812  -16.0981   23.0513 O   0  0  0  0  0  0  0  0  0  0  0  0
   10.6390  -17.3628   21.2149 N   0  0  0  0  0  0  0  0  0  0  0  0
   10.4148  -18.0056   19.9499 C   0  0  0  0  0  0  0  0  0  0  0  0
   11.0069  -19.4037   20.0373 C   0  0  0  0  0  0  0  0  0  0  0  0
   12.1185  -19.2217   21.0207 C   0  0  0  0  0  0  0  0  0  0  0  0
   11.9074  -17.9024   21.6867 C   0  0  1  0  0  0  0  0  0  0  0  0
   13.0334  -16.9710   21.3445 C   0  0  0  0  0  0  0  0  0  0  0  0
   12.9003  -16.0257   20.5511 O   0  0  0  0  0  0  0  0  0  0  0  0
   14.2472  -17.1885   21.9406 O   0  0  0  0  0  0  0  0  0  0  0  0
  2  1  1  1
  2 13  1  0
  3  4  1  0
  3  2  1  0
  4  5  2  0
  5  6  1  0
  7  6  1  0
  8  7  2  0
  9  8  1  0
 10 11  1  0
 10  9  2  0
 11 12  2  0
 12  4  1  0
 12  7  1  0
 13 20  1  0
 13 14  2  0
 16 17  1  0
 16 15  1  0
 17 18  1  6
 19 17  1  0
 19 21  1  0
 19 20  1  1
 21 22  2  0
 23 27  1  0
 23 21  1  0
 24 23  1  0
 25 24  1  0
 25 26  1  0
 26 27  1  0
 27 28  1  6
 28 29  2  0
 28 30  1  0
M  END
$$$$
