WIP.pdb
     RDKit          3D

 30 32  0  0  1  0  0  0  0  0999 V2000
    7.8112  -17.3855   21.9961 N   0  0  0  0  0  0  0  0  0  0  0  0
    7.7566  -15.9697   21.8110 C   0  0  1  0  0  0  0  0  0  0  0  0
    6.6613  -15.5627   20.8519 C   0  0  0  0  0  0  0  0  0  0  0  0
    7.2815  -15.1166   19.5799 C   0  0  0  0  0  0  0  0  0  0  0  0
    7.3388  -15.8038   18.3869 C   0  0  0  0  0  0  0  0  0  0  0  0
    7.9881  -15.0643   17.4607 N   0  0  0  0  0  0  0  0  0  0  0  0
    8.3548  -13.9038   18.0348 C   0  0  0  0  0  0  0  0  0  0  0  0
    9.0361  -12.8209   17.5165 C   0  0  0  0  0  0  0  0  0  0  0  0
    9.3095  -11.7182   18.2951 C   0  0  0  0  0  0  0  0  0  0  0  0
    8.8740  -11.7487   19.6036 C   0  0  0  0  0  0  0  0  0  0  0  0
    8.1915  -12.8170   20.1474 C   0  0  0  0  0  0  0  0  0  0  0  0
    7.9279  -13.9058   19.3588 C   0  0  0  0  0  0  0  0  0  0  0  0
    7.6048  -15.2655   23.1246 C   0  0  0  0  0  0  0  0  0  0  0  0
    6.8738  -14.2418   23.1566 O   0  0  0  0  0  0  0  0  0  0  0  0
    5.9998  -12.4736   26.7614 C   0  0  0  0  0  0  0  0  0  0  0  0
    7.1399  -12.9497   25.9109 C   0  0  0  0  0  0  0  0  0  0  0  0
    7.1618  -14.4657   25.9067 C   0  0  2  0  0  0  0  0  0  0  0  0
    6.6804  -14.9002   27.2476 C   0  0  0  0  0  0  0  0  0  0  0  0
    8.5052  -14.9109   25.4749 C   0  0  2  0  0  0  0  0  0  0  0  0
    8.2679  -15.7493   24.2779 N   0  0  0  0  0  0  0  0  0  0  0  0
    9.3512  -15.5974   26.4395 C   0  0  0  0  0  0  0  0  0  0  0  0
    9.5966  -16.8366   26.1365 O   0  0  0  0  0  0  0  0  0  0  0  0
    9.9400  -15.1646   27.6151 N   0  0  0  0  0  0  0  0  0  0  0  0
    9.7099  -13.9494   28.3457 C   0  0  0  0  0  0  0  0  0  0  0  0
   11.0379  -13.5238   28.9529 C   0  0  0  0  0  0  0  0  0  0  0  0
   11.7382  -14.8311   29.1439 C   0  0  0  0  0  0  0  0  0  0  0  0
   10.9852  -15.8542   28.3597 C   0  0  1  0  0  0  0  0  0  0  0  0
   10.3853  -16.8698   29.2877 C   0  0  0  0  0  0  0  0  0  0  0  0
    9.1629  -16.9526   29.4867 O   0  0  0  0  0  0  0  0  0  0  0  0
   11.2355  -17.7299   29.9307 O   0  0  0  0  0  0  0  0  0  0  0  0
  2  1  1  1
  2 13  1  0
  3  4  1  0
  3  2  1  0
  4  5  2  0
  5  6  1  0
  7  6  1  0
  8  7  2  0
  9  8  1  0
 10 11  1  0
 10  9  2  0
 11 12  2  0
 12  4  1  0
 12  7  1  0
 13 20  1  0
 13 14  2  0
 16 17  1  0
 16 15  1  0
 17 18  1  1
 19 17  1  0
 19 21  1  0
 19 20  1  6
 21 22  2  0
 23 27  1  0
 23 21  1  0
 24 23  1  0
 25 24  1  0
 25 26  1  0
 26 27  1  0
 27 28  1  1
 28 29  2  0
 28 30  1  0
M  END
$$$$
