WIP.pdb
     RDKit          3D

 30 32  0  0  1  0  0  0  0  0999 V2000
    6.5183  -19.1653   27.0611 N   0  0  0  0  0  0  0  0  0  0  0  0
    7.3950  -18.0432   26.9429 C   0  0  1  0  0  0  0  0  0  0  0  0
    8.8494  -18.4556   26.9315 C   0  0  0  0  0  0  0  0  0  0  0  0
    9.5473  -17.7765   28.0509 C   0  0  0  0  0  0  0  0  0  0  0  0
    9.9376  -18.3245   29.2535 C   0  0  0  0  0  0  0  0  0  0  0  0
   10.5444  -17.3849   30.0120 N   0  0  0  0  0  0  0  0  0  0  0  0
   10.5546  -16.2313   29.3192 C   0  0  0  0  0  0  0  0  0  0  0  0
   11.0538  -14.9880   29.6517 C   0  0  0  0  0  0  0  0  0  0  0  0
   10.9551  -13.9289   28.7768 C   0  0  0  0  0  0  0  0  0  0  0  0
   10.3399  -14.1688   27.5657 C   0  0  0  0  0  0  0  0  0  0  0  0
    9.8324  -15.4004   27.2076 C   0  0  0  0  0  0  0  0  0  0  0  0
    9.9390  -16.4431   28.0898 C   0  0  0  0  0  0  0  0  0  0  0  0
    7.0609  -17.2308   25.7293 C   0  0  0  0  0  0  0  0  0  0  0  0
    6.6389  -17.8441   24.7149 O   0  0  0  0  0  0  0  0  0  0  0  0
    5.9983  -12.2163   26.7139 C   0  0  0  0  0  0  0  0  0  0  0  0
    5.8360  -13.4177   25.8307 C   0  0  0  0  0  0  0  0  0  0  0  0
    7.0896  -13.5990   24.9973 C   0  0  2  0  0  0  0  0  0  0  0  0
    7.0826  -12.5117   23.9793 C   0  0  0  0  0  0  0  0  0  0  0  0
    7.1313  -14.9979   24.5170 C   0  0  2  0  0  0  0  0  0  0  0  0
    7.2208  -15.8243   25.7422 N   0  0  0  0  0  0  0  0  0  0  0  0
    8.1574  -15.3701   23.5546 C   0  0  0  0  0  0  0  0  0  0  0  0
    9.2755  -15.7484   24.0971 O   0  0  0  0  0  0  0  0  0  0  0  0
    8.1513  -15.3948   22.1706 N   0  0  0  0  0  0  0  0  0  0  0  0
    7.1395  -14.9283   21.2639 C   0  0  0  0  0  0  0  0  0  0  0  0
    7.1320  -15.8666   20.0669 C   0  0  0  0  0  0  0  0  0  0  0  0
    8.5504  -16.3373   20.0179 C   0  0  0  0  0  0  0  0  0  0  0  0
    9.1861  -15.9598   21.3147 C   0  0  1  0  0  0  0  0  0  0  0  0
   10.2759  -14.9557   21.0766 C   0  0  0  0  0  0  0  0  0  0  0  0
   10.1750  -13.7670   21.4193 O   0  0  0  0  0  0  0  0  0  0  0  0
   11.4182  -15.3865   20.4558 O   0  0  0  0  0  0  0  0  0  0  0  0
  2  1  1  6
  2 13  1  0
  3  4  1  0
  3  2  1  0
  4  5  2  0
  5  6  1  0
  7  6  1  0
  8  7  2  0
  9  8  1  0
 10 11  1  0
 10  9  2  0
 11 12  2  0
 12  4  1  0
 12  7  1  0
 13 20  1  0
 13 14  2  0
 16 17  1  0
 16 15  1  0
 17 18  1  6
 19 17  1  0
 19 21  1  0
 19 20  1  1
 21 22  2  0
 23 27  1  0
 23 21  1  0
 24 23  1  0
 25 24  1  0
 25 26  1  0
 26 27  1  0
 27 28  1  6
 28 29  2  0
 28 30  1  0
M  END
$$$$
