WIP.pdb
     RDKit          3D

 30 32  0  0  1  0  0  0  0  0999 V2000
    4.5164  -19.1829   24.0087 N   0  0  0  0  0  0  0  0  0  0  0  0
    5.6509  -18.6044   24.6569 C   0  0  1  0  0  0  0  0  0  0  0  0
    6.8446  -19.5320   24.6505 C   0  0  0  0  0  0  0  0  0  0  0  0
    6.9924  -20.1299   26.0003 C   0  0  0  0  0  0  0  0  0  0  0  0
    6.5325  -21.3555   26.4312 C   0  0  0  0  0  0  0  0  0  0  0  0
    6.8639  -21.5412   27.7281 N   0  0  0  0  0  0  0  0  0  0  0  0
    7.5339  -20.4524   28.1481 C   0  0  0  0  0  0  0  0  0  0  0  0
    8.0812  -20.1540   29.3798 C   0  0  0  0  0  0  0  0  0  0  0  0
    8.7350  -18.9607   29.5931 C   0  0  0  0  0  0  0  0  0  0  0  0
    8.8153  -18.0883   28.5277 C   0  0  0  0  0  0  0  0  0  0  0  0
    8.2778  -18.3606   27.2869 C   0  0  0  0  0  0  0  0  0  0  0  0
    7.6307  -19.5523   27.0919 C   0  0  0  0  0  0  0  0  0  0  0  0
    5.9988  -17.2823   24.0442 C   0  0  0  0  0  0  0  0  0  0  0  0
    5.8988  -17.1742   22.7946 O   0  0  0  0  0  0  0  0  0  0  0  0
    6.1083  -12.7890   27.1849 C   0  0  0  0  0  0  0  0  0  0  0  0
    5.9244  -13.6947   26.0035 C   0  0  0  0  0  0  0  0  0  0  0  0
    7.2834  -14.1053   25.4714 C   0  0  2  0  0  0  0  0  0  0  0  0
    8.0531  -12.8477   25.2597 C   0  0  0  0  0  0  0  0  0  0  0  0
    7.0784  -14.9965   24.3082 C   0  0  2  0  0  0  0  0  0  0  0  0
    6.4229  -16.2047   24.8583 N   0  0  0  0  0  0  0  0  0  0  0  0
    8.2311  -15.3479   23.4925 C   0  0  0  0  0  0  0  0  0  0  0  0
    9.0070  -16.2384   24.0335 O   0  0  0  0  0  0  0  0  0  0  0  0
    8.6430  -14.9053   22.2474 N   0  0  0  0  0  0  0  0  0  0  0  0
    8.1223  -13.8259   21.4553 C   0  0  0  0  0  0  0  0  0  0  0  0
    8.2301  -14.2382   19.9953 C   0  0  0  0  0  0  0  0  0  0  0  0
    9.4139  -15.1516   20.0053 C   0  0  0  0  0  0  0  0  0  0  0  0
    9.6985  -15.4902   21.4311 C   0  0  1  0  0  0  0  0  0  0  0  0
   11.0364  -14.9395   21.8300 C   0  0  0  0  0  0  0  0  0  0  0  0
   11.1601  -14.0083   22.6414 O   0  0  0  0  0  0  0  0  0  0  0  0
   12.1524  -15.4989   21.2665 O   0  0  0  0  0  0  0  0  0  0  0  0
  2  1  1  6
  2 13  1  0
  3  4  1  0
  3  2  1  0
  4  5  2  0
  5  6  1  0
  7  6  1  0
  8  7  2  0
  9  8  1  0
 10 11  1  0
 10  9  2  0
 11 12  2  0
 12  4  1  0
 12  7  1  0
 13 20  1  0
 13 14  2  0
 16 17  1  0
 16 15  1  0
 17 18  1  6
 19 17  1  0
 19 21  1  0
 19 20  1  1
 21 22  2  0
 23 27  1  0
 23 21  1  0
 24 23  1  0
 25 24  1  0
 25 26  1  0
 26 27  1  0
 27 28  1  1
 28 29  2  0
 28 30  1  0
M  END
$$$$
