WIP.pdb
     RDKit          3D

 30 32  0  0  1  0  0  0  0  0999 V2000
    6.6530  -19.3514   26.4690 N   0  0  0  0  0  0  0  0  0  0  0  0
    7.4315  -18.1712   26.6761 C   0  0  1  0  0  0  0  0  0  0  0  0
    8.8977  -18.4833   26.8715 C   0  0  0  0  0  0  0  0  0  0  0  0
    9.3348  -17.9272   28.1758 C   0  0  0  0  0  0  0  0  0  0  0  0
    9.5689  -18.6155   29.3464 C   0  0  0  0  0  0  0  0  0  0  0  0
    9.9525  -17.7563   30.3164 N   0  0  0  0  0  0  0  0  0  0  0  0
    9.9714  -16.5167   29.7931 C   0  0  0  0  0  0  0  0  0  0  0  0
   10.2921  -15.3035   30.3682 C   0  0  0  0  0  0  0  0  0  0  0  0
   10.2430  -14.1383   29.6356 C   0  0  0  0  0  0  0  0  0  0  0  0
    9.8620  -14.2419   28.3139 C   0  0  0  0  0  0  0  0  0  0  0  0
    9.5363  -15.4404   27.7139 C   0  0  0  0  0  0  0  0  0  0  0  0
    9.5904  -16.5899   28.4572 C   0  0  0  0  0  0  0  0  0  0  0  0
    7.2375  -17.2002   25.5519 C   0  0  0  0  0  0  0  0  0  0  0  0
    7.0138  -17.6708   24.4066 O   0  0  0  0  0  0  0  0  0  0  0  0
    6.5800  -11.9507   26.9987 C   0  0  0  0  0  0  0  0  0  0  0  0
    6.3502  -13.2208   26.2345 C   0  0  0  0  0  0  0  0  0  0  0  0
    7.5595  -13.5081   25.3664 C   0  0  2  0  0  0  0  0  0  0  0  0
    7.7620  -12.3059   24.5105 C   0  0  0  0  0  0  0  0  0  0  0  0
    7.3520  -14.8101   24.6947 C   0  0  2  0  0  0  0  0  0  0  0  0
    7.3070  -15.8062   25.7891 N   0  0  0  0  0  0  0  0  0  0  0  0
    8.2885  -15.2110   23.6556 C   0  0  0  0  0  0  0  0  0  0  0  0
    9.3333  -15.8403   24.1029 O   0  0  0  0  0  0  0  0  0  0  0  0
    8.2612  -15.0438   22.2818 N   0  0  0  0  0  0  0  0  0  0  0  0
    7.3612  -14.2563   21.4860 C   0  0  0  0  0  0  0  0  0  0  0  0
    7.1405  -14.9990   20.1772 C   0  0  0  0  0  0  0  0  0  0  0  0
    8.4259  -15.7443   20.0094 C   0  0  0  0  0  0  0  0  0  0  0  0
    9.1423  -15.6895   21.3179 C   0  0  1  0  0  0  0  0  0  0  0  0
   10.4177  -14.9123   21.1702 C   0  0  0  0  0  0  0  0  0  0  0  0
   10.5775  -13.7895   21.6746 O   0  0  0  0  0  0  0  0  0  0  0  0
   11.4330  -15.4803   20.4474 O   0  0  0  0  0  0  0  0  0  0  0  0
  2  1  1  6
  2 13  1  0
  3  4  1  0
  3  2  1  0
  4  5  2  0
  5  6  1  0
  7  6  1  0
  8  7  2  0
  9  8  1  0
 10 11  1  0
 10  9  2  0
 11 12  2  0
 12  4  1  0
 12  7  1  0
 13 20  1  0
 13 14  2  0
 16 17  1  0
 16 15  1  0
 17 18  1  6
 19 17  1  0
 19 21  1  0
 19 20  1  1
 21 22  2  0
 23 27  1  0
 23 21  1  0
 24 23  1  0
 25 24  1  0
 25 26  1  0
 26 27  1  0
 27 28  1  6
 28 29  2  0
 28 30  1  0
M  END
$$$$
