WIP.pdb
     RDKit          3D

 30 32  0  0  1  0  0  0  0  0999 V2000
    5.5873  -17.7692   24.4653 N   0  0  0  0  0  0  0  0  0  0  0  0
    6.4067  -16.6221   24.2318 C   0  0  1  0  0  0  0  0  0  0  0  0
    7.2617  -16.2797   25.4306 C   0  0  0  0  0  0  0  0  0  0  0  0
    6.6411  -15.1401   26.1501 C   0  0  0  0  0  0  0  0  0  0  0  0
    5.4039  -15.1025   26.7559 C   0  0  0  0  0  0  0  0  0  0  0  0
    5.1974  -13.8851   27.3052 N   0  0  0  0  0  0  0  0  0  0  0  0
    6.2842  -13.1287   27.0652 C   0  0  0  0  0  0  0  0  0  0  0  0
    6.5648  -11.8229   27.4141 C   0  0  0  0  0  0  0  0  0  0  0  0
    7.7597  -11.2370   27.0594 C   0  0  0  0  0  0  0  0  0  0  0  0
    8.6521  -12.0102   26.3464 C   0  0  0  0  0  0  0  0  0  0  0  0
    8.3979  -13.3167   25.9845 C   0  0  0  0  0  0  0  0  0  0  0  0
    7.2043  -13.8841   26.3455 C   0  0  0  0  0  0  0  0  0  0  0  0
    7.2522  -16.8104   23.0095 C   0  0  0  0  0  0  0  0  0  0  0  0
    7.5781  -17.9859   22.7010 O   0  0  0  0  0  0  0  0  0  0  0  0
    7.0087  -12.6470   19.7341 C   0  0  0  0  0  0  0  0  0  0  0  0
    7.0567  -14.0677   20.2127 C   0  0  0  0  0  0  0  0  0  0  0  0
    8.5020  -14.4795   20.4133 C   0  0  2  0  0  0  0  0  0  0  0  0
    9.1751  -14.3197   19.0942 C   0  0  0  0  0  0  0  0  0  0  0  0
    8.5217  -15.8180   21.0438 C   0  0  2  0  0  0  0  0  0  0  0  0
    7.6601  -15.6934   22.2413 N   0  0  0  0  0  0  0  0  0  0  0  0
    9.8092  -16.4068   21.3802 C   0  0  0  0  0  0  0  0  0  0  0  0
   10.3251  -15.9505   22.4817 O   0  0  0  0  0  0  0  0  0  0  0  0
   10.5757  -17.3644   20.7388 N   0  0  0  0  0  0  0  0  0  0  0  0
   10.2383  -18.1802   19.6055 C   0  0  0  0  0  0  0  0  0  0  0  0
   10.9048  -19.5330   19.8027 C   0  0  0  0  0  0  0  0  0  0  0  0
   12.1126  -19.1820   20.6114 C   0  0  0  0  0  0  0  0  0  0  0  0
   11.9153  -17.7923   21.1195 C   0  0  1  0  0  0  0  0  0  0  0  0
   12.9468  -16.8791   20.5240 C   0  0  0  0  0  0  0  0  0  0  0  0
   14.1415  -16.9128   20.8590 O   0  0  0  0  0  0  0  0  0  0  0  0
   12.5348  -15.9805   19.5760 O   0  0  0  0  0  0  0  0  0  0  0  0
  2  1  1  1
  2 13  1  0
  3  4  1  0
  3  2  1  0
  4  5  2  0
  5  6  1  0
  7  6  1  0
  8  7  2  0
  9  8  1  0
 10 11  1  0
 10  9  2  0
 11 12  2  0
 12  4  1  0
 12  7  1  0
 13 20  1  0
 13 14  2  0
 16 17  1  0
 16 15  1  0
 17 18  1  6
 19 17  1  0
 19 21  1  0
 19 20  1  1
 21 22  2  0
 23 27  1  0
 23 21  1  0
 24 23  1  0
 25 24  1  0
 25 26  1  0
 26 27  1  0
 27 28  1  6
 28 29  2  0
 28 30  1  0
M  END
$$$$
