IHW.pdb
     RDKit          3D

 33 35  0  0  1  0  0  0  0  0999 V2000
   30.6688  -17.7213  -19.5832 C   0  0  0  0  0  0  0  0  0  0  0  0
   29.3631  -16.9935  -19.5111 C   0  0  0  0  0  0  0  0  0  0  0  0
   28.7871  -16.9664  -18.1170 C   0  0  2  0  0  0  0  0  0  0  0  0
   29.7438  -16.2621  -17.1788 C   0  0  0  0  0  0  0  0  0  0  0  0
   28.5574  -18.3483  -17.5533 C   0  0  2  0  0  0  0  0  0  0  0  0
   27.7050  -19.1108  -18.4421 N   0  0  0  0  0  0  0  0  0  0  0  0
   27.8346  -18.1792  -16.2674 C   0  0  0  0  0  0  0  0  0  0  0  0
   28.3028  -17.5144  -15.3058 O   0  0  0  0  0  0  0  0  0  0  0  0
   26.5798  -18.7660  -16.0744 N   0  0  0  0  0  0  0  0  0  0  0  0
   25.7609  -18.6751  -14.8853 C   0  0  1  0  0  0  0  0  0  0  0  0
   24.5529  -17.8321  -15.0130 C   0  0  0  0  0  0  0  0  0  0  0  0
   24.8153  -16.4136  -15.3616 C   0  0  0  0  0  0  0  0  0  0  0  0
   24.7540  -15.7279  -16.5377 C   0  0  0  0  0  0  0  0  0  0  0  0
   25.1056  -14.4362  -16.3269 N   0  0  0  0  0  0  0  0  0  0  0  0
   25.3807  -14.3399  -15.0201 C   0  0  0  0  0  0  0  0  0  0  0  0
   25.2145  -15.5146  -14.4147 N   0  0  0  0  0  0  0  0  0  0  0  0
   25.3565  -20.0384  -14.4164 C   0  0  0  0  0  0  0  0  0  0  0  0
   25.0751  -20.9883  -15.1792 O   0  0  0  0  0  0  0  0  0  0  0  0
   25.2948  -20.2497  -13.0225 N   0  0  0  0  0  0  0  0  0  0  0  0
   25.0015  -21.6181  -12.5225 C   0  0  1  0  0  0  0  0  0  0  0  0
   26.0607  -21.9567  -11.5240 C   0  0  0  0  0  0  0  0  0  0  0  0
   26.1305  -21.1534  -10.3110 C   0  0  0  0  0  0  0  0  0  0  0  0
   25.0707  -20.4828   -9.6838 C   0  0  0  0  0  0  0  0  0  0  0  0
   25.5348  -19.8240   -8.6177 N   0  0  0  0  0  0  0  0  0  0  0  0
   26.8581  -20.0466   -8.5340 C   0  0  0  0  0  0  0  0  0  0  0  0
   27.8188  -19.6117   -7.6048 C   0  0  0  0  0  0  0  0  0  0  0  0
   29.1371  -19.9946   -7.7175 C   0  0  0  0  0  0  0  0  0  0  0  0
   29.5126  -20.8177   -8.7610 C   0  0  0  0  0  0  0  0  0  0  0  0
   28.5859  -21.2504   -9.6773 C   0  0  0  0  0  0  0  0  0  0  0  0
   27.2441  -20.8633   -9.5678 C   0  0  0  0  0  0  0  0  0  0  0  0
   23.6347  -21.6433  -12.0010 C   0  0  0  0  0  0  0  0  0  0  0  0
   22.9225  -22.8521  -11.8321 O   0  0  0  0  0  0  0  0  0  0  0  0
   22.9940  -20.6120  -11.6669 O   0  0  0  0  0  0  0  0  0  0  0  0
  1  2  1  0
  2  3  1  0
  3  4  1  1
  5  6  1  6
  5  3  1  0
  7  5  1  0
  8  7  2  0
  9  7  1  0
 10  9  1  0
 11 12  1  0
 10 11  1  6
 12 16  1  0
 13 12  2  0
 13 14  1  0
 14 15  1  0
 16 15  2  0
 17 19  1  0
 17 10  1  0
 18 17  2  0
 20 21  1  1
 20 31  1  0
 20 19  1  0
 22 21  1  0
 22 30  1  0
 23 22  2  0
 24 23  1  0
 24 25  1  0
 25 26  1  0
 25 30  2  0
 26 27  2  0
 27 28  1  0
 29 28  2  0
 30 29  1  0
 31 32  1  0
 33 31  2  0
M  END
$$$$
