IHW.pdb
     RDKit          3D

 33 35  0  0  1  0  0  0  0  0999 V2000
   22.7240  -15.9094  -17.1379 C   0  0  0  0  0  0  0  0  0  0  0  0
   23.7516  -16.8328  -17.7137 C   0  0  0  0  0  0  0  0  0  0  0  0
   24.2416  -17.8537  -16.7170 C   0  0  2  0  0  0  0  0  0  0  0  0
   24.9412  -17.1574  -15.5692 C   0  0  0  0  0  0  0  0  0  0  0  0
   25.2350  -18.8219  -17.3136 C   0  0  2  0  0  0  0  0  0  0  0  0
   24.6255  -19.5436  -18.4117 N   0  0  0  0  0  0  0  0  0  0  0  0
   25.5714  -19.8076  -16.2554 C   0  0  0  0  0  0  0  0  0  0  0  0
   24.7405  -20.6464  -15.8176 O   0  0  0  0  0  0  0  0  0  0  0  0
   26.8523  -19.8395  -15.6945 N   0  0  0  0  0  0  0  0  0  0  0  0
   27.3172  -20.7394  -14.6615 C   0  0  1  0  0  0  0  0  0  0  0  0
   28.6404  -21.3522  -14.9062 C   0  0  0  0  0  0  0  0  0  0  0  0
   28.6805  -22.3255  -16.0259 C   0  0  0  0  0  0  0  0  0  0  0  0
   27.7185  -22.8063  -16.8628 C   0  0  0  0  0  0  0  0  0  0  0  0
   28.2701  -23.6991  -17.7202 N   0  0  0  0  0  0  0  0  0  0  0  0
   29.5691  -23.7591  -17.4012 C   0  0  0  0  0  0  0  0  0  0  0  0
   29.8440  -22.9429  -16.3851 N   0  0  0  0  0  0  0  0  0  0  0  0
   27.3368  -20.0523  -13.3314 C   0  0  0  0  0  0  0  0  0  0  0  0
   27.7790  -18.8978  -13.1441 O   0  0  0  0  0  0  0  0  0  0  0  0
   26.8189  -20.7649  -12.2289 N   0  0  0  0  0  0  0  0  0  0  0  0
   26.8232  -20.1120  -10.8940 C   0  0  1  0  0  0  0  0  0  0  0  0
   25.6379  -19.2030  -10.8464 C   0  0  0  0  0  0  0  0  0  0  0  0
   24.3265  -19.8083  -10.6580 C   0  0  0  0  0  0  0  0  0  0  0  0
   23.7657  -20.2416   -9.4481 C   0  0  0  0  0  0  0  0  0  0  0  0
   22.5635  -20.7750   -9.6850 N   0  0  0  0  0  0  0  0  0  0  0  0
   22.3279  -20.7005  -11.0065 C   0  0  0  0  0  0  0  0  0  0  0  0
   21.2219  -21.0948  -11.7791 C   0  0  0  0  0  0  0  0  0  0  0  0
   21.2019  -20.8934  -13.1415 C   0  0  0  0  0  0  0  0  0  0  0  0
   22.2877  -20.2949  -13.7499 C   0  0  0  0  0  0  0  0  0  0  0  0
   23.3760  -19.9048  -13.0090 C   0  0  0  0  0  0  0  0  0  0  0  0
   23.4018  -20.1080  -11.6233 C   0  0  0  0  0  0  0  0  0  0  0  0
   26.8424  -21.1513   -9.8643 C   0  0  0  0  0  0  0  0  0  0  0  0
   26.6757  -22.5185  -10.1805 O   0  0  0  0  0  0  0  0  0  0  0  0
   27.0055  -20.9182   -8.6376 O   0  0  0  0  0  0  0  0  0  0  0  0
  1  2  1  0
  2  3  1  0
  3  4  1  1
  5  6  1  6
  5  3  1  0
  7  5  1  0
  8  7  2  0
  9  7  1  0
 10  9  1  0
 11 12  1  0
 10 11  1  6
 12 16  1  0
 13 12  2  0
 13 14  1  0
 14 15  1  0
 16 15  2  0
 17 19  1  0
 17 10  1  0
 18 17  2  0
 20 21  1  1
 20 31  1  0
 20 19  1  0
 22 21  1  0
 22 30  1  0
 23 22  2  0
 24 23  1  0
 24 25  1  0
 25 26  1  0
 25 30  2  0
 26 27  2  0
 27 28  1  0
 29 28  2  0
 30 29  1  0
 31 32  1  0
 33 31  2  0
M  END
$$$$
