IHW.pdb
     RDKit          3D

 33 35  0  0  1  0  0  0  0  0999 V2000
   15.3878  -13.8079  -19.6011 C   0  0  0  0  0  0  0  0  0  0  0  0
   16.0939  -12.9561  -20.6090 C   0  0  0  0  0  0  0  0  0  0  0  0
   17.2098  -12.1409  -20.0038 C   0  0  2  0  0  0  0  0  0  0  0  0
   16.6545  -11.2199  -18.9384 C   0  0  0  0  0  0  0  0  0  0  0  0
   17.9105  -11.2675  -21.0169 C   0  0  2  0  0  0  0  0  0  0  0  0
   18.5443  -12.0903  -22.0266 N   0  0  0  0  0  0  0  0  0  0  0  0
   18.9800  -10.5342  -20.2937 C   0  0  0  0  0  0  0  0  0  0  0  0
   20.0845  -11.0607  -19.9961 O   0  0  0  0  0  0  0  0  0  0  0  0
   18.7938   -9.2027  -19.9084 N   0  0  0  0  0  0  0  0  0  0  0  0
   19.7298   -8.3807  -19.1727 C   0  0  1  0  0  0  0  0  0  0  0  0
   20.1147   -7.1154  -19.8338 C   0  0  0  0  0  0  0  0  0  0  0  0
   20.8358   -7.2774  -21.1208 C   0  0  0  0  0  0  0  0  0  0  0  0
   20.4711   -7.0552  -22.4149 C   0  0  0  0  0  0  0  0  0  0  0  0
   21.5010   -7.3741  -23.2360 N   0  0  0  0  0  0  0  0  0  0  0  0
   22.4913   -7.7907  -22.4369 C   0  0  0  0  0  0  0  0  0  0  0  0
   22.1187   -7.7430  -21.1591 N   0  0  0  0  0  0  0  0  0  0  0  0
   19.2035   -8.0753  -17.8047 C   0  0  0  0  0  0  0  0  0  0  0  0
   17.9900   -7.9473  -17.5318 O   0  0  0  0  0  0  0  0  0  0  0  0
   20.1488   -7.9267  -16.7676 N   0  0  0  0  0  0  0  0  0  0  0  0
   19.6708   -7.5126  -15.4228 C   0  0  1  0  0  0  0  0  0  0  0  0
   20.5098   -8.2335  -14.4178 C   0  0  0  0  0  0  0  0  0  0  0  0
   20.3261   -7.8944  -13.0132 C   0  0  0  0  0  0  0  0  0  0  0  0
   19.6973   -8.6767  -12.0340 C   0  0  0  0  0  0  0  0  0  0  0  0
   19.6917   -8.0120  -10.8747 N   0  0  0  0  0  0  0  0  0  0  0  0
   20.2961   -6.8272  -11.0710 C   0  0  0  0  0  0  0  0  0  0  0  0
   20.5707   -5.7648  -10.1926 C   0  0  0  0  0  0  0  0  0  0  0  0
   21.2328   -4.6385  -10.6287 C   0  0  0  0  0  0  0  0  0  0  0  0
   21.6295   -4.5593  -11.9492 C   0  0  0  0  0  0  0  0  0  0  0  0
   21.3680   -5.5885  -12.8198 C   0  0  0  0  0  0  0  0  0  0  0  0
   20.6942   -6.7358  -12.3817 C   0  0  0  0  0  0  0  0  0  0  0  0
   19.7251   -6.0531  -15.3352 C   0  0  0  0  0  0  0  0  0  0  0  0
   18.7138   -5.3060  -14.6903 O   0  0  0  0  0  0  0  0  0  0  0  0
   20.6575   -5.3574  -15.8171 O   0  0  0  0  0  0  0  0  0  0  0  0
  1  2  1  0
  2  3  1  0
  3  4  1  1
  5  6  1  6
  5  3  1  0
  7  5  1  0
  8  7  2  0
  9  7  1  0
 10  9  1  0
 11 12  1  0
 10 11  1  6
 12 16  1  0
 13 12  2  0
 13 14  1  0
 14 15  1  0
 16 15  2  0
 17 19  1  0
 17 10  1  0
 18 17  2  0
 20 21  1  1
 20 31  1  0
 20 19  1  0
 22 21  1  0
 22 30  1  0
 23 22  2  0
 24 23  1  0
 24 25  1  0
 25 26  1  0
 25 30  2  0
 26 27  2  0
 27 28  1  0
 29 28  2  0
 30 29  1  0
 31 32  1  0
 33 31  2  0
M  END
$$$$
