IHW.pdb
     RDKit          3D

 33 35  0  0  1  0  0  0  0  0999 V2000
   28.8051  -17.2025  -17.6742 C   0  0  0  0  0  0  0  0  0  0  0  0
   28.2905  -18.5417  -17.2476 C   0  0  0  0  0  0  0  0  0  0  0  0
   27.5751  -18.4954  -15.9203 C   0  0  2  0  0  0  0  0  0  0  0  0
   28.5101  -17.9744  -14.8498 C   0  0  0  0  0  0  0  0  0  0  0  0
   27.1010  -19.8548  -15.4649 C   0  0  2  0  0  0  0  0  0  0  0  0
   26.3034  -20.4750  -16.5029 N   0  0  0  0  0  0  0  0  0  0  0  0
   26.2224  -19.6376  -14.2879 C   0  0  0  0  0  0  0  0  0  0  0  0
   25.7754  -18.5034  -13.9724 O   0  0  0  0  0  0  0  0  0  0  0  0
   25.8521  -20.7094  -13.4692 N   0  0  0  0  0  0  0  0  0  0  0  0
   25.0023  -20.6461  -12.3002 C   0  0  1  0  0  0  0  0  0  0  0  0
   23.7516  -21.4302  -12.3851 C   0  0  0  0  0  0  0  0  0  0  0  0
   22.7962  -20.9715  -13.4240 C   0  0  0  0  0  0  0  0  0  0  0  0
   22.8012  -19.9059  -14.2734 C   0  0  0  0  0  0  0  0  0  0  0  0
   21.6766  -19.9249  -15.0293 N   0  0  0  0  0  0  0  0  0  0  0  0
   20.9891  -21.0045  -14.6362 C   0  0  0  0  0  0  0  0  0  0  0  0
   21.6392  -21.6529  -13.6714 N   0  0  0  0  0  0  0  0  0  0  0  0
   25.7562  -21.0622  -11.0753 C   0  0  0  0  0  0  0  0  0  0  0  0
   26.3633  -22.1492  -10.9602 O   0  0  0  0  0  0  0  0  0  0  0  0
   25.7749  -20.1593   -9.9909 N   0  0  0  0  0  0  0  0  0  0  0  0
   26.4031  -20.5918   -8.7155 C   0  0  1  0  0  0  0  0  0  0  0  0
   27.4140  -19.5535   -8.3502 C   0  0  0  0  0  0  0  0  0  0  0  0
   27.6291  -19.2851   -6.9348 C   0  0  0  0  0  0  0  0  0  0  0  0
   26.8961  -18.4066   -6.1241 C   0  0  0  0  0  0  0  0  0  0  0  0
   27.4163  -18.4043   -4.8932 N   0  0  0  0  0  0  0  0  0  0  0  0
   28.4599  -19.2518   -4.8804 C   0  0  0  0  0  0  0  0  0  0  0  0
   29.3374  -19.6333   -3.8508 C   0  0  0  0  0  0  0  0  0  0  0  0
   30.3381  -20.5523   -4.0775 C   0  0  0  0  0  0  0  0  0  0  0  0
   30.4748  -21.1023   -5.3369 C   0  0  0  0  0  0  0  0  0  0  0  0
   29.6258  -20.7393   -6.3534 C   0  0  0  0  0  0  0  0  0  0  0  0
   28.6071  -19.8046   -6.1284 C   0  0  0  0  0  0  0  0  0  0  0  0
   25.3498  -20.8006   -7.7217 C   0  0  0  0  0  0  0  0  0  0  0  0
   25.5791  -21.5301   -6.5333 O   0  0  0  0  0  0  0  0  0  0  0  0
   24.1774  -20.3572   -7.8408 O   0  0  0  0  0  0  0  0  0  0  0  0
  1  2  1  0
  2  3  1  0
  3  4  1  1
  5  6  1  6
  5  3  1  0
  7  5  1  0
  8  7  2  0
  9  7  1  0
 10  9  1  0
 11 12  1  0
 10 11  1  6
 12 16  1  0
 13 12  2  0
 13 14  1  0
 14 15  1  0
 16 15  2  0
 17 19  1  0
 17 10  1  0
 18 17  2  0
 20 21  1  1
 20 31  1  0
 20 19  1  0
 22 21  1  0
 22 30  1  0
 23 22  2  0
 24 23  1  0
 24 25  1  0
 25 26  1  0
 25 30  2  0
 26 27  2  0
 27 28  1  0
 29 28  2  0
 30 29  1  0
 31 32  1  0
 33 31  2  0
M  END
$$$$
