IHW.pdb
     RDKit          3D

 33 35  0  0  1  0  0  0  0  0999 V2000
   18.9219  -12.3900  -21.0271 C   0  0  0  0  0  0  0  0  0  0  0  0
   20.3483  -12.6710  -20.6713 C   0  0  0  0  0  0  0  0  0  0  0  0
   20.8565  -11.7874  -19.5592 C   0  0  2  0  0  0  0  0  0  0  0  0
   20.7702  -10.3347  -19.9761 C   0  0  0  0  0  0  0  0  0  0  0  0
   22.3007  -12.0590  -19.2115 C   0  0  2  0  0  0  0  0  0  0  0  0
   22.4687  -13.4496  -18.8425 N   0  0  0  0  0  0  0  0  0  0  0  0
   22.6246  -11.2325  -18.0213 C   0  0  0  0  0  0  0  0  0  0  0  0
   22.0603  -11.3932  -16.9071 O   0  0  0  0  0  0  0  0  0  0  0  0
   23.5897  -10.2230  -18.0977 N   0  0  0  0  0  0  0  0  0  0  0  0
   23.9519   -9.2973  -17.0467 C   0  0  1  0  0  0  0  0  0  0  0  0
   25.4034   -9.1509  -16.8061 C   0  0  0  0  0  0  0  0  0  0  0  0
   26.0865  -10.3831  -16.3396 C   0  0  0  0  0  0  0  0  0  0  0  0
   25.6226  -11.6122  -15.9774 C   0  0  0  0  0  0  0  0  0  0  0  0
   26.6636  -12.3986  -15.6110 N   0  0  0  0  0  0  0  0  0  0  0  0
   27.7604  -11.6435  -15.7515 C   0  0  0  0  0  0  0  0  0  0  0  0
   27.4427  -10.4260  -16.1885 N   0  0  0  0  0  0  0  0  0  0  0  0
   23.3622   -7.9457  -17.3063 C   0  0  0  0  0  0  0  0  0  0  0  0
   23.5810   -7.2702  -18.3355 O   0  0  0  0  0  0  0  0  0  0  0  0
   22.5060   -7.4143  -16.3183 N   0  0  0  0  0  0  0  0  0  0  0  0
   21.7595   -6.1654  -16.6205 C   0  0  1  0  0  0  0  0  0  0  0  0
   20.8230   -6.4749  -17.7434 C   0  0  0  0  0  0  0  0  0  0  0  0
   19.6958   -7.3539  -17.4633 C   0  0  0  0  0  0  0  0  0  0  0  0
   19.0296   -7.5035  -16.2386 C   0  0  0  0  0  0  0  0  0  0  0  0
   18.0736   -8.4285  -16.3665 N   0  0  0  0  0  0  0  0  0  0  0  0
   18.0987   -8.8811  -17.6322 C   0  0  0  0  0  0  0  0  0  0  0  0
   17.3070   -9.8337  -18.2967 C   0  0  0  0  0  0  0  0  0  0  0  0
   17.5126  -10.1208  -19.6281 C   0  0  0  0  0  0  0  0  0  0  0  0
   18.5127   -9.4592  -20.3131 C   0  0  0  0  0  0  0  0  0  0  0  0
   19.2952   -8.5266  -19.6778 C   0  0  0  0  0  0  0  0  0  0  0  0
   19.0908   -8.2314  -18.3238 C   0  0  0  0  0  0  0  0  0  0  0  0
   21.1145   -5.6967  -15.3937 C   0  0  0  0  0  0  0  0  0  0  0  0
   21.1872   -6.4272  -14.1863 O   0  0  0  0  0  0  0  0  0  0  0  0
   20.4554   -4.6267  -15.3145 O   0  0  0  0  0  0  0  0  0  0  0  0
  1  2  1  0
  2  3  1  0
  3  4  1  6
  5  6  1  1
  5  3  1  0
  7  5  1  0
  8  7  2  0
  9  7  1  0
 10  9  1  0
 11 12  1  0
 10 11  1  6
 12 16  1  0
 13 12  2  0
 13 14  1  0
 14 15  1  0
 16 15  2  0
 17 19  1  0
 17 10  1  0
 18 17  2  0
 20 21  1  6
 20 31  1  0
 20 19  1  0
 22 21  1  0
 22 30  1  0
 23 22  2  0
 24 23  1  0
 24 25  1  0
 25 26  1  0
 25 30  2  0
 26 27  2  0
 27 28  1  0
 29 28  2  0
 30 29  1  0
 31 32  1  0
 33 31  2  0
M  END
$$$$
