IHW.pdb
     RDKit          3D

 33 35  0  0  1  0  0  0  0  0999 V2000
   20.8319   -9.6048    8.9269 C   0  0  0  0  0  0  0  0  0  0  0  0
   20.3326  -10.2417    7.6679 C   0  0  0  0  0  0  0  0  0  0  0  0
   20.1338  -11.7306    7.8071 C   0  0  2  0  0  0  0  0  0  0  0  0
   21.4647  -12.4058    8.0613 C   0  0  0  0  0  0  0  0  0  0  0  0
   19.5526  -12.3608    6.5639 C   0  0  2  0  0  0  0  0  0  0  0  0
   18.2202  -11.8459    6.3238 N   0  0  0  0  0  0  0  0  0  0  0  0
   19.4343  -13.8170    6.8287 C   0  0  0  0  0  0  0  0  0  0  0  0
   20.4049  -14.5192    7.2168 O   0  0  0  0  0  0  0  0  0  0  0  0
   18.2129  -14.4750    6.6518 N   0  0  0  0  0  0  0  0  0  0  0  0
   17.9637  -15.8891    6.8284 C   0  0  1  0  0  0  0  0  0  0  0  0
   16.9466  -16.2291    7.8463 C   0  0  0  0  0  0  0  0  0  0  0  0
   17.3470  -15.9481    9.2474 C   0  0  0  0  0  0  0  0  0  0  0  0
   18.3609  -16.4180   10.0272 C   0  0  0  0  0  0  0  0  0  0  0  0
   18.2859  -15.8520   11.2562 N   0  0  0  0  0  0  0  0  0  0  0  0
   17.2236  -15.0377   11.2203 C   0  0  0  0  0  0  0  0  0  0  0  0
   16.6397  -15.0757   10.0238 N   0  0  0  0  0  0  0  0  0  0  0  0
   17.5830  -16.5253    5.5275 C   0  0  0  0  0  0  0  0  0  0  0  0
   17.0471  -15.9141    4.5775 O   0  0  0  0  0  0  0  0  0  0  0  0
   17.8537  -17.9022    5.3787 N   0  0  0  0  0  0  0  0  0  0  0  0
   17.8475  -18.4850    4.0117 C   0  0  1  0  0  0  0  0  0  0  0  0
   18.9229  -17.7955    3.2360 C   0  0  0  0  0  0  0  0  0  0  0  0
   19.1894  -18.2641    1.8828 C   0  0  0  0  0  0  0  0  0  0  0  0
   18.2585  -18.7911    0.9762 C   0  0  0  0  0  0  0  0  0  0  0  0
   18.8886  -19.1434   -0.1484 N   0  0  0  0  0  0  0  0  0  0  0  0
   20.1947  -18.8613    0.0001 C   0  0  0  0  0  0  0  0  0  0  0  0
   21.2857  -19.0145   -0.8727 C   0  0  0  0  0  0  0  0  0  0  0  0
   22.5530  -18.6271   -0.4969 C   0  0  0  0  0  0  0  0  0  0  0  0
   22.7464  -18.0813    0.7569 C   0  0  0  0  0  0  0  0  0  0  0  0
   21.6908  -17.9259    1.6213 C   0  0  0  0  0  0  0  0  0  0  0  0
   20.4002  -18.3188    1.2444 C   0  0  0  0  0  0  0  0  0  0  0  0
   18.0020  -19.9359    4.1202 C   0  0  0  0  0  0  0  0  0  0  0  0
   18.6926  -20.5344    5.1981 O   0  0  0  0  0  0  0  0  0  0  0  0
   17.5422  -20.7534    3.2801 O   0  0  0  0  0  0  0  0  0  0  0  0
  1  2  1  0
  2  3  1  0
  3  4  1  6
  5  6  1  1
  5  3  1  0
  7  5  1  0
  8  7  2  0
  9  7  1  0
 10  9  1  0
 11 12  1  0
 10 11  1  1
 12 16  1  0
 13 12  2  0
 13 14  1  0
 14 15  1  0
 16 15  2  0
 17 19  1  0
 17 10  1  0
 18 17  2  0
 20 21  1  6
 20 31  1  0
 20 19  1  0
 22 21  1  0
 22 30  1  0
 23 22  2  0
 24 23  1  0
 24 25  1  0
 25 26  1  0
 25 30  2  0
 26 27  2  0
 27 28  1  0
 29 28  2  0
 30 29  1  0
 31 32  1  0
 33 31  2  0
M  END
$$$$
