IHW.pdb
     RDKit          3D

 33 35  0  0  1  0  0  0  0  0999 V2000
   13.3816  -11.9538  -15.6863 C   0  0  0  0  0  0  0  0  0  0  0  0
   14.7881  -11.5845  -16.0403 C   0  0  0  0  0  0  0  0  0  0  0  0
   15.5262  -10.9358  -14.8955 C   0  0  2  0  0  0  0  0  0  0  0  0
   14.8252   -9.6566  -14.4907 C   0  0  0  0  0  0  0  0  0  0  0  0
   16.9458  -10.5644  -15.2519 C   0  0  2  0  0  0  0  0  0  0  0  0
   17.7160  -11.7593  -15.5294 N   0  0  0  0  0  0  0  0  0  0  0  0
   17.5378   -9.9115  -14.0570 C   0  0  0  0  0  0  0  0  0  0  0  0
   17.7724  -10.5337  -12.9876 O   0  0  0  0  0  0  0  0  0  0  0  0
   17.8629   -8.5513  -14.0774 N   0  0  0  0  0  0  0  0  0  0  0  0
   18.4655   -7.7942  -13.0021 C   0  0  1  0  0  0  0  0  0  0  0  0
   19.6906   -7.0492  -13.3632 C   0  0  0  0  0  0  0  0  0  0  0  0
   20.7830   -7.8799  -13.9280 C   0  0  0  0  0  0  0  0  0  0  0  0
   21.2839   -9.0998  -13.5844 C   0  0  0  0  0  0  0  0  0  0  0  0
   22.3041   -9.4205  -14.4168 N   0  0  0  0  0  0  0  0  0  0  0  0
   22.4211   -8.3920  -15.2661 C   0  0  0  0  0  0  0  0  0  0  0  0
   21.5186   -7.4507  -14.9952 N   0  0  0  0  0  0  0  0  0  0  0  0
   17.4748   -6.8432  -12.4053 C   0  0  0  0  0  0  0  0  0  0  0  0
   16.6152   -6.2195  -13.0651 O   0  0  0  0  0  0  0  0  0  0  0  0
   17.5261   -6.6500  -11.0084 N   0  0  0  0  0  0  0  0  0  0  0  0
   16.5827   -5.6835  -10.3885 C   0  0  1  0  0  0  0  0  0  0  0  0
   15.2014   -6.1954  -10.6407 C   0  0  0  0  0  0  0  0  0  0  0  0
   14.8064   -7.4331   -9.9822 C   0  0  0  0  0  0  0  0  0  0  0  0
   15.5600   -8.1729   -9.0596 C   0  0  0  0  0  0  0  0  0  0  0  0
   14.8766   -9.2660   -8.7074 N   0  0  0  0  0  0  0  0  0  0  0  0
   13.7069   -9.2575   -9.3702 C   0  0  0  0  0  0  0  0  0  0  0  0
   12.6218  -10.1508   -9.3561 C   0  0  0  0  0  0  0  0  0  0  0  0
   11.5008   -9.9155  -10.1210 C   0  0  0  0  0  0  0  0  0  0  0  0
   11.4497   -8.7835  -10.9106 C   0  0  0  0  0  0  0  0  0  0  0  0
   12.5019   -7.9016  -10.9358 C   0  0  0  0  0  0  0  0  0  0  0  0
   13.6446   -8.1366  -10.1604 C   0  0  0  0  0  0  0  0  0  0  0  0
   16.9321   -5.5278   -8.9763 C   0  0  0  0  0  0  0  0  0  0  0  0
   16.2667   -4.6030   -8.1404 O   0  0  0  0  0  0  0  0  0  0  0  0
   17.8353   -6.1908   -8.4016 O   0  0  0  0  0  0  0  0  0  0  0  0
  1  2  1  0
  2  3  1  0
  3  4  1  6
  5  6  1  1
  5  3  1  0
  7  5  1  0
  8  7  2  0
  9  7  1  0
 10  9  1  0
 11 12  1  0
 10 11  1  6
 12 16  1  0
 13 12  2  0
 13 14  1  0
 14 15  1  0
 16 15  2  0
 17 19  1  0
 17 10  1  0
 18 17  2  0
 20 21  1  1
 20 31  1  0
 20 19  1  0
 22 21  1  0
 22 30  1  0
 23 22  2  0
 24 23  1  0
 24 25  1  0
 25 26  1  0
 25 30  2  0
 26 27  2  0
 27 28  1  0
 29 28  2  0
 30 29  1  0
 31 32  1  0
 33 31  2  0
M  END
$$$$
