IHW.pdb
     RDKit          3D

 33 35  0  0  1  0  0  0  0  0999 V2000
   22.9499  -17.9396  -20.7488 C   0  0  0  0  0  0  0  0  0  0  0  0
   23.7439  -18.7896  -19.8070 C   0  0  0  0  0  0  0  0  0  0  0  0
   24.9251  -18.0595  -19.2176 C   0  0  2  0  0  0  0  0  0  0  0  0
   25.8917  -17.6730  -20.3167 C   0  0  0  0  0  0  0  0  0  0  0  0
   25.6977  -18.9006  -18.2297 C   0  0  2  0  0  0  0  0  0  0  0  0
   25.6904  -20.2875  -18.6473 N   0  0  0  0  0  0  0  0  0  0  0  0
   24.9820  -18.8148  -16.9316 C   0  0  0  0  0  0  0  0  0  0  0  0
   24.8125  -17.7281  -16.3184 O   0  0  0  0  0  0  0  0  0  0  0  0
   24.4593  -19.9644  -16.3304 N   0  0  0  0  0  0  0  0  0  0  0  0
   23.7176  -20.0254  -15.0899 C   0  0  1  0  0  0  0  0  0  0  0  0
   22.3799  -20.6486  -15.1836 C   0  0  0  0  0  0  0  0  0  0  0  0
   21.5487  -20.5300  -13.9599 C   0  0  0  0  0  0  0  0  0  0  0  0
   20.7381  -19.5406  -13.4897 C   0  0  0  0  0  0  0  0  0  0  0  0
   20.2053  -19.9185  -12.3023 N   0  0  0  0  0  0  0  0  0  0  0  0
   20.6949  -21.1396  -12.0531 C   0  0  0  0  0  0  0  0  0  0  0  0
   21.5061  -21.5323  -13.0338 N   0  0  0  0  0  0  0  0  0  0  0  0
   24.5108  -20.7306  -14.0337 C   0  0  0  0  0  0  0  0  0  0  0  0
   25.1903  -21.7604  -14.2365 O   0  0  0  0  0  0  0  0  0  0  0  0
   24.4809  -20.1858  -12.7323 N   0  0  0  0  0  0  0  0  0  0  0  0
   25.2899  -20.8372  -11.6694 C   0  0  1  0  0  0  0  0  0  0  0  0
   26.4696  -19.9559  -11.4139 C   0  0  0  0  0  0  0  0  0  0  0  0
   27.4683  -20.4196  -10.4604 C   0  0  0  0  0  0  0  0  0  0  0  0
   28.4641  -21.3808  -10.6856 C   0  0  0  0  0  0  0  0  0  0  0  0
   29.1628  -21.5639   -9.5612 N   0  0  0  0  0  0  0  0  0  0  0  0
   28.6531  -20.7534   -8.6174 C   0  0  0  0  0  0  0  0  0  0  0  0
   29.0193  -20.5383   -7.2775 C   0  0  0  0  0  0  0  0  0  0  0  0
   28.3469  -19.6234   -6.4978 C   0  0  0  0  0  0  0  0  0  0  0  0
   27.2992  -18.9111   -7.0474 C   0  0  0  0  0  0  0  0  0  0  0  0
   26.9288  -19.1104   -8.3546 C   0  0  0  0  0  0  0  0  0  0  0  0
   27.6088  -20.0401   -9.1517 C   0  0  0  0  0  0  0  0  0  0  0  0
   24.4339  -21.0708  -10.5060 C   0  0  0  0  0  0  0  0  0  0  0  0
   23.3348  -20.2340  -10.2081 O   0  0  0  0  0  0  0  0  0  0  0  0
   24.6024  -22.0163   -9.6917 O   0  0  0  0  0  0  0  0  0  0  0  0
  1  2  1  0
  2  3  1  0
  3  4  1  6
  5  6  1  6
  5  3  1  0
  7  5  1  0
  8  7  2  0
  9  7  1  0
 10  9  1  0
 11 12  1  0
 10 11  1  6
 12 16  1  0
 13 12  2  0
 13 14  1  0
 14 15  1  0
 16 15  2  0
 17 19  1  0
 17 10  1  0
 18 17  2  0
 20 21  1  1
 20 31  1  0
 20 19  1  0
 22 21  1  0
 22 30  1  0
 23 22  2  0
 24 23  1  0
 24 25  1  0
 25 26  1  0
 25 30  2  0
 26 27  2  0
 27 28  1  0
 29 28  2  0
 30 29  1  0
 31 32  1  0
 33 31  2  0
M  END
$$$$
