IHW.pdb
     RDKit          3D

 33 35  0  0  1  0  0  0  0  0999 V2000
   29.8274  -20.3155  -13.4127 C   0  0  0  0  0  0  0  0  0  0  0  0
   29.2131  -20.0548  -14.7524 C   0  0  0  0  0  0  0  0  0  0  0  0
   27.7068  -19.9902  -14.7003 C   0  0  2  0  0  0  0  0  0  0  0  0
   27.1443  -21.3571  -14.3731 C   0  0  0  0  0  0  0  0  0  0  0  0
   27.0948  -19.5670  -16.0143 C   0  0  2  0  0  0  0  0  0  0  0  0
   27.8020  -18.4189  -16.5434 N   0  0  0  0  0  0  0  0  0  0  0  0
   25.6994  -19.1473  -15.7293 C   0  0  0  0  0  0  0  0  0  0  0  0
   25.4187  -18.0619  -15.1560 O   0  0  0  0  0  0  0  0  0  0  0  0
   24.6229  -19.9617  -16.0957 N   0  0  0  0  0  0  0  0  0  0  0  0
   23.2185  -19.6620  -15.9210 C   0  0  1  0  0  0  0  0  0  0  0  0
   22.5541  -19.0452  -17.0892 C   0  0  0  0  0  0  0  0  0  0  0  0
   21.1142  -18.7398  -16.8994 C   0  0  0  0  0  0  0  0  0  0  0  0
   19.9860  -19.4882  -17.0544 C   0  0  0  0  0  0  0  0  0  0  0  0
   18.8989  -18.7330  -16.7639 N   0  0  0  0  0  0  0  0  0  0  0  0
   19.3704  -17.5244  -16.4325 C   0  0  0  0  0  0  0  0  0  0  0  0
   20.7001  -17.4999  -16.5055 N   0  0  0  0  0  0  0  0  0  0  0  0
   22.4613  -20.8905  -15.5221 C   0  0  0  0  0  0  0  0  0  0  0  0
   22.6519  -22.0236  -16.0153 O   0  0  0  0  0  0  0  0  0  0  0  0
   21.4742  -20.7450  -14.5242 N   0  0  0  0  0  0  0  0  0  0  0  0
   20.6707  -21.9343  -14.1392 C   0  0  1  0  0  0  0  0  0  0  0  0
   21.3380  -22.5488  -12.9515 C   0  0  0  0  0  0  0  0  0  0  0  0
   21.7331  -21.6650  -11.8632 C   0  0  0  0  0  0  0  0  0  0  0  0
   20.9026  -20.7956  -11.1416 C   0  0  0  0  0  0  0  0  0  0  0  0
   21.6361  -20.1245  -10.2486 N   0  0  0  0  0  0  0  0  0  0  0  0
   22.9121  -20.5312  -10.3678 C   0  0  0  0  0  0  0  0  0  0  0  0
   24.0754  -20.1652   -9.6690 C   0  0  0  0  0  0  0  0  0  0  0  0
   25.2896  -20.7457   -9.9621 C   0  0  0  0  0  0  0  0  0  0  0  0
   25.3570  -21.7000  -10.9581 C   0  0  0  0  0  0  0  0  0  0  0  0
   24.2295  -22.0677  -11.6504 C   0  0  0  0  0  0  0  0  0  0  0  0
   22.9924  -21.4800  -11.3568 C   0  0  0  0  0  0  0  0  0  0  0  0
   19.2872  -21.5131  -13.9173 C   0  0  0  0  0  0  0  0  0  0  0  0
   18.2180  -22.4370  -13.9086 O   0  0  0  0  0  0  0  0  0  0  0  0
   18.9425  -20.3181  -13.7201 O   0  0  0  0  0  0  0  0  0  0  0  0
  1  2  1  0
  2  3  1  0
  3  4  1  6
  5  6  1  1
  5  3  1  0
  7  5  1  0
  8  7  2  0
  9  7  1  0
 10  9  1  0
 11 12  1  0
 10 11  1  6
 12 16  1  0
 13 12  2  0
 13 14  1  0
 14 15  1  0
 16 15  2  0
 17 19  1  0
 17 10  1  0
 18 17  2  0
 20 21  1  1
 20 31  1  0
 20 19  1  0
 22 21  1  0
 22 30  1  0
 23 22  2  0
 24 23  1  0
 24 25  1  0
 25 26  1  0
 25 30  2  0
 26 27  2  0
 27 28  1  0
 29 28  2  0
 30 29  1  0
 31 32  1  0
 33 31  2  0
M  END
$$$$
