IHW.pdb
     RDKit          3D

 33 35  0  0  1  0  0  0  0  0999 V2000
   16.7157  -25.5099   -0.6775 C   0  0  0  0  0  0  0  0  0  0  0  0
   15.3760  -24.8884   -0.4347 C   0  0  0  0  0  0  0  0  0  0  0  0
   15.4707  -23.5498    0.2545 C   0  0  2  0  0  0  0  0  0  0  0  0
   16.0541  -23.7250    1.6404 C   0  0  0  0  0  0  0  0  0  0  0  0
   14.1258  -22.8848    0.4255 C   0  0  2  0  0  0  0  0  0  0  0  0
   13.4906  -22.7122   -0.8648 N   0  0  0  0  0  0  0  0  0  0  0  0
   14.3765  -21.5349    0.9908 C   0  0  0  0  0  0  0  0  0  0  0  0
   14.8716  -20.5951    0.3145 O   0  0  0  0  0  0  0  0  0  0  0  0
   14.0649  -21.2534    2.3249 N   0  0  0  0  0  0  0  0  0  0  0  0
   14.2279  -19.9829    2.9972 C   0  0  1  0  0  0  0  0  0  0  0  0
   13.2986  -19.7390    4.1211 C   0  0  0  0  0  0  0  0  0  0  0  0
   13.3218  -18.3571    4.6619 C   0  0  0  0  0  0  0  0  0  0  0  0
   14.0387  -17.2483    4.3249 C   0  0  0  0  0  0  0  0  0  0  0  0
   13.6973  -16.2232    5.1428 N   0  0  0  0  0  0  0  0  0  0  0  0
   12.7717  -16.7128    5.9772 C   0  0  0  0  0  0  0  0  0  0  0  0
   12.5264  -17.9946    5.7107 N   0  0  0  0  0  0  0  0  0  0  0  0
   15.6345  -19.8187    3.4833 C   0  0  0  0  0  0  0  0  0  0  0  0
   16.3025  -20.7293    4.0200 O   0  0  0  0  0  0  0  0  0  0  0  0
   16.2311  -18.5507    3.3173 N   0  0  0  0  0  0  0  0  0  0  0  0
   17.6183  -18.3468    3.8098 C   0  0  1  0  0  0  0  0  0  0  0  0
   18.2640  -17.3502    2.9025 C   0  0  0  0  0  0  0  0  0  0  0  0
   19.0098  -17.8579    1.7589 C   0  0  0  0  0  0  0  0  0  0  0  0
   18.7101  -18.9965    0.9973 C   0  0  0  0  0  0  0  0  0  0  0  0
   19.6461  -19.1573    0.0572 N   0  0  0  0  0  0  0  0  0  0  0  0
   20.5399  -18.1611    0.1846 C   0  0  0  0  0  0  0  0  0  0  0  0
   21.6976  -17.8489   -0.5488 C   0  0  0  0  0  0  0  0  0  0  0  0
   22.4569  -16.7428   -0.2367 C   0  0  0  0  0  0  0  0  0  0  0  0
   22.0688  -15.9339    0.8132 C   0  0  0  0  0  0  0  0  0  0  0  0
   20.9407  -16.2260    1.5398 C   0  0  0  0  0  0  0  0  0  0  0  0
   20.1655  -17.3500    1.2271 C   0  0  0  0  0  0  0  0  0  0  0  0
   17.5622  -17.9507    5.2172 C   0  0  0  0  0  0  0  0  0  0  0  0
   18.3480  -18.5881    6.2038 O   0  0  0  0  0  0  0  0  0  0  0  0
   16.8250  -17.0290    5.6560 O   0  0  0  0  0  0  0  0  0  0  0  0
  1  2  1  0
  2  3  1  0
  3  4  1  1
  5  6  1  6
  5  3  1  0
  7  5  1  0
  8  7  2  0
  9  7  1  0
 10  9  1  0
 11 12  1  0
 10 11  1  1
 12 16  1  0
 13 12  2  0
 13 14  1  0
 14 15  1  0
 16 15  2  0
 17 19  1  0
 17 10  1  0
 18 17  2  0
 20 21  1  6
 20 31  1  0
 20 19  1  0
 22 21  1  0
 22 30  1  0
 23 22  2  0
 24 23  1  0
 24 25  1  0
 25 26  1  0
 25 30  2  0
 26 27  2  0
 27 28  1  0
 29 28  2  0
 30 29  1  0
 31 32  1  0
 33 31  2  0
M  END
$$$$
