IHW.pdb
     RDKit          3D

 33 35  0  0  1  0  0  0  0  0999 V2000
   19.8039  -12.1404    4.5296 C   0  0  0  0  0  0  0  0  0  0  0  0
   18.4345  -12.6247    4.8906 C   0  0  0  0  0  0  0  0  0  0  0  0
   18.4505  -13.9852    5.5422 C   0  0  2  0  0  0  0  0  0  0  0  0
   18.9611  -15.0193    4.5615 C   0  0  0  0  0  0  0  0  0  0  0  0
   17.0787  -14.4378    5.9824 C   0  0  2  0  0  0  0  0  0  0  0  0
   16.5204  -13.4863    6.9210 N   0  0  0  0  0  0  0  0  0  0  0  0
   17.2543  -15.7279    6.6960 C   0  0  0  0  0  0  0  0  0  0  0  0
   18.1267  -15.8991    7.5878 O   0  0  0  0  0  0  0  0  0  0  0  0
   16.4385  -16.8236    6.3957 N   0  0  0  0  0  0  0  0  0  0  0  0
   16.5569  -18.1592    6.9387 C   0  0  1  0  0  0  0  0  0  0  0  0
   15.3149  -18.9613    6.9199 C   0  0  0  0  0  0  0  0  0  0  0  0
   15.4421  -20.3231    7.4959 C   0  0  0  0  0  0  0  0  0  0  0  0
   16.4968  -21.0037    8.0264 C   0  0  0  0  0  0  0  0  0  0  0  0
   16.0921  -22.2396    8.4072 N   0  0  0  0  0  0  0  0  0  0  0  0
   14.7892  -22.3074    8.1062 C   0  0  0  0  0  0  0  0  0  0  0  0
   14.3715  -21.1683    7.5566 N   0  0  0  0  0  0  0  0  0  0  0  0
   17.6394  -18.9206    6.2386 C   0  0  0  0  0  0  0  0  0  0  0  0
   17.7567  -18.9913    4.9957 O   0  0  0  0  0  0  0  0  0  0  0  0
   18.5803  -19.5948    7.0458 N   0  0  0  0  0  0  0  0  0  0  0  0
   19.6537  -20.3801    6.3829 C   0  0  1  0  0  0  0  0  0  0  0  0
   20.8848  -19.5326    6.3890 C   0  0  0  0  0  0  0  0  0  0  0  0
   21.5578  -19.3241    7.6639 C   0  0  0  0  0  0  0  0  0  0  0  0
   21.8490  -20.2972    8.6306 C   0  0  0  0  0  0  0  0  0  0  0  0
   22.4391  -19.7150    9.6788 N   0  0  0  0  0  0  0  0  0  0  0  0
   22.5401  -18.3991    9.4221 C   0  0  0  0  0  0  0  0  0  0  0  0
   23.0880  -17.3433   10.1710 C   0  0  0  0  0  0  0  0  0  0  0  0
   23.0940  -16.0561    9.6809 C   0  0  0  0  0  0  0  0  0  0  0  0
   22.5523  -15.8071    8.4352 C   0  0  0  0  0  0  0  0  0  0  0  0
   22.0125  -16.8277    7.6917 C   0  0  0  0  0  0  0  0  0  0  0  0
   22.0031  -18.1384    8.1857 C   0  0  0  0  0  0  0  0  0  0  0  0
   19.7881  -21.6641    7.0713 C   0  0  0  0  0  0  0  0  0  0  0  0
   20.5137  -22.7393    6.5105 O   0  0  0  0  0  0  0  0  0  0  0  0
   19.2791  -21.9118    8.1961 O   0  0  0  0  0  0  0  0  0  0  0  0
  1  2  1  0
  2  3  1  0
  3  4  1  6
  5  6  1  1
  5  3  1  0
  7  5  1  0
  8  7  2  0
  9  7  1  0
 10  9  1  0
 11 12  1  0
 10 11  1  6
 12 16  1  0
 13 12  2  0
 13 14  1  0
 14 15  1  0
 16 15  2  0
 17 19  1  0
 17 10  1  0
 18 17  2  0
 20 21  1  1
 20 31  1  0
 20 19  1  0
 22 21  1  0
 22 30  1  0
 23 22  2  0
 24 23  1  0
 24 25  1  0
 25 26  1  0
 25 30  2  0
 26 27  2  0
 27 28  1  0
 29 28  2  0
 30 29  1  0
 31 32  1  0
 33 31  2  0
M  END
$$$$
