IHW.pdb
     RDKit          3D

 33 35  0  0  1  0  0  0  0  0999 V2000
   21.3935  -17.9600  -17.1839 C   0  0  0  0  0  0  0  0  0  0  0  0
   22.7218  -17.9258  -16.4952 C   0  0  0  0  0  0  0  0  0  0  0  0
   22.6981  -18.6059  -15.1489 C   0  0  2  0  0  0  0  0  0  0  0  0
   21.6848  -17.9309  -14.2493 C   0  0  0  0  0  0  0  0  0  0  0  0
   24.0286  -18.5399  -14.4378 C   0  0  2  0  0  0  0  0  0  0  0  0
   25.0981  -18.8753  -15.3554 N   0  0  0  0  0  0  0  0  0  0  0  0
   24.0048  -19.5742  -13.3729 C   0  0  0  0  0  0  0  0  0  0  0  0
   22.9843  -19.8068  -12.6727 O   0  0  0  0  0  0  0  0  0  0  0  0
   25.1411  -20.3439  -13.1035 N   0  0  0  0  0  0  0  0  0  0  0  0
   25.2615  -21.3788  -12.0998 C   0  0  1  0  0  0  0  0  0  0  0  0
   25.9219  -22.6225  -12.5509 C   0  0  0  0  0  0  0  0  0  0  0  0
   25.3222  -23.2461  -13.7567 C   0  0  0  0  0  0  0  0  0  0  0  0
   25.6113  -23.1475  -15.0848 C   0  0  0  0  0  0  0  0  0  0  0  0
   24.7501  -23.9174  -15.7934 N   0  0  0  0  0  0  0  0  0  0  0  0
   23.9376  -24.4831  -14.8920 C   0  0  0  0  0  0  0  0  0  0  0  0
   24.2589  -24.0969  -13.6585 N   0  0  0  0  0  0  0  0  0  0  0  0
   25.9733  -20.8607  -10.8888 C   0  0  0  0  0  0  0  0  0  0  0  0
   26.9352  -20.0628  -10.9276 O   0  0  0  0  0  0  0  0  0  0  0  0
   25.5173  -21.3090   -9.6308 N   0  0  0  0  0  0  0  0  0  0  0  0
   26.3007  -20.9492   -8.4203 C   0  0  1  0  0  0  0  0  0  0  0  0
   26.2937  -19.4580   -8.3206 C   0  0  0  0  0  0  0  0  0  0  0  0
   27.3906  -18.8214   -7.6042 C   0  0  0  0  0  0  0  0  0  0  0  0
   28.3775  -17.9860   -8.1468 C   0  0  0  0  0  0  0  0  0  0  0  0
   29.2311  -17.6279   -7.1831 N   0  0  0  0  0  0  0  0  0  0  0  0
   28.8292  -18.2026   -6.0360 C   0  0  0  0  0  0  0  0  0  0  0  0
   29.3511  -18.1442   -4.7322 C   0  0  0  0  0  0  0  0  0  0  0  0
   28.7421  -18.8153   -3.6950 C   0  0  0  0  0  0  0  0  0  0  0  0
   27.6028  -19.5540   -3.9475 C   0  0  0  0  0  0  0  0  0  0  0  0
   27.0813  -19.6216   -5.2160 C   0  0  0  0  0  0  0  0  0  0  0  0
   27.6971  -18.9416   -6.2745 C   0  0  0  0  0  0  0  0  0  0  0  0
   25.7278  -21.6449   -7.2677 C   0  0  0  0  0  0  0  0  0  0  0  0
   24.3803  -22.0698   -7.2464 O   0  0  0  0  0  0  0  0  0  0  0  0
   26.3745  -21.9165   -6.2219 O   0  0  0  0  0  0  0  0  0  0  0  0
  1  2  1  0
  2  3  1  0
  3  4  1  1
  5  6  1  6
  5  3  1  0
  7  5  1  0
  8  7  2  0
  9  7  1  0
 10  9  1  0
 11 12  1  0
 10 11  1  6
 12 16  1  0
 13 12  2  0
 13 14  1  0
 14 15  1  0
 16 15  2  0
 17 19  1  0
 17 10  1  0
 18 17  2  0
 20 21  1  1
 20 31  1  0
 20 19  1  0
 22 21  1  0
 22 30  1  0
 23 22  2  0
 24 23  1  0
 24 25  1  0
 25 26  1  0
 25 30  2  0
 26 27  2  0
 27 28  1  0
 29 28  2  0
 30 29  1  0
 31 32  1  0
 33 31  2  0
M  END
$$$$
