IHW.pdb
     RDKit          3D

 33 35  0  0  1  0  0  0  0  0999 V2000
   24.7233  -14.7311  -20.4225 C   0  0  0  0  0  0  0  0  0  0  0  0
   25.6630  -15.3948  -19.4651 C   0  0  0  0  0  0  0  0  0  0  0  0
   25.0655  -16.6183  -18.8156 C   0  0  2  0  0  0  0  0  0  0  0  0
   23.8798  -16.2206  -17.9625 C   0  0  0  0  0  0  0  0  0  0  0  0
   26.0390  -17.3320  -17.9083 C   0  0  2  0  0  0  0  0  0  0  0  0
   27.2238  -17.7092  -18.6515 N   0  0  0  0  0  0  0  0  0  0  0  0
   25.3747  -18.5790  -17.4521 C   0  0  0  0  0  0  0  0  0  0  0  0
   25.0581  -19.5089  -18.2400 O   0  0  0  0  0  0  0  0  0  0  0  0
   25.0699  -18.7688  -16.1004 N   0  0  0  0  0  0  0  0  0  0  0  0
   24.3501  -19.8861  -15.5291 C   0  0  1  0  0  0  0  0  0  0  0  0
   25.1651  -20.8126  -14.7143 C   0  0  0  0  0  0  0  0  0  0  0  0
   26.3643  -21.3564  -15.3989 C   0  0  0  0  0  0  0  0  0  0  0  0
   27.6590  -20.9355  -15.4614 C   0  0  0  0  0  0  0  0  0  0  0  0
   28.3736  -21.7851  -16.2386 N   0  0  0  0  0  0  0  0  0  0  0  0
   27.5093  -22.7223  -16.6477 C   0  0  0  0  0  0  0  0  0  0  0  0
   26.2929  -22.4892  -16.1576 N   0  0  0  0  0  0  0  0  0  0  0  0
   23.1925  -19.4061  -14.7098 C   0  0  0  0  0  0  0  0  0  0  0  0
   23.3005  -18.8958  -13.5734 O   0  0  0  0  0  0  0  0  0  0  0  0
   21.9044  -19.5435  -15.2694 N   0  0  0  0  0  0  0  0  0  0  0  0
   20.7377  -19.0318  -14.5042 C   0  0  1  0  0  0  0  0  0  0  0  0
   20.1013  -17.9654  -15.3356 C   0  0  0  0  0  0  0  0  0  0  0  0
   19.4666  -18.3671  -16.5836 C   0  0  0  0  0  0  0  0  0  0  0  0
   18.3322  -19.1788  -16.7273 C   0  0  0  0  0  0  0  0  0  0  0  0
   18.0756  -19.3521  -18.0273 N   0  0  0  0  0  0  0  0  0  0  0  0
   19.0048  -18.6795  -18.7286 C   0  0  0  0  0  0  0  0  0  0  0  0
   19.1893  -18.5151  -20.1122 C   0  0  0  0  0  0  0  0  0  0  0  0
   20.2228  -17.7479  -20.6027 C   0  0  0  0  0  0  0  0  0  0  0  0
   21.0859  -17.1346  -19.7160 C   0  0  0  0  0  0  0  0  0  0  0  0
   20.9194  -17.2861  -18.3614 C   0  0  0  0  0  0  0  0  0  0  0  0
   19.8705  -18.0659  -17.8574 C   0  0  0  0  0  0  0  0  0  0  0  0
   19.8634  -20.1577  -14.1745 C   0  0  0  0  0  0  0  0  0  0  0  0
   18.8091  -20.0356  -13.2415 O   0  0  0  0  0  0  0  0  0  0  0  0
   19.9761  -21.3038  -14.6838 O   0  0  0  0  0  0  0  0  0  0  0  0
  1  2  1  0
  2  3  1  0
  3  4  1  1
  5  6  1  6
  5  3  1  0
  7  5  1  0
  8  7  2  0
  9  7  1  0
 10  9  1  0
 11 12  1  0
 10 11  1  1
 12 16  1  0
 13 12  2  0
 13 14  1  0
 14 15  1  0
 16 15  2  0
 17 19  1  0
 17 10  1  0
 18 17  2  0
 20 21  1  6
 20 31  1  0
 20 19  1  0
 22 21  1  0
 22 30  1  0
 23 22  2  0
 24 23  1  0
 24 25  1  0
 25 26  1  0
 25 30  2  0
 26 27  2  0
 27 28  1  0
 29 28  2  0
 30 29  1  0
 31 32  1  0
 33 31  2  0
M  END
$$$$
