MSL.pdb
     RDKit          3D

 23 22  0  0  1  0  0  0  0  0999 V2000
   25.8623  -14.9636  -14.6152 C   0  0  0  0  0  0  0  0  0  0  0  0
   26.8167  -15.3322  -16.1039 S   0  0  0  0  0  0  0  0  0  0  0  0
   27.6277  -16.9548  -15.9905 C   0  0  0  0  0  0  0  0  0  0  0  0
   26.7360  -17.9628  -15.3108 C   0  0  0  0  0  0  0  0  0  0  0  0
   27.5106  -19.2088  -14.9379 C   0  0  2  0  0  0  0  0  0  0  0  0
   28.0207  -19.8556  -16.1291 N   0  0  0  0  0  0  0  0  0  0  0  0
   26.6972  -20.1770  -14.1891 C   0  0  0  0  0  0  0  0  0  0  0  0
   26.0843  -21.0768  -14.7850 O   0  0  0  0  0  0  0  0  0  0  0  0
   24.6090  -21.2701   -9.9144 O   0  0  0  0  0  0  0  0  0  0  0  0
   25.5901  -20.5415  -10.5345 C   0  0  0  0  0  0  0  0  0  0  0  0
   25.5066  -20.7725  -12.0286 C   0  0  2  0  0  0  0  0  0  0  0  0
   26.5585  -20.1513  -12.7624 N   0  0  0  0  0  0  0  0  0  0  0  0
   24.1515  -20.3646  -12.4531 C   0  0  0  0  0  0  0  0  0  0  0  0
   23.9123  -19.1360  -12.5403 O   0  0  0  0  0  0  0  0  0  0  0  0
   21.3973  -18.8389  -14.9722 C   0  0  0  0  0  0  0  0  0  0  0  0
   21.9208  -20.1280  -15.6355 C   0  0  2  0  0  0  0  0  0  0  0  0
   21.1559  -20.2920  -16.9420 C   0  0  0  0  0  0  0  0  0  0  0  0
   21.5821  -21.2349  -14.6726 C   0  0  0  0  0  0  0  0  0  0  0  0
   21.7917  -20.8647  -13.2452 C   0  0  2  0  0  0  0  0  0  0  0  0
   23.1104  -21.2607  -12.7670 N   0  0  0  0  0  0  0  0  0  0  0  0
   20.7575  -21.3512  -12.3215 C   0  0  0  0  0  0  0  0  0  0  0  0
   20.9559  -22.4690  -11.7266 O   0  0  0  0  0  0  0  0  0  0  0  0
   19.5829  -20.6977  -12.0394 O   0  0  0  0  0  0  0  0  0  0  0  0
  2  1  1  0
  3  2  1  0
  3  4  1  0
  5  4  1  0
  5  6  1  6
  7  5  1  0
  8  7  2  0
  9 10  1  0
 11 10  1  1
 11 13  1  0
 11 12  1  0
 12  7  1  0
 13 20  1  0
 14 13  2  0
 16 15  1  1
 16 17  1  0
 18 16  1  0
 19 18  1  6
 19 21  1  0
 20 19  1  0
 21 22  2  0
 21 23  1  0
M  END
$$$$
