MSL.pdb
     RDKit          3D

 23 22  0  0  1  0  0  0  0  0999 V2000
   20.7501  -24.2438    2.6081 C   0  0  0  0  0  0  0  0  0  0  0  0
   19.7812  -25.0857    3.8792 S   0  0  0  0  0  0  0  0  0  0  0  0
   18.0073  -24.7266    3.7114 C   0  0  0  0  0  0  0  0  0  0  0  0
   17.7638  -23.2469    3.5550 C   0  0  0  0  0  0  0  0  0  0  0  0
   16.3026  -22.9633    3.2791 C   0  0  2  0  0  0  0  0  0  0  0  0
   15.9311  -23.4762    1.9766 N   0  0  0  0  0  0  0  0  0  0  0  0
   15.9865  -21.5289    3.3270 C   0  0  0  0  0  0  0  0  0  0  0  0
   16.2676  -20.7912    2.3693 O   0  0  0  0  0  0  0  0  0  0  0  0
   14.3896  -19.6243    6.7997 O   0  0  0  0  0  0  0  0  0  0  0  0
   13.9719  -19.1973    5.5663 C   0  0  0  0  0  0  0  0  0  0  0  0
   15.0450  -19.5118    4.5457 C   0  0  2  0  0  0  0  0  0  0  0  0
   15.3511  -20.9002    4.4479 N   0  0  0  0  0  0  0  0  0  0  0  0
   16.2078  -18.6582    4.8652 C   0  0  0  0  0  0  0  0  0  0  0  0
   17.2035  -19.2040    5.3990 O   0  0  0  0  0  0  0  0  0  0  0  0
   19.1894  -16.1847    2.7764 C   0  0  0  0  0  0  0  0  0  0  0  0
   17.7866  -15.5462    2.7715 C   0  0  2  0  0  0  0  0  0  0  0  0
   17.8794  -14.2877    1.9191 C   0  0  0  0  0  0  0  0  0  0  0  0
   17.5032  -15.2008    4.2094 C   0  0  0  0  0  0  0  0  0  0  0  0
   17.3363  -16.3944    5.0846 C   0  0  2  0  0  0  0  0  0  0  0  0
   16.2749  -17.2738    4.6110 N   0  0  0  0  0  0  0  0  0  0  0  0
   17.1390  -16.0941    6.5095 C   0  0  0  0  0  0  0  0  0  0  0  0
   16.0116  -16.3948    7.0400 O   0  0  0  0  0  0  0  0  0  0  0  0
   18.0751  -15.5120    7.3288 O   0  0  0  0  0  0  0  0  0  0  0  0
  2  1  1  0
  3  2  1  0
  3  4  1  0
  5  4  1  0
  5  6  1  6
  7  5  1  0
  8  7  2  0
  9 10  1  0
 11 10  1  1
 11 13  1  0
 11 12  1  0
 12  7  1  0
 13 20  1  0
 14 13  2  0
 16 15  1  1
 16 17  1  0
 18 16  1  0
 19 18  1  6
 19 21  1  0
 20 19  1  0
 21 22  2  0
 21 23  1  0
M  END
$$$$
