MSL.pdb
     RDKit          3D

 23 22  0  0  1  0  0  0  0  0999 V2000
   32.1163  -16.9619  -18.2567 C   0  0  0  0  0  0  0  0  0  0  0  0
   31.3856  -18.3839  -19.0975 S   0  0  0  0  0  0  0  0  0  0  0  0
   29.6738  -18.0484  -19.6084 C   0  0  0  0  0  0  0  0  0  0  0  0
   29.3502  -16.5801  -19.4965 C   0  0  0  0  0  0  0  0  0  0  0  0
   27.9297  -16.3722  -19.0164 C   0  0  2  0  0  0  0  0  0  0  0  0
   27.0362  -17.2964  -19.6835 N   0  0  0  0  0  0  0  0  0  0  0  0
   27.4491  -15.0031  -19.2491 C   0  0  0  0  0  0  0  0  0  0  0  0
   27.2528  -14.5939  -20.4043 O   0  0  0  0  0  0  0  0  0  0  0  0
   27.4193  -12.2733  -16.1708 O   0  0  0  0  0  0  0  0  0  0  0  0
   26.4215  -12.0166  -17.0745 C   0  0  0  0  0  0  0  0  0  0  0  0
   26.7349  -12.7314  -18.3719 C   0  0  2  0  0  0  0  0  0  0  0  0
   27.1815  -14.0727  -18.1917 N   0  0  0  0  0  0  0  0  0  0  0  0
   27.6797  -11.8756  -19.1186 C   0  0  0  0  0  0  0  0  0  0  0  0
   28.9066  -12.0545  -18.9263 O   0  0  0  0  0  0  0  0  0  0  0  0
   30.0446  -10.9550  -24.0304 C   0  0  0  0  0  0  0  0  0  0  0  0
   29.7425  -10.0538  -22.8170 C   0  0  2  0  0  0  0  0  0  0  0  0
   31.0692   -9.8070  -22.1115 C   0  0  0  0  0  0  0  0  0  0  0  0
   28.8135  -10.8584  -21.9471 C   0  0  0  0  0  0  0  0  0  0  0  0
   28.2248  -10.0760  -20.8248 C   0  0  2  0  0  0  0  0  0  0  0  0
   27.2971  -10.8731  -20.0320 N   0  0  0  0  0  0  0  0  0  0  0  0
   27.5879   -8.8118  -21.2191 C   0  0  0  0  0  0  0  0  0  0  0  0
   28.2942   -7.9515  -21.8545 O   0  0  0  0  0  0  0  0  0  0  0  0
   26.2821   -8.4735  -20.9605 O   0  0  0  0  0  0  0  0  0  0  0  0
  2  1  1  0
  3  2  1  0
  3  4  1  0
  5  4  1  0
  5  6  1  6
  7  5  1  0
  8  7  2  0
  9 10  1  0
 11 10  1  1
 11 13  1  0
 11 12  1  0
 12  7  1  0
 13 20  1  0
 14 13  2  0
 16 15  1  6
 16 17  1  0
 18 16  1  0
 19 18  1  6
 19 21  1  0
 20 19  1  0
 21 22  2  0
 21 23  1  0
M  END
$$$$
