MSL.pdb
     RDKit          3D

 23 22  0  0  1  0  0  0  0  0999 V2000
   11.2172   -8.7712   -7.1862 C   0  0  0  0  0  0  0  0  0  0  0  0
   12.7191   -8.6864   -8.1864 S   0  0  0  0  0  0  0  0  0  0  0  0
   12.3989   -9.1641   -9.9106 C   0  0  0  0  0  0  0  0  0  0  0  0
   13.6741   -9.1879  -10.7147 C   0  0  0  0  0  0  0  0  0  0  0  0
   13.3964   -9.5299  -12.1630 C   0  0  2  0  0  0  0  0  0  0  0  0
   12.8577  -10.8704  -12.2657 N   0  0  0  0  0  0  0  0  0  0  0  0
   14.5974   -9.4404  -13.0051 C   0  0  0  0  0  0  0  0  0  0  0  0
   15.2986  -10.4442  -13.2084 O   0  0  0  0  0  0  0  0  0  0  0  0
   15.7612   -5.7996  -14.7185 O   0  0  0  0  0  0  0  0  0  0  0  0
   16.0141   -6.9181  -15.4689 C   0  0  0  0  0  0  0  0  0  0  0  0
   16.1152   -8.1168  -14.5494 C   0  0  2  0  0  0  0  0  0  0  0  0
   15.0305   -8.2257  -13.6315 N   0  0  0  0  0  0  0  0  0  0  0  0
   17.4450   -8.0580  -13.9084 C   0  0  0  0  0  0  0  0  0  0  0  0
   17.5399   -7.4486  -12.8157 O   0  0  0  0  0  0  0  0  0  0  0  0
   23.2005   -9.9515  -14.9416 C   0  0  0  0  0  0  0  0  0  0  0  0
   22.2950   -9.3482  -13.8499 C   0  0  2  0  0  0  0  0  0  0  0  0
   22.5211  -10.1697  -12.5877 C   0  0  0  0  0  0  0  0  0  0  0  0
   20.8891   -9.5234  -14.3596 C   0  0  0  0  0  0  0  0  0  0  0  0
   19.9506   -8.4679  -13.8868 C   0  0  2  0  0  0  0  0  0  0  0  0
   18.6131   -8.6398  -14.4400 N   0  0  0  0  0  0  0  0  0  0  0  0
   20.4092   -7.0890  -14.1054 C   0  0  0  0  0  0  0  0  0  0  0  0
   20.1086   -6.5207  -15.2142 O   0  0  0  0  0  0  0  0  0  0  0  0
   21.1409   -6.3507  -13.2077 O   0  0  0  0  0  0  0  0  0  0  0  0
  2  1  1  0
  3  2  1  0
  3  4  1  0
  5  4  1  0
  5  6  1  1
  7  5  1  0
  8  7  2  0
  9 10  1  0
 11 10  1  1
 11 13  1  0
 11 12  1  0
 12  7  1  0
 13 20  1  0
 14 13  2  0
 16 15  1  6
 16 17  1  0
 18 16  1  0
 19 18  1  6
 19 21  1  0
 20 19  1  0
 21 22  2  0
 21 23  1  0
M  END
$$$$
