MSL.pdb
     RDKit          3D

 23 22  0  0  1  0  0  0  0  0999 V2000
   24.6543  -17.3034  -16.6573 C   0  0  0  0  0  0  0  0  0  0  0  0
   26.1443  -17.6526  -17.6171 S   0  0  0  0  0  0  0  0  0  0  0  0
   27.0573  -19.0699  -16.9378 C   0  0  0  0  0  0  0  0  0  0  0  0
   27.0084  -19.0773  -15.4309 C   0  0  0  0  0  0  0  0  0  0  0  0
   27.3623  -20.4433  -14.8829 C   0  0  2  0  0  0  0  0  0  0  0  0
   27.5976  -21.3721  -15.9691 N   0  0  0  0  0  0  0  0  0  0  0  0
   26.3126  -20.9930  -14.0137 C   0  0  0  0  0  0  0  0  0  0  0  0
   25.3701  -21.6392  -14.4982 O   0  0  0  0  0  0  0  0  0  0  0  0
   26.8405  -21.3257  -10.0075 O   0  0  0  0  0  0  0  0  0  0  0  0
   25.5360  -20.9884  -10.2577 C   0  0  0  0  0  0  0  0  0  0  0  0
   25.2399  -21.2171  -11.7248 C   0  0  2  0  0  0  0  0  0  0  0  0
   26.3031  -20.8268  -12.5898 N   0  0  0  0  0  0  0  0  0  0  0  0
   23.9520  -20.5532  -12.0135 C   0  0  0  0  0  0  0  0  0  0  0  0
   23.9509  -19.3031  -12.1215 O   0  0  0  0  0  0  0  0  0  0  0  0
   20.3071  -20.5661  -16.2963 C   0  0  0  0  0  0  0  0  0  0  0  0
   20.3627  -19.9794  -14.8721 C   0  0  2  0  0  0  0  0  0  0  0  0
   20.5218  -18.4725  -15.0234 C   0  0  0  0  0  0  0  0  0  0  0  0
   21.5866  -20.5877  -14.2403 C   0  0  0  0  0  0  0  0  0  0  0  0
   21.5245  -20.6370  -12.7530 C   0  0  2  0  0  0  0  0  0  0  0  0
   22.7256  -21.2279  -12.1763 N   0  0  0  0  0  0  0  0  0  0  0  0
   20.3303  -21.2952  -12.2050 C   0  0  0  0  0  0  0  0  0  0  0  0
   19.1924  -20.7360  -12.3924 O   0  0  0  0  0  0  0  0  0  0  0  0
   20.3341  -22.4748  -11.5015 O   0  0  0  0  0  0  0  0  0  0  0  0
  2  1  1  0
  3  2  1  0
  3  4  1  0
  5  4  1  0
  5  6  1  6
  7  5  1  0
  8  7  2  0
  9 10  1  0
 11 10  1  1
 11 13  1  0
 11 12  1  0
 12  7  1  0
 13 20  1  0
 14 13  2  0
 16 15  1  6
 16 17  1  0
 18 16  1  0
 19 18  1  6
 19 21  1  0
 20 19  1  0
 21 22  2  0
 21 23  1  0
M  END
$$$$
