MSL.pdb
     RDKit          3D

 23 22  0  0  1  0  0  0  0  0999 V2000
   27.8352  -18.8643   -5.7601 C   0  0  0  0  0  0  0  0  0  0  0  0
   26.3945  -19.9038   -6.0869 S   0  0  0  0  0  0  0  0  0  0  0  0
   26.6982  -21.0488   -7.4654 C   0  0  0  0  0  0  0  0  0  0  0  0
   26.2670  -20.4465   -8.7785 C   0  0  0  0  0  0  0  0  0  0  0  0
   26.7445  -21.2864   -9.9440 C   0  0  2  0  0  0  0  0  0  0  0  0
   28.1915  -21.2813  -10.0040 N   0  0  0  0  0  0  0  0  0  0  0  0
   26.2190  -20.8152  -11.2330 C   0  0  0  0  0  0  0  0  0  0  0  0
   26.6281  -19.7531  -11.7280 O   0  0  0  0  0  0  0  0  0  0  0  0
   26.4181  -21.6977  -14.9341 O   0  0  0  0  0  0  0  0  0  0  0  0
   25.2682  -22.1729  -14.3595 C   0  0  0  0  0  0  0  0  0  0  0  0
   24.8021  -21.1923  -13.3043 C   0  0  2  0  0  0  0  0  0  0  0  0
   25.2278  -21.5265  -11.9860 N   0  0  0  0  0  0  0  0  0  0  0  0
   23.3377  -21.0639  -13.4516 C   0  0  0  0  0  0  0  0  0  0  0  0
   22.6121  -21.7505  -12.6923 O   0  0  0  0  0  0  0  0  0  0  0  0
   19.2009  -18.2668  -17.0752 C   0  0  0  0  0  0  0  0  0  0  0  0
   19.4065  -18.8284  -15.6546 C   0  0  2  0  0  0  0  0  0  0  0  0
   18.9216  -17.7591  -14.6848 C   0  0  0  0  0  0  0  0  0  0  0  0
   20.8915  -19.0390  -15.5227 C   0  0  0  0  0  0  0  0  0  0  0  0
   21.2565  -20.0856  -14.5278 C   0  0  2  0  0  0  0  0  0  0  0  0
   22.7006  -20.2229  -14.3856 N   0  0  0  0  0  0  0  0  0  0  0  0
   20.6494  -21.4027  -14.7643 C   0  0  0  0  0  0  0  0  0  0  0  0
   21.1985  -22.1751  -15.6272 O   0  0  0  0  0  0  0  0  0  0  0  0
   19.5295  -21.8795  -14.1279 O   0  0  0  0  0  0  0  0  0  0  0  0
  2  1  1  0
  3  2  1  0
  3  4  1  0
  5  4  1  0
  5  6  1  6
  7  5  1  0
  8  7  2  0
  9 10  1  0
 11 10  1  6
 11 13  1  0
 11 12  1  0
 12  7  1  0
 13 20  1  0
 14 13  2  0
 16 15  1  6
 16 17  1  0
 18 16  1  0
 19 18  1  6
 19 21  1  0
 20 19  1  0
 21 22  2  0
 21 23  1  0
M  END
$$$$
