MSL.pdb
     RDKit          3D

 23 22  0  0  1  0  0  0  0  0999 V2000
   23.0791  -19.0790  -19.3507 C   0  0  0  0  0  0  0  0  0  0  0  0
   21.7872  -18.1031  -18.5495 S   0  0  0  0  0  0  0  0  0  0  0  0
   22.3213  -17.5010  -16.9198 C   0  0  0  0  0  0  0  0  0  0  0  0
   22.4709  -18.6384  -15.9415 C   0  0  0  0  0  0  0  0  0  0  0  0
   23.7078  -18.4604  -15.0869 C   0  0  2  0  0  0  0  0  0  0  0  0
   24.8311  -18.0627  -15.9100 N   0  0  0  0  0  0  0  0  0  0  0  0
   24.0702  -19.6826  -14.3558 C   0  0  0  0  0  0  0  0  0  0  0  0
   23.1988  -20.3503  -13.7768 O   0  0  0  0  0  0  0  0  0  0  0  0
   27.9213  -21.2464  -14.5886 O   0  0  0  0  0  0  0  0  0  0  0  0
   26.9221  -22.1179  -14.2417 C   0  0  0  0  0  0  0  0  0  0  0  0
   25.8110  -21.3485  -13.5592 C   0  0  2  0  0  0  0  0  0  0  0  0
   25.4137  -20.1744  -14.2625 N   0  0  0  0  0  0  0  0  0  0  0  0
   26.2479  -21.1013  -12.1697 C   0  0  0  0  0  0  0  0  0  0  0  0
   27.4461  -20.7791  -11.9830 O   0  0  0  0  0  0  0  0  0  0  0  0
   27.4008  -18.6551   -7.5699 C   0  0  0  0  0  0  0  0  0  0  0  0
   27.3003  -20.1523   -7.9220 C   0  0  2  0  0  0  0  0  0  0  0  0
   28.6952  -20.7387   -7.7507 C   0  0  0  0  0  0  0  0  0  0  0  0
   26.8748  -20.1923   -9.3658 C   0  0  0  0  0  0  0  0  0  0  0  0
   25.8817  -21.2620   -9.6624 C   0  0  2  0  0  0  0  0  0  0  0  0
   25.4110  -21.2021  -11.0405 N   0  0  0  0  0  0  0  0  0  0  0  0
   24.7358  -21.3143   -8.7440 C   0  0  0  0  0  0  0  0  0  0  0  0
   23.6018  -20.8933   -9.1677 O   0  0  0  0  0  0  0  0  0  0  0  0
   24.7810  -21.7841   -7.4541 O   0  0  0  0  0  0  0  0  0  0  0  0
  2  1  1  0
  3  2  1  0
  3  4  1  0
  5  4  1  0
  5  6  1  6
  7  5  1  0
  8  7  2  0
  9 10  1  0
 11 10  1  6
 11 13  1  0
 11 12  1  0
 12  7  1  0
 13 20  1  0
 14 13  2  0
 16 15  1  6
 16 17  1  0
 18 16  1  0
 19 18  1  1
 19 21  1  0
 20 19  1  0
 21 22  2  0
 21 23  1  0
M  END
$$$$
