MSL.pdb
     RDKit          3D

 23 22  0  0  1  0  0  0  0  0999 V2000
   12.9847  -13.2601  -17.5239 C   0  0  0  0  0  0  0  0  0  0  0  0
   13.9817  -14.1130  -18.7656 S   0  0  0  0  0  0  0  0  0  0  0  0
   15.7467  -14.0912  -18.3323 C   0  0  0  0  0  0  0  0  0  0  0  0
   16.0476  -13.0072  -17.3284 C   0  0  0  0  0  0  0  0  0  0  0  0
   17.5119  -13.0139  -16.9446 C   0  0  2  0  0  0  0  0  0  0  0  0
   17.8554  -14.2671  -16.3051 N   0  0  0  0  0  0  0  0  0  0  0  0
   17.8636  -11.9118  -16.0383 C   0  0  0  0  0  0  0  0  0  0  0  0
   17.4477  -11.9028  -14.8689 O   0  0  0  0  0  0  0  0  0  0  0  0
   21.0806  -10.2065  -14.8152 O   0  0  0  0  0  0  0  0  0  0  0  0
   20.4114   -9.2764  -15.5671 C   0  0  0  0  0  0  0  0  0  0  0  0
   18.9464   -9.6534  -15.6290 C   0  0  2  0  0  0  0  0  0  0  0  0
   18.6859  -10.8041  -16.4284 N   0  0  0  0  0  0  0  0  0  0  0  0
   18.2075   -8.4455  -16.0506 C   0  0  0  0  0  0  0  0  0  0  0  0
   18.0300   -8.2692  -17.2801 O   0  0  0  0  0  0  0  0  0  0  0  0
   14.0633   -6.1328  -16.7103 C   0  0  0  0  0  0  0  0  0  0  0  0
   14.6032   -6.9538  -15.5227 C   0  0  2  0  0  0  0  0  0  0  0  0
   13.4445   -7.1366  -14.5518 C   0  0  0  0  0  0  0  0  0  0  0  0
   15.6857   -6.1034  -14.9125 C   0  0  0  0  0  0  0  0  0  0  0  0
   17.0084   -6.2576  -15.5796 C   0  0  2  0  0  0  0  0  0  0  0  0
   17.6884   -7.4788  -15.1665 N   0  0  0  0  0  0  0  0  0  0  0  0
   17.9122   -5.1080  -15.4348 C   0  0  0  0  0  0  0  0  0  0  0  0
   18.9020   -5.2153  -14.6275 O   0  0  0  0  0  0  0  0  0  0  0  0
   17.7822   -3.9148  -16.1024 O   0  0  0  0  0  0  0  0  0  0  0  0
  2  1  1  0
  3  2  1  0
  3  4  1  0
  5  4  1  0
  5  6  1  1
  7  5  1  0
  8  7  2  0
  9 10  1  0
 11 10  1  6
 11 13  1  0
 11 12  1  0
 12  7  1  0
 13 20  1  0
 14 13  2  0
 16 15  1  6
 16 17  1  0
 18 16  1  0
 19 18  1  1
 19 21  1  0
 20 19  1  0
 21 22  2  0
 21 23  1  0
M  END
$$$$
