MSL.pdb
     RDKit          3D

 23 22  0  0  1  0  0  0  0  0999 V2000
   18.0137  -16.5321  -14.6314 C   0  0  0  0  0  0  0  0  0  0  0  0
   17.2629  -16.5152  -16.2744 S   0  0  0  0  0  0  0  0  0  0  0  0
   17.9915  -15.2243  -17.3264 C   0  0  0  0  0  0  0  0  0  0  0  0
   18.2675  -13.9700  -16.5367 C   0  0  0  0  0  0  0  0  0  0  0  0
   18.8663  -12.8944  -17.4177 C   0  0  2  0  0  0  0  0  0  0  0  0
   20.0601  -13.3904  -18.0708 N   0  0  0  0  0  0  0  0  0  0  0  0
   19.2112  -11.6778  -16.6691 C   0  0  0  0  0  0  0  0  0  0  0  0
   18.3190  -10.9650  -16.1830 O   0  0  0  0  0  0  0  0  0  0  0  0
   23.0687  -10.1487  -16.7480 O   0  0  0  0  0  0  0  0  0  0  0  0
   22.4333   -9.9250  -15.5545 C   0  0  0  0  0  0  0  0  0  0  0  0
   20.9389  -10.0572  -15.7586 C   0  0  2  0  0  0  0  0  0  0  0  0
   20.5600  -11.2419  -16.4543 N   0  0  0  0  0  0  0  0  0  0  0  0
   20.4787   -8.8077  -16.3987 C   0  0  0  0  0  0  0  0  0  0  0  0
   20.3297   -8.8106  -17.6445 O   0  0  0  0  0  0  0  0  0  0  0  0
   16.4068   -4.5960  -15.9584 C   0  0  0  0  0  0  0  0  0  0  0  0
   17.7494   -4.8734  -16.6628 C   0  0  2  0  0  0  0  0  0  0  0  0
   17.4331   -5.1145  -18.1327 C   0  0  0  0  0  0  0  0  0  0  0  0
   18.2849   -6.1237  -16.0169 C   0  0  0  0  0  0  0  0  0  0  0  0
   19.7172   -6.3866  -16.3298 C   0  0  2  0  0  0  0  0  0  0  0  0
   20.1953   -7.6139  -15.7057 N   0  0  0  0  0  0  0  0  0  0  0  0
   20.6316   -5.2787  -16.0203 C   0  0  0  0  0  0  0  0  0  0  0  0
   21.1526   -5.2339  -14.8502 O   0  0  0  0  0  0  0  0  0  0  0  0
   20.9784   -4.2765  -16.8931 O   0  0  0  0  0  0  0  0  0  0  0  0
  2  1  1  0
  3  2  1  0
  3  4  1  0
  5  4  1  0
  5  6  1  1
  7  5  1  0
  8  7  2  0
  9 10  1  0
 11 10  1  6
 11 13  1  0
 11 12  1  0
 12  7  1  0
 13 20  1  0
 14 13  2  0
 16 15  1  1
 16 17  1  0
 18 16  1  0
 19 18  1  1
 19 21  1  0
 20 19  1  0
 21 22  2  0
 21 23  1  0
M  END
$$$$
