MSL.pdb
     RDKit          3D

 23 22  0  0  1  0  0  0  0  0999 V2000
   14.4974  -26.8447    2.0442 C   0  0  0  0  0  0  0  0  0  0  0  0
   15.6798  -25.5582    2.5023 S   0  0  0  0  0  0  0  0  0  0  0  0
   15.0892  -23.9083    2.0200 C   0  0  0  0  0  0  0  0  0  0  0  0
   15.9584  -22.8256    2.6076 C   0  0  0  0  0  0  0  0  0  0  0  0
   15.5413  -21.4607    2.1029 C   0  0  2  0  0  0  0  0  0  0  0  0
   15.5386  -21.4426    0.6547 N   0  0  0  0  0  0  0  0  0  0  0  0
   16.4212  -20.3868    2.5847 C   0  0  0  0  0  0  0  0  0  0  0  0
   17.3750  -19.9977    1.8923 O   0  0  0  0  0  0  0  0  0  0  0  0
   15.0702  -17.8819    5.4320 O   0  0  0  0  0  0  0  0  0  0  0  0
   16.1431  -17.4304    4.7086 C   0  0  0  0  0  0  0  0  0  0  0  0
   16.9986  -18.6126    4.3049 C   0  0  2  0  0  0  0  0  0  0  0  0
   16.2457  -19.7333    3.8486 N   0  0  0  0  0  0  0  0  0  0  0  0
   17.8912  -18.9083    5.4444 C   0  0  0  0  0  0  0  0  0  0  0  0
   17.5558  -19.8324    6.2241 O   0  0  0  0  0  0  0  0  0  0  0  0
   22.7857  -16.3006    8.1948 C   0  0  0  0  0  0  0  0  0  0  0  0
   21.8371  -17.5146    8.2398 C   0  0  2  0  0  0  0  0  0  0  0  0
   22.7156  -18.7581    8.2665 C   0  0  0  0  0  0  0  0  0  0  0  0
   21.0437  -17.4452    6.9620 C   0  0  0  0  0  0  0  0  0  0  0  0
   19.8457  -18.3302    6.9585 C   0  0  2  0  0  0  0  0  0  0  0  0
   19.0930  -18.2241    5.7148 N   0  0  0  0  0  0  0  0  0  0  0  0
   18.9440  -18.1555    8.1056 C   0  0  0  0  0  0  0  0  0  0  0  0
   19.0062  -19.0100    9.0589 O   0  0  0  0  0  0  0  0  0  0  0  0
   18.0305  -17.1390    8.2417 O   0  0  0  0  0  0  0  0  0  0  0  0
  2  1  1  0
  3  2  1  0
  3  4  1  0
  5  4  1  0
  5  6  1  6
  7  5  1  0
  8  7  2  0
  9 10  1  0
 11 10  1  1
 11 13  1  0
 11 12  1  0
 12  7  1  0
 13 20  1  0
 14 13  2  0
 16 15  1  6
 16 17  1  0
 18 16  1  0
 19 18  1  6
 19 21  1  0
 20 19  1  0
 21 22  2  0
 21 23  1  0
M  END
$$$$
