MSL.pdb
     RDKit          3D

 23 22  0  0  1  0  0  0  0  0999 V2000
   15.5715   -7.1902   -7.5856 C   0  0  0  0  0  0  0  0  0  0  0  0
   13.8310   -7.1465   -8.0672 S   0  0  0  0  0  0  0  0  0  0  0  0
   13.6050   -7.6617   -9.7956 C   0  0  0  0  0  0  0  0  0  0  0  0
   14.9199   -7.6859  -10.5328 C   0  0  0  0  0  0  0  0  0  0  0  0
   14.7408   -8.1984  -11.9460 C   0  0  2  0  0  0  0  0  0  0  0  0
   14.4986   -9.6262  -11.9330 N   0  0  0  0  0  0  0  0  0  0  0  0
   15.9074   -7.9273  -12.7976 C   0  0  0  0  0  0  0  0  0  0  0  0
   16.6066   -8.8611  -13.2214 O   0  0  0  0  0  0  0  0  0  0  0  0
   16.7420   -4.0323  -13.9998 O   0  0  0  0  0  0  0  0  0  0  0  0
   17.0909   -5.0138  -14.8903 C   0  0  0  0  0  0  0  0  0  0  0  0
   17.3280   -6.3042  -14.1346 C   0  0  2  0  0  0  0  0  0  0  0  0
   16.3077   -6.6068  -13.1867 N   0  0  0  0  0  0  0  0  0  0  0  0
   18.6848   -6.2221  -13.5557 C   0  0  0  0  0  0  0  0  0  0  0  0
   18.7890   -5.8455  -12.3634 O   0  0  0  0  0  0  0  0  0  0  0  0
   22.1054   -9.0460  -12.7319 C   0  0  0  0  0  0  0  0  0  0  0  0
   21.8819   -8.7480  -14.2275 C   0  0  2  0  0  0  0  0  0  0  0  0
   22.8782   -9.6024  -14.9997 C   0  0  0  0  0  0  0  0  0  0  0  0
   22.1912   -7.2834  -14.3905 C   0  0  0  0  0  0  0  0  0  0  0  0
   21.2136   -6.3908  -13.7078 C   0  0  2  0  0  0  0  0  0  0  0  0
   19.8691   -6.5382  -14.2508 N   0  0  0  0  0  0  0  0  0  0  0  0
   21.5885   -4.9703  -13.6784 C   0  0  0  0  0  0  0  0  0  0  0  0
   21.0031   -4.1737  -14.4943 O   0  0  0  0  0  0  0  0  0  0  0  0
   22.5247   -4.4200  -12.8375 O   0  0  0  0  0  0  0  0  0  0  0  0
  2  1  1  0
  3  2  1  0
  3  4  1  0
  5  4  1  0
  5  6  1  1
  7  5  1  0
  8  7  2  0
  9 10  1  0
 11 10  1  1
 11 13  1  0
 11 12  1  0
 12  7  1  0
 13 20  1  0
 14 13  2  0
 16 15  1  1
 16 17  1  0
 18 16  1  0
 19 18  1  6
 19 21  1  0
 20 19  1  0
 21 22  2  0
 21 23  1  0
M  END
$$$$
