MSL.pdb
     RDKit          3D

 23 22  0  0  1  0  0  0  0  0999 V2000
   30.3014  -21.5453   -8.8071 C   0  0  0  0  0  0  0  0  0  0  0  0
   30.4018  -22.3142  -10.4387 S   0  0  0  0  0  0  0  0  0  0  0  0
   30.8953  -21.1140  -11.7113 C   0  0  0  0  0  0  0  0  0  0  0  0
   29.7094  -20.3236  -12.2033 C   0  0  0  0  0  0  0  0  0  0  0  0
   28.9241  -21.1072  -13.2333 C   0  0  2  0  0  0  0  0  0  0  0  0
   29.7278  -21.3195  -14.4193 N   0  0  0  0  0  0  0  0  0  0  0  0
   27.6772  -20.4351  -13.6247 C   0  0  0  0  0  0  0  0  0  0  0  0
   27.5282  -19.2197  -13.4222 O   0  0  0  0  0  0  0  0  0  0  0  0
   24.9243  -22.0644  -16.3030 O   0  0  0  0  0  0  0  0  0  0  0  0
   24.9199  -20.7230  -16.0220 C   0  0  0  0  0  0  0  0  0  0  0  0
   25.3267  -20.5201  -14.5778 C   0  0  2  0  0  0  0  0  0  0  0  0
   26.5794  -21.1144  -14.2483 N   0  0  0  0  0  0  0  0  0  0  0  0
   24.1999  -20.9844  -13.7428 C   0  0  0  0  0  0  0  0  0  0  0  0
   24.2668  -22.1419  -13.2632 O   0  0  0  0  0  0  0  0  0  0  0  0
   19.4799  -19.9655  -11.1402 C   0  0  0  0  0  0  0  0  0  0  0  0
   20.7643  -20.4359  -10.4298 C   0  0  2  0  0  0  0  0  0  0  0  0
   20.8056  -19.7281   -9.0821 C   0  0  0  0  0  0  0  0  0  0  0  0
   21.8955  -19.9777  -11.3116 C   0  0  0  0  0  0  0  0  0  0  0  0
   21.9398  -20.6717  -12.6287 C   0  0  2  0  0  0  0  0  0  0  0  0
   23.0560  -20.2161  -13.4478 N   0  0  0  0  0  0  0  0  0  0  0  0
   20.6926  -20.6096  -13.4032 C   0  0  0  0  0  0  0  0  0  0  0  0
   20.5524  -19.6557  -14.2477 O   0  0  0  0  0  0  0  0  0  0  0  0
   19.6534  -21.5012  -13.2956 O   0  0  0  0  0  0  0  0  0  0  0  0
  2  1  1  0
  3  2  1  0
  3  4  1  0
  5  4  1  0
  5  6  1  6
  7  5  1  0
  8  7  2  0
  9 10  1  0
 11 10  1  6
 11 13  1  0
 11 12  1  0
 12  7  1  0
 13 20  1  0
 14 13  2  0
 16 15  1  6
 16 17  1  0
 18 16  1  0
 19 18  1  1
 19 21  1  0
 20 19  1  0
 21 22  2  0
 21 23  1  0
M  END
$$$$
