ENW.pdb
     RDKit          3D

 32 33  0  0  1  0  0  0  0  0999 V2000
    9.9393  -19.3051   20.0240 N   0  0  0  0  0  0  0  0  0  0  0  0
   11.2386  -18.6860   20.2075 C   0  0  1  0  0  0  0  0  0  0  0  0
   11.9665  -18.6463   18.8730 C   0  0  0  0  0  0  0  0  0  0  0  0
   10.9022  -18.8173   17.7814 C   0  0  0  0  0  0  0  0  0  0  0  0
   11.5119  -18.8278   16.4493 C   0  0  0  0  0  0  0  0  0  0  0  0
   12.7361  -18.6926   16.3125 O   0  0  0  0  0  0  0  0  0  0  0  0
   11.0224  -17.2834   20.7006 C   0  0  0  0  0  0  0  0  0  0  0  0
   11.9827  -16.4702   20.7482 O   0  0  0  0  0  0  0  0  0  0  0  0
   10.7287  -18.9968   15.2957 O   0  0  0  0  0  0  0  0  0  0  0  0
    5.9840  -15.4063   21.7658 N   0  0  0  0  0  0  0  0  0  0  0  0
    7.1452  -15.8105   21.0066 C   0  0  0  0  0  0  0  0  0  0  0  0
    7.0473  -16.9143   20.4360 O   0  0  0  0  0  0  0  0  0  0  0  0
    8.3128  -14.9657   20.9399 C   0  0  0  0  0  0  0  0  0  0  0  0
    9.5968  -15.3991   21.5700 C   0  0  2  0  0  0  0  0  0  0  0  0
    9.7672  -16.8117   21.1289 N   0  0  0  0  0  0  0  0  0  0  0  0
    9.6649  -15.3427   23.0280 C   0  0  0  0  0  0  0  0  0  0  0  0
    9.7644  -14.2192   23.6484 O   0  0  0  0  0  0  0  0  0  0  0  0
    9.6185  -16.4661   23.8593 N   0  0  0  0  0  0  0  0  0  0  0  0
   10.1342  -16.5234   25.2341 C   0  0  1  0  0  0  0  0  0  0  0  0
    9.8140  -15.2783   25.9680 C   0  0  0  0  0  0  0  0  0  0  0  0
    8.3815  -14.9644   25.9553 C   0  0  0  0  0  0  0  0  0  0  0  0
    7.3516  -15.8545   25.6151 C   0  0  0  0  0  0  0  0  0  0  0  0
    6.1703  -15.2218   25.6711 N   0  0  0  0  0  0  0  0  0  0  0  0
    6.3410  -13.9472   26.0304 C   0  0  0  0  0  0  0  0  0  0  0  0
    5.4446  -12.9117   26.2375 C   0  0  0  0  0  0  0  0  0  0  0  0
    5.9159  -11.6798   26.6320 C   0  0  0  0  0  0  0  0  0  0  0  0
    7.2685  -11.5034   26.8115 C   0  0  0  0  0  0  0  0  0  0  0  0
    8.1660  -12.5372   26.6045 C   0  0  0  0  0  0  0  0  0  0  0  0
    7.6980  -13.7727   26.2090 C   0  0  0  0  0  0  0  0  0  0  0  0
    9.7982  -17.7565   25.8851 C   0  0  0  0  0  0  0  0  0  0  0  0
   10.2625  -18.1747   27.1096 O   0  0  0  0  0  0  0  0  0  0  0  0
    8.9997  -18.5745   25.3027 O   0  0  0  0  0  0  0  0  0  0  0  0
  2  1  1  6
  2  3  1  0
  3  4  1  0
  4  5  1  0
  5  9  1  0
  6  5  2  0
  7  2  1  0
  8  7  2  0
 10 11  1  0
 11 12  2  0
 13 11  1  0
 14 13  1  1
 14 15  1  0
 15  7  1  0
 16 18  1  0
 16 14  1  0
 17 16  2  0
 19 18  1  0
 19 20  1  1
 20 21  1  0
 21 29  1  0
 21 22  2  0
 22 23  1  0
 24 23  1  0
 24 25  2  0
 26 25  1  0
 27 26  2  0
 28 29  2  0
 28 27  1  0
 29 24  1  0
 30 31  1  0
 30 19  1  0
 32 30  2  0
M  END
$$$$
