ENW.pdb
     RDKit          3D

 32 33  0  0  1  0  0  0  0  0999 V2000
   10.3539  -18.7007   18.0948 N   0  0  0  0  0  0  0  0  0  0  0  0
   11.0867  -18.6906   19.3469 C   0  0  1  0  0  0  0  0  0  0  0  0
   12.2994  -17.7835   19.2093 C   0  0  0  0  0  0  0  0  0  0  0  0
   13.5061  -18.6928   18.9437 C   0  0  0  0  0  0  0  0  0  0  0  0
   14.7337  -17.9072   18.7935 C   0  0  0  0  0  0  0  0  0  0  0  0
   15.1346  -17.5680   17.6711 O   0  0  0  0  0  0  0  0  0  0  0  0
   10.1785  -18.1516   20.4155 C   0  0  0  0  0  0  0  0  0  0  0  0
    9.4605  -17.1418   20.1910 O   0  0  0  0  0  0  0  0  0  0  0  0
   15.4832  -17.5137   19.9143 O   0  0  0  0  0  0  0  0  0  0  0  0
    5.8352  -18.5277   23.4910 N   0  0  0  0  0  0  0  0  0  0  0  0
    7.0565  -19.2227   23.8276 C   0  0  0  0  0  0  0  0  0  0  0  0
    7.0945  -19.7004   24.9782 O   0  0  0  0  0  0  0  0  0  0  0  0
    8.1298  -19.3330   22.8698 C   0  0  0  0  0  0  0  0  0  0  0  0
    9.1016  -18.2118   22.6905 C   0  0  2  0  0  0  0  0  0  0  0  0
   10.0831  -18.7283   21.6960 N   0  0  0  0  0  0  0  0  0  0  0  0
    9.8189  -17.7674   23.8827 C   0  0  0  0  0  0  0  0  0  0  0  0
   10.8283  -18.4239   24.3378 O   0  0  0  0  0  0  0  0  0  0  0  0
    9.4938  -16.6187   24.6109 N   0  0  0  0  0  0  0  0  0  0  0  0
   10.1727  -16.1725   25.8353 C   0  0  1  0  0  0  0  0  0  0  0  0
    9.8110  -14.7735   26.1570 C   0  0  0  0  0  0  0  0  0  0  0  0
    8.3638  -14.5387   26.1202 C   0  0  0  0  0  0  0  0  0  0  0  0
    7.3760  -15.5305   26.0241 C   0  0  0  0  0  0  0  0  0  0  0  0
    6.1641  -14.9582   25.9738 N   0  0  0  0  0  0  0  0  0  0  0  0
    6.2740  -13.6286   26.0294 C   0  0  0  0  0  0  0  0  0  0  0  0
    5.3282  -12.6167   26.0256 C   0  0  0  0  0  0  0  0  0  0  0  0
    5.7412  -11.3064   26.1155 C   0  0  0  0  0  0  0  0  0  0  0  0
    7.0860  -11.0302   26.2062 C   0  0  0  0  0  0  0  0  0  0  0  0
    8.0328  -12.0405   26.2095 C   0  0  0  0  0  0  0  0  0  0  0  0
    7.6232  -13.3542   26.1196 C   0  0  0  0  0  0  0  0  0  0  0  0
   10.0504  -17.1277   26.8983 C   0  0  0  0  0  0  0  0  0  0  0  0
    9.2377  -18.2366   26.8967 O   0  0  0  0  0  0  0  0  0  0  0  0
   10.7401  -16.9657   27.9678 O   0  0  0  0  0  0  0  0  0  0  0  0
  2  1  1  6
  2  3  1  0
  3  4  1  0
  4  5  1  0
  5  9  1  0
  6  5  2  0
  7  2  1  0
  8  7  2  0
 10 11  1  0
 11 12  2  0
 13 11  1  0
 14 13  1  1
 14 15  1  0
 15  7  1  0
 16 18  1  0
 16 14  1  0
 17 16  2  0
 19 18  1  0
 19 20  1  1
 20 21  1  0
 21 29  1  0
 21 22  2  0
 22 23  1  0
 24 23  1  0
 24 25  2  0
 26 25  1  0
 27 26  2  0
 28 29  2  0
 28 27  1  0
 29 24  1  0
 30 31  1  0
 30 19  1  0
 32 30  2  0
M  END
$$$$
