ENW.pdb
     RDKit          3D

 32 33  0  0  1  0  0  0  0  0999 V2000
    8.9411  -13.2713   19.2251 N   0  0  0  0  0  0  0  0  0  0  0  0
    7.9475  -14.3050   19.4470 C   0  0  1  0  0  0  0  0  0  0  0  0
    7.5085  -14.8726   18.1063 C   0  0  0  0  0  0  0  0  0  0  0  0
    8.0977  -13.9598   17.0233 C   0  0  0  0  0  0  0  0  0  0  0  0
    8.5345  -14.7370   15.8608 C   0  0  0  0  0  0  0  0  0  0  0  0
    9.6476  -15.2814   15.8455 O   0  0  0  0  0  0  0  0  0  0  0  0
    8.5806  -15.3932   20.2670 C   0  0  0  0  0  0  0  0  0  0  0  0
    7.9533  -16.4594   20.5028 O   0  0  0  0  0  0  0  0  0  0  0  0
    7.7038  -14.8906   14.7387 O   0  0  0  0  0  0  0  0  0  0  0  0
   12.7976  -18.8065   21.5432 N   0  0  0  0  0  0  0  0  0  0  0  0
   12.7539  -17.4037   21.8872 C   0  0  0  0  0  0  0  0  0  0  0  0
   13.5380  -17.0552   22.7913 O   0  0  0  0  0  0  0  0  0  0  0  0
   11.8527  -16.5057   21.2070 C   0  0  0  0  0  0  0  0  0  0  0  0
   10.4359  -16.3676   21.6624 C   0  0  2  0  0  0  0  0  0  0  0  0
    9.8761  -15.2844   20.8067 N   0  0  0  0  0  0  0  0  0  0  0  0
   10.2279  -16.0225   23.0664 C   0  0  0  0  0  0  0  0  0  0  0  0
   10.6817  -14.9226   23.5575 O   0  0  0  0  0  0  0  0  0  0  0  0
    9.5297  -16.8232   23.9756 N   0  0  0  0  0  0  0  0  0  0  0  0
    9.3452  -16.5209   25.4016 C   0  0  1  0  0  0  0  0  0  0  0  0
    7.9107  -16.3409   25.7197 C   0  0  0  0  0  0  0  0  0  0  0  0
    7.3988  -15.0291   25.3102 C   0  0  0  0  0  0  0  0  0  0  0  0
    6.9034  -14.7045   24.0382 C   0  0  0  0  0  0  0  0  0  0  0  0
    6.5605  -13.4083   24.0037 N   0  0  0  0  0  0  0  0  0  0  0  0
    6.7972  -12.8322   25.1848 C   0  0  0  0  0  0  0  0  0  0  0  0
    6.6006  -11.5406   25.6451 C   0  0  0  0  0  0  0  0  0  0  0  0
    6.9262  -11.2310   26.9464 C   0  0  0  0  0  0  0  0  0  0  0  0
    7.4412  -12.2119   27.7621 C   0  0  0  0  0  0  0  0  0  0  0  0
    7.6388  -13.5033   27.3035 C   0  0  0  0  0  0  0  0  0  0  0  0
    7.3141  -13.8175   26.0006 C   0  0  0  0  0  0  0  0  0  0  0  0
   10.0812  -17.4196   26.2430 C   0  0  0  0  0  0  0  0  0  0  0  0
   10.2505  -17.2963   27.6017 O   0  0  0  0  0  0  0  0  0  0  0  0
   10.6540  -18.4406   25.7184 O   0  0  0  0  0  0  0  0  0  0  0  0
  2  1  1  6
  2  3  1  0
  3  4  1  0
  4  5  1  0
  5  9  1  0
  6  5  2  0
  7  2  1  0
  8  7  2  0
 10 11  1  0
 11 12  2  0
 13 11  1  0
 14 13  1  1
 14 15  1  0
 15  7  1  0
 16 18  1  0
 16 14  1  0
 17 16  2  0
 19 18  1  0
 19 20  1  1
 20 21  1  0
 21 29  1  0
 21 22  2  0
 22 23  1  0
 24 23  1  0
 24 25  2  0
 26 25  1  0
 27 26  2  0
 28 29  2  0
 28 27  1  0
 29 24  1  0
 30 31  1  0
 30 19  1  0
 32 30  2  0
M  END
$$$$
