ENW.pdb
     RDKit          3D

 32 33  0  0  1  0  0  0  0  0999 V2000
    9.4379  -17.3200   18.8232 N   0  0  0  0  0  0  0  0  0  0  0  0
    9.2345  -16.2730   19.8068 C   0  0  1  0  0  0  0  0  0  0  0  0
    7.7451  -15.9995   19.9451 C   0  0  0  0  0  0  0  0  0  0  0  0
    7.2483  -15.5398   18.5684 C   0  0  0  0  0  0  0  0  0  0  0  0
    7.0425  -16.6825   17.6749 C   0  0  0  0  0  0  0  0  0  0  0  0
    7.7717  -16.8532   16.6876 O   0  0  0  0  0  0  0  0  0  0  0  0
    9.7781  -16.7553   21.1218 C   0  0  0  0  0  0  0  0  0  0  0  0
    9.3182  -17.7984   21.6567 O   0  0  0  0  0  0  0  0  0  0  0  0
    6.0206  -17.6154   17.9160 O   0  0  0  0  0  0  0  0  0  0  0  0
   14.8477  -15.9063   24.3774 N   0  0  0  0  0  0  0  0  0  0  0  0
   13.8215  -16.8021   23.8953 C   0  0  0  0  0  0  0  0  0  0  0  0
   13.8218  -17.9358   24.4132 O   0  0  0  0  0  0  0  0  0  0  0  0
   12.8835  -16.3736   22.8864 C   0  0  0  0  0  0  0  0  0  0  0  0
   11.4296  -16.6927   23.0211 C   0  0  2  0  0  0  0  0  0  0  0  0
   10.8038  -16.0842   21.8139 N   0  0  0  0  0  0  0  0  0  0  0  0
   10.7543  -16.1888   24.2143 C   0  0  0  0  0  0  0  0  0  0  0  0
   10.7333  -14.9312   24.4882 O   0  0  0  0  0  0  0  0  0  0  0  0
   10.0802  -16.9977   25.1343 N   0  0  0  0  0  0  0  0  0  0  0  0
    9.7300  -16.6074   26.5070 C   0  0  1  0  0  0  0  0  0  0  0  0
    8.2619  -16.5019   26.6652 C   0  0  0  0  0  0  0  0  0  0  0  0
    7.6854  -15.3984   25.8902 C   0  0  0  0  0  0  0  0  0  0  0  0
    7.2854  -15.4631   24.5469 C   0  0  0  0  0  0  0  0  0  0  0  0
    6.8431  -14.2613   24.1484 N   0  0  0  0  0  0  0  0  0  0  0  0
    6.9217  -13.3807   25.1490 C   0  0  0  0  0  0  0  0  0  0  0  0
    6.5791  -12.0415   25.2378 C   0  0  0  0  0  0  0  0  0  0  0  0
    6.7564  -11.3771   26.4305 C   0  0  0  0  0  0  0  0  0  0  0  0
    7.2714  -12.0581   27.5093 C   0  0  0  0  0  0  0  0  0  0  0  0
    7.6149  -13.3966   27.4221 C   0  0  0  0  0  0  0  0  0  0  0  0
    7.4390  -14.0657   26.2292 C   0  0  0  0  0  0  0  0  0  0  0  0
   10.4260  -17.3925   27.4850 C   0  0  0  0  0  0  0  0  0  0  0  0
   10.4034  -17.1920   28.8449 O   0  0  0  0  0  0  0  0  0  0  0  0
   11.1516  -18.3766   27.0967 O   0  0  0  0  0  0  0  0  0  0  0  0
  2  1  1  6
  2  3  1  0
  3  4  1  0
  4  5  1  0
  5  9  1  0
  6  5  2  0
  7  2  1  0
  8  7  2  0
 10 11  1  0
 11 12  2  0
 13 11  1  0
 14 13  1  1
 14 15  1  0
 15  7  1  0
 16 18  1  0
 16 14  1  0
 17 16  2  0
 19 18  1  0
 19 20  1  6
 20 21  1  0
 21 29  1  0
 21 22  2  0
 22 23  1  0
 24 23  1  0
 24 25  2  0
 26 25  1  0
 27 26  2  0
 28 29  2  0
 28 27  1  0
 29 24  1  0
 30 31  1  0
 30 19  1  0
 32 30  2  0
M  END
$$$$
