ENW.pdb
     RDKit          3D

 32 33  0  0  1  0  0  0  0  0999 V2000
   12.6286  -19.4935   19.4298 N   0  0  0  0  0  0  0  0  0  0  0  0
   12.5535  -18.0961   19.8127 C   0  0  1  0  0  0  0  0  0  0  0  0
   12.3970  -17.2430   18.5637 C   0  0  0  0  0  0  0  0  0  0  0  0
   13.0346  -18.0258   17.4086 C   0  0  0  0  0  0  0  0  0  0  0  0
   13.0115  -17.2459   16.1687 C   0  0  0  0  0  0  0  0  0  0  0  0
   13.9383  -16.4716   15.8907 O   0  0  0  0  0  0  0  0  0  0  0  0
   11.3500  -17.9171   20.6940 C   0  0  0  0  0  0  0  0  0  0  0  0
   10.3384  -17.2971   20.2719 O   0  0  0  0  0  0  0  0  0  0  0  0
   11.9449  -17.3589   15.2617 O   0  0  0  0  0  0  0  0  0  0  0  0
   11.3096  -20.6521   23.4534 N   0  0  0  0  0  0  0  0  0  0  0  0
    9.8791  -20.4650   23.3703 C   0  0  0  0  0  0  0  0  0  0  0  0
    9.1981  -21.4887   23.5743 O   0  0  0  0  0  0  0  0  0  0  0  0
    9.3216  -19.1684   23.0711 C   0  0  0  0  0  0  0  0  0  0  0  0
   10.2112  -17.9748   22.9387 C   0  0  2  0  0  0  0  0  0  0  0  0
   11.2875  -18.4168   22.0085 N   0  0  0  0  0  0  0  0  0  0  0  0
   10.8194  -17.4695   24.1668 C   0  0  0  0  0  0  0  0  0  0  0  0
   11.7642  -18.1139   24.7578 O   0  0  0  0  0  0  0  0  0  0  0  0
   10.4521  -16.2722   24.7888 N   0  0  0  0  0  0  0  0  0  0  0  0
    9.6176  -16.1658   25.9936 C   0  0  1  0  0  0  0  0  0  0  0  0
    8.1805  -16.2404   25.6460 C   0  0  0  0  0  0  0  0  0  0  0  0
    7.6800  -15.0056   25.0333 C   0  0  0  0  0  0  0  0  0  0  0  0
    7.4193  -14.8169   23.6676 C   0  0  0  0  0  0  0  0  0  0  0  0
    7.0133  -13.5564   23.4547 N   0  0  0  0  0  0  0  0  0  0  0  0
    6.9848  -12.8759   24.6032 C   0  0  0  0  0  0  0  0  0  0  0  0
    6.6278  -11.5713   24.9020 C   0  0  0  0  0  0  0  0  0  0  0  0
    6.6791  -11.1399   26.2084 C   0  0  0  0  0  0  0  0  0  0  0  0
    7.0852  -12.0145   27.1897 C   0  0  0  0  0  0  0  0  0  0  0  0
    7.4430  -13.3186   26.8927 C   0  0  0  0  0  0  0  0  0  0  0  0
    7.3932  -13.7547   25.5853 C   0  0  0  0  0  0  0  0  0  0  0  0
   10.0703  -17.0343   27.0415 C   0  0  0  0  0  0  0  0  0  0  0  0
   10.0595  -18.4087   27.0111 O   0  0  0  0  0  0  0  0  0  0  0  0
   10.5284  -16.5221   28.1248 O   0  0  0  0  0  0  0  0  0  0  0  0
  2  1  1  6
  2  3  1  0
  3  4  1  0
  4  5  1  0
  5  9  1  0
  6  5  2  0
  7  2  1  0
  8  7  2  0
 10 11  1  0
 11 12  2  0
 13 11  1  0
 14 13  1  1
 14 15  1  0
 15  7  1  0
 16 18  1  0
 16 14  1  0
 17 16  2  0
 19 18  1  0
 19 20  1  6
 20 21  1  0
 21 29  1  0
 21 22  2  0
 22 23  1  0
 24 23  1  0
 24 25  2  0
 26 25  1  0
 27 26  2  0
 28 29  2  0
 28 27  1  0
 29 24  1  0
 30 31  1  0
 30 19  1  0
 32 30  2  0
M  END
$$$$
