ENW.pdb
     RDKit          3D

 32 33  0  0  1  0  0  0  0  0999 V2000
   10.7737  -19.0955   18.9395 N   0  0  0  0  0  0  0  0  0  0  0  0
   10.1021  -19.0758   20.2254 C   0  0  1  0  0  0  0  0  0  0  0  0
   10.8573  -19.9683   21.1977 C   0  0  0  0  0  0  0  0  0  0  0  0
   12.2885  -19.4221   21.2818 C   0  0  0  0  0  0  0  0  0  0  0  0
   13.0856  -20.1822   22.2478 C   0  0  0  0  0  0  0  0  0  0  0  0
   14.1292  -20.7518   21.8982 O   0  0  0  0  0  0  0  0  0  0  0  0
   10.1101  -17.6625   20.7351 C   0  0  0  0  0  0  0  0  0  0  0  0
   11.0677  -16.8922   20.4607 O   0  0  0  0  0  0  0  0  0  0  0  0
   12.6931  -20.2804   23.5928 O   0  0  0  0  0  0  0  0  0  0  0  0
    5.7311  -16.6780   20.6043 N   0  0  0  0  0  0  0  0  0  0  0  0
    6.8044  -15.7137   20.5254 C   0  0  0  0  0  0  0  0  0  0  0  0
    7.0163  -15.2486   19.3887 O   0  0  0  0  0  0  0  0  0  0  0  0
    7.5510  -15.3439   21.7032 C   0  0  0  0  0  0  0  0  0  0  0  0
    9.0049  -15.6727   21.8112 C   0  0  2  0  0  0  0  0  0  0  0  0
    9.0757  -17.1339   21.5302 N   0  0  0  0  0  0  0  0  0  0  0  0
    9.6459  -15.4019   23.0954 C   0  0  0  0  0  0  0  0  0  0  0  0
   10.2622  -14.2928   23.3130 O   0  0  0  0  0  0  0  0  0  0  0  0
    9.6407  -16.2882   24.1769 N   0  0  0  0  0  0  0  0  0  0  0  0
   10.2068  -16.0079   25.5036 C   0  0  1  0  0  0  0  0  0  0  0  0
    9.1734  -16.1412   26.5552 C   0  0  0  0  0  0  0  0  0  0  0  0
    7.9285  -15.4425   26.2192 C   0  0  0  0  0  0  0  0  0  0  0  0
    6.7580  -16.0440   25.7325 C   0  0  0  0  0  0  0  0  0  0  0  0
    5.8318  -15.1038   25.4943 N   0  0  0  0  0  0  0  0  0  0  0  0
    6.3097  -13.8930   25.7920 C   0  0  0  0  0  0  0  0  0  0  0  0
    5.7440  -12.6300   25.7331 C   0  0  0  0  0  0  0  0  0  0  0  0
    6.4842  -11.5397   26.1315 C   0  0  0  0  0  0  0  0  0  0  0  0
    7.7714  -11.7282   26.5790 C   0  0  0  0  0  0  0  0  0  0  0  0
    8.3386  -12.9899   26.6381 C   0  0  0  0  0  0  0  0  0  0  0  0
    7.6006  -14.0847   26.2398 C   0  0  0  0  0  0  0  0  0  0  0  0
   11.4394  -16.7079   25.7228 C   0  0  0  0  0  0  0  0  0  0  0  0
   12.0248  -17.6010   24.8569 O   0  0  0  0  0  0  0  0  0  0  0  0
   12.0822  -16.5163   26.8164 O   0  0  0  0  0  0  0  0  0  0  0  0
  2  1  1  6
  2  3  1  0
  3  4  1  0
  4  5  1  0
  5  9  1  0
  6  5  2  0
  7  2  1  0
  8  7  2  0
 10 11  1  0
 11 12  2  0
 13 11  1  0
 14 13  1  1
 14 15  1  0
 15  7  1  0
 16 18  1  0
 16 14  1  0
 17 16  2  0
 19 18  1  0
 19 20  1  1
 20 21  1  0
 21 29  1  0
 21 22  2  0
 22 23  1  0
 24 23  1  0
 24 25  2  0
 26 25  1  0
 27 26  2  0
 28 29  2  0
 28 27  1  0
 29 24  1  0
 30 31  1  0
 30 19  1  0
 32 30  2  0
M  END
$$$$
