ENW.pdb
     RDKit          3D

 32 33  0  0  1  0  0  0  0  0999 V2000
    7.2804  -18.5494   20.4678 N   0  0  0  0  0  0  0  0  0  0  0  0
    8.6153  -18.6472   19.9078 C   0  0  1  0  0  0  0  0  0  0  0  0
    8.5217  -18.6532   18.3901 C   0  0  0  0  0  0  0  0  0  0  0  0
    7.6403  -19.8482   18.0044 C   0  0  0  0  0  0  0  0  0  0  0  0
    7.4619  -19.9231   16.5522 C   0  0  0  0  0  0  0  0  0  0  0  0
    6.6972  -20.7595   16.0508 O   0  0  0  0  0  0  0  0  0  0  0  0
    9.3988  -17.4458   20.3553 C   0  0  0  0  0  0  0  0  0  0  0  0
   10.6059  -17.3128   20.0220 O   0  0  0  0  0  0  0  0  0  0  0  0
    8.1456  -19.0478   15.6924 O   0  0  0  0  0  0  0  0  0  0  0  0
    6.6141  -13.8731   19.9491 N   0  0  0  0  0  0  0  0  0  0  0  0
    8.0561  -13.8960   20.0393 C   0  0  0  0  0  0  0  0  0  0  0  0
    8.6571  -13.7470   18.9576 O   0  0  0  0  0  0  0  0  0  0  0  0
    8.7123  -14.0798   21.3109 C   0  0  0  0  0  0  0  0  0  0  0  0
    9.6452  -15.2283   21.5216 C   0  0  2  0  0  0  0  0  0  0  0  0
    8.8433  -16.4286   21.1540 N   0  0  0  0  0  0  0  0  0  0  0  0
   10.1766  -15.4039   22.8707 C   0  0  0  0  0  0  0  0  0  0  0  0
   11.1622  -14.6942   23.2974 O   0  0  0  0  0  0  0  0  0  0  0  0
    9.6737  -16.3214   23.7984 N   0  0  0  0  0  0  0  0  0  0  0  0
   10.2231  -16.5546   25.1412 C   0  0  1  0  0  0  0  0  0  0  0  0
    9.9578  -15.3977   26.0260 C   0  0  0  0  0  0  0  0  0  0  0  0
    8.5366  -15.0405   26.0824 C   0  0  0  0  0  0  0  0  0  0  0  0
    7.4627  -15.9213   25.8827 C   0  0  0  0  0  0  0  0  0  0  0  0
    6.3052  -15.2491   25.9655 N   0  0  0  0  0  0  0  0  0  0  0  0
    6.5335  -13.9564   26.2099 C   0  0  0  0  0  0  0  0  0  0  0  0
    5.6809  -12.8800   26.3919 C   0  0  0  0  0  0  0  0  0  0  0  0
    6.2103  -11.6367   26.6551 C   0  0  0  0  0  0  0  0  0  0  0  0
    7.5761  -11.4898   26.7306 C   0  0  0  0  0  0  0  0  0  0  0  0
    8.4298  -12.5646   26.5483 C   0  0  0  0  0  0  0  0  0  0  0  0
    7.9036  -13.8117   26.2844 C   0  0  0  0  0  0  0  0  0  0  0  0
    9.8690  -17.8474   25.6516 C   0  0  0  0  0  0  0  0  0  0  0  0
   10.3180  -18.4011   26.8271 O   0  0  0  0  0  0  0  0  0  0  0  0
    9.0678  -18.5886   24.9775 O   0  0  0  0  0  0  0  0  0  0  0  0
  2  1  1  1
  2  3  1  0
  3  4  1  0
  4  5  1  0
  5  9  1  0
  6  5  2  0
  7  2  1  0
  8  7  2  0
 10 11  1  0
 11 12  2  0
 13 11  1  0
 14 13  1  1
 14 15  1  0
 15  7  1  0
 16 18  1  0
 16 14  1  0
 17 16  2  0
 19 18  1  0
 19 20  1  1
 20 21  1  0
 21 29  1  0
 21 22  2  0
 22 23  1  0
 24 23  1  0
 24 25  2  0
 26 25  1  0
 27 26  2  0
 28 29  2  0
 28 27  1  0
 29 24  1  0
 30 31  1  0
 30 19  1  0
 32 30  2  0
M  END
$$$$
