ENW.pdb
     RDKit          3D

 32 33  0  0  1  0  0  0  0  0999 V2000
    8.0266  -13.2720   18.2147 N   0  0  0  0  0  0  0  0  0  0  0  0
    9.0587  -14.2531   18.4927 C   0  0  1  0  0  0  0  0  0  0  0  0
   10.3786  -13.5365   18.7308 C   0  0  0  0  0  0  0  0  0  0  0  0
   11.4149  -14.6158   19.0698 C   0  0  0  0  0  0  0  0  0  0  0  0
   12.7495  -14.0324   19.2278 C   0  0  0  0  0  0  0  0  0  0  0  0
   13.7492  -14.6074   18.7746 O   0  0  0  0  0  0  0  0  0  0  0  0
    8.6672  -15.0044   19.7335 C   0  0  0  0  0  0  0  0  0  0  0  0
    8.1301  -14.4016   20.6999 O   0  0  0  0  0  0  0  0  0  0  0  0
   12.9304  -12.8068   19.8897 O   0  0  0  0  0  0  0  0  0  0  0  0
    6.7264  -20.1350   21.8319 N   0  0  0  0  0  0  0  0  0  0  0  0
    8.0386  -19.5512   21.6733 C   0  0  0  0  0  0  0  0  0  0  0  0
    8.9161  -20.0056   22.4330 O   0  0  0  0  0  0  0  0  0  0  0  0
    8.2726  -18.5192   20.6927 C   0  0  0  0  0  0  0  0  0  0  0  0
    8.4291  -17.0946   21.1167 C   0  0  2  0  0  0  0  0  0  0  0  0
    8.8757  -16.3884   19.8834 N   0  0  0  0  0  0  0  0  0  0  0  0
    9.3832  -16.8299   22.1905 C   0  0  0  0  0  0  0  0  0  0  0  0
   10.6522  -16.8465   21.9748 O   0  0  0  0  0  0  0  0  0  0  0  0
    9.0191  -16.5323   23.5074 N   0  0  0  0  0  0  0  0  0  0  0  0
    9.9586  -16.2925   24.6115 C   0  0  1  0  0  0  0  0  0  0  0  0
    9.7904  -14.9269   25.1577 C   0  0  0  0  0  0  0  0  0  0  0  0
    8.4369  -14.6818   25.6663 C   0  0  0  0  0  0  0  0  0  0  0  0
    7.4106  -15.6345   25.7541 C   0  0  0  0  0  0  0  0  0  0  0  0
    6.2960  -15.0563   26.2253 N   0  0  0  0  0  0  0  0  0  0  0  0
    6.5082  -13.7594   26.4621 C   0  0  0  0  0  0  0  0  0  0  0  0
    5.6888  -12.7586   26.9577 C   0  0  0  0  0  0  0  0  0  0  0  0
    6.1956  -11.4886   27.1174 C   0  0  0  0  0  0  0  0  0  0  0  0
    7.5061  -11.2404   26.7802 C   0  0  0  0  0  0  0  0  0  0  0  0
    8.3265  -12.2395   26.2841 C   0  0  0  0  0  0  0  0  0  0  0  0
    7.8226  -13.5130   26.1225 C   0  0  0  0  0  0  0  0  0  0  0  0
    9.9606  -17.3676   25.5609 C   0  0  0  0  0  0  0  0  0  0  0  0
    9.0713  -18.4155   25.5948 O   0  0  0  0  0  0  0  0  0  0  0  0
   10.8530  -17.3873   26.4824 O   0  0  0  0  0  0  0  0  0  0  0  0
  2  1  1  1
  2  3  1  0
  3  4  1  0
  4  5  1  0
  5  9  1  0
  6  5  2  0
  7  2  1  0
  8  7  2  0
 10 11  1  0
 11 12  2  0
 13 11  1  0
 14 13  1  6
 14 15  1  0
 15  7  1  0
 16 18  1  0
 16 14  1  0
 17 16  2  0
 19 18  1  0
 19 20  1  1
 20 21  1  0
 21 29  1  0
 21 22  2  0
 22 23  1  0
 24 23  1  0
 24 25  2  0
 26 25  1  0
 27 26  2  0
 28 29  2  0
 28 27  1  0
 29 24  1  0
 30 31  1  0
 30 19  1  0
 32 30  2  0
M  END
$$$$
