ENW.pdb
     RDKit          3D

 32 33  0  0  1  0  0  0  0  0999 V2000
   10.9924  -19.5538   20.6514 N   0  0  0  0  0  0  0  0  0  0  0  0
   11.9620  -18.4777   20.7353 C   0  0  1  0  0  0  0  0  0  0  0  0
   12.6104  -18.2816   19.3740 C   0  0  0  0  0  0  0  0  0  0  0  0
   11.4937  -18.4012   18.3289 C   0  0  0  0  0  0  0  0  0  0  0  0
   12.0378  -18.3506   16.9696 C   0  0  0  0  0  0  0  0  0  0  0  0
   12.9832  -19.0803   16.6388 O   0  0  0  0  0  0  0  0  0  0  0  0
   11.2346  -17.2230   21.1277 C   0  0  0  0  0  0  0  0  0  0  0  0
   11.8154  -16.1070   21.0732 O   0  0  0  0  0  0  0  0  0  0  0  0
   11.5004  -17.4811   16.0063 O   0  0  0  0  0  0  0  0  0  0  0  0
    6.8083  -13.8936   21.1131 N   0  0  0  0  0  0  0  0  0  0  0  0
    6.7619  -15.2072   21.7134 C   0  0  0  0  0  0  0  0  0  0  0  0
    5.7899  -15.4116   22.4664 O   0  0  0  0  0  0  0  0  0  0  0  0
    7.7875  -16.1824   21.4332 C   0  0  0  0  0  0  0  0  0  0  0  0
    9.1967  -15.9448   21.8707 C   0  0  2  0  0  0  0  0  0  0  0  0
    9.8982  -17.2240   21.5698 N   0  0  0  0  0  0  0  0  0  0  0  0
    9.3999  -15.6083   23.2774 C   0  0  0  0  0  0  0  0  0  0  0  0
    9.6654  -14.4031   23.6436 O   0  0  0  0  0  0  0  0  0  0  0  0
    9.3164  -16.5313   24.3245 N   0  0  0  0  0  0  0  0  0  0  0  0
   10.1052  -16.4793   25.5632 C   0  0  1  0  0  0  0  0  0  0  0  0
    9.2608  -16.0676   26.7073 C   0  0  0  0  0  0  0  0  0  0  0  0
    8.0607  -15.3341   26.2920 C   0  0  0  0  0  0  0  0  0  0  0  0
    6.9175  -15.8994   25.7069 C   0  0  0  0  0  0  0  0  0  0  0  0
    6.0330  -14.9336   25.4177 N   0  0  0  0  0  0  0  0  0  0  0  0
    6.5136  -13.7398   25.7737 C   0  0  0  0  0  0  0  0  0  0  0  0
    5.9820  -12.4630   25.6965 C   0  0  0  0  0  0  0  0  0  0  0  0
    6.7138  -11.3975   26.1704 C   0  0  0  0  0  0  0  0  0  0  0  0
    7.9590  -11.6240   26.7100 C   0  0  0  0  0  0  0  0  0  0  0  0
    8.4920  -12.8995   26.7874 C   0  0  0  0  0  0  0  0  0  0  0  0
    7.7623  -13.9695   26.3138 C   0  0  0  0  0  0  0  0  0  0  0  0
   10.9018  -17.6582   25.7451 C   0  0  0  0  0  0  0  0  0  0  0  0
   10.8687  -18.7836   24.9562 O   0  0  0  0  0  0  0  0  0  0  0  0
   11.7284  -17.7101   26.7248 O   0  0  0  0  0  0  0  0  0  0  0  0
  2  1  1  6
  2  3  1  0
  3  4  1  0
  4  5  1  0
  5  9  1  0
  6  5  2  0
  7  2  1  0
  8  7  2  0
 10 11  1  0
 11 12  2  0
 13 11  1  0
 14 13  1  1
 14 15  1  0
 15  7  1  0
 16 18  1  0
 16 14  1  0
 17 16  2  0
 19 18  1  0
 19 20  1  1
 20 21  1  0
 21 29  1  0
 21 22  2  0
 22 23  1  0
 24 23  1  0
 24 25  2  0
 26 25  1  0
 27 26  2  0
 28 29  2  0
 28 27  1  0
 29 24  1  0
 30 31  1  0
 30 19  1  0
 32 30  2  0
M  END
$$$$
