ENW.pdb
     RDKit          3D

 32 33  0  0  1  0  0  0  0  0999 V2000
    7.5388  -17.6537   21.2054 N   0  0  0  0  0  0  0  0  0  0  0  0
    8.2379  -18.5347   20.2889 C   0  0  1  0  0  0  0  0  0  0  0  0
    8.2897  -17.8870   18.9141 C   0  0  0  0  0  0  0  0  0  0  0  0
    7.1079  -18.4492   18.1136 C   0  0  0  0  0  0  0  0  0  0  0  0
    7.3678  -18.3801   16.6734 C   0  0  0  0  0  0  0  0  0  0  0  0
    8.5260  -18.4339   16.2360 O   0  0  0  0  0  0  0  0  0  0  0  0
    9.6363  -18.7289   20.8027 C   0  0  0  0  0  0  0  0  0  0  0  0
   10.4678  -19.4080   20.1445 O   0  0  0  0  0  0  0  0  0  0  0  0
    6.3144  -18.2576   15.7525 O   0  0  0  0  0  0  0  0  0  0  0  0
   14.1766  -16.6892   21.5889 N   0  0  0  0  0  0  0  0  0  0  0  0
   13.0489  -16.2897   20.7783 C   0  0  0  0  0  0  0  0  0  0  0  0
   13.3203  -15.5224   19.8343 O   0  0  0  0  0  0  0  0  0  0  0  0
   11.7210  -16.7690   21.0755 C   0  0  0  0  0  0  0  0  0  0  0  0
   11.5008  -17.7491   22.1821 C   0  0  2  0  0  0  0  0  0  0  0  0
   10.0840  -18.1794   22.0188 N   0  0  0  0  0  0  0  0  0  0  0  0
   11.6967  -17.2576   23.5435 C   0  0  0  0  0  0  0  0  0  0  0  0
   12.7433  -16.5803   23.8643 O   0  0  0  0  0  0  0  0  0  0  0  0
   10.7900  -17.4605   24.5886 N   0  0  0  0  0  0  0  0  0  0  0  0
   10.1172  -16.3948   25.3441 C   0  0  1  0  0  0  0  0  0  0  0  0
    9.3837  -15.4872   24.4332 C   0  0  0  0  0  0  0  0  0  0  0  0
    8.1007  -15.0425   24.9871 C   0  0  0  0  0  0  0  0  0  0  0  0
    6.9734  -15.8522   25.1931 C   0  0  0  0  0  0  0  0  0  0  0  0
    5.9653  -15.1099   25.6742 N   0  0  0  0  0  0  0  0  0  0  0  0
    6.3457  -13.8368   25.8059 C   0  0  0  0  0  0  0  0  0  0  0  0
    5.6825  -12.7113   26.2664 C   0  0  0  0  0  0  0  0  0  0  0  0
    6.3473  -11.5064   26.3091 C   0  0  0  0  0  0  0  0  0  0  0  0
    7.6570  -11.4461   25.8921 C   0  0  0  0  0  0  0  0  0  0  0  0
    8.3212  -12.5700   25.4309 C   0  0  0  0  0  0  0  0  0  0  0  0
    7.6589  -13.7788   25.3864 C   0  0  0  0  0  0  0  0  0  0  0  0
    9.3846  -16.9085   26.4651 C   0  0  0  0  0  0  0  0  0  0  0  0
    8.7918  -18.1465   26.5423 O   0  0  0  0  0  0  0  0  0  0  0  0
    9.2410  -16.1754   27.5080 O   0  0  0  0  0  0  0  0  0  0  0  0
  2  1  1  1
  2  3  1  0
  3  4  1  0
  4  5  1  0
  5  9  1  0
  6  5  2  0
  7  2  1  0
  8  7  2  0
 10 11  1  0
 11 12  2  0
 13 11  1  0
 14 13  1  6
 14 15  1  0
 15  7  1  0
 16 18  1  0
 16 14  1  0
 17 16  2  0
 19 18  1  0
 19 20  1  6
 20 21  1  0
 21 29  1  0
 21 22  2  0
 22 23  1  0
 24 23  1  0
 24 25  2  0
 26 25  1  0
 27 26  2  0
 28 29  2  0
 28 27  1  0
 29 24  1  0
 30 31  1  0
 30 19  1  0
 32 30  2  0
M  END
$$$$
