ENW.pdb
     RDKit          3D

 32 33  0  0  1  0  0  0  0  0999 V2000
    6.2511  -14.3302   19.4951 N   0  0  0  0  0  0  0  0  0  0  0  0
    7.5477  -14.7150   20.0203 C   0  0  1  0  0  0  0  0  0  0  0  0
    8.3640  -13.4637   20.3033 C   0  0  0  0  0  0  0  0  0  0  0  0
    8.7460  -12.8657   18.9431 C   0  0  0  0  0  0  0  0  0  0  0  0
    9.8892  -13.5726   18.3601 C   0  0  0  0  0  0  0  0  0  0  0  0
   10.7992  -14.0066   19.0806 O   0  0  0  0  0  0  0  0  0  0  0  0
    7.3280  -15.4685   21.3014 C   0  0  0  0  0  0  0  0  0  0  0  0
    6.3623  -15.1755   22.0547 O   0  0  0  0  0  0  0  0  0  0  0  0
    9.9811  -13.7820   16.9743 O   0  0  0  0  0  0  0  0  0  0  0  0
    7.1814  -19.7575   24.5033 N   0  0  0  0  0  0  0  0  0  0  0  0
    7.8994  -19.9099   23.2586 C   0  0  0  0  0  0  0  0  0  0  0  0
    8.2545  -21.0742   22.9908 O   0  0  0  0  0  0  0  0  0  0  0  0
    8.1638  -18.7692   22.4158 C   0  0  0  0  0  0  0  0  0  0  0  0
    7.7754  -17.3956   22.8586 C   0  0  2  0  0  0  0  0  0  0  0  0
    8.1690  -16.5156   21.7229 N   0  0  0  0  0  0  0  0  0  0  0  0
    8.3969  -16.9002   24.0841 C   0  0  0  0  0  0  0  0  0  0  0  0
    8.2059  -17.4874   25.2136 O   0  0  0  0  0  0  0  0  0  0  0  0
    9.2388  -15.7852   24.1411 N   0  0  0  0  0  0  0  0  0  0  0  0
   10.2739  -15.5576   25.1589 C   0  0  1  0  0  0  0  0  0  0  0  0
    9.7656  -14.6822   26.2392 C   0  0  0  0  0  0  0  0  0  0  0  0
    8.3061  -14.5405   26.2152 C   0  0  0  0  0  0  0  0  0  0  0  0
    7.3900  -15.5572   25.9058 C   0  0  0  0  0  0  0  0  0  0  0  0
    6.1420  -15.0670   25.9396 N   0  0  0  0  0  0  0  0  0  0  0  0
    6.1595  -13.7695   26.2546 C   0  0  0  0  0  0  0  0  0  0  0  0
    5.1461  -12.8407   26.4254 C   0  0  0  0  0  0  0  0  0  0  0  0
    5.4670  -11.5489   26.7771 C   0  0  0  0  0  0  0  0  0  0  0  0
    6.7885  -11.2079   26.9507 C   0  0  0  0  0  0  0  0  0  0  0  0
    7.8026  -12.1349   26.7798 C   0  0  0  0  0  0  0  0  0  0  0  0
    7.4856  -13.4299   26.4273 C   0  0  0  0  0  0  0  0  0  0  0  0
   10.9069  -16.7784   25.5667 C   0  0  0  0  0  0  0  0  0  0  0  0
   10.5607  -18.0433   25.1543 O   0  0  0  0  0  0  0  0  0  0  0  0
   11.8851  -16.7298   26.3953 O   0  0  0  0  0  0  0  0  0  0  0  0
  2  1  1  1
  2  3  1  0
  3  4  1  0
  4  5  1  0
  5  9  1  0
  6  5  2  0
  7  2  1  0
  8  7  2  0
 10 11  1  0
 11 12  2  0
 13 11  1  0
 14 13  1  6
 14 15  1  0
 15  7  1  0
 16 18  1  0
 16 14  1  0
 17 16  2  0
 19 18  1  0
 19 20  1  1
 20 21  1  0
 21 29  1  0
 21 22  2  0
 22 23  1  0
 24 23  1  0
 24 25  2  0
 26 25  1  0
 27 26  2  0
 28 29  2  0
 28 27  1  0
 29 24  1  0
 30 31  1  0
 30 19  1  0
 32 30  2  0
M  END
$$$$
