ENW.pdb
     RDKit          3D

 32 33  0  0  1  0  0  0  0  0999 V2000
    7.5469  -16.0425   21.4644 N   0  0  0  0  0  0  0  0  0  0  0  0
    7.9321  -17.4356   21.3390 C   0  0  1  0  0  0  0  0  0  0  0  0
    7.7748  -17.8694   19.8900 C   0  0  0  0  0  0  0  0  0  0  0  0
    8.3463  -16.7396   19.0238 C   0  0  0  0  0  0  0  0  0  0  0  0
    8.2566  -17.0718   17.5997 C   0  0  0  0  0  0  0  0  0  0  0  0
    9.2810  -17.2546   16.9268 O   0  0  0  0  0  0  0  0  0  0  0  0
    9.3735  -17.5602   21.7441 C   0  0  0  0  0  0  0  0  0  0  0  0
    9.9618  -18.6711   21.6701 O   0  0  0  0  0  0  0  0  0  0  0  0
    7.0112  -17.1978   16.9625 O   0  0  0  0  0  0  0  0  0  0  0  0
   14.6035  -15.9038   21.1093 N   0  0  0  0  0  0  0  0  0  0  0  0
   13.7088  -15.4131   22.1324 C   0  0  0  0  0  0  0  0  0  0  0  0
   14.2660  -14.8925   23.1183 O   0  0  0  0  0  0  0  0  0  0  0  0
   12.2793  -15.5366   21.9825 C   0  0  0  0  0  0  0  0  0  0  0  0
   11.5432  -16.6555   22.6457 C   0  0  2  0  0  0  0  0  0  0  0  0
   10.1277  -16.4710   22.2199 N   0  0  0  0  0  0  0  0  0  0  0  0
   11.6002  -16.7059   24.1043 C   0  0  0  0  0  0  0  0  0  0  0  0
   12.6115  -17.2168   24.7153 O   0  0  0  0  0  0  0  0  0  0  0  0
   10.5997  -16.2100   24.9459 N   0  0  0  0  0  0  0  0  0  0  0  0
   10.6585  -16.1967   26.4141 C   0  0  1  0  0  0  0  0  0  0  0  0
   10.1166  -14.9277   26.9505 C   0  0  0  0  0  0  0  0  0  0  0  0
    8.7089  -14.7175   26.5971 C   0  0  0  0  0  0  0  0  0  0  0  0
    7.7888  -15.7240   26.2670 C   0  0  0  0  0  0  0  0  0  0  0  0
    6.6060  -15.1720   25.9585 N   0  0  0  0  0  0  0  0  0  0  0  0
    6.6719  -13.8422   26.0599 C   0  0  0  0  0  0  0  0  0  0  0  0
    5.7287  -12.8471   25.8634 C   0  0  0  0  0  0  0  0  0  0  0  0
    6.0829  -11.5321   26.0651 C   0  0  0  0  0  0  0  0  0  0  0  0
    7.3677  -11.2344   26.4570 C   0  0  0  0  0  0  0  0  0  0  0  0
    8.3119  -12.2279   26.6533 C   0  0  0  0  0  0  0  0  0  0  0  0
    7.9612  -13.5463   26.4522 C   0  0  0  0  0  0  0  0  0  0  0  0
   10.1429  -17.4070   26.9854 C   0  0  0  0  0  0  0  0  0  0  0  0
    9.5216  -18.4227   26.2981 O   0  0  0  0  0  0  0  0  0  0  0  0
   10.2452  -17.5953   28.2503 O   0  0  0  0  0  0  0  0  0  0  0  0
  2  1  1  6
  2  3  1  0
  3  4  1  0
  4  5  1  0
  5  9  1  0
  6  5  2  0
  7  2  1  0
  8  7  2  0
 10 11  1  0
 11 12  2  0
 13 11  1  0
 14 13  1  1
 14 15  1  0
 15  7  1  0
 16 18  1  0
 16 14  1  0
 17 16  2  0
 19 18  1  0
 19 20  1  1
 20 21  1  0
 21 29  1  0
 21 22  2  0
 22 23  1  0
 24 23  1  0
 24 25  2  0
 26 25  1  0
 27 26  2  0
 28 29  2  0
 28 27  1  0
 29 24  1  0
 30 31  1  0
 30 19  1  0
 32 30  2  0
M  END
$$$$
