ENW.pdb
     RDKit          3D

 32 33  0  0  1  0  0  0  0  0999 V2000
   11.1364  -19.4290   21.4556 N   0  0  0  0  0  0  0  0  0  0  0  0
   12.0112  -18.3218   21.1183 C   0  0  1  0  0  0  0  0  0  0  0  0
   12.5475  -18.5195   19.7092 C   0  0  0  0  0  0  0  0  0  0  0  0
   12.1776  -19.9480   19.2897 C   0  0  0  0  0  0  0  0  0  0  0  0
   12.6746  -20.2465   17.9442 C   0  0  0  0  0  0  0  0  0  0  0  0
   11.9576  -20.0649   16.9500 O   0  0  0  0  0  0  0  0  0  0  0  0
   11.2045  -17.0555   21.1728 C   0  0  0  0  0  0  0  0  0  0  0  0
   11.7090  -15.9628   20.8021 O   0  0  0  0  0  0  0  0  0  0  0  0
   13.9749  -20.7390   17.7452 O   0  0  0  0  0  0  0  0  0  0  0  0
    6.6705  -18.0775   20.3675 N   0  0  0  0  0  0  0  0  0  0  0  0
    7.4722  -16.8828   20.2329 C   0  0  0  0  0  0  0  0  0  0  0  0
    7.8911  -16.6526   19.0818 O   0  0  0  0  0  0  0  0  0  0  0  0
    7.7430  -16.0443   21.3753 C   0  0  0  0  0  0  0  0  0  0  0  0
    9.1507  -15.7234   21.7612 C   0  0  2  0  0  0  0  0  0  0  0  0
    9.8744  -17.0190   21.6319 N   0  0  0  0  0  0  0  0  0  0  0  0
    9.3584  -15.1927   23.1061 C   0  0  0  0  0  0  0  0  0  0  0  0
    8.7363  -14.1414   23.5120 O   0  0  0  0  0  0  0  0  0  0  0  0
   10.2157  -15.7647   24.0512 N   0  0  0  0  0  0  0  0  0  0  0  0
    9.8789  -16.0103   25.4602 C   0  0  1  0  0  0  0  0  0  0  0  0
    8.5396  -16.6297   25.5803 C   0  0  0  0  0  0  0  0  0  0  0  0
    7.4652  -15.6391   25.7034 C   0  0  0  0  0  0  0  0  0  0  0  0
    6.1086  -15.8643   25.4250 C   0  0  0  0  0  0  0  0  0  0  0  0
    5.4157  -14.7301   25.6052 N   0  0  0  0  0  0  0  0  0  0  0  0
    6.2288  -13.7436   25.9907 C   0  0  0  0  0  0  0  0  0  0  0  0
    5.9938  -12.4164   26.3097 C   0  0  0  0  0  0  0  0  0  0  0  0
    7.0461  -11.6202   26.7025 C   0  0  0  0  0  0  0  0  0  0  0  0
    8.3097  -12.1603   26.7688 C   0  0  0  0  0  0  0  0  0  0  0  0
    8.5464  -13.4866   26.4497 C   0  0  0  0  0  0  0  0  0  0  0  0
    7.4952  -14.2876   26.0556 C   0  0  0  0  0  0  0  0  0  0  0  0
   10.9490  -16.6534   26.1663 C   0  0  0  0  0  0  0  0  0  0  0  0
   12.0557  -17.2367   25.5962 O   0  0  0  0  0  0  0  0  0  0  0  0
   10.9048  -16.7170   27.4468 O   0  0  0  0  0  0  0  0  0  0  0  0
  2  1  1  6
  2  3  1  0
  3  4  1  0
  4  5  1  0
  5  9  1  0
  6  5  2  0
  7  2  1  0
  8  7  2  0
 10 11  1  0
 11 12  2  0
 13 11  1  0
 14 13  1  1
 14 15  1  0
 15  7  1  0
 16 18  1  0
 16 14  1  0
 17 16  2  0
 19 18  1  0
 19 20  1  6
 20 21  1  0
 21 29  1  0
 21 22  2  0
 22 23  1  0
 24 23  1  0
 24 25  2  0
 26 25  1  0
 27 26  2  0
 28 29  2  0
 28 27  1  0
 29 24  1  0
 30 31  1  0
 30 19  1  0
 32 30  2  0
M  END
$$$$
