ENW.pdb
     RDKit          3D

 32 33  0  0  1  0  0  0  0  0999 V2000
   12.3133  -16.1077   19.5507 N   0  0  0  0  0  0  0  0  0  0  0  0
   10.9029  -16.3907   19.7402 C   0  0  1  0  0  0  0  0  0  0  0  0
   10.3716  -17.1242   18.5187 C   0  0  0  0  0  0  0  0  0  0  0  0
    8.8686  -17.3324   18.7447 C   0  0  0  0  0  0  0  0  0  0  0  0
    8.2487  -17.9871   17.5899 C   0  0  0  0  0  0  0  0  0  0  0  0
    7.2612  -18.7218   17.7336 O   0  0  0  0  0  0  0  0  0  0  0  0
   10.7612  -17.2688   20.9510 C   0  0  0  0  0  0  0  0  0  0  0  0
   10.2350  -18.4086   20.8527 O   0  0  0  0  0  0  0  0  0  0  0  0
    8.7516  -17.7954   16.2926 O   0  0  0  0  0  0  0  0  0  0  0  0
   14.0259  -19.3983   24.1931 N   0  0  0  0  0  0  0  0  0  0  0  0
   13.2118  -18.8572   23.1289 C   0  0  0  0  0  0  0  0  0  0  0  0
   13.8440  -18.3181   22.1999 O   0  0  0  0  0  0  0  0  0  0  0  0
   11.7733  -18.9565   23.1780 C   0  0  0  0  0  0  0  0  0  0  0  0
   10.9390  -17.7399   23.4178 C   0  0  2  0  0  0  0  0  0  0  0  0
   11.1945  -16.8761   22.2314 N   0  0  0  0  0  0  0  0  0  0  0  0
   11.2213  -16.9789   24.6322 C   0  0  0  0  0  0  0  0  0  0  0  0
   12.3221  -17.1396   25.2797 O   0  0  0  0  0  0  0  0  0  0  0  0
   10.3554  -16.0276   25.1805 N   0  0  0  0  0  0  0  0  0  0  0  0
    9.8063  -16.0688   26.5429 C   0  0  1  0  0  0  0  0  0  0  0  0
    8.3415  -16.2810   26.5131 C   0  0  0  0  0  0  0  0  0  0  0  0
    7.6437  -15.3049   25.6698 C   0  0  0  0  0  0  0  0  0  0  0  0
    7.1334  -15.5493   24.3858 C   0  0  0  0  0  0  0  0  0  0  0  0
    6.5964  -14.4243   23.8911 N   0  0  0  0  0  0  0  0  0  0  0  0
    6.7148  -13.4259   24.7697 C   0  0  0  0  0  0  0  0  0  0  0  0
    6.3118  -12.1011   24.7314 C   0  0  0  0  0  0  0  0  0  0  0  0
    6.5564  -11.2897   25.8164 C   0  0  0  0  0  0  0  0  0  0  0  0
    7.1972  -11.8124   26.9159 C   0  0  0  0  0  0  0  0  0  0  0  0
    7.6012  -13.1361   26.9556 C   0  0  0  0  0  0  0  0  0  0  0  0
    7.3583  -13.9522   25.8709 C   0  0  0  0  0  0  0  0  0  0  0  0
   10.5624  -16.9322   27.4032 C   0  0  0  0  0  0  0  0  0  0  0  0
   11.1559  -18.1171   27.0371 O   0  0  0  0  0  0  0  0  0  0  0  0
   10.7173  -16.6090   28.6349 O   0  0  0  0  0  0  0  0  0  0  0  0
  2  1  1  6
  2  3  1  0
  3  4  1  0
  4  5  1  0
  5  9  1  0
  6  5  2  0
  7  2  1  0
  8  7  2  0
 10 11  1  0
 11 12  2  0
 13 11  1  0
 14 13  1  6
 14 15  1  0
 15  7  1  0
 16 18  1  0
 16 14  1  0
 17 16  2  0
 19 18  1  0
 19 20  1  6
 20 21  1  0
 21 29  1  0
 21 22  2  0
 22 23  1  0
 24 23  1  0
 24 25  2  0
 26 25  1  0
 27 26  2  0
 28 29  2  0
 28 27  1  0
 29 24  1  0
 30 31  1  0
 30 19  1  0
 32 30  2  0
M  END
$$$$
