NIM.pdb
     RDKit          3D

 25 24  0  0  1  0  0  0  0  0999 V2000
   27.9943  -17.1962  -16.6151 N   0  0  0  0  0  0  0  0  0  0  0  0
   26.5897  -17.1768  -16.5966 C   0  0  0  0  0  0  0  0  0  0  0  0
   25.9730  -16.2406  -17.1293 O   0  0  0  0  0  0  0  0  0  0  0  0
   25.8634  -18.2730  -15.9420 C   0  0  0  0  0  0  0  0  0  0  0  0
   26.6913  -19.2612  -15.2065 C   0  0  2  0  0  0  0  0  0  0  0  0
   27.6204  -19.9901  -15.9907 N   0  0  0  0  0  0  0  0  0  0  0  0
   25.7679  -20.1568  -14.4570 C   0  0  0  0  0  0  0  0  0  0  0  0
   25.4047  -21.2430  -14.9702 O   0  0  0  0  0  0  0  0  0  0  0  0
   26.5388  -20.7639   -9.2049 C   0  0  0  0  0  0  0  0  0  0  0  0
   26.1608  -21.0731  -10.6202 C   0  0  0  0  0  0  0  0  0  0  0  0
   24.7987  -20.6055  -10.9964 C   0  0  2  0  0  0  0  0  0  0  0  0
   23.8238  -21.2349  -10.0242 C   0  0  0  0  0  0  0  0  0  0  0  0
   24.3904  -20.7715  -12.4178 C   0  0  2  0  0  0  0  0  0  0  0  0
   25.2697  -19.8357  -13.1667 N   0  0  0  0  0  0  0  0  0  0  0  0
   22.9935  -20.4865  -12.7384 C   0  0  0  0  0  0  0  0  0  0  0  0
   22.5277  -19.3174  -12.5031 O   0  0  0  0  0  0  0  0  0  0  0  0
   19.2958  -23.6874  -16.8648 C   0  0  0  0  0  0  0  0  0  0  0  0
   18.0337  -22.4673  -16.3434 S   0  0  0  0  0  0  0  0  0  0  0  0
   18.6993  -21.4285  -15.0153 C   0  0  0  0  0  0  0  0  0  0  0  0
   20.1326  -21.8116  -14.7426 C   0  0  0  0  0  0  0  0  0  0  0  0
   20.6957  -21.0300  -13.5681 C   0  0  2  0  0  0  0  0  0  0  0  0
   22.0734  -21.3916  -13.3006 N   0  0  0  0  0  0  0  0  0  0  0  0
   19.8866  -21.2775  -12.3692 C   0  0  0  0  0  0  0  0  0  0  0  0
   18.9348  -20.5210  -12.0084 O   0  0  0  0  0  0  0  0  0  0  0  0
   20.1495  -22.3769  -11.5768 O   0  0  0  0  0  0  0  0  0  0  0  0
  2  1  1  0
  3  2  2  0
  4  2  1  0
  5  6  1  6
  5  4  1  0
  7  5  1  0
  8  7  2  0
  9 10  1  0
 11 10  1  0
 11 13  1  0
 11 12  1  1
 13 14  1  6
 14  7  1  0
 15 13  1  0
 15 16  2  0
 18 17  1  0
 19 18  1  0
 20 19  1  0
 21 20  1  6
 22 21  1  0
 22 15  1  0
 23 21  1  0
 24 23  2  0
 25 23  1  0
M  END
$$$$
