NIM.pdb
     RDKit          3D

 25 24  0  0  1  0  0  0  0  0999 V2000
   15.2695  -10.6871  -18.4396 N   0  0  0  0  0  0  0  0  0  0  0  0
   15.3400   -9.4207  -17.8355 C   0  0  0  0  0  0  0  0  0  0  0  0
   14.6285   -8.4924  -18.2506 O   0  0  0  0  0  0  0  0  0  0  0  0
   16.2622   -9.2099  -16.7116 C   0  0  0  0  0  0  0  0  0  0  0  0
   17.0997  -10.3722  -16.3235 C   0  0  2  0  0  0  0  0  0  0  0  0
   16.4046  -11.4676  -15.7522 N   0  0  0  0  0  0  0  0  0  0  0  0
   18.1835   -9.8721  -15.4336 C   0  0  0  0  0  0  0  0  0  0  0  0
   17.9581   -9.7161  -14.2089 O   0  0  0  0  0  0  0  0  0  0  0  0
   23.8729  -10.8548  -14.3388 C   0  0  0  0  0  0  0  0  0  0  0  0
   22.8613   -9.7521  -14.2909 C   0  0  0  0  0  0  0  0  0  0  0  0
   21.6306  -10.0281  -15.0813 C   0  0  2  0  0  0  0  0  0  0  0  0
   22.0660  -10.3270  -16.5000 C   0  0  0  0  0  0  0  0  0  0  0  0
   20.5356   -9.0229  -15.0093 C   0  0  2  0  0  0  0  0  0  0  0  0
   19.4829   -9.5577  -15.9123 N   0  0  0  0  0  0  0  0  0  0  0  0
   20.8693   -7.6573  -15.4081 C   0  0  0  0  0  0  0  0  0  0  0  0
   21.1638   -7.4212  -16.6315 O   0  0  0  0  0  0  0  0  0  0  0  0
   19.4304   -0.2175  -16.3277 C   0  0  0  0  0  0  0  0  0  0  0  0
   18.9597   -1.8943  -15.7618 S   0  0  0  0  0  0  0  0  0  0  0  0
   20.4425   -2.9249  -15.6032 C   0  0  0  0  0  0  0  0  0  0  0  0
   20.0455   -4.3266  -15.2118 C   0  0  0  0  0  0  0  0  0  0  0  0
   21.2659   -5.2141  -15.0371 C   0  0  2  0  0  0  0  0  0  0  0  0
   20.9001   -6.5332  -14.5611 N   0  0  0  0  0  0  0  0  0  0  0  0
   22.2010   -4.5972  -14.0893 C   0  0  0  0  0  0  0  0  0  0  0  0
   22.3253   -4.9849  -12.8883 O   0  0  0  0  0  0  0  0  0  0  0  0
   22.9958   -3.5437  -14.4943 O   0  0  0  0  0  0  0  0  0  0  0  0
  2  1  1  0
  3  2  2  0
  4  2  1  0
  5  6  1  1
  5  4  1  0
  7  5  1  0
  8  7  2  0
  9 10  1  0
 11 10  1  0
 11 13  1  0
 11 12  1  6
 13 14  1  6
 14  7  1  0
 15 13  1  0
 15 16  2  0
 18 17  1  0
 19 18  1  0
 20 19  1  0
 21 20  1  1
 22 21  1  0
 22 15  1  0
 23 21  1  0
 24 23  2  0
 25 23  1  0
M  END
$$$$
