NIM.pdb
     RDKit          3D

 25 24  0  0  1  0  0  0  0  0999 V2000
   28.1073  -19.0353  -18.2060 N   0  0  0  0  0  0  0  0  0  0  0  0
   28.0692  -18.9509  -16.8042 C   0  0  0  0  0  0  0  0  0  0  0  0
   28.8833  -18.2336  -16.2014 O   0  0  0  0  0  0  0  0  0  0  0  0
   27.0588  -19.7184  -16.0642 C   0  0  0  0  0  0  0  0  0  0  0  0
   27.5641  -20.5816  -14.9676 C   0  0  2  0  0  0  0  0  0  0  0  0
   28.4444  -21.6213  -15.3593 N   0  0  0  0  0  0  0  0  0  0  0  0
   26.3856  -21.0988  -14.2191 C   0  0  0  0  0  0  0  0  0  0  0  0
   25.8092  -22.1416  -14.6134 O   0  0  0  0  0  0  0  0  0  0  0  0
   26.6692  -20.7832   -8.9146 C   0  0  0  0  0  0  0  0  0  0  0  0
   26.3328  -21.2959  -10.2805 C   0  0  0  0  0  0  0  0  0  0  0  0
   25.0931  -20.7073  -10.8571 C   0  0  2  0  0  0  0  0  0  0  0  0
   23.9631  -21.0117   -9.8968 C   0  0  0  0  0  0  0  0  0  0  0  0
   24.7668  -21.0544  -12.2669 C   0  0  2  0  0  0  0  0  0  0  0  0
   25.8734  -20.4579  -13.0601 N   0  0  0  0  0  0  0  0  0  0  0  0
   23.4865  -20.5746  -12.7828 C   0  0  0  0  0  0  0  0  0  0  0  0
   23.2873  -19.3134  -12.8768 O   0  0  0  0  0  0  0  0  0  0  0  0
   19.4571  -23.7012  -16.5970 C   0  0  0  0  0  0  0  0  0  0  0  0
   18.4254  -22.2030  -16.3862 S   0  0  0  0  0  0  0  0  0  0  0  0
   19.1762  -21.1126  -15.1480 C   0  0  0  0  0  0  0  0  0  0  0  0
   20.5373  -21.6400  -14.7676 C   0  0  0  0  0  0  0  0  0  0  0  0
   21.1500  -20.8192  -13.6457 C   0  0  2  0  0  0  0  0  0  0  0  0
   22.4116  -21.3798  -13.2048 N   0  0  0  0  0  0  0  0  0  0  0  0
   20.2231  -20.7550  -12.5099 C   0  0  0  0  0  0  0  0  0  0  0  0
   20.2307  -21.5976  -11.5621 O   0  0  0  0  0  0  0  0  0  0  0  0
   19.2878  -19.7420  -12.4417 O   0  0  0  0  0  0  0  0  0  0  0  0
  2  1  1  0
  3  2  2  0
  4  2  1  0
  5  6  1  6
  5  4  1  0
  7  5  1  0
  8  7  2  0
  9 10  1  0
 11 10  1  0
 11 13  1  0
 11 12  1  1
 13 14  1  6
 14  7  1  0
 15 13  1  0
 15 16  2  0
 18 17  1  0
 19 18  1  0
 20 19  1  0
 21 20  1  6
 22 21  1  0
 22 15  1  0
 23 21  1  0
 24 23  2  0
 25 23  1  0
M  END
$$$$
