NIM.pdb
     RDKit          3D

 25 24  0  0  1  0  0  0  0  0999 V2000
   16.7648  -13.3193  -17.9402 N   0  0  0  0  0  0  0  0  0  0  0  0
   16.2097  -12.0319  -17.8491 C   0  0  0  0  0  0  0  0  0  0  0  0
   15.2610  -11.7098  -18.5818 O   0  0  0  0  0  0  0  0  0  0  0  0
   16.7634  -11.0763  -16.8806 C   0  0  0  0  0  0  0  0  0  0  0  0
   17.8573  -11.5808  -16.0135 C   0  0  2  0  0  0  0  0  0  0  0  0
   17.4953  -12.6002  -15.0974 N   0  0  0  0  0  0  0  0  0  0  0  0
   18.4717  -10.4085  -15.3318 C   0  0  0  0  0  0  0  0  0  0  0  0
   18.0249  -10.0326  -14.2208 O   0  0  0  0  0  0  0  0  0  0  0  0
   23.3686  -10.3254  -14.0685 C   0  0  0  0  0  0  0  0  0  0  0  0
   21.9059  -10.0169  -14.1513 C   0  0  0  0  0  0  0  0  0  0  0  0
   21.5829   -8.8567  -15.0261 C   0  0  2  0  0  0  0  0  0  0  0  0
   22.4234   -7.6900  -14.5526 C   0  0  0  0  0  0  0  0  0  0  0  0
   20.1456   -8.5081  -15.1913 C   0  0  2  0  0  0  0  0  0  0  0  0
   19.5580   -9.6825  -15.8878 N   0  0  0  0  0  0  0  0  0  0  0  0
   19.8461   -7.2948  -15.9487 C   0  0  0  0  0  0  0  0  0  0  0  0
   20.3556   -7.1475  -17.1139 O   0  0  0  0  0  0  0  0  0  0  0  0
   14.9006   -6.2682  -14.4156 C   0  0  0  0  0  0  0  0  0  0  0  0
   14.7652   -5.4438  -16.0452 S   0  0  0  0  0  0  0  0  0  0  0  0
   16.3681   -5.4924  -16.8903 C   0  0  0  0  0  0  0  0  0  0  0  0
   17.3402   -4.5794  -16.1853 C   0  0  0  0  0  0  0  0  0  0  0  0
   18.7688   -5.0707  -16.3447 C   0  0  2  0  0  0  0  0  0  0  0  0
   19.0259   -6.2341  -15.5196 N   0  0  0  0  0  0  0  0  0  0  0  0
   19.7078   -4.0022  -15.9846 C   0  0  0  0  0  0  0  0  0  0  0  0
   19.7652   -2.8949  -16.6002 O   0  0  0  0  0  0  0  0  0  0  0  0
   20.5822   -4.1809  -14.9314 O   0  0  0  0  0  0  0  0  0  0  0  0
  2  1  1  0
  3  2  2  0
  4  2  1  0
  5  6  1  1
  5  4  1  0
  7  5  1  0
  8  7  2  0
  9 10  1  0
 11 10  1  0
 11 13  1  0
 11 12  1  1
 13 14  1  6
 14  7  1  0
 15 13  1  0
 15 16  2  0
 18 17  1  0
 19 18  1  0
 20 19  1  0
 21 20  1  1
 22 21  1  0
 22 15  1  0
 23 21  1  0
 24 23  2  0
 25 23  1  0
M  END
$$$$
