NIM.pdb
     RDKit          3D

 25 24  0  0  1  0  0  0  0  0999 V2000
   20.3808  -23.1125  -15.9462 N   0  0  0  0  0  0  0  0  0  0  0  0
   19.9433  -22.1320  -15.0402 C   0  0  0  0  0  0  0  0  0  0  0  0
   18.7607  -22.1156  -14.6638 O   0  0  0  0  0  0  0  0  0  0  0  0
   20.8983  -21.1311  -14.5464 C   0  0  0  0  0  0  0  0  0  0  0  0
   21.1064  -21.0919  -13.0773 C   0  0  2  0  0  0  0  0  0  0  0  0
   20.0441  -20.5370  -12.3203 N   0  0  0  0  0  0  0  0  0  0  0  0
   22.3980  -20.3970  -12.8216 C   0  0  0  0  0  0  0  0  0  0  0  0
   22.4503  -19.1443  -12.8781 O   0  0  0  0  0  0  0  0  0  0  0  0
   25.1270  -21.1346   -8.4882 C   0  0  0  0  0  0  0  0  0  0  0  0
   24.5739  -20.5597   -9.7551 C   0  0  0  0  0  0  0  0  0  0  0  0
   25.3594  -20.9106  -10.9698 C   0  0  2  0  0  0  0  0  0  0  0  0
   26.8040  -20.5565  -10.6879 C   0  0  0  0  0  0  0  0  0  0  0  0
   24.8741  -20.3777  -12.2718 C   0  0  2  0  0  0  0  0  0  0  0  0
   23.5947  -21.0956  -12.5113 N   0  0  0  0  0  0  0  0  0  0  0  0
   25.7541  -20.5563  -13.4246 C   0  0  0  0  0  0  0  0  0  0  0  0
   26.0256  -21.7428  -13.8216 O   0  0  0  0  0  0  0  0  0  0  0  0
   29.9467  -17.5574  -19.4729 C   0  0  0  0  0  0  0  0  0  0  0  0
   29.1101  -17.2251  -17.8782 S   0  0  0  0  0  0  0  0  0  0  0  0
   28.5364  -18.7837  -17.1520 C   0  0  0  0  0  0  0  0  0  0  0  0
   27.8267  -18.5052  -15.8504 C   0  0  0  0  0  0  0  0  0  0  0  0
   27.3351  -19.7906  -15.2073 C   0  0  2  0  0  0  0  0  0  0  0  0
   26.3544  -19.5264  -14.1735 N   0  0  0  0  0  0  0  0  0  0  0  0
   28.4664  -20.5241  -14.6283 C   0  0  0  0  0  0  0  0  0  0  0  0
   28.9765  -20.2341  -13.5040 O   0  0  0  0  0  0  0  0  0  0  0  0
   29.0231  -21.5840  -15.3155 O   0  0  0  0  0  0  0  0  0  0  0  0
  2  1  1  0
  3  2  2  0
  4  2  1  0
  5  6  1  1
  5  4  1  0
  7  5  1  0
  8  7  2  0
  9 10  1  0
 11 10  1  0
 11 13  1  0
 11 12  1  1
 13 14  1  6
 14  7  1  0
 15 13  1  0
 15 16  2  0
 18 17  1  0
 19 18  1  0
 20 19  1  0
 21 20  1  1
 22 21  1  0
 22 15  1  0
 23 21  1  0
 24 23  2  0
 25 23  1  0
M  END
$$$$
