NIM.pdb
     RDKit          3D

 25 24  0  0  1  0  0  0  0  0999 V2000
   18.8311  -24.9938   -8.3852 N   0  0  0  0  0  0  0  0  0  0  0  0
   18.6842  -24.7208   -9.7554 C   0  0  0  0  0  0  0  0  0  0  0  0
   18.1397  -25.5506  -10.5006 O   0  0  0  0  0  0  0  0  0  0  0  0
   19.1807  -23.4470  -10.2926 C   0  0  0  0  0  0  0  0  0  0  0  0
   19.7960  -22.5172   -9.3128 C   0  0  2  0  0  0  0  0  0  0  0  0
   18.8939  -21.8574   -8.4409 N   0  0  0  0  0  0  0  0  0  0  0  0
   20.6443  -21.5570  -10.0710 C   0  0  0  0  0  0  0  0  0  0  0  0
   20.1546  -20.4682  -10.4581 O   0  0  0  0  0  0  0  0  0  0  0  0
   25.6539  -20.6442   -8.5072 C   0  0  0  0  0  0  0  0  0  0  0  0
   24.2789  -20.5001   -9.0818 C   0  0  0  0  0  0  0  0  0  0  0  0
   24.1734  -20.9203  -10.5059 C   0  0  2  0  0  0  0  0  0  0  0  0
   25.2363  -20.1663  -11.2762 C   0  0  0  0  0  0  0  0  0  0  0  0
   22.8299  -20.8417  -11.1410 C   0  0  2  0  0  0  0  0  0  0  0  0
   22.0048  -21.8183  -10.3828 N   0  0  0  0  0  0  0  0  0  0  0  0
   22.7579  -21.1497  -12.5677 C   0  0  0  0  0  0  0  0  0  0  0  0
   23.2176  -22.2690  -12.9860 O   0  0  0  0  0  0  0  0  0  0  0  0
   17.8719  -21.6293  -16.3287 C   0  0  0  0  0  0  0  0  0  0  0  0
   19.0066  -20.9137  -17.5753 S   0  0  0  0  0  0  0  0  0  0  0  0
   20.7133  -21.0021  -16.9710 C   0  0  0  0  0  0  0  0  0  0  0  0
   20.7449  -20.6901  -15.4955 C   0  0  0  0  0  0  0  0  0  0  0  0
   22.1662  -20.7130  -14.9600 C   0  0  2  0  0  0  0  0  0  0  0  0
   22.2155  -20.3187  -13.5662 N   0  0  0  0  0  0  0  0  0  0  0  0
   23.0126  -19.8118  -15.7504 C   0  0  0  0  0  0  0  0  0  0  0  0
   23.2554  -18.6145  -15.4100 O   0  0  0  0  0  0  0  0  0  0  0  0
   23.5853  -20.2591  -16.9241 O   0  0  0  0  0  0  0  0  0  0  0  0
  2  1  1  0
  3  2  2  0
  4  2  1  0
  5  6  1  6
  5  4  1  0
  7  5  1  0
  8  7  2  0
  9 10  1  0
 11 10  1  0
 11 13  1  0
 11 12  1  6
 13 14  1  1
 14  7  1  0
 15 13  1  0
 15 16  2  0
 18 17  1  0
 19 18  1  0
 20 19  1  0
 21 20  1  6
 22 21  1  0
 22 15  1  0
 23 21  1  0
 24 23  2  0
 25 23  1  0
M  END
$$$$
