NIM.pdb
     RDKit          3D

 25 24  0  0  1  0  0  0  0  0999 V2000
   25.0814  -34.5825  -17.3012 N   0  0  0  0  0  0  0  0  0  0  0  0
   24.0051  -34.2107  -16.4783 C   0  0  0  0  0  0  0  0  0  0  0  0
   22.9146  -34.7948  -16.5779 O   0  0  0  0  0  0  0  0  0  0  0  0
   24.1858  -33.1270  -15.5031 C   0  0  0  0  0  0  0  0  0  0  0  0
   22.9660  -32.3655  -15.1354 C   0  0  2  0  0  0  0  0  0  0  0  0
   22.5342  -31.4020  -16.0812 N   0  0  0  0  0  0  0  0  0  0  0  0
   23.1941  -31.7669  -13.7914 C   0  0  0  0  0  0  0  0  0  0  0  0
   23.8978  -30.7332  -13.6841 O   0  0  0  0  0  0  0  0  0  0  0  0
   19.4269  -29.6915  -11.4612 C   0  0  0  0  0  0  0  0  0  0  0  0
   20.8141  -30.1023  -11.8466 C   0  0  0  0  0  0  0  0  0  0  0  0
   21.3887  -31.1700  -10.9832 C   0  0  2  0  0  0  0  0  0  0  0  0
   21.2241  -30.7224   -9.5465 C   0  0  0  0  0  0  0  0  0  0  0  0
   22.7702  -31.6272  -11.2946 C   0  0  2  0  0  0  0  0  0  0  0  0
   22.6443  -32.3189  -12.6043 N   0  0  0  0  0  0  0  0  0  0  0  0
   23.3985  -32.5265  -10.3292 C   0  0  0  0  0  0  0  0  0  0  0  0
   23.0390  -33.7549  -10.2984 O   0  0  0  0  0  0  0  0  0  0  0  0
   29.7793  -33.0995   -7.5511 C   0  0  0  0  0  0  0  0  0  0  0  0
   28.4554  -32.9520   -6.2945 S   0  0  0  0  0  0  0  0  0  0  0  0
   26.9046  -33.6146   -6.9592 C   0  0  0  0  0  0  0  0  0  0  0  0
   26.2643  -32.5926   -7.8653 C   0  0  0  0  0  0  0  0  0  0  0  0
   25.0079  -33.1460   -8.5154 C   0  0  2  0  0  0  0  0  0  0  0  0
   24.3940  -32.1743   -9.3982 N   0  0  0  0  0  0  0  0  0  0  0  0
   24.0436  -33.5419   -7.4826 C   0  0  0  0  0  0  0  0  0  0  0  0
   23.2195  -32.7328   -6.9588 O   0  0  0  0  0  0  0  0  0  0  0  0
   24.0078  -34.8489   -7.0397 O   0  0  0  0  0  0  0  0  0  0  0  0
  2  1  1  0
  3  2  2  0
  4  2  1  0
  5  6  1  6
  5  4  1  0
  7  5  1  0
  8  7  2  0
  9 10  1  0
 11 10  1  0
 11 13  1  0
 11 12  1  1
 13 14  1  6
 14  7  1  0
 15 13  1  0
 15 16  2  0
 18 17  1  0
 19 18  1  0
 20 19  1  0
 21 20  1  1
 22 21  1  0
 22 15  1  0
 23 21  1  0
 24 23  2  0
 25 23  1  0
M  END
$$$$
