NIM.pdb
     RDKit          3D

 25 24  0  0  1  0  0  0  0  0999 V2000
   29.0933  -19.0052  -16.6136 N   0  0  0  0  0  0  0  0  0  0  0  0
   27.7041  -18.8655  -16.7693 C   0  0  0  0  0  0  0  0  0  0  0  0
   27.2482  -18.0565  -17.5928 O   0  0  0  0  0  0  0  0  0  0  0  0
   26.8021  -19.6848  -15.9490 C   0  0  0  0  0  0  0  0  0  0  0  0
   27.4498  -20.6050  -14.9812 C   0  0  2  0  0  0  0  0  0  0  0  0
   28.2446  -21.6331  -15.5475 N   0  0  0  0  0  0  0  0  0  0  0  0
   26.3869  -21.1463  -14.0903 C   0  0  0  0  0  0  0  0  0  0  0  0
   25.7801  -22.1957  -14.4154 O   0  0  0  0  0  0  0  0  0  0  0  0
   26.8712  -20.5260   -8.7265 C   0  0  0  0  0  0  0  0  0  0  0  0
   26.4976  -21.1661  -10.0274 C   0  0  0  0  0  0  0  0  0  0  0  0
   25.2656  -20.6032  -10.6445 C   0  0  2  0  0  0  0  0  0  0  0  0
   24.1360  -20.8068   -9.6576 C   0  0  0  0  0  0  0  0  0  0  0  0
   24.9244  -21.0579  -12.0198 C   0  0  2  0  0  0  0  0  0  0  0  0
   26.0201  -20.5215  -12.8691 N   0  0  0  0  0  0  0  0  0  0  0  0
   23.6369  -20.6220  -12.5561 C   0  0  0  0  0  0  0  0  0  0  0  0
   23.4310  -19.3718  -12.7399 O   0  0  0  0  0  0  0  0  0  0  0  0
   19.7617  -23.1008  -17.2727 C   0  0  0  0  0  0  0  0  0  0  0  0
   18.5632  -22.6393  -15.9673 S   0  0  0  0  0  0  0  0  0  0  0  0
   19.3139  -21.4260  -14.8492 C   0  0  0  0  0  0  0  0  0  0  0  0
   20.6501  -21.9370  -14.3706 C   0  0  0  0  0  0  0  0  0  0  0  0
   21.3158  -20.9414  -13.4362 C   0  0  2  0  0  0  0  0  0  0  0  0
   22.5614  -21.4599  -12.9072 N   0  0  0  0  0  0  0  0  0  0  0  0
   20.4131  -20.6179  -12.3255 C   0  0  0  0  0  0  0  0  0  0  0  0
   20.3646  -21.2941  -11.2537 O   0  0  0  0  0  0  0  0  0  0  0  0
   19.5651  -19.5329  -12.4220 O   0  0  0  0  0  0  0  0  0  0  0  0
  2  1  1  0
  3  2  2  0
  4  2  1  0
  5  6  1  6
  5  4  1  0
  7  5  1  0
  8  7  2  0
  9 10  1  0
 11 10  1  0
 11 13  1  0
 11 12  1  1
 13 14  1  6
 14  7  1  0
 15 13  1  0
 15 16  2  0
 18 17  1  0
 19 18  1  0
 20 19  1  0
 21 20  1  6
 22 21  1  0
 22 15  1  0
 23 21  1  0
 24 23  2  0
 25 23  1  0
M  END
$$$$
