NIM.pdb
     RDKit          3D

 25 24  0  0  1  0  0  0  0  0999 V2000
   18.8857  -22.0841  -11.4835 N   0  0  0  0  0  0  0  0  0  0  0  0
   19.8626  -22.9491  -12.0041 C   0  0  0  0  0  0  0  0  0  0  0  0
   20.2213  -23.9450  -11.3560 O   0  0  0  0  0  0  0  0  0  0  0  0
   20.4515  -22.6616  -13.3188 C   0  0  0  0  0  0  0  0  0  0  0  0
   20.0040  -21.4094  -13.9782 C   0  0  2  0  0  0  0  0  0  0  0  0
   18.6465  -21.3798  -14.3850 N   0  0  0  0  0  0  0  0  0  0  0  0
   20.9330  -21.1366  -15.1092 C   0  0  0  0  0  0  0  0  0  0  0  0
   20.7512  -21.7065  -16.2125 O   0  0  0  0  0  0  0  0  0  0  0  0
   21.3439  -16.5136  -17.0694 C   0  0  0  0  0  0  0  0  0  0  0  0
   21.4373  -18.0002  -16.9176 C   0  0  0  0  0  0  0  0  0  0  0  0
   22.7375  -18.4695  -16.3655 C   0  0  2  0  0  0  0  0  0  0  0  0
   23.8319  -17.8639  -17.2183 C   0  0  0  0  0  0  0  0  0  0  0  0
   22.9021  -19.9346  -16.1634 C   0  0  2  0  0  0  0  0  0  0  0  0
   22.0340  -20.2469  -14.9978 N   0  0  0  0  0  0  0  0  0  0  0  0
   24.2574  -20.4141  -15.9014 C   0  0  0  0  0  0  0  0  0  0  0  0
   24.8909  -19.9628  -14.8846 O   0  0  0  0  0  0  0  0  0  0  0  0
   26.8419  -26.2828  -15.9575 C   0  0  0  0  0  0  0  0  0  0  0  0
   28.2678  -25.3316  -16.6023 S   0  0  0  0  0  0  0  0  0  0  0  0
   28.0144  -23.5638  -16.2917 C   0  0  0  0  0  0  0  0  0  0  0  0
   26.5735  -23.2045  -16.5566 C   0  0  0  0  0  0  0  0  0  0  0  0
   26.3404  -21.7126  -16.3903 C   0  0  2  0  0  0  0  0  0  0  0  0
   24.9650  -21.3547  -16.6738 N   0  0  0  0  0  0  0  0  0  0  0  0
   27.2316  -20.9648  -17.2845 C   0  0  0  0  0  0  0  0  0  0  0  0
   28.4288  -20.6742  -16.9838 O   0  0  0  0  0  0  0  0  0  0  0  0
   26.7743  -20.5444  -18.5173 O   0  0  0  0  0  0  0  0  0  0  0  0
  2  1  1  0
  3  2  2  0
  4  2  1  0
  5  6  1  6
  5  4  1  0
  7  5  1  0
  8  7  2  0
  9 10  1  0
 11 10  1  0
 11 13  1  0
 11 12  1  6
 13 14  1  1
 14  7  1  0
 15 13  1  0
 15 16  2  0
 18 17  1  0
 19 18  1  0
 20 19  1  0
 21 20  1  6
 22 21  1  0
 22 15  1  0
 23 21  1  0
 24 23  2  0
 25 23  1  0
M  END
$$$$
