NIM.pdb
     RDKit          3D

 25 24  0  0  1  0  0  0  0  0999 V2000
   17.0083  -15.4249  -19.0917 N   0  0  0  0  0  0  0  0  0  0  0  0
   17.3710  -14.8814  -17.8480 C   0  0  0  0  0  0  0  0  0  0  0  0
   16.7964  -15.2560  -16.8136 O   0  0  0  0  0  0  0  0  0  0  0  0
   18.4337  -13.8691  -17.7874 C   0  0  0  0  0  0  0  0  0  0  0  0
   19.1332  -13.5753  -19.0631 C   0  0  2  0  0  0  0  0  0  0  0  0
   19.9825  -14.6009  -19.5491 N   0  0  0  0  0  0  0  0  0  0  0  0
   19.8547  -12.2836  -18.8967 C   0  0  0  0  0  0  0  0  0  0  0  0
   21.0469  -12.2851  -18.5048 O   0  0  0  0  0  0  0  0  0  0  0  0
   18.7389   -9.0793  -22.4312 C   0  0  0  0  0  0  0  0  0  0  0  0
   19.8636   -9.1266  -21.4441 C   0  0  0  0  0  0  0  0  0  0  0  0
   19.4463   -8.8561  -20.0411 C   0  0  2  0  0  0  0  0  0  0  0  0
   19.7131   -7.3912  -19.7681 C   0  0  0  0  0  0  0  0  0  0  0  0
   19.9895   -9.7523  -18.9846 C   0  0  2  0  0  0  0  0  0  0  0  0
   19.2481  -11.0280  -19.1647 N   0  0  0  0  0  0  0  0  0  0  0  0
   19.8486   -9.3000  -17.6022 C   0  0  0  0  0  0  0  0  0  0  0  0
   18.6877   -9.3033  -17.0623 O   0  0  0  0  0  0  0  0  0  0  0  0
   21.9811   -9.7993  -10.2128 C   0  0  0  0  0  0  0  0  0  0  0  0
   22.3934  -10.0685  -11.9766 S   0  0  0  0  0  0  0  0  0  0  0  0
   21.3457   -9.0170  -13.0170 C   0  0  0  0  0  0  0  0  0  0  0  0
   21.5955   -9.3333  -14.4706 C   0  0  0  0  0  0  0  0  0  0  0  0
   20.6812   -8.5231  -15.3735 C   0  0  2  0  0  0  0  0  0  0  0  0
   20.8903   -8.8474  -16.7705 N   0  0  0  0  0  0  0  0  0  0  0  0
   20.9169   -7.0896  -15.1666 C   0  0  0  0  0  0  0  0  0  0  0  0
   21.6606   -6.3944  -15.9228 O   0  0  0  0  0  0  0  0  0  0  0  0
   20.3150   -6.4393  -14.1081 O   0  0  0  0  0  0  0  0  0  0  0  0
  2  1  1  0
  3  2  2  0
  4  2  1  0
  5  6  1  1
  5  4  1  0
  7  5  1  0
  8  7  2  0
  9 10  1  0
 11 10  1  0
 11 13  1  0
 11 12  1  1
 13 14  1  1
 14  7  1  0
 15 13  1  0
 15 16  2  0
 18 17  1  0
 19 18  1  0
 20 19  1  0
 21 20  1  1
 22 21  1  0
 22 15  1  0
 23 21  1  0
 24 23  2  0
 25 23  1  0
M  END
$$$$
