NIM.pdb
     RDKit          3D

 25 24  0  0  1  0  0  0  0  0999 V2000
   28.2259  -16.4257  -16.8766 N   0  0  0  0  0  0  0  0  0  0  0  0
   28.0265  -15.7970  -15.6362 C   0  0  0  0  0  0  0  0  0  0  0  0
   28.6201  -14.7396  -15.3717 O   0  0  0  0  0  0  0  0  0  0  0  0
   27.1110  -16.4038  -14.6608 C   0  0  0  0  0  0  0  0  0  0  0  0
   26.4217  -17.6454  -15.0924 C   0  0  2  0  0  0  0  0  0  0  0  0
   25.4969  -17.4972  -16.1565 N   0  0  0  0  0  0  0  0  0  0  0  0
   25.7955  -18.2574  -13.8883 C   0  0  0  0  0  0  0  0  0  0  0  0
   24.6726  -17.8532  -13.4999 O   0  0  0  0  0  0  0  0  0  0  0  0
   24.3098  -22.6097  -14.8533 C   0  0  0  0  0  0  0  0  0  0  0  0
   24.5088  -21.3058  -14.1448 C   0  0  0  0  0  0  0  0  0  0  0  0
   25.3885  -21.3982  -12.9477 C   0  0  2  0  0  0  0  0  0  0  0  0
   24.8423  -22.5071  -12.0738 C   0  0  0  0  0  0  0  0  0  0  0  0
   25.6488  -20.1407  -12.1956 C   0  0  2  0  0  0  0  0  0  0  0  0
   26.4184  -19.2946  -13.1451 N   0  0  0  0  0  0  0  0  0  0  0  0
   26.3924  -20.2650  -10.9438 C   0  0  0  0  0  0  0  0  0  0  0  0
   27.5502  -20.8113  -10.9600 O   0  0  0  0  0  0  0  0  0  0  0  0
   29.8948  -18.9442   -5.0259 C   0  0  0  0  0  0  0  0  0  0  0  0
   28.0678  -18.8264   -5.0641 S   0  0  0  0  0  0  0  0  0  0  0  0
   27.3973  -20.0824   -6.1861 C   0  0  0  0  0  0  0  0  0  0  0  0
   26.9381  -19.4263   -7.4645 C   0  0  0  0  0  0  0  0  0  0  0  0
   26.4053  -20.4539   -8.4482 C   0  0  2  0  0  0  0  0  0  0  0  0
   25.9572  -19.8306   -9.6774 N   0  0  0  0  0  0  0  0  0  0  0  0
   25.2913  -21.1935   -7.8439 C   0  0  0  0  0  0  0  0  0  0  0  0
   24.0849  -21.0442   -8.2050 O   0  0  0  0  0  0  0  0  0  0  0  0
   25.5362  -22.1012   -6.8331 O   0  0  0  0  0  0  0  0  0  0  0  0
  2  1  1  0
  3  2  2  0
  4  2  1  0
  5  6  1  6
  5  4  1  0
  7  5  1  0
  8  7  2  0
  9 10  1  0
 11 10  1  0
 11 13  1  0
 11 12  1  1
 13 14  1  6
 14  7  1  0
 15 13  1  0
 15 16  2  0
 18 17  1  0
 19 18  1  0
 20 19  1  0
 21 20  1  1
 22 21  1  0
 22 15  1  0
 23 21  1  0
 24 23  2  0
 25 23  1  0
M  END
$$$$
