NIM.pdb
     RDKit          3D

 25 24  0  0  1  0  0  0  0  0999 V2000
   29.3325  -19.3246  -16.7731 N   0  0  0  0  0  0  0  0  0  0  0  0
   27.9734  -19.0005  -16.9195 C   0  0  0  0  0  0  0  0  0  0  0  0
   27.6285  -18.1029  -17.7042 O   0  0  0  0  0  0  0  0  0  0  0  0
   26.9703  -19.7338  -16.1360 C   0  0  0  0  0  0  0  0  0  0  0  0
   27.4928  -20.7490  -15.1876 C   0  0  2  0  0  0  0  0  0  0  0  0
   28.1933  -21.8338  -15.7723 N   0  0  0  0  0  0  0  0  0  0  0  0
   26.3553  -21.2076  -14.3435 C   0  0  0  0  0  0  0  0  0  0  0  0
   25.7144  -22.2355  -14.6716 O   0  0  0  0  0  0  0  0  0  0  0  0
   26.9263  -20.6905   -9.0559 C   0  0  0  0  0  0  0  0  0  0  0  0
   26.5075  -21.2541  -10.3783 C   0  0  0  0  0  0  0  0  0  0  0  0
   25.2595  -20.6524  -10.9223 C   0  0  2  0  0  0  0  0  0  0  0  0
   24.1665  -20.8862   -9.9014 C   0  0  0  0  0  0  0  0  0  0  0  0
   24.8600  -21.0441  -12.3013 C   0  0  2  0  0  0  0  0  0  0  0  0
   25.9537  -20.5259  -13.1644 N   0  0  0  0  0  0  0  0  0  0  0  0
   23.5781  -20.5350  -12.7841 C   0  0  0  0  0  0  0  0  0  0  0  0
   23.4217  -19.2715  -12.9185 O   0  0  0  0  0  0  0  0  0  0  0  0
   19.8825  -23.3217  -17.0137 C   0  0  0  0  0  0  0  0  0  0  0  0
   18.7047  -21.9737  -16.6275 S   0  0  0  0  0  0  0  0  0  0  0  0
   19.3555  -20.9629  -15.2708 C   0  0  0  0  0  0  0  0  0  0  0  0
   20.6623  -21.5425  -14.7891 C   0  0  0  0  0  0  0  0  0  0  0  0
   21.2351  -20.7268  -13.6427 C   0  0  2  0  0  0  0  0  0  0  0  0
   22.4579  -21.3135  -13.1321 N   0  0  0  0  0  0  0  0  0  0  0  0
   20.2519  -20.6306  -12.5577 C   0  0  0  0  0  0  0  0  0  0  0  0
   20.1589  -21.4902  -11.6299 O   0  0  0  0  0  0  0  0  0  0  0  0
   19.3735  -19.5665  -12.5178 O   0  0  0  0  0  0  0  0  0  0  0  0
  2  1  1  0
  3  2  2  0
  4  2  1  0
  5  6  1  6
  5  4  1  0
  7  5  1  0
  8  7  2  0
  9 10  1  0
 11 10  1  0
 11 13  1  0
 11 12  1  1
 13 14  1  6
 14  7  1  0
 15 13  1  0
 15 16  2  0
 18 17  1  0
 19 18  1  0
 20 19  1  0
 21 20  1  6
 22 21  1  0
 22 15  1  0
 23 21  1  0
 24 23  2  0
 25 23  1  0
M  END
$$$$
