LPN.pdb
     RDKit          3D

 24 24  0  0  1  0  0  0  0  0999 V2000
    5.4182  -15.3431   20.7390 C   0  0  0  0  0  0  0  0  0  0  0  0
    6.5395  -16.2062   21.3134 C   0  0  2  0  0  0  0  0  0  0  0  0
    5.9907  -17.6103   21.4351 C   0  0  0  0  0  0  0  0  0  0  0  0
    6.8710  -15.7087   22.6817 C   0  0  0  0  0  0  0  0  0  0  0  0
    7.5139  -14.3338   22.6565 C   0  0  2  0  0  0  0  0  0  0  0  0
    8.2777  -14.2643   21.4015 N   0  0  0  0  0  0  0  0  0  0  0  0
    8.4388  -14.2260   23.8143 C   0  0  0  0  0  0  0  0  0  0  0  0
    9.6855  -14.3810   23.5685 O   0  0  0  0  0  0  0  0  0  0  0  0
    8.0533  -13.9670   25.1436 N   0  0  0  0  0  0  0  0  0  0  0  0
    6.7103  -13.8154   25.6089 C   0  0  0  0  0  0  0  0  0  0  0  0
    6.8293  -12.7975   26.7178 C   0  0  0  0  0  0  0  0  0  0  0  0
    8.2842  -12.6897   27.0410 C   0  0  0  0  0  0  0  0  0  0  0  0
    8.9332  -13.8374   26.2616 C   0  0  1  0  0  0  0  0  0  0  0  0
    9.0973  -15.0535   27.0723 C   0  0  0  0  0  0  0  0  0  0  0  0
    8.0351  -15.7083   27.3372 O   0  0  0  0  0  0  0  0  0  0  0  0
   11.6254  -18.5695   25.5059 N   0  0  0  0  0  0  0  0  0  0  0  0
   12.0161  -17.4154   26.2833 C   0  0  0  0  0  0  0  0  0  0  0  0
   12.5212  -16.4536   25.6344 O   0  0  0  0  0  0  0  0  0  0  0  0
   11.8180  -17.4040   27.7487 C   0  0  0  0  0  0  0  0  0  0  0  0
   10.4669  -16.8675   28.1421 C   0  0  2  0  0  0  0  0  0  0  0  0
   10.3101  -15.5379   27.5680 N   0  0  0  0  0  0  0  0  0  0  0  0
   10.4569  -16.7859   29.6367 C   0  0  0  0  0  0  0  0  0  0  0  0
   10.4348  -15.6568   30.2029 O   0  0  0  0  0  0  0  0  0  0  0  0
   10.4711  -17.8999   30.4612 O   0  0  0  0  0  0  0  0  0  0  0  0
  2  1  1  1
  3  2  1  0
  4  5  1  0
  4  2  1  0
  5  7  1  0
  5  6  1  6
  7  9  1  0
  7  8  2  0
  9 10  1  0
 10 11  1  0
 12 11  1  0
 13  9  1  0
 13 12  1  0
 14 15  2  0
 13 14  1  1
 16 17  1  0
 17 18  2  0
 17 19  1  0
 20 19  1  1
 20 21  1  0
 20 22  1  0
 21 14  1  0
 22 24  1  0
 23 22  2  0
M  END
$$$$
