LPN.pdb
     RDKit          3D

 24 24  0  0  1  0  0  0  0  0999 V2000
    8.8250  -13.2698   27.3843 C   0  0  0  0  0  0  0  0  0  0  0  0
    7.8411  -13.6500   26.2799 C   0  0  2  0  0  0  0  0  0  0  0  0
    6.9035  -12.4758   26.1076 C   0  0  0  0  0  0  0  0  0  0  0  0
    7.0442  -14.8276   26.7359 C   0  0  0  0  0  0  0  0  0  0  0  0
    6.1143  -15.3492   25.6555 C   0  0  2  0  0  0  0  0  0  0  0  0
    5.2543  -16.3493   26.3061 N   0  0  0  0  0  0  0  0  0  0  0  0
    6.9356  -16.0012   24.6029 C   0  0  0  0  0  0  0  0  0  0  0  0
    7.0548  -17.2737   24.6749 O   0  0  0  0  0  0  0  0  0  0  0  0
    7.5821  -15.3345   23.5444 N   0  0  0  0  0  0  0  0  0  0  0  0
    7.8197  -13.9273   23.4653 C   0  0  0  0  0  0  0  0  0  0  0  0
    7.7124  -13.6295   21.9889 C   0  0  0  0  0  0  0  0  0  0  0  0
    7.7593  -14.9469   21.2854 C   0  0  0  0  0  0  0  0  0  0  0  0
    8.1361  -15.9497   22.3801 C   0  0  1  0  0  0  0  0  0  0  0  0
    9.5825  -16.2100   22.4388 C   0  0  0  0  0  0  0  0  0  0  0  0
   10.1701  -16.4114   21.3247 O   0  0  0  0  0  0  0  0  0  0  0  0
   13.1645  -17.3191   21.3256 N   0  0  0  0  0  0  0  0  0  0  0  0
   13.2495  -15.9315   21.7209 C   0  0  0  0  0  0  0  0  0  0  0  0
   13.9824  -15.1927   21.0011 O   0  0  0  0  0  0  0  0  0  0  0  0
   12.5059  -15.4485   22.9043 C   0  0  0  0  0  0  0  0  0  0  0  0
   11.7748  -16.5565   23.6155 C   0  0  2  0  0  0  0  0  0  0  0  0
   10.3499  -16.2542   23.6052 N   0  0  0  0  0  0  0  0  0  0  0  0
   12.2860  -16.5733   25.0223 C   0  0  0  0  0  0  0  0  0  0  0  0
   11.5387  -16.1890   25.9656 O   0  0  0  0  0  0  0  0  0  0  0  0
   13.5611  -16.9944   25.3652 O   0  0  0  0  0  0  0  0  0  0  0  0
  2  1  1  1
  3  2  1  0
  4  5  1  0
  4  2  1  0
  5  7  1  0
  5  6  1  1
  7  9  1  0
  7  8  2  0
  9 10  1  0
 10 11  1  0
 12 11  1  0
 13  9  1  0
 13 12  1  0
 14 15  2  0
 13 14  1  1
 16 17  1  0
 17 18  2  0
 17 19  1  0
 20 19  1  6
 20 21  1  0
 20 22  1  0
 21 14  1  0
 22 24  1  0
 23 22  2  0
M  END
$$$$
