LPN.pdb
     RDKit          3D

 24 24  0  0  1  0  0  0  0  0999 V2000
    2.9566  -18.1498   20.0997 C   0  0  0  0  0  0  0  0  0  0  0  0
    4.1877  -18.8899   20.6183 C   0  0  2  0  0  0  0  0  0  0  0  0
    3.8148  -19.4663   21.9659 C   0  0  0  0  0  0  0  0  0  0  0  0
    5.2899  -17.9019   20.8160 C   0  0  0  0  0  0  0  0  0  0  0  0
    5.8861  -17.4309   19.5020 C   0  0  2  0  0  0  0  0  0  0  0  0
    6.0400  -18.6340   18.6700 N   0  0  0  0  0  0  0  0  0  0  0  0
    7.2197  -16.8363   19.7771 C   0  0  0  0  0  0  0  0  0  0  0  0
    8.2387  -17.5527   19.4822 O   0  0  0  0  0  0  0  0  0  0  0  0
    7.4446  -15.5602   20.3281 N   0  0  0  0  0  0  0  0  0  0  0  0
    6.4332  -14.6201   20.6973 C   0  0  0  0  0  0  0  0  0  0  0  0
    7.0674  -13.2809   20.4071 C   0  0  0  0  0  0  0  0  0  0  0  0
    8.5269  -13.5353   20.2129 C   0  0  0  0  0  0  0  0  0  0  0  0
    8.7189  -14.9939   20.6388 C   0  0  1  0  0  0  0  0  0  0  0  0
    9.1360  -15.1257   22.0430 C   0  0  0  0  0  0  0  0  0  0  0  0
    8.2044  -15.2726   22.9018 O   0  0  0  0  0  0  0  0  0  0  0  0
   12.0525  -18.2152   24.8837 N   0  0  0  0  0  0  0  0  0  0  0  0
   11.4264  -18.5330   23.6204 C   0  0  0  0  0  0  0  0  0  0  0  0
   11.3973  -19.7587   23.3075 O   0  0  0  0  0  0  0  0  0  0  0  0
   10.8664  -17.4557   22.7761 C   0  0  0  0  0  0  0  0  0  0  0  0
   11.0065  -16.0969   23.4101 C   0  0  2  0  0  0  0  0  0  0  0  0
   10.4555  -15.1011   22.5008 N   0  0  0  0  0  0  0  0  0  0  0  0
   12.4725  -15.8623   23.6012 C   0  0  0  0  0  0  0  0  0  0  0  0
   13.2091  -15.6469   22.5978 O   0  0  0  0  0  0  0  0  0  0  0  0
   13.0899  -15.8668   24.8420 O   0  0  0  0  0  0  0  0  0  0  0  0
  2  1  1  1
  3  2  1  0
  4  5  1  0
  4  2  1  0
  5  7  1  0
  5  6  1  6
  7  9  1  0
  7  8  2  0
  9 10  1  0
 10 11  1  0
 12 11  1  0
 13  9  1  0
 13 12  1  0
 14 15  2  0
 13 14  1  1
 16 17  1  0
 17 18  2  0
 17 19  1  0
 20 19  1  6
 20 21  1  0
 20 22  1  0
 21 14  1  0
 22 24  1  0
 23 22  2  0
M  END
$$$$
