LPN.pdb
     RDKit          3D

 24 24  0  0  1  0  0  0  0  0999 V2000
    7.3321  -12.8360   25.9798 C   0  0  0  0  0  0  0  0  0  0  0  0
    7.3263  -13.7385   27.2117 C   0  0  2  0  0  0  0  0  0  0  0  0
    8.3599  -13.1820   28.1654 C   0  0  0  0  0  0  0  0  0  0  0  0
    7.7528  -15.1093   26.8006 C   0  0  0  0  0  0  0  0  0  0  0  0
    6.7489  -15.7737   25.8760 C   0  0  2  0  0  0  0  0  0  0  0  0
    6.1889  -16.9061   26.6292 N   0  0  0  0  0  0  0  0  0  0  0  0
    7.4723  -16.2750   24.6789 C   0  0  0  0  0  0  0  0  0  0  0  0
    7.7229  -17.5299   24.6443 O   0  0  0  0  0  0  0  0  0  0  0  0
    7.8952  -15.4852   23.5927 N   0  0  0  0  0  0  0  0  0  0  0  0
    7.8034  -14.0613   23.5100 C   0  0  0  0  0  0  0  0  0  0  0  0
    7.5551  -13.8040   22.0431 C   0  0  0  0  0  0  0  0  0  0  0  0
    7.8629  -15.0804   21.3299 C   0  0  0  0  0  0  0  0  0  0  0  0
    8.5132  -15.9655   22.3974 C   0  0  1  0  0  0  0  0  0  0  0  0
    9.9820  -15.8909   22.3797 C   0  0  0  0  0  0  0  0  0  0  0  0
   10.5174  -15.0296   23.1534 O   0  0  0  0  0  0  0  0  0  0  0  0
   13.2608  -20.3661   22.7923 N   0  0  0  0  0  0  0  0  0  0  0  0
   13.3800  -19.4026   21.7217 C   0  0  0  0  0  0  0  0  0  0  0  0
   14.5310  -19.2794   21.2107 O   0  0  0  0  0  0  0  0  0  0  0  0
   12.1987  -18.6289   21.2825 C   0  0  0  0  0  0  0  0  0  0  0  0
   11.9769  -17.3951   22.1171 C   0  0  2  0  0  0  0  0  0  0  0  0
   10.8227  -16.6794   21.5904 N   0  0  0  0  0  0  0  0  0  0  0  0
   13.2087  -16.5563   21.9777 C   0  0  0  0  0  0  0  0  0  0  0  0
   14.2524  -16.8633   22.6199 O   0  0  0  0  0  0  0  0  0  0  0  0
   13.2792  -15.4339   21.1676 O   0  0  0  0  0  0  0  0  0  0  0  0
  2  1  1  6
  3  2  1  0
  4  5  1  0
  4  2  1  0
  5  7  1  0
  5  6  1  1
  7  9  1  0
  7  8  2  0
  9 10  1  0
 10 11  1  0
 12 11  1  0
 13  9  1  0
 13 12  1  0
 14 15  2  0
 13 14  1  1
 16 17  1  0
 17 18  2  0
 17 19  1  0
 20 19  1  6
 20 21  1  0
 20 22  1  0
 21 14  1  0
 22 24  1  0
 23 22  2  0
M  END
$$$$
