LPN.pdb
     RDKit          3D

 24 24  0  0  1  0  0  0  0  0999 V2000
    8.3046  -12.8028   26.9542 C   0  0  0  0  0  0  0  0  0  0  0  0
    7.2778  -13.4937   26.0594 C   0  0  2  0  0  0  0  0  0  0  0  0
    6.0013  -12.6886   26.1577 C   0  0  0  0  0  0  0  0  0  0  0  0
    7.0167  -14.8607   26.6007 C   0  0  0  0  0  0  0  0  0  0  0  0
    6.4493  -15.7990   25.5511 C   0  0  2  0  0  0  0  0  0  0  0  0
    6.0535  -17.0207   26.2680 N   0  0  0  0  0  0  0  0  0  0  0  0
    7.5227  -16.1154   24.5737 C   0  0  0  0  0  0  0  0  0  0  0  0
    8.1734  -17.2005   24.7681 O   0  0  0  0  0  0  0  0  0  0  0  0
    7.8722  -15.3237   23.4629 N   0  0  0  0  0  0  0  0  0  0  0  0
    7.3230  -14.0431   23.1444 C   0  0  0  0  0  0  0  0  0  0  0  0
    7.3177  -14.0222   21.6347 C   0  0  0  0  0  0  0  0  0  0  0  0
    8.1828  -15.1570   21.1912 C   0  0  0  0  0  0  0  0  0  0  0  0
    8.8537  -15.6492   22.4771 C   0  0  1  0  0  0  0  0  0  0  0  0
   10.1789  -15.0487   22.6924 C   0  0  0  0  0  0  0  0  0  0  0  0
   10.2058  -13.9409   23.3242 O   0  0  0  0  0  0  0  0  0  0  0  0
   13.5621  -16.6161   26.0060 N   0  0  0  0  0  0  0  0  0  0  0  0
   13.0721  -17.5188   24.9892 C   0  0  0  0  0  0  0  0  0  0  0  0
   13.5937  -18.6715   24.9715 O   0  0  0  0  0  0  0  0  0  0  0  0
   12.0217  -17.0774   24.0464 C   0  0  0  0  0  0  0  0  0  0  0  0
   12.4780  -15.9427   23.1677 C   0  0  2  0  0  0  0  0  0  0  0  0
   11.3924  -15.5909   22.2624 N   0  0  0  0  0  0  0  0  0  0  0  0
   13.6520  -16.4490   22.3892 C   0  0  0  0  0  0  0  0  0  0  0  0
   13.4918  -17.3730   21.5428 O   0  0  0  0  0  0  0  0  0  0  0  0
   14.9382  -15.9558   22.5421 O   0  0  0  0  0  0  0  0  0  0  0  0
  2  1  1  1
  3  2  1  0
  4  5  1  0
  4  2  1  0
  5  7  1  0
  5  6  1  1
  7  9  1  0
  7  8  2  0
  9 10  1  0
 10 11  1  0
 12 11  1  0
 13  9  1  0
 13 12  1  0
 14 15  2  0
 13 14  1  1
 16 17  1  0
 17 18  2  0
 17 19  1  0
 20 19  1  1
 20 21  1  0
 20 22  1  0
 21 14  1  0
 22 24  1  0
 23 22  2  0
M  END
$$$$
