LPN.pdb
     RDKit          3D

 24 24  0  0  1  0  0  0  0  0999 V2000
    6.6069  -12.9568   20.2466 C   0  0  0  0  0  0  0  0  0  0  0  0
    7.1169  -14.3594   20.5705 C   0  0  2  0  0  0  0  0  0  0  0  0
    5.9864  -15.3164   20.2645 C   0  0  0  0  0  0  0  0  0  0  0  0
    7.4149  -14.4326   22.0320 C   0  0  0  0  0  0  0  0  0  0  0  0
    8.5140  -13.4712   22.4463 C   0  0  2  0  0  0  0  0  0  0  0  0
    9.5501  -13.5645   21.4067 N   0  0  0  0  0  0  0  0  0  0  0  0
    9.0672  -13.9229   23.7492 C   0  0  0  0  0  0  0  0  0  0  0  0
   10.2481  -14.4167   23.7304 O   0  0  0  0  0  0  0  0  0  0  0  0
    8.4008  -13.8476   24.9873 N   0  0  0  0  0  0  0  0  0  0  0  0
    7.0153  -13.5491   25.1729 C   0  0  0  0  0  0  0  0  0  0  0  0
    6.9855  -12.7887   26.4770 C   0  0  0  0  0  0  0  0  0  0  0  0
    8.3162  -13.0004   27.1227 C   0  0  0  0  0  0  0  0  0  0  0  0
    8.9853  -14.0823   26.2696 C   0  0  1  0  0  0  0  0  0  0  0  0
    8.7857  -15.4358   26.8094 C   0  0  0  0  0  0  0  0  0  0  0  0
    7.5818  -15.8530   26.8685 O   0  0  0  0  0  0  0  0  0  0  0  0
   11.8703  -17.7021   25.2258 N   0  0  0  0  0  0  0  0  0  0  0  0
   10.6298  -18.2840   25.6857 C   0  0  0  0  0  0  0  0  0  0  0  0
    9.7516  -18.4926   24.7990 O   0  0  0  0  0  0  0  0  0  0  0  0
   10.4428  -18.6003   27.1182 C   0  0  0  0  0  0  0  0  0  0  0  0
    9.5486  -17.6083   27.8140 C   0  0  2  0  0  0  0  0  0  0  0  0
    9.7998  -16.2860   27.2569 N   0  0  0  0  0  0  0  0  0  0  0  0
    9.9246  -17.6350   29.2626 C   0  0  0  0  0  0  0  0  0  0  0  0
   10.4819  -16.6286   29.7845 O   0  0  0  0  0  0  0  0  0  0  0  0
    9.6944  -18.7228   30.0901 O   0  0  0  0  0  0  0  0  0  0  0  0
  2  1  1  1
  3  2  1  0
  4  5  1  0
  4  2  1  0
  5  7  1  0
  5  6  1  6
  7  9  1  0
  7  8  2  0
  9 10  1  0
 10 11  1  0
 12 11  1  0
 13  9  1  0
 13 12  1  0
 14 15  2  0
 13 14  1  1
 16 17  1  0
 17 18  2  0
 17 19  1  0
 20 19  1  6
 20 21  1  0
 20 22  1  0
 21 14  1  0
 22 24  1  0
 23 22  2  0
M  END
$$$$
