LPN.pdb
     RDKit          3D

 24 24  0  0  1  0  0  0  0  0999 V2000
    8.0341  -11.9848   20.2523 C   0  0  0  0  0  0  0  0  0  0  0  0
    7.5873  -13.4444   20.2969 C   0  0  2  0  0  0  0  0  0  0  0  0
    6.1898  -13.4909   19.7204 C   0  0  0  0  0  0  0  0  0  0  0  0
    7.5242  -13.8805   21.7237 C   0  0  0  0  0  0  0  0  0  0  0  0
    8.8876  -13.8734   22.3907 C   0  0  2  0  0  0  0  0  0  0  0  0
    9.7787  -14.6374   21.5044 N   0  0  0  0  0  0  0  0  0  0  0  0
    8.7728  -14.5619   23.7024 C   0  0  0  0  0  0  0  0  0  0  0  0
    9.4640  -15.6288   23.8524 O   0  0  0  0  0  0  0  0  0  0  0  0
    7.9738  -14.1337   24.7799 N   0  0  0  0  0  0  0  0  0  0  0  0
    6.9210  -13.1697   24.7072 C   0  0  0  0  0  0  0  0  0  0  0  0
    6.9816  -12.4731   26.0455 C   0  0  0  0  0  0  0  0  0  0  0  0
    7.8448  -13.3178   26.9253 C   0  0  0  0  0  0  0  0  0  0  0  0
    8.0576  -14.6066   26.1255 C   0  0  1  0  0  0  0  0  0  0  0  0
    7.0943  -15.6603   26.4789 C   0  0  0  0  0  0  0  0  0  0  0  0
    6.0543  -15.2895   27.1176 O   0  0  0  0  0  0  0  0  0  0  0  0
   10.7057  -18.4829   24.0396 N   0  0  0  0  0  0  0  0  0  0  0  0
   10.4039  -18.4642   25.4529 C   0  0  0  0  0  0  0  0  0  0  0  0
   10.8578  -19.4315   26.1308 O   0  0  0  0  0  0  0  0  0  0  0  0
    9.6078  -17.3591   26.0288 C   0  0  0  0  0  0  0  0  0  0  0  0
    8.3287  -17.8407   26.6610 C   0  0  2  0  0  0  0  0  0  0  0  0
    7.2308  -17.0167   26.1738 N   0  0  0  0  0  0  0  0  0  0  0  0
    8.4876  -17.6629   28.1388 C   0  0  0  0  0  0  0  0  0  0  0  0
    8.6632  -16.5064   28.6159 O   0  0  0  0  0  0  0  0  0  0  0  0
    8.4540  -18.7142   29.0412 O   0  0  0  0  0  0  0  0  0  0  0  0
  2  1  1  1
  3  2  1  0
  4  5  1  0
  4  2  1  0
  5  7  1  0
  5  6  1  6
  7  9  1  0
  7  8  2  0
  9 10  1  0
 10 11  1  0
 12 11  1  0
 13  9  1  0
 13 12  1  0
 14 15  2  0
 13 14  1  1
 16 17  1  0
 17 18  2  0
 17 19  1  0
 20 19  1  6
 20 21  1  0
 20 22  1  0
 21 14  1  0
 22 24  1  0
 23 22  2  0
M  END
$$$$
