LPN.pdb
     RDKit          3D

 24 24  0  0  1  0  0  0  0  0999 V2000
    8.8119  -13.0483   27.5054 C   0  0  0  0  0  0  0  0  0  0  0  0
    7.8881  -13.3428   26.3255 C   0  0  2  0  0  0  0  0  0  0  0  0
    7.2224  -12.0360   25.9558 C   0  0  0  0  0  0  0  0  0  0  0  0
    6.8330  -14.2999   26.7733 C   0  0  0  0  0  0  0  0  0  0  0  0
    5.9782  -14.7976   25.6219 C   0  0  2  0  0  0  0  0  0  0  0  0
    4.9738  -15.6919   26.2171 N   0  0  0  0  0  0  0  0  0  0  0  0
    6.8449  -15.5647   24.6902 C   0  0  0  0  0  0  0  0  0  0  0  0
    6.8658  -16.8356   24.8418 O   0  0  0  0  0  0  0  0  0  0  0  0
    7.6327  -15.0072   23.6649 N   0  0  0  0  0  0  0  0  0  0  0  0
    8.0114  -13.6332   23.5564 C   0  0  0  0  0  0  0  0  0  0  0  0
    8.0475  -13.3893   22.0667 C   0  0  0  0  0  0  0  0  0  0  0  0
    8.0201  -14.7338   21.4155 C   0  0  0  0  0  0  0  0  0  0  0  0
    8.2123  -15.7204   22.5711 C   0  0  1  0  0  0  0  0  0  0  0  0
    9.6177  -16.1131   22.7553 C   0  0  0  0  0  0  0  0  0  0  0  0
   10.3346  -16.1725   21.7020 O   0  0  0  0  0  0  0  0  0  0  0  0
   13.2913  -17.2366   21.9257 N   0  0  0  0  0  0  0  0  0  0  0  0
   13.3768  -15.9418   22.5621 C   0  0  0  0  0  0  0  0  0  0  0  0
   14.2702  -15.1629   22.1191 O   0  0  0  0  0  0  0  0  0  0  0  0
   12.4533  -15.5917   23.6628 C   0  0  0  0  0  0  0  0  0  0  0  0
   11.6265  -16.7664   24.1150 C   0  0  2  0  0  0  0  0  0  0  0  0
   10.2176  -16.4228   23.9783 N   0  0  0  0  0  0  0  0  0  0  0  0
   11.9613  -16.9968   25.5557 C   0  0  0  0  0  0  0  0  0  0  0  0
   13.1103  -17.4152   25.8732 O   0  0  0  0  0  0  0  0  0  0  0  0
   11.0673  -16.7747   26.5912 O   0  0  0  0  0  0  0  0  0  0  0  0
  2  1  1  1
  3  2  1  0
  4  5  1  0
  4  2  1  0
  5  7  1  0
  5  6  1  1
  7  9  1  0
  7  8  2  0
  9 10  1  0
 10 11  1  0
 12 11  1  0
 13  9  1  0
 13 12  1  0
 14 15  2  0
 13 14  1  1
 16 17  1  0
 17 18  2  0
 17 19  1  0
 20 19  1  1
 20 21  1  0
 20 22  1  0
 21 14  1  0
 22 24  1  0
 23 22  2  0
M  END
$$$$
