LPN.pdb
     RDKit          3D

 24 24  0  0  1  0  0  0  0  0999 V2000
    8.3287  -12.2939   19.7971 C   0  0  0  0  0  0  0  0  0  0  0  0
    7.7811  -13.6806   20.1278 C   0  0  2  0  0  0  0  0  0  0  0  0
    6.3874  -13.7501   19.5442 C   0  0  0  0  0  0  0  0  0  0  0  0
    7.6784  -13.8113   21.6118 C   0  0  0  0  0  0  0  0  0  0  0  0
    9.0374  -13.8000   22.2881 C   0  0  2  0  0  0  0  0  0  0  0  0
    9.9046  -14.6653   21.4741 N   0  0  0  0  0  0  0  0  0  0  0  0
    8.8895  -14.3752   23.6500 C   0  0  0  0  0  0  0  0  0  0  0  0
    9.6876  -15.3269   23.9602 O   0  0  0  0  0  0  0  0  0  0  0  0
    7.9521  -13.9566   24.6138 N   0  0  0  0  0  0  0  0  0  0  0  0
    6.8433  -13.0863   24.3770 C   0  0  0  0  0  0  0  0  0  0  0  0
    6.7108  -12.3170   25.6694 C   0  0  0  0  0  0  0  0  0  0  0  0
    7.5381  -13.0409   26.6814 C   0  0  0  0  0  0  0  0  0  0  0  0
    7.9298  -14.3489   25.9873 C   0  0  1  0  0  0  0  0  0  0  0  0
    7.0167  -15.4570   26.3062 C   0  0  0  0  0  0  0  0  0  0  0  0
    5.8689  -15.4262   25.7507 O   0  0  0  0  0  0  0  0  0  0  0  0
    6.7616  -19.9522   23.9440 N   0  0  0  0  0  0  0  0  0  0  0  0
    7.6988  -19.5141   24.9533 C   0  0  0  0  0  0  0  0  0  0  0  0
    8.4732  -20.4018   25.4152 O   0  0  0  0  0  0  0  0  0  0  0  0
    7.7153  -18.1012   25.3895 C   0  0  0  0  0  0  0  0  0  0  0  0
    7.1553  -17.9209   26.7758 C   0  0  2  0  0  0  0  0  0  0  0  0
    7.3066  -16.5240   27.1599 N   0  0  0  0  0  0  0  0  0  0  0  0
    7.9662  -18.7934   27.6823 C   0  0  0  0  0  0  0  0  0  0  0  0
    7.4594  -19.8501   28.1540 O   0  0  0  0  0  0  0  0  0  0  0  0
    9.2725  -18.5082   28.0473 O   0  0  0  0  0  0  0  0  0  0  0  0
  2  1  1  1
  3  2  1  0
  4  5  1  0
  4  2  1  0
  5  7  1  0
  5  6  1  6
  7  9  1  0
  7  8  2  0
  9 10  1  0
 10 11  1  0
 12 11  1  0
 13  9  1  0
 13 12  1  0
 14 15  2  0
 13 14  1  6
 16 17  1  0
 17 18  2  0
 17 19  1  0
 20 19  1  6
 20 21  1  0
 20 22  1  0
 21 14  1  0
 22 24  1  0
 23 22  2  0
M  END
$$$$
