LPN.pdb
     RDKit          3D

 24 24  0  0  1  0  0  0  0  0999 V2000
    8.6420  -13.4019   28.2118 C   0  0  0  0  0  0  0  0  0  0  0  0
    9.2233  -14.7217   28.7141 C   0  0  2  0  0  0  0  0  0  0  0  0
   10.6379  -14.4323   29.1644 C   0  0  0  0  0  0  0  0  0  0  0  0
    9.2786  -15.6834   27.5731 C   0  0  0  0  0  0  0  0  0  0  0  0
    7.8972  -16.1005   27.1018 C   0  0  2  0  0  0  0  0  0  0  0  0
    7.5385  -17.2879   27.8922 N   0  0  0  0  0  0  0  0  0  0  0  0
    7.9805  -16.4611   25.6628 C   0  0  0  0  0  0  0  0  0  0  0  0
    7.7093  -17.6748   25.3593 O   0  0  0  0  0  0  0  0  0  0  0  0
    8.3279  -15.5799   24.6210 N   0  0  0  0  0  0  0  0  0  0  0  0
    8.8165  -14.2466   24.7834 C   0  0  0  0  0  0  0  0  0  0  0  0
    8.2499  -13.5111   23.5926 C   0  0  0  0  0  0  0  0  0  0  0  0
    7.7562  -14.5550   22.6443 C   0  0  0  0  0  0  0  0  0  0  0  0
    8.2786  -15.8731   23.2236 C   0  0  1  0  0  0  0  0  0  0  0  0
    9.5568  -16.2892   22.6266 C   0  0  0  0  0  0  0  0  0  0  0  0
    9.5633  -16.4686   21.3638 O   0  0  0  0  0  0  0  0  0  0  0  0
   13.6844  -14.6482   24.3845 N   0  0  0  0  0  0  0  0  0  0  0  0
   13.4984  -15.5712   23.2879 C   0  0  0  0  0  0  0  0  0  0  0  0
   13.7000  -15.1049   22.1290 O   0  0  0  0  0  0  0  0  0  0  0  0
   13.0955  -16.9692   23.5527 C   0  0  0  0  0  0  0  0  0  0  0  0
   11.8257  -17.3470   22.8367 C   0  0  2  0  0  0  0  0  0  0  0  0
   10.7463  -16.5011   23.3278 N   0  0  0  0  0  0  0  0  0  0  0  0
   11.5516  -18.7786   23.1770 C   0  0  0  0  0  0  0  0  0  0  0  0
   12.1356  -19.6981   22.5372 O   0  0  0  0  0  0  0  0  0  0  0  0
   10.6742  -19.1704   24.1759 O   0  0  0  0  0  0  0  0  0  0  0  0
  2  1  1  6
  3  2  1  0
  4  5  1  0
  4  2  1  0
  5  7  1  0
  5  6  1  1
  7  9  1  0
  7  8  2  0
  9 10  1  0
 10 11  1  0
 12 11  1  0
 13  9  1  0
 13 12  1  0
 14 15  2  0
 13 14  1  6
 16 17  1  0
 17 18  2  0
 17 19  1  0
 20 19  1  1
 20 21  1  0
 20 22  1  0
 21 14  1  0
 22 24  1  0
 23 22  2  0
M  END
$$$$
