FMT.pdb
     RDKit          3D

 27 27  0  0  1  0  0  0  0  0999 V2000
   32.5562  -28.4809  -18.2820 N   0  0  0  0  0  0  0  0  0  0  0  0
   31.2874  -28.3325  -18.9445 C   0  0  1  0  0  0  0  0  0  0  0  0
   31.1918  -29.2196  -20.1604 C   0  0  0  0  0  0  0  0  0  0  0  0
   32.1664  -28.7456  -21.1668 C   0  0  0  0  0  0  0  0  0  0  0  0
   33.2349  -29.5368  -21.5194 C   0  0  0  0  0  0  0  0  0  0  0  0
   34.1754  -29.1242  -22.4649 C   0  0  0  0  0  0  0  0  0  0  0  0
   34.0129  -27.8867  -23.0508 C   0  0  0  0  0  0  0  0  0  0  0  0
   32.9565  -27.0753  -22.7188 C   0  0  0  0  0  0  0  0  0  0  0  0
   32.0537  -27.5240  -21.7812 C   0  0  0  0  0  0  0  0  0  0  0  0
   30.1463  -28.5797  -18.0032 C   0  0  0  0  0  0  0  0  0  0  0  0
   30.3180  -29.1407  -16.8851 O   0  0  0  0  0  0  0  0  0  0  0  0
   25.7845  -24.3111  -17.7172 C   0  0  0  0  0  0  0  0  0  0  0  0
   26.8145  -24.5136  -16.2403 S   0  0  0  0  0  0  0  0  0  0  0  0
   27.9164  -25.9840  -16.4456 C   0  0  0  0  0  0  0  0  0  0  0  0
   27.0945  -27.0104  -17.1059 C   0  0  0  0  0  0  0  0  0  0  0  0
   27.7016  -28.3533  -17.3622 C   0  0  2  0  0  0  0  0  0  0  0  0
   28.8204  -28.1914  -18.3324 N   0  0  0  0  0  0  0  0  0  0  0  0
   26.7932  -29.4005  -17.8260 C   0  0  0  0  0  0  0  0  0  0  0  0
   26.5651  -29.5195  -19.0786 O   0  0  0  0  0  0  0  0  0  0  0  0
   26.7550  -33.1744  -16.8241 C   0  0  0  0  0  0  0  0  0  0  0  0
   25.3849  -32.5897  -16.6596 C   0  0  1  0  0  0  0  0  0  0  0  0
   25.2066  -32.3343  -15.2993 O   0  0  0  0  0  0  0  0  0  0  0  0
   25.1913  -31.3136  -17.4793 C   0  0  2  0  0  0  0  0  0  0  0  0
   26.1280  -30.3227  -16.9924 N   0  0  0  0  0  0  0  0  0  0  0  0
   23.8207  -30.8425  -17.2421 C   0  0  0  0  0  0  0  0  0  0  0  0
   23.6184  -29.7960  -16.6002 O   0  0  0  0  0  0  0  0  0  0  0  0
   22.7481  -31.5565  -17.7296 O   0  0  0  0  0  0  0  0  0  0  0  0
  2  1  1  1
  2 10  1  0
  2  3  1  0
  3  4  1  0
  4  5  2  0
  5  6  1  0
  7  6  2  0
  8  7  1  0
  9  8  2  0
  9  4  1  0
 10 17  1  0
 11 10  2  0
 13 12  1  0
 14 13  1  0
 16 15  1  6
 15 14  1  0
 17 16  1  0
 18 19  2  0
 18 16  1  0
 21 20  1  1
 21 23  1  0
 22 21  1  0
 23 24  1  1
 23 25  1  0
 24 18  1  0
 25 27  1  0
 26 25  2  0
M  END
$$$$
