FMT.pdb
     RDKit          3D

 27 27  0  0  1  0  0  0  0  0999 V2000
   20.9842  -19.9600  -11.6723 N   0  0  0  0  0  0  0  0  0  0  0  0
   21.8645  -20.9422  -11.0969 C   0  0  1  0  0  0  0  0  0  0  0  0
   21.5277  -22.3328  -11.5737 C   0  0  0  0  0  0  0  0  0  0  0  0
   20.2117  -22.7154  -11.0176 C   0  0  0  0  0  0  0  0  0  0  0  0
   19.1153  -22.8123  -11.8426 C   0  0  0  0  0  0  0  0  0  0  0  0
   17.8572  -23.1702  -11.3550 C   0  0  0  0  0  0  0  0  0  0  0  0
   17.7288  -23.4300  -10.0070 C   0  0  0  0  0  0  0  0  0  0  0  0
   18.8051  -23.3413   -9.1595 C   0  0  0  0  0  0  0  0  0  0  0  0
   20.0266  -22.9848   -9.6851 C   0  0  0  0  0  0  0  0  0  0  0  0
   23.3027  -20.6119  -11.3648 C   0  0  0  0  0  0  0  0  0  0  0  0
   23.6599  -20.0032  -12.4118 O   0  0  0  0  0  0  0  0  0  0  0  0
   27.2076  -19.7614   -6.7145 C   0  0  0  0  0  0  0  0  0  0  0  0
   28.5215  -20.5121   -7.7113 S   0  0  0  0  0  0  0  0  0  0  0  0
   27.9839  -20.6126   -9.4774 C   0  0  0  0  0  0  0  0  0  0  0  0
   26.5245  -20.7977   -9.4411 C   0  0  0  0  0  0  0  0  0  0  0  0
   25.7555  -20.6493  -10.7156 C   0  0  2  0  0  0  0  0  0  0  0  0
   24.3260  -20.9720  -10.4479 N   0  0  0  0  0  0  0  0  0  0  0  0
   26.2321  -21.4272  -11.8577 C   0  0  0  0  0  0  0  0  0  0  0  0
   26.1286  -22.7016  -11.8321 O   0  0  0  0  0  0  0  0  0  0  0  0
   25.0662  -22.9553  -14.3354 C   0  0  0  0  0  0  0  0  0  0  0  0
   25.9926  -21.9850  -15.0033 C   0  0  1  0  0  0  0  0  0  0  0  0
   25.2629  -20.8210  -15.2486 O   0  0  0  0  0  0  0  0  0  0  0  0
   27.2291  -21.6798  -14.1573 C   0  0  2  0  0  0  0  0  0  0  0  0
   26.8098  -20.8834  -13.0231 N   0  0  0  0  0  0  0  0  0  0  0  0
   28.1476  -20.8919  -14.9894 C   0  0  0  0  0  0  0  0  0  0  0  0
   28.2932  -19.6734  -14.7836 O   0  0  0  0  0  0  0  0  0  0  0  0
   28.8554  -21.4970  -16.0047 O   0  0  0  0  0  0  0  0  0  0  0  0
  2  1  1  6
  2 10  1  0
  2  3  1  0
  3  4  1  0
  4  5  2  0
  5  6  1  0
  7  6  2  0
  8  7  1  0
  9  8  2  0
  9  4  1  0
 10 17  1  0
 11 10  2  0
 13 12  1  0
 14 13  1  0
 16 15  1  1
 15 14  1  0
 17 16  1  0
 18 19  2  0
 18 16  1  0
 21 20  1  1
 21 23  1  0
 22 21  1  0
 23 24  1  1
 23 25  1  0
 24 18  1  0
 25 27  1  0
 26 25  2  0
M  END
$$$$
