FMT.pdb
     RDKit          3D

 27 27  0  0  1  0  0  0  0  0999 V2000
   28.3336  -20.5576  -13.7738 N   0  0  0  0  0  0  0  0  0  0  0  0
   27.3775  -19.7688  -13.0427 C   0  0  1  0  0  0  0  0  0  0  0  0
   26.3429  -19.1653  -13.9592 C   0  0  0  0  0  0  0  0  0  0  0  0
   26.9992  -18.1411  -14.8004 C   0  0  0  0  0  0  0  0  0  0  0  0
   27.4860  -18.4761  -16.0425 C   0  0  0  0  0  0  0  0  0  0  0  0
   28.1115  -17.5376  -16.8651 C   0  0  0  0  0  0  0  0  0  0  0  0
   28.2360  -16.2444  -16.4034 C   0  0  0  0  0  0  0  0  0  0  0  0
   27.7600  -15.8808  -15.1682 C   0  0  0  0  0  0  0  0  0  0  0  0
   27.1502  -16.8401  -14.3915 C   0  0  0  0  0  0  0  0  0  0  0  0
   26.7320  -20.5666  -11.9490 C   0  0  0  0  0  0  0  0  0  0  0  0
   26.3360  -21.7507  -12.1365 O   0  0  0  0  0  0  0  0  0  0  0  0
   26.6068  -20.6644   -5.0472 C   0  0  0  0  0  0  0  0  0  0  0  0
   27.5516  -19.6349   -6.2008 S   0  0  0  0  0  0  0  0  0  0  0  0
   27.4397  -20.3441   -7.9045 C   0  0  0  0  0  0  0  0  0  0  0  0
   26.0248  -20.2314   -8.2924 C   0  0  0  0  0  0  0  0  0  0  0  0
   25.6260  -20.6651   -9.6673 C   0  0  2  0  0  0  0  0  0  0  0  0
   26.5389  -20.0203  -10.6522 N   0  0  0  0  0  0  0  0  0  0  0  0
   24.2360  -20.4218  -10.0491 C   0  0  0  0  0  0  0  0  0  0  0  0
   23.8410  -19.2200  -10.2355 O   0  0  0  0  0  0  0  0  0  0  0  0
   22.4916  -20.9066  -13.1008 C   0  0  0  0  0  0  0  0  0  0  0  0
   21.7334  -21.7013  -12.0812 C   0  0  1  0  0  0  0  0  0  0  0  0
   22.1938  -23.0165  -12.1586 O   0  0  0  0  0  0  0  0  0  0  0  0
   21.9048  -21.1508  -10.6651 C   0  0  2  0  0  0  0  0  0  0  0  0
   23.2620  -21.4229  -10.2405 N   0  0  0  0  0  0  0  0  0  0  0  0
   20.9703  -21.8767   -9.7953 C   0  0  0  0  0  0  0  0  0  0  0  0
   21.3991  -22.6323   -8.9046 O   0  0  0  0  0  0  0  0  0  0  0  0
   19.6108  -21.7257   -9.9593 O   0  0  0  0  0  0  0  0  0  0  0  0
  2  1  1  6
  2 10  1  0
  2  3  1  0
  3  4  1  0
  4  5  2  0
  5  6  1  0
  7  6  2  0
  8  7  1  0
  9  8  2  0
  9  4  1  0
 10 17  1  0
 11 10  2  0
 13 12  1  0
 14 13  1  0
 16 15  1  1
 15 14  1  0
 17 16  1  0
 18 19  2  0
 18 16  1  0
 21 20  1  6
 21 23  1  0
 22 21  1  0
 23 24  1  1
 23 25  1  0
 24 18  1  0
 25 27  1  0
 26 25  2  0
M  END
$$$$
