FMT.pdb
     RDKit          3D

 27 27  0  0  1  0  0  0  0  0999 V2000
   21.4130  -13.2276  -19.2263 N   0  0  0  0  0  0  0  0  0  0  0  0
   22.0112  -11.9258  -19.3605 C   0  0  1  0  0  0  0  0  0  0  0  0
   21.1578  -11.0095  -20.2011 C   0  0  0  0  0  0  0  0  0  0  0  0
   21.3256  -11.3822  -21.6225 C   0  0  0  0  0  0  0  0  0  0  0  0
   20.3293  -12.0666  -22.2791 C   0  0  0  0  0  0  0  0  0  0  0  0
   20.4509  -12.4358  -23.6199 C   0  0  0  0  0  0  0  0  0  0  0  0
   21.6083  -12.0970  -24.2882 C   0  0  0  0  0  0  0  0  0  0  0  0
   22.6196  -11.4143  -23.6590 C   0  0  0  0  0  0  0  0  0  0  0  0
   22.4555  -11.0709  -22.3359 C   0  0  0  0  0  0  0  0  0  0  0  0
   22.3025  -11.3166  -18.0214 C   0  0  0  0  0  0  0  0  0  0  0  0
   21.6902  -11.6815  -16.9791 O   0  0  0  0  0  0  0  0  0  0  0  0
   28.2580   -9.8739  -16.3110 C   0  0  0  0  0  0  0  0  0  0  0  0
   27.3081  -10.3886  -14.8563 S   0  0  0  0  0  0  0  0  0  0  0  0
   25.6090   -9.6637  -14.9328 C   0  0  0  0  0  0  0  0  0  0  0  0
   25.0065  -10.1868  -16.1692 C   0  0  0  0  0  0  0  0  0  0  0  0
   23.6239   -9.7449  -16.5306 C   0  0  2  0  0  0  0  0  0  0  0  0
   23.2828  -10.3000  -17.8703 N   0  0  0  0  0  0  0  0  0  0  0  0
   23.3761   -8.3043  -16.5150 C   0  0  0  0  0  0  0  0  0  0  0  0
   24.0747   -7.5424  -17.2678 O   0  0  0  0  0  0  0  0  0  0  0  0
   20.7377   -6.2061  -17.7050 C   0  0  0  0  0  0  0  0  0  0  0  0
   20.8491   -5.8937  -16.2435 C   0  0  1  0  0  0  0  0  0  0  0  0
   19.8611   -6.6301  -15.5884 O   0  0  0  0  0  0  0  0  0  0  0  0
   22.2317   -6.2217  -15.6790 C   0  0  2  0  0  0  0  0  0  0  0  0
   22.4040   -7.6586  -15.7240 N   0  0  0  0  0  0  0  0  0  0  0  0
   22.2526   -5.7748  -14.2802 C   0  0  0  0  0  0  0  0  0  0  0  0
   22.3302   -4.5629  -14.0090 O   0  0  0  0  0  0  0  0  0  0  0  0
   22.1862   -6.6952  -13.2573 O   0  0  0  0  0  0  0  0  0  0  0  0
  2  1  1  1
  2 10  1  0
  2  3  1  0
  3  4  1  0
  4  5  2  0
  5  6  1  0
  7  6  2  0
  8  7  1  0
  9  8  2  0
  9  4  1  0
 10 17  1  0
 11 10  2  0
 13 12  1  0
 14 13  1  0
 16 15  1  6
 15 14  1  0
 17 16  1  0
 18 19  2  0
 18 16  1  0
 21 20  1  6
 21 23  1  0
 22 21  1  0
 23 24  1  1
 23 25  1  0
 24 18  1  0
 25 27  1  0
 26 25  2  0
M  END
$$$$
