FMT.pdb
     RDKit          3D

 27 27  0  0  1  0  0  0  0  0999 V2000
   24.1599  -22.7963  -16.6092 N   0  0  0  0  0  0  0  0  0  0  0  0
   23.9606  -23.6509  -15.4687 C   0  0  1  0  0  0  0  0  0  0  0  0
   25.2113  -23.7570  -14.6326 C   0  0  0  0  0  0  0  0  0  0  0  0
   26.3067  -24.2656  -15.4863 C   0  0  0  0  0  0  0  0  0  0  0  0
   26.3456  -25.5940  -15.8410 C   0  0  0  0  0  0  0  0  0  0  0  0
   27.3630  -26.1112  -16.6449 C   0  0  0  0  0  0  0  0  0  0  0  0
   28.3472  -25.2524  -17.0860 C   0  0  0  0  0  0  0  0  0  0  0  0
   28.3346  -23.9219  -16.7482 C   0  0  0  0  0  0  0  0  0  0  0  0
   27.3114  -23.4563  -15.9533 C   0  0  0  0  0  0  0  0  0  0  0  0
   22.7941  -23.1974  -14.6423 C   0  0  0  0  0  0  0  0  0  0  0  0
   22.6358  -21.9851  -14.3267 O   0  0  0  0  0  0  0  0  0  0  0  0
   17.5847  -21.5153  -15.9182 C   0  0  0  0  0  0  0  0  0  0  0  0
   19.1507  -20.6041  -15.8855 S   0  0  0  0  0  0  0  0  0  0  0  0
   20.2957  -21.3766  -14.6564 C   0  0  0  0  0  0  0  0  0  0  0  0
   19.8296  -22.7626  -14.4919 C   0  0  0  0  0  0  0  0  0  0  0  0
   20.5574  -23.6501  -13.5327 C   0  0  2  0  0  0  0  0  0  0  0  0
   21.8159  -24.1170  -14.1788 N   0  0  0  0  0  0  0  0  0  0  0  0
   19.8135  -24.7966  -13.0140 C   0  0  0  0  0  0  0  0  0  0  0  0
   20.3958  -25.9318  -12.9286 O   0  0  0  0  0  0  0  0  0  0  0  0
   19.9524  -26.6935  -10.9180 C   0  0  0  0  0  0  0  0  0  0  0  0
   18.5568  -26.2124  -10.6600 C   0  0  1  0  0  0  0  0  0  0  0  0
   18.6540  -25.0858   -9.8421 O   0  0  0  0  0  0  0  0  0  0  0  0
   17.8045  -25.8812  -11.9493 C   0  0  2  0  0  0  0  0  0  0  0  0
   18.4719  -24.7628  -12.5820 N   0  0  0  0  0  0  0  0  0  0  0  0
   16.4420  -25.4826  -11.5733 C   0  0  0  0  0  0  0  0  0  0  0  0
   16.1087  -24.2840  -11.5980 O   0  0  0  0  0  0  0  0  0  0  0  0
   15.5221  -26.4340  -11.1904 O   0  0  0  0  0  0  0  0  0  0  0  0
  2  1  1  6
  2 10  1  0
  2  3  1  0
  3  4  1  0
  4  5  2  0
  5  6  1  0
  7  6  2  0
  8  7  1  0
  9  8  2  0
  9  4  1  0
 10 17  1  0
 11 10  2  0
 13 12  1  0
 14 13  1  0
 16 15  1  6
 15 14  1  0
 17 16  1  0
 18 19  2  0
 18 16  1  0
 21 20  1  6
 21 23  1  0
 22 21  1  0
 23 24  1  1
 23 25  1  0
 24 18  1  0
 25 27  1  0
 26 25  2  0
M  END
$$$$
