FMT.pdb
     RDKit          3D

 27 27  0  0  1  0  0  0  0  0999 V2000
   25.7322  -11.7415  -17.5246 N   0  0  0  0  0  0  0  0  0  0  0  0
   25.5221  -10.4082  -17.0258 C   0  0  1  0  0  0  0  0  0  0  0  0
   25.8707   -9.3693  -18.0621 C   0  0  0  0  0  0  0  0  0  0  0  0
   27.3002   -9.5147  -18.4122 C   0  0  0  0  0  0  0  0  0  0  0  0
   27.6652  -10.1613  -19.5701 C   0  0  0  0  0  0  0  0  0  0  0  0
   29.0036  -10.3184  -19.9343 C   0  0  0  0  0  0  0  0  0  0  0  0
   29.9726   -9.8051  -19.0985 C   0  0  0  0  0  0  0  0  0  0  0  0
   29.6384   -9.1551  -17.9365 C   0  0  0  0  0  0  0  0  0  0  0  0
   28.3055   -9.0238  -17.6179 C   0  0  0  0  0  0  0  0  0  0  0  0
   24.1198  -10.2252  -16.5266 C   0  0  0  0  0  0  0  0  0  0  0  0
   23.1792  -10.9811  -16.8984 O   0  0  0  0  0  0  0  0  0  0  0  0
   23.0018  -10.0341  -11.0150 C   0  0  0  0  0  0  0  0  0  0  0  0
   21.2328   -9.7890  -11.3215 S   0  0  0  0  0  0  0  0  0  0  0  0
   20.9763   -9.2017  -13.0558 C   0  0  0  0  0  0  0  0  0  0  0  0
   22.2675   -9.3887  -13.7363 C   0  0  0  0  0  0  0  0  0  0  0  0
   22.3873   -8.9656  -15.1661 C   0  0  2  0  0  0  0  0  0  0  0  0
   23.7911   -9.1898  -15.6116 N   0  0  0  0  0  0  0  0  0  0  0  0
   21.9837   -7.5951  -15.4754 C   0  0  0  0  0  0  0  0  0  0  0  0
   22.6833   -6.6223  -15.0290 O   0  0  0  0  0  0  0  0  0  0  0  0
   21.3519   -5.6848  -18.8163 C   0  0  0  0  0  0  0  0  0  0  0  0
   20.1216   -5.7125  -17.9610 C   0  0  1  0  0  0  0  0  0  0  0  0
   19.3328   -6.7734  -18.4080 O   0  0  0  0  0  0  0  0  0  0  0  0
   20.4458   -5.8684  -16.4749 C   0  0  2  0  0  0  0  0  0  0  0  0
   20.8605   -7.2370  -16.2487 N   0  0  0  0  0  0  0  0  0  0  0  0
   19.2102   -5.6064  -15.7256 C   0  0  0  0  0  0  0  0  0  0  0  0
   18.6118   -6.5368  -15.1559 O   0  0  0  0  0  0  0  0  0  0  0  0
   18.7046   -4.3273  -15.6478 O   0  0  0  0  0  0  0  0  0  0  0  0
  2  1  1  6
  2 10  1  0
  2  3  1  0
  3  4  1  0
  4  5  2  0
  5  6  1  0
  7  6  2  0
  8  7  1  0
  9  8  2  0
  9  4  1  0
 10 17  1  0
 11 10  2  0
 13 12  1  0
 14 13  1  0
 16 15  1  1
 15 14  1  0
 17 16  1  0
 18 19  2  0
 18 16  1  0
 21 20  1  6
 21 23  1  0
 22 21  1  0
 23 24  1  6
 23 25  1  0
 24 18  1  0
 25 27  1  0
 26 25  2  0
M  END
$$$$
