FMT.pdb
     RDKit          3D

 27 27  0  0  1  0  0  0  0  0999 V2000
   28.4932  -20.8247  -15.3894 N   0  0  0  0  0  0  0  0  0  0  0  0
   27.5602  -19.9696  -14.7047 C   0  0  1  0  0  0  0  0  0  0  0  0
   26.7574  -19.1392  -15.6746 C   0  0  0  0  0  0  0  0  0  0  0  0
   27.6266  -18.0688  -16.2097 C   0  0  0  0  0  0  0  0  0  0  0  0
   27.7612  -16.8826  -15.5265 C   0  0  0  0  0  0  0  0  0  0  0  0
   28.5718  -15.8492  -15.9995 C   0  0  0  0  0  0  0  0  0  0  0  0
   29.2483  -16.0404  -17.1855 C   0  0  0  0  0  0  0  0  0  0  0  0
   29.1333  -17.2135  -17.8893 C   0  0  0  0  0  0  0  0  0  0  0  0
   28.3224  -18.2050  -17.3843 C   0  0  0  0  0  0  0  0  0  0  0  0
   26.6640  -20.7553  -13.7943 C   0  0  0  0  0  0  0  0  0  0  0  0
   26.2560  -21.9105  -14.0999 O   0  0  0  0  0  0  0  0  0  0  0  0
   25.2314  -20.7998   -7.2938 C   0  0  0  0  0  0  0  0  0  0  0  0
   26.8954  -20.5661   -7.9718 S   0  0  0  0  0  0  0  0  0  0  0  0
   26.9034  -21.0027   -9.7684 C   0  0  0  0  0  0  0  0  0  0  0  0
   25.5554  -20.6823  -10.2636 C   0  0  0  0  0  0  0  0  0  0  0  0
   25.2422  -20.9500  -11.7016 C   0  0  2  0  0  0  0  0  0  0  0  0
   26.2359  -20.2299  -12.5462 N   0  0  0  0  0  0  0  0  0  0  0  0
   23.8880  -20.6230  -12.1447 C   0  0  0  0  0  0  0  0  0  0  0  0
   23.5658  -19.3973  -12.3152 O   0  0  0  0  0  0  0  0  0  0  0  0
   22.2583  -21.8191  -15.3164 C   0  0  0  0  0  0  0  0  0  0  0  0
   21.3303  -22.1171  -14.1779 C   0  0  1  0  0  0  0  0  0  0  0  0
   21.5088  -23.4596  -13.8415 O   0  0  0  0  0  0  0  0  0  0  0  0
   21.5825  -21.2181  -12.9671 C   0  0  2  0  0  0  0  0  0  0  0  0
   22.8745  -21.5654  -12.4134 N   0  0  0  0  0  0  0  0  0  0  0  0
   20.5371  -21.5097  -11.9777 C   0  0  0  0  0  0  0  0  0  0  0  0
   20.8344  -22.0143  -10.8799 O   0  0  0  0  0  0  0  0  0  0  0  0
   19.2185  -21.2260  -12.2583 O   0  0  0  0  0  0  0  0  0  0  0  0
  2  1  1  6
  2 10  1  0
  2  3  1  0
  3  4  1  0
  4  5  2  0
  5  6  1  0
  7  6  2  0
  8  7  1  0
  9  8  2  0
  9  4  1  0
 10 17  1  0
 11 10  2  0
 13 12  1  0
 14 13  1  0
 16 15  1  1
 15 14  1  0
 17 16  1  0
 18 19  2  0
 18 16  1  0
 21 20  1  6
 21 23  1  0
 22 21  1  0
 23 24  1  1
 23 25  1  0
 24 18  1  0
 25 27  1  0
 26 25  2  0
M  END
$$$$
