FMT.pdb
     RDKit          3D

 27 27  0  0  1  0  0  0  0  0999 V2000
   21.2132  -18.5107  -15.1581 N   0  0  0  0  0  0  0  0  0  0  0  0
   21.6440  -19.8709  -14.9708 C   0  0  1  0  0  0  0  0  0  0  0  0
   21.3239  -20.7224  -16.1737 C   0  0  0  0  0  0  0  0  0  0  0  0
   19.8596  -20.7123  -16.3815 C   0  0  0  0  0  0  0  0  0  0  0  0
   19.0280  -21.3114  -15.4642 C   0  0  0  0  0  0  0  0  0  0  0  0
   17.6414  -21.3227  -15.6257 C   0  0  0  0  0  0  0  0  0  0  0  0
   17.1087  -20.7119  -16.7411 C   0  0  0  0  0  0  0  0  0  0  0  0
   17.9138  -20.1061  -17.6735 C   0  0  0  0  0  0  0  0  0  0  0  0
   19.2758  -20.1197  -17.4726 C   0  0  0  0  0  0  0  0  0  0  0  0
   23.1031  -19.9411  -14.6310 C   0  0  0  0  0  0  0  0  0  0  0  0
   23.9558  -19.2148  -15.2138 O   0  0  0  0  0  0  0  0  0  0  0  0
   26.6590  -20.9397   -8.9346 C   0  0  0  0  0  0  0  0  0  0  0  0
   24.8671  -20.9921   -9.1991 S   0  0  0  0  0  0  0  0  0  0  0  0
   24.4646  -20.3227  -10.8748 C   0  0  0  0  0  0  0  0  0  0  0  0
   25.1664  -21.1925  -11.8320 C   0  0  0  0  0  0  0  0  0  0  0  0
   25.0354  -20.8967  -13.2924 C   0  0  2  0  0  0  0  0  0  0  0  0
   23.5873  -20.8311  -13.6357 N   0  0  0  0  0  0  0  0  0  0  0  0
   25.7187  -21.8111  -14.2056 C   0  0  0  0  0  0  0  0  0  0  0  0
   25.4737  -23.0641  -14.1337 O   0  0  0  0  0  0  0  0  0  0  0  0
   25.4233  -22.5162  -17.7790 C   0  0  0  0  0  0  0  0  0  0  0  0
   26.8178  -22.0341  -17.5163 C   0  0  1  0  0  0  0  0  0  0  0  0
   26.8262  -20.6565  -17.7394 O   0  0  0  0  0  0  0  0  0  0  0  0
   27.2901  -22.3550  -16.0979 C   0  0  2  0  0  0  0  0  0  0  0  0
   26.6493  -21.4251  -15.1918 N   0  0  0  0  0  0  0  0  0  0  0  0
   28.7431  -22.1447  -16.0603 C   0  0  0  0  0  0  0  0  0  0  0  0
   29.2231  -21.1883  -15.4254 O   0  0  0  0  0  0  0  0  0  0  0  0
   29.5858  -23.0060  -16.7281 O   0  0  0  0  0  0  0  0  0  0  0  0
  2  1  1  6
  2 10  1  0
  2  3  1  0
  3  4  1  0
  4  5  2  0
  5  6  1  0
  7  6  2  0
  8  7  1  0
  9  8  2  0
  9  4  1  0
 10 17  1  0
 11 10  2  0
 13 12  1  0
 14 13  1  0
 16 15  1  1
 15 14  1  0
 17 16  1  0
 18 19  2  0
 18 16  1  0
 21 20  1  1
 21 23  1  0
 22 21  1  0
 23 24  1  1
 23 25  1  0
 24 18  1  0
 25 27  1  0
 26 25  2  0
M  END
$$$$
