FMT.pdb
     RDKit          3D

 27 27  0  0  1  0  0  0  0  0999 V2000
   19.9858  -10.7971  -17.7029 N   0  0  0  0  0  0  0  0  0  0  0  0
   20.0346  -10.4933  -16.2972 C   0  0  1  0  0  0  0  0  0  0  0  0
   20.5588  -11.6598  -15.4978 C   0  0  0  0  0  0  0  0  0  0  0  0
   19.7004  -12.8350  -15.7614 C   0  0  0  0  0  0  0  0  0  0  0  0
   18.4204  -12.8814  -15.2598 C   0  0  0  0  0  0  0  0  0  0  0  0
   17.5805  -13.9730  -15.4870 C   0  0  0  0  0  0  0  0  0  0  0  0
   18.0640  -15.0243  -16.2367 C   0  0  0  0  0  0  0  0  0  0  0  0
   19.3371  -15.0060  -16.7501 C   0  0  0  0  0  0  0  0  0  0  0  0
   20.1297  -13.9083  -16.5003 C   0  0  0  0  0  0  0  0  0  0  0  0
   20.8351   -9.2529  -16.0329 C   0  0  0  0  0  0  0  0  0  0  0  0
   21.0328   -8.8281  -14.8603 O   0  0  0  0  0  0  0  0  0  0  0  0
   26.7933   -4.9139  -18.6269 C   0  0  0  0  0  0  0  0  0  0  0  0
   25.7398   -6.3845  -18.5217 S   0  0  0  0  0  0  0  0  0  0  0  0
   24.2545   -6.0144  -17.4848 C   0  0  0  0  0  0  0  0  0  0  0  0
   23.4115   -7.2187  -17.5499 C   0  0  0  0  0  0  0  0  0  0  0  0
   22.0920   -7.2038  -16.8454 C   0  0  2  0  0  0  0  0  0  0  0  0
   21.4056   -8.5021  -17.0950 N   0  0  0  0  0  0  0  0  0  0  0  0
   21.1924   -6.0986  -17.1715 C   0  0  0  0  0  0  0  0  0  0  0  0
   20.8126   -5.9392  -18.3821 O   0  0  0  0  0  0  0  0  0  0  0  0
   17.7110   -5.5230  -16.2429 C   0  0  0  0  0  0  0  0  0  0  0  0
   18.4778   -4.3174  -15.7909 C   0  0  1  0  0  0  0  0  0  0  0  0
   18.7646   -4.4954  -14.4368 O   0  0  0  0  0  0  0  0  0  0  0  0
   19.7627   -4.1070  -16.5927 C   0  0  2  0  0  0  0  0  0  0  0  0
   20.6864   -5.1658  -16.2434 N   0  0  0  0  0  0  0  0  0  0  0  0
   20.3293   -2.8152  -16.1839 C   0  0  0  0  0  0  0  0  0  0  0  0
   21.4246   -2.7678  -15.5954 O   0  0  0  0  0  0  0  0  0  0  0  0
   19.6516   -1.6456  -16.4497 O   0  0  0  0  0  0  0  0  0  0  0  0
  2  1  1  6
  2 10  1  0
  2  3  1  0
  3  4  1  0
  4  5  2  0
  5  6  1  0
  7  6  2  0
  8  7  1  0
  9  8  2  0
  9  4  1  0
 10 17  1  0
 11 10  2  0
 13 12  1  0
 14 13  1  0
 16 15  1  6
 15 14  1  0
 17 16  1  0
 18 19  2  0
 18 16  1  0
 21 20  1  6
 21 23  1  0
 22 21  1  0
 23 24  1  1
 23 25  1  0
 24 18  1  0
 25 27  1  0
 26 25  2  0
M  END
$$$$
