FMT.pdb
     RDKit          3D

 27 27  0  0  1  0  0  0  0  0999 V2000
   21.4479  -12.2999  -18.2461 N   0  0  0  0  0  0  0  0  0  0  0  0
   21.9423  -10.9491  -18.2057 C   0  0  1  0  0  0  0  0  0  0  0  0
   21.6282  -10.2073  -19.4807 C   0  0  0  0  0  0  0  0  0  0  0  0
   22.3160  -10.8847  -20.6011 C   0  0  0  0  0  0  0  0  0  0  0  0
   23.6523  -10.6541  -20.8316 C   0  0  0  0  0  0  0  0  0  0  0  0
   24.3359  -11.2744  -21.8788 C   0  0  0  0  0  0  0  0  0  0  0  0
   23.6364  -12.1386  -22.6942 C   0  0  0  0  0  0  0  0  0  0  0  0
   22.3022  -12.3880  -22.4886 C   0  0  0  0  0  0  0  0  0  0  0  0
   21.6694  -11.7536  -21.4433 C   0  0  0  0  0  0  0  0  0  0  0  0
   21.4217  -10.2114  -17.0081 C   0  0  0  0  0  0  0  0  0  0  0  0
   20.5901  -10.7356  -16.2157 O   0  0  0  0  0  0  0  0  0  0  0  0
   21.1437   -9.6608  -11.5283 C   0  0  0  0  0  0  0  0  0  0  0  0
   22.8079   -9.8803  -12.2109 S   0  0  0  0  0  0  0  0  0  0  0  0
   22.7764   -9.5885  -14.0362 C   0  0  0  0  0  0  0  0  0  0  0  0
   21.4573   -9.0039  -14.3249 C   0  0  0  0  0  0  0  0  0  0  0  0
   21.3091   -8.1445  -15.5403 C   0  0  2  0  0  0  0  0  0  0  0  0
   21.8445   -8.8874  -16.7154 N   0  0  0  0  0  0  0  0  0  0  0  0
   21.9169   -6.8166  -15.4766 C   0  0  0  0  0  0  0  0  0  0  0  0
   23.1883   -6.7072  -15.5596 O   0  0  0  0  0  0  0  0  0  0  0  0
   21.2767   -3.9296  -17.7851 C   0  0  0  0  0  0  0  0  0  0  0  0
   21.0877   -3.4423  -16.3806 C   0  0  1  0  0  0  0  0  0  0  0  0
   19.7159   -3.4469  -16.1241 O   0  0  0  0  0  0  0  0  0  0  0  0
   21.8319   -4.3017  -15.3582 C   0  0  2  0  0  0  0  0  0  0  0  0
   21.2067   -5.6074  -15.3315 N   0  0  0  0  0  0  0  0  0  0  0  0
   21.6723   -3.6612  -14.0463 C   0  0  0  0  0  0  0  0  0  0  0  0
   22.2521   -2.5891  -13.7960 O   0  0  0  0  0  0  0  0  0  0  0  0
   20.8783   -4.2433  -13.0826 O   0  0  0  0  0  0  0  0  0  0  0  0
  2  1  1  6
  2 10  1  0
  2  3  1  0
  3  4  1  0
  4  5  2  0
  5  6  1  0
  7  6  2  0
  8  7  1  0
  9  8  2  0
  9  4  1  0
 10 17  1  0
 11 10  2  0
 13 12  1  0
 14 13  1  0
 16 15  1  1
 15 14  1  0
 17 16  1  0
 18 19  2  0
 18 16  1  0
 21 20  1  6
 21 23  1  0
 22 21  1  0
 23 24  1  1
 23 25  1  0
 24 18  1  0
 25 27  1  0
 26 25  2  0
M  END
$$$$
