FMT.pdb
     RDKit          3D

 27 27  0  0  1  0  0  0  0  0999 V2000
   26.8649  -18.1302   -7.5835 N   0  0  0  0  0  0  0  0  0  0  0  0
   27.2219  -19.4615   -7.9972 C   0  0  1  0  0  0  0  0  0  0  0  0
   26.9849  -20.4644   -6.8961 C   0  0  0  0  0  0  0  0  0  0  0  0
   27.9568  -20.2104   -5.8107 C   0  0  0  0  0  0  0  0  0  0  0  0
   27.8865  -19.0478   -5.0791 C   0  0  0  0  0  0  0  0  0  0  0  0
   28.7857  -18.7724   -4.0474 C   0  0  0  0  0  0  0  0  0  0  0  0
   29.7644  -19.7025   -3.7683 C   0  0  0  0  0  0  0  0  0  0  0  0
   29.8592  -20.8717   -4.4816 C   0  0  0  0  0  0  0  0  0  0  0  0
   28.9505  -21.1006   -5.4902 C   0  0  0  0  0  0  0  0  0  0  0  0
   26.5022  -19.8559   -9.2526 C   0  0  0  0  0  0  0  0  0  0  0  0
   25.4071  -19.3226   -9.5850 O   0  0  0  0  0  0  0  0  0  0  0  0
   30.6137  -22.5854  -12.7045 C   0  0  0  0  0  0  0  0  0  0  0  0
   29.8376  -21.8481  -14.1665 S   0  0  0  0  0  0  0  0  0  0  0  0
   28.1484  -21.2345  -13.7329 C   0  0  0  0  0  0  0  0  0  0  0  0
   28.1222  -21.1397  -12.2647 C   0  0  0  0  0  0  0  0  0  0  0  0
   26.8365  -20.7661  -11.5975 C   0  0  2  0  0  0  0  0  0  0  0  0
   27.0253  -20.8497  -10.1221 N   0  0  0  0  0  0  0  0  0  0  0  0
   25.6539  -21.5313  -11.9884 C   0  0  0  0  0  0  0  0  0  0  0  0
   25.5540  -22.7540  -11.6275 O   0  0  0  0  0  0  0  0  0  0  0  0
   21.8515  -20.9500  -11.3051 C   0  0  0  0  0  0  0  0  0  0  0  0
   22.1701  -20.9633  -12.7694 C   0  0  1  0  0  0  0  0  0  0  0  0
   22.3595  -19.6375  -13.1618 O   0  0  0  0  0  0  0  0  0  0  0  0
   23.4057  -21.8043  -13.0915 C   0  0  2  0  0  0  0  0  0  0  0  0
   24.5780  -21.0273  -12.7472 N   0  0  0  0  0  0  0  0  0  0  0  0
   23.4001  -22.0577  -14.5381 C   0  0  0  0  0  0  0  0  0  0  0  0
   24.2405  -21.5107  -15.2749 O   0  0  0  0  0  0  0  0  0  0  0  0
   22.4636  -22.9039  -15.0901 O   0  0  0  0  0  0  0  0  0  0  0  0
  2  1  1  1
  2 10  1  0
  2  3  1  0
  3  4  1  0
  4  5  2  0
  5  6  1  0
  7  6  2  0
  8  7  1  0
  9  8  2  0
  9  4  1  0
 10 17  1  0
 11 10  2  0
 13 12  1  0
 14 13  1  0
 16 15  1  6
 15 14  1  0
 17 16  1  0
 18 19  2  0
 18 16  1  0
 21 20  1  1
 21 23  1  0
 22 21  1  0
 23 24  1  6
 23 25  1  0
 24 18  1  0
 25 27  1  0
 26 25  2  0
M  END
$$$$
