DVI.pdb
     RDKit          3D

 24 23  0  0  1  0  0  0  0  0999 V2000
   22.6627   -5.4342  -16.2365 N   0  0  0  0  0  0  0  0  0  0  0  0
   22.2678   -6.2961  -15.0907 C   0  0  1  0  0  0  0  0  0  0  0  0
   21.3655   -5.5416  -14.1802 C   0  0  0  0  0  0  0  0  0  0  0  0
   21.9037   -4.3901  -13.4808 C   0  0  0  0  0  0  0  0  0  0  0  0
   23.1050   -4.0670  -13.5031 O   0  0  0  0  0  0  0  0  0  0  0  0
   21.7323   -7.5639  -15.6229 C   0  0  0  0  0  0  0  0  0  0  0  0
   21.0985   -7.6073  -16.6703 O   0  0  0  0  0  0  0  0  0  0  0  0
   21.0469   -3.5885  -12.7377 O   0  0  0  0  0  0  0  0  0  0  0  0
   23.6171  -11.2281  -15.6448 C   0  0  0  0  0  0  0  0  0  0  0  0
   22.1903  -11.2985  -15.2155 C   0  0  2  0  0  0  0  0  0  0  0  0
   21.4719  -12.5137  -15.7463 C   0  0  0  0  0  0  0  0  0  0  0  0
   21.3798  -10.0728  -15.4126 C   0  0  2  0  0  0  0  0  0  0  0  0
   21.9129   -8.8394  -14.9562 N   0  0  0  0  0  0  0  0  0  0  0  0
   19.9148  -10.2570  -15.2761 C   0  0  0  0  0  0  0  0  0  0  0  0
   19.3962  -10.5553  -14.1397 O   0  0  0  0  0  0  0  0  0  0  0  0
   15.7217  -10.4824  -19.0588 C   0  0  0  0  0  0  0  0  0  0  0  0
   16.9676   -9.7993  -18.4968 C   0  0  0  0  0  0  0  0  0  0  0  0
   16.6808   -9.5141  -17.0394 C   0  0  2  0  0  0  0  0  0  0  0  0
   16.9640   -8.0422  -16.8342 C   0  0  0  0  0  0  0  0  0  0  0  0
   17.5368  -10.2928  -16.1079 C   0  0  2  0  0  0  0  0  0  0  0  0
   18.9649  -10.1362  -16.3211 N   0  0  0  0  0  0  0  0  0  0  0  0
   17.1405  -11.7207  -16.1560 C   0  0  0  0  0  0  0  0  0  0  0  0
   16.0236  -12.0586  -15.7139 O   0  0  0  0  0  0  0  0  0  0  0  0
   17.9619  -12.7156  -16.6759 O   0  0  0  0  0  0  0  0  0  0  0  0
  2  3  1  0
  2  1  1  6
  3  4  1  0
  4  5  2  0
  4  8  1  0
  6  7  2  0
  6  2  1  0
 10  9  1  6
 10 12  1  0
 11 10  1  0
 12 14  1  0
 12 13  1  1
 13  6  1  0
 14 21  1  0
 15 14  2  0
 16 17  1  0
 18 20  1  0
 18 17  1  0
 18 19  1  6
 20 22  1  0
 20 21  1  6
 22 23  2  0
 22 24  1  0
M  END
$$$$
