DVI.pdb
     RDKit          3D

 24 23  0  0  1  0  0  0  0  0999 V2000
   18.7614  -13.0202  -16.3335 N   0  0  0  0  0  0  0  0  0  0  0  0
   18.5567  -11.5583  -16.5146 C   0  0  1  0  0  0  0  0  0  0  0  0
   17.1032  -11.2449  -16.4774 C   0  0  0  0  0  0  0  0  0  0  0  0
   16.2572  -11.7894  -17.5227 C   0  0  0  0  0  0  0  0  0  0  0  0
   16.6325  -11.9610  -18.6965 O   0  0  0  0  0  0  0  0  0  0  0  0
   19.3949  -10.8443  -15.5324 C   0  0  0  0  0  0  0  0  0  0  0  0
   19.4117  -11.1591  -14.3487 O   0  0  0  0  0  0  0  0  0  0  0  0
   14.9501  -12.1462  -17.2182 O   0  0  0  0  0  0  0  0  0  0  0  0
   23.2245   -8.5811  -16.2867 C   0  0  0  0  0  0  0  0  0  0  0  0
   22.5703   -9.2466  -15.1230 C   0  0  2  0  0  0  0  0  0  0  0  0
   22.9325  -10.7051  -14.9951 C   0  0  0  0  0  0  0  0  0  0  0  0
   21.1078   -9.0473  -14.9843 C   0  0  2  0  0  0  0  0  0  0  0  0
   20.2523   -9.7296  -15.8880 N   0  0  0  0  0  0  0  0  0  0  0  0
   20.6933   -7.6838  -14.5748 C   0  0  0  0  0  0  0  0  0  0  0  0
   20.0799   -6.9119  -15.3977 O   0  0  0  0  0  0  0  0  0  0  0  0
   18.0535   -6.4491  -10.0466 C   0  0  0  0  0  0  0  0  0  0  0  0
   18.5436   -6.5861  -11.4874 C   0  0  0  0  0  0  0  0  0  0  0  0
   19.7664   -5.7046  -11.6110 C   0  0  2  0  0  0  0  0  0  0  0  0
   19.2874   -4.2863  -11.3927 C   0  0  0  0  0  0  0  0  0  0  0  0
   20.4154   -5.7825  -12.9450 C   0  0  2  0  0  0  0  0  0  0  0  0
   20.9127   -7.0996  -13.3022 N   0  0  0  0  0  0  0  0  0  0  0  0
   21.4887   -4.7631  -13.0280 C   0  0  0  0  0  0  0  0  0  0  0  0
   22.6582   -5.0838  -12.7336 O   0  0  0  0  0  0  0  0  0  0  0  0
   21.2546   -3.4501  -13.4228 O   0  0  0  0  0  0  0  0  0  0  0  0
  2  3  1  0
  2  1  1  1
  3  4  1  0
  4  5  2  0
  4  8  1  0
  6  7  2  0
  6  2  1  0
 10  9  1  6
 10 12  1  0
 11 10  1  0
 12 14  1  0
 12 13  1  6
 13  6  1  0
 14 21  1  0
 15 14  2  0
 16 17  1  0
 18 20  1  0
 18 17  1  0
 18 19  1  6
 20 22  1  0
 20 21  1  1
 22 23  2  0
 22 24  1  0
M  END
$$$$
