DVI.pdb
     RDKit          3D

 24 23  0  0  1  0  0  0  0  0999 V2000
   20.6049  -14.4112  -18.6345 N   0  0  0  0  0  0  0  0  0  0  0  0
   19.7998  -13.1613  -18.6735 C   0  0  1  0  0  0  0  0  0  0  0  0
   18.3728  -13.4722  -18.3919 C   0  0  0  0  0  0  0  0  0  0  0  0
   17.6573  -14.3174  -19.3293 C   0  0  0  0  0  0  0  0  0  0  0  0
   18.0902  -14.6218  -20.4553 O   0  0  0  0  0  0  0  0  0  0  0  0
   20.4316  -12.1711  -17.7804 C   0  0  0  0  0  0  0  0  0  0  0  0
   20.8262  -12.4717  -16.6603 O   0  0  0  0  0  0  0  0  0  0  0  0
   16.4162  -14.8267  -18.9699 O   0  0  0  0  0  0  0  0  0  0  0  0
   22.1607   -8.0343  -18.8770 C   0  0  0  0  0  0  0  0  0  0  0  0
   22.4175   -9.0794  -17.8442 C   0  0  2  0  0  0  0  0  0  0  0  0
   23.5087  -10.0437  -18.2368 C   0  0  0  0  0  0  0  0  0  0  0  0
   21.2309   -9.8010  -17.3252 C   0  0  2  0  0  0  0  0  0  0  0  0
   20.6317  -10.7841  -18.1549 N   0  0  0  0  0  0  0  0  0  0  0  0
   20.3164   -8.9894  -16.4864 C   0  0  0  0  0  0  0  0  0  0  0  0
   19.3053   -8.3941  -17.0086 O   0  0  0  0  0  0  0  0  0  0  0  0
   17.2024   -8.8506  -11.4028 C   0  0  0  0  0  0  0  0  0  0  0  0
   17.7119   -7.9784  -12.5494 C   0  0  0  0  0  0  0  0  0  0  0  0
   18.8385   -8.7455  -13.2050 C   0  0  2  0  0  0  0  0  0  0  0  0
   19.8729   -8.9796  -12.1261 C   0  0  0  0  0  0  0  0  0  0  0  0
   19.4816   -8.0066  -14.3217 C   0  0  2  0  0  0  0  0  0  0  0  0
   20.4404   -8.7814  -15.0898 N   0  0  0  0  0  0  0  0  0  0  0  0
   20.0942   -6.7624  -13.7976 C   0  0  0  0  0  0  0  0  0  0  0  0
   21.3293   -6.7166  -13.6257 O   0  0  0  0  0  0  0  0  0  0  0  0
   19.3517   -5.6289  -13.4837 O   0  0  0  0  0  0  0  0  0  0  0  0
  2  3  1  0
  2  1  1  1
  3  4  1  0
  4  5  2  0
  4  8  1  0
  6  7  2  0
  6  2  1  0
 10  9  1  6
 10 12  1  0
 11 10  1  0
 12 14  1  0
 12 13  1  6
 13  6  1  0
 14 21  1  0
 15 14  2  0
 16 17  1  0
 18 20  1  0
 18 17  1  0
 18 19  1  1
 20 22  1  0
 20 21  1  1
 22 23  2  0
 22 24  1  0
M  END
$$$$
