DVI.pdb
     RDKit          3D

 24 23  0  0  1  0  0  0  0  0999 V2000
   25.4450  -18.8678  -17.0978 N   0  0  0  0  0  0  0  0  0  0  0  0
   26.4745  -19.2921  -16.1119 C   0  0  1  0  0  0  0  0  0  0  0  0
   27.7218  -18.5084  -16.3172 C   0  0  0  0  0  0  0  0  0  0  0  0
   28.4470  -18.6870  -17.5611 C   0  0  0  0  0  0  0  0  0  0  0  0
   28.0523  -19.4097  -18.4938 O   0  0  0  0  0  0  0  0  0  0  0  0
   25.8845  -19.2215  -14.7613 C   0  0  0  0  0  0  0  0  0  0  0  0
   25.5595  -18.1547  -14.2542 O   0  0  0  0  0  0  0  0  0  0  0  0
   29.6530  -18.0226  -17.7426 O   0  0  0  0  0  0  0  0  0  0  0  0
   22.6614  -19.9234  -13.8674 C   0  0  0  0  0  0  0  0  0  0  0  0
   23.4296  -20.7041  -12.8548 C   0  0  2  0  0  0  0  0  0  0  0  0
   22.7772  -20.7129  -11.4951 C   0  0  0  0  0  0  0  0  0  0  0  0
   24.8775  -20.4038  -12.7484 C   0  0  2  0  0  0  0  0  0  0  0  0
   25.6467  -20.3939  -13.9410 N   0  0  0  0  0  0  0  0  0  0  0  0
   25.5424  -20.9276  -11.5309 C   0  0  0  0  0  0  0  0  0  0  0  0
   25.6963  -22.1914  -11.3621 O   0  0  0  0  0  0  0  0  0  0  0  0
   28.7744  -19.4535   -6.4396 C   0  0  0  0  0  0  0  0  0  0  0  0
   27.8920  -20.4875   -7.1376 C   0  0  0  0  0  0  0  0  0  0  0  0
   27.3712  -19.8290   -8.3955 C   0  0  2  0  0  0  0  0  0  0  0  0
   26.5416  -18.6484   -7.9408 C   0  0  0  0  0  0  0  0  0  0  0  0
   26.5111  -20.7216   -9.2142 C   0  0  2  0  0  0  0  0  0  0  0  0
   26.0560  -20.1447  -10.4669 N   0  0  0  0  0  0  0  0  0  0  0  0
   25.3690  -21.1899   -8.3929 C   0  0  0  0  0  0  0  0  0  0  0  0
   24.3146  -20.5227   -8.3784 O   0  0  0  0  0  0  0  0  0  0  0  0
   25.4144  -22.3506   -7.6278 O   0  0  0  0  0  0  0  0  0  0  0  0
  2  3  1  0
  2  1  1  6
  3  4  1  0
  4  5  2  0
  4  8  1  0
  6  7  2  0
  6  2  1  0
 10  9  1  6
 10 12  1  0
 11 10  1  0
 12 14  1  0
 12 13  1  6
 13  6  1  0
 14 21  1  0
 15 14  2  0
 16 17  1  0
 18 20  1  0
 18 17  1  0
 18 19  1  1
 20 22  1  0
 20 21  1  6
 22 23  2  0
 22 24  1  0
M  END
$$$$
