DVI.pdb
     RDKit          3D

 24 23  0  0  1  0  0  0  0  0999 V2000
   21.7171  -20.7734  -14.4107 N   0  0  0  0  0  0  0  0  0  0  0  0
   21.2662  -19.9016  -13.2934 C   0  0  1  0  0  0  0  0  0  0  0  0
   19.9326  -19.3247  -13.6112 C   0  0  0  0  0  0  0  0  0  0  0  0
   19.8248  -18.4340  -14.7514 C   0  0  0  0  0  0  0  0  0  0  0  0
   18.8867  -18.4670  -15.5681 O   0  0  0  0  0  0  0  0  0  0  0  0
   21.3524  -20.6707  -12.0371 C   0  0  0  0  0  0  0  0  0  0  0  0
   20.9434  -21.8226  -11.9564 O   0  0  0  0  0  0  0  0  0  0  0  0
   20.8140  -17.4825  -14.9626 O   0  0  0  0  0  0  0  0  0  0  0  0
   24.4950  -20.5072   -9.2882 C   0  0  0  0  0  0  0  0  0  0  0  0
   23.1337  -20.5108   -8.6783 C   0  0  2  0  0  0  0  0  0  0  0  0
   23.0555  -21.3241   -7.4106 C   0  0  0  0  0  0  0  0  0  0  0  0
   22.0044  -20.8284   -9.5848 C   0  0  2  0  0  0  0  0  0  0  0  0
   21.9206  -20.1295  -10.8171 N   0  0  0  0  0  0  0  0  0  0  0  0
   20.7228  -21.1437   -8.9090 C   0  0  0  0  0  0  0  0  0  0  0  0
   19.8561  -20.2222   -8.6876 O   0  0  0  0  0  0  0  0  0  0  0  0
   15.9564  -24.5652   -9.1016 C   0  0  0  0  0  0  0  0  0  0  0  0
   16.7524  -23.7296   -8.1000 C   0  0  0  0  0  0  0  0  0  0  0  0
   18.0807  -23.4237   -8.7553 C   0  0  2  0  0  0  0  0  0  0  0  0
   18.7028  -24.7611   -9.0916 C   0  0  0  0  0  0  0  0  0  0  0  0
   19.0145  -22.6785   -7.8724 C   0  0  2  0  0  0  0  0  0  0  0  0
   20.3226  -22.4235   -8.4497 N   0  0  0  0  0  0  0  0  0  0  0  0
   19.1295  -23.3843   -6.5737 C   0  0  0  0  0  0  0  0  0  0  0  0
   18.1280  -23.4665   -5.8338 O   0  0  0  0  0  0  0  0  0  0  0  0
   20.3129  -23.9671   -6.1327 O   0  0  0  0  0  0  0  0  0  0  0  0
  2  3  1  0
  2  1  1  6
  3  4  1  0
  4  5  2  0
  4  8  1  0
  6  7  2  0
  6  2  1  0
 10  9  1  6
 10 12  1  0
 11 10  1  0
 12 14  1  0
 12 13  1  6
 13  6  1  0
 14 21  1  0
 15 14  2  0
 16 17  1  0
 18 20  1  0
 18 17  1  0
 18 19  1  1
 20 22  1  0
 20 21  1  6
 22 23  2  0
 22 24  1  0
M  END
$$$$
