DVI.pdb
     RDKit          3D

 24 23  0  0  1  0  0  0  0  0999 V2000
   29.6843  -37.2123   -2.0214 N   0  0  0  0  0  0  0  0  0  0  0  0
   29.8473  -36.5707   -3.3531 C   0  0  1  0  0  0  0  0  0  0  0  0
   30.2290  -37.5944   -4.3623 C   0  0  0  0  0  0  0  0  0  0  0  0
   31.5103  -38.2588   -4.2143 C   0  0  0  0  0  0  0  0  0  0  0  0
   32.1678  -38.2651   -3.1581 O   0  0  0  0  0  0  0  0  0  0  0  0
   28.6269  -35.7965   -3.6508 C   0  0  0  0  0  0  0  0  0  0  0  0
   28.5490  -35.0669   -4.6317 O   0  0  0  0  0  0  0  0  0  0  0  0
   32.0526  -38.9324   -5.3010 O   0  0  0  0  0  0  0  0  0  0  0  0
   23.8502  -35.3994   -4.0395 C   0  0  0  0  0  0  0  0  0  0  0  0
   25.0708  -36.0894   -3.5305 C   0  0  2  0  0  0  0  0  0  0  0  0
   24.7714  -37.1083   -2.4597 C   0  0  0  0  0  0  0  0  0  0  0  0
   26.2050  -35.2200   -3.1357 C   0  0  2  0  0  0  0  0  0  0  0  0
   27.4412  -35.8393   -2.8163 N   0  0  0  0  0  0  0  0  0  0  0  0
   25.8353  -34.0222   -2.3437 C   0  0  0  0  0  0  0  0  0  0  0  0
   25.8809  -34.0470   -1.0605 O   0  0  0  0  0  0  0  0  0  0  0  0
   25.0808  -27.9369   -2.5045 C   0  0  0  0  0  0  0  0  0  0  0  0
   24.5069  -29.2060   -1.8761 C   0  0  0  0  0  0  0  0  0  0  0  0
   24.9289  -30.3544   -2.7653 C   0  0  2  0  0  0  0  0  0  0  0  0
   23.8387  -30.5068   -3.8030 C   0  0  0  0  0  0  0  0  0  0  0  0
   25.0692  -31.6416   -2.0370 C   0  0  2  0  0  0  0  0  0  0  0  0
   25.4092  -32.7788   -2.8741 N   0  0  0  0  0  0  0  0  0  0  0  0
   23.8357  -31.8998   -1.2561 C   0  0  0  0  0  0  0  0  0  0  0  0
   22.9894  -32.7017   -1.7010 O   0  0  0  0  0  0  0  0  0  0  0  0
   23.5709  -31.2852   -0.0368 O   0  0  0  0  0  0  0  0  0  0  0  0
  2  3  1  0
  2  1  1  1
  3  4  1  0
  4  5  2  0
  4  8  1  0
  6  7  2  0
  6  2  1  0
 10  9  1  1
 10 12  1  0
 11 10  1  0
 12 14  1  0
 12 13  1  1
 13  6  1  0
 14 21  1  0
 15 14  2  0
 16 17  1  0
 18 20  1  0
 18 17  1  0
 18 19  1  6
 20 22  1  0
 20 21  1  6
 22 23  2  0
 22 24  1  0
M  END
$$$$
