DVI.pdb
     RDKit          3D

 24 23  0  0  1  0  0  0  0  0999 V2000
   17.4418  -11.1853  -16.0561 N   0  0  0  0  0  0  0  0  0  0  0  0
   17.6129   -9.7082  -16.0367 C   0  0  1  0  0  0  0  0  0  0  0  0
   16.4101   -9.0541  -16.6179 C   0  0  0  0  0  0  0  0  0  0  0  0
   16.1011   -9.3030  -18.0134 C   0  0  0  0  0  0  0  0  0  0  0  0
   16.8940   -9.8313  -18.8135 O   0  0  0  0  0  0  0  0  0  0  0  0
   17.9700   -9.2975  -14.6652 C   0  0  0  0  0  0  0  0  0  0  0  0
   17.4232   -9.7844  -13.6830 O   0  0  0  0  0  0  0  0  0  0  0  0
   14.8546   -8.9387  -18.5058 O   0  0  0  0  0  0  0  0  0  0  0  0
   21.1482   -7.4170  -11.3538 C   0  0  0  0  0  0  0  0  0  0  0  0
   20.7988   -7.7930  -12.7544 C   0  0  2  0  0  0  0  0  0  0  0  0
   21.5369   -6.9788  -13.7873 C   0  0  0  0  0  0  0  0  0  0  0  0
   19.3538   -7.8760  -13.0753 C   0  0  2  0  0  0  0  0  0  0  0  0
   18.9824   -8.2992  -14.3779 N   0  0  0  0  0  0  0  0  0  0  0  0
   18.5074   -6.8332  -12.4468 C   0  0  0  0  0  0  0  0  0  0  0  0
   18.3897   -5.6737  -12.9861 O   0  0  0  0  0  0  0  0  0  0  0  0
   13.5768   -5.4859  -11.8590 C   0  0  0  0  0  0  0  0  0  0  0  0
   14.8791   -6.2822  -11.9296 C   0  0  0  0  0  0  0  0  0  0  0  0
   15.5397   -6.1464  -10.5758 C   0  0  2  0  0  0  0  0  0  0  0  0
   14.8862   -4.9582   -9.9051 C   0  0  0  0  0  0  0  0  0  0  0  0
   17.0017   -5.8962  -10.6570 C   0  0  2  0  0  0  0  0  0  0  0  0
   17.7712   -6.9790  -11.2444 N   0  0  0  0  0  0  0  0  0  0  0  0
   17.5138   -5.5425   -9.3114 C   0  0  0  0  0  0  0  0  0  0  0  0
   17.3530   -4.3811   -8.8839 O   0  0  0  0  0  0  0  0  0  0  0  0
   18.1730   -6.4517   -8.4909 O   0  0  0  0  0  0  0  0  0  0  0  0
  2  3  1  0
  2  1  1  1
  3  4  1  0
  4  5  2  0
  4  8  1  0
  6  7  2  0
  6  2  1  0
 10  9  1  1
 10 12  1  0
 11 10  1  0
 12 14  1  0
 12 13  1  6
 13  6  1  0
 14 21  1  0
 15 14  2  0
 16 17  1  0
 18 20  1  0
 18 17  1  0
 18 19  1  6
 20 22  1  0
 20 21  1  1
 22 23  2  0
 22 24  1  0
M  END
$$$$
