DVI.pdb
     RDKit          3D

 24 23  0  0  1  0  0  0  0  0999 V2000
   18.5795  -12.2784  -18.4000 N   0  0  0  0  0  0  0  0  0  0  0  0
   19.4380  -11.1050  -18.7128 C   0  0  1  0  0  0  0  0  0  0  0  0
   18.7081  -10.1724  -19.6127 C   0  0  0  0  0  0  0  0  0  0  0  0
   18.3120  -10.6531  -20.9230 C   0  0  0  0  0  0  0  0  0  0  0  0
   17.1908  -10.4516  -21.4234 O   0  0  0  0  0  0  0  0  0  0  0  0
   19.9217  -10.5288  -17.4434 C   0  0  0  0  0  0  0  0  0  0  0  0
   19.1540  -10.2293  -16.5370 O   0  0  0  0  0  0  0  0  0  0  0  0
   19.2203  -11.3822  -21.6794 O   0  0  0  0  0  0  0  0  0  0  0  0
   23.6151   -9.6009  -14.2006 C   0  0  0  0  0  0  0  0  0  0  0  0
   22.9299  -10.3751  -15.2759 C   0  0  2  0  0  0  0  0  0  0  0  0
   23.8894  -11.0082  -16.2523 C   0  0  0  0  0  0  0  0  0  0  0  0
   21.8262   -9.6852  -15.9858 C   0  0  2  0  0  0  0  0  0  0  0  0
   21.3245  -10.2762  -17.1745 N   0  0  0  0  0  0  0  0  0  0  0  0
   21.8822   -8.2039  -15.9502 C   0  0  0  0  0  0  0  0  0  0  0  0
   22.5863   -7.5553  -16.8064 O   0  0  0  0  0  0  0  0  0  0  0  0
   18.0257   -4.6942  -16.3999 C   0  0  0  0  0  0  0  0  0  0  0  0
   19.3746   -5.4075  -16.4820 C   0  0  0  0  0  0  0  0  0  0  0  0
   20.0599   -5.1853  -15.1522 C   0  0  2  0  0  0  0  0  0  0  0  0
   20.3524   -3.7032  -15.0711 C   0  0  0  0  0  0  0  0  0  0  0  0
   21.3406   -5.9262  -15.0192 C   0  0  2  0  0  0  0  0  0  0  0  0
   21.2083   -7.3725  -15.0210 N   0  0  0  0  0  0  0  0  0  0  0  0
   22.0564   -5.4543  -13.8096 C   0  0  0  0  0  0  0  0  0  0  0  0
   22.9362   -4.5770  -13.9254 O   0  0  0  0  0  0  0  0  0  0  0  0
   21.7931   -5.9468  -12.5358 O   0  0  0  0  0  0  0  0  0  0  0  0
  2  3  1  0
  2  1  1  1
  3  4  1  0
  4  5  2  0
  4  8  1  0
  6  7  2  0
  6  2  1  0
 10  9  1  6
 10 12  1  0
 11 10  1  0
 12 14  1  0
 12 13  1  6
 13  6  1  0
 14 21  1  0
 15 14  2  0
 16 17  1  0
 18 20  1  0
 18 17  1  0
 18 19  1  6
 20 22  1  0
 20 21  1  1
 22 23  2  0
 22 24  1  0
M  END
$$$$
