DVI.pdb
     RDKit          3D

 24 23  0  0  1  0  0  0  0  0999 V2000
   20.0551  -11.8452  -19.0435 N   0  0  0  0  0  0  0  0  0  0  0  0
   21.3158  -11.1477  -18.6747 C   0  0  1  0  0  0  0  0  0  0  0  0
   21.8358  -10.3939  -19.8468 C   0  0  0  0  0  0  0  0  0  0  0  0
   22.2664  -11.1465  -21.0100 C   0  0  0  0  0  0  0  0  0  0  0  0
   22.8349  -12.2513  -20.9470 O   0  0  0  0  0  0  0  0  0  0  0  0
   21.0705  -10.3536  -17.4555 C   0  0  0  0  0  0  0  0  0  0  0  0
   20.0361   -9.7167  -17.2977 O   0  0  0  0  0  0  0  0  0  0  0  0
   22.0411  -10.6225  -22.2763 O   0  0  0  0  0  0  0  0  0  0  0  0
   21.9658   -9.2259  -12.6868 C   0  0  0  0  0  0  0  0  0  0  0  0
   22.2464  -10.0539  -13.8954 C   0  0  2  0  0  0  0  0  0  0  0  0
   23.6622  -10.5716  -13.9422 C   0  0  0  0  0  0  0  0  0  0  0  0
   21.8484   -9.4742  -15.2005 C   0  0  2  0  0  0  0  0  0  0  0  0
   22.0224  -10.2673  -16.3643 N   0  0  0  0  0  0  0  0  0  0  0  0
   22.0905   -8.0183  -15.3439 C   0  0  0  0  0  0  0  0  0  0  0  0
   23.1753   -7.5852  -15.8776 O   0  0  0  0  0  0  0  0  0  0  0  0
   19.9400   -2.8924  -17.3194 C   0  0  0  0  0  0  0  0  0  0  0  0
   20.9044   -3.4224  -16.2593 C   0  0  0  0  0  0  0  0  0  0  0  0
   20.6410   -4.9072  -16.1427 C   0  0  2  0  0  0  0  0  0  0  0  0
   19.1959   -5.0469  -15.7174 C   0  0  0  0  0  0  0  0  0  0  0  0
   21.4969   -5.5789  -15.1312 C   0  0  2  0  0  0  0  0  0  0  0  0
   21.2085   -6.9883  -14.9315 N   0  0  0  0  0  0  0  0  0  0  0  0
   21.4250   -4.8302  -13.8535 C   0  0  0  0  0  0  0  0  0  0  0  0
   20.6801   -5.2477  -12.9435 O   0  0  0  0  0  0  0  0  0  0  0  0
   22.1555   -3.6709  -13.6151 O   0  0  0  0  0  0  0  0  0  0  0  0
  2  3  1  0
  2  1  1  6
  3  4  1  0
  4  5  2  0
  4  8  1  0
  6  7  2  0
  6  2  1  0
 10  9  1  1
 10 12  1  0
 11 10  1  0
 12 14  1  0
 12 13  1  6
 13  6  1  0
 14 21  1  0
 15 14  2  0
 16 17  1  0
 18 20  1  0
 18 17  1  0
 18 19  1  1
 20 22  1  0
 20 21  1  1
 22 23  2  0
 22 24  1  0
M  END
$$$$
