DVI.pdb
     RDKit          3D

 24 23  0  0  1  0  0  0  0  0999 V2000
   15.8443  -13.5587  -17.6364 N   0  0  0  0  0  0  0  0  0  0  0  0
   15.8247  -12.6964  -16.4249 C   0  0  1  0  0  0  0  0  0  0  0  0
   16.2268  -13.4916  -15.2340 C   0  0  0  0  0  0  0  0  0  0  0  0
   15.4167  -14.6389  -14.8701 C   0  0  0  0  0  0  0  0  0  0  0  0
   15.8691  -15.7902  -14.7367 O   0  0  0  0  0  0  0  0  0  0  0  0
   16.6311  -11.4910  -16.6968 C   0  0  0  0  0  0  0  0  0  0  0  0
   17.5823  -11.5117  -17.4685 O   0  0  0  0  0  0  0  0  0  0  0  0
   14.0559  -14.4650  -14.6535 O   0  0  0  0  0  0  0  0  0  0  0  0
   15.5966   -7.9299  -18.0496 C   0  0  0  0  0  0  0  0  0  0  0  0
   16.3525   -7.8149  -16.7688 C   0  0  2  0  0  0  0  0  0  0  0  0
   17.2229   -6.5849  -16.7039 C   0  0  0  0  0  0  0  0  0  0  0  0
   17.0992   -9.0189  -16.3319 C   0  0  2  0  0  0  0  0  0  0  0  0
   16.3633  -10.2058  -16.0797 N   0  0  0  0  0  0  0  0  0  0  0  0
   18.2607   -8.7546  -15.4489 C   0  0  0  0  0  0  0  0  0  0  0  0
   18.0871   -8.4492  -14.2136 O   0  0  0  0  0  0  0  0  0  0  0  0
   23.7381  -10.8162  -14.0776 C   0  0  0  0  0  0  0  0  0  0  0  0
   22.8313   -9.5957  -13.9261 C   0  0  0  0  0  0  0  0  0  0  0  0
   21.7218   -9.7560  -14.9413 C   0  0  2  0  0  0  0  0  0  0  0  0
   22.3870   -9.7337  -16.2999 C   0  0  0  0  0  0  0  0  0  0  0  0
   20.7161   -8.6638  -14.8912 C   0  0  2  0  0  0  0  0  0  0  0  0
   19.6230   -8.8011  -15.8376 N   0  0  0  0  0  0  0  0  0  0  0  0
   21.4018   -7.3587  -15.0491 C   0  0  0  0  0  0  0  0  0  0  0  0
   21.4041   -6.8026  -16.1663 O   0  0  0  0  0  0  0  0  0  0  0  0
   22.0510   -6.7147  -14.0011 O   0  0  0  0  0  0  0  0  0  0  0  0
  2  3  1  0
  2  1  1  6
  3  4  1  0
  4  5  2  0
  4  8  1  0
  6  7  2  0
  6  2  1  0
 10  9  1  6
 10 12  1  0
 11 10  1  0
 12 14  1  0
 12 13  1  1
 13  6  1  0
 14 21  1  0
 15 14  2  0
 16 17  1  0
 18 20  1  0
 18 17  1  0
 18 19  1  6
 20 22  1  0
 20 21  1  6
 22 23  2  0
 22 24  1  0
M  END
$$$$
