DVI.pdb
     RDKit          3D

 24 23  0  0  1  0  0  0  0  0999 V2000
   25.5048  -18.0848  -17.4079 N   0  0  0  0  0  0  0  0  0  0  0  0
   26.5243  -18.4160  -16.3771 C   0  0  1  0  0  0  0  0  0  0  0  0
   27.5419  -17.3334  -16.3089 C   0  0  0  0  0  0  0  0  0  0  0  0
   28.4029  -17.1281  -17.4585 C   0  0  0  0  0  0  0  0  0  0  0  0
   28.2069  -16.2537  -18.3216 O   0  0  0  0  0  0  0  0  0  0  0  0
   25.8274  -18.7254  -15.1138 C   0  0  0  0  0  0  0  0  0  0  0  0
   25.1732  -17.8809  -14.5143 O   0  0  0  0  0  0  0  0  0  0  0  0
   29.5152  -17.9429  -17.6249 O   0  0  0  0  0  0  0  0  0  0  0  0
   24.1705  -22.7184  -13.5373 C   0  0  0  0  0  0  0  0  0  0  0  0
   23.9409  -21.2458  -13.4755 C   0  0  2  0  0  0  0  0  0  0  0  0
   23.0573  -20.7377  -14.5871 C   0  0  0  0  0  0  0  0  0  0  0  0
   25.1455  -20.3952  -13.3221 C   0  0  2  0  0  0  0  0  0  0  0  0
   25.8625  -20.0359  -14.4928 N   0  0  0  0  0  0  0  0  0  0  0  0
   25.9477  -20.6523  -12.1018 C   0  0  0  0  0  0  0  0  0  0  0  0
   26.9465  -21.4589  -12.1337 O   0  0  0  0  0  0  0  0  0  0  0  0
   28.1955  -18.8089   -6.7833 C   0  0  0  0  0  0  0  0  0  0  0  0
   27.7529  -20.0262   -7.5941 C   0  0  0  0  0  0  0  0  0  0  0  0
   27.0424  -19.4923   -8.8178 C   0  0  2  0  0  0  0  0  0  0  0  0
   25.9820  -18.5412   -8.3082 C   0  0  0  0  0  0  0  0  0  0  0  0
   26.3788  -20.5508   -9.6215 C   0  0  2  0  0  0  0  0  0  0  0  0
   25.7220  -20.0760  -10.8267 N   0  0  0  0  0  0  0  0  0  0  0  0
   25.4373  -21.3037   -8.7584 C   0  0  0  0  0  0  0  0  0  0  0  0
   24.2091  -21.1663   -8.9313 O   0  0  0  0  0  0  0  0  0  0  0  0
   25.8596  -22.1665   -7.7525 O   0  0  0  0  0  0  0  0  0  0  0  0
  2  3  1  0
  2  1  1  6
  3  4  1  0
  4  5  2  0
  4  8  1  0
  6  7  2  0
  6  2  1  0
 10  9  1  6
 10 12  1  0
 11 10  1  0
 12 14  1  0
 12 13  1  6
 13  6  1  0
 14 21  1  0
 15 14  2  0
 16 17  1  0
 18 20  1  0
 18 17  1  0
 18 19  1  1
 20 22  1  0
 20 21  1  6
 22 23  2  0
 22 24  1  0
M  END
$$$$
