DVI.pdb
     RDKit          3D

 24 23  0  0  1  0  0  0  0  0999 V2000
   17.4770  -12.2693  -16.5881 N   0  0  0  0  0  0  0  0  0  0  0  0
   18.3006  -11.2947  -17.3520 C   0  0  1  0  0  0  0  0  0  0  0  0
   17.4144  -10.3443  -18.0756 C   0  0  0  0  0  0  0  0  0  0  0  0
   16.5629  -10.8662  -19.1280 C   0  0  0  0  0  0  0  0  0  0  0  0
   16.6271  -12.0334  -19.5541 O   0  0  0  0  0  0  0  0  0  0  0  0
   19.2802  -10.6877  -16.4305 C   0  0  0  0  0  0  0  0  0  0  0  0
   18.9390  -10.1808  -15.3687 O   0  0  0  0  0  0  0  0  0  0  0  0
   15.6150  -10.0327  -19.7071 O   0  0  0  0  0  0  0  0  0  0  0  0
   22.7700  -12.2514  -15.1629 C   0  0  0  0  0  0  0  0  0  0  0  0
   22.9275  -10.8363  -15.6074 C   0  0  2  0  0  0  0  0  0  0  0  0
   23.8846  -10.0491  -14.7478 C   0  0  0  0  0  0  0  0  0  0  0  0
   21.6775  -10.0757  -15.8460 C   0  0  2  0  0  0  0  0  0  0  0  0
   20.7035  -10.6451  -16.7068 N   0  0  0  0  0  0  0  0  0  0  0  0
   21.8367   -8.6025  -15.9018 C   0  0  0  0  0  0  0  0  0  0  0  0
   22.3300   -8.0371  -16.9441 O   0  0  0  0  0  0  0  0  0  0  0  0
   19.3529   -3.3825  -15.8529 C   0  0  0  0  0  0  0  0  0  0  0  0
   20.6795   -4.0010  -15.4140 C   0  0  0  0  0  0  0  0  0  0  0  0
   20.4555   -5.4953  -15.3468 C   0  0  2  0  0  0  0  0  0  0  0  0
   19.4209   -5.7183  -14.2659 C   0  0  0  0  0  0  0  0  0  0  0  0
   21.6797   -6.2583  -14.9918 C   0  0  2  0  0  0  0  0  0  0  0  0
   21.4876   -7.6930  -14.8724 N   0  0  0  0  0  0  0  0  0  0  0  0
   22.2692   -5.6912  -13.7553 C   0  0  0  0  0  0  0  0  0  0  0  0
   22.8527   -4.5893  -13.8080 O   0  0  0  0  0  0  0  0  0  0  0  0
   22.2039   -6.3338  -12.5235 O   0  0  0  0  0  0  0  0  0  0  0  0
  2  3  1  0
  2  1  1  1
  3  4  1  0
  4  5  2  0
  4  8  1  0
  6  7  2  0
  6  2  1  0
 10  9  1  1
 10 12  1  0
 11 10  1  0
 12 14  1  0
 12 13  1  6
 13  6  1  0
 14 21  1  0
 15 14  2  0
 16 17  1  0
 18 20  1  0
 18 17  1  0
 18 19  1  1
 20 22  1  0
 20 21  1  1
 22 23  2  0
 22 24  1  0
M  END
$$$$
