DVI.pdb
     RDKit          3D

 24 23  0  0  1  0  0  0  0  0999 V2000
   22.4491  -21.7954  -12.9418 N   0  0  0  0  0  0  0  0  0  0  0  0
   22.8165  -20.6543  -12.0618 C   0  0  1  0  0  0  0  0  0  0  0  0
   21.5948  -20.0989  -11.4206 C   0  0  0  0  0  0  0  0  0  0  0  0
   20.6060  -19.4593  -12.2680 C   0  0  0  0  0  0  0  0  0  0  0  0
   19.6101  -18.8538  -11.8326 O   0  0  0  0  0  0  0  0  0  0  0  0
   23.8815  -21.0982  -11.1420 C   0  0  0  0  0  0  0  0  0  0  0  0
   23.7690  -22.1144  -10.4672 O   0  0  0  0  0  0  0  0  0  0  0  0
   20.7600  -19.5135  -13.6472 O   0  0  0  0  0  0  0  0  0  0  0  0
   28.3898  -20.0477  -11.1658 C   0  0  0  0  0  0  0  0  0  0  0  0
   27.4787  -21.1722  -10.8048 C   0  0  2  0  0  0  0  0  0  0  0  0
   27.2428  -22.1317  -11.9442 C   0  0  0  0  0  0  0  0  0  0  0  0
   26.2023  -20.8032  -10.1469 C   0  0  2  0  0  0  0  0  0  0  0  0
   25.1271  -20.3754  -10.9683 N   0  0  0  0  0  0  0  0  0  0  0  0
   26.3417  -20.1357   -8.8302 C   0  0  0  0  0  0  0  0  0  0  0  0
   25.8286  -18.9760   -8.6272 O   0  0  0  0  0  0  0  0  0  0  0  0
   28.8523  -20.6744   -3.1570 C   0  0  0  0  0  0  0  0  0  0  0  0
   27.8936  -19.9055   -4.0652 C   0  0  0  0  0  0  0  0  0  0  0  0
   27.8068  -20.6863   -5.3576 C   0  0  2  0  0  0  0  0  0  0  0  0
   29.2292  -21.0384   -5.7337 C   0  0  0  0  0  0  0  0  0  0  0  0
   27.2025  -19.9129   -6.4727 C   0  0  2  0  0  0  0  0  0  0  0  0
   27.0200  -20.6631   -7.7029 N   0  0  0  0  0  0  0  0  0  0  0  0
   28.0000  -18.6851   -6.7062 C   0  0  0  0  0  0  0  0  0  0  0  0
   28.8398  -18.6701   -7.6292 O   0  0  0  0  0  0  0  0  0  0  0  0
   27.8574  -17.5341   -5.9384 O   0  0  0  0  0  0  0  0  0  0  0  0
  2  3  1  0
  2  1  1  1
  3  4  1  0
  4  5  2  0
  4  8  1  0
  6  7  2  0
  6  2  1  0
 10  9  1  6
 10 12  1  0
 11 10  1  0
 12 14  1  0
 12 13  1  6
 13  6  1  0
 14 21  1  0
 15 14  2  0
 16 17  1  0
 18 20  1  0
 18 17  1  0
 18 19  1  6
 20 22  1  0
 20 21  1  6
 22 23  2  0
 22 24  1  0
M  END
$$$$
