QNG.pdb
     RDKit          3D

 22 21  0  0  1  0  0  0  0  0999 V2000
   27.8096  -22.7329  -15.9453 N   0  0  0  0  0  0  0  0  0  0  0  0
   28.5547  -21.8698  -16.7933 C   0  0  0  0  0  0  0  0  0  0  0  0
   29.7233  -22.1789  -17.0800 O   0  0  0  0  0  0  0  0  0  0  0  0
   27.9567  -20.6344  -17.3244 C   0  0  0  0  0  0  0  0  0  0  0  0
   26.4921  -20.5733  -17.0506 C   0  0  0  0  0  0  0  0  0  0  0  0
   26.1269  -19.8081  -15.8046 C   0  0  2  0  0  0  0  0  0  0  0  0
   27.3225  -19.6313  -15.0251 N   0  0  0  0  0  0  0  0  0  0  0  0
   25.0929  -20.6020  -15.0933 C   0  0  0  0  0  0  0  0  0  0  0  0
   24.4739  -21.5612  -15.6097 O   0  0  0  0  0  0  0  0  0  0  0  0
   26.5777  -21.0347  -10.5933 N   0  0  0  0  0  0  0  0  0  0  0  0
   25.4674  -21.7032  -11.2408 C   0  0  0  0  0  0  0  0  0  0  0  0
   25.6377  -22.8947  -11.5013 O   0  0  0  0  0  0  0  0  0  0  0  0
   24.2742  -20.9526  -11.5282 C   0  0  0  0  0  0  0  0  0  0  0  0
   23.8089  -21.0435  -12.9577 C   0  0  2  0  0  0  0  0  0  0  0  0
   24.8017  -20.2439  -13.7602 N   0  0  0  0  0  0  0  0  0  0  0  0
   22.5445  -20.3379  -13.2431 C   0  0  0  0  0  0  0  0  0  0  0  0
   22.5025  -19.0453  -13.2248 O   0  0  0  0  0  0  0  0  0  0  0  0
   21.3130  -20.9373  -13.5556 N   0  0  0  0  0  0  0  0  0  0  0  0
   20.1121  -20.1241  -13.7787 C   0  0  0  0  0  0  0  0  0  0  0  0
   19.3160  -20.7089  -14.8722 C   0  0  0  0  0  0  0  0  0  0  0  0
   17.9895  -20.3456  -15.0297 O   0  0  0  0  0  0  0  0  0  0  0  0
   19.8720  -21.5390  -15.6505 O   0  0  0  0  0  0  0  0  0  0  0  0
  2  1  1  0
  2  3  2  0
  4  2  1  0
  5  4  1  0
  6  7  1  1
  6  5  1  0
  8  6  1  0
  9  8  2  0
 10 11  1  0
 11 13  1  0
 11 12  2  0
 14 13  1  1
 14 15  1  0
 14 16  1  0
 15  8  1  0
 16 17  2  0
 16 18  1  0
 18 19  1  0
 19 20  1  0
 20 21  1  0
 22 20  2  0
M  END
$$$$
