QNG.pdb
     RDKit          3D

 22 21  0  0  1  0  0  0  0  0999 V2000
   12.7326   -8.0449   -9.3827 N   0  0  0  0  0  0  0  0  0  0  0  0
   12.4844   -9.3886   -9.7727 C   0  0  0  0  0  0  0  0  0  0  0  0
   11.4337   -9.9342   -9.3962 O   0  0  0  0  0  0  0  0  0  0  0  0
   13.4497  -10.1217  -10.6072 C   0  0  0  0  0  0  0  0  0  0  0  0
   14.6453   -9.2881  -10.9223 C   0  0  0  0  0  0  0  0  0  0  0  0
   15.7528  -10.0337  -11.6214 C   0  0  2  0  0  0  0  0  0  0  0  0
   15.6579  -11.4202  -11.2511 N   0  0  0  0  0  0  0  0  0  0  0  0
   17.0328   -9.4142  -11.1935 C   0  0  0  0  0  0  0  0  0  0  0  0
   17.6770   -9.7750  -10.1813 O   0  0  0  0  0  0  0  0  0  0  0  0
   21.2295   -6.3286  -11.3967 N   0  0  0  0  0  0  0  0  0  0  0  0
   20.9944   -7.1000  -12.6003 C   0  0  0  0  0  0  0  0  0  0  0  0
   21.9112   -7.1028  -13.4224 O   0  0  0  0  0  0  0  0  0  0  0  0
   19.7418   -7.7915  -12.7509 C   0  0  0  0  0  0  0  0  0  0  0  0
   18.8065   -7.6507  -11.5790 C   0  0  2  0  0  0  0  0  0  0  0  0
   17.5401   -8.3600  -11.9819 N   0  0  0  0  0  0  0  0  0  0  0  0
   18.3241   -6.2776  -11.3336 C   0  0  0  0  0  0  0  0  0  0  0  0
   17.5847   -5.6813  -12.2114 O   0  0  0  0  0  0  0  0  0  0  0  0
   18.5826   -5.4998  -10.1927 N   0  0  0  0  0  0  0  0  0  0  0  0
   17.9691   -4.1773  -10.0252 C   0  0  0  0  0  0  0  0  0  0  0  0
   18.3759   -3.6049   -8.7297 C   0  0  0  0  0  0  0  0  0  0  0  0
   18.0402   -2.2988   -8.4172 O   0  0  0  0  0  0  0  0  0  0  0  0
   19.0300   -4.3311   -7.9242 O   0  0  0  0  0  0  0  0  0  0  0  0
  2  1  1  0
  2  3  2  0
  4  2  1  0
  5  4  1  0
  6  7  1  1
  6  5  1  0
  8  6  1  0
  9  8  2  0
 10 11  1  0
 11 13  1  0
 11 12  2  0
 14 13  1  6
 14 15  1  0
 14 16  1  0
 15  8  1  0
 16 17  2  0
 16 18  1  0
 18 19  1  0
 19 20  1  0
 20 21  1  0
 22 20  2  0
M  END
$$$$
