QNG.pdb
     RDKit          3D

 22 21  0  0  1  0  0  0  0  0999 V2000
   22.6151  -18.2551  -16.2379 N   0  0  0  0  0  0  0  0  0  0  0  0
   22.7414  -17.9621  -17.6227 C   0  0  0  0  0  0  0  0  0  0  0  0
   22.4653  -18.8494  -18.4472 O   0  0  0  0  0  0  0  0  0  0  0  0
   23.1885  -16.6348  -18.0745 C   0  0  0  0  0  0  0  0  0  0  0  0
   23.5157  -15.7458  -16.9229 C   0  0  0  0  0  0  0  0  0  0  0  0
   22.9315  -14.3603  -17.0251 C   0  0  2  0  0  0  0  0  0  0  0  0
   22.8778  -14.0021  -18.4170 N   0  0  0  0  0  0  0  0  0  0  0  0
   23.8088  -13.4583  -16.2363 C   0  0  0  0  0  0  0  0  0  0  0  0
   24.1483  -13.6790  -15.0505 O   0  0  0  0  0  0  0  0  0  0  0  0
   27.0318   -9.4966  -15.2328 N   0  0  0  0  0  0  0  0  0  0  0  0
   27.4900  -10.5563  -16.1080 C   0  0  0  0  0  0  0  0  0  0  0  0
   28.7001  -10.5775  -16.3357 O   0  0  0  0  0  0  0  0  0  0  0  0
   26.5290  -11.4868  -16.6376 C   0  0  0  0  0  0  0  0  0  0  0  0
   25.1285  -11.3024  -16.1153 C   0  0  2  0  0  0  0  0  0  0  0  0
   24.2790  -12.2900  -16.8718 N   0  0  0  0  0  0  0  0  0  0  0  0
   24.4981  -10.0172  -16.4744 C   0  0  0  0  0  0  0  0  0  0  0  0
   24.5341   -9.5940  -17.6961 O   0  0  0  0  0  0  0  0  0  0  0  0
   23.8204   -9.1530  -15.5984 N   0  0  0  0  0  0  0  0  0  0  0  0
   23.3134   -7.8554  -16.0594 C   0  0  0  0  0  0  0  0  0  0  0  0
   22.4358   -7.2738  -15.0284 C   0  0  0  0  0  0  0  0  0  0  0  0
   22.0544   -8.0362  -13.9377 O   0  0  0  0  0  0  0  0  0  0  0  0
   22.0482   -6.0761  -15.1669 O   0  0  0  0  0  0  0  0  0  0  0  0
  2  1  1  0
  2  3  2  0
  4  2  1  0
  5  4  1  0
  6  7  1  6
  6  5  1  0
  8  6  1  0
  9  8  2  0
 10 11  1  0
 11 13  1  0
 11 12  2  0
 14 13  1  6
 14 15  1  0
 14 16  1  0
 15  8  1  0
 16 17  2  0
 16 18  1  0
 18 19  1  0
 19 20  1  0
 20 21  1  0
 22 20  2  0
M  END
$$$$
