QNG.pdb
     RDKit          3D

 22 21  0  0  1  0  0  0  0  0999 V2000
   23.8290  -21.2702   -7.6321 N   0  0  0  0  0  0  0  0  0  0  0  0
   24.2571  -20.8291   -8.9133 C   0  0  0  0  0  0  0  0  0  0  0  0
   23.4104  -20.3758   -9.7013 O   0  0  0  0  0  0  0  0  0  0  0  0
   25.6747  -20.9049   -9.3017 C   0  0  0  0  0  0  0  0  0  0  0  0
   25.9149  -20.2623  -10.6257 C   0  0  0  0  0  0  0  0  0  0  0  0
   25.3423  -21.0214  -11.7949 C   0  0  2  0  0  0  0  0  0  0  0  0
   26.0756  -22.2514  -11.9283 N   0  0  0  0  0  0  0  0  0  0  0  0
   25.4719  -20.1465  -12.9879 C   0  0  0  0  0  0  0  0  0  0  0  0
   26.4325  -19.3646  -13.1770 O   0  0  0  0  0  0  0  0  0  0  0  0
   27.4716  -18.9136  -16.8621 N   0  0  0  0  0  0  0  0  0  0  0  0
   26.4945  -19.9689  -17.0370 C   0  0  0  0  0  0  0  0  0  0  0  0
   26.2841  -20.3170  -18.1993 O   0  0  0  0  0  0  0  0  0  0  0  0
   25.8535  -20.5242  -15.8748 C   0  0  0  0  0  0  0  0  0  0  0  0
   24.6925  -19.7167  -15.3569 C   0  0  2  0  0  0  0  0  0  0  0  0
   24.4469  -20.2104  -13.9550 N   0  0  0  0  0  0  0  0  0  0  0  0
   23.4007  -19.9992  -16.0123 C   0  0  0  0  0  0  0  0  0  0  0  0
   23.2042  -19.6474  -17.2413 O   0  0  0  0  0  0  0  0  0  0  0  0
   22.2990  -20.6466  -15.4284 N   0  0  0  0  0  0  0  0  0  0  0  0
   21.3712  -19.9189  -14.5549 C   0  0  0  0  0  0  0  0  0  0  0  0
   20.4003  -19.1750  -15.3768 C   0  0  0  0  0  0  0  0  0  0  0  0
   19.0618  -19.5273  -15.3504 O   0  0  0  0  0  0  0  0  0  0  0  0
   20.8194  -18.2199  -16.0951 O   0  0  0  0  0  0  0  0  0  0  0  0
  2  1  1  0
  2  3  2  0
  4  2  1  0
  5  4  1  0
  6  7  1  6
  6  5  1  0
  8  6  1  0
  9  8  2  0
 10 11  1  0
 11 13  1  0
 11 12  2  0
 14 13  1  6
 14 15  1  0
 14 16  1  0
 15  8  1  0
 16 17  2  0
 16 18  1  0
 18 19  1  0
 19 20  1  0
 20 21  1  0
 22 20  2  0
M  END
$$$$
