QNG.pdb
     RDKit          3D

 22 21  0  0  1  0  0  0  0  0999 V2000
   18.1596  -23.4609  -11.5104 N   0  0  0  0  0  0  0  0  0  0  0  0
   17.4056  -24.0982  -12.5326 C   0  0  0  0  0  0  0  0  0  0  0  0
   16.3248  -23.5930  -12.8791 O   0  0  0  0  0  0  0  0  0  0  0  0
   17.8931  -25.3313  -13.1712 C   0  0  0  0  0  0  0  0  0  0  0  0
   19.1134  -25.0784  -13.9900 C   0  0  0  0  0  0  0  0  0  0  0  0
   18.9814  -23.9325  -14.9599 C   0  0  2  0  0  0  0  0  0  0  0  0
   19.7251  -24.2655  -16.1450 N   0  0  0  0  0  0  0  0  0  0  0  0
   19.5052  -22.7219  -14.2778 C   0  0  0  0  0  0  0  0  0  0  0  0
   18.9761  -22.2099  -13.2640 O   0  0  0  0  0  0  0  0  0  0  0  0
   23.6960  -20.5427  -11.5458 N   0  0  0  0  0  0  0  0  0  0  0  0
   23.5082  -20.5626  -12.9822 C   0  0  0  0  0  0  0  0  0  0  0  0
   24.1364  -19.7143  -13.6164 O   0  0  0  0  0  0  0  0  0  0  0  0
   22.6259  -21.5437  -13.5558 C   0  0  0  0  0  0  0  0  0  0  0  0
   21.3354  -20.9838  -14.0935 C   0  0  2  0  0  0  0  0  0  0  0  0
   20.6657  -22.1250  -14.8136 N   0  0  0  0  0  0  0  0  0  0  0  0
   21.4940  -19.9906  -15.1736 C   0  0  0  0  0  0  0  0  0  0  0  0
   21.9480  -18.8087  -14.9088 O   0  0  0  0  0  0  0  0  0  0  0  0
   21.1991  -20.1896  -16.5326 N   0  0  0  0  0  0  0  0  0  0  0  0
   19.8497  -19.9478  -17.0559 C   0  0  0  0  0  0  0  0  0  0  0  0
   19.5118  -18.5210  -16.9094 C   0  0  0  0  0  0  0  0  0  0  0  0
   19.5406  -17.9307  -15.6576 O   0  0  0  0  0  0  0  0  0  0  0  0
   19.2003  -17.8619  -17.9450 O   0  0  0  0  0  0  0  0  0  0  0  0
  2  1  1  0
  2  3  2  0
  4  2  1  0
  5  4  1  0
  6  7  1  6
  6  5  1  0
  8  6  1  0
  9  8  2  0
 10 11  1  0
 11 13  1  0
 11 12  2  0
 14 13  1  6
 14 15  1  0
 14 16  1  0
 15  8  1  0
 16 17  2  0
 16 18  1  0
 18 19  1  0
 19 20  1  0
 20 21  1  0
 22 20  2  0
M  END
$$$$
