QNG.pdb
     RDKit          3D

 22 21  0  0  1  0  0  0  0  0999 V2000
   19.4188  -20.5645  -13.7908 N   0  0  0  0  0  0  0  0  0  0  0  0
   19.2610  -20.9802  -15.1405 C   0  0  0  0  0  0  0  0  0  0  0  0
   18.3558  -21.7859  -15.4141 O   0  0  0  0  0  0  0  0  0  0  0  0
   20.1492  -20.4672  -16.1958 C   0  0  0  0  0  0  0  0  0  0  0  0
   21.1402  -19.4944  -15.6526 C   0  0  0  0  0  0  0  0  0  0  0  0
   22.5760  -19.8411  -15.9519 C   0  0  2  0  0  0  0  0  0  0  0  0
   22.7982  -21.2029  -15.5461 N   0  0  0  0  0  0  0  0  0  0  0  0
   23.4221  -18.8766  -15.2042 C   0  0  0  0  0  0  0  0  0  0  0  0
   24.0402  -19.1620  -14.1524 O   0  0  0  0  0  0  0  0  0  0  0  0
   27.0658  -15.5708  -14.4773 N   0  0  0  0  0  0  0  0  0  0  0  0
   27.1374  -16.8176  -15.2117 C   0  0  0  0  0  0  0  0  0  0  0  0
   28.2653  -17.2898  -15.3572 O   0  0  0  0  0  0  0  0  0  0  0  0
   25.9211  -17.4043  -15.7081 C   0  0  0  0  0  0  0  0  0  0  0  0
   24.6666  -16.6753  -15.3046 C   0  0  2  0  0  0  0  0  0  0  0  0
   23.5262  -17.5677  -15.7199 N   0  0  0  0  0  0  0  0  0  0  0  0
   24.3903  -15.4464  -16.0738 C   0  0  0  0  0  0  0  0  0  0  0  0
   24.3284  -15.4874  -17.3651 O   0  0  0  0  0  0  0  0  0  0  0  0
   24.1683  -14.1663  -15.5393 N   0  0  0  0  0  0  0  0  0  0  0  0
   24.0439  -12.9941  -16.4132 C   0  0  0  0  0  0  0  0  0  0  0  0
   22.6279  -12.7897  -16.7664 C   0  0  0  0  0  0  0  0  0  0  0  0
   22.1086  -13.3833  -17.9040 O   0  0  0  0  0  0  0  0  0  0  0  0
   21.9123  -12.0680  -16.0108 O   0  0  0  0  0  0  0  0  0  0  0  0
  2  1  1  0
  2  3  2  0
  4  2  1  0
  5  4  1  0
  6  7  1  1
  6  5  1  0
  8  6  1  0
  9  8  2  0
 10 11  1  0
 11 13  1  0
 11 12  2  0
 14 13  1  6
 14 15  1  0
 14 16  1  0
 15  8  1  0
 16 17  2  0
 16 18  1  0
 18 19  1  0
 19 20  1  0
 20 21  1  0
 22 20  2  0
M  END
$$$$
