QNG.pdb
     RDKit          3D

 22 21  0  0  1  0  0  0  0  0999 V2000
   19.8892  -23.6093  -13.4456 N   0  0  0  0  0  0  0  0  0  0  0  0
   18.9622  -22.8395  -12.6923 C   0  0  0  0  0  0  0  0  0  0  0  0
   17.7950  -23.2508  -12.5838 O   0  0  0  0  0  0  0  0  0  0  0  0
   19.3737  -21.5805  -12.0509 C   0  0  0  0  0  0  0  0  0  0  0  0
   20.8177  -21.2922  -12.2866 C   0  0  0  0  0  0  0  0  0  0  0  0
   21.0837  -20.3795  -13.4560 C   0  0  2  0  0  0  0  0  0  0  0  0
   20.5514  -21.0040  -14.6371 N   0  0  0  0  0  0  0  0  0  0  0  0
   22.5536  -20.1805  -13.5277 C   0  0  0  0  0  0  0  0  0  0  0  0
   23.2141  -19.5528  -12.6677 O   0  0  0  0  0  0  0  0  0  0  0  0
   25.3849  -22.4704  -11.9836 N   0  0  0  0  0  0  0  0  0  0  0  0
   25.9855  -21.7315  -13.0754 C   0  0  0  0  0  0  0  0  0  0  0  0
   27.0016  -21.0943  -12.7962 O   0  0  0  0  0  0  0  0  0  0  0  0
   25.3728  -21.7894  -14.3759 C   0  0  0  0  0  0  0  0  0  0  0  0
   24.7100  -20.5090  -14.8109 C   0  0  2  0  0  0  0  0  0  0  0  0
   23.2313  -20.7357  -14.6334 N   0  0  0  0  0  0  0  0  0  0  0  0
   24.8050  -20.2225  -16.2556 C   0  0  0  0  0  0  0  0  0  0  0  0
   24.3012  -21.0459  -17.1164 O   0  0  0  0  0  0  0  0  0  0  0  0
   25.4068  -19.0953  -16.8393 N   0  0  0  0  0  0  0  0  0  0  0  0
   25.5012  -18.9594  -18.2974 C   0  0  0  0  0  0  0  0  0  0  0  0
   26.2367  -17.7270  -18.6316 C   0  0  0  0  0  0  0  0  0  0  0  0
   26.5180  -17.4293  -19.9539 O   0  0  0  0  0  0  0  0  0  0  0  0
   26.5969  -16.9611  -17.6895 O   0  0  0  0  0  0  0  0  0  0  0  0
  2  1  1  0
  2  3  2  0
  4  2  1  0
  5  4  1  0
  6  7  1  6
  6  5  1  0
  8  6  1  0
  9  8  2  0
 10 11  1  0
 11 13  1  0
 11 12  2  0
 14 13  1  6
 14 15  1  0
 14 16  1  0
 15  8  1  0
 16 17  2  0
 16 18  1  0
 18 19  1  0
 19 20  1  0
 20 21  1  0
 22 20  2  0
M  END
$$$$
