QNG.pdb
     RDKit          3D

 22 21  0  0  1  0  0  0  0  0999 V2000
   15.2844  -11.0032  -14.6866 N   0  0  0  0  0  0  0  0  0  0  0  0
   16.2172  -11.8748  -15.3107 C   0  0  0  0  0  0  0  0  0  0  0  0
   16.0141  -13.0994  -15.2614 O   0  0  0  0  0  0  0  0  0  0  0  0
   17.4005  -11.3407  -16.0039 C   0  0  0  0  0  0  0  0  0  0  0  0
   17.5322   -9.8684  -15.8074 C   0  0  0  0  0  0  0  0  0  0  0  0
   18.7324   -9.2585  -16.4848 C   0  0  2  0  0  0  0  0  0  0  0  0
   19.8465  -10.1494  -16.3017 N   0  0  0  0  0  0  0  0  0  0  0  0
   18.9554   -7.9290  -15.8620 C   0  0  0  0  0  0  0  0  0  0  0  0
   18.0690   -7.0490  -15.7628 O   0  0  0  0  0  0  0  0  0  0  0  0
   21.6703   -4.0922  -13.5326 N   0  0  0  0  0  0  0  0  0  0  0  0
   22.0786   -5.3898  -13.0342 C   0  0  0  0  0  0  0  0  0  0  0  0
   22.8572   -5.3765  -12.0802 O   0  0  0  0  0  0  0  0  0  0  0  0
   21.5624   -6.5735  -13.6683 C   0  0  0  0  0  0  0  0  0  0  0  0
   20.5557   -6.3097  -14.7570 C   0  0  2  0  0  0  0  0  0  0  0  0
   20.2441   -7.6556  -15.3576 N   0  0  0  0  0  0  0  0  0  0  0  0
   21.0817   -5.5691  -15.9202 C   0  0  0  0  0  0  0  0  0  0  0  0
   22.0667   -6.0504  -16.6065 O   0  0  0  0  0  0  0  0  0  0  0  0
   20.6091   -4.3366  -16.4009 N   0  0  0  0  0  0  0  0  0  0  0  0
   21.2510   -3.6747  -17.5424 C   0  0  0  0  0  0  0  0  0  0  0  0
   20.4643   -2.4917  -17.9334 C   0  0  0  0  0  0  0  0  0  0  0  0
   20.9213   -1.6630  -18.9437 O   0  0  0  0  0  0  0  0  0  0  0  0
   19.3759   -2.2600  -17.3287 O   0  0  0  0  0  0  0  0  0  0  0  0
  2  1  1  0
  2  3  2  0
  4  2  1  0
  5  4  1  0
  6  7  1  1
  6  5  1  0
  8  6  1  0
  9  8  2  0
 10 11  1  0
 11 13  1  0
 11 12  2  0
 14 13  1  1
 14 15  1  0
 14 16  1  0
 15  8  1  0
 16 17  2  0
 16 18  1  0
 18 19  1  0
 19 20  1  0
 20 21  1  0
 22 20  2  0
M  END
$$$$
