QNG.pdb
     RDKit          3D

 22 21  0  0  1  0  0  0  0  0999 V2000
   22.6965  -21.9467  -15.7052 N   0  0  0  0  0  0  0  0  0  0  0  0
   21.2967  -22.1729  -15.7980 C   0  0  0  0  0  0  0  0  0  0  0  0
   20.8854  -23.0569  -16.5678 O   0  0  0  0  0  0  0  0  0  0  0  0
   20.3503  -21.3786  -14.9983 C   0  0  0  0  0  0  0  0  0  0  0  0
   21.0598  -20.4257  -14.0971 C   0  0  0  0  0  0  0  0  0  0  0  0
   21.7029  -21.0713  -12.8967 C   0  0  2  0  0  0  0  0  0  0  0  0
   20.8842  -20.7891  -11.7484 N   0  0  0  0  0  0  0  0  0  0  0  0
   23.0701  -20.5041  -12.7772 C   0  0  0  0  0  0  0  0  0  0  0  0
   23.3334  -19.2867  -12.9131 O   0  0  0  0  0  0  0  0  0  0  0  0
   24.8722  -19.9315   -9.8389 N   0  0  0  0  0  0  0  0  0  0  0  0
   25.7457  -21.0863   -9.8871 C   0  0  0  0  0  0  0  0  0  0  0  0
   26.1175  -21.5226   -8.7972 O   0  0  0  0  0  0  0  0  0  0  0  0
   26.1101  -21.6310  -11.1678 C   0  0  0  0  0  0  0  0  0  0  0  0
   25.5336  -20.8926  -12.3469 C   0  0  2  0  0  0  0  0  0  0  0  0
   24.1227  -21.3997  -12.4941 N   0  0  0  0  0  0  0  0  0  0  0  0
   26.1255  -21.2500  -13.6508 C   0  0  0  0  0  0  0  0  0  0  0  0
   26.2939  -22.4920  -13.9702 O   0  0  0  0  0  0  0  0  0  0  0  0
   26.5462  -20.3506  -14.6446 N   0  0  0  0  0  0  0  0  0  0  0  0
   27.1091  -20.8332  -15.9109 C   0  0  0  0  0  0  0  0  0  0  0  0
   27.4683  -19.6844  -16.7611 C   0  0  0  0  0  0  0  0  0  0  0  0
   28.8005  -19.3833  -16.9862 O   0  0  0  0  0  0  0  0  0  0  0  0
   26.5379  -18.9932  -17.2715 O   0  0  0  0  0  0  0  0  0  0  0  0
  2  1  1  0
  2  3  2  0
  4  2  1  0
  5  4  1  0
  6  7  1  1
  6  5  1  0
  8  6  1  0
  9  8  2  0
 10 11  1  0
 11 13  1  0
 11 12  2  0
 14 13  1  1
 14 15  1  0
 14 16  1  0
 15  8  1  0
 16 17  2  0
 16 18  1  0
 18 19  1  0
 19 20  1  0
 20 21  1  0
 22 20  2  0
M  END
$$$$
