QNG.pdb
     RDKit          3D

 22 21  0  0  1  0  0  0  0  0999 V2000
   14.4111   -7.5149   -8.2729 N   0  0  0  0  0  0  0  0  0  0  0  0
   13.7155   -8.5665   -8.9282 C   0  0  0  0  0  0  0  0  0  0  0  0
   12.5393   -8.7974   -8.6019 O   0  0  0  0  0  0  0  0  0  0  0  0
   14.3718   -9.3672   -9.9743 C   0  0  0  0  0  0  0  0  0  0  0  0
   15.7782   -8.9259  -10.2001 C   0  0  0  0  0  0  0  0  0  0  0  0
   16.4611   -9.6047  -11.3595 C   0  0  2  0  0  0  0  0  0  0  0  0
   16.5364  -11.0113  -11.0694 N   0  0  0  0  0  0  0  0  0  0  0  0
   17.7999   -8.9784  -11.5038 C   0  0  0  0  0  0  0  0  0  0  0  0
   18.5393   -8.6848  -10.5358 O   0  0  0  0  0  0  0  0  0  0  0  0
   22.2388   -7.5975  -13.8050 N   0  0  0  0  0  0  0  0  0  0  0  0
   21.6302   -8.7755  -14.3887 C   0  0  0  0  0  0  0  0  0  0  0  0
   22.3223   -9.3891  -15.2017 O   0  0  0  0  0  0  0  0  0  0  0  0
   20.2963   -9.1399  -13.9914 C   0  0  0  0  0  0  0  0  0  0  0  0
   19.6424   -8.1727  -13.0401 C   0  0  2  0  0  0  0  0  0  0  0  0
   18.2516   -8.7043  -12.8118 N   0  0  0  0  0  0  0  0  0  0  0  0
   19.3712   -6.8365  -13.6052 C   0  0  0  0  0  0  0  0  0  0  0  0
   20.3505   -6.0548  -13.9257 O   0  0  0  0  0  0  0  0  0  0  0  0
   18.1040   -6.2841  -13.8556 N   0  0  0  0  0  0  0  0  0  0  0  0
   17.9630   -4.9054  -14.3380 C   0  0  0  0  0  0  0  0  0  0  0  0
   16.5400   -4.6114  -14.5832 C   0  0  0  0  0  0  0  0  0  0  0  0
   16.1385   -3.3111  -14.8365 O   0  0  0  0  0  0  0  0  0  0  0  0
   15.7098   -5.5673  -14.5564 O   0  0  0  0  0  0  0  0  0  0  0  0
  2  1  1  0
  2  3  2  0
  4  2  1  0
  5  4  1  0
  6  7  1  1
  6  5  1  0
  8  6  1  0
  9  8  2  0
 10 11  1  0
 11 13  1  0
 11 12  2  0
 14 13  1  6
 14 15  1  0
 14 16  1  0
 15  8  1  0
 16 17  2  0
 16 18  1  0
 18 19  1  0
 19 20  1  0
 20 21  1  0
 22 20  2  0
M  END
$$$$
