QNG.pdb
     RDKit          3D

 22 21  0  0  1  0  0  0  0  0999 V2000
   27.4683  -20.3530  -19.4420 N   0  0  0  0  0  0  0  0  0  0  0  0
   28.4878  -19.9018  -18.5609 C   0  0  0  0  0  0  0  0  0  0  0  0
   29.6050  -19.6299  -19.0313 O   0  0  0  0  0  0  0  0  0  0  0  0
   28.2284  -19.7567  -17.1195 C   0  0  0  0  0  0  0  0  0  0  0  0
   26.7970  -20.0162  -16.7919 C   0  0  0  0  0  0  0  0  0  0  0  0
   26.5858  -21.0539  -15.7195 C   0  0  2  0  0  0  0  0  0  0  0  0
   27.2287  -22.2685  -16.1437 N   0  0  0  0  0  0  0  0  0  0  0  0
   25.1191  -21.2127  -15.5498 C   0  0  0  0  0  0  0  0  0  0  0  0
   24.4008  -21.9029  -16.3097 O   0  0  0  0  0  0  0  0  0  0  0  0
   20.7338  -22.1194  -12.6760 N   0  0  0  0  0  0  0  0  0  0  0  0
   21.5446  -20.9945  -12.2564 C   0  0  0  0  0  0  0  0  0  0  0  0
   20.9923  -20.1842  -11.5115 O   0  0  0  0  0  0  0  0  0  0  0  0
   22.9019  -20.9013  -12.7242 C   0  0  0  0  0  0  0  0  0  0  0  0
   23.0370  -20.6906  -14.2093 C   0  0  2  0  0  0  0  0  0  0  0  0
   24.5139  -20.5420  -14.4663 N   0  0  0  0  0  0  0  0  0  0  0  0
   22.5089  -19.4037  -14.7025 C   0  0  0  0  0  0  0  0  0  0  0  0
   23.3152  -18.4260  -14.9610 O   0  0  0  0  0  0  0  0  0  0  0  0
   21.1587  -19.0996  -14.9436 N   0  0  0  0  0  0  0  0  0  0  0  0
   20.7588  -17.7761  -15.4353 C   0  0  0  0  0  0  0  0  0  0  0  0
   19.9230  -17.9287  -16.6393 C   0  0  0  0  0  0  0  0  0  0  0  0
   19.3261  -16.8175  -17.2095 O   0  0  0  0  0  0  0  0  0  0  0  0
   19.7703  -19.0867  -17.1289 O   0  0  0  0  0  0  0  0  0  0  0  0
  2  1  1  0
  2  3  2  0
  4  2  1  0
  5  4  1  0
  6  7  1  6
  6  5  1  0
  8  6  1  0
  9  8  2  0
 10 11  1  0
 11 13  1  0
 11 12  2  0
 14 13  1  1
 14 15  1  0
 14 16  1  0
 15  8  1  0
 16 17  2  0
 16 18  1  0
 18 19  1  0
 19 20  1  0
 20 21  1  0
 22 20  2  0
M  END
$$$$
