QNG.pdb
     RDKit          3D

 22 21  0  0  1  0  0  0  0  0999 V2000
   16.3634  -11.4543  -14.6432 N   0  0  0  0  0  0  0  0  0  0  0  0
   16.3516  -11.2392  -16.0479 C   0  0  0  0  0  0  0  0  0  0  0  0
   15.3603  -11.6086  -16.6992 O   0  0  0  0  0  0  0  0  0  0  0  0
   17.4885  -10.5906  -16.7206 C   0  0  0  0  0  0  0  0  0  0  0  0
   18.5633  -10.2279  -15.7526 C   0  0  0  0  0  0  0  0  0  0  0  0
   19.7293   -9.4975  -16.3675 C   0  0  2  0  0  0  0  0  0  0  0  0
   20.7058  -10.4751  -16.7664 N   0  0  0  0  0  0  0  0  0  0  0  0
   20.2468   -8.5592  -15.3393 C   0  0  0  0  0  0  0  0  0  0  0  0
   20.8594   -8.9240  -14.3090 O   0  0  0  0  0  0  0  0  0  0  0  0
   21.8877   -4.2695  -13.0651 N   0  0  0  0  0  0  0  0  0  0  0  0
   22.5738   -4.7964  -14.2273 C   0  0  0  0  0  0  0  0  0  0  0  0
   23.6996   -4.3432  -14.4359 O   0  0  0  0  0  0  0  0  0  0  0  0
   21.9135   -5.7854  -15.0370 C   0  0  0  0  0  0  0  0  0  0  0  0
   20.5400   -6.1712  -14.5545 C   0  0  2  0  0  0  0  0  0  0  0  0
   20.0286   -7.1812  -15.5483 N   0  0  0  0  0  0  0  0  0  0  0  0
   19.5264   -5.1030  -14.6538 C   0  0  0  0  0  0  0  0  0  0  0  0
   19.5215   -4.1299  -13.8018 O   0  0  0  0  0  0  0  0  0  0  0  0
   18.5128   -5.0095  -15.6219 N   0  0  0  0  0  0  0  0  0  0  0  0
   17.4994   -3.9504  -15.5546 C   0  0  0  0  0  0  0  0  0  0  0  0
   18.0774   -2.6829  -16.0351 C   0  0  0  0  0  0  0  0  0  0  0  0
   17.2444   -1.6347  -16.3867 O   0  0  0  0  0  0  0  0  0  0  0  0
   19.3374   -2.5825  -16.1146 O   0  0  0  0  0  0  0  0  0  0  0  0
  2  1  1  0
  2  3  2  0
  4  2  1  0
  5  4  1  0
  6  7  1  1
  6  5  1  0
  8  6  1  0
  9  8  2  0
 10 11  1  0
 11 13  1  0
 11 12  2  0
 14 13  1  6
 14 15  1  0
 14 16  1  0
 15  8  1  0
 16 17  2  0
 16 18  1  0
 18 19  1  0
 19 20  1  0
 20 21  1  0
 22 20  2  0
M  END
$$$$
