QNG.pdb
     RDKit          3D

 22 21  0  0  1  0  0  0  0  0999 V2000
   16.7276  -12.4524  -13.9500 N   0  0  0  0  0  0  0  0  0  0  0  0
   16.6486  -12.7544  -15.3363 C   0  0  0  0  0  0  0  0  0  0  0  0
   15.9993  -13.7515  -15.6931 O   0  0  0  0  0  0  0  0  0  0  0  0
   17.3201  -11.9040  -16.3323 C   0  0  0  0  0  0  0  0  0  0  0  0
   18.0787  -10.7959  -15.6841 C   0  0  0  0  0  0  0  0  0  0  0  0
   17.7531   -9.4260  -16.2211 C   0  0  2  0  0  0  0  0  0  0  0  0
   18.3592   -9.3020  -17.5195 N   0  0  0  0  0  0  0  0  0  0  0  0
   18.2829   -8.4387  -15.2464 C   0  0  0  0  0  0  0  0  0  0  0  0
   17.8810   -8.3434  -14.0635 O   0  0  0  0  0  0  0  0  0  0  0  0
   21.4821   -5.0203  -13.0744 N   0  0  0  0  0  0  0  0  0  0  0  0
   22.0966   -6.2049  -13.6386 C   0  0  0  0  0  0  0  0  0  0  0  0
   23.2755   -6.3926  -13.3363 O   0  0  0  0  0  0  0  0  0  0  0  0
   21.3115   -7.0585  -14.4899 C   0  0  0  0  0  0  0  0  0  0  0  0
   19.9111   -6.5671  -14.7457 C   0  0  2  0  0  0  0  0  0  0  0  0
   19.2966   -7.5648  -15.6924 N   0  0  0  0  0  0  0  0  0  0  0  0
   19.8267   -5.3150  -15.5225 C   0  0  0  0  0  0  0  0  0  0  0  0
   20.5466   -4.2933  -15.1896 O   0  0  0  0  0  0  0  0  0  0  0  0
   19.0157   -5.0905  -16.6474 N   0  0  0  0  0  0  0  0  0  0  0  0
   18.9762   -3.7767  -17.3000 C   0  0  0  0  0  0  0  0  0  0  0  0
   17.9747   -2.9249  -16.6344 C   0  0  0  0  0  0  0  0  0  0  0  0
   17.8238   -1.6052  -17.0241 O   0  0  0  0  0  0  0  0  0  0  0  0
   17.2678   -3.4277  -15.7116 O   0  0  0  0  0  0  0  0  0  0  0  0
  2  1  1  0
  2  3  2  0
  4  2  1  0
  5  4  1  0
  6  7  1  6
  6  5  1  0
  8  6  1  0
  9  8  2  0
 10 11  1  0
 11 13  1  0
 11 12  2  0
 14 13  1  6
 14 15  1  0
 14 16  1  0
 15  8  1  0
 16 17  2  0
 16 18  1  0
 18 19  1  0
 19 20  1  0
 20 21  1  0
 22 20  2  0
M  END
$$$$
