QNG.pdb
     RDKit          3D

 22 21  0  0  1  0  0  0  0  0999 V2000
   16.7126  -11.3123  -15.2940 N   0  0  0  0  0  0  0  0  0  0  0  0
   16.0764  -12.3354  -14.5403 C   0  0  0  0  0  0  0  0  0  0  0  0
   16.0934  -13.4974  -14.9795 O   0  0  0  0  0  0  0  0  0  0  0  0
   15.4113  -12.0284  -13.2639 C   0  0  0  0  0  0  0  0  0  0  0  0
   15.5596  -10.5895  -12.9013 C   0  0  0  0  0  0  0  0  0  0  0  0
   14.8277  -10.1890  -11.6463 C   0  0  2  0  0  0  0  0  0  0  0  0
   13.4240  -10.4205  -11.8573 N   0  0  0  0  0  0  0  0  0  0  0  0
   15.1400   -8.7587  -11.3975 C   0  0  0  0  0  0  0  0  0  0  0  0
   14.4910   -7.8079  -11.8923 O   0  0  0  0  0  0  0  0  0  0  0  0
   14.3320   -7.0946   -7.1433 N   0  0  0  0  0  0  0  0  0  0  0  0
   14.9134   -6.5877   -8.3697 C   0  0  0  0  0  0  0  0  0  0  0  0
   14.1820   -5.8700   -9.0526 O   0  0  0  0  0  0  0  0  0  0  0  0
   16.2673   -6.9461   -8.6988 C   0  0  0  0  0  0  0  0  0  0  0  0
   16.5452   -7.0450  -10.1756 C   0  0  2  0  0  0  0  0  0  0  0  0
   16.2328   -8.4694  -10.5536 N   0  0  0  0  0  0  0  0  0  0  0  0
   17.9696   -6.9347  -10.5462 C   0  0  0  0  0  0  0  0  0  0  0  0
   18.8507   -7.6894   -9.9744 O   0  0  0  0  0  0  0  0  0  0  0  0
   18.5116   -6.0620  -11.5044 N   0  0  0  0  0  0  0  0  0  0  0  0
   19.9343   -6.1195  -11.8593 C   0  0  0  0  0  0  0  0  0  0  0  0
   20.1082   -6.9422  -13.0695 C   0  0  0  0  0  0  0  0  0  0  0  0
   21.3572   -7.0491  -13.6567 O   0  0  0  0  0  0  0  0  0  0  0  0
   19.0986   -7.5389  -13.5476 O   0  0  0  0  0  0  0  0  0  0  0  0
  2  1  1  0
  2  3  2  0
  4  2  1  0
  5  4  1  0
  6  7  1  6
  6  5  1  0
  8  6  1  0
  9  8  2  0
 10 11  1  0
 11 13  1  0
 11 12  2  0
 14 13  1  1
 14 15  1  0
 14 16  1  0
 15  8  1  0
 16 17  2  0
 16 18  1  0
 18 19  1  0
 19 20  1  0
 20 21  1  0
 22 20  2  0
M  END
$$$$
