DRF.pdb
     RDKit          3D

 31 31  0  0  1  0  0  0  0  0999 V2000
   10.1531  -13.1649   18.5356 N   0  0  0  0  0  0  0  0  0  0  0  0
    8.7937  -13.3524   18.9736 C   0  0  1  0  0  0  0  0  0  0  0  0
    7.8462  -13.5918   17.8191 C   0  0  0  0  0  0  0  0  0  0  0  0
    8.3778  -14.6589   16.9454 C   0  0  0  0  0  0  0  0  0  0  0  0
    9.4373  -15.2614   17.2197 O   0  0  0  0  0  0  0  0  0  0  0  0
    8.7807  -14.5189   19.8949 C   0  0  0  0  0  0  0  0  0  0  0  0
    7.7207  -15.0044   20.3578 O   0  0  0  0  0  0  0  0  0  0  0  0
    7.6902  -15.0006   15.7988 O   0  0  0  0  0  0  0  0  0  0  0  0
   14.1089  -14.6724   20.4925 N   0  0  0  0  0  0  0  0  0  0  0  0
   14.1817  -14.5551   19.0820 C   0  0  0  0  0  0  0  0  0  0  0  0
   15.0544  -13.7956   18.5344 N   0  0  0  0  0  0  0  0  0  0  0  0
   13.2561  -15.3072   18.3084 N   0  0  0  0  0  0  0  0  0  0  0  0
   12.2289  -16.0942   18.9365 C   0  0  0  0  0  0  0  0  0  0  0  0
   12.4469  -16.1161   20.4370 C   0  0  0  0  0  0  0  0  0  0  0  0
   11.3681  -17.0129   21.0165 C   0  0  0  0  0  0  0  0  0  0  0  0
   10.0902  -16.1918   21.2454 C   0  0  2  0  0  0  0  0  0  0  0  0
    9.9984  -15.1247   20.2810 N   0  0  0  0  0  0  0  0  0  0  0  0
   10.1199  -15.7309   22.6322 C   0  0  0  0  0  0  0  0  0  0  0  0
   11.0753  -15.0606   23.0845 O   0  0  0  0  0  0  0  0  0  0  0  0
   15.1038  -13.7058   17.5037 N   0  0  0  0  0  0  0  0  0  0  0  0
    9.0483  -16.0420   23.5023 C   0  0  1  0  0  0  0  0  0  0  0  0
    8.7747  -15.2519   24.6786 C   0  0  0  0  0  0  0  0  0  0  0  0
    7.7325  -14.2430   24.3041 C   0  0  0  0  0  0  0  0  0  0  0  0
    7.3040  -13.3752   25.4064 C   0  0  0  0  0  0  0  0  0  0  0  0
    8.1812  -12.4076   25.8653 C   0  0  0  0  0  0  0  0  0  0  0  0
    7.7993  -11.5843   26.8933 C   0  0  0  0  0  0  0  0  0  0  0  0
    6.5674  -11.7190   27.4565 C   0  0  0  0  0  0  0  0  0  0  0  0
    5.6943  -12.6924   26.9897 C   0  0  0  0  0  0  0  0  0  0  0  0
    6.0510  -13.5322   25.9596 C   0  0  0  0  0  0  0  0  0  0  0  0
    8.4116  -16.1227   25.8067 O   0  0  0  0  0  0  0  0  0  0  0  0
    7.6717  -17.1154   25.6051 O   0  0  0  0  0  0  0  0  0  0  0  0
  2  1  1  6
  3  2  1  0
  3  4  1  0
  4  5  2  0
  6  7  2  0
  6  2  1  0
  8  4  1  0
 10  9  1  0
 11 10  2  0
 12 13  1  0
 12 10  1  0
 13 14  1  0
 14 15  1  0
 16 15  1  6
 16 18  1  0
 16 17  1  0
 17  6  1  0
 18 20  1  0
 19 18  2  0
 20 21  1  0
 21 29  1  0
 22 23  1  0
 21 22  1  1
 23 24  2  0
 24 25  1  0
 26 25  2  0
 27 26  1  0
 28 27  2  0
 28 23  1  0
 29 30  2  0
 29 31  1  0
M  END
$$$$
