DRF.pdb
     RDKit          3D

 31 31  0  0  1  0  0  0  0  0999 V2000
    7.8367  -16.0728   18.9226 N   0  0  0  0  0  0  0  0  0  0  0  0
    8.3232  -15.1013   19.8684 C   0  0  1  0  0  0  0  0  0  0  0  0
    7.9670  -13.6856   19.4722 C   0  0  0  0  0  0  0  0  0  0  0  0
    8.6281  -13.3391   18.1965 C   0  0  0  0  0  0  0  0  0  0  0  0
    8.0535  -12.6476   17.3290 O   0  0  0  0  0  0  0  0  0  0  0  0
    7.7239  -15.4281   21.1889 C   0  0  0  0  0  0  0  0  0  0  0  0
    6.8338  -14.7227   21.7217 O   0  0  0  0  0  0  0  0  0  0  0  0
    9.9102  -13.7881   17.9544 O   0  0  0  0  0  0  0  0  0  0  0  0
    5.6200  -23.1424   22.6134 N   0  0  0  0  0  0  0  0  0  0  0  0
    5.2700  -22.2186   23.6295 C   0  0  0  0  0  0  0  0  0  0  0  0
    4.6896  -22.6141   24.6996 N   0  0  0  0  0  0  0  0  0  0  0  0
    5.5862  -20.8493   23.4144 N   0  0  0  0  0  0  0  0  0  0  0  0
    6.1985  -20.4116   22.1886 C   0  0  0  0  0  0  0  0  0  0  0  0
    6.2935  -18.8982   22.1762 C   0  0  0  0  0  0  0  0  0  0  0  0
    7.3931  -18.5270   23.1542 C   0  0  0  0  0  0  0  0  0  0  0  0
    7.5894  -17.0036   23.1477 C   0  0  2  0  0  0  0  0  0  0  0  0
    8.1563  -16.5747   21.8940 N   0  0  0  0  0  0  0  0  0  0  0  0
    8.4123  -16.6728   24.3095 C   0  0  0  0  0  0  0  0  0  0  0  0
    9.6626  -16.7067   24.2638 O   0  0  0  0  0  0  0  0  0  0  0  0
    4.4349  -21.9389   25.4426 N   0  0  0  0  0  0  0  0  0  0  0  0
    7.7961  -16.3023   25.5283 C   0  0  2  0  0  0  0  0  0  0  0  0
    8.5723  -15.9790   26.7012 C   0  0  0  0  0  0  0  0  0  0  0  0
    7.7344  -15.0761   27.5539 C   0  0  0  0  0  0  0  0  0  0  0  0
    7.3931  -13.7943   26.9277 C   0  0  0  0  0  0  0  0  0  0  0  0
    8.3486  -13.1634   26.1496 C   0  0  0  0  0  0  0  0  0  0  0  0
    8.0490  -11.9656   25.5532 C   0  0  0  0  0  0  0  0  0  0  0  0
    6.8215  -11.4030   25.7262 C   0  0  0  0  0  0  0  0  0  0  0  0
    5.8695  -12.0430   26.5084 C   0  0  0  0  0  0  0  0  0  0  0  0
    6.1428  -13.2458   27.1186 C   0  0  0  0  0  0  0  0  0  0  0  0
    9.0277  -17.2080   27.3681 O   0  0  0  0  0  0  0  0  0  0  0  0
    9.8116  -17.1249   28.3439 O   0  0  0  0  0  0  0  0  0  0  0  0
  2  1  1  6
  3  2  1  0
  3  4  1  0
  4  5  2  0
  6  7  2  0
  6  2  1  0
  8  4  1  0
 10  9  1  0
 11 10  2  0
 12 13  1  0
 12 10  1  0
 13 14  1  0
 14 15  1  0
 16 15  1  6
 16 18  1  0
 16 17  1  0
 17  6  1  0
 18 20  1  0
 19 18  2  0
 20 21  1  0
 21 29  1  0
 22 23  1  0
 21 22  1  6
 23 24  2  0
 24 25  1  0
 26 25  2  0
 27 26  1  0
 28 27  2  0
 28 23  1  0
 29 30  2  0
 29 31  1  0
M  END
$$$$
