DRF.pdb
     RDKit          3D

 31 31  0  0  1  0  0  0  0  0999 V2000
   13.6348  -18.7373   18.7662 N   0  0  0  0  0  0  0  0  0  0  0  0
   12.8092  -19.2554   19.8268 C   0  0  1  0  0  0  0  0  0  0  0  0
   13.5699  -20.1873   20.7437 C   0  0  0  0  0  0  0  0  0  0  0  0
   13.8660  -21.4534   20.0408 C   0  0  0  0  0  0  0  0  0  0  0  0
   13.5552  -21.6243   18.8429 O   0  0  0  0  0  0  0  0  0  0  0  0
   12.2919  -18.0929   20.5953 C   0  0  0  0  0  0  0  0  0  0  0  0
   13.0171  -17.1254   20.9296 O   0  0  0  0  0  0  0  0  0  0  0  0
   14.5005  -22.4729   20.7205 O   0  0  0  0  0  0  0  0  0  0  0  0
    8.0784  -13.6224   18.0054 N   0  0  0  0  0  0  0  0  0  0  0  0
    7.6974  -12.9775   19.2085 C   0  0  0  0  0  0  0  0  0  0  0  0
    8.0271  -11.7606   19.4295 N   0  0  0  0  0  0  0  0  0  0  0  0
    6.9424  -13.7290   20.1499 N   0  0  0  0  0  0  0  0  0  0  0  0
    7.2392  -15.1131   20.4057 C   0  0  0  0  0  0  0  0  0  0  0  0
    8.6566  -15.2442   20.9283 C   0  0  0  0  0  0  0  0  0  0  0  0
    8.8876  -16.7226   21.1823 C   0  0  0  0  0  0  0  0  0  0  0  0
   10.3288  -16.9382   21.6680 C   0  0  2  0  0  0  0  0  0  0  0  0
   10.9313  -18.0506   20.9774 N   0  0  0  0  0  0  0  0  0  0  0  0
   10.2711  -17.1073   23.1186 C   0  0  0  0  0  0  0  0  0  0  0  0
    9.9088  -18.1843   23.6435 O   0  0  0  0  0  0  0  0  0  0  0  0
    7.7710  -11.2976   20.3199 N   0  0  0  0  0  0  0  0  0  0  0  0
   10.6306  -16.0350   23.9690 C   0  0  2  0  0  0  0  0  0  0  0  0
   10.4888  -16.1254   25.4023 C   0  0  0  0  0  0  0  0  0  0  0  0
   10.7491  -14.7603   25.9618 C   0  0  0  0  0  0  0  0  0  0  0  0
   10.5589  -14.6524   27.4124 C   0  0  0  0  0  0  0  0  0  0  0  0
    9.6860  -13.6926   27.8951 C   0  0  0  0  0  0  0  0  0  0  0  0
    9.4920  -13.5767   29.2476 C   0  0  0  0  0  0  0  0  0  0  0  0
   10.1534  -14.3998   30.1068 C   0  0  0  0  0  0  0  0  0  0  0  0
   11.0271  -15.3595   29.6135 C   0  0  0  0  0  0  0  0  0  0  0  0
   11.2408  -15.4980   28.2612 C   0  0  0  0  0  0  0  0  0  0  0  0
    9.1786  -16.6946   25.7519 O   0  0  0  0  0  0  0  0  0  0  0  0
    8.1534  -16.2962   25.1487 O   0  0  0  0  0  0  0  0  0  0  0  0
  2  1  1  6
  3  2  1  0
  3  4  1  0
  4  5  2  0
  6  7  2  0
  6  2  1  0
  8  4  1  0
 10  9  1  0
 11 10  2  0
 12 13  1  0
 12 10  1  0
 13 14  1  0
 14 15  1  0
 16 15  1  6
 16 18  1  0
 16 17  1  0
 17  6  1  0
 18 20  1  0
 19 18  2  0
 20 21  1  0
 21 29  1  0
 22 23  1  0
 21 22  1  6
 23 24  2  0
 24 25  1  0
 26 25  2  0
 27 26  1  0
 28 27  2  0
 28 23  1  0
 29 30  2  0
 29 31  1  0
M  END
$$$$
