DRF.pdb
     RDKit          3D

 31 31  0  0  1  0  0  0  0  0999 V2000
   12.6969  -16.5583   20.0461 N   0  0  0  0  0  0  0  0  0  0  0  0
   13.2784  -15.5590   20.9053 C   0  0  1  0  0  0  0  0  0  0  0  0
   13.5803  -14.2731   20.1683 C   0  0  0  0  0  0  0  0  0  0  0  0
   14.9012  -14.3681   19.5119 C   0  0  0  0  0  0  0  0  0  0  0  0
   15.6314  -15.3718   19.6541 O   0  0  0  0  0  0  0  0  0  0  0  0
   12.3120  -15.3022   22.0053 C   0  0  0  0  0  0  0  0  0  0  0  0
   12.5216  -14.4555   22.9068 O   0  0  0  0  0  0  0  0  0  0  0  0
   15.3416  -13.3254   18.7225 O   0  0  0  0  0  0  0  0  0  0  0  0
    7.6381  -14.7873   18.5607 N   0  0  0  0  0  0  0  0  0  0  0  0
    7.6979  -13.5441   19.2384 C   0  0  0  0  0  0  0  0  0  0  0  0
    7.9171  -12.4597   18.5947 N   0  0  0  0  0  0  0  0  0  0  0  0
    7.5066  -13.5502   20.6471 N   0  0  0  0  0  0  0  0  0  0  0  0
    7.2733  -14.7774   21.3603 C   0  0  0  0  0  0  0  0  0  0  0  0
    8.4782  -15.6873   21.2206 C   0  0  0  0  0  0  0  0  0  0  0  0
    8.7265  -16.2879   22.5922 C   0  0  0  0  0  0  0  0  0  0  0  0
   10.1116  -15.8553   23.0960 C   0  0  2  0  0  0  0  0  0  0  0  0
   11.0997  -16.0276   22.0611 N   0  0  0  0  0  0  0  0  0  0  0  0
   10.3868  -16.6262   24.3069 C   0  0  0  0  0  0  0  0  0  0  0  0
   11.1974  -17.5798   24.3121 O   0  0  0  0  0  0  0  0  0  0  0  0
    8.0608  -11.5663   19.0988 N   0  0  0  0  0  0  0  0  0  0  0  0
    9.7279  -16.3003   25.5160 C   0  0  2  0  0  0  0  0  0  0  0  0
    9.9519  -17.0530   26.7268 C   0  0  0  0  0  0  0  0  0  0  0  0
    9.2822  -16.3105   27.8423 C   0  0  0  0  0  0  0  0  0  0  0  0
    9.3971  -14.8507   27.7548 C   0  0  0  0  0  0  0  0  0  0  0  0
    8.3536  -14.1381   27.1894 C   0  0  0  0  0  0  0  0  0  0  0  0
    8.4399  -12.7725   27.1002 C   0  0  0  0  0  0  0  0  0  0  0  0
    9.5436  -12.1248   27.5643 C   0  0  0  0  0  0  0  0  0  0  0  0
   10.5854  -12.8478   28.1297 C   0  0  0  0  0  0  0  0  0  0  0  0
   10.5255  -14.2188   28.2322 C   0  0  0  0  0  0  0  0  0  0  0  0
    9.5030  -18.4430   26.5555 O   0  0  0  0  0  0  0  0  0  0  0  0
    8.8390  -18.7547   25.5379 O   0  0  0  0  0  0  0  0  0  0  0  0
  2  1  1  6
  3  2  1  0
  3  4  1  0
  4  5  2  0
  6  7  2  0
  6  2  1  0
  8  4  1  0
 10  9  1  0
 11 10  2  0
 12 13  1  0
 12 10  1  0
 13 14  1  0
 14 15  1  0
 16 15  1  6
 16 18  1  0
 16 17  1  0
 17  6  1  0
 18 20  1  0
 19 18  2  0
 20 21  1  0
 21 29  1  0
 22 23  1  0
 21 22  1  6
 23 24  2  0
 24 25  1  0
 26 25  2  0
 27 26  1  0
 28 27  2  0
 28 23  1  0
 29 30  2  0
 29 31  1  0
M  END
$$$$
