DRF.pdb
     RDKit          3D

 31 31  0  0  1  0  0  0  0  0999 V2000
   12.0004  -19.0301   19.2876 N   0  0  0  0  0  0  0  0  0  0  0  0
   12.9900  -18.0617   19.6851 C   0  0  1  0  0  0  0  0  0  0  0  0
   13.5311  -17.2780   18.5099 C   0  0  0  0  0  0  0  0  0  0  0  0
   14.9847  -17.5104   18.3772 C   0  0  0  0  0  0  0  0  0  0  0  0
   15.7670  -16.5913   18.0544 O   0  0  0  0  0  0  0  0  0  0  0  0
   12.3454  -17.1419   20.6588 C   0  0  0  0  0  0  0  0  0  0  0  0
   13.0033  -16.3971   21.4244 O   0  0  0  0  0  0  0  0  0  0  0  0
   15.4935  -18.7709   18.6145 O   0  0  0  0  0  0  0  0  0  0  0  0
    8.1333  -12.5592   18.3519 N   0  0  0  0  0  0  0  0  0  0  0  0
    7.7432  -13.6771   17.5731 C   0  0  0  0  0  0  0  0  0  0  0  0
    7.9575  -13.7004   16.3113 N   0  0  0  0  0  0  0  0  0  0  0  0
    7.1110  -14.7601   18.2428 N   0  0  0  0  0  0  0  0  0  0  0  0
    7.1827  -14.8931   19.6733 C   0  0  0  0  0  0  0  0  0  0  0  0
    8.6337  -14.9144   20.1130 C   0  0  0  0  0  0  0  0  0  0  0  0
    8.7600  -16.0343   21.1296 C   0  0  0  0  0  0  0  0  0  0  0  0
   10.2234  -16.1508   21.5819 C   0  0  2  0  0  0  0  0  0  0  0  0
   10.9355  -17.0843   20.7459 N   0  0  0  0  0  0  0  0  0  0  0  0
   10.2065  -16.5210   22.9957 C   0  0  0  0  0  0  0  0  0  0  0  0
   10.1613  -17.7163   23.3644 O   0  0  0  0  0  0  0  0  0  0  0  0
    7.7041  -14.5318   15.7480 N   0  0  0  0  0  0  0  0  0  0  0  0
   10.2410  -15.5141   23.9893 C   0  0  2  0  0  0  0  0  0  0  0  0
   10.1777  -15.8353   25.3949 C   0  0  0  0  0  0  0  0  0  0  0  0
   10.4982  -14.5829   26.1520 C   0  0  0  0  0  0  0  0  0  0  0  0
   10.4331  -14.7222   27.6109 C   0  0  0  0  0  0  0  0  0  0  0  0
   11.4082  -15.4703   28.2477 C   0  0  0  0  0  0  0  0  0  0  0  0
   11.3671  -15.6110   29.6111 C   0  0  0  0  0  0  0  0  0  0  0  0
   10.3746  -15.0190   30.3305 C   0  0  0  0  0  0  0  0  0  0  0  0
    9.4008  -14.2706   29.6832 C   0  0  0  0  0  0  0  0  0  0  0  0
    9.4175  -14.1126   28.3162 C   0  0  0  0  0  0  0  0  0  0  0  0
    8.8771  -16.4380   25.7238 O   0  0  0  0  0  0  0  0  0  0  0  0
    7.8402  -16.0091   25.1631 O   0  0  0  0  0  0  0  0  0  0  0  0
  2  1  1  6
  3  2  1  0
  3  4  1  0
  4  5  2  0
  6  7  2  0
  6  2  1  0
  8  4  1  0
 10  9  1  0
 11 10  2  0
 12 13  1  0
 12 10  1  0
 13 14  1  0
 14 15  1  0
 16 15  1  6
 16 18  1  0
 16 17  1  0
 17  6  1  0
 18 20  1  0
 19 18  2  0
 20 21  1  0
 21 29  1  0
 22 23  1  0
 21 22  1  6
 23 24  2  0
 24 25  1  0
 26 25  2  0
 27 26  1  0
 28 27  2  0
 28 23  1  0
 29 30  2  0
 29 31  1  0
M  END
$$$$
