DRF.pdb
     RDKit          3D

 31 31  0  0  1  0  0  0  0  0999 V2000
    6.8435  -19.3306   23.7491 N   0  0  0  0  0  0  0  0  0  0  0  0
    7.9947  -19.7227   22.9772 C   0  0  1  0  0  0  0  0  0  0  0  0
    7.6391  -20.0587   21.5459 C   0  0  0  0  0  0  0  0  0  0  0  0
    6.4010  -20.8654   21.5116 C   0  0  0  0  0  0  0  0  0  0  0  0
    5.7845  -21.1617   22.5569 O   0  0  0  0  0  0  0  0  0  0  0  0
    8.9588  -18.5918   23.0116 C   0  0  0  0  0  0  0  0  0  0  0  0
   10.1849  -18.7534   23.2224 O   0  0  0  0  0  0  0  0  0  0  0  0
    5.9116  -21.3033   20.2980 O   0  0  0  0  0  0  0  0  0  0  0  0
    8.8765  -13.8536   18.2110 N   0  0  0  0  0  0  0  0  0  0  0  0
    8.4463  -12.8652   19.1310 C   0  0  0  0  0  0  0  0  0  0  0  0
    8.8461  -11.6541   19.0223 N   0  0  0  0  0  0  0  0  0  0  0  0
    7.5622  -13.2690   20.1685 N   0  0  0  0  0  0  0  0  0  0  0  0
    7.1429  -14.6390   20.2964 C   0  0  0  0  0  0  0  0  0  0  0  0
    7.3989  -15.1224   21.7107 C   0  0  0  0  0  0  0  0  0  0  0  0
    8.8957  -15.0158   21.9387 C   0  0  0  0  0  0  0  0  0  0  0  0
    9.3406  -16.1049   22.9264 C   0  0  2  0  0  0  0  0  0  0  0  0
    8.5020  -17.2704   22.8013 N   0  0  0  0  0  0  0  0  0  0  0  0
    9.3222  -15.5070   24.2600 C   0  0  0  0  0  0  0  0  0  0  0  0
    8.8743  -14.3556   24.4609 O   0  0  0  0  0  0  0  0  0  0  0  0
    8.6236  -10.9569   19.7552 N   0  0  0  0  0  0  0  0  0  0  0  0
    9.8208  -16.2346   25.3665 C   0  0  1  0  0  0  0  0  0  0  0  0
    9.6881  -15.7436   26.7170 C   0  0  0  0  0  0  0  0  0  0  0  0
    8.2227  -15.6520   27.0149 C   0  0  0  0  0  0  0  0  0  0  0  0
    7.6379  -14.3268   26.7835 C   0  0  0  0  0  0  0  0  0  0  0  0
    6.3321  -14.2504   26.3304 C   0  0  0  0  0  0  0  0  0  0  0  0
    5.7656  -13.0212   26.1101 C   0  0  0  0  0  0  0  0  0  0  0  0
    6.4832  -11.8866   26.3357 C   0  0  0  0  0  0  0  0  0  0  0  0
    7.7923  -11.9730   26.7901 C   0  0  0  0  0  0  0  0  0  0  0  0
    8.3859  -13.1931   27.0197 C   0  0  0  0  0  0  0  0  0  0  0  0
   10.4537  -16.5883   27.6461 O   0  0  0  0  0  0  0  0  0  0  0  0
   10.6216  -16.2069   28.8292 O   0  0  0  0  0  0  0  0  0  0  0  0
  2  1  1  1
  3  2  1  0
  3  4  1  0
  4  5  2  0
  6  7  2  0
  6  2  1  0
  8  4  1  0
 10  9  1  0
 11 10  2  0
 12 13  1  0
 12 10  1  0
 13 14  1  0
 14 15  1  0
 16 15  1  6
 16 18  1  0
 16 17  1  0
 17  6  1  0
 18 20  1  0
 19 18  2  0
 20 21  1  0
 21 29  1  0
 22 23  1  0
 21 22  1  1
 23 24  2  0
 24 25  1  0
 26 25  2  0
 27 26  1  0
 28 27  2  0
 28 23  1  0
 29 30  2  0
 29 31  1  0
M  END
$$$$
