DRF.pdb
     RDKit          3D

 31 31  0  0  1  0  0  0  0  0999 V2000
   11.7578  -19.4417   21.8647 N   0  0  0  0  0  0  0  0  0  0  0  0
   12.6305  -18.2969   21.8106 C   0  0  1  0  0  0  0  0  0  0  0  0
   13.3935  -18.2175   20.5069 C   0  0  0  0  0  0  0  0  0  0  0  0
   14.3679  -17.1075   20.5615 C   0  0  0  0  0  0  0  0  0  0  0  0
   14.9851  -16.8302   21.6117 O   0  0  0  0  0  0  0  0  0  0  0  0
   11.7858  -17.0858   21.9823 C   0  0  0  0  0  0  0  0  0  0  0  0
   12.2700  -15.9403   22.1462 O   0  0  0  0  0  0  0  0  0  0  0  0
   14.6041  -16.3575   19.4275 O   0  0  0  0  0  0  0  0  0  0  0  0
    7.9455  -11.9034   19.1329 N   0  0  0  0  0  0  0  0  0  0  0  0
    8.0507  -13.1044   18.3879 C   0  0  0  0  0  0  0  0  0  0  0  0
    8.2161  -13.0730   17.1190 N   0  0  0  0  0  0  0  0  0  0  0  0
    7.9658  -14.3323   19.0993 N   0  0  0  0  0  0  0  0  0  0  0  0
    6.9588  -14.5405   20.1051 C   0  0  0  0  0  0  0  0  0  0  0  0
    7.6184  -14.7408   21.4557 C   0  0  0  0  0  0  0  0  0  0  0  0
    8.2495  -16.1209   21.4271 C   0  0  0  0  0  0  0  0  0  0  0  0
    9.4819  -16.1378   22.3438 C   0  0  2  0  0  0  0  0  0  0  0  0
   10.3769  -17.2017   21.9639 N   0  0  0  0  0  0  0  0  0  0  0  0
    8.9927  -16.2425   23.7172 C   0  0  0  0  0  0  0  0  0  0  0  0
    8.0580  -17.0148   24.0278 O   0  0  0  0  0  0  0  0  0  0  0  0
    8.3098  -13.9506   16.5770 N   0  0  0  0  0  0  0  0  0  0  0  0
    9.5794  -15.4564   24.7371 C   0  0  2  0  0  0  0  0  0  0  0  0
    9.1615  -15.5684   26.1139 C   0  0  0  0  0  0  0  0  0  0  0  0
    7.6895  -15.2932   26.1556 C   0  0  0  0  0  0  0  0  0  0  0  0
    7.3412  -13.8800   26.3382 C   0  0  0  0  0  0  0  0  0  0  0  0
    8.3576  -12.9404   26.3162 C   0  0  0  0  0  0  0  0  0  0  0  0
    8.0532  -11.6138   26.4826 C   0  0  0  0  0  0  0  0  0  0  0  0
    6.7616  -11.2260   26.6678 C   0  0  0  0  0  0  0  0  0  0  0  0
    5.7487  -12.1754   26.6885 C   0  0  0  0  0  0  0  0  0  0  0  0
    6.0253  -13.5134   26.5241 C   0  0  0  0  0  0  0  0  0  0  0  0
    9.5600  -16.8724   26.6650 O   0  0  0  0  0  0  0  0  0  0  0  0
    9.5618  -17.8813   25.9197 O   0  0  0  0  0  0  0  0  0  0  0  0
  2  1  1  6
  3  2  1  0
  3  4  1  0
  4  5  2  0
  6  7  2  0
  6  2  1  0
  8  4  1  0
 10  9  1  0
 11 10  2  0
 12 13  1  0
 12 10  1  0
 13 14  1  0
 14 15  1  0
 16 15  1  6
 16 18  1  0
 16 17  1  0
 17  6  1  0
 18 20  1  0
 19 18  2  0
 20 21  1  0
 21 29  1  0
 22 23  1  0
 21 22  1  1
 23 24  2  0
 24 25  1  0
 26 25  2  0
 27 26  1  0
 28 27  2  0
 28 23  1  0
 29 30  2  0
 29 31  1  0
M  END
$$$$
