DRF.pdb
     RDKit          3D

 31 31  0  0  1  0  0  0  0  0999 V2000
   10.1139  -19.0765   21.5207 N   0  0  0  0  0  0  0  0  0  0  0  0
   11.3734  -18.3923   21.6642 C   0  0  1  0  0  0  0  0  0  0  0  0
   12.1437  -18.3285   20.3640 C   0  0  0  0  0  0  0  0  0  0  0  0
   12.7392  -19.6483   20.0671 C   0  0  0  0  0  0  0  0  0  0  0  0
   12.4912  -20.6507   20.7704 O   0  0  0  0  0  0  0  0  0  0  0  0
   11.0799  -17.0190   22.1517 C   0  0  0  0  0  0  0  0  0  0  0  0
   11.9814  -16.1942   22.4357 O   0  0  0  0  0  0  0  0  0  0  0  0
   13.5896  -19.7803   18.9885 O   0  0  0  0  0  0  0  0  0  0  0  0
    8.0682  -12.1668   18.6719 N   0  0  0  0  0  0  0  0  0  0  0  0
    7.7801  -13.3433   17.9363 C   0  0  0  0  0  0  0  0  0  0  0  0
    8.2083  -13.4855   16.7384 N   0  0  0  0  0  0  0  0  0  0  0  0
    7.0045  -14.3486   18.5758 N   0  0  0  0  0  0  0  0  0  0  0  0
    6.8872  -14.3977   20.0087 C   0  0  0  0  0  0  0  0  0  0  0  0
    8.2594  -14.5779   20.6283 C   0  0  0  0  0  0  0  0  0  0  0  0
    8.0334  -14.8591   22.1026 C   0  0  0  0  0  0  0  0  0  0  0  0
    9.3603  -15.2809   22.7513 C   0  0  2  0  0  0  0  0  0  0  0  0
    9.7390  -16.5998   22.3103 N   0  0  0  0  0  0  0  0  0  0  0  0
    9.1834  -15.1723   24.1981 C   0  0  0  0  0  0  0  0  0  0  0  0
    8.7516  -14.1265   24.7334 O   0  0  0  0  0  0  0  0  0  0  0  0
    8.0004  -14.3469   16.2022 N   0  0  0  0  0  0  0  0  0  0  0  0
    9.5043  -16.2690   25.0326 C   0  0  1  0  0  0  0  0  0  0  0  0
    9.4482  -16.1673   26.4711 C   0  0  0  0  0  0  0  0  0  0  0  0
    8.0729  -15.6939   26.8301 C   0  0  0  0  0  0  0  0  0  0  0  0
    7.9030  -14.2374   26.7921 C   0  0  0  0  0  0  0  0  0  0  0  0
    8.9129  -13.4405   27.3034 C   0  0  0  0  0  0  0  0  0  0  0  0
    8.7751  -12.0765   27.2753 C   0  0  0  0  0  0  0  0  0  0  0  0
    7.6537  -11.5127   26.7485 C   0  0  0  0  0  0  0  0  0  0  0  0
    6.6459  -12.3198   26.2380 C   0  0  0  0  0  0  0  0  0  0  0  0
    6.7576  -13.6914   26.2532 C   0  0  0  0  0  0  0  0  0  0  0  0
    9.8417  -17.4421   27.0899 O   0  0  0  0  0  0  0  0  0  0  0  0
   10.0973  -18.4286   26.3585 O   0  0  0  0  0  0  0  0  0  0  0  0
  2  1  1  6
  3  2  1  0
  3  4  1  0
  4  5  2  0
  6  7  2  0
  6  2  1  0
  8  4  1  0
 10  9  1  0
 11 10  2  0
 12 13  1  0
 12 10  1  0
 13 14  1  0
 14 15  1  0
 16 15  1  6
 16 18  1  0
 16 17  1  0
 17  6  1  0
 18 20  1  0
 19 18  2  0
 20 21  1  0
 21 29  1  0
 22 23  1  0
 21 22  1  1
 23 24  2  0
 24 25  1  0
 26 25  2  0
 27 26  1  0
 28 27  2  0
 28 23  1  0
 29 30  2  0
 29 31  1  0
M  END
$$$$
