DRF.pdb
     RDKit          3D

 31 31  0  0  1  0  0  0  0  0999 V2000
    8.8791  -18.6304   20.6050 N   0  0  0  0  0  0  0  0  0  0  0  0
   10.2724  -18.3150   20.7901 C   0  0  1  0  0  0  0  0  0  0  0  0
   11.0593  -18.4119   19.5019 C   0  0  0  0  0  0  0  0  0  0  0  0
   11.0846  -19.8132   19.0324 C   0  0  0  0  0  0  0  0  0  0  0  0
   10.4076  -20.7022   19.5910 O   0  0  0  0  0  0  0  0  0  0  0  0
   10.3468  -16.9324   21.3311 C   0  0  0  0  0  0  0  0  0  0  0  0
   11.4326  -16.3236   21.4863 O   0  0  0  0  0  0  0  0  0  0  0  0
   11.8734  -20.1511   17.9518 O   0  0  0  0  0  0  0  0  0  0  0  0
    8.3638  -12.3017   17.6050 N   0  0  0  0  0  0  0  0  0  0  0  0
    8.2271  -13.7052   17.4638 C   0  0  0  0  0  0  0  0  0  0  0  0
    8.7334  -14.3123   16.4571 N   0  0  0  0  0  0  0  0  0  0  0  0
    7.5124  -14.4040   18.4747 N   0  0  0  0  0  0  0  0  0  0  0  0
    7.0063  -13.7203   19.6347 C   0  0  0  0  0  0  0  0  0  0  0  0
    8.1477  -13.4076   20.5828 C   0  0  0  0  0  0  0  0  0  0  0  0
    7.8722  -14.1810   21.8594 C   0  0  0  0  0  0  0  0  0  0  0  0
    9.1405  -14.9378   22.2816 C   0  0  2  0  0  0  0  0  0  0  0  0
    9.1608  -16.2532   21.6929 N   0  0  0  0  0  0  0  0  0  0  0  0
    9.1675  -14.9465   23.7430 C   0  0  0  0  0  0  0  0  0  0  0  0
    9.5299  -13.9462   24.4023 O   0  0  0  0  0  0  0  0  0  0  0  0
    8.6714  -15.3430   16.3763 N   0  0  0  0  0  0  0  0  0  0  0  0
    8.7771  -16.1089   24.4491 C   0  0  1  0  0  0  0  0  0  0  0  0
    8.9067  -16.2024   25.8834 C   0  0  0  0  0  0  0  0  0  0  0  0
    7.5567  -15.9257   26.4709 C   0  0  0  0  0  0  0  0  0  0  0  0
    7.2214  -14.5015   26.5774 C   0  0  0  0  0  0  0  0  0  0  0  0
    8.1378  -13.6491   27.1689 C   0  0  0  0  0  0  0  0  0  0  0  0
    7.8451  -12.3138   27.2762 C   0  0  0  0  0  0  0  0  0  0  0  0
    6.6624  -11.8324   26.8044 C   0  0  0  0  0  0  0  0  0  0  0  0
    5.7493  -12.6949   26.2127 C   0  0  0  0  0  0  0  0  0  0  0  0
    6.0169  -14.0394   26.0917 C   0  0  0  0  0  0  0  0  0  0  0  0
    9.4885  -17.4993   26.2610 O   0  0  0  0  0  0  0  0  0  0  0  0
   10.6357  -17.8015   25.8536 O   0  0  0  0  0  0  0  0  0  0  0  0
  2  1  1  6
  3  2  1  0
  3  4  1  0
  4  5  2  0
  6  7  2  0
  6  2  1  0
  8  4  1  0
 10  9  1  0
 11 10  2  0
 12 13  1  0
 12 10  1  0
 13 14  1  0
 14 15  1  0
 16 15  1  1
 16 18  1  0
 16 17  1  0
 17  6  1  0
 18 20  1  0
 19 18  2  0
 20 21  1  0
 21 29  1  0
 22 23  1  0
 21 22  1  1
 23 24  2  0
 24 25  1  0
 26 25  2  0
 27 26  1  0
 28 27  2  0
 28 23  1  0
 29 30  2  0
 29 31  1  0
M  END
$$$$
