DRF.pdb
     RDKit          3D

 31 31  0  0  1  0  0  0  0  0999 V2000
    5.6564  -19.6071   24.9559 N   0  0  0  0  0  0  0  0  0  0  0  0
    7.0458  -19.9112   25.1840 C   0  0  1  0  0  0  0  0  0  0  0  0
    7.3441  -21.3859   25.0283 C   0  0  0  0  0  0  0  0  0  0  0  0
    6.3634  -22.1811   25.7969 C   0  0  0  0  0  0  0  0  0  0  0  0
    5.6724  -23.0690   25.2540 O   0  0  0  0  0  0  0  0  0  0  0  0
    7.8395  -19.1236   24.2045 C   0  0  0  0  0  0  0  0  0  0  0  0
    9.0588  -19.3330   23.9965 O   0  0  0  0  0  0  0  0  0  0  0  0
    6.2047  -21.9397   27.1462 O   0  0  0  0  0  0  0  0  0  0  0  0
    7.4811  -12.6333   19.7841 N   0  0  0  0  0  0  0  0  0  0  0  0
    7.8943  -13.2834   18.5946 C   0  0  0  0  0  0  0  0  0  0  0  0
    8.5746  -12.6558   17.7103 N   0  0  0  0  0  0  0  0  0  0  0  0
    7.5266  -14.6461   18.4250 N   0  0  0  0  0  0  0  0  0  0  0  0
    6.8108  -15.3561   19.4509 C   0  0  0  0  0  0  0  0  0  0  0  0
    7.7640  -15.7448   20.5643 C   0  0  0  0  0  0  0  0  0  0  0  0
    6.9849  -16.6469   21.5039 C   0  0  0  0  0  0  0  0  0  0  0  0
    7.9310  -17.2044   22.5779 C   0  0  2  0  0  0  0  0  0  0  0  0
    7.2196  -18.0912   23.4637 N   0  0  0  0  0  0  0  0  0  0  0  0
    8.5352  -16.0577   23.2534 C   0  0  0  0  0  0  0  0  0  0  0  0
    8.0095  -14.9222   23.2240 O   0  0  0  0  0  0  0  0  0  0  0  0
    8.7973  -13.1006   16.8018 N   0  0  0  0  0  0  0  0  0  0  0  0
    9.7481  -16.2164   23.9647 C   0  0  1  0  0  0  0  0  0  0  0  0
   10.0208  -15.4728   25.1712 C   0  0  0  0  0  0  0  0  0  0  0  0
    8.8151  -15.5965   26.0518 C   0  0  0  0  0  0  0  0  0  0  0  0
    8.2074  -14.3167   26.4321 C   0  0  0  0  0  0  0  0  0  0  0  0
    7.1639  -13.8267   25.6657 C   0  0  0  0  0  0  0  0  0  0  0  0
    6.5802  -12.6333   26.0055 C   0  0  0  0  0  0  0  0  0  0  0  0
    7.0249  -11.9376   27.0878 C   0  0  0  0  0  0  0  0  0  0  0  0
    8.0721  -12.4368   27.8505 C   0  0  0  0  0  0  0  0  0  0  0  0
    8.6763  -13.6317   27.5327 C   0  0  0  0  0  0  0  0  0  0  0  0
   11.2783  -15.9305   25.7811 O   0  0  0  0  0  0  0  0  0  0  0  0
   11.9556  -15.1304   26.4699 O   0  0  0  0  0  0  0  0  0  0  0  0
  2  1  1  6
  3  2  1  0
  3  4  1  0
  4  5  2  0
  6  7  2  0
  6  2  1  0
  8  4  1  0
 10  9  1  0
 11 10  2  0
 12 13  1  0
 12 10  1  0
 13 14  1  0
 14 15  1  0
 16 15  1  6
 16 18  1  0
 16 17  1  0
 17  6  1  0
 18 20  1  0
 19 18  2  0
 20 21  1  0
 21 29  1  0
 22 23  1  0
 21 22  1  1
 23 24  2  0
 24 25  1  0
 26 25  2  0
 27 26  1  0
 28 27  2  0
 28 23  1  0
 29 30  2  0
 29 31  1  0
M  END
$$$$
