DRF.pdb
     RDKit          3D

 31 31  0  0  1  0  0  0  0  0999 V2000
    7.6281  -16.3858   17.2953 N   0  0  0  0  0  0  0  0  0  0  0  0
    8.4292  -15.5994   18.1980 C   0  0  1  0  0  0  0  0  0  0  0  0
    8.2401  -14.1135   17.9877 C   0  0  0  0  0  0  0  0  0  0  0  0
    8.7260  -13.7298   16.6456 C   0  0  0  0  0  0  0  0  0  0  0  0
    9.8290  -14.1248   16.2119 O   0  0  0  0  0  0  0  0  0  0  0  0
    8.0357  -15.9734   19.5818 C   0  0  0  0  0  0  0  0  0  0  0  0
    6.8533  -15.8966   19.9937 O   0  0  0  0  0  0  0  0  0  0  0  0
    7.9455  -12.9162   15.8500 O   0  0  0  0  0  0  0  0  0  0  0  0
    6.3932  -20.8642   25.5293 N   0  0  0  0  0  0  0  0  0  0  0  0
    7.2728  -21.5471   24.6529 C   0  0  0  0  0  0  0  0  0  0  0  0
    6.8822  -22.5855   24.0145 N   0  0  0  0  0  0  0  0  0  0  0  0
    8.5926  -21.0376   24.5129 N   0  0  0  0  0  0  0  0  0  0  0  0
    9.0309  -20.4371   23.2815 C   0  0  0  0  0  0  0  0  0  0  0  0
    8.5826  -18.9894   23.2303 C   0  0  0  0  0  0  0  0  0  0  0  0
    9.0012  -18.4560   21.8723 C   0  0  0  0  0  0  0  0  0  0  0  0
    8.7076  -16.9499   21.8027 C   0  0  2  0  0  0  0  0  0  0  0  0
    9.0139  -16.4378   20.4908 N   0  0  0  0  0  0  0  0  0  0  0  0
    9.4706  -16.3148   22.8755 C   0  0  0  0  0  0  0  0  0  0  0  0
   10.4695  -15.5984   22.6400 O   0  0  0  0  0  0  0  0  0  0  0  0
    7.5121  -23.0608   23.3436 N   0  0  0  0  0  0  0  0  0  0  0  0
    9.0846  -16.5041   24.2236 C   0  0  2  0  0  0  0  0  0  0  0  0
    8.8826  -15.3887   25.1168 C   0  0  0  0  0  0  0  0  0  0  0  0
    7.8517  -14.4994   24.4917 C   0  0  0  0  0  0  0  0  0  0  0  0
    7.4755  -13.3396   25.3073 C   0  0  0  0  0  0  0  0  0  0  0  0
    6.3662  -13.4412   26.1291 C   0  0  0  0  0  0  0  0  0  0  0  0
    5.9989  -12.3693   26.9015 C   0  0  0  0  0  0  0  0  0  0  0  0
    6.7205  -11.2158   26.8590 C   0  0  0  0  0  0  0  0  0  0  0  0
    7.8316  -11.1231   26.0316 C   0  0  0  0  0  0  0  0  0  0  0  0
    8.2230  -12.1829   25.2458 C   0  0  0  0  0  0  0  0  0  0  0  0
    8.5460  -15.8680   26.4658 O   0  0  0  0  0  0  0  0  0  0  0  0
    7.7534  -16.8313   26.5971 O   0  0  0  0  0  0  0  0  0  0  0  0
  2  1  1  6
  3  2  1  0
  3  4  1  0
  4  5  2  0
  6  7  2  0
  6  2  1  0
  8  4  1  0
 10  9  1  0
 11 10  2  0
 12 13  1  0
 12 10  1  0
 13 14  1  0
 14 15  1  0
 16 15  1  6
 16 18  1  0
 16 17  1  0
 17  6  1  0
 18 20  1  0
 19 18  2  0
 20 21  1  0
 21 29  1  0
 22 23  1  0
 21 22  1  6
 23 24  2  0
 24 25  1  0
 26 25  2  0
 27 26  1  0
 28 27  2  0
 28 23  1  0
 29 30  2  0
 29 31  1  0
M  END
$$$$
