DRF.pdb
     RDKit          3D

 31 31  0  0  1  0  0  0  0  0999 V2000
    6.0720  -18.5267   23.5080 N   0  0  0  0  0  0  0  0  0  0  0  0
    6.9350  -19.0274   22.4690 C   0  0  1  0  0  0  0  0  0  0  0  0
    6.1848  -19.3121   21.1868 C   0  0  0  0  0  0  0  0  0  0  0  0
    7.1216  -19.8041   20.1548 C   0  0  0  0  0  0  0  0  0  0  0  0
    7.6550  -20.9306   20.2396 O   0  0  0  0  0  0  0  0  0  0  0  0
    7.9837  -18.0013   22.2299 C   0  0  0  0  0  0  0  0  0  0  0  0
    9.0823  -18.2697   21.6870 O   0  0  0  0  0  0  0  0  0  0  0  0
    7.4165  -19.0030   19.0707 O   0  0  0  0  0  0  0  0  0  0  0  0
    8.9239  -15.0708   18.0837 N   0  0  0  0  0  0  0  0  0  0  0  0
    8.2154  -13.8519   17.9400 C   0  0  0  0  0  0  0  0  0  0  0  0
    8.6382  -12.9406   17.1467 N   0  0  0  0  0  0  0  0  0  0  0  0
    7.0286  -13.6840   18.7045 N   0  0  0  0  0  0  0  0  0  0  0  0
    7.0725  -13.6192   20.1408 C   0  0  0  0  0  0  0  0  0  0  0  0
    8.3557  -14.2527   20.6424 C   0  0  0  0  0  0  0  0  0  0  0  0
    8.2459  -14.3096   22.1551 C   0  0  0  0  0  0  0  0  0  0  0  0
    8.7912  -15.6554   22.6563 C   0  0  2  0  0  0  0  0  0  0  0  0
    7.7595  -16.6611   22.6202 N   0  0  0  0  0  0  0  0  0  0  0  0
    9.3415  -15.4243   23.9905 C   0  0  0  0  0  0  0  0  0  0  0  0
   10.2330  -14.5707   24.1979 O   0  0  0  0  0  0  0  0  0  0  0  0
    8.1290  -12.0435   17.0539 N   0  0  0  0  0  0  0  0  0  0  0  0
    8.8659  -16.1773   25.0901 C   0  0  1  0  0  0  0  0  0  0  0  0
    9.3892  -15.9860   26.4214 C   0  0  0  0  0  0  0  0  0  0  0  0
    8.2496  -15.5452   27.2881 C   0  0  0  0  0  0  0  0  0  0  0  0
    7.6806  -14.2423   26.9265 C   0  0  0  0  0  0  0  0  0  0  0  0
    8.3577  -13.0966   27.3074 C   0  0  0  0  0  0  0  0  0  0  0  0
    7.8442  -11.8687   26.9772 C   0  0  0  0  0  0  0  0  0  0  0  0
    6.6781  -11.7794   26.2806 C   0  0  0  0  0  0  0  0  0  0  0  0
    6.0059  -12.9340   25.9028 C   0  0  0  0  0  0  0  0  0  0  0  0
    6.4981  -14.1792   26.2206 C   0  0  0  0  0  0  0  0  0  0  0  0
   10.0773  -17.2021   26.8803 O   0  0  0  0  0  0  0  0  0  0  0  0
   10.5658  -17.2345   28.0352 O   0  0  0  0  0  0  0  0  0  0  0  0
  2  1  1  1
  3  2  1  0
  3  4  1  0
  4  5  2  0
  6  7  2  0
  6  2  1  0
  8  4  1  0
 10  9  1  0
 11 10  2  0
 12 13  1  0
 12 10  1  0
 13 14  1  0
 14 15  1  0
 16 15  1  1
 16 18  1  0
 16 17  1  0
 17  6  1  0
 18 20  1  0
 19 18  2  0
 20 21  1  0
 21 29  1  0
 22 23  1  0
 21 22  1  1
 23 24  2  0
 24 25  1  0
 26 25  2  0
 27 26  1  0
 28 27  2  0
 28 23  1  0
 29 30  2  0
 29 31  1  0
M  END
$$$$
