DRF.pdb
     RDKit          3D

 31 31  0  0  1  0  0  0  0  0999 V2000
    9.8533  -14.8725   18.3757 N   0  0  0  0  0  0  0  0  0  0  0  0
    8.8753  -14.0391   19.0269 C   0  0  1  0  0  0  0  0  0  0  0  0
    7.6831  -13.7533   18.1410 C   0  0  0  0  0  0  0  0  0  0  0  0
    8.0263  -14.0321   16.7307 C   0  0  0  0  0  0  0  0  0  0  0  0
    7.2235  -13.7954   15.8032 O   0  0  0  0  0  0  0  0  0  0  0  0
    8.4380  -14.7470   20.2587 C   0  0  0  0  0  0  0  0  0  0  0  0
    7.5245  -14.3131   21.0009 O   0  0  0  0  0  0  0  0  0  0  0  0
    9.2619  -14.5665   16.4274 O   0  0  0  0  0  0  0  0  0  0  0  0
    5.8305  -21.6039   22.5839 N   0  0  0  0  0  0  0  0  0  0  0  0
    6.1913  -20.3566   23.1518 C   0  0  0  0  0  0  0  0  0  0  0  0
    5.7025  -19.9848   24.2748 N   0  0  0  0  0  0  0  0  0  0  0  0
    7.1085  -19.5437   22.4312 N   0  0  0  0  0  0  0  0  0  0  0  0
    7.3982  -19.7989   21.0455 C   0  0  0  0  0  0  0  0  0  0  0  0
    8.3101  -18.7144   20.5054 C   0  0  0  0  0  0  0  0  0  0  0  0
    9.0764  -18.1636   21.6942 C   0  0  0  0  0  0  0  0  0  0  0  0
    8.7663  -16.6676   21.8529 C   0  0  2  0  0  0  0  0  0  0  0  0
    9.0601  -15.9606   20.6317 N   0  0  0  0  0  0  0  0  0  0  0  0
    9.5282  -16.1922   23.0061 C   0  0  0  0  0  0  0  0  0  0  0  0
   10.5254  -15.4470   22.8764 O   0  0  0  0  0  0  0  0  0  0  0  0
    5.9372  -19.0574   24.6716 N   0  0  0  0  0  0  0  0  0  0  0  0
    9.1430  -16.5750   24.3127 C   0  0  2  0  0  0  0  0  0  0  0  0
    8.8490  -15.5968   25.3322 C   0  0  0  0  0  0  0  0  0  0  0  0
    7.7809  -14.6969   24.7902 C   0  0  0  0  0  0  0  0  0  0  0  0
    7.2222  -13.7593   25.7702 C   0  0  0  0  0  0  0  0  0  0  0  0
    8.0935  -12.9729   26.5041 C   0  0  0  0  0  0  0  0  0  0  0  0
    7.5917  -12.0881   27.4237 C   0  0  0  0  0  0  0  0  0  0  0  0
    6.2474  -11.9854   27.6118 C   0  0  0  0  0  0  0  0  0  0  0  0
    5.3811  -12.7783   26.8712 C   0  0  0  0  0  0  0  0  0  0  0  0
    5.8569  -13.6745   25.9417 C   0  0  0  0  0  0  0  0  0  0  0  0
    8.5085  -16.2636   26.5981 O   0  0  0  0  0  0  0  0  0  0  0  0
    8.7599  -15.6884   27.6841 O   0  0  0  0  0  0  0  0  0  0  0  0
  2  1  1  6
  3  2  1  0
  3  4  1  0
  4  5  2  0
  6  7  2  0
  6  2  1  0
  8  4  1  0
 10  9  1  0
 11 10  2  0
 12 13  1  0
 12 10  1  0
 13 14  1  0
 14 15  1  0
 16 15  1  6
 16 18  1  0
 16 17  1  0
 17  6  1  0
 18 20  1  0
 19 18  2  0
 20 21  1  0
 21 29  1  0
 22 23  1  0
 21 22  1  6
 23 24  2  0
 24 25  1  0
 26 25  2  0
 27 26  1  0
 28 27  2  0
 28 23  1  0
 29 30  2  0
 29 31  1  0
M  END
$$$$
