CNE.pdb
     RDKit          3D

 24 23  0  0  1  0  0  0  0  0999 V2000
    6.4571  -16.0616   20.7879 N   0  0  0  0  0  0  0  0  0  0  0  0
    7.6337  -15.3393   20.3990 C   0  0  1  0  0  0  0  0  0  0  0  0
    7.6390  -13.9992   21.1100 C   0  0  0  0  0  0  0  0  0  0  0  0
    7.4433  -14.3217   22.8842 S   0  0  0  0  0  0  0  0  0  0  0  0
    8.8818  -16.1081   20.7276 C   0  0  0  0  0  0  0  0  0  0  0  0
    8.8843  -16.8303   21.7413 O   0  0  0  0  0  0  0  0  0  0  0  0
   13.2125  -19.1020   18.8851 N   0  0  0  0  0  0  0  0  0  0  0  0
   13.2264  -17.7997   19.4150 C   0  0  0  0  0  0  0  0  0  0  0  0
   14.1502  -17.4788   20.2036 O   0  0  0  0  0  0  0  0  0  0  0  0
   12.1347  -16.8507   19.0135 C   0  0  0  0  0  0  0  0  0  0  0  0
   11.2222  -16.7212   20.1827 C   0  0  2  0  0  0  0  0  0  0  0  0
   10.0174  -16.0136   19.9102 N   0  0  0  0  0  0  0  0  0  0  0  0
   11.9943  -16.1736   21.3502 C   0  0  0  0  0  0  0  0  0  0  0  0
   12.4459  -14.9856   21.3619 O   0  0  0  0  0  0  0  0  0  0  0  0
   12.2034  -17.0403   22.4529 N   0  0  0  0  0  0  0  0  0  0  0  0
   12.8035  -16.5027   23.6574 C   0  0  1  0  0  0  0  0  0  0  0  0
   12.0953  -16.9205   24.8996 C   0  0  0  0  0  0  0  0  0  0  0  0
   12.1284  -18.3702   25.2237 C   0  0  0  0  0  0  0  0  0  0  0  0
   11.5399  -18.7125   26.5412 C   0  0  0  0  0  0  0  0  0  0  0  0
   11.4650  -19.9152   26.9269 O   0  0  0  0  0  0  0  0  0  0  0  0
   14.2008  -17.0567   23.7550 C   0  0  0  0  0  0  0  0  0  0  0  0
   14.6214  -18.1402   22.9972 O   0  0  0  0  0  0  0  0  0  0  0  0
   11.0687  -17.7077   27.3573 O   0  0  0  0  0  0  0  0  0  0  0  0
   15.0435  -16.5491   24.5366 O   0  0  0  0  0  0  0  0  0  0  0  0
  2  1  1  1
  3  2  1  0
  4  3  1  0
  5  2  1  0
  6  5  2  0
  7  8  1  0
  8 10  1  0
  9  8  2  0
 11 10  1  6
 11 13  1  0
 11 12  1  0
 12  5  1  0
 13 15  1  0
 14 13  2  0
 15 16  1  0
 16 17  1  1
 16 21  1  0
 18 17  1  0
 19 18  1  0
 20 19  2  0
 21 24  2  0
 21 22  1  0
 23 19  1  0
M  END
$$$$
