CNE.pdb
     RDKit          3D

 24 23  0  0  1  0  0  0  0  0999 V2000
    4.7588  -19.0291   19.7339 N   0  0  0  0  0  0  0  0  0  0  0  0
    4.6851  -17.6982   20.2637 C   0  0  1  0  0  0  0  0  0  0  0  0
    3.6796  -17.6818   21.3994 C   0  0  0  0  0  0  0  0  0  0  0  0
    4.3366  -18.7304   22.7256 S   0  0  0  0  0  0  0  0  0  0  0  0
    6.0265  -17.2270   20.7488 C   0  0  0  0  0  0  0  0  0  0  0  0
    6.9115  -18.0754   20.9636 O   0  0  0  0  0  0  0  0  0  0  0  0
    7.0927  -12.4145   19.4377 N   0  0  0  0  0  0  0  0  0  0  0  0
    7.7834  -13.5427   19.9140 C   0  0  0  0  0  0  0  0  0  0  0  0
    8.4712  -14.2150   19.1056 O   0  0  0  0  0  0  0  0  0  0  0  0
    7.6672  -13.8931   21.3690 C   0  0  0  0  0  0  0  0  0  0  0  0
    7.5171  -15.3722   21.4475 C   0  0  2  0  0  0  0  0  0  0  0  0
    6.2748  -15.8621   20.9545 N   0  0  0  0  0  0  0  0  0  0  0  0
    7.8339  -15.8246   22.8453 C   0  0  0  0  0  0  0  0  0  0  0  0
    7.0024  -15.7005   23.7985 O   0  0  0  0  0  0  0  0  0  0  0  0
    9.1097  -16.4031   23.0660 N   0  0  0  0  0  0  0  0  0  0  0  0
    9.4083  -16.9535   24.3728 C   0  0  1  0  0  0  0  0  0  0  0  0
   10.5120  -17.9536   24.3472 C   0  0  0  0  0  0  0  0  0  0  0  0
   11.5436  -17.7729   23.2932 C   0  0  0  0  0  0  0  0  0  0  0  0
   12.5519  -18.8589   23.2365 C   0  0  0  0  0  0  0  0  0  0  0  0
   13.1080  -19.1732   22.1443 O   0  0  0  0  0  0  0  0  0  0  0  0
    9.8785  -15.8200   25.2463 C   0  0  0  0  0  0  0  0  0  0  0  0
   10.1311  -15.9855   26.6005 O   0  0  0  0  0  0  0  0  0  0  0  0
   12.8889  -19.5349   24.3885 O   0  0  0  0  0  0  0  0  0  0  0  0
   10.0600  -14.6711   24.7711 O   0  0  0  0  0  0  0  0  0  0  0  0
  2  1  1  1
  3  2  1  0
  4  3  1  0
  5  2  1  0
  6  5  2  0
  7  8  1  0
  8 10  1  0
  9  8  2  0
 11 10  1  1
 11 13  1  0
 11 12  1  0
 12  5  1  0
 13 15  1  0
 14 13  2  0
 15 16  1  0
 16 17  1  6
 16 21  1  0
 18 17  1  0
 19 18  1  0
 20 19  2  0
 21 24  2  0
 21 22  1  0
 23 19  1  0
M  END
$$$$
