CNE.pdb
     RDKit          3D

 24 23  0  0  1  0  0  0  0  0999 V2000
    9.8589  -13.6210   19.0107 N   0  0  0  0  0  0  0  0  0  0  0  0
    8.7337  -13.7334   19.8930 C   0  0  1  0  0  0  0  0  0  0  0  0
    7.4670  -13.7949   19.0607 C   0  0  0  0  0  0  0  0  0  0  0  0
    7.3908  -12.2778   18.0694 S   0  0  0  0  0  0  0  0  0  0  0  0
    8.8425  -14.9506   20.7667 C   0  0  0  0  0  0  0  0  0  0  0  0
    7.9126  -15.2000   21.5555 O   0  0  0  0  0  0  0  0  0  0  0  0
   11.5451  -20.1300   22.1010 N   0  0  0  0  0  0  0  0  0  0  0  0
   10.4753  -19.2303   21.9496 C   0  0  0  0  0  0  0  0  0  0  0  0
    9.4602  -19.3718   22.6762 O   0  0  0  0  0  0  0  0  0  0  0  0
   10.5952  -18.1398   20.9249 C   0  0  0  0  0  0  0  0  0  0  0  0
   10.1744  -16.8749   21.5877 C   0  0  2  0  0  0  0  0  0  0  0  0
    9.9666  -15.7862   20.6943 N   0  0  0  0  0  0  0  0  0  0  0  0
   11.1291  -16.5654   22.7065 C   0  0  0  0  0  0  0  0  0  0  0  0
   12.2475  -15.9980   22.5004 O   0  0  0  0  0  0  0  0  0  0  0  0
   10.7324  -16.9328   24.0175 N   0  0  0  0  0  0  0  0  0  0  0  0
   11.5894  -16.5759   25.1302 C   0  0  1  0  0  0  0  0  0  0  0  0
   10.9749  -16.8634   26.4565 C   0  0  0  0  0  0  0  0  0  0  0  0
   11.7913  -16.5245   27.6507 C   0  0  0  0  0  0  0  0  0  0  0  0
   11.1178  -16.7938   28.9443 C   0  0  0  0  0  0  0  0  0  0  0  0
    9.9485  -17.2756   28.9804 O   0  0  0  0  0  0  0  0  0  0  0  0
   12.8290  -17.4270   25.0398 C   0  0  0  0  0  0  0  0  0  0  0  0
   12.8105  -18.7058   24.5020 O   0  0  0  0  0  0  0  0  0  0  0  0
   11.7740  -16.5163   30.1233 O   0  0  0  0  0  0  0  0  0  0  0  0
   13.9360  -17.0012   25.4544 O   0  0  0  0  0  0  0  0  0  0  0  0
  2  1  1  6
  3  2  1  0
  4  3  1  0
  5  2  1  0
  6  5  2  0
  7  8  1  0
  8 10  1  0
  9  8  2  0
 11 10  1  6
 11 13  1  0
 11 12  1  0
 12  5  1  0
 13 15  1  0
 14 13  2  0
 15 16  1  0
 16 17  1  1
 16 21  1  0
 18 17  1  0
 19 18  1  0
 20 19  2  0
 21 24  2  0
 21 22  1  0
 23 19  1  0
M  END
$$$$
