CNE.pdb
     RDKit          3D

 24 23  0  0  1  0  0  0  0  0999 V2000
    4.9921  -19.0301   20.4167 N   0  0  0  0  0  0  0  0  0  0  0  0
    5.1040  -17.6668   20.8481 C   0  0  1  0  0  0  0  0  0  0  0  0
    5.1490  -17.6385   22.3642 C   0  0  0  0  0  0  0  0  0  0  0  0
    6.8542  -17.9992   22.8666 S   0  0  0  0  0  0  0  0  0  0  0  0
    6.3297  -17.0111   20.2784 C   0  0  0  0  0  0  0  0  0  0  0  0
    7.1799  -17.7272   19.7185 O   0  0  0  0  0  0  0  0  0  0  0  0
    9.1603  -11.8874   19.0701 N   0  0  0  0  0  0  0  0  0  0  0  0
    8.4684  -13.0192   18.6042 C   0  0  0  0  0  0  0  0  0  0  0  0
    8.8532  -13.5665   17.5408 O   0  0  0  0  0  0  0  0  0  0  0  0
    7.2994  -13.5228   19.4001 C   0  0  0  0  0  0  0  0  0  0  0  0
    7.5885  -14.9425   19.7426 C   0  0  2  0  0  0  0  0  0  0  0  0
    6.5107  -15.6238   20.3756 N   0  0  0  0  0  0  0  0  0  0  0  0
    8.8798  -15.0099   20.5087 C   0  0  0  0  0  0  0  0  0  0  0  0
    9.9376  -14.4372   20.0983 O   0  0  0  0  0  0  0  0  0  0  0  0
    8.8762  -15.7440   21.7220 N   0  0  0  0  0  0  0  0  0  0  0  0
   10.0952  -15.8043   22.5033 C   0  0  1  0  0  0  0  0  0  0  0  0
    9.8814  -15.4936   23.9444 C   0  0  0  0  0  0  0  0  0  0  0  0
    8.7029  -16.1278   24.5898 C   0  0  0  0  0  0  0  0  0  0  0  0
    8.5717  -15.8357   26.0378 C   0  0  0  0  0  0  0  0  0  0  0  0
    9.5905  -15.7900   26.7866 O   0  0  0  0  0  0  0  0  0  0  0  0
   10.6040  -17.2208   22.4422 C   0  0  0  0  0  0  0  0  0  0  0  0
   11.8496  -17.5811   22.9359 O   0  0  0  0  0  0  0  0  0  0  0  0
    7.3237  -15.6101   26.5757 O   0  0  0  0  0  0  0  0  0  0  0  0
    9.9079  -18.1355   21.9349 O   0  0  0  0  0  0  0  0  0  0  0  0
  2  1  1  1
  3  2  1  0
  4  3  1  0
  5  2  1  0
  6  5  2  0
  7  8  1  0
  8 10  1  0
  9  8  2  0
 11 10  1  1
 11 13  1  0
 11 12  1  0
 12  5  1  0
 13 15  1  0
 14 13  2  0
 15 16  1  0
 16 17  1  1
 16 21  1  0
 18 17  1  0
 19 18  1  0
 20 19  2  0
 21 24  2  0
 21 22  1  0
 23 19  1  0
M  END
$$$$
