CNE.pdb
     RDKit          3D

 24 23  0  0  1  0  0  0  0  0999 V2000
   12.7329  -21.8858   16.6434 N   0  0  0  0  0  0  0  0  0  0  0  0
   11.5976  -22.0075   17.5114 C   0  0  1  0  0  0  0  0  0  0  0  0
   11.5025  -23.4440   17.9895 C   0  0  0  0  0  0  0  0  0  0  0  0
   12.1187  -24.5058   16.6542 S   0  0  0  0  0  0  0  0  0  0  0  0
   11.7022  -21.0741   18.6839 C   0  0  0  0  0  0  0  0  0  0  0  0
   12.8251  -20.6378   18.9967 O   0  0  0  0  0  0  0  0  0  0  0  0
    8.7936  -18.0731   18.2365 N   0  0  0  0  0  0  0  0  0  0  0  0
    9.6702  -17.9182   19.3248 C   0  0  0  0  0  0  0  0  0  0  0  0
   10.5703  -17.0445   19.2552 O   0  0  0  0  0  0  0  0  0  0  0  0
    9.4902  -18.8055   20.5222 C   0  0  0  0  0  0  0  0  0  0  0  0
   10.6048  -19.7921   20.5013 C   0  0  2  0  0  0  0  0  0  0  0  0
   10.5602  -20.7036   19.4087 N   0  0  0  0  0  0  0  0  0  0  0  0
   10.6936  -20.4616   21.8440 C   0  0  0  0  0  0  0  0  0  0  0  0
    9.9845  -21.4738   22.1406 O   0  0  0  0  0  0  0  0  0  0  0  0
   11.6090  -19.9174   22.7804 N   0  0  0  0  0  0  0  0  0  0  0  0
   11.7951  -20.5956   24.0474 C   0  0  1  0  0  0  0  0  0  0  0  0
   13.2017  -21.0291   24.2770 C   0  0  0  0  0  0  0  0  0  0  0  0
   14.2505  -19.9914   24.1006 C   0  0  0  0  0  0  0  0  0  0  0  0
   15.6369  -20.4968   24.2474 C   0  0  0  0  0  0  0  0  0  0  0  0
   15.9364  -21.3166   25.1634 O   0  0  0  0  0  0  0  0  0  0  0  0
   11.4667  -19.6130   25.1409 C   0  0  0  0  0  0  0  0  0  0  0  0
   11.1909  -18.2789   24.8781 O   0  0  0  0  0  0  0  0  0  0  0  0
   16.6128  -20.0689   23.3744 O   0  0  0  0  0  0  0  0  0  0  0  0
   11.4310  -19.9739   26.3439 O   0  0  0  0  0  0  0  0  0  0  0  0
  2  1  1  6
  3  2  1  0
  4  3  1  0
  5  2  1  0
  6  5  2  0
  7  8  1  0
  8 10  1  0
  9  8  2  0
 11 10  1  1
 11 13  1  0
 11 12  1  0
 12  5  1  0
 13 15  1  0
 14 13  2  0
 15 16  1  0
 16 17  1  1
 16 21  1  0
 18 17  1  0
 19 18  1  0
 20 19  2  0
 21 24  2  0
 21 22  1  0
 23 19  1  0
M  END
$$$$
