CNE.pdb
     RDKit          3D

 24 23  0  0  1  0  0  0  0  0999 V2000
    0.1251  -27.7089   30.6976 N   0  0  0  0  0  0  0  0  0  0  0  0
   -0.5881  -26.5942   30.1444 C   0  0  1  0  0  0  0  0  0  0  0  0
   -0.3633  -26.5688   28.6444 C   0  0  0  0  0  0  0  0  0  0  0  0
    1.0895  -25.5301   28.3276 S   0  0  0  0  0  0  0  0  0  0  0  0
   -2.0566  -26.6777   30.4497 C   0  0  0  0  0  0  0  0  0  0  0  0
   -2.6102  -27.7915   30.4024 O   0  0  0  0  0  0  0  0  0  0  0  0
   -6.7080  -27.0227   32.2594 N   0  0  0  0  0  0  0  0  0  0  0  0
   -5.9590  -25.9057   32.6693 C   0  0  0  0  0  0  0  0  0  0  0  0
   -6.5648  -24.9175   33.1539 O   0  0  0  0  0  0  0  0  0  0  0  0
   -4.4669  -25.9450   32.5089 C   0  0  0  0  0  0  0  0  0  0  0  0
   -4.1727  -25.5604   31.1010 C   0  0  2  0  0  0  0  0  0  0  0  0
   -2.7862  -25.5265   30.7803 N   0  0  0  0  0  0  0  0  0  0  0  0
   -4.8995  -24.2850   30.7781 C   0  0  0  0  0  0  0  0  0  0  0  0
   -4.4506  -23.1475   31.1242 O   0  0  0  0  0  0  0  0  0  0  0  0
   -6.1193  -24.3970   30.0637 N   0  0  0  0  0  0  0  0  0  0  0  0
   -6.7054  -23.2004   29.4942 C   0  0  1  0  0  0  0  0  0  0  0  0
   -7.6013  -23.4820   28.3378 C   0  0  0  0  0  0  0  0  0  0  0  0
   -8.2242  -22.3033   27.6817 C   0  0  0  0  0  0  0  0  0  0  0  0
   -9.0482  -22.6334   26.4937 C   0  0  0  0  0  0  0  0  0  0  0  0
   -9.1705  -23.8293   26.0994 O   0  0  0  0  0  0  0  0  0  0  0  0
   -7.5648  -22.5659   30.5562 C   0  0  0  0  0  0  0  0  0  0  0  0
   -8.1303  -23.3021   31.5874 O   0  0  0  0  0  0  0  0  0  0  0  0
   -9.6903  -21.6246   25.8098 O   0  0  0  0  0  0  0  0  0  0  0  0
   -7.8014  -21.3320   30.5434 O   0  0  0  0  0  0  0  0  0  0  0  0
  2  1  1  6
  3  2  1  0
  4  3  1  0
  5  2  1  0
  6  5  2  0
  7  8  1  0
  8 10  1  0
  9  8  2  0
 11 10  1  1
 11 13  1  0
 11 12  1  0
 12  5  1  0
 13 15  1  0
 14 13  2  0
 15 16  1  0
 16 17  1  6
 16 21  1  0
 18 17  1  0
 19 18  1  0
 20 19  2  0
 21 24  2  0
 21 22  1  0
 23 19  1  0
M  END
$$$$
