CNE.pdb
     RDKit          3D

 24 23  0  0  1  0  0  0  0  0999 V2000
    8.2789  -12.8755   16.3763 N   0  0  0  0  0  0  0  0  0  0  0  0
    7.6214  -13.8016   17.2523 C   0  0  1  0  0  0  0  0  0  0  0  0
    7.5496  -15.1528   16.5664 C   0  0  0  0  0  0  0  0  0  0  0  0
    9.2349  -15.8196   16.4958 S   0  0  0  0  0  0  0  0  0  0  0  0
    8.3435  -13.9213   18.5642 C   0  0  0  0  0  0  0  0  0  0  0  0
    9.5475  -13.6092   18.6096 O   0  0  0  0  0  0  0  0  0  0  0  0
    7.6650  -15.1047   24.5712 N   0  0  0  0  0  0  0  0  0  0  0  0
    8.2039  -14.6395   23.3588 C   0  0  0  0  0  0  0  0  0  0  0  0
    9.3261  -14.0749   23.3744 O   0  0  0  0  0  0  0  0  0  0  0  0
    7.4124  -14.8391   22.0990 C   0  0  0  0  0  0  0  0  0  0  0  0
    8.3303  -14.5559   20.9617 C   0  0  2  0  0  0  0  0  0  0  0  0
    7.6752  -14.3743   19.7110 N   0  0  0  0  0  0  0  0  0  0  0  0
    9.4120  -15.5991   20.9319 C   0  0  0  0  0  0  0  0  0  0  0  0
    9.2152  -16.7604   20.4546 O   0  0  0  0  0  0  0  0  0  0  0  0
   10.6767  -15.2369   21.4613 N   0  0  0  0  0  0  0  0  0  0  0  0
   11.7161  -16.2441   21.5332 C   0  0  1  0  0  0  0  0  0  0  0  0
   13.0344  -15.7596   21.0367 C   0  0  0  0  0  0  0  0  0  0  0  0
   13.1748  -15.6176   19.5644 C   0  0  0  0  0  0  0  0  0  0  0  0
   14.5303  -15.2137   19.1188 C   0  0  0  0  0  0  0  0  0  0  0  0
   15.4298  -16.0782   18.9083 O   0  0  0  0  0  0  0  0  0  0  0  0
   11.9087  -16.5949   22.9854 C   0  0  0  0  0  0  0  0  0  0  0  0
   12.1550  -15.6312   23.9527 O   0  0  0  0  0  0  0  0  0  0  0  0
   14.8148  -13.8791   18.9304 O   0  0  0  0  0  0  0  0  0  0  0  0
   11.8522  -17.7883   23.3743 O   0  0  0  0  0  0  0  0  0  0  0  0
  2  1  1  6
  3  2  1  0
  4  3  1  0
  5  2  1  0
  6  5  2  0
  7  8  1  0
  8 10  1  0
  9  8  2  0
 11 10  1  1
 11 13  1  0
 11 12  1  0
 12  5  1  0
 13 15  1  0
 14 13  2  0
 15 16  1  0
 16 17  1  1
 16 21  1  0
 18 17  1  0
 19 18  1  0
 20 19  2  0
 21 24  2  0
 21 22  1  0
 23 19  1  0
M  END
$$$$
