CNE.pdb
     RDKit          3D

 24 23  0  0  1  0  0  0  0  0999 V2000
    7.8875  -12.3856   17.4703 N   0  0  0  0  0  0  0  0  0  0  0  0
    7.7447  -13.6601   18.1126 C   0  0  1  0  0  0  0  0  0  0  0  0
    8.0626  -14.7502   17.1067 C   0  0  0  0  0  0  0  0  0  0  0  0
    7.7932  -16.3454   17.9269 S   0  0  0  0  0  0  0  0  0  0  0  0
    8.6474  -13.7750   19.3079 C   0  0  0  0  0  0  0  0  0  0  0  0
    9.7948  -13.2986   19.2331 O   0  0  0  0  0  0  0  0  0  0  0  0
    6.2774  -13.7584   22.7493 N   0  0  0  0  0  0  0  0  0  0  0  0
    7.5301  -14.0062   23.3378 C   0  0  0  0  0  0  0  0  0  0  0  0
    7.9093  -13.2699   24.2825 O   0  0  0  0  0  0  0  0  0  0  0  0
    8.3585  -15.1411   22.8094 C   0  0  0  0  0  0  0  0  0  0  0  0
    9.0594  -14.6373   21.5964 C   0  0  2  0  0  0  0  0  0  0  0  0
    8.2063  -14.4049   20.4807 N   0  0  0  0  0  0  0  0  0  0  0  0
   10.2224  -15.5390   21.2910 C   0  0  0  0  0  0  0  0  0  0  0  0
   10.0801  -16.6308   20.6562 O   0  0  0  0  0  0  0  0  0  0  0  0
   11.5011  -15.1227   21.7413 N   0  0  0  0  0  0  0  0  0  0  0  0
   12.6749  -15.7998   21.2277 C   0  0  1  0  0  0  0  0  0  0  0  0
   13.5097  -14.9353   20.3476 C   0  0  0  0  0  0  0  0  0  0  0  0
   14.6951  -15.5771   19.7225 C   0  0  0  0  0  0  0  0  0  0  0  0
   15.5235  -14.6586   18.9044 C   0  0  0  0  0  0  0  0  0  0  0  0
   16.7263  -14.4180   19.2142 O   0  0  0  0  0  0  0  0  0  0  0  0
   13.5374  -16.1700   22.4058 C   0  0  0  0  0  0  0  0  0  0  0  0
   13.2348  -15.7690   23.6991 O   0  0  0  0  0  0  0  0  0  0  0  0
   14.9767  -14.0591   17.7911 O   0  0  0  0  0  0  0  0  0  0  0  0
   14.5739  -16.8639   22.2544 O   0  0  0  0  0  0  0  0  0  0  0  0
  2  1  1  6
  3  2  1  0
  4  3  1  0
  5  2  1  0
  6  5  2  0
  7  8  1  0
  8 10  1  0
  9  8  2  0
 11 10  1  1
 11 13  1  0
 11 12  1  0
 12  5  1  0
 13 15  1  0
 14 13  2  0
 15 16  1  0
 16 17  1  6
 16 21  1  0
 18 17  1  0
 19 18  1  0
 20 19  2  0
 21 24  2  0
 21 22  1  0
 23 19  1  0
M  END
$$$$
