CNE.pdb
     RDKit          3D

 24 23  0  0  1  0  0  0  0  0999 V2000
   10.8534  -16.1581   28.3234 N   0  0  0  0  0  0  0  0  0  0  0  0
    9.7882  -15.5878   27.5505 C   0  0  1  0  0  0  0  0  0  0  0  0
   10.1726  -14.1727   27.1621 C   0  0  0  0  0  0  0  0  0  0  0  0
   11.0583  -13.4425   28.5666 S   0  0  0  0  0  0  0  0  0  0  0  0
    9.5037  -16.4058   26.3230 C   0  0  0  0  0  0  0  0  0  0  0  0
    8.9315  -15.8568   25.3636 O   0  0  0  0  0  0  0  0  0  0  0  0
   10.4431  -18.4037   22.0798 N   0  0  0  0  0  0  0  0  0  0  0  0
   11.4931  -18.0552   22.9474 C   0  0  0  0  0  0  0  0  0  0  0  0
   12.6687  -18.3586   22.6245 O   0  0  0  0  0  0  0  0  0  0  0  0
   11.1610  -17.3352   24.2221 C   0  0  0  0  0  0  0  0  0  0  0  0
   10.5129  -18.3274   25.1233 C   0  0  2  0  0  0  0  0  0  0  0  0
    9.8747  -17.7568   26.2606 N   0  0  0  0  0  0  0  0  0  0  0  0
   11.5052  -19.4038   25.4632 C   0  0  0  0  0  0  0  0  0  0  0  0
   11.3147  -20.6201   25.1473 O   0  0  0  0  0  0  0  0  0  0  0  0
   12.6772  -19.0094   26.1574 N   0  0  0  0  0  0  0  0  0  0  0  0
   13.5530  -20.0362   26.6850 C   0  0  1  0  0  0  0  0  0  0  0  0
   14.9714  -19.5944   26.7951 C   0  0  0  0  0  0  0  0  0  0  0  0
   15.6934  -19.3648   25.5169 C   0  0  0  0  0  0  0  0  0  0  0  0
   17.1124  -18.9671   25.6829 C   0  0  0  0  0  0  0  0  0  0  0  0
   17.9570  -19.7653   26.1831 O   0  0  0  0  0  0  0  0  0  0  0  0
   13.0931  -20.3500   28.0847 C   0  0  0  0  0  0  0  0  0  0  0  0
   13.5157  -21.4827   28.7656 O   0  0  0  0  0  0  0  0  0  0  0  0
   17.5175  -17.7115   25.2865 O   0  0  0  0  0  0  0  0  0  0  0  0
   12.3006  -19.5860   28.6904 O   0  0  0  0  0  0  0  0  0  0  0  0
  2  1  1  6
  3  2  1  0
  4  3  1  0
  5  2  1  0
  6  5  2  0
  7  8  1  0
  8 10  1  0
  9  8  2  0
 11 10  1  1
 11 13  1  0
 11 12  1  0
 12  5  1  0
 13 15  1  0
 14 13  2  0
 15 16  1  0
 16 17  1  1
 16 21  1  0
 18 17  1  0
 19 18  1  0
 20 19  2  0
 21 24  2  0
 21 22  1  0
 23 19  1  0
M  END
$$$$
