CNE.pdb
     RDKit          3D

 24 23  0  0  1  0  0  0  0  0999 V2000
    2.6104  -20.5442   20.9751 N   0  0  0  0  0  0  0  0  0  0  0  0
    2.8993  -19.4378   21.8410 C   0  0  1  0  0  0  0  0  0  0  0  0
    1.9918  -19.5195   23.0539 C   0  0  0  0  0  0  0  0  0  0  0  0
    0.2993  -19.1867   22.4930 S   0  0  0  0  0  0  0  0  0  0  0  0
    4.3398  -19.4377   22.2674 C   0  0  0  0  0  0  0  0  0  0  0  0
    4.8540  -20.5145   22.6215 O   0  0  0  0  0  0  0  0  0  0  0  0
    8.9410  -17.6843   20.3805 N   0  0  0  0  0  0  0  0  0  0  0  0
    7.5848  -17.5140   20.7100 C   0  0  0  0  0  0  0  0  0  0  0  0
    6.7178  -17.7242   19.8254 O   0  0  0  0  0  0  0  0  0  0  0  0
    7.2342  -17.0881   22.1062 C   0  0  0  0  0  0  0  0  0  0  0  0
    6.4388  -18.1929   22.7088 C   0  0  2  0  0  0  0  0  0  0  0  0
    5.0872  -18.2510   22.2660 N   0  0  0  0  0  0  0  0  0  0  0  0
    6.5838  -18.1436   24.2040 C   0  0  0  0  0  0  0  0  0  0  0  0
    5.9094  -17.3389   24.9202 O   0  0  0  0  0  0  0  0  0  0  0  0
    7.5112  -19.0388   24.7953 N   0  0  0  0  0  0  0  0  0  0  0  0
    7.7533  -18.9495   26.2212 C   0  0  1  0  0  0  0  0  0  0  0  0
    8.1816  -20.2430   26.8232 C   0  0  0  0  0  0  0  0  0  0  0  0
    8.3457  -20.2629   28.2998 C   0  0  0  0  0  0  0  0  0  0  0  0
    8.9134  -21.5255   28.8318 C   0  0  0  0  0  0  0  0  0  0  0  0
    8.2345  -22.5931   28.8344 O   0  0  0  0  0  0  0  0  0  0  0  0
    8.8905  -17.9838   26.4291 C   0  0  0  0  0  0  0  0  0  0  0  0
    9.1692  -17.4251   27.6681 O   0  0  0  0  0  0  0  0  0  0  0  0
   10.1978  -21.5371   29.3296 O   0  0  0  0  0  0  0  0  0  0  0  0
    9.6346  -17.6474   25.4742 O   0  0  0  0  0  0  0  0  0  0  0  0
  2  1  1  6
  3  2  1  0
  4  3  1  0
  5  2  1  0
  6  5  2  0
  7  8  1  0
  8 10  1  0
  9  8  2  0
 11 10  1  6
 11 13  1  0
 11 12  1  0
 12  5  1  0
 13 15  1  0
 14 13  2  0
 15 16  1  0
 16 17  1  6
 16 21  1  0
 18 17  1  0
 19 18  1  0
 20 19  2  0
 21 24  2  0
 21 22  1  0
 23 19  1  0
M  END
$$$$
