IPQ.pdb
     RDKit          3D

 25 25  0  0  1  0  0  0  0  0999 V2000
    6.4040  -11.7593   27.3703 C   0  0  0  0  0  0  0  0  0  0  0  0
    5.8264  -12.9422   26.6686 C   0  0  0  0  0  0  0  0  0  0  0  0
    6.9132  -13.7071   25.9429 C   0  0  2  0  0  0  0  0  0  0  0  0
    7.5452  -12.7626   24.9469 C   0  0  0  0  0  0  0  0  0  0  0  0
    6.3531  -14.9431   25.2776 C   0  0  2  0  0  0  0  0  0  0  0  0
    5.7162  -15.7660   26.2463 N   0  0  0  0  0  0  0  0  0  0  0  0
    7.3242  -15.6087   24.3998 C   0  0  0  0  0  0  0  0  0  0  0  0
    7.9229  -16.6476   24.8138 O   0  0  0  0  0  0  0  0  0  0  0  0
    7.6722  -15.1851   23.0804 N   0  0  0  0  0  0  0  0  0  0  0  0
    7.2670  -13.9746   22.4010 C   0  0  0  0  0  0  0  0  0  0  0  0
    7.4489  -14.1588   20.9242 C   0  0  0  0  0  0  0  0  0  0  0  0
    8.0261  -15.5524   20.8033 C   0  0  0  0  0  0  0  0  0  0  0  0
    8.5285  -15.9085   22.1556 C   0  0  1  0  0  0  0  0  0  0  0  0
    9.9565  -15.6346   22.3831 C   0  0  0  0  0  0  0  0  0  0  0  0
   10.2755  -14.5861   22.9997 O   0  0  0  0  0  0  0  0  0  0  0  0
   11.4539  -17.6891   26.9373 N   0  0  0  0  0  0  0  0  0  0  0  0
   11.3647  -18.6526   25.8930 C   0  0  0  0  0  0  0  0  0  0  0  0
   11.0872  -19.8132   26.2464 O   0  0  0  0  0  0  0  0  0  0  0  0
   11.5854  -18.3224   24.4842 C   0  0  0  0  0  0  0  0  0  0  0  0
   11.8503  -16.9246   24.1041 C   0  0  0  0  0  0  0  0  0  0  0  0
   12.2546  -16.6583   22.6818 C   0  0  2  0  0  0  0  0  0  0  0  0
   11.0052  -16.4838   21.9485 N   0  0  0  0  0  0  0  0  0  0  0  0
   13.2010  -17.5810   22.0966 C   0  0  0  0  0  0  0  0  0  0  0  0
   12.7552  -18.7170   21.4435 O   0  0  0  0  0  0  0  0  0  0  0  0
   14.4328  -17.3848   22.1672 O   0  0  0  0  0  0  0  0  0  0  0  0
  2  1  1  0
  2  3  1  0
  3  5  1  0
  3  4  1  6
  5  6  1  1
  7  5  1  0
  7  8  2  0
  9  7  1  0
 10  9  1  0
 10 11  1  0
 12 13  1  0
 12 11  1  0
 13  9  1  0
 13 14  1  6
 15 14  2  0
 16 17  1  0
 17 18  2  0
 19 17  1  0
 19 20  1  0
 21 20  1  1
 21 22  1  0
 22 14  1  0
 23 21  1  0
 23 24  1  0
 25 23  2  0
M  END
$$$$
