IPQ.pdb
     RDKit          3D

 25 25  0  0  1  0  0  0  0  0999 V2000
    6.2385  -11.4019   26.7659 C   0  0  0  0  0  0  0  0  0  0  0  0
    5.7728  -12.8136   26.6405 C   0  0  0  0  0  0  0  0  0  0  0  0
    6.8281  -13.6581   25.9578 C   0  0  2  0  0  0  0  0  0  0  0  0
    7.6117  -12.7498   25.0389 C   0  0  0  0  0  0  0  0  0  0  0  0
    6.1989  -14.8134   25.2139 C   0  0  2  0  0  0  0  0  0  0  0  0
    5.3939  -15.5780   26.1018 N   0  0  0  0  0  0  0  0  0  0  0  0
    7.1663  -15.5664   24.4053 C   0  0  0  0  0  0  0  0  0  0  0  0
    7.6314  -16.6581   24.8536 O   0  0  0  0  0  0  0  0  0  0  0  0
    7.6512  -15.1752   23.1196 N   0  0  0  0  0  0  0  0  0  0  0  0
    7.3890  -13.9432   22.4092 C   0  0  0  0  0  0  0  0  0  0  0  0
    7.6794  -14.1477   20.9526 C   0  0  0  0  0  0  0  0  0  0  0  0
    8.1662  -15.5787   20.8796 C   0  0  0  0  0  0  0  0  0  0  0  0
    8.5287  -15.9613   22.2689 C   0  0  1  0  0  0  0  0  0  0  0  0
    9.9485  -15.7860   22.6144 C   0  0  0  0  0  0  0  0  0  0  0  0
   10.2886  -14.7554   23.2496 O   0  0  0  0  0  0  0  0  0  0  0  0
   11.4314  -17.7455   27.2909 N   0  0  0  0  0  0  0  0  0  0  0  0
   11.1015  -18.6318   26.2267 C   0  0  0  0  0  0  0  0  0  0  0  0
   10.7600  -19.7806   26.5621 O   0  0  0  0  0  0  0  0  0  0  0  0
   11.1569  -18.2395   24.8176 C   0  0  0  0  0  0  0  0  0  0  0  0
   11.8478  -16.9943   24.4425 C   0  0  0  0  0  0  0  0  0  0  0  0
   12.2285  -16.8212   22.9994 C   0  0  2  0  0  0  0  0  0  0  0  0
   10.9669  -16.7120   22.2746 N   0  0  0  0  0  0  0  0  0  0  0  0
   13.1783  -17.7707   22.4646 C   0  0  0  0  0  0  0  0  0  0  0  0
   12.7815  -18.6933   21.5123 O   0  0  0  0  0  0  0  0  0  0  0  0
   14.3680  -17.7888   22.8455 O   0  0  0  0  0  0  0  0  0  0  0  0
  2  1  1  0
  2  3  1  0
  3  5  1  0
  3  4  1  6
  5  6  1  1
  7  5  1  0
  7  8  2  0
  9  7  1  0
 10  9  1  0
 10 11  1  0
 12 13  1  0
 12 11  1  0
 13  9  1  0
 13 14  1  1
 15 14  2  0
 16 17  1  0
 17 18  2  0
 19 17  1  0
 19 20  1  0
 21 20  1  1
 21 22  1  0
 22 14  1  0
 23 21  1  0
 23 24  1  0
 25 23  2  0
M  END
$$$$
