IPQ.pdb
     RDKit          3D

 25 25  0  0  1  0  0  0  0  0999 V2000
    6.7155  -11.6396   27.4043 C   0  0  0  0  0  0  0  0  0  0  0  0
    6.0254  -12.7275   26.6524 C   0  0  0  0  0  0  0  0  0  0  0  0
    7.0370  -13.5946   25.9327 C   0  0  2  0  0  0  0  0  0  0  0  0
    7.8019  -12.7046   24.9807 C   0  0  0  0  0  0  0  0  0  0  0  0
    6.3572  -14.7397   25.2181 C   0  0  2  0  0  0  0  0  0  0  0  0
    5.5835  -15.4939   26.1421 N   0  0  0  0  0  0  0  0  0  0  0  0
    7.2748  -15.5053   24.3647 C   0  0  0  0  0  0  0  0  0  0  0  0
    7.6900  -16.6368   24.7604 O   0  0  0  0  0  0  0  0  0  0  0  0
    7.7623  -15.0850   23.0891 N   0  0  0  0  0  0  0  0  0  0  0  0
    7.5646  -13.8079   22.4402 C   0  0  0  0  0  0  0  0  0  0  0  0
    7.8190  -13.9619   20.9707 C   0  0  0  0  0  0  0  0  0  0  0  0
    8.2162  -15.4147   20.8240 C   0  0  0  0  0  0  0  0  0  0  0  0
    8.5766  -15.8824   22.1876 C   0  0  1  0  0  0  0  0  0  0  0  0
   10.0098  -15.8091   22.5142 C   0  0  0  0  0  0  0  0  0  0  0  0
   10.4846  -14.7060   22.8870 O   0  0  0  0  0  0  0  0  0  0  0  0
   10.7457  -19.8305   26.6153 N   0  0  0  0  0  0  0  0  0  0  0  0
   12.0425  -19.2443   26.5748 C   0  0  0  0  0  0  0  0  0  0  0  0
   12.8072  -19.5511   27.5075 O   0  0  0  0  0  0  0  0  0  0  0  0
   12.4706  -18.3314   25.5137 C   0  0  0  0  0  0  0  0  0  0  0  0
   11.5280  -17.9848   24.4368 C   0  0  0  0  0  0  0  0  0  0  0  0
   12.0317  -17.0964   23.3348 C   0  0  2  0  0  0  0  0  0  0  0  0
   10.8978  -16.9115   22.4353 N   0  0  0  0  0  0  0  0  0  0  0  0
   13.2728  -17.4889   22.7062 C   0  0  0  0  0  0  0  0  0  0  0  0
   14.4843  -17.1046   23.2540 O   0  0  0  0  0  0  0  0  0  0  0  0
   13.2871  -18.1730   21.6609 O   0  0  0  0  0  0  0  0  0  0  0  0
  2  1  1  0
  2  3  1  0
  3  5  1  0
  3  4  1  6
  5  6  1  1
  7  5  1  0
  7  8  2  0
  9  7  1  0
 10  9  1  0
 10 11  1  0
 12 13  1  0
 12 11  1  0
 13  9  1  0
 13 14  1  1
 15 14  2  0
 16 17  1  0
 17 18  2  0
 19 17  1  0
 19 20  1  0
 21 20  1  1
 21 22  1  0
 22 14  1  0
 23 21  1  0
 23 24  1  0
 25 23  2  0
M  END
$$$$
