IPQ.pdb
     RDKit          3D

 25 25  0  0  1  0  0  0  0  0999 V2000
    5.8181  -11.4875   27.0770 C   0  0  0  0  0  0  0  0  0  0  0  0
    5.4370  -12.8032   26.4861 C   0  0  0  0  0  0  0  0  0  0  0  0
    6.6523  -13.4885   25.8975 C   0  0  2  0  0  0  0  0  0  0  0  0
    7.2579  -12.5462   24.8833 C   0  0  0  0  0  0  0  0  0  0  0  0
    6.2798  -14.8192   25.2855 C   0  0  2  0  0  0  0  0  0  0  0  0
    5.5822  -15.6104   26.2386 N   0  0  0  0  0  0  0  0  0  0  0  0
    7.4064  -15.4694   24.6039 C   0  0  0  0  0  0  0  0  0  0  0  0
    8.0168  -16.4183   25.1837 O   0  0  0  0  0  0  0  0  0  0  0  0
    7.8986  -15.1250   23.3076 N   0  0  0  0  0  0  0  0  0  0  0  0
    7.4857  -14.0250   22.4648 C   0  0  0  0  0  0  0  0  0  0  0  0
    7.8919  -14.3134   21.0507 C   0  0  0  0  0  0  0  0  0  0  0  0
    8.6050  -15.6449   21.1451 C   0  0  0  0  0  0  0  0  0  0  0  0
    8.9401  -15.8312   22.5807 C   0  0  1  0  0  0  0  0  0  0  0  0
   10.2902  -15.3924   22.9686 C   0  0  0  0  0  0  0  0  0  0  0  0
   10.4778  -14.1732   23.2128 O   0  0  0  0  0  0  0  0  0  0  0  0
   11.8013  -14.1534   28.2390 N   0  0  0  0  0  0  0  0  0  0  0  0
   11.4901  -15.4965   27.8836 C   0  0  0  0  0  0  0  0  0  0  0  0
   10.6456  -16.0663   28.5985 O   0  0  0  0  0  0  0  0  0  0  0  0
   12.1150  -16.1863   26.7539 C   0  0  0  0  0  0  0  0  0  0  0  0
   11.4485  -16.1698   25.4409 C   0  0  0  0  0  0  0  0  0  0  0  0
   12.3211  -16.2453   24.2202 C   0  0  2  0  0  0  0  0  0  0  0  0
   11.4031  -16.2628   23.0862 N   0  0  0  0  0  0  0  0  0  0  0  0
   13.3396  -17.2710   24.2178 C   0  0  0  0  0  0  0  0  0  0  0  0
   13.0774  -18.5133   23.6667 O   0  0  0  0  0  0  0  0  0  0  0  0
   14.4696  -17.0700   24.7114 O   0  0  0  0  0  0  0  0  0  0  0  0
  2  1  1  0
  2  3  1  0
  3  5  1  0
  3  4  1  6
  5  6  1  1
  7  5  1  0
  7  8  2  0
  9  7  1  0
 10  9  1  0
 10 11  1  0
 12 13  1  0
 12 11  1  0
 13  9  1  0
 13 14  1  6
 15 14  2  0
 16 17  1  0
 17 18  2  0
 19 17  1  0
 19 20  1  0
 21 20  1  1
 21 22  1  0
 22 14  1  0
 23 21  1  0
 23 24  1  0
 25 23  2  0
M  END
$$$$
