IPQ.pdb
     RDKit          3D

 25 25  0  0  1  0  0  0  0  0999 V2000
    6.6307  -17.4015   20.3805 C   0  0  0  0  0  0  0  0  0  0  0  0
    6.6267  -15.9330   20.6427 C   0  0  0  0  0  0  0  0  0  0  0  0
    7.3344  -15.6283   21.9462 C   0  0  2  0  0  0  0  0  0  0  0  0
    6.5704  -16.3217   23.0502 C   0  0  0  0  0  0  0  0  0  0  0  0
    7.4329  -14.1373   22.1730 C   0  0  2  0  0  0  0  0  0  0  0  0
    7.8698  -13.4959   20.9819 N   0  0  0  0  0  0  0  0  0  0  0  0
    8.1636  -13.7935   23.3995 C   0  0  0  0  0  0  0  0  0  0  0  0
    9.4288  -13.7089   23.3635 O   0  0  0  0  0  0  0  0  0  0  0  0
    7.5678  -13.5369   24.6724 N   0  0  0  0  0  0  0  0  0  0  0  0
    6.1610  -13.5200   25.0068 C   0  0  0  0  0  0  0  0  0  0  0  0
    5.9712  -12.7565   26.2831 C   0  0  0  0  0  0  0  0  0  0  0  0
    7.3777  -12.3663   26.6822 C   0  0  0  0  0  0  0  0  0  0  0  0
    8.2859  -13.2462   25.9019 C   0  0  1  0  0  0  0  0  0  0  0  0
    8.7222  -14.4673   26.5980 C   0  0  0  0  0  0  0  0  0  0  0  0
    7.9646  -15.4708   26.5810 O   0  0  0  0  0  0  0  0  0  0  0  0
   14.9529  -17.9839   25.8675 N   0  0  0  0  0  0  0  0  0  0  0  0
   14.0388  -16.8940   25.9262 C   0  0  0  0  0  0  0  0  0  0  0  0
   14.3655  -15.8756   25.2899 O   0  0  0  0  0  0  0  0  0  0  0  0
   12.7879  -16.9441   26.6846 C   0  0  0  0  0  0  0  0  0  0  0  0
   11.8962  -15.7721   26.6831 C   0  0  0  0  0  0  0  0  0  0  0  0
   10.6382  -15.8579   27.5000 C   0  0  2  0  0  0  0  0  0  0  0  0
    9.9523  -14.5869   27.2926 N   0  0  0  0  0  0  0  0  0  0  0  0
   10.7902  -16.2706   28.8770 C   0  0  0  0  0  0  0  0  0  0  0  0
   10.4875  -15.3949   29.9052 O   0  0  0  0  0  0  0  0  0  0  0  0
   11.1988  -17.4131   29.1747 O   0  0  0  0  0  0  0  0  0  0  0  0
  2  1  1  0
  2  3  1  0
  3  5  1  0
  3  4  1  1
  5  6  1  6
  7  5  1  0
  7  8  2  0
  9  7  1  0
 10  9  1  0
 10 11  1  0
 12 13  1  0
 12 11  1  0
 13  9  1  0
 13 14  1  1
 15 14  2  0
 16 17  1  0
 17 18  2  0
 19 17  1  0
 19 20  1  0
 21 20  1  1
 21 22  1  0
 22 14  1  0
 23 21  1  0
 23 24  1  0
 25 23  2  0
M  END
$$$$
