IPQ.pdb
     RDKit          3D

 25 25  0  0  1  0  0  0  0  0999 V2000
    7.9729  -14.5274   26.2229 C   0  0  0  0  0  0  0  0  0  0  0  0
    7.2669  -15.1176   25.0488 C   0  0  0  0  0  0  0  0  0  0  0  0
    8.1554  -15.0749   23.8233 C   0  0  2  0  0  0  0  0  0  0  0  0
    8.5360  -13.6315   23.5888 C   0  0  0  0  0  0  0  0  0  0  0  0
    7.4572  -15.6801   22.6273 C   0  0  2  0  0  0  0  0  0  0  0  0
    6.8871  -16.9326   22.9841 N   0  0  0  0  0  0  0  0  0  0  0  0
    8.2865  -15.6674   21.4154 C   0  0  0  0  0  0  0  0  0  0  0  0
    8.9560  -16.7013   21.1122 O   0  0  0  0  0  0  0  0  0  0  0  0
    8.4172  -14.5661   20.5146 N   0  0  0  0  0  0  0  0  0  0  0  0
    7.7275  -13.2960   20.5595 C   0  0  0  0  0  0  0  0  0  0  0  0
    7.7942  -12.6555   19.2055 C   0  0  0  0  0  0  0  0  0  0  0  0
    8.6074  -13.6325   18.3844 C   0  0  0  0  0  0  0  0  0  0  0  0
    9.2984  -14.5147   19.3602 C   0  0  1  0  0  0  0  0  0  0  0  0
   10.6652  -14.1014   19.7166 C   0  0  0  0  0  0  0  0  0  0  0  0
   10.8243  -13.3491   20.7116 O   0  0  0  0  0  0  0  0  0  0  0  0
   13.4824  -16.2823   23.4966 N   0  0  0  0  0  0  0  0  0  0  0  0
   13.3131  -17.0132   22.2865 C   0  0  0  0  0  0  0  0  0  0  0  0
   13.1829  -18.2448   22.4091 O   0  0  0  0  0  0  0  0  0  0  0  0
   13.2940  -16.3772   20.9683 C   0  0  0  0  0  0  0  0  0  0  0  0
   13.1966  -14.9107   20.8766 C   0  0  0  0  0  0  0  0  0  0  0  0
   13.1816  -14.3022   19.5030 C   0  0  2  0  0  0  0  0  0  0  0  0
   11.8246  -14.5000   19.0047 N   0  0  0  0  0  0  0  0  0  0  0  0
   14.2428  -14.7044   18.6077 C   0  0  0  0  0  0  0  0  0  0  0  0
   13.9482  -15.3760   17.4339 O   0  0  0  0  0  0  0  0  0  0  0  0
   15.4413  -14.4650   18.8669 O   0  0  0  0  0  0  0  0  0  0  0  0
  2  1  1  0
  2  3  1  0
  3  5  1  0
  3  4  1  6
  5  6  1  1
  7  5  1  0
  7  8  2  0
  9  7  1  0
 10  9  1  0
 10 11  1  0
 12 13  1  0
 12 11  1  0
 13  9  1  0
 13 14  1  1
 15 14  2  0
 16 17  1  0
 17 18  2  0
 19 17  1  0
 19 20  1  0
 21 20  1  1
 21 22  1  0
 22 14  1  0
 23 21  1  0
 23 24  1  0
 25 23  2  0
M  END
$$$$
