IPQ.pdb
     RDKit          3D

 25 25  0  0  1  0  0  0  0  0999 V2000
    5.7583  -11.4492   26.9932 C   0  0  0  0  0  0  0  0  0  0  0  0
    5.3420  -12.7127   26.3182 C   0  0  0  0  0  0  0  0  0  0  0  0
    6.5548  -13.4619   25.8076 C   0  0  2  0  0  0  0  0  0  0  0  0
    7.3010  -12.5358   24.8754 C   0  0  0  0  0  0  0  0  0  0  0  0
    6.1490  -14.7483   25.1261 C   0  0  2  0  0  0  0  0  0  0  0  0
    5.3118  -15.5079   25.9882 N   0  0  0  0  0  0  0  0  0  0  0  0
    7.2861  -15.4631   24.5322 C   0  0  0  0  0  0  0  0  0  0  0  0
    7.7836  -16.4550   25.1470 O   0  0  0  0  0  0  0  0  0  0  0  0
    7.9078  -15.1385   23.2875 N   0  0  0  0  0  0  0  0  0  0  0  0
    7.6950  -13.9661   22.4681 C   0  0  0  0  0  0  0  0  0  0  0  0
    8.1616  -14.2539   21.0727 C   0  0  0  0  0  0  0  0  0  0  0  0
    8.6958  -15.6673   21.1556 C   0  0  0  0  0  0  0  0  0  0  0  0
    8.9027  -15.9448   22.6006 C   0  0  1  0  0  0  0  0  0  0  0  0
   10.2658  -15.6942   23.0955 C   0  0  0  0  0  0  0  0  0  0  0  0
   10.6693  -14.5053   23.1665 O   0  0  0  0  0  0  0  0  0  0  0  0
   10.5506  -14.3240   27.9430 N   0  0  0  0  0  0  0  0  0  0  0  0
   11.0135  -15.6384   28.2348 C   0  0  0  0  0  0  0  0  0  0  0  0
   11.2893  -15.8654   29.4270 O   0  0  0  0  0  0  0  0  0  0  0  0
   11.1673  -16.6737   27.2116 C   0  0  0  0  0  0  0  0  0  0  0  0
   10.8498  -16.3546   25.8095 C   0  0  0  0  0  0  0  0  0  0  0  0
   11.8804  -16.6964   24.7711 C   0  0  2  0  0  0  0  0  0  0  0  0
   11.1618  -16.7153   23.5014 N   0  0  0  0  0  0  0  0  0  0  0  0
   12.7087  -17.8502   25.0395 C   0  0  0  0  0  0  0  0  0  0  0  0
   13.9131  -17.7046   25.7057 O   0  0  0  0  0  0  0  0  0  0  0  0
   12.3681  -18.9966   24.6779 O   0  0  0  0  0  0  0  0  0  0  0  0
  2  1  1  0
  2  3  1  0
  3  5  1  0
  3  4  1  6
  5  6  1  1
  7  5  1  0
  7  8  2  0
  9  7  1  0
 10  9  1  0
 10 11  1  0
 12 13  1  0
 12 11  1  0
 13  9  1  0
 13 14  1  1
 15 14  2  0
 16 17  1  0
 17 18  2  0
 19 17  1  0
 19 20  1  0
 21 20  1  1
 21 22  1  0
 22 14  1  0
 23 21  1  0
 23 24  1  0
 25 23  2  0
M  END
$$$$
