IPQ.pdb
     RDKit          3D

 25 25  0  0  1  0  0  0  0  0999 V2000
    6.8960  -16.3730   18.7654 C   0  0  0  0  0  0  0  0  0  0  0  0
    7.2585  -15.0728   19.4005 C   0  0  0  0  0  0  0  0  0  0  0  0
    7.6657  -15.2863   20.8433 C   0  0  2  0  0  0  0  0  0  0  0  0
    6.4850  -15.8961   21.5626 C   0  0  0  0  0  0  0  0  0  0  0  0
    8.1095  -13.9885   21.4781 C   0  0  2  0  0  0  0  0  0  0  0  0
    8.9694  -13.2863   20.5902 N   0  0  0  0  0  0  0  0  0  0  0  0
    8.5990  -14.1630   22.8516 C   0  0  0  0  0  0  0  0  0  0  0  0
    9.8165  -14.4645   23.0416 O   0  0  0  0  0  0  0  0  0  0  0  0
    7.8104  -14.0219   24.0345 N   0  0  0  0  0  0  0  0  0  0  0  0
    6.4126  -13.6644   24.1321 C   0  0  0  0  0  0  0  0  0  0  0  0
    6.1300  -13.1711   25.5194 C   0  0  0  0  0  0  0  0  0  0  0  0
    7.4602  -13.3066   26.2281 C   0  0  0  0  0  0  0  0  0  0  0  0
    8.2783  -14.2258   25.3952 C   0  0  1  0  0  0  0  0  0  0  0  0
    8.2319  -15.6407   25.7974 C   0  0  0  0  0  0  0  0  0  0  0  0
    7.3877  -16.3934   25.2477 O   0  0  0  0  0  0  0  0  0  0  0  0
   12.8353  -17.1471   23.3176 N   0  0  0  0  0  0  0  0  0  0  0  0
   12.0760  -18.1180   24.0303 C   0  0  0  0  0  0  0  0  0  0  0  0
   11.9563  -19.2269   23.4782 O   0  0  0  0  0  0  0  0  0  0  0  0
   11.4617  -17.8497   25.3315 C   0  0  0  0  0  0  0  0  0  0  0  0
   10.0000  -17.9567   25.4746 C   0  0  0  0  0  0  0  0  0  0  0  0
    9.4105  -17.6371   26.8191 C   0  0  2  0  0  0  0  0  0  0  0  0
    9.0848  -16.2156   26.7731 N   0  0  0  0  0  0  0  0  0  0  0  0
   10.1649  -18.0701   27.9736 C   0  0  0  0  0  0  0  0  0  0  0  0
   10.3458  -19.4195   28.2229 O   0  0  0  0  0  0  0  0  0  0  0  0
   10.6644  -17.2494   28.7722 O   0  0  0  0  0  0  0  0  0  0  0  0
  2  1  1  0
  2  3  1  0
  3  5  1  0
  3  4  1  1
  5  6  1  6
  7  5  1  0
  7  8  2  0
  9  7  1  0
 10  9  1  0
 10 11  1  0
 12 13  1  0
 12 11  1  0
 13  9  1  0
 13 14  1  1
 15 14  2  0
 16 17  1  0
 17 18  2  0
 19 17  1  0
 19 20  1  0
 21 20  1  6
 21 22  1  0
 22 14  1  0
 23 21  1  0
 23 24  1  0
 25 23  2  0
M  END
$$$$
