IPQ.pdb
     RDKit          3D

 25 25  0  0  1  0  0  0  0  0999 V2000
    6.5128  -17.7775   20.6344 C   0  0  0  0  0  0  0  0  0  0  0  0
    6.7135  -16.3095   20.8077 C   0  0  0  0  0  0  0  0  0  0  0  0
    7.2708  -16.0126   22.1841 C   0  0  2  0  0  0  0  0  0  0  0  0
    6.2075  -16.3795   23.1931 C   0  0  0  0  0  0  0  0  0  0  0  0
    7.6871  -14.5642   22.2984 C   0  0  2  0  0  0  0  0  0  0  0  0
    8.3769  -14.1660   21.1209 N   0  0  0  0  0  0  0  0  0  0  0  0
    8.3510  -14.2600   23.5725 C   0  0  0  0  0  0  0  0  0  0  0  0
    9.6009  -14.4484   23.6799 O   0  0  0  0  0  0  0  0  0  0  0  0
    7.7040  -13.7559   24.7423 N   0  0  0  0  0  0  0  0  0  0  0  0
    6.3456  -13.2764   24.8684 C   0  0  0  0  0  0  0  0  0  0  0  0
    6.2414  -12.4203   26.0948 C   0  0  0  0  0  0  0  0  0  0  0  0
    7.6319  -12.4722   26.6897 C   0  0  0  0  0  0  0  0  0  0  0  0
    8.3057  -13.6372   26.0597 C   0  0  1  0  0  0  0  0  0  0  0  0
    8.2296  -14.8916   26.8256 C   0  0  0  0  0  0  0  0  0  0  0  0
    7.4815  -15.8091   26.4015 O   0  0  0  0  0  0  0  0  0  0  0  0
   13.7684  -15.5012   25.8621 N   0  0  0  0  0  0  0  0  0  0  0  0
   12.8205  -16.4801   25.4494 C   0  0  0  0  0  0  0  0  0  0  0  0
   13.2219  -17.3050   24.6085 O   0  0  0  0  0  0  0  0  0  0  0  0
   11.4518  -16.5302   25.9659 C   0  0  0  0  0  0  0  0  0  0  0  0
   11.0019  -15.5002   26.9173 C   0  0  0  0  0  0  0  0  0  0  0  0
   10.1609  -15.9498   28.0782 C   0  0  2  0  0  0  0  0  0  0  0  0
    8.9517  -15.1352   28.0211 N   0  0  0  0  0  0  0  0  0  0  0  0
   10.8165  -16.0087   29.3652 C   0  0  0  0  0  0  0  0  0  0  0  0
   11.5604  -14.9334   29.8191 O   0  0  0  0  0  0  0  0  0  0  0  0
   10.7358  -17.0210   30.0930 O   0  0  0  0  0  0  0  0  0  0  0  0
  2  1  1  0
  2  3  1  0
  3  5  1  0
  3  4  1  1
  5  6  1  6
  7  5  1  0
  7  8  2  0
  9  7  1  0
 10  9  1  0
 10 11  1  0
 12 13  1  0
 12 11  1  0
 13  9  1  0
 13 14  1  1
 15 14  2  0
 16 17  1  0
 17 18  2  0
 19 17  1  0
 19 20  1  0
 21 20  1  6
 21 22  1  0
 22 14  1  0
 23 21  1  0
 23 24  1  0
 25 23  2  0
M  END
$$$$
