IPQ.pdb
     RDKit          3D

 25 25  0  0  1  0  0  0  0  0999 V2000
    8.5112  -11.9519   27.1594 C   0  0  0  0  0  0  0  0  0  0  0  0
    7.8316  -13.2643   26.9564 C   0  0  0  0  0  0  0  0  0  0  0  0
    6.8288  -13.1693   25.8258 C   0  0  2  0  0  0  0  0  0  0  0  0
    5.7408  -12.2163   26.2631 C   0  0  0  0  0  0  0  0  0  0  0  0
    6.2815  -14.5328   25.4718 C   0  0  2  0  0  0  0  0  0  0  0  0
    5.7001  -15.1329   26.6220 N   0  0  0  0  0  0  0  0  0  0  0  0
    7.2411  -15.3571   24.7260 C   0  0  0  0  0  0  0  0  0  0  0  0
    7.6388  -16.4520   25.2282 O   0  0  0  0  0  0  0  0  0  0  0  0
    7.7892  -15.0344   23.4466 N   0  0  0  0  0  0  0  0  0  0  0  0
    7.5285  -13.8635   22.6391 C   0  0  0  0  0  0  0  0  0  0  0  0
    7.9133  -14.1535   21.2193 C   0  0  0  0  0  0  0  0  0  0  0  0
    8.4521  -15.5666   21.2734 C   0  0  0  0  0  0  0  0  0  0  0  0
    8.7429  -15.8415   22.7044 C   0  0  1  0  0  0  0  0  0  0  0  0
   10.1324  -15.5894   23.1188 C   0  0  0  0  0  0  0  0  0  0  0  0
   10.4999  -14.3996   23.2936 O   0  0  0  0  0  0  0  0  0  0  0  0
   11.6960  -15.0263   28.2627 N   0  0  0  0  0  0  0  0  0  0  0  0
   11.2870  -16.3171   27.8227 C   0  0  0  0  0  0  0  0  0  0  0  0
   10.9186  -17.1038   28.7138 O   0  0  0  0  0  0  0  0  0  0  0  0
   11.2948  -16.7177   26.4148 C   0  0  0  0  0  0  0  0  0  0  0  0
   11.8750  -15.8107   25.4102 C   0  0  0  0  0  0  0  0  0  0  0  0
   12.3155  -16.4126   24.1060 C   0  0  2  0  0  0  0  0  0  0  0  0
   11.0921  -16.6101   23.3358 N   0  0  0  0  0  0  0  0  0  0  0  0
   13.1958  -17.5563   24.1881 C   0  0  0  0  0  0  0  0  0  0  0  0
   12.7513  -18.8081   23.7993 O   0  0  0  0  0  0  0  0  0  0  0  0
   14.3662  -17.4500   24.6118 O   0  0  0  0  0  0  0  0  0  0  0  0
  2  1  1  0
  2  3  1  0
  3  5  1  0
  3  4  1  1
  5  6  1  1
  7  5  1  0
  7  8  2  0
  9  7  1  0
 10  9  1  0
 10 11  1  0
 12 13  1  0
 12 11  1  0
 13  9  1  0
 13 14  1  1
 15 14  2  0
 16 17  1  0
 17 18  2  0
 19 17  1  0
 19 20  1  0
 21 20  1  1
 21 22  1  0
 22 14  1  0
 23 21  1  0
 23 24  1  0
 25 23  2  0
M  END
$$$$
