IPQ.pdb
     RDKit          3D

 25 25  0  0  1  0  0  0  0  0999 V2000
    6.3541  -11.6831   27.4653 C   0  0  0  0  0  0  0  0  0  0  0  0
    5.7763  -12.8489   26.7356 C   0  0  0  0  0  0  0  0  0  0  0  0
    6.8617  -13.5915   25.9850 C   0  0  2  0  0  0  0  0  0  0  0  0
    7.4924  -12.6170   25.0176 C   0  0  0  0  0  0  0  0  0  0  0  0
    6.3000  -14.8063   25.2828 C   0  0  2  0  0  0  0  0  0  0  0  0
    5.5693  -15.6026   26.2064 N   0  0  0  0  0  0  0  0  0  0  0  0
    7.3010  -15.5099   24.4706 C   0  0  0  0  0  0  0  0  0  0  0  0
    7.8420  -16.5617   24.9290 O   0  0  0  0  0  0  0  0  0  0  0  0
    7.7397  -15.1109   23.1708 N   0  0  0  0  0  0  0  0  0  0  0  0
    7.3898  -13.9097   22.4458 C   0  0  0  0  0  0  0  0  0  0  0  0
    7.6689  -14.1201   20.9878 C   0  0  0  0  0  0  0  0  0  0  0  0
    8.2428  -15.5191   20.9290 C   0  0  0  0  0  0  0  0  0  0  0  0
    8.6508  -15.8552   22.3177 C   0  0  1  0  0  0  0  0  0  0  0  0
   10.0622  -15.5863   22.6360 C   0  0  0  0  0  0  0  0  0  0  0  0
   10.3389  -14.5728   23.3271 O   0  0  0  0  0  0  0  0  0  0  0  0
   10.2388  -18.6136   26.7187 N   0  0  0  0  0  0  0  0  0  0  0  0
   11.6526  -18.5877   26.5524 C   0  0  0  0  0  0  0  0  0  0  0  0
   12.3195  -19.0491   27.4964 O   0  0  0  0  0  0  0  0  0  0  0  0
   12.3037  -18.0528   25.3556 C   0  0  0  0  0  0  0  0  0  0  0  0
   11.4774  -17.4750   24.2823 C   0  0  0  0  0  0  0  0  0  0  0  0
   12.1920  -16.8761   23.1043 C   0  0  2  0  0  0  0  0  0  0  0  0
   11.1400  -16.4031   22.2105 N   0  0  0  0  0  0  0  0  0  0  0  0
   13.2173  -17.6891   22.4902 C   0  0  0  0  0  0  0  0  0  0  0  0
   12.8722  -18.8125   21.7589 O   0  0  0  0  0  0  0  0  0  0  0  0
   14.4292  -17.4078   22.6048 O   0  0  0  0  0  0  0  0  0  0  0  0
  2  1  1  0
  2  3  1  0
  3  5  1  0
  3  4  1  6
  5  6  1  1
  7  5  1  0
  7  8  2  0
  9  7  1  0
 10  9  1  0
 10 11  1  0
 12 13  1  0
 12 11  1  0
 13  9  1  0
 13 14  1  1
 15 14  2  0
 16 17  1  0
 17 18  2  0
 19 17  1  0
 19 20  1  0
 21 20  1  1
 21 22  1  0
 22 14  1  0
 23 21  1  0
 23 24  1  0
 25 23  2  0
M  END
$$$$
