IPQ.pdb
     RDKit          3D

 25 25  0  0  1  0  0  0  0  0999 V2000
    6.3365  -11.7118   27.5881 C   0  0  0  0  0  0  0  0  0  0  0  0
    5.7392  -12.8360   26.8103 C   0  0  0  0  0  0  0  0  0  0  0  0
    6.8266  -13.6502   26.1412 C   0  0  2  0  0  0  0  0  0  0  0  0
    7.6231  -12.7110   25.2656 C   0  0  0  0  0  0  0  0  0  0  0  0
    6.2367  -14.7979   25.3544 C   0  0  2  0  0  0  0  0  0  0  0  0
    5.3650  -15.5544   26.1844 N   0  0  0  0  0  0  0  0  0  0  0  0
    7.2484  -15.5606   24.6119 C   0  0  0  0  0  0  0  0  0  0  0  0
    7.6969  -16.6393   25.1063 O   0  0  0  0  0  0  0  0  0  0  0  0
    7.7954  -15.1929   23.3444 N   0  0  0  0  0  0  0  0  0  0  0  0
    7.4888  -14.0236   22.5508 C   0  0  0  0  0  0  0  0  0  0  0  0
    7.9035  -14.2735   21.1318 C   0  0  0  0  0  0  0  0  0  0  0  0
    8.5083  -15.6601   21.1720 C   0  0  0  0  0  0  0  0  0  0  0  0
    8.7951  -15.9425   22.6023 C   0  0  1  0  0  0  0  0  0  0  0  0
   10.1660  -15.6312   23.0375 C   0  0  0  0  0  0  0  0  0  0  0  0
   10.5711  -14.4446   22.9419 O   0  0  0  0  0  0  0  0  0  0  0  0
   11.5997  -14.2381   28.2079 N   0  0  0  0  0  0  0  0  0  0  0  0
   10.8794  -15.4176   27.8662 C   0  0  0  0  0  0  0  0  0  0  0  0
   10.2318  -15.9456   28.7885 O   0  0  0  0  0  0  0  0  0  0  0  0
   10.8883  -15.9941   26.5208 C   0  0  0  0  0  0  0  0  0  0  0  0
   11.7019  -15.3599   25.4699 C   0  0  0  0  0  0  0  0  0  0  0  0
   12.2291  -16.2429   24.3746 C   0  0  2  0  0  0  0  0  0  0  0  0
   11.0679  -16.5909   23.5625 N   0  0  0  0  0  0  0  0  0  0  0  0
   13.0621  -17.3511   24.7842 C   0  0  0  0  0  0  0  0  0  0  0  0
   14.3407  -17.1232   25.2627 O   0  0  0  0  0  0  0  0  0  0  0  0
   12.6589  -18.5315   24.7140 O   0  0  0  0  0  0  0  0  0  0  0  0
  2  1  1  0
  2  3  1  0
  3  5  1  0
  3  4  1  6
  5  6  1  1
  7  5  1  0
  7  8  2  0
  9  7  1  0
 10  9  1  0
 10 11  1  0
 12 13  1  0
 12 11  1  0
 13  9  1  0
 13 14  1  1
 15 14  2  0
 16 17  1  0
 17 18  2  0
 19 17  1  0
 19 20  1  0
 21 20  1  1
 21 22  1  0
 22 14  1  0
 23 21  1  0
 23 24  1  0
 25 23  2  0
M  END
$$$$
