IPQ.pdb
     RDKit          3D

 25 25  0  0  1  0  0  0  0  0999 V2000
    8.7140  -12.5389   27.4252 C   0  0  0  0  0  0  0  0  0  0  0  0
    7.9136  -13.7467   27.0703 C   0  0  0  0  0  0  0  0  0  0  0  0
    6.9139  -13.4155   25.9822 C   0  0  2  0  0  0  0  0  0  0  0  0
    5.9389  -12.4116   26.5521 C   0  0  0  0  0  0  0  0  0  0  0  0
    6.2201  -14.6634   25.4866 C   0  0  2  0  0  0  0  0  0  0  0  0
    5.6326  -15.3557   26.5806 N   0  0  0  0  0  0  0  0  0  0  0  0
    7.0608  -15.4655   24.5885 C   0  0  0  0  0  0  0  0  0  0  0  0
    7.3638  -16.6521   24.9193 O   0  0  0  0  0  0  0  0  0  0  0  0
    7.5886  -15.0240   23.3365 N   0  0  0  0  0  0  0  0  0  0  0  0
    7.4245  -13.7309   22.7104 C   0  0  0  0  0  0  0  0  0  0  0  0
    7.7179  -13.8564   21.2455 C   0  0  0  0  0  0  0  0  0  0  0  0
    8.1016  -15.3106   21.0781 C   0  0  0  0  0  0  0  0  0  0  0  0
    8.4181  -15.8121   22.4405 C   0  0  1  0  0  0  0  0  0  0  0  0
    9.8424  -15.7640   22.8081 C   0  0  0  0  0  0  0  0  0  0  0  0
   10.2805  -14.7323   23.3781 O   0  0  0  0  0  0  0  0  0  0  0  0
   11.1344  -17.1984   27.6193 N   0  0  0  0  0  0  0  0  0  0  0  0
   10.8922  -18.2820   26.7281 C   0  0  0  0  0  0  0  0  0  0  0  0
   10.4440  -19.3214   27.2453 O   0  0  0  0  0  0  0  0  0  0  0  0
   11.1506  -18.2026   25.2896 C   0  0  0  0  0  0  0  0  0  0  0  0
   11.6888  -16.9552   24.7213 C   0  0  0  0  0  0  0  0  0  0  0  0
   12.0338  -16.9526   23.2590 C   0  0  2  0  0  0  0  0  0  0  0  0
   10.7609  -16.8149   22.5593 N   0  0  0  0  0  0  0  0  0  0  0  0
   12.8908  -18.0209   22.7965 C   0  0  0  0  0  0  0  0  0  0  0  0
   14.2147  -18.0761   23.1964 O   0  0  0  0  0  0  0  0  0  0  0  0
   12.4678  -18.9107   22.0282 O   0  0  0  0  0  0  0  0  0  0  0  0
  2  1  1  0
  2  3  1  0
  3  5  1  0
  3  4  1  1
  5  6  1  1
  7  5  1  0
  7  8  2  0
  9  7  1  0
 10  9  1  0
 10 11  1  0
 12 13  1  0
 12 11  1  0
 13  9  1  0
 13 14  1  1
 15 14  2  0
 16 17  1  0
 17 18  2  0
 19 17  1  0
 19 20  1  0
 21 20  1  1
 21 22  1  0
 22 14  1  0
 23 21  1  0
 23 24  1  0
 25 23  2  0
M  END
$$$$
