PWN.pdb
     RDKit          3D

 30 32  0  0  1  0  0  0  0  0999 V2000
    7.1909  -15.1013   20.6070 N   0  0  0  0  0  0  0  0  0  0  0  0
    6.4865  -14.6542   19.3956 C   0  0  0  0  0  0  0  0  0  0  0  0
    6.9145  -13.2075   19.2775 C   0  0  0  0  0  0  0  0  0  0  0  0
    8.1006  -13.0394   20.2378 C   0  0  0  0  0  0  0  0  0  0  0  0
    8.4881  -14.4912   20.4190 C   0  0  1  0  0  0  0  0  0  0  0  0
    9.3151  -14.7387   21.6099 C   0  0  0  0  0  0  0  0  0  0  0  0
   10.5120  -14.2776   21.6991 O   0  0  0  0  0  0  0  0  0  0  0  0
    8.7635  -15.5052   22.6736 N   0  0  0  0  0  0  0  0  0  0  0  0
    9.4485  -15.6564   23.9201 C   0  0  1  0  0  0  0  0  0  0  0  0
    8.5570  -16.1438   25.0338 C   0  0  0  0  0  0  0  0  0  0  0  0
    7.4404  -15.2372   25.3248 C   0  0  0  0  0  0  0  0  0  0  0  0
    6.1038  -15.4934   25.1520 C   0  0  0  0  0  0  0  0  0  0  0  0
    5.4420  -14.3944   25.5424 N   0  0  0  0  0  0  0  0  0  0  0  0
    6.2971  -13.4483   25.9566 C   0  0  0  0  0  0  0  0  0  0  0  0
    6.1512  -12.1671   26.4461 C   0  0  0  0  0  0  0  0  0  0  0  0
    7.2324  -11.4004   26.8032 C   0  0  0  0  0  0  0  0  0  0  0  0
    8.5114  -11.8988   26.6799 C   0  0  0  0  0  0  0  0  0  0  0  0
    8.6581  -13.1748   26.1924 C   0  0  0  0  0  0  0  0  0  0  0  0
    7.5631  -13.9584   25.8281 C   0  0  0  0  0  0  0  0  0  0  0  0
   10.5433  -16.6814   23.7763 C   0  0  0  0  0  0  0  0  0  0  0  0
   10.4082  -17.7106   23.0703 O   0  0  0  0  0  0  0  0  0  0  0  0
   15.2170  -18.8950   23.9609 N   0  0  0  0  0  0  0  0  0  0  0  0
   15.3063  -17.4614   23.7944 C   0  0  0  0  0  0  0  0  0  0  0  0
   16.3864  -16.9120   23.5232 O   0  0  0  0  0  0  0  0  0  0  0  0
   14.0743  -16.7006   23.9602 C   0  0  0  0  0  0  0  0  0  0  0  0
   12.8319  -17.5119   24.2309 C   0  0  2  0  0  0  0  0  0  0  0  0
   11.7735  -16.4931   24.4533 N   0  0  0  0  0  0  0  0  0  0  0  0
   12.9163  -18.3958   25.3976 C   0  0  0  0  0  0  0  0  0  0  0  0
   13.6460  -19.3999   25.4940 O   0  0  0  0  0  0  0  0  0  0  0  0
   12.1233  -18.1257   26.5287 O   0  0  0  0  0  0  0  0  0  0  0  0
  1  2  1  0
  2  3  1  0
  4  3  1  0
  5  1  1  0
  5  4  1  0
  5  6  1  1
  7  6  2  0
  8  6  1  0
  9  8  1  0
 10 11  1  0
  9 10  1  1
 11 12  2  0
 13 12  1  0
 14 13  1  0
 15 14  2  0
 16 15  1  0
 17 16  2  0
 17 18  1  0
 18 19  2  0
 19 14  1  0
 19 11  1  0
 20  9  1  0
 20 27  1  0
 21 20  2  0
 22 23  1  0
 23 24  2  0
 23 25  1  0
 26 25  1  1
 26 27  1  0
 26 28  1  0
 28 30  1  0
 29 28  2  0
M  END
$$$$
