PWN.pdb
     RDKit          3D

 30 32  0  0  1  0  0  0  0  0999 V2000
    7.2550  -15.3419   21.4340 N   0  0  0  0  0  0  0  0  0  0  0  0
    6.4092  -14.9948   20.2817 C   0  0  0  0  0  0  0  0  0  0  0  0
    6.9500  -13.6433   19.8681 C   0  0  0  0  0  0  0  0  0  0  0  0
    8.2873  -13.4813   20.6048 C   0  0  0  0  0  0  0  0  0  0  0  0
    8.5571  -14.9272   20.9619 C   0  0  1  0  0  0  0  0  0  0  0  0
    9.5391  -15.0961   22.0437 C   0  0  0  0  0  0  0  0  0  0  0  0
   10.7745  -14.7805   21.8792 O   0  0  0  0  0  0  0  0  0  0  0  0
    9.0953  -15.6206   23.2893 N   0  0  0  0  0  0  0  0  0  0  0  0
   10.0084  -15.8819   24.3589 C   0  0  1  0  0  0  0  0  0  0  0  0
    9.6023  -15.2362   25.6592 C   0  0  0  0  0  0  0  0  0  0  0  0
    8.1999  -14.8049   25.6820 C   0  0  0  0  0  0  0  0  0  0  0  0
    7.0925  -15.5906   25.4862 C   0  0  0  0  0  0  0  0  0  0  0  0
    6.0219  -14.7901   25.5928 N   0  0  0  0  0  0  0  0  0  0  0  0
    6.3972  -13.5284   25.8480 C   0  0  0  0  0  0  0  0  0  0  0  0
    5.7187  -12.3437   26.0441 C   0  0  0  0  0  0  0  0  0  0  0  0
    6.3762  -11.1651   26.2955 C   0  0  0  0  0  0  0  0  0  0  0  0
    7.7526  -11.1349   26.3594 C   0  0  0  0  0  0  0  0  0  0  0  0
    8.4297  -12.3143   26.1642 C   0  0  0  0  0  0  0  0  0  0  0  0
    7.7668  -13.5147   25.9085 C   0  0  0  0  0  0  0  0  0  0  0  0
   10.0685  -17.3638   24.6239 C   0  0  0  0  0  0  0  0  0  0  0  0
    9.2433  -18.1672   24.1243 O   0  0  0  0  0  0  0  0  0  0  0  0
   13.1960  -19.7123   21.9208 N   0  0  0  0  0  0  0  0  0  0  0  0
   13.6817  -18.8514   22.9762 C   0  0  0  0  0  0  0  0  0  0  0  0
   14.8959  -18.7515   23.2164 O   0  0  0  0  0  0  0  0  0  0  0  0
   12.6816  -18.1133   23.7373 C   0  0  0  0  0  0  0  0  0  0  0  0
   12.0195  -18.8710   24.8610 C   0  0  2  0  0  0  0  0  0  0  0  0
   11.0842  -17.8855   25.4625 N   0  0  0  0  0  0  0  0  0  0  0  0
   12.9362  -19.3704   25.8903 C   0  0  0  0  0  0  0  0  0  0  0  0
   13.0178  -20.5513   26.2761 O   0  0  0  0  0  0  0  0  0  0  0  0
   13.8181  -18.4750   26.5245 O   0  0  0  0  0  0  0  0  0  0  0  0
  1  2  1  0
  2  3  1  0
  4  3  1  0
  5  1  1  0
  5  4  1  0
  5  6  1  1
  7  6  2  0
  8  6  1  0
  9  8  1  0
 10 11  1  0
  9 10  1  1
 11 12  2  0
 13 12  1  0
 14 13  1  0
 15 14  2  0
 16 15  1  0
 17 16  2  0
 17 18  1  0
 18 19  2  0
 19 14  1  0
 19 11  1  0
 20  9  1  0
 20 27  1  0
 21 20  2  0
 22 23  1  0
 23 24  2  0
 23 25  1  0
 26 25  1  6
 26 27  1  0
 26 28  1  0
 28 30  1  0
 29 28  2  0
M  END
$$$$
