PWN.pdb
     RDKit          3D

 30 32  0  0  1  0  0  0  0  0999 V2000
    8.7513  -16.0654   18.1621 N   0  0  0  0  0  0  0  0  0  0  0  0
    8.2559  -16.8466   17.0185 C   0  0  0  0  0  0  0  0  0  0  0  0
    8.3015  -18.2660   17.5413 C   0  0  0  0  0  0  0  0  0  0  0  0
    8.4952  -18.1495   19.0599 C   0  0  0  0  0  0  0  0  0  0  0  0
    8.0683  -16.7113   19.2606 C   0  0  1  0  0  0  0  0  0  0  0  0
    8.5331  -16.1276   20.5281 C   0  0  0  0  0  0  0  0  0  0  0  0
    9.7024  -15.6033   20.6326 O   0  0  0  0  0  0  0  0  0  0  0  0
    7.6584  -16.1527   21.6495 N   0  0  0  0  0  0  0  0  0  0  0  0
    8.0649  -15.6530   22.9266 C   0  0  1  0  0  0  0  0  0  0  0  0
    6.9453  -15.6168   23.9355 C   0  0  0  0  0  0  0  0  0  0  0  0
    7.3615  -15.1123   25.2491 C   0  0  0  0  0  0  0  0  0  0  0  0
    7.9593  -15.8278   26.2555 C   0  0  0  0  0  0  0  0  0  0  0  0
    8.1641  -14.9766   27.2713 N   0  0  0  0  0  0  0  0  0  0  0  0
    7.7234  -13.7497   26.9576 C   0  0  0  0  0  0  0  0  0  0  0  0
    7.6913  -12.5404   27.6200 C   0  0  0  0  0  0  0  0  0  0  0  0
    7.1661  -11.4113   27.0421 C   0  0  0  0  0  0  0  0  0  0  0  0
    6.6494  -11.4579   25.7653 C   0  0  0  0  0  0  0  0  0  0  0  0
    6.6808  -12.6619   25.1043 C   0  0  0  0  0  0  0  0  0  0  0  0
    7.2133  -13.8123   25.6866 C   0  0  0  0  0  0  0  0  0  0  0  0
    9.1278  -16.5492   23.5072 C   0  0  0  0  0  0  0  0  0  0  0  0
    9.0264  -17.8004   23.4984 O   0  0  0  0  0  0  0  0  0  0  0  0
   12.2411  -17.5332   22.0442 N   0  0  0  0  0  0  0  0  0  0  0  0
   13.0645  -16.6111   22.7944 C   0  0  0  0  0  0  0  0  0  0  0  0
   14.0937  -16.1216   22.3016 O   0  0  0  0  0  0  0  0  0  0  0  0
   12.6283  -16.2887   24.1472 C   0  0  0  0  0  0  0  0  0  0  0  0
   11.3275  -16.9141   24.5852 C   0  0  2  0  0  0  0  0  0  0  0  0
   10.2875  -15.9776   24.0862 N   0  0  0  0  0  0  0  0  0  0  0  0
   11.1830  -17.0823   26.0344 C   0  0  0  0  0  0  0  0  0  0  0  0
   10.8579  -16.1889   26.8382 O   0  0  0  0  0  0  0  0  0  0  0  0
   11.4220  -18.3438   26.6115 O   0  0  0  0  0  0  0  0  0  0  0  0
  1  2  1  0
  2  3  1  0
  4  3  1  0
  5  1  1  0
  5  4  1  0
  5  6  1  1
  7  6  2  0
  8  6  1  0
  9  8  1  0
 10 11  1  0
  9 10  1  1
 11 12  2  0
 13 12  1  0
 14 13  1  0
 15 14  2  0
 16 15  1  0
 17 16  2  0
 17 18  1  0
 18 19  2  0
 19 14  1  0
 19 11  1  0
 20  9  1  0
 20 27  1  0
 21 20  2  0
 22 23  1  0
 23 24  2  0
 23 25  1  0
 26 25  1  1
 26 27  1  0
 26 28  1  0
 28 30  1  0
 29 28  2  0
M  END
$$$$
