PWN.pdb
     RDKit          3D

 30 32  0  0  1  0  0  0  0  0999 V2000
    7.2137  -15.2240   20.9348 N   0  0  0  0  0  0  0  0  0  0  0  0
    6.4515  -14.8615   19.7301 C   0  0  0  0  0  0  0  0  0  0  0  0
    6.8816  -13.4319   19.4827 C   0  0  0  0  0  0  0  0  0  0  0  0
    8.1158  -13.2043   20.3671 C   0  0  0  0  0  0  0  0  0  0  0  0
    8.5034  -14.6423   20.6369 C   0  0  1  0  0  0  0  0  0  0  0  0
    9.3881  -14.8084   21.8001 C   0  0  0  0  0  0  0  0  0  0  0  0
   10.5725  -14.3086   21.8147 O   0  0  0  0  0  0  0  0  0  0  0  0
    8.9071  -15.5394   22.9215 N   0  0  0  0  0  0  0  0  0  0  0  0
    9.6638  -15.6370   24.1314 C   0  0  1  0  0  0  0  0  0  0  0  0
    8.8347  -16.0516   25.3202 C   0  0  0  0  0  0  0  0  0  0  0  0
    7.6368  -15.2258   25.5110 C   0  0  0  0  0  0  0  0  0  0  0  0
    6.3364  -15.5923   25.2732 C   0  0  0  0  0  0  0  0  0  0  0  0
    5.5704  -14.5355   25.5812 N   0  0  0  0  0  0  0  0  0  0  0  0
    6.3245  -13.5109   26.0048 C   0  0  0  0  0  0  0  0  0  0  0  0
    6.0523  -12.2286   26.4334 C   0  0  0  0  0  0  0  0  0  0  0  0
    7.0486  -11.3670   26.8200 C   0  0  0  0  0  0  0  0  0  0  0  0
    8.3670  -11.7673   26.7893 C   0  0  0  0  0  0  0  0  0  0  0  0
    8.6396  -13.0445   26.3625 C   0  0  0  0  0  0  0  0  0  0  0  0
    7.6312  -13.9242   25.9686 C   0  0  0  0  0  0  0  0  0  0  0  0
   10.7346  -16.6856   23.9768 C   0  0  0  0  0  0  0  0  0  0  0  0
   10.4863  -17.8369   23.5423 O   0  0  0  0  0  0  0  0  0  0  0  0
   14.5045  -14.8904   22.2156 N   0  0  0  0  0  0  0  0  0  0  0  0
   14.2667  -16.3059   22.3900 C   0  0  0  0  0  0  0  0  0  0  0  0
   14.0283  -17.0420   21.4188 O   0  0  0  0  0  0  0  0  0  0  0  0
   14.3202  -16.8202   23.7527 C   0  0  0  0  0  0  0  0  0  0  0  0
   13.0624  -17.4843   24.2547 C   0  0  2  0  0  0  0  0  0  0  0  0
   12.0722  -16.3790   24.3286 N   0  0  0  0  0  0  0  0  0  0  0  0
   13.1860  -18.1223   25.5689 C   0  0  0  0  0  0  0  0  0  0  0  0
   12.6109  -17.7537   26.6098 O   0  0  0  0  0  0  0  0  0  0  0  0
   14.0143  -19.2511   25.7146 O   0  0  0  0  0  0  0  0  0  0  0  0
  1  2  1  0
  2  3  1  0
  4  3  1  0
  5  1  1  0
  5  4  1  0
  5  6  1  1
  7  6  2  0
  8  6  1  0
  9  8  1  0
 10 11  1  0
  9 10  1  1
 11 12  2  0
 13 12  1  0
 14 13  1  0
 15 14  2  0
 16 15  1  0
 17 16  2  0
 17 18  1  0
 18 19  2  0
 19 14  1  0
 19 11  1  0
 20  9  1  0
 20 27  1  0
 21 20  2  0
 22 23  1  0
 23 24  2  0
 23 25  1  0
 26 25  1  1
 26 27  1  0
 26 28  1  0
 28 30  1  0
 29 28  2  0
M  END
$$$$
