PWN.pdb
     RDKit          3D

 30 32  0  0  1  0  0  0  0  0999 V2000
    7.2094  -15.1356   20.6369 N   0  0  0  0  0  0  0  0  0  0  0  0
    6.5328  -14.7105   19.4020 C   0  0  0  0  0  0  0  0  0  0  0  0
    6.9631  -13.2659   19.2680 C   0  0  0  0  0  0  0  0  0  0  0  0
    8.1268  -13.0800   20.2521 C   0  0  0  0  0  0  0  0  0  0  0  0
    8.5104  -14.5281   20.4678 C   0  0  1  0  0  0  0  0  0  0  0  0
    9.3100  -14.7539   21.6816 C   0  0  0  0  0  0  0  0  0  0  0  0
   10.4563  -14.1937   21.8396 O   0  0  0  0  0  0  0  0  0  0  0  0
    8.7889  -15.6119   22.6893 N   0  0  0  0  0  0  0  0  0  0  0  0
    9.4441  -15.7678   23.9513 C   0  0  1  0  0  0  0  0  0  0  0  0
    8.5110  -16.1874   25.0585 C   0  0  0  0  0  0  0  0  0  0  0  0
    7.4230  -15.2319   25.2964 C   0  0  0  0  0  0  0  0  0  0  0  0
    6.0935  -15.4077   25.0072 C   0  0  0  0  0  0  0  0  0  0  0  0
    5.4599  -14.2889   25.3882 N   0  0  0  0  0  0  0  0  0  0  0  0
    6.3263  -13.4071   25.9076 C   0  0  0  0  0  0  0  0  0  0  0  0
    6.2075  -12.1385   26.4358 C   0  0  0  0  0  0  0  0  0  0  0  0
    7.2943  -11.4460   26.9090 C   0  0  0  0  0  0  0  0  0  0  0  0
    8.5514  -12.0093   26.8677 C   0  0  0  0  0  0  0  0  0  0  0  0
    8.6711  -13.2728   26.3418 C   0  0  0  0  0  0  0  0  0  0  0  0
    7.5703  -13.9811   25.8597 C   0  0  0  0  0  0  0  0  0  0  0  0
   10.4909  -16.8465   23.8496 C   0  0  0  0  0  0  0  0  0  0  0  0
   10.2745  -17.9364   23.2653 O   0  0  0  0  0  0  0  0  0  0  0  0
   15.2617  -18.8060   22.7869 N   0  0  0  0  0  0  0  0  0  0  0  0
   15.2529  -17.7980   23.8237 C   0  0  0  0  0  0  0  0  0  0  0  0
   16.2255  -17.6461   24.5805 O   0  0  0  0  0  0  0  0  0  0  0  0
   14.0539  -16.9767   23.9342 C   0  0  0  0  0  0  0  0  0  0  0  0
   12.7762  -17.7166   24.2424 C   0  0  2  0  0  0  0  0  0  0  0  0
   11.7683  -16.6407   24.4267 N   0  0  0  0  0  0  0  0  0  0  0  0
   12.8254  -18.5553   25.4439 C   0  0  0  0  0  0  0  0  0  0  0  0
   12.2773  -18.2955   26.5312 O   0  0  0  0  0  0  0  0  0  0  0  0
   13.5414  -19.7668   25.4130 O   0  0  0  0  0  0  0  0  0  0  0  0
  1  2  1  0
  2  3  1  0
  4  3  1  0
  5  1  1  0
  5  4  1  0
  5  6  1  1
  7  6  2  0
  8  6  1  0
  9  8  1  0
 10 11  1  0
  9 10  1  1
 11 12  2  0
 13 12  1  0
 14 13  1  0
 15 14  2  0
 16 15  1  0
 17 16  2  0
 17 18  1  0
 18 19  2  0
 19 14  1  0
 19 11  1  0
 20  9  1  0
 20 27  1  0
 21 20  2  0
 22 23  1  0
 23 24  2  0
 23 25  1  0
 26 25  1  1
 26 27  1  0
 26 28  1  0
 28 30  1  0
 29 28  2  0
M  END
$$$$
