PWN.pdb
     RDKit          3D

 30 32  0  0  1  0  0  0  0  0999 V2000
    7.3630  -15.3829   20.7398 N   0  0  0  0  0  0  0  0  0  0  0  0
    6.8072  -14.9676   19.4428 C   0  0  0  0  0  0  0  0  0  0  0  0
    7.2120  -13.5119   19.3589 C   0  0  0  0  0  0  0  0  0  0  0  0
    8.2626  -13.3028   20.4588 C   0  0  0  0  0  0  0  0  0  0  0  0
    8.6587  -14.7420   20.7084 C   0  0  1  0  0  0  0  0  0  0  0  0
    9.3339  -14.9549   21.9976 C   0  0  0  0  0  0  0  0  0  0  0  0
   10.4395  -14.3617   22.2781 O   0  0  0  0  0  0  0  0  0  0  0  0
    8.7375  -15.8377   22.9401 N   0  0  0  0  0  0  0  0  0  0  0  0
    9.2729  -15.9993   24.2566 C   0  0  1  0  0  0  0  0  0  0  0  0
    8.2120  -16.1714   25.3137 C   0  0  0  0  0  0  0  0  0  0  0  0
    7.2597  -15.0563   25.3696 C   0  0  0  0  0  0  0  0  0  0  0  0
    5.9744  -15.0450   24.8903 C   0  0  0  0  0  0  0  0  0  0  0  0
    5.4708  -13.8299   25.1519 N   0  0  0  0  0  0  0  0  0  0  0  0
    6.3780  -13.0655   25.7767 C   0  0  0  0  0  0  0  0  0  0  0  0
    6.3796  -11.7726   26.2572 C   0  0  0  0  0  0  0  0  0  0  0  0
    7.4801  -11.2297   26.8726 C   0  0  0  0  0  0  0  0  0  0  0  0
    8.6294  -11.9742   27.0286 C   0  0  0  0  0  0  0  0  0  0  0  0
    8.6291  -13.2621   26.5505 C   0  0  0  0  0  0  0  0  0  0  0  0
    7.5138  -13.8189   25.9244 C   0  0  0  0  0  0  0  0  0  0  0  0
   10.1260  -17.2401   24.3085 C   0  0  0  0  0  0  0  0  0  0  0  0
    9.7711  -18.3193   23.7743 O   0  0  0  0  0  0  0  0  0  0  0  0
   14.6200  -16.7551   23.3855 N   0  0  0  0  0  0  0  0  0  0  0  0
   14.0313  -18.0307   23.7279 C   0  0  0  0  0  0  0  0  0  0  0  0
   13.9652  -18.9516   22.8975 O   0  0  0  0  0  0  0  0  0  0  0  0
   13.5235  -18.1789   25.0860 C   0  0  0  0  0  0  0  0  0  0  0  0
   12.0560  -18.5055   25.2073 C   0  0  2  0  0  0  0  0  0  0  0  0
   11.3739  -17.2056   24.9782 N   0  0  0  0  0  0  0  0  0  0  0  0
   11.6523  -19.0502   26.5072 C   0  0  0  0  0  0  0  0  0  0  0  0
   10.9087  -18.4845   27.3300 O   0  0  0  0  0  0  0  0  0  0  0  0
   12.1208  -20.3176   26.9017 O   0  0  0  0  0  0  0  0  0  0  0  0
  1  2  1  0
  2  3  1  0
  4  3  1  0
  5  1  1  0
  5  4  1  0
  5  6  1  1
  7  6  2  0
  8  6  1  0
  9  8  1  0
 10 11  1  0
  9 10  1  1
 11 12  2  0
 13 12  1  0
 14 13  1  0
 15 14  2  0
 16 15  1  0
 17 16  2  0
 17 18  1  0
 18 19  2  0
 19 14  1  0
 19 11  1  0
 20  9  1  0
 20 27  1  0
 21 20  2  0
 22 23  1  0
 23 24  2  0
 23 25  1  0
 26 25  1  1
 26 27  1  0
 26 28  1  0
 28 30  1  0
 29 28  2  0
M  END
$$$$
