PWN.pdb
     RDKit          3D

 30 32  0  0  1  0  0  0  0  0999 V2000
    7.3097  -15.1580   20.7001 N   0  0  0  0  0  0  0  0  0  0  0  0
    6.7030  -14.6077   19.4783 C   0  0  0  0  0  0  0  0  0  0  0  0
    7.1123  -13.1518   19.5311 C   0  0  0  0  0  0  0  0  0  0  0  0
    8.2087  -13.0610   20.6021 C   0  0  0  0  0  0  0  0  0  0  0  0
    8.6065  -14.5191   20.6821 C   0  0  1  0  0  0  0  0  0  0  0  0
    9.3333  -14.8674   21.9125 C   0  0  0  0  0  0  0  0  0  0  0  0
   10.5239  -14.4339   22.1301 O   0  0  0  0  0  0  0  0  0  0  0  0
    8.6907  -15.7015   22.8690 N   0  0  0  0  0  0  0  0  0  0  0  0
    9.3350  -16.0723   24.0910 C   0  0  1  0  0  0  0  0  0  0  0  0
    8.3885  -16.1558   25.2614 C   0  0  0  0  0  0  0  0  0  0  0  0
    7.4047  -15.0674   25.2932 C   0  0  0  0  0  0  0  0  0  0  0  0
    6.1188  -15.1043   24.8165 C   0  0  0  0  0  0  0  0  0  0  0  0
    5.5810  -13.8983   25.0506 N   0  0  0  0  0  0  0  0  0  0  0  0
    6.4668  -13.0937   25.6554 C   0  0  0  0  0  0  0  0  0  0  0  0
    6.4320  -11.7904   26.1054 C   0  0  0  0  0  0  0  0  0  0  0  0
    7.5174  -11.2019   26.7057 C   0  0  0  0  0  0  0  0  0  0  0  0
    8.6878  -11.9092   26.8766 C   0  0  0  0  0  0  0  0  0  0  0  0
    8.7237  -13.2075   26.4288 C   0  0  0  0  0  0  0  0  0  0  0  0
    7.6239  -13.8106   25.8183 C   0  0  0  0  0  0  0  0  0  0  0  0
    9.9488  -17.4406   23.9459 C   0  0  0  0  0  0  0  0  0  0  0  0
    9.7601  -18.1547   22.9308 O   0  0  0  0  0  0  0  0  0  0  0  0
   15.1273  -18.4565   23.9251 N   0  0  0  0  0  0  0  0  0  0  0  0
   13.9609  -18.2648   23.0924 C   0  0  0  0  0  0  0  0  0  0  0  0
   13.9827  -18.5423   21.8822 O   0  0  0  0  0  0  0  0  0  0  0  0
   12.7685  -17.7335   23.7405 C   0  0  0  0  0  0  0  0  0  0  0  0
   11.9789  -18.7145   24.5706 C   0  0  2  0  0  0  0  0  0  0  0  0
   10.7698  -17.9540   24.9800 N   0  0  0  0  0  0  0  0  0  0  0  0
   12.6737  -19.2116   25.7619 C   0  0  0  0  0  0  0  0  0  0  0  0
   12.9070  -20.4075   26.0179 O   0  0  0  0  0  0  0  0  0  0  0  0
   13.1346  -18.2958   26.7265 O   0  0  0  0  0  0  0  0  0  0  0  0
  1  2  1  0
  2  3  1  0
  4  3  1  0
  5  1  1  0
  5  4  1  0
  5  6  1  1
  7  6  2  0
  8  6  1  0
  9  8  1  0
 10 11  1  0
  9 10  1  1
 11 12  2  0
 13 12  1  0
 14 13  1  0
 15 14  2  0
 16 15  1  0
 17 16  2  0
 17 18  1  0
 18 19  2  0
 19 14  1  0
 19 11  1  0
 20  9  1  0
 20 27  1  0
 21 20  2  0
 22 23  1  0
 23 24  2  0
 23 25  1  0
 26 25  1  1
 26 27  1  0
 26 28  1  0
 28 30  1  0
 29 28  2  0
M  END
$$$$
