PWN.pdb
     RDKit          3D

 30 32  0  0  1  0  0  0  0  0999 V2000
    7.5828  -15.1708   18.8301 N   0  0  0  0  0  0  0  0  0  0  0  0
    7.3885  -14.7984   17.4205 C   0  0  0  0  0  0  0  0  0  0  0  0
    7.6259  -13.3039   17.4362 C   0  0  0  0  0  0  0  0  0  0  0  0
    8.2740  -12.9946   18.7932 C   0  0  0  0  0  0  0  0  0  0  0  0
    8.7455  -14.3822   19.1714 C   0  0  1  0  0  0  0  0  0  0  0  0
    9.0315  -14.5395   20.6055 C   0  0  0  0  0  0  0  0  0  0  0  0
   10.1417  -14.1359   21.1131 O   0  0  0  0  0  0  0  0  0  0  0  0
    8.0492  -15.1526   21.4316 N   0  0  0  0  0  0  0  0  0  0  0  0
    8.2004  -15.2157   22.8526 C   0  0  1  0  0  0  0  0  0  0  0  0
    6.8885  -15.1649   23.5936 C   0  0  0  0  0  0  0  0  0  0  0  0
    7.0383  -14.8678   25.0228 C   0  0  0  0  0  0  0  0  0  0  0  0
    7.3249  -15.7600   26.0247 C   0  0  0  0  0  0  0  0  0  0  0  0
    7.3686  -15.0616   27.1687 N   0  0  0  0  0  0  0  0  0  0  0  0
    7.1225  -13.7633   26.9410 C   0  0  0  0  0  0  0  0  0  0  0  0
    7.0489  -12.6431   27.7423 C   0  0  0  0  0  0  0  0  0  0  0  0
    6.7723  -11.4009   27.2274 C   0  0  0  0  0  0  0  0  0  0  0  0
    6.5577  -11.2388   25.8757 C   0  0  0  0  0  0  0  0  0  0  0  0
    6.6307  -12.3539   25.0765 C   0  0  0  0  0  0  0  0  0  0  0  0
    6.9115  -13.6184   25.5942 C   0  0  0  0  0  0  0  0  0  0  0  0
    8.8518  -16.5189   23.2360 C   0  0  0  0  0  0  0  0  0  0  0  0
    8.7102  -17.5639   22.5550 O   0  0  0  0  0  0  0  0  0  0  0  0
   13.3350  -18.6101   23.9139 N   0  0  0  0  0  0  0  0  0  0  0  0
   12.9735  -17.5401   23.0110 C   0  0  0  0  0  0  0  0  0  0  0  0
   13.7303  -17.1937   22.0894 O   0  0  0  0  0  0  0  0  0  0  0  0
   11.6866  -16.8942   23.2361 C   0  0  0  0  0  0  0  0  0  0  0  0
   10.8491  -17.4682   24.3515 C   0  0  2  0  0  0  0  0  0  0  0  0
    9.6551  -16.5853   24.4012 N   0  0  0  0  0  0  0  0  0  0  0  0
   11.5018  -17.4867   25.6641 C   0  0  0  0  0  0  0  0  0  0  0  0
   12.1043  -18.4569   26.1597 O   0  0  0  0  0  0  0  0  0  0  0  0
   11.4706  -16.3318   26.4684 O   0  0  0  0  0  0  0  0  0  0  0  0
  1  2  1  0
  2  3  1  0
  4  3  1  0
  5  1  1  0
  5  4  1  0
  5  6  1  1
  7  6  2  0
  8  6  1  0
  9  8  1  0
 10 11  1  0
  9 10  1  1
 11 12  2  0
 13 12  1  0
 14 13  1  0
 15 14  2  0
 16 15  1  0
 17 16  2  0
 17 18  1  0
 18 19  2  0
 19 14  1  0
 19 11  1  0
 20  9  1  0
 20 27  1  0
 21 20  2  0
 22 23  1  0
 23 24  2  0
 23 25  1  0
 26 25  1  6
 26 27  1  0
 26 28  1  0
 28 30  1  0
 29 28  2  0
M  END
$$$$
