PWN.pdb
     RDKit          3D

 30 32  0  0  1  0  0  0  0  0999 V2000
    7.1184  -15.3108   21.0614 N   0  0  0  0  0  0  0  0  0  0  0  0
    6.3839  -14.9716   19.8330 C   0  0  0  0  0  0  0  0  0  0  0  0
    6.8543  -13.5628   19.5432 C   0  0  0  0  0  0  0  0  0  0  0  0
    8.0806  -13.3356   20.4386 C   0  0  0  0  0  0  0  0  0  0  0  0
    8.4269  -14.7726   20.7641 C   0  0  1  0  0  0  0  0  0  0  0  0
    9.2896  -14.9201   21.9462 C   0  0  0  0  0  0  0  0  0  0  0  0
   10.4543  -14.3777   21.9946 O   0  0  0  0  0  0  0  0  0  0  0  0
    8.8096  -15.6815   23.0476 N   0  0  0  0  0  0  0  0  0  0  0  0
    9.5067  -15.7122   24.2963 C   0  0  1  0  0  0  0  0  0  0  0  0
    8.6178  -16.0499   25.4661 C   0  0  0  0  0  0  0  0  0  0  0  0
    7.4509  -15.1679   25.5841 C   0  0  0  0  0  0  0  0  0  0  0  0
    6.1422  -15.4941   25.3333 C   0  0  0  0  0  0  0  0  0  0  0  0
    5.4136  -14.3929   25.5672 N   0  0  0  0  0  0  0  0  0  0  0  0
    6.1995  -13.3785   25.9561 C   0  0  0  0  0  0  0  0  0  0  0  0
    5.9706  -12.0655   26.3112 C   0  0  0  0  0  0  0  0  0  0  0  0
    6.9925  -11.2253   26.6777 C   0  0  0  0  0  0  0  0  0  0  0  0
    8.2936  -11.6791   26.7005 C   0  0  0  0  0  0  0  0  0  0  0  0
    8.5230  -12.9868   26.3470 C   0  0  0  0  0  0  0  0  0  0  0  0
    7.4885  -13.8450   25.9739 C   0  0  0  0  0  0  0  0  0  0  0  0
   10.5734  -16.7754   24.2557 C   0  0  0  0  0  0  0  0  0  0  0  0
   10.3560  -17.9247   23.8000 O   0  0  0  0  0  0  0  0  0  0  0  0
   13.5382  -16.5825   22.6108 N   0  0  0  0  0  0  0  0  0  0  0  0
   14.5157  -16.4918   23.6724 C   0  0  0  0  0  0  0  0  0  0  0  0
   15.6141  -15.9423   23.4893 O   0  0  0  0  0  0  0  0  0  0  0  0
   14.1491  -17.0738   24.9574 C   0  0  0  0  0  0  0  0  0  0  0  0
   12.7544  -17.6408   25.0485 C   0  0  2  0  0  0  0  0  0  0  0  0
   11.8714  -16.4853   24.7437 N   0  0  0  0  0  0  0  0  0  0  0  0
   12.4010  -18.1977   26.3578 C   0  0  0  0  0  0  0  0  0  0  0  0
   11.6083  -17.6881   27.1714 O   0  0  0  0  0  0  0  0  0  0  0  0
   12.9825  -19.4104   26.7734 O   0  0  0  0  0  0  0  0  0  0  0  0
  1  2  1  0
  2  3  1  0
  4  3  1  0
  5  1  1  0
  5  4  1  0
  5  6  1  1
  7  6  2  0
  8  6  1  0
  9  8  1  0
 10 11  1  0
  9 10  1  1
 11 12  2  0
 13 12  1  0
 14 13  1  0
 15 14  2  0
 16 15  1  0
 17 16  2  0
 17 18  1  0
 18 19  2  0
 19 14  1  0
 19 11  1  0
 20  9  1  0
 20 27  1  0
 21 20  2  0
 22 23  1  0
 23 24  2  0
 23 25  1  0
 26 25  1  1
 26 27  1  0
 26 28  1  0
 28 30  1  0
 29 28  2  0
M  END
$$$$
