PWN.pdb
     RDKit          3D

 30 32  0  0  1  0  0  0  0  0999 V2000
    7.1973  -15.3474   20.9742 N   0  0  0  0  0  0  0  0  0  0  0  0
    6.4934  -14.9176   19.7563 C   0  0  0  0  0  0  0  0  0  0  0  0
    6.9271  -13.4748   19.6139 C   0  0  0  0  0  0  0  0  0  0  0  0
    8.1149  -13.2956   20.5701 C   0  0  0  0  0  0  0  0  0  0  0  0
    8.4968  -14.7458   20.7749 C   0  0  1  0  0  0  0  0  0  0  0  0
    9.3239  -14.9768   21.9690 C   0  0  0  0  0  0  0  0  0  0  0  0
   10.5288  -14.5342   22.0423 O   0  0  0  0  0  0  0  0  0  0  0  0
    8.7634  -15.7063   23.0538 N   0  0  0  0  0  0  0  0  0  0  0  0
    9.4620  -15.8595   24.2926 C   0  0  1  0  0  0  0  0  0  0  0  0
    8.5497  -16.1388   25.4598 C   0  0  0  0  0  0  0  0  0  0  0  0
    7.5174  -15.1134   25.6502 C   0  0  0  0  0  0  0  0  0  0  0  0
    6.1776  -15.2323   25.3801 C   0  0  0  0  0  0  0  0  0  0  0  0
    5.6092  -14.0609   25.7011 N   0  0  0  0  0  0  0  0  0  0  0  0
    6.5270  -13.1998   26.1639 C   0  0  0  0  0  0  0  0  0  0  0  0
    6.4822  -11.8989   26.6200 C   0  0  0  0  0  0  0  0  0  0  0  0
    7.6094  -11.2413   27.0460 C   0  0  0  0  0  0  0  0  0  0  0  0
    8.8337  -11.8738   27.0286 C   0  0  0  0  0  0  0  0  0  0  0  0
    8.8797  -13.1696   26.5745 C   0  0  0  0  0  0  0  0  0  0  0  0
    7.7376  -13.8428   26.1405 C   0  0  0  0  0  0  0  0  0  0  0  0
   10.4035  -17.0323   24.2024 C   0  0  0  0  0  0  0  0  0  0  0  0
   10.0570  -18.1323   23.7065 O   0  0  0  0  0  0  0  0  0  0  0  0
   14.8775  -16.7925   22.2325 N   0  0  0  0  0  0  0  0  0  0  0  0
   14.6645  -17.8714   23.1714 C   0  0  0  0  0  0  0  0  0  0  0  0
   15.0422  -19.0270   22.9188 O   0  0  0  0  0  0  0  0  0  0  0  0
   13.9891  -17.5359   24.4186 C   0  0  0  0  0  0  0  0  0  0  0  0
   12.6025  -18.1043   24.5890 C   0  0  2  0  0  0  0  0  0  0  0  0
   11.7283  -16.9069   24.6883 N   0  0  0  0  0  0  0  0  0  0  0  0
   12.4233  -18.9437   25.7775 C   0  0  0  0  0  0  0  0  0  0  0  0
   12.8067  -20.1222   25.8962 O   0  0  0  0  0  0  0  0  0  0  0  0
   11.7675  -18.4149   26.9053 O   0  0  0  0  0  0  0  0  0  0  0  0
  1  2  1  0
  2  3  1  0
  4  3  1  0
  5  1  1  0
  5  4  1  0
  5  6  1  1
  7  6  2  0
  8  6  1  0
  9  8  1  0
 10 11  1  0
  9 10  1  1
 11 12  2  0
 13 12  1  0
 14 13  1  0
 15 14  2  0
 16 15  1  0
 17 16  2  0
 17 18  1  0
 18 19  2  0
 19 14  1  0
 19 11  1  0
 20  9  1  0
 20 27  1  0
 21 20  2  0
 22 23  1  0
 23 24  2  0
 23 25  1  0
 26 25  1  1
 26 27  1  0
 26 28  1  0
 28 30  1  0
 29 28  2  0
M  END
$$$$
