PWN.pdb
     RDKit          3D

 30 32  0  0  1  0  0  0  0  0999 V2000
    7.2963  -16.0558   21.3691 N   0  0  0  0  0  0  0  0  0  0  0  0
    6.5812  -15.7939   20.1107 C   0  0  0  0  0  0  0  0  0  0  0  0
    6.6888  -14.2906   19.9743 C   0  0  0  0  0  0  0  0  0  0  0  0
    7.7530  -13.8506   20.9897 C   0  0  0  0  0  0  0  0  0  0  0  0
    8.4374  -15.1787   21.2316 C   0  0  1  0  0  0  0  0  0  0  0  0
    9.2294  -15.2192   22.4703 C   0  0  0  0  0  0  0  0  0  0  0  0
   10.1985  -14.3983   22.6702 O   0  0  0  0  0  0  0  0  0  0  0  0
    8.9028  -16.1925   23.4548 N   0  0  0  0  0  0  0  0  0  0  0  0
    9.5375  -16.2023   24.7366 C   0  0  1  0  0  0  0  0  0  0  0  0
    8.5656  -16.3361   25.8811 C   0  0  0  0  0  0  0  0  0  0  0  0
    7.4804  -15.3491   25.8417 C   0  0  0  0  0  0  0  0  0  0  0  0
    6.1712  -15.5765   25.5008 C   0  0  0  0  0  0  0  0  0  0  0  0
    5.5321  -14.4018   25.6002 N   0  0  0  0  0  0  0  0  0  0  0  0
    6.3757  -13.4349   25.9894 C   0  0  0  0  0  0  0  0  0  0  0  0
    6.2427  -12.0849   26.2386 C   0  0  0  0  0  0  0  0  0  0  0  0
    7.3060  -11.3134   26.6369 C   0  0  0  0  0  0  0  0  0  0  0  0
    8.5531  -11.8767   26.8004 C   0  0  0  0  0  0  0  0  0  0  0  0
    8.6870  -13.2213   26.5525 C   0  0  0  0  0  0  0  0  0  0  0  0
    7.6100  -14.0101   26.1477 C   0  0  0  0  0  0  0  0  0  0  0  0
   10.4684  -17.3830   24.8327 C   0  0  0  0  0  0  0  0  0  0  0  0
   10.1025  -18.5490   24.5453 O   0  0  0  0  0  0  0  0  0  0  0  0
   14.6423  -18.2689   22.9895 N   0  0  0  0  0  0  0  0  0  0  0  0
   14.3896  -17.3506   24.0775 C   0  0  0  0  0  0  0  0  0  0  0  0
   14.4662  -16.1222   23.9126 O   0  0  0  0  0  0  0  0  0  0  0  0
   14.0438  -17.9356   25.3668 C   0  0  0  0  0  0  0  0  0  0  0  0
   12.6184  -18.4063   25.5142 C   0  0  2  0  0  0  0  0  0  0  0  0
   11.8053  -17.1891   25.2596 N   0  0  0  0  0  0  0  0  0  0  0  0
   12.2845  -18.9538   26.8326 C   0  0  0  0  0  0  0  0  0  0  0  0
   11.4989  -18.4417   27.6515 O   0  0  0  0  0  0  0  0  0  0  0  0
   12.8781  -20.1594   27.2515 O   0  0  0  0  0  0  0  0  0  0  0  0
  1  2  1  0
  2  3  1  0
  4  3  1  0
  5  1  1  0
  5  4  1  0
  5  6  1  1
  7  6  2  0
  8  6  1  0
  9  8  1  0
 10 11  1  0
  9 10  1  1
 11 12  2  0
 13 12  1  0
 14 13  1  0
 15 14  2  0
 16 15  1  0
 17 16  2  0
 17 18  1  0
 18 19  2  0
 19 14  1  0
 19 11  1  0
 20  9  1  0
 20 27  1  0
 21 20  2  0
 22 23  1  0
 23 24  2  0
 23 25  1  0
 26 25  1  1
 26 27  1  0
 26 28  1  0
 28 30  1  0
 29 28  2  0
M  END
$$$$
