PWN.pdb
     RDKit          3D

 30 32  0  0  1  0  0  0  0  0999 V2000
    7.1646  -15.2246   20.8320 N   0  0  0  0  0  0  0  0  0  0  0  0
    6.3930  -14.8561   19.6352 C   0  0  0  0  0  0  0  0  0  0  0  0
    6.8099  -13.4204   19.4005 C   0  0  0  0  0  0  0  0  0  0  0  0
    8.0468  -13.1916   20.2808 C   0  0  0  0  0  0  0  0  0  0  0  0
    8.4478  -14.6290   20.5336 C   0  0  1  0  0  0  0  0  0  0  0  0
    9.3400  -14.7998   21.6903 C   0  0  0  0  0  0  0  0  0  0  0  0
   10.5292  -14.3112   21.6940 O   0  0  0  0  0  0  0  0  0  0  0  0
    8.8609  -15.5226   22.8179 N   0  0  0  0  0  0  0  0  0  0  0  0
    9.5863  -15.5531   24.0503 C   0  0  1  0  0  0  0  0  0  0  0  0
    8.7504  -16.0009   25.2221 C   0  0  0  0  0  0  0  0  0  0  0  0
    7.5845  -15.1440   25.4668 C   0  0  0  0  0  0  0  0  0  0  0  0
    6.2662  -15.4705   25.2732 C   0  0  0  0  0  0  0  0  0  0  0  0
    5.5427  -14.3964   25.6216 N   0  0  0  0  0  0  0  0  0  0  0  0
    6.3411  -13.3991   26.0288 C   0  0  0  0  0  0  0  0  0  0  0  0
    6.1218  -12.1150   26.4820 C   0  0  0  0  0  0  0  0  0  0  0  0
    7.1560  -11.2869   26.8414 C   0  0  0  0  0  0  0  0  0  0  0  0
    8.4603  -11.7240   26.7571 C   0  0  0  0  0  0  0  0  0  0  0  0
    8.6802  -13.0028   26.3057 C   0  0  0  0  0  0  0  0  0  0  0  0
    7.6331  -13.8487   25.9394 C   0  0  0  0  0  0  0  0  0  0  0  0
   10.7250  -16.5339   23.9445 C   0  0  0  0  0  0  0  0  0  0  0  0
   10.6083  -17.6336   23.3504 O   0  0  0  0  0  0  0  0  0  0  0  0
   15.7084  -18.0009   22.8948 N   0  0  0  0  0  0  0  0  0  0  0  0
   15.5599  -17.0602   23.9829 C   0  0  0  0  0  0  0  0  0  0  0  0
   16.4760  -16.8731   24.8001 O   0  0  0  0  0  0  0  0  0  0  0  0
   14.2907  -16.3492   24.0708 C   0  0  0  0  0  0  0  0  0  0  0  0
   13.0766  -17.2022   24.3417 C   0  0  2  0  0  0  0  0  0  0  0  0
   11.9770  -16.2207   24.5290 N   0  0  0  0  0  0  0  0  0  0  0  0
   13.1784  -18.0585   25.5274 C   0  0  0  0  0  0  0  0  0  0  0  0
   12.6885  -17.8097   26.6446 O   0  0  0  0  0  0  0  0  0  0  0  0
   13.8805  -19.2757   25.4433 O   0  0  0  0  0  0  0  0  0  0  0  0
  1  2  1  0
  2  3  1  0
  4  3  1  0
  5  1  1  0
  5  4  1  0
  5  6  1  1
  7  6  2  0
  8  6  1  0
  9  8  1  0
 10 11  1  0
  9 10  1  1
 11 12  2  0
 13 12  1  0
 14 13  1  0
 15 14  2  0
 16 15  1  0
 17 16  2  0
 17 18  1  0
 18 19  2  0
 19 14  1  0
 19 11  1  0
 20  9  1  0
 20 27  1  0
 21 20  2  0
 22 23  1  0
 23 24  2  0
 23 25  1  0
 26 25  1  1
 26 27  1  0
 26 28  1  0
 28 30  1  0
 29 28  2  0
M  END
$$$$
