PWN.pdb
     RDKit          3D

 30 32  0  0  1  0  0  0  0  0999 V2000
    7.1972  -15.6912   21.3663 N   0  0  0  0  0  0  0  0  0  0  0  0
    6.4690  -15.2609   20.1630 C   0  0  0  0  0  0  0  0  0  0  0  0
    6.8433  -13.7988   20.0533 C   0  0  0  0  0  0  0  0  0  0  0  0
    8.0290  -13.5949   21.0073 C   0  0  0  0  0  0  0  0  0  0  0  0
    8.4702  -15.0329   21.1747 C   0  0  1  0  0  0  0  0  0  0  0  0
    9.3135  -15.2591   22.3583 C   0  0  0  0  0  0  0  0  0  0  0  0
   10.5135  -14.8018   22.4202 O   0  0  0  0  0  0  0  0  0  0  0  0
    8.7743  -16.0005   23.4459 N   0  0  0  0  0  0  0  0  0  0  0  0
    9.5259  -16.2286   24.6414 C   0  0  1  0  0  0  0  0  0  0  0  0
    8.6728  -16.2602   25.8839 C   0  0  0  0  0  0  0  0  0  0  0  0
    7.5034  -15.3768   25.8097 C   0  0  0  0  0  0  0  0  0  0  0  0
    6.2190  -15.7347   25.4869 C   0  0  0  0  0  0  0  0  0  0  0  0
    5.4775  -14.6186   25.5406 N   0  0  0  0  0  0  0  0  0  0  0  0
    6.2320  -13.5644   25.8832 C   0  0  0  0  0  0  0  0  0  0  0  0
    5.9791  -12.2223   26.0760 C   0  0  0  0  0  0  0  0  0  0  0  0
    6.9701  -11.3425   26.4346 C   0  0  0  0  0  0  0  0  0  0  0  0
    8.2630  -11.7845   26.6139 C   0  0  0  0  0  0  0  0  0  0  0  0
    8.5162  -13.1211   26.4222 C   0  0  0  0  0  0  0  0  0  0  0  0
    7.5133  -14.0196   26.0579 C   0  0  0  0  0  0  0  0  0  0  0  0
   10.2083  -17.5696   24.5634 C   0  0  0  0  0  0  0  0  0  0  0  0
    9.8688  -18.4461   23.7312 O   0  0  0  0  0  0  0  0  0  0  0  0
   13.6378  -19.9225   22.1376 N   0  0  0  0  0  0  0  0  0  0  0  0
   13.9775  -18.9207   23.1233 C   0  0  0  0  0  0  0  0  0  0  0  0
   15.1603  -18.6862   23.4200 O   0  0  0  0  0  0  0  0  0  0  0  0
   12.8700  -18.2065   23.7459 C   0  0  0  0  0  0  0  0  0  0  0  0
   12.2903  -18.8432   24.9843 C   0  0  2  0  0  0  0  0  0  0  0  0
   11.2710  -17.8683   25.4514 N   0  0  0  0  0  0  0  0  0  0  0  0
   13.2575  -19.0951   26.0569 C   0  0  0  0  0  0  0  0  0  0  0  0
   14.0779  -20.0311   26.0871 O   0  0  0  0  0  0  0  0  0  0  0  0
   13.2990  -18.2314   27.1677 O   0  0  0  0  0  0  0  0  0  0  0  0
  1  2  1  0
  2  3  1  0
  4  3  1  0
  5  1  1  0
  5  4  1  0
  5  6  1  1
  7  6  2  0
  8  6  1  0
  9  8  1  0
 10 11  1  0
  9 10  1  1
 11 12  2  0
 13 12  1  0
 14 13  1  0
 15 14  2  0
 16 15  1  0
 17 16  2  0
 17 18  1  0
 18 19  2  0
 19 14  1  0
 19 11  1  0
 20  9  1  0
 20 27  1  0
 21 20  2  0
 22 23  1  0
 23 24  2  0
 23 25  1  0
 26 25  1  6
 26 27  1  0
 26 28  1  0
 28 30  1  0
 29 28  2  0
M  END
$$$$
