PWN.pdb
     RDKit          3D

 30 32  0  0  1  0  0  0  0  0999 V2000
    7.2288  -15.3834   20.8210 N   0  0  0  0  0  0  0  0  0  0  0  0
    6.5467  -15.0376   19.5645 C   0  0  0  0  0  0  0  0  0  0  0  0
    6.7960  -13.5494   19.4502 C   0  0  0  0  0  0  0  0  0  0  0  0
    7.8927  -13.2260   20.4748 C   0  0  0  0  0  0  0  0  0  0  0  0
    8.4480  -14.6159   20.6994 C   0  0  1  0  0  0  0  0  0  0  0  0
    9.2275  -14.7484   21.9396 C   0  0  0  0  0  0  0  0  0  0  0  0
   10.2390  -13.9909   22.1765 O   0  0  0  0  0  0  0  0  0  0  0  0
    8.8403  -15.7395   22.8836 N   0  0  0  0  0  0  0  0  0  0  0  0
    9.4458  -15.8175   24.1772 C   0  0  1  0  0  0  0  0  0  0  0  0
    8.4566  -16.0887   25.2820 C   0  0  0  0  0  0  0  0  0  0  0  0
    7.3460  -15.1302   25.3173 C   0  0  0  0  0  0  0  0  0  0  0  0
    6.0609  -15.3411   24.8859 C   0  0  0  0  0  0  0  0  0  0  0  0
    5.3841  -14.2043   25.1048 N   0  0  0  0  0  0  0  0  0  0  0  0
    6.1805  -13.2774   25.6566 C   0  0  0  0  0  0  0  0  0  0  0  0
    5.9969  -11.9748   26.0714 C   0  0  0  0  0  0  0  0  0  0  0  0
    7.0181  -11.2377   26.6178 C   0  0  0  0  0  0  0  0  0  0  0  0
    8.2723  -11.7888   26.7682 C   0  0  0  0  0  0  0  0  0  0  0  0
    8.4564  -13.0861   26.3554 C   0  0  0  0  0  0  0  0  0  0  0  0
    7.4225  -13.8398   25.7997 C   0  0  0  0  0  0  0  0  0  0  0  0
   10.4342  -16.9542   24.2069 C   0  0  0  0  0  0  0  0  0  0  0  0
   10.1679  -18.0854   23.7322 O   0  0  0  0  0  0  0  0  0  0  0  0
   14.3168  -15.4713   23.3150 N   0  0  0  0  0  0  0  0  0  0  0  0
   14.1893  -16.9095   23.3933 C   0  0  0  0  0  0  0  0  0  0  0  0
   14.2725  -17.6182   22.3770 O   0  0  0  0  0  0  0  0  0  0  0  0
   13.9599  -17.4799   24.7147 C   0  0  0  0  0  0  0  0  0  0  0  0
   12.5573  -17.9624   24.9881 C   0  0  2  0  0  0  0  0  0  0  0  0
   11.7121  -16.7572   24.7859 N   0  0  0  0  0  0  0  0  0  0  0  0
   12.3414  -18.4936   26.3373 C   0  0  0  0  0  0  0  0  0  0  0  0
   11.6415  -17.9643   27.2205 O   0  0  0  0  0  0  0  0  0  0  0  0
   12.9576  -19.7026   26.7116 O   0  0  0  0  0  0  0  0  0  0  0  0
  1  2  1  0
  2  3  1  0
  4  3  1  0
  5  1  1  0
  5  4  1  0
  5  6  1  1
  7  6  2  0
  8  6  1  0
  9  8  1  0
 10 11  1  0
  9 10  1  1
 11 12  2  0
 13 12  1  0
 14 13  1  0
 15 14  2  0
 16 15  1  0
 17 16  2  0
 17 18  1  0
 18 19  2  0
 19 14  1  0
 19 11  1  0
 20  9  1  0
 20 27  1  0
 21 20  2  0
 22 23  1  0
 23 24  2  0
 23 25  1  0
 26 25  1  1
 26 27  1  0
 26 28  1  0
 28 30  1  0
 29 28  2  0
M  END
$$$$
