PWN.pdb
     RDKit          3D

 30 32  0  0  1  0  0  0  0  0999 V2000
    7.2381  -15.5415   21.2606 N   0  0  0  0  0  0  0  0  0  0  0  0
    6.4671  -15.2119   20.0522 C   0  0  0  0  0  0  0  0  0  0  0  0
    6.8530  -13.7715   19.7946 C   0  0  0  0  0  0  0  0  0  0  0  0
    8.0781  -13.4991   20.6791 C   0  0  0  0  0  0  0  0  0  0  0  0
    8.5096  -14.9222   20.9603 C   0  0  1  0  0  0  0  0  0  0  0  0
    9.3971  -15.0520   22.1259 C   0  0  0  0  0  0  0  0  0  0  0  0
   10.5740  -14.5344   22.1299 O   0  0  0  0  0  0  0  0  0  0  0  0
    8.9275  -15.7678   23.2619 N   0  0  0  0  0  0  0  0  0  0  0  0
    9.6552  -15.7777   24.4933 C   0  0  1  0  0  0  0  0  0  0  0  0
    8.7866  -16.0462   25.6958 C   0  0  0  0  0  0  0  0  0  0  0  0
    7.6034  -15.1809   25.7642 C   0  0  0  0  0  0  0  0  0  0  0  0
    6.3062  -15.5352   25.4928 C   0  0  0  0  0  0  0  0  0  0  0  0
    5.5549  -14.4404   25.6810 N   0  0  0  0  0  0  0  0  0  0  0  0
    6.3155  -13.4033   26.0604 C   0  0  0  0  0  0  0  0  0  0  0  0
    6.0576  -12.0854   26.3752 C   0  0  0  0  0  0  0  0  0  0  0  0
    7.0574  -11.2191   26.7420 C   0  0  0  0  0  0  0  0  0  0  0  0
    8.3647  -11.6506   26.8061 C   0  0  0  0  0  0  0  0  0  0  0  0
    8.6229  -12.9630   26.4927 C   0  0  0  0  0  0  0  0  0  0  0  0
    7.6110  -13.8477   26.1194 C   0  0  0  0  0  0  0  0  0  0  0  0
   10.6870  -16.8751   24.4640 C   0  0  0  0  0  0  0  0  0  0  0  0
   10.4011  -18.0542   24.1414 O   0  0  0  0  0  0  0  0  0  0  0  0
   13.9332  -16.8524   22.4071 N   0  0  0  0  0  0  0  0  0  0  0  0
   14.5970  -16.3860   23.6041 C   0  0  0  0  0  0  0  0  0  0  0  0
   15.3573  -15.4046   23.5763 O   0  0  0  0  0  0  0  0  0  0  0  0
   14.3303  -17.1205   24.8343 C   0  0  0  0  0  0  0  0  0  0  0  0
   12.9582  -17.7362   24.9483 C   0  0  2  0  0  0  0  0  0  0  0  0
   12.0300  -16.5844   24.8088 N   0  0  0  0  0  0  0  0  0  0  0  0
   12.6972  -18.4274   26.2145 C   0  0  0  0  0  0  0  0  0  0  0  0
   12.9887  -19.6112   26.4668 O   0  0  0  0  0  0  0  0  0  0  0  0
   12.0650  -17.7338   27.2637 O   0  0  0  0  0  0  0  0  0  0  0  0
  1  2  1  0
  2  3  1  0
  4  3  1  0
  5  1  1  0
  5  4  1  0
  5  6  1  1
  7  6  2  0
  8  6  1  0
  9  8  1  0
 10 11  1  0
  9 10  1  1
 11 12  2  0
 13 12  1  0
 14 13  1  0
 15 14  2  0
 16 15  1  0
 17 16  2  0
 17 18  1  0
 18 19  2  0
 19 14  1  0
 19 11  1  0
 20  9  1  0
 20 27  1  0
 21 20  2  0
 22 23  1  0
 23 24  2  0
 23 25  1  0
 26 25  1  1
 26 27  1  0
 26 28  1  0
 28 30  1  0
 29 28  2  0
M  END
$$$$
