PTH.pdb
     RDKit          3D

 25 26  0  0  1  0  0  0  0  0999 V2000
   27.4302  -20.7055  -16.4644 N   0  0  0  0  0  0  0  0  0  0  0  0
   27.9824  -22.0006  -16.7891 C   0  0  0  0  0  0  0  0  0  0  0  0
   27.1023  -22.6355  -17.8114 C   0  0  0  0  0  0  0  0  0  0  0  0
   25.8214  -21.8354  -17.7892 C   0  0  0  0  0  0  0  0  0  0  0  0
   26.2818  -20.4927  -17.2791 C   0  0  1  0  0  0  0  0  0  0  0  0
   25.2129  -19.7527  -16.5772 C   0  0  0  0  0  0  0  0  0  0  0  0
   25.2088  -19.7719  -15.3178 O   0  0  0  0  0  0  0  0  0  0  0  0
   22.0923  -16.0836  -16.4925 C   0  0  0  0  0  0  0  0  0  0  0  0
   23.1809  -16.8308  -17.2289 C   0  0  1  0  0  0  0  0  0  0  0  0
   24.3620  -16.1510  -17.0795 O   0  0  0  0  0  0  0  0  0  0  0  0
   23.2290  -18.2391  -16.6718 C   0  0  2  0  0  0  0  0  0  0  0  0
   24.2290  -19.0473  -17.3234 N   0  0  0  0  0  0  0  0  0  0  0  0
   21.8915  -18.8371  -17.0202 C   0  0  0  0  0  0  0  0  0  0  0  0
   21.8345  -19.7563  -17.8774 O   0  0  0  0  0  0  0  0  0  0  0  0
   20.6869  -18.3982  -16.4128 N   0  0  0  0  0  0  0  0  0  0  0  0
   19.4632  -19.1204  -16.6869 C   0  0  1  0  0  0  0  0  0  0  0  0
   19.5482  -20.5605  -16.2191 C   0  0  0  0  0  0  0  0  0  0  0  0
   18.3308  -21.3090  -16.6283 C   0  0  0  0  0  0  0  0  0  0  0  0
   17.6715  -21.3376  -17.8315 C   0  0  0  0  0  0  0  0  0  0  0  0
   16.6232  -22.1640  -17.7099 N   0  0  0  0  0  0  0  0  0  0  0  0
   16.6145  -22.6543  -16.4495 C   0  0  0  0  0  0  0  0  0  0  0  0
   17.6564  -22.1367  -15.7788 N   0  0  0  0  0  0  0  0  0  0  0  0
   18.3178  -18.4504  -16.0211 C   0  0  0  0  0  0  0  0  0  0  0  0
   17.0514  -18.9712  -16.1715 O   0  0  0  0  0  0  0  0  0  0  0  0
   18.4935  -17.4080  -15.3183 O   0  0  0  0  0  0  0  0  0  0  0  0
  1  5  1  0
  1  2  1  0
  2  3  1  0
  4  3  1  0
  5  6  1  1
  5  4  1  0
  6  7  2  0
  9  8  1  1
  9 10  1  0
 11  9  1  0
 12  6  1  0
 11 12  1  6
 13 14  2  0
 13 11  1  0
 15 13  1  0
 16 17  1  1
 16 15  1  0
 17 18  1  0
 18 22  1  0
 18 19  2  0
 19 20  1  0
 21 20  1  0
 22 21  2  0
 23 24  1  0
 23 16  1  0
 25 23  2  0
M  END
$$$$
