PTH.pdb
     RDKit          3D

 25 26  0  0  1  0  0  0  0  0999 V2000
   28.7028  -27.1390  -17.3023 N   0  0  0  0  0  0  0  0  0  0  0  0
   28.9550  -28.5123  -16.9309 C   0  0  0  0  0  0  0  0  0  0  0  0
   27.6401  -29.1887  -16.7405 C   0  0  0  0  0  0  0  0  0  0  0  0
   26.6268  -28.0730  -16.6411 C   0  0  0  0  0  0  0  0  0  0  0  0
   27.2943  -26.9546  -17.4016 C   0  0  1  0  0  0  0  0  0  0  0  0
   26.8600  -25.6177  -16.9466 C   0  0  0  0  0  0  0  0  0  0  0  0
   27.5925  -25.0055  -16.1249 O   0  0  0  0  0  0  0  0  0  0  0  0
   24.8804  -21.3942  -17.4089 C   0  0  0  0  0  0  0  0  0  0  0  0
   25.5333  -22.6575  -17.9221 C   0  0  1  0  0  0  0  0  0  0  0  0
   26.8850  -22.4491  -18.0163 O   0  0  0  0  0  0  0  0  0  0  0  0
   25.1680  -23.7814  -16.9738 C   0  0  2  0  0  0  0  0  0  0  0  0
   25.6469  -25.0598  -17.4361 N   0  0  0  0  0  0  0  0  0  0  0  0
   23.6636  -23.8415  -17.0092 C   0  0  0  0  0  0  0  0  0  0  0  0
   23.0943  -24.4024  -17.9809 O   0  0  0  0  0  0  0  0  0  0  0  0
   22.8613  -23.2850  -15.9800 N   0  0  0  0  0  0  0  0  0  0  0  0
   21.4217  -23.3922  -16.0818 C   0  0  1  0  0  0  0  0  0  0  0  0
   20.7880  -23.6959  -14.7379 C   0  0  0  0  0  0  0  0  0  0  0  0
   21.0404  -25.1101  -14.3559 C   0  0  0  0  0  0  0  0  0  0  0  0
   21.6579  -26.1187  -15.0519 C   0  0  0  0  0  0  0  0  0  0  0  0
   21.6431  -27.2193  -14.2869 N   0  0  0  0  0  0  0  0  0  0  0  0
   21.0260  -26.9170  -13.1220 C   0  0  0  0  0  0  0  0  0  0  0  0
   20.6530  -25.6274  -13.1542 N   0  0  0  0  0  0  0  0  0  0  0  0
   20.8554  -22.1307  -16.6224 C   0  0  0  0  0  0  0  0  0  0  0  0
   19.6701  -22.1693  -17.3234 O   0  0  0  0  0  0  0  0  0  0  0  0
   21.4498  -21.0231  -16.4458 O   0  0  0  0  0  0  0  0  0  0  0  0
  1  5  1  0
  1  2  1  0
  2  3  1  0
  4  3  1  0
  5  6  1  1
  5  4  1  0
  6  7  2  0
  9  8  1  1
  9 10  1  0
 11  9  1  0
 12  6  1  0
 11 12  1  6
 13 14  2  0
 13 11  1  0
 15 13  1  0
 16 17  1  1
 16 15  1  0
 17 18  1  0
 18 22  1  0
 18 19  2  0
 19 20  1  0
 21 20  1  0
 22 21  2  0
 23 24  1  0
 23 16  1  0
 25 23  2  0
M  END
$$$$
