PTH.pdb
     RDKit          3D

 25 26  0  0  1  0  0  0  0  0999 V2000
   18.4827  -13.3251  -16.6976 N   0  0  0  0  0  0  0  0  0  0  0  0
   17.6665  -14.1711  -17.5376 C   0  0  0  0  0  0  0  0  0  0  0  0
   18.5733  -14.9567  -18.4227 C   0  0  0  0  0  0  0  0  0  0  0  0
   19.9138  -14.2659  -18.3366 C   0  0  0  0  0  0  0  0  0  0  0  0
   19.8507  -13.5937  -16.9879 C   0  0  1  0  0  0  0  0  0  0  0  0
   20.6982  -12.3857  -16.9131 C   0  0  0  0  0  0  0  0  0  0  0  0
   21.9412  -12.5250  -17.0616 O   0  0  0  0  0  0  0  0  0  0  0  0
   21.4067   -9.5861  -18.9348 C   0  0  0  0  0  0  0  0  0  0  0  0
   20.7022   -8.9844  -17.7402 C   0  0  1  0  0  0  0  0  0  0  0  0
   19.3818   -8.7939  -18.0559 O   0  0  0  0  0  0  0  0  0  0  0  0
   20.9055   -9.9215  -16.5670 C   0  0  2  0  0  0  0  0  0  0  0  0
   20.1048  -11.1146  -16.6794 N   0  0  0  0  0  0  0  0  0  0  0  0
   20.3894   -9.1619  -15.3734 C   0  0  0  0  0  0  0  0  0  0  0  0
   19.1645   -9.2199  -15.0916 O   0  0  0  0  0  0  0  0  0  0  0  0
   21.2400   -8.3791  -14.5510 N   0  0  0  0  0  0  0  0  0  0  0  0
   20.6596   -7.6379  -13.4519 C   0  0  1  0  0  0  0  0  0  0  0  0
   21.5993   -7.5750  -12.2632 C   0  0  0  0  0  0  0  0  0  0  0  0
   20.9763   -6.8079  -11.1527 C   0  0  0  0  0  0  0  0  0  0  0  0
   19.7098   -6.2935  -11.0331 C   0  0  0  0  0  0  0  0  0  0  0  0
   19.6220   -5.6808   -9.8441 N   0  0  0  0  0  0  0  0  0  0  0  0
   20.8135   -5.8028   -9.2160 C   0  0  0  0  0  0  0  0  0  0  0  0
   21.6501   -6.4916  -10.0091 N   0  0  0  0  0  0  0  0  0  0  0  0
   20.3228   -6.2599  -13.8901 C   0  0  0  0  0  0  0  0  0  0  0  0
   21.2480   -5.5357  -14.6093 O   0  0  0  0  0  0  0  0  0  0  0  0
   19.1966   -5.7457  -13.6098 O   0  0  0  0  0  0  0  0  0  0  0  0
  1  5  1  0
  1  2  1  0
  2  3  1  0
  4  3  1  0
  5  6  1  6
  5  4  1  0
  6  7  2  0
  9  8  1  6
  9 10  1  0
 11  9  1  0
 12  6  1  0
 11 12  1  6
 13 14  2  0
 13 11  1  0
 15 13  1  0
 16 17  1  1
 16 15  1  0
 17 18  1  0
 18 22  1  0
 18 19  2  0
 19 20  1  0
 21 20  1  0
 22 21  2  0
 23 24  1  0
 23 16  1  0
 25 23  2  0
M  END
$$$$
