PTH.pdb
     RDKit          3D

 25 26  0  0  1  0  0  0  0  0999 V2000
   25.0366  -11.5491  -20.1893 N   0  0  0  0  0  0  0  0  0  0  0  0
   25.7033  -12.5057  -21.0425 C   0  0  0  0  0  0  0  0  0  0  0  0
   25.2337  -13.8692  -20.6637 C   0  0  0  0  0  0  0  0  0  0  0  0
   24.5667  -13.7033  -19.3186 C   0  0  0  0  0  0  0  0  0  0  0  0
   24.1390  -12.2571  -19.3404 C   0  0  1  0  0  0  0  0  0  0  0  0
   24.0486  -11.6693  -17.9878 C   0  0  0  0  0  0  0  0  0  0  0  0
   23.3022  -12.2351  -17.1456 O   0  0  0  0  0  0  0  0  0  0  0  0
   26.6092  -11.1135  -15.4558 C   0  0  0  0  0  0  0  0  0  0  0  0
   26.0652   -9.7280  -15.7201 C   0  0  1  0  0  0  0  0  0  0  0  0
   26.9603   -9.0436  -16.5011 O   0  0  0  0  0  0  0  0  0  0  0  0
   24.7052   -9.8846  -16.3695 C   0  0  2  0  0  0  0  0  0  0  0  0
   24.7917  -10.4991  -17.6704 N   0  0  0  0  0  0  0  0  0  0  0  0
   24.2168   -8.4765  -16.5850 C   0  0  0  0  0  0  0  0  0  0  0  0
   24.2729   -7.9770  -17.7385 O   0  0  0  0  0  0  0  0  0  0  0  0
   23.6928   -7.6889  -15.5278 N   0  0  0  0  0  0  0  0  0  0  0  0
   23.1476   -6.3836  -15.8334 C   0  0  1  0  0  0  0  0  0  0  0  0
   21.9888   -6.4767  -16.8073 C   0  0  0  0  0  0  0  0  0  0  0  0
   21.4961   -5.1180  -17.1549 C   0  0  0  0  0  0  0  0  0  0  0  0
   22.1699   -4.0336  -17.6582 C   0  0  0  0  0  0  0  0  0  0  0  0
   21.2914   -3.0319  -17.8055 N   0  0  0  0  0  0  0  0  0  0  0  0
   20.0773   -3.4708  -17.4026 C   0  0  0  0  0  0  0  0  0  0  0  0
   20.1919   -4.7475  -17.0022 N   0  0  0  0  0  0  0  0  0  0  0  0
   22.6939   -5.7178  -14.5864 C   0  0  0  0  0  0  0  0  0  0  0  0
   22.6393   -4.3422  -14.5376 O   0  0  0  0  0  0  0  0  0  0  0  0
   22.3578   -6.4005  -13.5703 O   0  0  0  0  0  0  0  0  0  0  0  0
  1  5  1  0
  1  2  1  0
  2  3  1  0
  4  3  1  0
  5  6  1  1
  5  4  1  0
  6  7  2  0
  9  8  1  6
  9 10  1  0
 11  9  1  0
 12  6  1  0
 11 12  1  6
 13 14  2  0
 13 11  1  0
 15 13  1  0
 16 17  1  6
 16 15  1  0
 17 18  1  0
 18 22  1  0
 18 19  2  0
 19 20  1  0
 21 20  1  0
 22 21  2  0
 23 24  1  0
 23 16  1  0
 25 23  2  0
M  END
$$$$
