PTH.pdb
     RDKit          3D

 25 26  0  0  1  0  0  0  0  0999 V2000
   28.1465  -23.7007  -17.8435 N   0  0  0  0  0  0  0  0  0  0  0  0
   29.2135  -23.9902  -18.7737 C   0  0  0  0  0  0  0  0  0  0  0  0
   30.5082  -23.6748  -18.1049 C   0  0  0  0  0  0  0  0  0  0  0  0
   30.1435  -22.8382  -16.9013 C   0  0  0  0  0  0  0  0  0  0  0  0
   28.7278  -23.2733  -16.6159 C   0  0  1  0  0  0  0  0  0  0  0  0
   27.9342  -22.2244  -15.9428 C   0  0  0  0  0  0  0  0  0  0  0  0
   28.3481  -21.7878  -14.8363 O   0  0  0  0  0  0  0  0  0  0  0  0
   27.0938  -18.7778  -16.7816 C   0  0  0  0  0  0  0  0  0  0  0  0
   25.7646  -19.4976  -16.7583 C   0  0  1  0  0  0  0  0  0  0  0  0
   25.3911  -19.7774  -18.0474 O   0  0  0  0  0  0  0  0  0  0  0  0
   25.9285  -20.7374  -15.9027 C   0  0  2  0  0  0  0  0  0  0  0  0
   26.7418  -21.7382  -16.5464 N   0  0  0  0  0  0  0  0  0  0  0  0
   24.5413  -21.3121  -15.7875 C   0  0  0  0  0  0  0  0  0  0  0  0
   24.0924  -22.0247  -16.7223 O   0  0  0  0  0  0  0  0  0  0  0  0
   23.7182  -21.0771  -14.6562 N   0  0  0  0  0  0  0  0  0  0  0  0
   22.4083  -21.6904  -14.6063 C   0  0  1  0  0  0  0  0  0  0  0  0
   21.9981  -22.0157  -13.1830 C   0  0  0  0  0  0  0  0  0  0  0  0
   21.7057  -20.7668  -12.4317 C   0  0  0  0  0  0  0  0  0  0  0  0
   21.9419  -19.4569  -12.7653 C   0  0  0  0  0  0  0  0  0  0  0  0
   21.4995  -18.6873  -11.7608 N   0  0  0  0  0  0  0  0  0  0  0  0
   20.9895  -19.4939  -10.8025 C   0  0  0  0  0  0  0  0  0  0  0  0
   21.1110  -20.7697  -11.2037 N   0  0  0  0  0  0  0  0  0  0  0  0
   21.4009  -20.7872  -15.2177 C   0  0  0  0  0  0  0  0  0  0  0  0
   20.1696  -21.2924  -15.5731 O   0  0  0  0  0  0  0  0  0  0  0  0
   21.6621  -19.5608  -15.4149 O   0  0  0  0  0  0  0  0  0  0  0  0
  1  5  1  0
  1  2  1  0
  2  3  1  0
  4  3  1  0
  5  6  1  6
  5  4  1  0
  6  7  2  0
  9  8  1  6
  9 10  1  0
 11  9  1  0
 12  6  1  0
 11 12  1  6
 13 14  2  0
 13 11  1  0
 15 13  1  0
 16 17  1  1
 16 15  1  0
 17 18  1  0
 18 22  1  0
 18 19  2  0
 19 20  1  0
 21 20  1  0
 22 21  2  0
 23 24  1  0
 23 16  1  0
 25 23  2  0
M  END
$$$$
