PTH.pdb
     RDKit          3D

 25 26  0  0  1  0  0  0  0  0999 V2000
   24.2464  -11.3583  -15.8862 N   0  0  0  0  0  0  0  0  0  0  0  0
   24.5561  -12.7574  -15.7017 C   0  0  0  0  0  0  0  0  0  0  0  0
   23.9893  -13.5125  -16.8556 C   0  0  0  0  0  0  0  0  0  0  0  0
   23.0179  -12.5634  -17.5166 C   0  0  0  0  0  0  0  0  0  0  0  0
   23.5625  -11.2120  -17.1266 C   0  0  1  0  0  0  0  0  0  0  0  0
   22.5182  -10.1677  -17.0833 C   0  0  0  0  0  0  0  0  0  0  0  0
   21.9688   -9.8350  -18.1668 O   0  0  0  0  0  0  0  0  0  0  0  0
   19.2087  -10.1143  -15.3899 C   0  0  0  0  0  0  0  0  0  0  0  0
   20.0326   -9.0170  -14.7554 C   0  0  1  0  0  0  0  0  0  0  0  0
   20.5527   -9.4814  -13.5750 O   0  0  0  0  0  0  0  0  0  0  0  0
   21.0953   -8.6046  -15.7537 C   0  0  2  0  0  0  0  0  0  0  0  0
   22.1612   -9.5707  -15.8429 N   0  0  0  0  0  0  0  0  0  0  0  0
   21.6944   -7.3472  -15.1813 C   0  0  0  0  0  0  0  0  0  0  0  0
   22.6624   -7.4367  -14.3825 O   0  0  0  0  0  0  0  0  0  0  0  0
   21.2033   -6.0581  -15.5126 N   0  0  0  0  0  0  0  0  0  0  0  0
   21.8093   -4.8994  -14.8925 C   0  0  1  0  0  0  0  0  0  0  0  0
   22.5298   -4.0348  -15.9090 C   0  0  0  0  0  0  0  0  0  0  0  0
   23.6698   -4.7798  -16.5049 C   0  0  0  0  0  0  0  0  0  0  0  0
   24.9454   -4.9696  -16.0360 C   0  0  0  0  0  0  0  0  0  0  0  0
   25.6093   -5.7143  -16.9313 N   0  0  0  0  0  0  0  0  0  0  0  0
   24.7703   -5.9945  -17.9543 C   0  0  0  0  0  0  0  0  0  0  0  0
   23.5797   -5.4267  -17.7029 N   0  0  0  0  0  0  0  0  0  0  0  0
   20.7721   -4.0919  -14.2022 C   0  0  0  0  0  0  0  0  0  0  0  0
   21.1562   -3.0138  -13.4355 O   0  0  0  0  0  0  0  0  0  0  0  0
   19.5416   -4.3840  -14.3113 O   0  0  0  0  0  0  0  0  0  0  0  0
  1  5  1  0
  1  2  1  0
  2  3  1  0
  4  3  1  0
  5  6  1  1
  5  4  1  0
  6  7  2  0
  9  8  1  6
  9 10  1  0
 11  9  1  0
 12  6  1  0
 11 12  1  1
 13 14  2  0
 13 11  1  0
 15 13  1  0
 16 17  1  6
 16 15  1  0
 17 18  1  0
 18 22  1  0
 18 19  2  0
 19 20  1  0
 21 20  1  0
 22 21  2  0
 23 24  1  0
 23 16  1  0
 25 23  2  0
M  END
$$$$
