PTH.pdb
     RDKit          3D

 25 26  0  0  1  0  0  0  0  0999 V2000
   17.6806  -26.1527   -3.3350 N   0  0  0  0  0  0  0  0  0  0  0  0
   18.2808  -27.1337   -4.2095 C   0  0  0  0  0  0  0  0  0  0  0  0
   17.1835  -27.8946   -4.8728 C   0  0  0  0  0  0  0  0  0  0  0  0
   15.9404  -27.5833   -4.0732 C   0  0  0  0  0  0  0  0  0  0  0  0
   16.2657  -26.2393   -3.4708 C   0  0  1  0  0  0  0  0  0  0  0  0
   15.5541  -25.9979   -2.1987 C   0  0  0  0  0  0  0  0  0  0  0  0
   14.2951  -25.9654   -2.2220 O   0  0  0  0  0  0  0  0  0  0  0  0
   15.6682  -25.9385    2.6947 C   0  0  0  0  0  0  0  0  0  0  0  0
   16.3976  -26.2665    1.4118 C   0  0  1  0  0  0  0  0  0  0  0  0
   16.5047  -27.6287    1.3005 O   0  0  0  0  0  0  0  0  0  0  0  0
   15.6273  -25.6339    0.2706 C   0  0  2  0  0  0  0  0  0  0  0  0
   16.2907  -25.8107   -0.9967 N   0  0  0  0  0  0  0  0  0  0  0  0
   15.6425  -24.1575    0.5674 C   0  0  0  0  0  0  0  0  0  0  0  0
   16.7388  -23.5403    0.5561 O   0  0  0  0  0  0  0  0  0  0  0  0
   14.4579  -23.4342    0.8609 N   0  0  0  0  0  0  0  0  0  0  0  0
   14.5545  -22.0152    1.1284 C   0  0  1  0  0  0  0  0  0  0  0  0
   13.3600  -21.2606    0.5771 C   0  0  0  0  0  0  0  0  0  0  0  0
   13.3544  -21.3171   -0.9083 C   0  0  0  0  0  0  0  0  0  0  0  0
   14.3111  -21.7715   -1.7808 C   0  0  0  0  0  0  0  0  0  0  0  0
   13.8428  -21.6155   -3.0271 N   0  0  0  0  0  0  0  0  0  0  0  0
   12.6075  -21.0704   -2.9500 C   0  0  0  0  0  0  0  0  0  0  0  0
   12.2989  -20.8836   -1.6565 N   0  0  0  0  0  0  0  0  0  0  0  0
   14.6570  -21.7796    2.5906 C   0  0  0  0  0  0  0  0  0  0  0  0
   14.4104  -22.8191    3.4603 O   0  0  0  0  0  0  0  0  0  0  0  0
   14.9679  -20.6356    3.0446 O   0  0  0  0  0  0  0  0  0  0  0  0
  1  5  1  0
  1  2  1  0
  2  3  1  0
  4  3  1  0
  5  6  1  1
  5  4  1  0
  6  7  2  0
  9  8  1  1
  9 10  1  0
 11  9  1  0
 12  6  1  0
 11 12  1  6
 13 14  2  0
 13 11  1  0
 15 13  1  0
 16 17  1  1
 16 15  1  0
 17 18  1  0
 18 22  1  0
 18 19  2  0
 19 20  1  0
 21 20  1  0
 22 21  2  0
 23 24  1  0
 23 16  1  0
 25 23  2  0
M  END
$$$$
