PTH.pdb
     RDKit          3D

 25 26  0  0  1  0  0  0  0  0999 V2000
   16.3404  -19.3717    4.1107 N   0  0  0  0  0  0  0  0  0  0  0  0
   15.9210  -18.4724    3.0605 C   0  0  0  0  0  0  0  0  0  0  0  0
   14.7464  -19.0807    2.3726 C   0  0  0  0  0  0  0  0  0  0  0  0
   14.7343  -20.5278    2.8054 C   0  0  0  0  0  0  0  0  0  0  0  0
   15.4450  -20.4787    4.1349 C   0  0  1  0  0  0  0  0  0  0  0  0
   16.1185  -21.7509    4.4681 C   0  0  0  0  0  0  0  0  0  0  0  0
   15.4178  -22.7964    4.5161 O   0  0  0  0  0  0  0  0  0  0  0  0
   20.1572  -24.4143    4.8787 C   0  0  0  0  0  0  0  0  0  0  0  0
   19.4020  -23.2664    4.2481 C   0  0  1  0  0  0  0  0  0  0  0  0
   19.0733  -23.6077    2.9616 O   0  0  0  0  0  0  0  0  0  0  0  0
   18.1936  -22.9795    5.1160 C   0  0  2  0  0  0  0  0  0  0  0  0
   17.5175  -21.7688    4.7231 N   0  0  0  0  0  0  0  0  0  0  0  0
   18.7563  -22.7369    6.4917 C   0  0  0  0  0  0  0  0  0  0  0  0
   19.3846  -21.6707    6.7187 O   0  0  0  0  0  0  0  0  0  0  0  0
   18.6022  -23.6731    7.5464 N   0  0  0  0  0  0  0  0  0  0  0  0
   19.2495  -23.4099    8.8137 C   0  0  1  0  0  0  0  0  0  0  0  0
   18.2389  -23.2324    9.9305 C   0  0  0  0  0  0  0  0  0  0  0  0
   17.5708  -24.5254   10.2325 C   0  0  0  0  0  0  0  0  0  0  0  0
   17.9037  -25.8029    9.8580 C   0  0  0  0  0  0  0  0  0  0  0  0
   16.9929  -26.6377   10.3780 N   0  0  0  0  0  0  0  0  0  0  0  0
   16.0939  -25.9040   11.0727 C   0  0  0  0  0  0  0  0  0  0  0  0
   16.4388  -24.6088   10.9898 N   0  0  0  0  0  0  0  0  0  0  0  0
   20.1724  -24.5221    9.1534 C   0  0  0  0  0  0  0  0  0  0  0  0
   21.0017  -24.4005   10.2466 O   0  0  0  0  0  0  0  0  0  0  0  0
   20.2044  -25.5782    8.4499 O   0  0  0  0  0  0  0  0  0  0  0  0
  1  5  1  0
  1  2  1  0
  2  3  1  0
  4  3  1  0
  5  6  1  6
  5  4  1  0
  6  7  2  0
  9  8  1  1
  9 10  1  0
 11  9  1  0
 12  6  1  0
 11 12  1  6
 13 14  2  0
 13 11  1  0
 15 13  1  0
 16 17  1  1
 16 15  1  0
 17 18  1  0
 18 22  1  0
 18 19  2  0
 19 20  1  0
 21 20  1  0
 22 21  2  0
 23 24  1  0
 23 16  1  0
 25 23  2  0
M  END
$$$$
