PTH.pdb
     RDKit          3D

 25 26  0  0  1  0  0  0  0  0999 V2000
   22.5928  -19.8414  -13.0190 N   0  0  0  0  0  0  0  0  0  0  0  0
   22.2412  -18.9913  -14.1331 C   0  0  0  0  0  0  0  0  0  0  0  0
   22.6457  -19.6847  -15.3895 C   0  0  0  0  0  0  0  0  0  0  0  0
   23.5828  -20.7866  -14.9546 C   0  0  0  0  0  0  0  0  0  0  0  0
   23.1455  -21.0481  -13.5350 C   0  0  1  0  0  0  0  0  0  0  0  0
   24.2350  -21.5832  -12.6926 C   0  0  0  0  0  0  0  0  0  0  0  0
   24.7770  -22.6649  -13.0430 O   0  0  0  0  0  0  0  0  0  0  0  0
   26.9617  -21.8422  -12.9890 C   0  0  0  0  0  0  0  0  0  0  0  0
   27.0764  -20.8770  -11.8311 C   0  0  1  0  0  0  0  0  0  0  0  0
   27.0952  -19.5975  -12.3228 O   0  0  0  0  0  0  0  0  0  0  0  0
   25.9127  -21.1397  -10.8970 C   0  0  2  0  0  0  0  0  0  0  0  0
   24.6420  -20.8797  -11.5256 N   0  0  0  0  0  0  0  0  0  0  0  0
   26.0679  -20.1265   -9.7938 C   0  0  0  0  0  0  0  0  0  0  0  0
   25.0388  -19.6263   -9.2704 O   0  0  0  0  0  0  0  0  0  0  0  0
   27.3402  -19.7136   -9.3213 N   0  0  0  0  0  0  0  0  0  0  0  0
   27.4710  -19.2963   -7.9417 C   0  0  1  0  0  0  0  0  0  0  0  0
   27.1431  -20.4251   -6.9835 C   0  0  0  0  0  0  0  0  0  0  0  0
   27.4199  -20.0105   -5.5831 C   0  0  0  0  0  0  0  0  0  0  0  0
   27.9814  -18.8571   -5.0957 C   0  0  0  0  0  0  0  0  0  0  0  0
   28.0210  -18.9484   -3.7590 N   0  0  0  0  0  0  0  0  0  0  0  0
   27.4933  -20.1409   -3.4002 C   0  0  0  0  0  0  0  0  0  0  0  0
   27.1221  -20.7991   -4.5103 N   0  0  0  0  0  0  0  0  0  0  0  0
   28.8518  -18.8147   -7.6854 C   0  0  0  0  0  0  0  0  0  0  0  0
   29.0382  -17.6378   -6.9941 O   0  0  0  0  0  0  0  0  0  0  0  0
   29.8566  -19.4735   -8.0949 O   0  0  0  0  0  0  0  0  0  0  0  0
  1  5  1  0
  1  2  1  0
  2  3  1  0
  4  3  1  0
  5  6  1  1
  5  4  1  0
  6  7  2  0
  9  8  1  6
  9 10  1  0
 11  9  1  0
 12  6  1  0
 11 12  1  6
 13 14  2  0
 13 11  1  0
 15 13  1  0
 16 17  1  1
 16 15  1  0
 17 18  1  0
 18 22  1  0
 18 19  2  0
 19 20  1  0
 21 20  1  0
 22 21  2  0
 23 24  1  0
 23 16  1  0
 25 23  2  0
M  END
$$$$
