PTH.pdb
     RDKit          3D

 25 26  0  0  1  0  0  0  0  0999 V2000
   35.5836  -10.4435  -14.0275 N   0  0  0  0  0  0  0  0  0  0  0  0
   36.3230  -11.6634  -13.7987 C   0  0  0  0  0  0  0  0  0  0  0  0
   37.6627  -11.5188  -14.4369 C   0  0  0  0  0  0  0  0  0  0  0  0
   37.5383  -10.3331  -15.3643 C   0  0  0  0  0  0  0  0  0  0  0  0
   36.4262   -9.5356  -14.7301 C   0  0  1  0  0  0  0  0  0  0  0  0
   35.6871   -8.7108  -15.7081 C   0  0  0  0  0  0  0  0  0  0  0  0
   36.3243   -7.8232  -16.3348 O   0  0  0  0  0  0  0  0  0  0  0  0
   32.8527  -10.0859  -18.2446 C   0  0  0  0  0  0  0  0  0  0  0  0
   32.3488   -8.9316  -17.4084 C   0  0  1  0  0  0  0  0  0  0  0  0
   31.5560   -9.4261  -16.4051 O   0  0  0  0  0  0  0  0  0  0  0  0
   33.5568   -8.1743  -16.8953 C   0  0  2  0  0  0  0  0  0  0  0  0
   34.2980   -8.9315  -15.9182 N   0  0  0  0  0  0  0  0  0  0  0  0
   32.9862   -6.9793  -16.1782 C   0  0  0  0  0  0  0  0  0  0  0  0
   32.7252   -7.0669  -14.9505 O   0  0  0  0  0  0  0  0  0  0  0  0
   32.7311   -5.7515  -16.8417 N   0  0  0  0  0  0  0  0  0  0  0  0
   32.4132   -4.5828  -16.0496 C   0  0  1  0  0  0  0  0  0  0  0  0
   33.5091   -4.2719  -15.0485 C   0  0  0  0  0  0  0  0  0  0  0  0
   33.1446   -3.0807  -14.2374 C   0  0  0  0  0  0  0  0  0  0  0  0
   32.2178   -2.9419  -13.2350 C   0  0  0  0  0  0  0  0  0  0  0  0
   32.2562   -1.6717  -12.8083 N   0  0  0  0  0  0  0  0  0  0  0  0
   33.1924   -1.0117  -13.5272 C   0  0  0  0  0  0  0  0  0  0  0  0
   33.7425   -1.8658  -14.4054 N   0  0  0  0  0  0  0  0  0  0  0  0
   32.2048   -3.4099  -16.9357 C   0  0  0  0  0  0  0  0  0  0  0  0
   31.6177   -2.2737  -16.4239 O   0  0  0  0  0  0  0  0  0  0  0  0
   32.5607   -3.4440  -18.1537 O   0  0  0  0  0  0  0  0  0  0  0  0
  1  5  1  0
  1  2  1  0
  2  3  1  0
  4  3  1  0
  5  6  1  6
  5  4  1  0
  6  7  2  0
  9  8  1  1
  9 10  1  0
 11  9  1  0
 12  6  1  0
 11 12  1  1
 13 14  2  0
 13 11  1  0
 15 13  1  0
 16 17  1  1
 16 15  1  0
 17 18  1  0
 18 22  1  0
 18 19  2  0
 19 20  1  0
 21 20  1  0
 22 21  2  0
 23 24  1  0
 23 16  1  0
 25 23  2  0
M  END
$$$$
