PTH.pdb
     RDKit          3D

 25 26  0  0  1  0  0  0  0  0999 V2000
   30.6842  -21.8718  -11.7895 N   0  0  0  0  0  0  0  0  0  0  0  0
   31.6995  -22.1102  -10.7897 C   0  0  0  0  0  0  0  0  0  0  0  0
   31.0612  -21.9993   -9.4469 C   0  0  0  0  0  0  0  0  0  0  0  0
   29.7355  -21.3170   -9.6891 C   0  0  0  0  0  0  0  0  0  0  0  0
   29.4407  -21.6729  -11.1248 C   0  0  1  0  0  0  0  0  0  0  0  0
   28.5879  -20.6707  -11.7966 C   0  0  0  0  0  0  0  0  0  0  0  0
   29.0963  -19.5525  -12.0750 O   0  0  0  0  0  0  0  0  0  0  0  0
   28.0118  -19.1971  -14.4093 C   0  0  0  0  0  0  0  0  0  0  0  0
   26.7064  -19.9467  -14.2694 C   0  0  1  0  0  0  0  0  0  0  0  0
   26.8338  -21.1716  -14.8717 O   0  0  0  0  0  0  0  0  0  0  0  0
   26.3861  -20.0395  -12.7913 C   0  0  2  0  0  0  0  0  0  0  0  0
   27.2361  -20.9828  -12.1093 N   0  0  0  0  0  0  0  0  0  0  0  0
   24.9872  -20.5941  -12.7344 C   0  0  0  0  0  0  0  0  0  0  0  0
   24.8165  -21.7973  -12.4087 O   0  0  0  0  0  0  0  0  0  0  0  0
   23.8487  -19.8034  -13.0368 N   0  0  0  0  0  0  0  0  0  0  0  0
   22.5325  -20.3792  -12.8624 C   0  0  1  0  0  0  0  0  0  0  0  0
   21.4698  -19.3077  -12.7124 C   0  0  0  0  0  0  0  0  0  0  0  0
   20.1194  -19.9255  -12.6462 C   0  0  0  0  0  0  0  0  0  0  0  0
   19.7462  -21.2452  -12.6924 C   0  0  0  0  0  0  0  0  0  0  0  0
   18.4104  -21.3016  -12.5957 N   0  0  0  0  0  0  0  0  0  0  0  0
   17.9399  -20.0381  -12.4897 C   0  0  0  0  0  0  0  0  0  0  0  0
   18.9787  -19.1877  -12.5196 N   0  0  0  0  0  0  0  0  0  0  0  0
   22.2003  -21.2473  -14.0201 C   0  0  0  0  0  0  0  0  0  0  0  0
   21.3765  -22.3355  -13.8328 O   0  0  0  0  0  0  0  0  0  0  0  0
   22.6655  -20.9977  -15.1744 O   0  0  0  0  0  0  0  0  0  0  0  0
  1  5  1  0
  1  2  1  0
  2  3  1  0
  4  3  1  0
  5  6  1  6
  5  4  1  0
  6  7  2  0
  9  8  1  1
  9 10  1  0
 11  9  1  0
 12  6  1  0
 11 12  1  1
 13 14  2  0
 13 11  1  0
 15 13  1  0
 16 17  1  6
 16 15  1  0
 17 18  1  0
 18 22  1  0
 18 19  2  0
 19 20  1  0
 21 20  1  0
 22 21  2  0
 23 24  1  0
 23 16  1  0
 25 23  2  0
M  END
$$$$
