PTH.pdb
     RDKit          3D

 25 26  0  0  1  0  0  0  0  0999 V2000
   19.5134  -12.5291  -17.7843 N   0  0  0  0  0  0  0  0  0  0  0  0
   18.9574  -13.4054  -18.7895 C   0  0  0  0  0  0  0  0  0  0  0  0
   20.0735  -13.8829  -19.6551 C   0  0  0  0  0  0  0  0  0  0  0  0
   21.2328  -12.9615  -19.3579 C   0  0  0  0  0  0  0  0  0  0  0  0
   20.9261  -12.4886  -17.9589 C   0  0  1  0  0  0  0  0  0  0  0  0
   21.4996  -11.1583  -17.6685 C   0  0  0  0  0  0  0  0  0  0  0  0
   22.7509  -11.0275  -17.7287 O   0  0  0  0  0  0  0  0  0  0  0  0
   21.3978   -7.9357  -19.3359 C   0  0  0  0  0  0  0  0  0  0  0  0
   20.6708   -7.7201  -18.0280 C   0  0  1  0  0  0  0  0  0  0  0  0
   19.3210   -7.7962  -18.2552 O   0  0  0  0  0  0  0  0  0  0  0  0
   21.1700   -8.7622  -17.0478 C   0  0  2  0  0  0  0  0  0  0  0  0
   20.6437  -10.0732  -17.3334 N   0  0  0  0  0  0  0  0  0  0  0  0
   20.5998   -8.3446  -15.7180 C   0  0  0  0  0  0  0  0  0  0  0  0
   19.5014   -8.8291  -15.3415 O   0  0  0  0  0  0  0  0  0  0  0  0
   21.2610   -7.4190  -14.8701 N   0  0  0  0  0  0  0  0  0  0  0  0
   20.6735   -7.1065  -13.5850 C   0  0  1  0  0  0  0  0  0  0  0  0
   21.7097   -6.5802  -12.6106 C   0  0  0  0  0  0  0  0  0  0  0  0
   21.0923   -6.3410  -11.2797 C   0  0  0  0  0  0  0  0  0  0  0  0
   19.9029   -6.7883  -10.7620 C   0  0  0  0  0  0  0  0  0  0  0  0
   19.7842   -6.3037   -9.5179 N   0  0  0  0  0  0  0  0  0  0  0  0
   20.8805   -5.5595   -9.2470 C   0  0  0  0  0  0  0  0  0  0  0  0
   21.6880   -5.5759  -10.3198 N   0  0  0  0  0  0  0  0  0  0  0  0
   19.5941   -6.1007  -13.7509 C   0  0  0  0  0  0  0  0  0  0  0  0
   18.4289   -6.2364  -13.0288 O   0  0  0  0  0  0  0  0  0  0  0  0
   19.7342   -5.1223  -14.5474 O   0  0  0  0  0  0  0  0  0  0  0  0
  1  5  1  0
  1  2  1  0
  2  3  1  0
  4  3  1  0
  5  6  1  6
  5  4  1  0
  6  7  2  0
  9  8  1  6
  9 10  1  0
 11  9  1  0
 12  6  1  0
 11 12  1  6
 13 14  2  0
 13 11  1  0
 15 13  1  0
 16 17  1  1
 16 15  1  0
 17 18  1  0
 18 22  1  0
 18 19  2  0
 19 20  1  0
 21 20  1  0
 22 21  2  0
 23 24  1  0
 23 16  1  0
 25 23  2  0
M  END
$$$$
