PTH.pdb
     RDKit          3D

 25 26  0  0  1  0  0  0  0  0999 V2000
   26.5123  -20.0918  -15.3778 N   0  0  0  0  0  0  0  0  0  0  0  0
   27.6453  -19.9381  -16.2610 C   0  0  0  0  0  0  0  0  0  0  0  0
   28.0218  -18.4956  -16.2835 C   0  0  0  0  0  0  0  0  0  0  0  0
   26.8417  -17.7647  -15.6879 C   0  0  0  0  0  0  0  0  0  0  0  0
   26.2090  -18.8194  -14.8148 C   0  0  1  0  0  0  0  0  0  0  0  0
   24.7586  -18.6089  -14.6274 C   0  0  0  0  0  0  0  0  0  0  0  0
   24.3763  -17.5009  -14.1664 O   0  0  0  0  0  0  0  0  0  0  0  0
   20.2003  -19.5139  -15.8326 C   0  0  0  0  0  0  0  0  0  0  0  0
   21.6809  -19.5955  -16.1273 C   0  0  1  0  0  0  0  0  0  0  0  0
   22.0063  -18.6157  -17.0293 O   0  0  0  0  0  0  0  0  0  0  0  0
   22.4193  -19.4630  -14.8108 C   0  0  2  0  0  0  0  0  0  0  0  0
   23.8412  -19.6418  -14.9649 N   0  0  0  0  0  0  0  0  0  0  0  0
   21.9243  -20.6131  -13.9741 C   0  0  0  0  0  0  0  0  0  0  0  0
   22.3089  -21.7799  -14.2454 O   0  0  0  0  0  0  0  0  0  0  0  0
   21.0347  -20.4264  -12.8849 N   0  0  0  0  0  0  0  0  0  0  0  0
   20.6729  -21.5699  -12.0750 C   0  0  1  0  0  0  0  0  0  0  0  0
   20.2356  -21.1528  -10.6840 C   0  0  0  0  0  0  0  0  0  0  0  0
   19.8903  -22.3486   -9.8712 C   0  0  0  0  0  0  0  0  0  0  0  0
   19.9248  -23.6810  -10.1973 C   0  0  0  0  0  0  0  0  0  0  0  0
   19.5205  -24.3800   -9.1273 N   0  0  0  0  0  0  0  0  0  0  0  0
   19.2331  -23.5070   -8.1352 C   0  0  0  0  0  0  0  0  0  0  0  0
   19.4563  -22.2599   -8.5806 N   0  0  0  0  0  0  0  0  0  0  0  0
   19.5795  -22.3311  -12.7302 C   0  0  0  0  0  0  0  0  0  0  0  0
   19.6988  -23.6961  -12.8719 O   0  0  0  0  0  0  0  0  0  0  0  0
   18.5416  -21.7391  -13.1587 O   0  0  0  0  0  0  0  0  0  0  0  0
  1  5  1  0
  1  2  1  0
  2  3  1  0
  4  3  1  0
  5  6  1  6
  5  4  1  0
  6  7  2  0
  9  8  1  1
  9 10  1  0
 11  9  1  0
 12  6  1  0
 11 12  1  6
 13 14  2  0
 13 11  1  0
 15 13  1  0
 16 17  1  1
 16 15  1  0
 17 18  1  0
 18 22  1  0
 18 19  2  0
 19 20  1  0
 21 20  1  0
 22 21  2  0
 23 24  1  0
 23 16  1  0
 25 23  2  0
M  END
$$$$
