PTH.pdb
     RDKit          3D

 25 26  0  0  1  0  0  0  0  0999 V2000
   23.2195  -14.4586  -16.2299 N   0  0  0  0  0  0  0  0  0  0  0  0
   24.4764  -15.1664  -16.3111 C   0  0  0  0  0  0  0  0  0  0  0  0
   25.5328  -14.3034  -15.7093 C   0  0  0  0  0  0  0  0  0  0  0  0
   24.9219  -12.9247  -15.6226 C   0  0  0  0  0  0  0  0  0  0  0  0
   23.4450  -13.2236  -15.5577 C   0  0  1  0  0  0  0  0  0  0  0  0
   22.6169  -12.1229  -16.0924 C   0  0  0  0  0  0  0  0  0  0  0  0
   22.2519  -12.1881  -17.2962 O   0  0  0  0  0  0  0  0  0  0  0  0
   19.3395  -11.3086  -15.6595 C   0  0  0  0  0  0  0  0  0  0  0  0
   20.0049  -10.0667  -15.1114 C   0  0  1  0  0  0  0  0  0  0  0  0
   20.0218  -10.1422  -13.7427 O   0  0  0  0  0  0  0  0  0  0  0  0
   21.3894   -9.9803  -15.7209 C   0  0  2  0  0  0  0  0  0  0  0  0
   22.2557  -11.0331  -15.2532 N   0  0  0  0  0  0  0  0  0  0  0  0
   21.9585   -8.6860  -15.2025 C   0  0  0  0  0  0  0  0  0  0  0  0
   23.0847   -8.6915  -14.6416 O   0  0  0  0  0  0  0  0  0  0  0  0
   21.2658   -7.4540  -15.3248 N   0  0  0  0  0  0  0  0  0  0  0  0
   22.0303   -6.2274  -15.3983 C   0  0  1  0  0  0  0  0  0  0  0  0
   23.0820   -6.2897  -16.4892 C   0  0  0  0  0  0  0  0  0  0  0  0
   23.8696   -5.0294  -16.5195 C   0  0  0  0  0  0  0  0  0  0  0  0
   24.6416   -4.4441  -15.5476 C   0  0  0  0  0  0  0  0  0  0  0  0
   25.1531   -3.3119  -16.0510 N   0  0  0  0  0  0  0  0  0  0  0  0
   24.7143   -3.1778  -17.3231 C   0  0  0  0  0  0  0  0  0  0  0  0
   23.9273   -4.2247  -17.6199 N   0  0  0  0  0  0  0  0  0  0  0  0
   21.1243   -5.0783  -15.6491 C   0  0  0  0  0  0  0  0  0  0  0  0
   21.3804   -3.8712  -15.0368 O   0  0  0  0  0  0  0  0  0  0  0  0
   20.1214   -5.1970  -16.4182 O   0  0  0  0  0  0  0  0  0  0  0  0
  1  5  1  0
  1  2  1  0
  2  3  1  0
  4  3  1  0
  5  6  1  6
  5  4  1  0
  6  7  2  0
  9  8  1  6
  9 10  1  0
 11  9  1  0
 12  6  1  0
 11 12  1  1
 13 14  2  0
 13 11  1  0
 15 13  1  0
 16 17  1  6
 16 15  1  0
 17 18  1  0
 18 22  1  0
 18 19  2  0
 19 20  1  0
 21 20  1  0
 22 21  2  0
 23 24  1  0
 23 16  1  0
 25 23  2  0
M  END
$$$$
