TQC.pdb
     RDKit          3D

 23 22  0  0  1  0  0  0  0  0999 V2000
   27.7138  -19.5766  -17.0130 C   0  0  0  0  0  0  0  0  0  0  0  0
   27.9488  -21.0366  -17.3002 C   0  0  1  0  0  0  0  0  0  0  0  0
   29.2819  -21.1096  -17.7914 O   0  0  0  0  0  0  0  0  0  0  0  0
   27.9682  -21.8760  -16.0378 C   0  0  2  0  0  0  0  0  0  0  0  0
   28.1129  -23.2647  -16.5390 N   0  0  0  0  0  0  0  0  0  0  0  0
   26.7145  -21.8446  -15.2701 C   0  0  0  0  0  0  0  0  0  0  0  0
   25.6759  -22.3642  -15.7858 O   0  0  0  0  0  0  0  0  0  0  0  0
   26.0294  -20.0264   -9.4635 N   0  0  0  0  0  0  0  0  0  0  0  0
   24.9741  -20.9524   -9.5837 C   0  0  0  0  0  0  0  0  0  0  0  0
   24.4091  -21.3634   -8.5425 O   0  0  0  0  0  0  0  0  0  0  0  0
   24.5560  -21.4189  -10.9294 C   0  0  0  0  0  0  0  0  0  0  0  0
   25.4351  -20.7692  -11.9404 C   0  0  0  0  0  0  0  0  0  0  0  0
   25.1938  -21.2206  -13.3681 C   0  0  2  0  0  0  0  0  0  0  0  0
   26.5369  -21.2815  -13.9734 N   0  0  0  0  0  0  0  0  0  0  0  0
   24.3605  -20.2751  -14.1125 C   0  0  0  0  0  0  0  0  0  0  0  0
   24.9004  -19.3389  -14.7937 O   0  0  0  0  0  0  0  0  0  0  0  0
   22.9431  -20.3043  -14.1501 N   0  0  0  0  0  0  0  0  0  0  0  0
   22.1732  -19.6982  -15.2138 C   0  0  1  0  0  0  0  0  0  0  0  0
   22.4772  -20.3421  -16.5533 C   0  0  0  0  0  0  0  0  0  0  0  0
   23.9630  -19.6484  -17.3114 S   0  0  0  0  0  0  0  0  0  0  0  0
   20.7167  -19.8001  -14.9613 C   0  0  0  0  0  0  0  0  0  0  0  0
   19.7889  -19.0234  -15.6275 O   0  0  0  0  0  0  0  0  0  0  0  0
   20.3088  -20.6235  -14.1095 O   0  0  0  0  0  0  0  0  0  0  0  0
  2  1  1  1
  2  4  1  0
  2  3  1  0
  4  5  1  6
  6  7  2  0
  6  4  1  0
  8  9  1  0
  9 11  1  0
  9 10  2  0
 11 12  1  0
 13 12  1  1
 13 15  1  0
 13 14  1  0
 14  6  1  0
 15 17  1  0
 16 15  2  0
 17 18  1  0
 18 21  1  0
 19 20  1  0
 18 19  1  6
 21 23  2  0
 21 22  1  0
M  END
$$$$
