TQC.pdb
     RDKit          3D

 23 22  0  0  1  0  0  0  0  0999 V2000
   27.6397  -11.6675  -15.4864 C   0  0  0  0  0  0  0  0  0  0  0  0
   26.6426  -10.5950  -15.8400 C   0  0  1  0  0  0  0  0  0  0  0  0
   27.1435   -9.9989  -17.0307 O   0  0  0  0  0  0  0  0  0  0  0  0
   25.2989  -11.1688  -16.2450 C   0  0  2  0  0  0  0  0  0  0  0  0
   25.5915  -11.9005  -17.5017 N   0  0  0  0  0  0  0  0  0  0  0  0
   24.2859  -10.1582  -16.5839 C   0  0  0  0  0  0  0  0  0  0  0  0
   24.0808   -9.8945  -17.8099 O   0  0  0  0  0  0  0  0  0  0  0  0
   18.7958  -10.0911  -16.4310 N   0  0  0  0  0  0  0  0  0  0  0  0
   19.4341  -10.2779  -15.1888 C   0  0  0  0  0  0  0  0  0  0  0  0
   18.8294  -10.9047  -14.2867 O   0  0  0  0  0  0  0  0  0  0  0  0
   20.7983   -9.7333  -14.9747 C   0  0  0  0  0  0  0  0  0  0  0  0
   21.2191   -9.0318  -16.2188 C   0  0  0  0  0  0  0  0  0  0  0  0
   22.5798   -8.3668  -16.1375 C   0  0  2  0  0  0  0  0  0  0  0  0
   23.4863   -9.4266  -15.6590 N   0  0  0  0  0  0  0  0  0  0  0  0
   22.5912   -7.2464  -15.1957 C   0  0  0  0  0  0  0  0  0  0  0  0
   22.7277   -7.4595  -13.9434 O   0  0  0  0  0  0  0  0  0  0  0  0
   22.4597   -5.8827  -15.5618 N   0  0  0  0  0  0  0  0  0  0  0  0
   22.6323   -4.7972  -14.6218 C   0  0  1  0  0  0  0  0  0  0  0  0
   23.0968   -3.5314  -15.3171 C   0  0  0  0  0  0  0  0  0  0  0  0
   21.9061   -2.9671  -16.5529 S   0  0  0  0  0  0  0  0  0  0  0  0
   21.3772   -4.5008  -13.8920 C   0  0  0  0  0  0  0  0  0  0  0  0
   21.3425   -3.7101  -12.7601 O   0  0  0  0  0  0  0  0  0  0  0  0
   20.3034   -4.9864  -14.3177 O   0  0  0  0  0  0  0  0  0  0  0  0
  2  1  1  6
  2  4  1  0
  2  3  1  0
  4  5  1  6
  6  7  2  0
  6  4  1  0
  8  9  1  0
  9 11  1  0
  9 10  2  0
 11 12  1  0
 13 12  1  1
 13 15  1  0
 13 14  1  0
 14  6  1  0
 15 17  1  0
 16 15  2  0
 17 18  1  0
 18 21  1  0
 19 20  1  0
 18 19  1  6
 21 23  2  0
 21 22  1  0
M  END
$$$$
