TQC.pdb
     RDKit          3D

 23 22  0  0  1  0  0  0  0  0999 V2000
   12.8225   -8.3549   -8.7236 C   0  0  0  0  0  0  0  0  0  0  0  0
   13.8809   -7.5185   -9.3942 C   0  0  1  0  0  0  0  0  0  0  0  0
   13.6022   -6.1800   -9.0012 O   0  0  0  0  0  0  0  0  0  0  0  0
   15.2661   -7.7906   -8.8411 C   0  0  2  0  0  0  0  0  0  0  0  0
   15.2192   -7.2179   -7.4735 N   0  0  0  0  0  0  0  0  0  0  0  0
   16.3485   -7.0866   -9.5447 C   0  0  0  0  0  0  0  0  0  0  0  0
   16.9488   -6.1429   -8.9416 O   0  0  0  0  0  0  0  0  0  0  0  0
   20.2223   -9.5342  -13.3164 N   0  0  0  0  0  0  0  0  0  0  0  0
   20.7079   -8.2203  -13.4696 C   0  0  0  0  0  0  0  0  0  0  0  0
   21.7593   -8.0375  -14.1278 O   0  0  0  0  0  0  0  0  0  0  0  0
   19.9711   -7.0884  -12.8538 C   0  0  0  0  0  0  0  0  0  0  0  0
   18.7914   -7.6399  -12.1316 C   0  0  0  0  0  0  0  0  0  0  0  0
   17.9409   -6.5998  -11.4280 C   0  0  2  0  0  0  0  0  0  0  0  0
   16.8100   -7.3600  -10.8647 N   0  0  0  0  0  0  0  0  0  0  0  0
   17.4384   -5.5811  -12.3512 C   0  0  0  0  0  0  0  0  0  0  0  0
   16.4896   -5.8577  -13.1607 O   0  0  0  0  0  0  0  0  0  0  0  0
   17.9297   -4.2533  -12.4333 N   0  0  0  0  0  0  0  0  0  0  0  0
   17.4161   -3.2828  -13.3745 C   0  0  1  0  0  0  0  0  0  0  0  0
   16.3422   -2.4157  -12.7450 C   0  0  0  0  0  0  0  0  0  0  0  0
   15.9576   -0.9749  -13.7646 S   0  0  0  0  0  0  0  0  0  0  0  0
   18.4892   -2.4023  -13.8928 C   0  0  0  0  0  0  0  0  0  0  0  0
   18.4751   -1.8851  -15.1734 O   0  0  0  0  0  0  0  0  0  0  0  0
   19.4488   -2.1146  -13.1402 O   0  0  0  0  0  0  0  0  0  0  0  0
  2  1  1  1
  2  4  1  0
  2  3  1  0
  4  5  1  1
  6  7  2  0
  6  4  1  0
  8  9  1  0
  9 11  1  0
  9 10  2  0
 11 12  1  0
 13 12  1  6
 13 15  1  0
 13 14  1  0
 14  6  1  0
 15 17  1  0
 16 15  2  0
 17 18  1  0
 18 21  1  0
 19 20  1  0
 18 19  1  1
 21 23  2  0
 21 22  1  0
M  END
$$$$
