TQC.pdb
     RDKit          3D

 23 22  0  0  1  0  0  0  0  0999 V2000
   28.9717  -20.6915  -18.1656 C   0  0  0  0  0  0  0  0  0  0  0  0
   27.7574  -20.7078  -17.2740 C   0  0  1  0  0  0  0  0  0  0  0  0
   26.7172  -21.2605  -18.0717 O   0  0  0  0  0  0  0  0  0  0  0  0
   27.9027  -21.6813  -16.1209 C   0  0  2  0  0  0  0  0  0  0  0  0
   27.8808  -23.0117  -16.7767 N   0  0  0  0  0  0  0  0  0  0  0  0
   26.7777  -21.6712  -15.1741 C   0  0  0  0  0  0  0  0  0  0  0  0
   25.8385  -22.5107  -15.3412 O   0  0  0  0  0  0  0  0  0  0  0  0
   26.1229  -21.7685   -9.8534 N   0  0  0  0  0  0  0  0  0  0  0  0
   24.9192  -21.0363   -9.8753 C   0  0  0  0  0  0  0  0  0  0  0  0
   24.0652  -21.2504   -8.9825 O   0  0  0  0  0  0  0  0  0  0  0  0
   24.6882  -20.0344  -10.9459 C   0  0  0  0  0  0  0  0  0  0  0  0
   25.7929  -20.1510  -11.9375 C   0  0  0  0  0  0  0  0  0  0  0  0
   25.4159  -20.8696  -13.2189 C   0  0  2  0  0  0  0  0  0  0  0  0
   26.6267  -20.7991  -14.0575 N   0  0  0  0  0  0  0  0  0  0  0  0
   24.3005  -20.2196  -13.9087 C   0  0  0  0  0  0  0  0  0  0  0  0
   24.5236  -19.3206  -14.7885 O   0  0  0  0  0  0  0  0  0  0  0  0
   22.9312  -20.5098  -13.6807 N   0  0  0  0  0  0  0  0  0  0  0  0
   21.8877  -20.1610  -14.6195 C   0  0  1  0  0  0  0  0  0  0  0  0
   22.0712  -20.8791  -15.9431 C   0  0  0  0  0  0  0  0  0  0  0  0
   20.6749  -20.6053  -17.0561 S   0  0  0  0  0  0  0  0  0  0  0  0
   20.5432  -20.4866  -14.0887 C   0  0  0  0  0  0  0  0  0  0  0  0
   20.3015  -21.5953  -13.3011 O   0  0  0  0  0  0  0  0  0  0  0  0
   19.5860  -19.7266  -14.3646 O   0  0  0  0  0  0  0  0  0  0  0  0
  2  1  1  6
  2  4  1  0
  2  3  1  0
  4  5  1  6
  6  7  2  0
  6  4  1  0
  8  9  1  0
  9 11  1  0
  9 10  2  0
 11 12  1  0
 13 12  1  1
 13 15  1  0
 13 14  1  0
 14  6  1  0
 15 17  1  0
 16 15  2  0
 17 18  1  0
 18 21  1  0
 19 20  1  0
 18 19  1  6
 21 23  2  0
 21 22  1  0
M  END
$$$$
