TQC.pdb
     RDKit          3D

 23 22  0  0  1  0  0  0  0  0999 V2000
   25.2201  -13.4054  -15.7577 C   0  0  0  0  0  0  0  0  0  0  0  0
   24.3654  -12.1658  -15.8070 C   0  0  1  0  0  0  0  0  0  0  0  0
   25.1966  -11.1631  -16.3793 O   0  0  0  0  0  0  0  0  0  0  0  0
   23.2131  -12.2992  -16.7832 C   0  0  2  0  0  0  0  0  0  0  0  0
   23.8774  -12.3576  -18.1082 N   0  0  0  0  0  0  0  0  0  0  0  0
   22.3158  -11.1349  -16.8241 C   0  0  0  0  0  0  0  0  0  0  0  0
   22.5064  -10.2553  -17.7210 O   0  0  0  0  0  0  0  0  0  0  0  0
   16.5286  -11.2075  -15.3670 N   0  0  0  0  0  0  0  0  0  0  0  0
   17.0391  -11.5480  -16.6355 C   0  0  0  0  0  0  0  0  0  0  0  0
   16.3369  -12.2503  -17.4009 O   0  0  0  0  0  0  0  0  0  0  0  0
   18.3867  -11.0723  -17.0368 C   0  0  0  0  0  0  0  0  0  0  0  0
   18.9412  -10.2539  -15.9234 C   0  0  0  0  0  0  0  0  0  0  0  0
   20.3413   -9.7243  -16.1676 C   0  0  2  0  0  0  0  0  0  0  0  0
   21.2243  -10.8837  -15.9434 N   0  0  0  0  0  0  0  0  0  0  0  0
   20.6946   -8.6493  -15.2391 C   0  0  0  0  0  0  0  0  0  0  0  0
   20.9169   -8.9090  -14.0082 O   0  0  0  0  0  0  0  0  0  0  0  0
   20.8198   -7.2827  -15.5965 N   0  0  0  0  0  0  0  0  0  0  0  0
   21.1096   -6.2427  -14.6342 C   0  0  1  0  0  0  0  0  0  0  0  0
   22.4680   -5.6168  -14.8876 C   0  0  0  0  0  0  0  0  0  0  0  0
   22.7585   -4.1862  -13.8235 S   0  0  0  0  0  0  0  0  0  0  0  0
   20.0850   -5.1726  -14.6601 C   0  0  0  0  0  0  0  0  0  0  0  0
   19.6547   -4.5253  -13.5184 O   0  0  0  0  0  0  0  0  0  0  0  0
   19.5882   -4.8404  -15.7614 O   0  0  0  0  0  0  0  0  0  0  0  0
  2  1  1  6
  2  4  1  0
  2  3  1  0
  4  5  1  6
  6  7  2  0
  6  4  1  0
  8  9  1  0
  9 11  1  0
  9 10  2  0
 11 12  1  0
 13 12  1  1
 13 15  1  0
 13 14  1  0
 14  6  1  0
 15 17  1  0
 16 15  2  0
 17 18  1  0
 18 21  1  0
 19 20  1  0
 18 19  1  6
 21 23  2  0
 21 22  1  0
M  END
$$$$
