TQC.pdb
     RDKit          3D

 23 22  0  0  1  0  0  0  0  0999 V2000
   15.8089  -13.7738  -11.0955 C   0  0  0  0  0  0  0  0  0  0  0  0
   16.1628  -12.3567  -11.4647 C   0  0  1  0  0  0  0  0  0  0  0  0
   16.0440  -12.3004  -12.8812 O   0  0  0  0  0  0  0  0  0  0  0  0
   15.1386  -11.3579  -10.9628 C   0  0  2  0  0  0  0  0  0  0  0  0
   13.9327  -11.6496  -11.7758 N   0  0  0  0  0  0  0  0  0  0  0  0
   15.4826   -9.9528  -11.2271 C   0  0  0  0  0  0  0  0  0  0  0  0
   14.9850   -9.3906  -12.2523 O   0  0  0  0  0  0  0  0  0  0  0  0
   15.8109   -5.2222   -7.6871 N   0  0  0  0  0  0  0  0  0  0  0  0
   14.6803   -5.7351   -8.3536 C   0  0  0  0  0  0  0  0  0  0  0  0
   13.5401   -5.3882   -7.9642 O   0  0  0  0  0  0  0  0  0  0  0  0
   14.8604   -6.6682   -9.4938 C   0  0  0  0  0  0  0  0  0  0  0  0
   16.3204   -6.8823   -9.6930 C   0  0  0  0  0  0  0  0  0  0  0  0
   16.6721   -7.7666  -10.8740 C   0  0  2  0  0  0  0  0  0  0  0  0
   16.3343   -9.1322  -10.4326 N   0  0  0  0  0  0  0  0  0  0  0  0
   18.0944   -7.6959  -11.2123 C   0  0  0  0  0  0  0  0  0  0  0  0
   18.9408   -8.4236  -10.5909 O   0  0  0  0  0  0  0  0  0  0  0  0
   18.6453   -6.8559  -12.2133 N   0  0  0  0  0  0  0  0  0  0  0  0
   20.0455   -6.8794  -12.5749 C   0  0  1  0  0  0  0  0  0  0  0  0
   20.3592   -8.0408  -13.4990 C   0  0  0  0  0  0  0  0  0  0  0  0
   22.0638   -7.9849  -14.0947 S   0  0  0  0  0  0  0  0  0  0  0  0
   20.4596   -5.6220  -13.2404 C   0  0  0  0  0  0  0  0  0  0  0  0
   19.5515   -4.7150  -13.7508 O   0  0  0  0  0  0  0  0  0  0  0  0
   21.6826   -5.3700  -13.3452 O   0  0  0  0  0  0  0  0  0  0  0  0
  2  1  1  1
  2  4  1  0
  2  3  1  0
  4  5  1  6
  6  7  2  0
  6  4  1  0
  8  9  1  0
  9 11  1  0
  9 10  2  0
 11 12  1  0
 13 12  1  1
 13 15  1  0
 13 14  1  0
 14  6  1  0
 15 17  1  0
 16 15  2  0
 17 18  1  0
 18 21  1  0
 19 20  1  0
 18 19  1  6
 21 23  2  0
 21 22  1  0
M  END
$$$$
