TQC.pdb
     RDKit          3D

 23 22  0  0  1  0  0  0  0  0999 V2000
   14.2536  -12.7692  -16.5512 C   0  0  0  0  0  0  0  0  0  0  0  0
   14.9648  -11.4820  -16.2241 C   0  0  1  0  0  0  0  0  0  0  0  0
   14.0478  -10.7421  -15.4270 O   0  0  0  0  0  0  0  0  0  0  0  0
   16.1599  -11.6989  -15.3167 C   0  0  2  0  0  0  0  0  0  0  0  0
   15.5679  -12.2746  -14.0844 N   0  0  0  0  0  0  0  0  0  0  0  0
   16.8414  -10.4622  -14.9064 C   0  0  0  0  0  0  0  0  0  0  0  0
   16.7203  -10.0755  -13.7020 O   0  0  0  0  0  0  0  0  0  0  0  0
   22.3100   -9.1699  -16.3881 N   0  0  0  0  0  0  0  0  0  0  0  0
   22.1021   -7.9372  -15.7380 C   0  0  0  0  0  0  0  0  0  0  0  0
   23.0765   -7.1633  -15.5837 O   0  0  0  0  0  0  0  0  0  0  0  0
   20.7449   -7.5823  -15.2527 C   0  0  0  0  0  0  0  0  0  0  0  0
   19.8020   -8.6492  -15.6885 C   0  0  0  0  0  0  0  0  0  0  0  0
   18.3898   -8.4977  -15.1563 C   0  0  2  0  0  0  0  0  0  0  0  0
   17.6473   -9.6313  -15.7372 N   0  0  0  0  0  0  0  0  0  0  0  0
   17.7737   -7.2382  -15.5764 C   0  0  0  0  0  0  0  0  0  0  0  0
   17.4823   -7.0424  -16.8047 O   0  0  0  0  0  0  0  0  0  0  0  0
   17.4545   -6.1656  -14.7052 N   0  0  0  0  0  0  0  0  0  0  0  0
   16.9905   -4.8805  -15.1793 C   0  0  1  0  0  0  0  0  0  0  0  0
   15.9799   -4.2709  -14.2261 C   0  0  0  0  0  0  0  0  0  0  0  0
   14.4582   -5.2414  -14.1482 S   0  0  0  0  0  0  0  0  0  0  0  0
   18.1096   -3.9253  -15.3541 C   0  0  0  0  0  0  0  0  0  0  0  0
   17.9273   -2.6445  -15.8378 O   0  0  0  0  0  0  0  0  0  0  0  0
   19.2686   -4.2928  -15.0513 O   0  0  0  0  0  0  0  0  0  0  0  0
  2  1  1  1
  2  4  1  0
  2  3  1  0
  4  5  1  1
  6  7  2  0
  6  4  1  0
  8  9  1  0
  9 11  1  0
  9 10  2  0
 11 12  1  0
 13 12  1  6
 13 15  1  0
 13 14  1  0
 14  6  1  0
 15 17  1  0
 16 15  2  0
 17 18  1  0
 18 21  1  0
 19 20  1  0
 18 19  1  1
 21 23  2  0
 21 22  1  0
M  END
$$$$
