TQC.pdb
     RDKit          3D

 23 22  0  0  1  0  0  0  0  0999 V2000
   17.0397  -12.3284  -12.6470 C   0  0  0  0  0  0  0  0  0  0  0  0
   15.8849  -13.1868  -13.0937 C   0  0  1  0  0  0  0  0  0  0  0  0
   16.2978  -14.5252  -12.8448 O   0  0  0  0  0  0  0  0  0  0  0  0
   14.6597  -13.0040  -12.2196 C   0  0  2  0  0  0  0  0  0  0  0  0
   13.6568  -13.9161  -12.8218 N   0  0  0  0  0  0  0  0  0  0  0  0
   14.0736  -11.6564  -12.2721 C   0  0  0  0  0  0  0  0  0  0  0  0
   13.6203  -11.2365  -13.3824 O   0  0  0  0  0  0  0  0  0  0  0  0
   11.1458   -8.6515   -8.0029 N   0  0  0  0  0  0  0  0  0  0  0  0
   11.2069   -7.5793   -8.9151 C   0  0  0  0  0  0  0  0  0  0  0  0
   10.5912   -6.5208   -8.6458 O   0  0  0  0  0  0  0  0  0  0  0  0
   11.9925   -7.7232  -10.1663 C   0  0  0  0  0  0  0  0  0  0  0  0
   12.6159   -9.0755  -10.1706 C   0  0  0  0  0  0  0  0  0  0  0  0
   13.4452   -9.3829  -11.4027 C   0  0  2  0  0  0  0  0  0  0  0  0
   13.9537  -10.7489  -11.1802 N   0  0  0  0  0  0  0  0  0  0  0  0
   14.5691   -8.4579  -11.5566 C   0  0  0  0  0  0  0  0  0  0  0  0
   15.6010   -8.5690  -10.8117 O   0  0  0  0  0  0  0  0  0  0  0  0
   14.6212   -7.4010  -12.5007 N   0  0  0  0  0  0  0  0  0  0  0  0
   15.7419   -6.4922  -12.6010 C   0  0  1  0  0  0  0  0  0  0  0  0
   16.4114   -6.5867  -13.9590 C   0  0  0  0  0  0  0  0  0  0  0  0
   17.6741   -5.3132  -14.1765 S   0  0  0  0  0  0  0  0  0  0  0  0
   15.3286   -5.0872  -12.3758 C   0  0  0  0  0  0  0  0  0  0  0  0
   16.2361   -4.0705  -12.1516 O   0  0  0  0  0  0  0  0  0  0  0  0
   14.1069   -4.8088  -12.3889 O   0  0  0  0  0  0  0  0  0  0  0  0
  2  1  1  1
  2  4  1  0
  2  3  1  0
  4  5  1  6
  6  7  2  0
  6  4  1  0
  8  9  1  0
  9 11  1  0
  9 10  2  0
 11 12  1  0
 13 12  1  1
 13 15  1  0
 13 14  1  0
 14  6  1  0
 15 17  1  0
 16 15  2  0
 17 18  1  0
 18 21  1  0
 19 20  1  0
 18 19  1  6
 21 23  2  0
 21 22  1  0
M  END
$$$$
