TQC.pdb
     RDKit          3D

 23 22  0  0  1  0  0  0  0  0999 V2000
   23.1973  -10.4921  -17.5204 C   0  0  0  0  0  0  0  0  0  0  0  0
   22.4622  -11.6510  -16.8990 C   0  0  1  0  0  0  0  0  0  0  0  0
   22.5871  -11.4611  -15.4946 O   0  0  0  0  0  0  0  0  0  0  0  0
   20.9690  -11.5891  -17.1540 C   0  0  2  0  0  0  0  0  0  0  0  0
   20.8465  -11.8704  -18.6053 N   0  0  0  0  0  0  0  0  0  0  0  0
   20.3724  -10.2621  -16.9407 C   0  0  0  0  0  0  0  0  0  0  0  0
   20.6074   -9.3489  -17.7925 O   0  0  0  0  0  0  0  0  0  0  0  0
   15.0242   -9.1756  -14.5795 N   0  0  0  0  0  0  0  0  0  0  0  0
   15.3808   -7.8221  -14.7419 C   0  0  0  0  0  0  0  0  0  0  0  0
   14.4956   -6.9439  -14.6105 O   0  0  0  0  0  0  0  0  0  0  0  0
   16.7857   -7.4660  -15.0625 C   0  0  0  0  0  0  0  0  0  0  0  0
   17.5407   -8.7263  -15.3051 C   0  0  0  0  0  0  0  0  0  0  0  0
   18.9617   -8.5249  -15.7955 C   0  0  2  0  0  0  0  0  0  0  0  0
   19.5337   -9.8826  -15.8532 N   0  0  0  0  0  0  0  0  0  0  0  0
   19.7493   -7.6971  -14.8807 C   0  0  0  0  0  0  0  0  0  0  0  0
   20.5680   -8.2402  -14.0641 O   0  0  0  0  0  0  0  0  0  0  0  0
   19.6853   -6.2819  -14.8145 N   0  0  0  0  0  0  0  0  0  0  0  0
   20.6364   -5.4868  -14.0697 C   0  0  1  0  0  0  0  0  0  0  0  0
   22.0584   -5.7538  -14.5256 C   0  0  0  0  0  0  0  0  0  0  0  0
   23.2278   -4.5818  -13.8028 S   0  0  0  0  0  0  0  0  0  0  0  0
   20.3621   -4.0370  -14.2051 C   0  0  0  0  0  0  0  0  0  0  0  0
   20.7145   -3.1183  -13.2357 O   0  0  0  0  0  0  0  0  0  0  0  0
   19.7875   -3.6263  -15.2401 O   0  0  0  0  0  0  0  0  0  0  0  0
  2  1  1  6
  2  4  1  0
  2  3  1  0
  4  5  1  6
  6  7  2  0
  6  4  1  0
  8  9  1  0
  9 11  1  0
  9 10  2  0
 11 12  1  0
 13 12  1  1
 13 15  1  0
 13 14  1  0
 14  6  1  0
 15 17  1  0
 16 15  2  0
 17 18  1  0
 18 21  1  0
 19 20  1  0
 18 19  1  6
 21 23  2  0
 21 22  1  0
M  END
$$$$
