TQC.pdb
     RDKit          3D

 23 22  0  0  1  0  0  0  0  0999 V2000
   19.6389  -14.7813  -16.9335 C   0  0  0  0  0  0  0  0  0  0  0  0
   19.4888  -13.3203  -17.2686 C   0  0  1  0  0  0  0  0  0  0  0  0
   18.0905  -13.1184  -17.4358 O   0  0  0  0  0  0  0  0  0  0  0  0
   19.8607  -12.4215  -16.1057 C   0  0  2  0  0  0  0  0  0  0  0  0
   18.8649  -12.7650  -15.0612 N   0  0  0  0  0  0  0  0  0  0  0  0
   19.6965  -10.9849  -16.3736 C   0  0  0  0  0  0  0  0  0  0  0  0
   20.6626  -10.3544  -16.9063 O   0  0  0  0  0  0  0  0  0  0  0  0
   15.1834  -10.2604  -15.9443 N   0  0  0  0  0  0  0  0  0  0  0  0
   15.3108   -9.9758  -17.3184 C   0  0  0  0  0  0  0  0  0  0  0  0
   14.5345  -10.5381  -18.1266 O   0  0  0  0  0  0  0  0  0  0  0  0
   16.3529   -9.0238  -17.7778 C   0  0  0  0  0  0  0  0  0  0  0  0
   17.0207   -8.4506  -16.5766 C   0  0  0  0  0  0  0  0  0  0  0  0
   18.4972   -8.7773  -16.4607 C   0  0  2  0  0  0  0  0  0  0  0  0
   18.5370  -10.2051  -16.0951 N   0  0  0  0  0  0  0  0  0  0  0  0
   19.1582   -7.9845  -15.4230 C   0  0  0  0  0  0  0  0  0  0  0  0
   18.8783   -8.1751  -14.1911 O   0  0  0  0  0  0  0  0  0  0  0  0
   20.1264   -6.9781  -15.6699 N   0  0  0  0  0  0  0  0  0  0  0  0
   20.7068   -6.1720  -14.6187 C   0  0  1  0  0  0  0  0  0  0  0  0
   22.2161   -6.3190  -14.5778 C   0  0  0  0  0  0  0  0  0  0  0  0
   22.9823   -5.0918  -13.4959 S   0  0  0  0  0  0  0  0  0  0  0  0
   20.3771   -4.7370  -14.7846 C   0  0  0  0  0  0  0  0  0  0  0  0
   20.5394   -4.0688  -15.9825 O   0  0  0  0  0  0  0  0  0  0  0  0
   19.9331   -4.1028  -13.7993 O   0  0  0  0  0  0  0  0  0  0  0  0
  2  1  1  1
  2  4  1  0
  2  3  1  0
  4  5  1  1
  6  7  2  0
  6  4  1  0
  8  9  1  0
  9 11  1  0
  9 10  2  0
 11 12  1  0
 13 12  1  1
 13 15  1  0
 13 14  1  0
 14  6  1  0
 15 17  1  0
 16 15  2  0
 17 18  1  0
 18 21  1  0
 19 20  1  0
 18 19  1  6
 21 23  2  0
 21 22  1  0
M  END
$$$$
