TQC.pdb
     RDKit          3D

 23 22  0  0  1  0  0  0  0  0999 V2000
   28.4428  -22.4198  -19.4913 C   0  0  0  0  0  0  0  0  0  0  0  0
   27.8220  -21.5446  -18.4338 C   0  0  1  0  0  0  0  0  0  0  0  0
   26.4494  -21.4426  -18.7935 O   0  0  0  0  0  0  0  0  0  0  0  0
   27.8039  -22.2113  -17.0722 C   0  0  2  0  0  0  0  0  0  0  0  0
   26.9469  -23.4050  -17.2747 N   0  0  0  0  0  0  0  0  0  0  0  0
   27.1587  -21.4162  -16.0168 C   0  0  0  0  0  0  0  0  0  0  0  0
   27.6978  -20.3187  -15.6709 O   0  0  0  0  0  0  0  0  0  0  0  0
   21.2852  -20.7823  -15.0334 N   0  0  0  0  0  0  0  0  0  0  0  0
   21.8807  -19.5084  -14.9444 C   0  0  0  0  0  0  0  0  0  0  0  0
   21.1533  -18.4925  -15.0485 O   0  0  0  0  0  0  0  0  0  0  0  0
   23.3454  -19.3956  -14.7310 C   0  0  0  0  0  0  0  0  0  0  0  0
   23.9111  -20.7708  -14.6549 C   0  0  0  0  0  0  0  0  0  0  0  0
   25.3914  -20.8259  -14.3293 C   0  0  2  0  0  0  0  0  0  0  0  0
   25.9594  -21.7530  -15.3252 N   0  0  0  0  0  0  0  0  0  0  0  0
   25.6414  -21.3377  -12.9810 C   0  0  0  0  0  0  0  0  0  0  0  0
   25.4189  -22.5654  -12.7069 O   0  0  0  0  0  0  0  0  0  0  0  0
   26.1316  -20.5606  -11.9006 N   0  0  0  0  0  0  0  0  0  0  0  0
   26.3004  -21.0904  -10.5655 C   0  0  1  0  0  0  0  0  0  0  0  0
   27.6095  -20.6334   -9.9501 C   0  0  0  0  0  0  0  0  0  0  0  0
   29.0163  -20.9753  -11.0306 S   0  0  0  0  0  0  0  0  0  0  0  0
   25.1914  -20.6832   -9.6712 C   0  0  0  0  0  0  0  0  0  0  0  0
   25.0388  -21.1897   -8.3953 O   0  0  0  0  0  0  0  0  0  0  0  0
   24.3576  -19.8457  -10.0878 O   0  0  0  0  0  0  0  0  0  0  0  0
  2  1  1  6
  2  4  1  0
  2  3  1  0
  4  5  1  6
  6  7  2  0
  6  4  1  0
  8  9  1  0
  9 11  1  0
  9 10  2  0
 11 12  1  0
 13 12  1  6
 13 15  1  0
 13 14  1  0
 14  6  1  0
 15 17  1  0
 16 15  2  0
 17 18  1  0
 18 21  1  0
 19 20  1  0
 18 19  1  1
 21 23  2  0
 21 22  1  0
M  END
$$$$
