TQC.pdb
     RDKit          3D

 23 22  0  0  1  0  0  0  0  0999 V2000
   16.6696   -9.0966  -17.6744 C   0  0  0  0  0  0  0  0  0  0  0  0
   16.6263   -9.8622  -16.3777 C   0  0  1  0  0  0  0  0  0  0  0  0
   15.9358  -11.0686  -16.6805 O   0  0  0  0  0  0  0  0  0  0  0  0
   18.0016  -10.3193  -15.9326 C   0  0  2  0  0  0  0  0  0  0  0  0
   17.7411  -11.0361  -14.6603 N   0  0  0  0  0  0  0  0  0  0  0  0
   18.9274   -9.2246  -15.6056 C   0  0  0  0  0  0  0  0  0  0  0  0
   18.6759   -8.5020  -14.5910 O   0  0  0  0  0  0  0  0  0  0  0  0
   24.8131   -8.8506  -16.8754 N   0  0  0  0  0  0  0  0  0  0  0  0
   24.6714   -7.5119  -16.4590 C   0  0  0  0  0  0  0  0  0  0  0  0
   25.6805   -6.7677  -16.4631 O   0  0  0  0  0  0  0  0  0  0  0  0
   23.3415   -7.0137  -16.0274 C   0  0  0  0  0  0  0  0  0  0  0  0
   22.3419   -8.0913  -16.2657 C   0  0  0  0  0  0  0  0  0  0  0  0
   20.9154   -7.7167  -15.9120 C   0  0  2  0  0  0  0  0  0  0  0  0
   20.1098   -8.8814  -16.3227 N   0  0  0  0  0  0  0  0  0  0  0  0
   20.4625   -6.5258  -16.6325 C   0  0  0  0  0  0  0  0  0  0  0  0
   20.3606   -6.5438  -17.9058 O   0  0  0  0  0  0  0  0  0  0  0  0
   20.1091   -5.2970  -16.0192 N   0  0  0  0  0  0  0  0  0  0  0  0
   19.7198   -4.1262  -16.7737 C   0  0  1  0  0  0  0  0  0  0  0  0
   18.2124   -3.9566  -16.7939 C   0  0  0  0  0  0  0  0  0  0  0  0
   17.4833   -4.2258  -15.1631 S   0  0  0  0  0  0  0  0  0  0  0  0
   20.3257   -2.8924  -16.2203 C   0  0  0  0  0  0  0  0  0  0  0  0
   20.1344   -1.6485  -16.7892 O   0  0  0  0  0  0  0  0  0  0  0  0
   21.0408   -2.9796  -15.1950 O   0  0  0  0  0  0  0  0  0  0  0  0
  2  1  1  6
  2  4  1  0
  2  3  1  0
  4  5  1  1
  6  7  2  0
  6  4  1  0
  8  9  1  0
  9 11  1  0
  9 10  2  0
 11 12  1  0
 13 12  1  6
 13 15  1  0
 13 14  1  0
 14  6  1  0
 15 17  1  0
 16 15  2  0
 17 18  1  0
 18 21  1  0
 19 20  1  0
 18 19  1  1
 21 23  2  0
 21 22  1  0
M  END
$$$$
