TQC.pdb
     RDKit          3D

 23 22  0  0  1  0  0  0  0  0999 V2000
   22.1365  -20.0487  -11.7821 C   0  0  0  0  0  0  0  0  0  0  0  0
   22.9980  -20.0303  -10.5464 C   0  0  1  0  0  0  0  0  0  0  0  0
   22.1504  -20.4777   -9.4950 O   0  0  0  0  0  0  0  0  0  0  0  0
   24.1052  -21.0645  -10.6008 C   0  0  2  0  0  0  0  0  0  0  0  0
   24.8591  -20.8416   -9.3428 N   0  0  0  0  0  0  0  0  0  0  0  0
   25.0659  -20.8665  -11.6963 C   0  0  0  0  0  0  0  0  0  0  0  0
   26.1588  -20.2700  -11.4424 O   0  0  0  0  0  0  0  0  0  0  0  0
   26.7836  -24.8303  -15.6714 N   0  0  0  0  0  0  0  0  0  0  0  0
   25.4424  -24.4124  -15.7806 C   0  0  0  0  0  0  0  0  0  0  0  0
   24.6092  -25.1864  -16.3087 O   0  0  0  0  0  0  0  0  0  0  0  0
   25.0460  -23.0752  -15.2725 C   0  0  0  0  0  0  0  0  0  0  0  0
   26.2313  -22.4573  -14.6166 C   0  0  0  0  0  0  0  0  0  0  0  0
   25.9801  -21.0821  -14.0281 C   0  0  2  0  0  0  0  0  0  0  0  0
   24.8983  -21.2867  -13.0474 N   0  0  0  0  0  0  0  0  0  0  0  0
   25.5501  -20.1180  -15.0419 C   0  0  0  0  0  0  0  0  0  0  0  0
   24.3200  -20.0435  -15.3787 O   0  0  0  0  0  0  0  0  0  0  0  0
   26.4127  -19.2162  -15.7156 N   0  0  0  0  0  0  0  0  0  0  0  0
   25.9325  -18.2118  -16.6389 C   0  0  1  0  0  0  0  0  0  0  0  0
   26.9635  -17.1200  -16.8545 C   0  0  0  0  0  0  0  0  0  0  0  0
   27.3612  -16.2575  -15.3178 S   0  0  0  0  0  0  0  0  0  0  0  0
   25.5856  -18.7992  -17.9543 C   0  0  0  0  0  0  0  0  0  0  0  0
   24.5447  -18.3272  -18.7298 O   0  0  0  0  0  0  0  0  0  0  0  0
   26.2630  -19.7629  -18.3815 O   0  0  0  0  0  0  0  0  0  0  0  0
  2  1  1  6
  2  4  1  0
  2  3  1  0
  4  5  1  1
  6  7  2  0
  6  4  1  0
  8  9  1  0
  9 11  1  0
  9 10  2  0
 11 12  1  0
 13 12  1  6
 13 15  1  0
 13 14  1  0
 14  6  1  0
 15 17  1  0
 16 15  2  0
 17 18  1  0
 18 21  1  0
 19 20  1  0
 18 19  1  6
 21 23  2  0
 21 22  1  0
M  END
$$$$
