PHC.pdb
     RDKit          3D

 24 25  0  0  1  0  0  0  0  0999 V2000
   27.3722  -21.5512  -16.1389 N   0  0  0  0  0  0  0  0  0  0  0  0
   27.5173  -21.7744  -17.5509 C   0  0  0  0  0  0  0  0  0  0  0  0
   27.3911  -20.4382  -18.2353 C   0  0  0  0  0  0  0  0  0  0  0  0
   26.6433  -19.6305  -17.1656 C   0  0  0  0  0  0  0  0  0  0  0  0
   27.2612  -20.1429  -15.9117 C   0  0  1  0  0  0  0  0  0  0  0  0
   26.5022  -19.8118  -14.6859 C   0  0  0  0  0  0  0  0  0  0  0  0
   26.3903  -18.5912  -14.3980 O   0  0  0  0  0  0  0  0  0  0  0  0
   25.9088  -20.7575  -13.8376 N   0  0  0  0  0  0  0  0  0  0  0  0
   25.0400  -20.4258  -12.7291 C   0  0  1  0  0  0  0  0  0  0  0  0
   23.6994  -21.0778  -12.8277 C   0  0  0  0  0  0  0  0  0  0  0  0
   22.8556  -20.5519  -13.9007 C   0  0  0  0  0  0  0  0  0  0  0  0
   21.9824  -19.4959  -13.7753 C   0  0  0  0  0  0  0  0  0  0  0  0
   21.3915  -19.3155  -14.9799 N   0  0  0  0  0  0  0  0  0  0  0  0
   21.8661  -20.2167  -15.8379 C   0  0  0  0  0  0  0  0  0  0  0  0
   22.7546  -20.9619  -15.1707 N   0  0  0  0  0  0  0  0  0  0  0  0
   25.6503  -20.8775  -11.4271 C   0  0  0  0  0  0  0  0  0  0  0  0
   26.1516  -22.0298  -11.3008 O   0  0  0  0  0  0  0  0  0  0  0  0
   25.6828  -20.0216  -10.2955 N   0  0  0  0  0  0  0  0  0  0  0  0
   26.1762  -20.4665   -8.9895 C   0  0  1  0  0  0  0  0  0  0  0  0
   26.8557  -19.2829   -8.3458 C   0  0  0  0  0  0  0  0  0  0  0  0
   27.3452  -19.5950   -6.6528 S   0  0  0  0  0  0  0  0  0  0  0  0
   25.0320  -20.8556   -8.1145 C   0  0  0  0  0  0  0  0  0  0  0  0
   25.2329  -21.6127   -6.9787 O   0  0  0  0  0  0  0  0  0  0  0  0
   23.8612  -20.5087   -8.3830 O   0  0  0  0  0  0  0  0  0  0  0  0
  1  5  1  0
  1  2  1  0
  2  3  1  0
  4  3  1  0
  5  4  1  0
  5  6  1  1
  6  8  1  0
  7  6  2  0
  9  8  1  0
  9 10  1  6
 10 11  1  0
 11 15  1  0
 11 12  2  0
 12 13  1  0
 14 13  1  0
 15 14  2  0
 16  9  1  0
 17 16  2  0
 18 16  1  0
 19 22  1  0
 19 18  1  0
 19 20  1  1
 21 20  1  0
 22 23  1  0
 24 22  2  0
M  END
$$$$
