PHC.pdb
     RDKit          3D

 24 25  0  0  1  0  0  0  0  0999 V2000
   29.9423  -24.7041  -16.1230 N   0  0  0  0  0  0  0  0  0  0  0  0
   30.8331  -25.3983  -17.0114 C   0  0  0  0  0  0  0  0  0  0  0  0
   32.2013  -24.7897  -16.8464 C   0  0  0  0  0  0  0  0  0  0  0  0
   31.8436  -23.4220  -16.2485 C   0  0  0  0  0  0  0  0  0  0  0  0
   30.7062  -23.7706  -15.3533 C   0  0  1  0  0  0  0  0  0  0  0  0
   29.9138  -22.6055  -14.9028 C   0  0  0  0  0  0  0  0  0  0  0  0
   30.5285  -21.7122  -14.2628 O   0  0  0  0  0  0  0  0  0  0  0  0
   28.5423  -22.4361  -15.1402 N   0  0  0  0  0  0  0  0  0  0  0  0
   27.7613  -21.3229  -14.6457 C   0  0  1  0  0  0  0  0  0  0  0  0
   26.5853  -21.0094  -15.5120 C   0  0  0  0  0  0  0  0  0  0  0  0
   25.7947  -19.8657  -15.0572 C   0  0  0  0  0  0  0  0  0  0  0  0
   26.0119  -18.5574  -15.4242 C   0  0  0  0  0  0  0  0  0  0  0  0
   25.0787  -17.8024  -14.7984 N   0  0  0  0  0  0  0  0  0  0  0  0
   24.2989  -18.5932  -14.0634 C   0  0  0  0  0  0  0  0  0  0  0  0
   24.7437  -19.8441  -14.2289 N   0  0  0  0  0  0  0  0  0  0  0  0
   27.2224  -21.6261  -13.2712 C   0  0  0  0  0  0  0  0  0  0  0  0
   26.5898  -22.6930  -13.0336 O   0  0  0  0  0  0  0  0  0  0  0  0
   27.4078  -20.7209  -12.1939 N   0  0  0  0  0  0  0  0  0  0  0  0
   26.8017  -20.9343  -10.8770 C   0  0  1  0  0  0  0  0  0  0  0  0
   27.4153  -19.9251   -9.9380 C   0  0  0  0  0  0  0  0  0  0  0  0
   26.6881  -19.9609   -8.3029 S   0  0  0  0  0  0  0  0  0  0  0  0
   25.3367  -20.6573  -10.9358 C   0  0  0  0  0  0  0  0  0  0  0  0
   24.4531  -21.3358  -10.1219 O   0  0  0  0  0  0  0  0  0  0  0  0
   24.8674  -19.8054  -11.7214 O   0  0  0  0  0  0  0  0  0  0  0  0
  1  5  1  0
  1  2  1  0
  2  3  1  0
  4  3  1  0
  5  4  1  0
  5  6  1  6
  6  8  1  0
  7  6  2  0
  9  8  1  0
  9 10  1  6
 10 11  1  0
 11 15  1  0
 11 12  2  0
 12 13  1  0
 14 13  1  0
 15 14  2  0
 16  9  1  0
 17 16  2  0
 18 16  1  0
 19 22  1  0
 19 18  1  0
 19 20  1  1
 21 20  1  0
 22 23  1  0
 24 22  2  0
M  END
$$$$
