PHC.pdb
     RDKit          3D

 24 25  0  0  1  0  0  0  0  0999 V2000
   23.5865  -12.8008  -14.9181 N   0  0  0  0  0  0  0  0  0  0  0  0
   24.1205  -14.1335  -14.9754 C   0  0  0  0  0  0  0  0  0  0  0  0
   24.1651  -14.5408  -16.4252 C   0  0  0  0  0  0  0  0  0  0  0  0
   23.1364  -13.5769  -17.0323 C   0  0  0  0  0  0  0  0  0  0  0  0
   23.3921  -12.3324  -16.2561 C   0  0  1  0  0  0  0  0  0  0  0  0
   22.3179  -11.3213  -16.3657 C   0  0  0  0  0  0  0  0  0  0  0  0
   22.1538  -10.7852  -17.4931 O   0  0  0  0  0  0  0  0  0  0  0  0
   21.4839  -10.9286  -15.3092 N   0  0  0  0  0  0  0  0  0  0  0  0
   20.4438   -9.9289  -15.4207 C   0  0  1  0  0  0  0  0  0  0  0  0
   19.1153  -10.4186  -14.9441 C   0  0  0  0  0  0  0  0  0  0  0  0
   18.4382  -11.3174  -15.8788 C   0  0  0  0  0  0  0  0  0  0  0  0
   18.9253  -12.5331  -16.3011 C   0  0  0  0  0  0  0  0  0  0  0  0
   18.0156  -13.0576  -17.1554 N   0  0  0  0  0  0  0  0  0  0  0  0
   16.9916  -12.2144  -17.2742 C   0  0  0  0  0  0  0  0  0  0  0  0
   17.2600  -11.1611  -16.4940 N   0  0  0  0  0  0  0  0  0  0  0  0
   20.7856   -8.7176  -14.5916 C   0  0  0  0  0  0  0  0  0  0  0  0
   21.1337   -8.8254  -13.3823 O   0  0  0  0  0  0  0  0  0  0  0  0
   20.7278   -7.4108  -15.1423 N   0  0  0  0  0  0  0  0  0  0  0  0
   21.0558   -6.2153  -14.3612 C   0  0  1  0  0  0  0  0  0  0  0  0
   22.3491   -5.6669  -14.9122 C   0  0  0  0  0  0  0  0  0  0  0  0
   22.8176   -4.1067  -14.1709 S   0  0  0  0  0  0  0  0  0  0  0  0
   20.0079   -5.1713  -14.5573 C   0  0  0  0  0  0  0  0  0  0  0  0
   19.4671   -4.9343  -15.8042 O   0  0  0  0  0  0  0  0  0  0  0  0
   19.5900   -4.4824  -13.6012 O   0  0  0  0  0  0  0  0  0  0  0  0
  1  5  1  0
  1  2  1  0
  2  3  1  0
  4  3  1  0
  5  4  1  0
  5  6  1  1
  6  8  1  0
  7  6  2  0
  9  8  1  0
  9 10  1  1
 10 11  1  0
 11 15  1  0
 11 12  2  0
 12 13  1  0
 14 13  1  0
 15 14  2  0
 16  9  1  0
 17 16  2  0
 18 16  1  0
 19 22  1  0
 19 18  1  0
 19 20  1  6
 21 20  1  0
 22 23  1  0
 24 22  2  0
M  END
$$$$
