PHC.pdb
     RDKit          3D

 24 25  0  0  1  0  0  0  0  0999 V2000
   24.1771  -12.1190  -15.5328 N   0  0  0  0  0  0  0  0  0  0  0  0
   24.5060  -13.4964  -15.7758 C   0  0  0  0  0  0  0  0  0  0  0  0
   24.2635  -13.7681  -17.2377 C   0  0  0  0  0  0  0  0  0  0  0  0
   23.2946  -12.6310  -17.5903 C   0  0  0  0  0  0  0  0  0  0  0  0
   23.8396  -11.5064  -16.7811 C   0  0  1  0  0  0  0  0  0  0  0  0
   22.9117  -10.3639  -16.6338 C   0  0  0  0  0  0  0  0  0  0  0  0
   22.7210   -9.6503  -17.6535 O   0  0  0  0  0  0  0  0  0  0  0  0
   22.2415  -10.0308  -15.4480 N   0  0  0  0  0  0  0  0  0  0  0  0
   21.2318   -8.9995  -15.3451 C   0  0  1  0  0  0  0  0  0  0  0  0
   20.0909   -9.3909  -14.4636 C   0  0  0  0  0  0  0  0  0  0  0  0
   19.1652  -10.3466  -15.0716 C   0  0  0  0  0  0  0  0  0  0  0  0
   19.0785  -10.6174  -16.4179 C   0  0  0  0  0  0  0  0  0  0  0  0
   18.1107  -11.5500  -16.5805 N   0  0  0  0  0  0  0  0  0  0  0  0
   17.6009  -11.8618  -15.3903 C   0  0  0  0  0  0  0  0  0  0  0  0
   18.2495  -11.1243  -14.4818 N   0  0  0  0  0  0  0  0  0  0  0  0
   21.8213   -7.7405  -14.7628 C   0  0  0  0  0  0  0  0  0  0  0  0
   22.5345   -7.7693  -13.7209 O   0  0  0  0  0  0  0  0  0  0  0  0
   21.5947   -6.4763  -15.3666 N   0  0  0  0  0  0  0  0  0  0  0  0
   22.1746   -5.2391  -14.8373 C   0  0  1  0  0  0  0  0  0  0  0  0
   22.5948   -4.4045  -16.0221 C   0  0  0  0  0  0  0  0  0  0  0  0
   23.1347   -2.7612  -15.5618 S   0  0  0  0  0  0  0  0  0  0  0  0
   21.1397   -4.4662  -14.0904 C   0  0  0  0  0  0  0  0  0  0  0  0
   21.4841   -3.6774  -13.0121 O   0  0  0  0  0  0  0  0  0  0  0  0
   19.9338   -4.5098  -14.4179 O   0  0  0  0  0  0  0  0  0  0  0  0
  1  5  1  0
  1  2  1  0
  2  3  1  0
  4  3  1  0
  5  4  1  0
  5  6  1  1
  6  8  1  0
  7  6  2  0
  9  8  1  0
  9 10  1  1
 10 11  1  0
 11 15  1  0
 11 12  2  0
 12 13  1  0
 14 13  1  0
 15 14  2  0
 16  9  1  0
 17 16  2  0
 18 16  1  0
 19 22  1  0
 19 18  1  0
 19 20  1  6
 21 20  1  0
 22 23  1  0
 24 22  2  0
M  END
$$$$
