PHC.pdb
     RDKit          3D

 24 25  0  0  1  0  0  0  0  0999 V2000
   27.7079  -21.4440  -14.4480 N   0  0  0  0  0  0  0  0  0  0  0  0
   27.7322  -21.5771  -15.8785 C   0  0  0  0  0  0  0  0  0  0  0  0
   27.6664  -20.1901  -16.4628 C   0  0  0  0  0  0  0  0  0  0  0  0
   27.0658  -19.4053  -15.2883 C   0  0  0  0  0  0  0  0  0  0  0  0
   27.7287  -20.0509  -14.1219 C   0  0  1  0  0  0  0  0  0  0  0  0
   27.0896  -19.7505  -12.8222 C   0  0  0  0  0  0  0  0  0  0  0  0
   27.0173  -18.5381  -12.4901 O   0  0  0  0  0  0  0  0  0  0  0  0
   26.5672  -20.7163  -11.9501 N   0  0  0  0  0  0  0  0  0  0  0  0
   25.8228  -20.4106  -10.7476 C   0  0  1  0  0  0  0  0  0  0  0  0
   24.5782  -21.2260  -10.6130 C   0  0  0  0  0  0  0  0  0  0  0  0
   23.5125  -20.8494  -11.5415 C   0  0  0  0  0  0  0  0  0  0  0  0
   22.4703  -20.0003  -11.2477 C   0  0  0  0  0  0  0  0  0  0  0  0
   21.7018  -19.9051  -12.3581 N   0  0  0  0  0  0  0  0  0  0  0  0
   22.2295  -20.6602  -13.3199 C   0  0  0  0  0  0  0  0  0  0  0  0
   23.3289  -21.2286  -12.8118 N   0  0  0  0  0  0  0  0  0  0  0  0
   26.6597  -20.6864   -9.5248 C   0  0  0  0  0  0  0  0  0  0  0  0
   27.3166  -21.7585   -9.4059 O   0  0  0  0  0  0  0  0  0  0  0  0
   26.7385  -19.7487   -8.4624 N   0  0  0  0  0  0  0  0  0  0  0  0
   27.5429  -19.9898   -7.2616 C   0  0  1  0  0  0  0  0  0  0  0  0
   27.8849  -18.6405   -6.6791 C   0  0  0  0  0  0  0  0  0  0  0  0
   28.7777  -18.7543   -5.1320 S   0  0  0  0  0  0  0  0  0  0  0  0
   26.7370  -20.7250   -6.2436 C   0  0  0  0  0  0  0  0  0  0  0  0
   27.3395  -21.3081   -5.1479 O   0  0  0  0  0  0  0  0  0  0  0  0
   25.4963  -20.8344   -6.3524 O   0  0  0  0  0  0  0  0  0  0  0  0
  1  5  1  0
  1  2  1  0
  2  3  1  0
  4  3  1  0
  5  4  1  0
  5  6  1  1
  6  8  1  0
  7  6  2  0
  9  8  1  0
  9 10  1  1
 10 11  1  0
 11 15  1  0
 11 12  2  0
 12 13  1  0
 14 13  1  0
 15 14  2  0
 16  9  1  0
 17 16  2  0
 18 16  1  0
 19 22  1  0
 19 18  1  0
 19 20  1  1
 21 20  1  0
 22 23  1  0
 24 22  2  0
M  END
$$$$
