PHC.pdb
     RDKit          3D

 24 25  0  0  1  0  0  0  0  0999 V2000
   22.1743  -11.7651  -16.1804 N   0  0  0  0  0  0  0  0  0  0  0  0
   23.3279  -12.4664  -16.6723 C   0  0  0  0  0  0  0  0  0  0  0  0
   24.5175  -11.9926  -15.8785 C   0  0  0  0  0  0  0  0  0  0  0  0
   24.0009  -10.6470  -15.3510 C   0  0  0  0  0  0  0  0  0  0  0  0
   22.5736  -10.9608  -15.0664 C   0  0  1  0  0  0  0  0  0  0  0  0
   21.7196   -9.7679  -14.8773 C   0  0  0  0  0  0  0  0  0  0  0  0
   21.1397   -9.3151  -15.8992 O   0  0  0  0  0  0  0  0  0  0  0  0
   21.5185   -9.1196  -13.6504 N   0  0  0  0  0  0  0  0  0  0  0  0
   20.6728   -7.9592  -13.4711 C   0  0  1  0  0  0  0  0  0  0  0  0
   20.0780   -7.8810  -12.1029 C   0  0  0  0  0  0  0  0  0  0  0  0
   18.8905   -8.7150  -11.9179 C   0  0  0  0  0  0  0  0  0  0  0  0
   18.3388   -9.5308  -12.8789 C   0  0  0  0  0  0  0  0  0  0  0  0
   17.2590  -10.1320  -12.3266 N   0  0  0  0  0  0  0  0  0  0  0  0
   17.1259   -9.7187  -11.0675 C   0  0  0  0  0  0  0  0  0  0  0  0
   18.1228   -8.8583  -10.8310 N   0  0  0  0  0  0  0  0  0  0  0  0
   21.4642   -6.6931  -13.6760 C   0  0  0  0  0  0  0  0  0  0  0  0
   22.5541   -6.4936  -13.0699 O   0  0  0  0  0  0  0  0  0  0  0  0
   21.0109   -5.6788  -14.5592 N   0  0  0  0  0  0  0  0  0  0  0  0
   21.7829   -4.4602  -14.8163 C   0  0  1  0  0  0  0  0  0  0  0  0
   21.9368   -4.3405  -16.3126 C   0  0  0  0  0  0  0  0  0  0  0  0
   22.7666   -2.8349  -16.8106 S   0  0  0  0  0  0  0  0  0  0  0  0
   21.0240   -3.2640  -14.3478 C   0  0  0  0  0  0  0  0  0  0  0  0
   21.6792   -2.1681  -13.8251 O   0  0  0  0  0  0  0  0  0  0  0  0
   19.7763   -3.2189  -14.4145 O   0  0  0  0  0  0  0  0  0  0  0  0
  1  5  1  0
  1  2  1  0
  2  3  1  0
  4  3  1  0
  5  4  1  0
  5  6  1  6
  6  8  1  0
  7  6  2  0
  9  8  1  0
  9 10  1  1
 10 11  1  0
 11 15  1  0
 11 12  2  0
 12 13  1  0
 14 13  1  0
 15 14  2  0
 16  9  1  0
 17 16  2  0
 18 16  1  0
 19 22  1  0
 19 18  1  0
 19 20  1  6
 21 20  1  0
 22 23  1  0
 24 22  2  0
M  END
$$$$
