PHC.pdb
     RDKit          3D

 24 25  0  0  1  0  0  0  0  0999 V2000
   27.7112  -21.0075  -15.7969 N   0  0  0  0  0  0  0  0  0  0  0  0
   28.0644  -20.8689  -17.1827 C   0  0  0  0  0  0  0  0  0  0  0  0
   28.2922  -19.4033  -17.4469 C   0  0  0  0  0  0  0  0  0  0  0  0
   27.5155  -18.7716  -16.2834 C   0  0  0  0  0  0  0  0  0  0  0  0
   27.8040  -19.7224  -15.1746 C   0  0  1  0  0  0  0  0  0  0  0  0
   26.9073  -19.5778  -14.0071 C   0  0  0  0  0  0  0  0  0  0  0  0
   26.8907  -18.4549  -13.4377 O   0  0  0  0  0  0  0  0  0  0  0  0
   26.0873  -20.5971  -13.5024 N   0  0  0  0  0  0  0  0  0  0  0  0
   25.1493  -20.4243  -12.4143 C   0  0  1  0  0  0  0  0  0  0  0  0
   23.8081  -21.0144  -12.7057 C   0  0  0  0  0  0  0  0  0  0  0  0
   23.0891  -20.3567  -13.7967 C   0  0  0  0  0  0  0  0  0  0  0  0
   23.2958  -19.0617  -14.2134 C   0  0  0  0  0  0  0  0  0  0  0  0
   22.4436  -18.8266  -15.2386 N   0  0  0  0  0  0  0  0  0  0  0  0
   21.7234  -19.9232  -15.4675 C   0  0  0  0  0  0  0  0  0  0  0  0
   22.1246  -20.8456  -14.5854 N   0  0  0  0  0  0  0  0  0  0  0  0
   25.6600  -21.0968  -11.1659 C   0  0  0  0  0  0  0  0  0  0  0  0
   25.8578  -22.3435  -11.1246 O   0  0  0  0  0  0  0  0  0  0  0  0
   25.9371  -20.3506   -9.9909 N   0  0  0  0  0  0  0  0  0  0  0  0
   26.2009  -20.9904   -8.6994 C   0  0  1  0  0  0  0  0  0  0  0  0
   27.0146  -20.0181   -7.8813 C   0  0  0  0  0  0  0  0  0  0  0  0
   26.3269  -18.3657   -7.8739 S   0  0  0  0  0  0  0  0  0  0  0  0
   24.9195  -21.2242   -7.9717 C   0  0  0  0  0  0  0  0  0  0  0  0
   23.7139  -20.8268   -8.5122 O   0  0  0  0  0  0  0  0  0  0  0  0
   24.8996  -21.7852   -6.8545 O   0  0  0  0  0  0  0  0  0  0  0  0
  1  5  1  0
  1  2  1  0
  2  3  1  0
  4  3  1  0
  5  4  1  0
  5  6  1  1
  6  8  1  0
  7  6  2  0
  9  8  1  0
  9 10  1  6
 10 11  1  0
 11 15  1  0
 11 12  2  0
 12 13  1  0
 14 13  1  0
 15 14  2  0
 16  9  1  0
 17 16  2  0
 18 16  1  0
 19 22  1  0
 19 18  1  0
 19 20  1  1
 21 20  1  0
 22 23  1  0
 24 22  2  0
M  END
$$$$
