PHC.pdb
     RDKit          3D

 24 25  0  0  1  0  0  0  0  0999 V2000
   18.9826  -13.7968    4.8577 N   0  0  0  0  0  0  0  0  0  0  0  0
   18.7229  -13.0480    3.6592 C   0  0  0  0  0  0  0  0  0  0  0  0
   17.2557  -13.1882    3.3474 C   0  0  0  0  0  0  0  0  0  0  0  0
   16.9116  -14.4664    4.1245 C   0  0  0  0  0  0  0  0  0  0  0  0
   17.7404  -14.3076    5.3512 C   0  0  1  0  0  0  0  0  0  0  0  0
   17.8967  -15.5500    6.1388 C   0  0  0  0  0  0  0  0  0  0  0  0
   16.9746  -15.8301    6.9491 O   0  0  0  0  0  0  0  0  0  0  0  0
   18.9905  -16.4218    6.0410 N   0  0  0  0  0  0  0  0  0  0  0  0
   19.1417  -17.6299    6.8229 C   0  0  1  0  0  0  0  0  0  0  0  0
   19.1598  -18.8656    5.9833 C   0  0  0  0  0  0  0  0  0  0  0  0
   17.8825  -19.1700    5.3387 C   0  0  0  0  0  0  0  0  0  0  0  0
   16.6703  -18.6181    5.6843 C   0  0  0  0  0  0  0  0  0  0  0  0
   15.7357  -19.1493    4.8615 N   0  0  0  0  0  0  0  0  0  0  0  0
   16.3244  -20.0034    4.0263 C   0  0  0  0  0  0  0  0  0  0  0  0
   17.6283  -20.0073    4.3260 N   0  0  0  0  0  0  0  0  0  0  0  0
   20.4396  -17.6036    7.5886 C   0  0  0  0  0  0  0  0  0  0  0  0
   21.5395  -17.8695    7.0277 O   0  0  0  0  0  0  0  0  0  0  0  0
   20.4706  -17.2783    8.9698 N   0  0  0  0  0  0  0  0  0  0  0  0
   21.7195  -17.2192    9.7337 C   0  0  1  0  0  0  0  0  0  0  0  0
   21.9385  -15.7754   10.1139 C   0  0  0  0  0  0  0  0  0  0  0  0
   22.5309  -14.7772    8.7515 S   0  0  0  0  0  0  0  0  0  0  0  0
   21.5843  -17.9990   10.9986 C   0  0  0  0  0  0  0  0  0  0  0  0
   22.6681  -18.1979   11.8288 O   0  0  0  0  0  0  0  0  0  0  0  0
   20.4889  -18.4938   11.3430 O   0  0  0  0  0  0  0  0  0  0  0  0
  1  5  1  0
  1  2  1  0
  2  3  1  0
  4  3  1  0
  5  4  1  0
  5  6  1  6
  6  8  1  0
  7  6  2  0
  9  8  1  0
  9 10  1  6
 10 11  1  0
 11 15  1  0
 11 12  2  0
 12 13  1  0
 14 13  1  0
 15 14  2  0
 16  9  1  0
 17 16  2  0
 18 16  1  0
 19 22  1  0
 19 18  1  0
 19 20  1  1
 21 20  1  0
 22 23  1  0
 24 22  2  0
M  END
$$$$
