PHC.pdb
     RDKit          3D

 24 25  0  0  1  0  0  0  0  0999 V2000
   27.7462  -21.6931  -15.6573 N   0  0  0  0  0  0  0  0  0  0  0  0
   28.0008  -21.8381  -17.0639 C   0  0  0  0  0  0  0  0  0  0  0  0
   28.0306  -20.4561  -17.6629 C   0  0  0  0  0  0  0  0  0  0  0  0
   27.2488  -19.6621  -16.6072 C   0  0  0  0  0  0  0  0  0  0  0  0
   27.7147  -20.2973  -15.3438 C   0  0  1  0  0  0  0  0  0  0  0  0
   26.8744  -19.9866  -14.1667 C   0  0  0  0  0  0  0  0  0  0  0  0
   26.6184  -18.7722  -13.9547 O   0  0  0  0  0  0  0  0  0  0  0  0
   26.3532  -20.9450  -13.2858 N   0  0  0  0  0  0  0  0  0  0  0  0
   25.4352  -20.6467  -12.2078 C   0  0  1  0  0  0  0  0  0  0  0  0
   24.1730  -21.4423  -12.2842 C   0  0  0  0  0  0  0  0  0  0  0  0
   23.2795  -21.0443  -13.3719 C   0  0  0  0  0  0  0  0  0  0  0  0
   22.2571  -20.1300  -13.2618 C   0  0  0  0  0  0  0  0  0  0  0  0
   21.6673  -20.0357  -14.4766 N   0  0  0  0  0  0  0  0  0  0  0  0
   22.2856  -20.8538  -15.3264 C   0  0  0  0  0  0  0  0  0  0  0  0
   23.2630  -21.4609  -14.6437 N   0  0  0  0  0  0  0  0  0  0  0  0
   26.0673  -20.9579  -10.8755 C   0  0  0  0  0  0  0  0  0  0  0  0
   26.4665  -22.1224  -10.5931 O   0  0  0  0  0  0  0  0  0  0  0  0
   26.2362  -19.9508   -9.8898 N   0  0  0  0  0  0  0  0  0  0  0  0
   26.4969  -20.2662   -8.4829 C   0  0  1  0  0  0  0  0  0  0  0  0
   26.9842  -18.9974   -7.8273 C   0  0  0  0  0  0  0  0  0  0  0  0
   27.2689  -19.1847   -6.0702 S   0  0  0  0  0  0  0  0  0  0  0  0
   25.2293  -20.6625   -7.8028 C   0  0  0  0  0  0  0  0  0  0  0  0
   24.0093  -20.1986   -8.2499 O   0  0  0  0  0  0  0  0  0  0  0  0
   25.2345  -21.4240   -6.8113 O   0  0  0  0  0  0  0  0  0  0  0  0
  1  5  1  0
  1  2  1  0
  2  3  1  0
  4  3  1  0
  5  4  1  0
  5  6  1  1
  6  8  1  0
  7  6  2  0
  9  8  1  0
  9 10  1  6
 10 11  1  0
 11 15  1  0
 11 12  2  0
 12 13  1  0
 14 13  1  0
 15 14  2  0
 16  9  1  0
 17 16  2  0
 18 16  1  0
 19 22  1  0
 19 18  1  0
 19 20  1  1
 21 20  1  0
 22 23  1  0
 24 22  2  0
M  END
$$$$
