PHC.pdb
     RDKit          3D

 24 25  0  0  1  0  0  0  0  0999 V2000
   27.9091  -18.9980  -15.4452 N   0  0  0  0  0  0  0  0  0  0  0  0
   28.0271  -18.4103  -16.7510 C   0  0  0  0  0  0  0  0  0  0  0  0
   27.0892  -17.2324  -16.8031 C   0  0  0  0  0  0  0  0  0  0  0  0
   26.1132  -17.5845  -15.6720 C   0  0  0  0  0  0  0  0  0  0  0  0
   27.0249  -18.1899  -14.6625 C   0  0  1  0  0  0  0  0  0  0  0  0
   26.3300  -18.9515  -13.6018 C   0  0  0  0  0  0  0  0  0  0  0  0
   25.4521  -18.3363  -12.9413 O   0  0  0  0  0  0  0  0  0  0  0  0
   26.5837  -20.2950  -13.2905 N   0  0  0  0  0  0  0  0  0  0  0  0
   25.9255  -21.0232  -12.2274 C   0  0  1  0  0  0  0  0  0  0  0  0
   25.9096  -22.4991  -12.4590 C   0  0  0  0  0  0  0  0  0  0  0  0
   25.0367  -22.9239  -13.5533 C   0  0  0  0  0  0  0  0  0  0  0  0
   24.2601  -22.0838  -14.3179 C   0  0  0  0  0  0  0  0  0  0  0  0
   23.6025  -22.8507  -15.2190 N   0  0  0  0  0  0  0  0  0  0  0  0
   23.9436  -24.1253  -15.0386 C   0  0  0  0  0  0  0  0  0  0  0  0
   24.8153  -24.1570  -14.0241 N   0  0  0  0  0  0  0  0  0  0  0  0
   26.6318  -20.7948  -10.9158 C   0  0  0  0  0  0  0  0  0  0  0  0
   27.8860  -20.9052  -10.8165 O   0  0  0  0  0  0  0  0  0  0  0  0
   25.9102  -20.4471   -9.7442 N   0  0  0  0  0  0  0  0  0  0  0  0
   26.5404  -20.3913   -8.4225 C   0  0  1  0  0  0  0  0  0  0  0  0
   26.7680  -18.9347   -8.1012 C   0  0  0  0  0  0  0  0  0  0  0  0
   27.4178  -18.6768   -6.4535 S   0  0  0  0  0  0  0  0  0  0  0  0
   25.6132  -20.9376   -7.3889 C   0  0  0  0  0  0  0  0  0  0  0  0
   24.3046  -21.2441   -7.7006 O   0  0  0  0  0  0  0  0  0  0  0  0
   25.9928  -21.1334   -6.2138 O   0  0  0  0  0  0  0  0  0  0  0  0
  1  5  1  0
  1  2  1  0
  2  3  1  0
  4  3  1  0
  5  4  1  0
  5  6  1  1
  6  8  1  0
  7  6  2  0
  9  8  1  0
  9 10  1  6
 10 11  1  0
 11 15  1  0
 11 12  2  0
 12 13  1  0
 14 13  1  0
 15 14  2  0
 16  9  1  0
 17 16  2  0
 18 16  1  0
 19 22  1  0
 19 18  1  0
 19 20  1  1
 21 20  1  0
 22 23  1  0
 24 22  2  0
M  END
$$$$
