PHC.pdb
     RDKit          3D

 24 25  0  0  1  0  0  0  0  0999 V2000
   15.2389  -12.1005  -14.7103 N   0  0  0  0  0  0  0  0  0  0  0  0
   14.0802  -12.9499  -14.6918 C   0  0  0  0  0  0  0  0  0  0  0  0
   14.4968  -14.2947  -15.2282 C   0  0  0  0  0  0  0  0  0  0  0  0
   15.7612  -13.9185  -16.0129 C   0  0  0  0  0  0  0  0  0  0  0  0
   16.3631  -12.8764  -15.1362 C   0  0  1  0  0  0  0  0  0  0  0  0
   17.4108  -12.0658  -15.7944 C   0  0  0  0  0  0  0  0  0  0  0  0
   18.4225  -12.6815  -16.2218 O   0  0  0  0  0  0  0  0  0  0  0  0
   17.3489  -10.6759  -15.9695 N   0  0  0  0  0  0  0  0  0  0  0  0
   18.3650   -9.8932  -16.6393 C   0  0  1  0  0  0  0  0  0  0  0  0
   17.8442   -9.1725  -17.8398 C   0  0  0  0  0  0  0  0  0  0  0  0
   17.4804  -10.0490  -18.9530 C   0  0  0  0  0  0  0  0  0  0  0  0
   18.3738  -10.7012  -19.7715 C   0  0  0  0  0  0  0  0  0  0  0  0
   17.6532  -11.4084  -20.6732 N   0  0  0  0  0  0  0  0  0  0  0  0
   16.3557  -11.2169  -20.4416 C   0  0  0  0  0  0  0  0  0  0  0  0
   16.2636  -10.3894  -19.3943 N   0  0  0  0  0  0  0  0  0  0  0  0
   18.9223   -8.8461  -15.7094 C   0  0  0  0  0  0  0  0  0  0  0  0
   18.1742   -8.1983  -14.9248 O   0  0  0  0  0  0  0  0  0  0  0  0
   20.3104   -8.5513  -15.6835 N   0  0  0  0  0  0  0  0  0  0  0  0
   20.9056   -7.6664  -14.6786 C   0  0  1  0  0  0  0  0  0  0  0  0
   22.3777   -7.9921  -14.6176 C   0  0  0  0  0  0  0  0  0  0  0  0
   22.7050   -9.6206  -13.9510 S   0  0  0  0  0  0  0  0  0  0  0  0
   20.7800   -6.2434  -15.1096 C   0  0  0  0  0  0  0  0  0  0  0  0
   20.3192   -5.9218  -16.3696 O   0  0  0  0  0  0  0  0  0  0  0  0
   21.0873   -5.3033  -14.3448 O   0  0  0  0  0  0  0  0  0  0  0  0
  1  5  1  0
  1  2  1  0
  2  3  1  0
  4  3  1  0
  5  4  1  0
  5  6  1  6
  6  8  1  0
  7  6  2  0
  9  8  1  0
  9 10  1  6
 10 11  1  0
 11 15  1  0
 11 12  2  0
 12 13  1  0
 14 13  1  0
 15 14  2  0
 16  9  1  0
 17 16  2  0
 18 16  1  0
 19 22  1  0
 19 18  1  0
 19 20  1  6
 21 20  1  0
 22 23  1  0
 24 22  2  0
M  END
$$$$
