PHC.pdb
     RDKit          3D

 24 25  0  0  1  0  0  0  0  0999 V2000
   20.1890  -14.4336  -17.1024 N   0  0  0  0  0  0  0  0  0  0  0  0
   20.0670  -15.7779  -17.5949 C   0  0  0  0  0  0  0  0  0  0  0  0
   20.8641  -15.8664  -18.8702 C   0  0  0  0  0  0  0  0  0  0  0  0
   20.9378  -14.3871  -19.2731 C   0  0  0  0  0  0  0  0  0  0  0  0
   21.0936  -13.7202  -17.9510 C   0  0  1  0  0  0  0  0  0  0  0  0
   20.8380  -12.2635  -17.9761 C   0  0  0  0  0  0  0  0  0  0  0  0
   21.6131  -11.5615  -18.6773 O   0  0  0  0  0  0  0  0  0  0  0  0
   19.8024  -11.6252  -17.2787 N   0  0  0  0  0  0  0  0  0  0  0  0
   19.4391  -10.2354  -17.4523 C   0  0  1  0  0  0  0  0  0  0  0  0
   18.0285  -10.0577  -17.9112 C   0  0  0  0  0  0  0  0  0  0  0  0
   17.7895  -10.4834  -19.2901 C   0  0  0  0  0  0  0  0  0  0  0  0
   18.2559   -9.8352  -20.4106 C   0  0  0  0  0  0  0  0  0  0  0  0
   17.8266  -10.5326  -21.4885 N   0  0  0  0  0  0  0  0  0  0  0  0
   17.1168  -11.5810  -21.0754 C   0  0  0  0  0  0  0  0  0  0  0  0
   17.1014  -11.5403  -19.7382 N   0  0  0  0  0  0  0  0  0  0  0  0
   19.5717   -9.4890  -16.1497 C   0  0  0  0  0  0  0  0  0  0  0  0
   18.8901   -9.8095  -15.1359 O   0  0  0  0  0  0  0  0  0  0  0  0
   20.4691   -8.3975  -16.0171 N   0  0  0  0  0  0  0  0  0  0  0  0
   20.6951   -7.7188  -14.7383 C   0  0  1  0  0  0  0  0  0  0  0  0
   22.1861   -7.6920  -14.5083 C   0  0  0  0  0  0  0  0  0  0  0  0
   22.8552   -9.2959  -14.0802 S   0  0  0  0  0  0  0  0  0  0  0  0
   20.2297   -6.3035  -14.8196 C   0  0  0  0  0  0  0  0  0  0  0  0
   19.9239   -5.7259  -16.0346 O   0  0  0  0  0  0  0  0  0  0  0  0
   20.1032   -5.6010  -13.7930 O   0  0  0  0  0  0  0  0  0  0  0  0
  1  5  1  0
  1  2  1  0
  2  3  1  0
  4  3  1  0
  5  4  1  0
  5  6  1  6
  6  8  1  0
  7  6  2  0
  9  8  1  0
  9 10  1  1
 10 11  1  0
 11 15  1  0
 11 12  2  0
 12 13  1  0
 14 13  1  0
 15 14  2  0
 16  9  1  0
 17 16  2  0
 18 16  1  0
 19 22  1  0
 19 18  1  0
 19 20  1  6
 21 20  1  0
 22 23  1  0
 24 22  2  0
M  END
$$$$
