NVQ.pdb
     RDKit          3D

 25 24  0  0  1  0  0  0  0  0999 V2000
   29.2223  -23.3446  -18.1100 N   0  0  0  0  0  0  0  0  0  0  0  0
   28.4835  -23.6799  -16.9492 C   0  0  0  0  0  0  0  0  0  0  0  0
   28.4457  -24.8738  -16.5682 O   0  0  0  0  0  0  0  0  0  0  0  0
   27.7838  -22.6158  -16.2273 C   0  0  0  0  0  0  0  0  0  0  0  0
   27.9635  -21.2548  -16.8729 C   0  0  2  0  0  0  0  0  0  0  0  0
   29.3473  -20.8293  -16.8085 N   0  0  0  0  0  0  0  0  0  0  0  0
   27.0773  -20.3200  -16.1282 C   0  0  0  0  0  0  0  0  0  0  0  0
   27.1671  -20.3077  -14.8744 O   0  0  0  0  0  0  0  0  0  0  0  0
   25.5076  -17.2513  -18.1769 C   0  0  0  0  0  0  0  0  0  0  0  0
   25.6379  -17.1601  -16.7033 C   0  0  1  0  0  0  0  0  0  0  0  0
   24.8234  -16.0302  -16.1126 C   0  0  0  0  0  0  0  0  0  0  0  0
   25.3343  -18.4772  -16.0222 C   0  0  2  0  0  0  0  0  0  0  0  0
   26.1537  -19.4577  -16.7434 N   0  0  0  0  0  0  0  0  0  0  0  0
   23.9080  -18.8595  -16.0904 C   0  0  0  0  0  0  0  0  0  0  0  0
   23.3672  -19.2280  -17.1903 O   0  0  0  0  0  0  0  0  0  0  0  0
   19.9796  -20.0128  -11.2015 N   0  0  0  0  0  0  0  0  0  0  0  0
   19.1577  -20.2629  -12.3577 C   0  0  0  0  0  0  0  0  0  0  0  0
   17.9822  -20.6729  -12.1995 O   0  0  0  0  0  0  0  0  0  0  0  0
   19.6724  -20.0459  -13.7297 C   0  0  0  0  0  0  0  0  0  0  0  0
   21.0833  -19.5292  -13.6675 C   0  0  0  0  0  0  0  0  0  0  0  0
   21.6706  -19.3418  -15.0604 C   0  0  2  0  0  0  0  0  0  0  0  0
   23.0447  -18.8541  -14.9741 N   0  0  0  0  0  0  0  0  0  0  0  0
   20.8294  -18.3918  -15.8339 C   0  0  0  0  0  0  0  0  0  0  0  0
   19.8448  -18.7400  -16.5274 O   0  0  0  0  0  0  0  0  0  0  0  0
   21.1297  -17.0284  -15.8049 O   0  0  0  0  0  0  0  0  0  0  0  0
  2  4  1  0
  2  1  1  0
  3  2  2  0
  5  6  1  1
  5  7  1  0
  5  4  1  0
  7  8  2  0
 10  9  1  6
 10 12  1  0
 11 10  1  0
 12 14  1  0
 12 13  1  6
 13  7  1  0
 14 22  1  0
 14 15  2  0
 16 17  1  0
 17 18  2  0
 19 17  1  0
 19 20  1  0
 21 20  1  1
 21 23  1  0
 22 21  1  0
 23 24  2  0
 23 25  1  0
M  END
$$$$
