NVQ.pdb
     RDKit          3D

 25 24  0  0  1  0  0  0  0  0999 V2000
   16.7097  -13.6067  -16.8380 N   0  0  0  0  0  0  0  0  0  0  0  0
   17.1094  -13.6820  -15.4814 C   0  0  0  0  0  0  0  0  0  0  0  0
   16.7004  -14.6313  -14.7718 O   0  0  0  0  0  0  0  0  0  0  0  0
   17.9921  -12.6430  -14.9481 C   0  0  0  0  0  0  0  0  0  0  0  0
   18.4116  -11.6345  -16.0010 C   0  0  2  0  0  0  0  0  0  0  0  0
   19.3817  -12.2091  -16.9114 N   0  0  0  0  0  0  0  0  0  0  0  0
   18.9847  -10.4763  -15.2637 C   0  0  0  0  0  0  0  0  0  0  0  0
   18.4013  -10.1094  -14.2124 O   0  0  0  0  0  0  0  0  0  0  0  0
   22.4730  -10.1324  -14.3999 C   0  0  0  0  0  0  0  0  0  0  0  0
   22.1363   -8.7892  -14.9284 C   0  0  1  0  0  0  0  0  0  0  0  0
   22.8158   -8.4920  -16.2471 C   0  0  0  0  0  0  0  0  0  0  0  0
   20.6413   -8.5688  -15.0132 C   0  0  2  0  0  0  0  0  0  0  0  0
   20.1320   -9.7759  -15.6740 N   0  0  0  0  0  0  0  0  0  0  0  0
   20.2669   -7.3685  -15.7904 C   0  0  0  0  0  0  0  0  0  0  0  0
   20.3297   -7.3541  -17.0687 O   0  0  0  0  0  0  0  0  0  0  0  0
   16.2274   -2.9819  -14.1387 N   0  0  0  0  0  0  0  0  0  0  0  0
   15.9642   -4.2239  -14.8191 C   0  0  0  0  0  0  0  0  0  0  0  0
   14.7989   -4.6900  -14.8195 O   0  0  0  0  0  0  0  0  0  0  0  0
   17.0415   -4.9620  -15.5185 C   0  0  0  0  0  0  0  0  0  0  0  0
   18.3408   -4.2177  -15.3793 C   0  0  0  0  0  0  0  0  0  0  0  0
   19.4956   -4.9897  -16.0043 C   0  0  2  0  0  0  0  0  0  0  0  0
   19.8160   -6.1676  -15.2022 N   0  0  0  0  0  0  0  0  0  0  0  0
   20.6826   -4.1036  -16.1239 C   0  0  0  0  0  0  0  0  0  0  0  0
   21.7077   -4.2141  -15.4108 O   0  0  0  0  0  0  0  0  0  0  0  0
   20.6837   -3.0821  -17.0758 O   0  0  0  0  0  0  0  0  0  0  0  0
  2  4  1  0
  2  1  1  0
  3  2  2  0
  5  6  1  6
  5  7  1  0
  5  4  1  0
  7  8  2  0
 10  9  1  6
 10 12  1  0
 11 10  1  0
 12 14  1  0
 12 13  1  6
 13  7  1  0
 14 22  1  0
 14 15  2  0
 16 17  1  0
 17 18  2  0
 19 17  1  0
 19 20  1  0
 21 20  1  1
 21 23  1  0
 22 21  1  0
 23 24  2  0
 23 25  1  0
M  END
$$$$
