NVQ.pdb
     RDKit          3D

 25 24  0  0  1  0  0  0  0  0999 V2000
   26.6362  -14.1732  -15.2967 N   0  0  0  0  0  0  0  0  0  0  0  0
   26.8072  -12.7968  -15.5833 C   0  0  0  0  0  0  0  0  0  0  0  0
   27.9294  -12.2667  -15.4057 O   0  0  0  0  0  0  0  0  0  0  0  0
   25.6616  -12.0328  -16.0805 C   0  0  0  0  0  0  0  0  0  0  0  0
   24.3790  -12.8430  -16.0931 C   0  0  2  0  0  0  0  0  0  0  0  0
   24.5004  -13.9918  -16.9681 N   0  0  0  0  0  0  0  0  0  0  0  0
   23.3085  -11.9212  -16.5597 C   0  0  0  0  0  0  0  0  0  0  0  0
   23.1990  -11.7361  -17.7983 O   0  0  0  0  0  0  0  0  0  0  0  0
   19.8635  -12.4488  -16.2544 C   0  0  0  0  0  0  0  0  0  0  0  0
   20.0703  -11.1251  -15.6202 C   0  0  1  0  0  0  0  0  0  0  0  0
   20.0876  -11.1965  -14.1091 C   0  0  0  0  0  0  0  0  0  0  0  0
   21.2992  -10.4227  -16.1561 C   0  0  2  0  0  0  0  0  0  0  0  0
   22.4206  -11.2518  -15.7001 N   0  0  0  0  0  0  0  0  0  0  0  0
   21.4527   -9.0409  -15.6539 C   0  0  0  0  0  0  0  0  0  0  0  0
   21.9550   -8.8011  -14.5014 O   0  0  0  0  0  0  0  0  0  0  0  0
   20.4290   -3.5488  -18.7679 N   0  0  0  0  0  0  0  0  0  0  0  0
   20.6129   -3.1351  -17.4006 C   0  0  0  0  0  0  0  0  0  0  0  0
   20.4999   -1.9207  -17.1049 O   0  0  0  0  0  0  0  0  0  0  0  0
   20.9327   -4.1146  -16.3362 C   0  0  0  0  0  0  0  0  0  0  0  0
   20.9238   -5.5060  -16.9065 C   0  0  0  0  0  0  0  0  0  0  0  0
   21.1806   -6.5520  -15.8294 C   0  0  2  0  0  0  0  0  0  0  0  0
   21.0707   -7.8974  -16.3874 N   0  0  0  0  0  0  0  0  0  0  0  0
   20.2136   -6.3705  -14.7157 C   0  0  0  0  0  0  0  0  0  0  0  0
   20.4661   -5.7198  -13.6744 O   0  0  0  0  0  0  0  0  0  0  0  0
   18.9449   -6.9463  -14.8074 O   0  0  0  0  0  0  0  0  0  0  0  0
  2  4  1  0
  2  1  1  0
  3  2  2  0
  5  6  1  6
  5  7  1  0
  5  4  1  0
  7  8  2  0
 10  9  1  6
 10 12  1  0
 11 10  1  0
 12 14  1  0
 12 13  1  1
 13  7  1  0
 14 22  1  0
 14 15  2  0
 16 17  1  0
 17 18  2  0
 19 17  1  0
 19 20  1  0
 21 20  1  6
 21 23  1  0
 22 21  1  0
 23 24  2  0
 23 25  1  0
M  END
$$$$
