NVQ.pdb
     RDKit          3D

 25 24  0  0  1  0  0  0  0  0999 V2000
   22.3754  -14.8992  -20.5588 N   0  0  0  0  0  0  0  0  0  0  0  0
   21.5381  -13.7773  -20.3440 C   0  0  0  0  0  0  0  0  0  0  0  0
   20.6855  -13.4717  -21.2109 O   0  0  0  0  0  0  0  0  0  0  0  0
   21.6960  -13.0061  -19.1097 C   0  0  0  0  0  0  0  0  0  0  0  0
   22.7807  -13.5626  -18.2068 C   0  0  2  0  0  0  0  0  0  0  0  0
   22.3815  -14.8358  -17.6413 N   0  0  0  0  0  0  0  0  0  0  0  0
   22.9998  -12.5457  -17.1431 C   0  0  0  0  0  0  0  0  0  0  0  0
   22.1572  -12.4867  -16.2121 O   0  0  0  0  0  0  0  0  0  0  0  0
   26.4052  -10.2595  -17.3536 C   0  0  0  0  0  0  0  0  0  0  0  0
   25.8191  -10.5059  -16.0148 C   0  0  1  0  0  0  0  0  0  0  0  0
   26.2343   -9.4690  -14.9943 C   0  0  0  0  0  0  0  0  0  0  0  0
   24.3141  -10.6567  -16.0709 C   0  0  2  0  0  0  0  0  0  0  0  0
   24.0869  -11.6553  -17.1217 N   0  0  0  0  0  0  0  0  0  0  0  0
   23.6093   -9.4007  -16.4038 C   0  0  0  0  0  0  0  0  0  0  0  0
   23.6366   -8.9126  -17.5866 O   0  0  0  0  0  0  0  0  0  0  0  0
   19.0173   -7.8140  -17.7107 N   0  0  0  0  0  0  0  0  0  0  0  0
   19.0755   -6.5179  -17.0851 C   0  0  0  0  0  0  0  0  0  0  0  0
   18.3602   -5.5876  -17.5299 O   0  0  0  0  0  0  0  0  0  0  0  0
   19.9627   -6.2611  -15.9269 C   0  0  0  0  0  0  0  0  0  0  0  0
   20.6878   -7.5242  -15.5522 C   0  0  0  0  0  0  0  0  0  0  0  0
   22.1800   -7.4165  -15.8381 C   0  0  2  0  0  0  0  0  0  0  0  0
   22.8617   -8.6542  -15.4680 N   0  0  0  0  0  0  0  0  0  0  0  0
   22.7504   -6.2655  -15.0909 C   0  0  0  0  0  0  0  0  0  0  0  0
   23.2440   -6.3577  -13.9422 O   0  0  0  0  0  0  0  0  0  0  0  0
   22.7498   -4.9982  -15.6771 O   0  0  0  0  0  0  0  0  0  0  0  0
  2  4  1  0
  2  1  1  0
  3  2  2  0
  5  6  1  1
  5  7  1  0
  5  4  1  0
  7  8  2  0
 10  9  1  6
 10 12  1  0
 11 10  1  0
 12 14  1  0
 12 13  1  6
 13  7  1  0
 14 22  1  0
 14 15  2  0
 16 17  1  0
 17 18  2  0
 19 17  1  0
 19 20  1  0
 21 20  1  1
 21 23  1  0
 22 21  1  0
 23 24  2  0
 23 25  1  0
M  END
$$$$
