NVQ.pdb
     RDKit          3D

 25 24  0  0  1  0  0  0  0  0999 V2000
   14.6509  -25.3537   -4.2755 N   0  0  0  0  0  0  0  0  0  0  0  0
   15.3281  -24.1251   -4.4695 C   0  0  0  0  0  0  0  0  0  0  0  0
   14.8357  -23.0713   -4.0015 O   0  0  0  0  0  0  0  0  0  0  0  0
   16.5883  -24.1249   -5.2145 C   0  0  0  0  0  0  0  0  0  0  0  0
   17.0724  -25.5240   -5.5456 C   0  0  2  0  0  0  0  0  0  0  0  0
   17.6920  -26.1445   -4.3918 N   0  0  0  0  0  0  0  0  0  0  0  0
   18.0429  -25.3755   -6.6635 C   0  0  0  0  0  0  0  0  0  0  0  0
   19.2507  -25.1952   -6.3654 O   0  0  0  0  0  0  0  0  0  0  0  0
   18.8551  -27.8259   -9.0840 C   0  0  0  0  0  0  0  0  0  0  0  0
   18.4516  -26.6462   -9.8854 C   0  0  1  0  0  0  0  0  0  0  0  0
   17.0451  -26.7624  -10.4306 C   0  0  0  0  0  0  0  0  0  0  0  0
   18.6476  -25.3499   -9.1291 C   0  0  2  0  0  0  0  0  0  0  0  0
   17.6872  -25.4251   -8.0223 N   0  0  0  0  0  0  0  0  0  0  0  0
   18.3861  -24.1466   -9.9469 C   0  0  0  0  0  0  0  0  0  0  0  0
   17.2436  -23.5700   -9.9405 O   0  0  0  0  0  0  0  0  0  0  0  0
   22.4008  -21.1295  -13.9236 N   0  0  0  0  0  0  0  0  0  0  0  0
   21.1429  -20.4584  -14.1286 C   0  0  0  0  0  0  0  0  0  0  0  0
   21.0623  -19.5539  -14.9949 O   0  0  0  0  0  0  0  0  0  0  0  0
   19.9423  -20.8145  -13.3372 C   0  0  0  0  0  0  0  0  0  0  0  0
   20.2534  -21.9786  -12.4375 C   0  0  0  0  0  0  0  0  0  0  0  0
   19.0162  -22.4458  -11.6818 C   0  0  2  0  0  0  0  0  0  0  0  0
   19.3529  -23.5448  -10.7804 N   0  0  0  0  0  0  0  0  0  0  0  0
   17.9697  -22.8683  -12.6486 C   0  0  0  0  0  0  0  0  0  0  0  0
   17.9390  -23.9982  -13.1907 O   0  0  0  0  0  0  0  0  0  0  0  0
   16.9509  -21.9769  -12.9908 O   0  0  0  0  0  0  0  0  0  0  0  0
  2  4  1  0
  2  1  1  0
  3  2  2  0
  5  6  1  1
  5  7  1  0
  5  4  1  0
  7  8  2  0
 10  9  1  1
 10 12  1  0
 11 10  1  0
 12 14  1  0
 12 13  1  1
 13  7  1  0
 14 22  1  0
 14 15  2  0
 16 17  1  0
 17 18  2  0
 19 17  1  0
 19 20  1  0
 21 20  1  6
 21 23  1  0
 22 21  1  0
 23 24  2  0
 23 25  1  0
M  END
$$$$
