NVQ.pdb
     RDKit          3D

 25 24  0  0  1  0  0  0  0  0999 V2000
   23.1640  -21.7723   -7.8582 N   0  0  0  0  0  0  0  0  0  0  0  0
   22.4129  -21.4954   -9.0265 C   0  0  0  0  0  0  0  0  0  0  0  0
   21.1895  -21.7686   -9.0499 O   0  0  0  0  0  0  0  0  0  0  0  0
   23.0930  -20.8958  -10.1759 C   0  0  0  0  0  0  0  0  0  0  0  0
   24.5937  -20.7924   -9.9793 C   0  0  2  0  0  0  0  0  0  0  0  0
   24.9082  -20.0880   -8.7525 N   0  0  0  0  0  0  0  0  0  0  0  0
   25.1207  -20.0676  -11.1669 C   0  0  0  0  0  0  0  0  0  0  0  0
   24.6581  -18.9227  -11.4023 O   0  0  0  0  0  0  0  0  0  0  0  0
   28.0636  -21.8739  -13.5527 C   0  0  0  0  0  0  0  0  0  0  0  0
   28.0769  -20.4139  -13.2981 C   0  0  1  0  0  0  0  0  0  0  0  0
   28.8850  -19.6484  -14.3228 C   0  0  0  0  0  0  0  0  0  0  0  0
   26.6803  -19.8475  -13.1580 C   0  0  2  0  0  0  0  0  0  0  0  0
   26.0984  -20.5874  -12.0324 N   0  0  0  0  0  0  0  0  0  0  0  0
   25.8490  -20.0268  -14.3671 C   0  0  0  0  0  0  0  0  0  0  0  0
   25.3131  -21.1545  -14.6480 O   0  0  0  0  0  0  0  0  0  0  0  0
   20.7601  -17.7288  -15.6014 N   0  0  0  0  0  0  0  0  0  0  0  0
   21.0267  -18.2648  -16.9115 C   0  0  0  0  0  0  0  0  0  0  0  0
   20.1248  -18.2341  -17.7837 O   0  0  0  0  0  0  0  0  0  0  0  0
   22.3441  -18.8515  -17.2500 C   0  0  0  0  0  0  0  0  0  0  0  0
   23.2719  -18.7308  -16.0726 C   0  0  0  0  0  0  0  0  0  0  0  0
   24.6818  -19.1873  -16.4245 C   0  0  2  0  0  0  0  0  0  0  0  0
   25.5800  -18.9928  -15.2891 N   0  0  0  0  0  0  0  0  0  0  0  0
   25.1703  -18.4342  -17.6087 C   0  0  0  0  0  0  0  0  0  0  0  0
   25.8392  -17.3766  -17.5331 O   0  0  0  0  0  0  0  0  0  0  0  0
   24.8827  -18.9081  -18.8903 O   0  0  0  0  0  0  0  0  0  0  0  0
  2  4  1  0
  2  1  1  0
  3  2  2  0
  5  6  1  1
  5  7  1  0
  5  4  1  0
  7  8  2  0
 10  9  1  6
 10 12  1  0
 11 10  1  0
 12 14  1  0
 12 13  1  1
 13  7  1  0
 14 22  1  0
 14 15  2  0
 16 17  1  0
 17 18  2  0
 19 17  1  0
 19 20  1  0
 21 20  1  1
 21 23  1  0
 22 21  1  0
 23 24  2  0
 23 25  1  0
M  END
$$$$
