NVQ.pdb
     RDKit          3D

 25 24  0  0  1  0  0  0  0  0999 V2000
   29.1258  -23.7796  -18.6421 N   0  0  0  0  0  0  0  0  0  0  0  0
   29.1936  -23.8787  -17.2310 C   0  0  0  0  0  0  0  0  0  0  0  0
   29.7513  -24.8738  -16.7108 O   0  0  0  0  0  0  0  0  0  0  0  0
   28.6071  -22.8100  -16.4204 C   0  0  0  0  0  0  0  0  0  0  0  0
   28.0040  -21.7012  -17.2620 C   0  0  2  0  0  0  0  0  0  0  0  0
   29.0303  -20.9980  -18.0052 N   0  0  0  0  0  0  0  0  0  0  0  0
   27.3063  -20.7911  -16.3141 C   0  0  0  0  0  0  0  0  0  0  0  0
   28.0171  -20.0976  -15.5434 O   0  0  0  0  0  0  0  0  0  0  0  0
   24.2148  -19.3706  -17.5495 C   0  0  0  0  0  0  0  0  0  0  0  0
   24.4777  -18.7945  -16.2094 C   0  0  1  0  0  0  0  0  0  0  0  0
   23.2268  -18.2623  -15.5454 C   0  0  0  0  0  0  0  0  0  0  0  0
   25.2147  -19.7619  -15.3083 C   0  0  2  0  0  0  0  0  0  0  0  0
   25.9088  -20.6649  -16.2334 N   0  0  0  0  0  0  0  0  0  0  0  0
   24.3214  -20.5347  -14.4195 C   0  0  0  0  0  0  0  0  0  0  0  0
   23.4890  -21.3873  -14.8866 O   0  0  0  0  0  0  0  0  0  0  0  0
   25.5808  -19.6168   -9.2192 N   0  0  0  0  0  0  0  0  0  0  0  0
   26.0219  -20.9092   -9.6772 C   0  0  0  0  0  0  0  0  0  0  0  0
   27.1667  -21.3155   -9.3621 O   0  0  0  0  0  0  0  0  0  0  0  0
   25.1513  -21.7683  -10.5129 C   0  0  0  0  0  0  0  0  0  0  0  0
   23.8204  -21.0983  -10.7162 C   0  0  0  0  0  0  0  0  0  0  0  0
   23.3848  -21.1540  -12.1747 C   0  0  2  0  0  0  0  0  0  0  0  0
   24.3145  -20.4028  -13.0145 N   0  0  0  0  0  0  0  0  0  0  0  0
   22.0086  -20.6090  -12.3067 C   0  0  0  0  0  0  0  0  0  0  0  0
   21.7512  -19.4763  -12.7782 O   0  0  0  0  0  0  0  0  0  0  0  0
   20.9218  -21.3803  -11.8899 O   0  0  0  0  0  0  0  0  0  0  0  0
  2  4  1  0
  2  1  1  0
  3  2  2  0
  5  6  1  1
  5  7  1  0
  5  4  1  0
  7  8  2  0
 10  9  1  6
 10 12  1  0
 11 10  1  0
 12 14  1  0
 12 13  1  6
 13  7  1  0
 14 22  1  0
 14 15  2  0
 16 17  1  0
 17 18  2  0
 19 17  1  0
 19 20  1  0
 21 20  1  1
 21 23  1  0
 22 21  1  0
 23 24  2  0
 23 25  1  0
M  END
$$$$
