NVQ.pdb
     RDKit          3D

 25 24  0  0  1  0  0  0  0  0999 V2000
   22.3177  -16.0786  -18.7967 N   0  0  0  0  0  0  0  0  0  0  0  0
   23.5535  -16.3235  -18.1498 C   0  0  0  0  0  0  0  0  0  0  0  0
   24.4474  -15.4448  -18.1789 O   0  0  0  0  0  0  0  0  0  0  0  0
   23.7488  -17.6021  -17.4640 C   0  0  0  0  0  0  0  0  0  0  0  0
   25.0163  -18.3124  -17.9002 C   0  0  2  0  0  0  0  0  0  0  0  0
   24.8330  -18.9574  -19.1850 N   0  0  0  0  0  0  0  0  0  0  0  0
   25.3236  -19.3070  -16.8373 C   0  0  0  0  0  0  0  0  0  0  0  0
   24.6501  -20.3683  -16.8211 O   0  0  0  0  0  0  0  0  0  0  0  0
   28.7447  -20.6047  -15.9173 C   0  0  0  0  0  0  0  0  0  0  0  0
   28.1057  -20.1021  -14.6779 C   0  0  1  0  0  0  0  0  0  0  0  0
   28.6468  -18.7574  -14.2443 C   0  0  0  0  0  0  0  0  0  0  0  0
   26.5959  -20.0845  -14.7824 C   0  0  2  0  0  0  0  0  0  0  0  0
   26.3163  -19.1273  -15.8588 N   0  0  0  0  0  0  0  0  0  0  0  0
   25.9251  -19.6572  -13.5364 C   0  0  0  0  0  0  0  0  0  0  0  0
   25.5291  -18.4514  -13.3707 O   0  0  0  0  0  0  0  0  0  0  0  0
   21.4527  -20.6625  -10.2187 N   0  0  0  0  0  0  0  0  0  0  0  0
   21.6635  -21.0888  -11.5783 C   0  0  0  0  0  0  0  0  0  0  0  0
   20.8510  -21.8869  -12.1056 O   0  0  0  0  0  0  0  0  0  0  0  0
   22.8202  -20.6041  -12.3666 C   0  0  0  0  0  0  0  0  0  0  0  0
   23.5832  -19.5799  -11.5726 C   0  0  0  0  0  0  0  0  0  0  0  0
   24.9894  -20.0638  -11.2432 C   0  0  2  0  0  0  0  0  0  0  0  0
   25.6677  -20.5234  -12.4525 N   0  0  0  0  0  0  0  0  0  0  0  0
   24.9195  -21.1570  -10.2390 C   0  0  0  0  0  0  0  0  0  0  0  0
   24.4276  -21.0195   -9.0942 O   0  0  0  0  0  0  0  0  0  0  0  0
   25.4226  -22.4190  -10.5618 O   0  0  0  0  0  0  0  0  0  0  0  0
  2  4  1  0
  2  1  1  0
  3  2  2  0
  5  6  1  6
  5  7  1  0
  5  4  1  0
  7  8  2  0
 10  9  1  6
 10 12  1  0
 11 10  1  0
 12 14  1  0
 12 13  1  6
 13  7  1  0
 14 22  1  0
 14 15  2  0
 16 17  1  0
 17 18  2  0
 19 17  1  0
 19 20  1  0
 21 20  1  6
 21 23  1  0
 22 21  1  0
 23 24  2  0
 23 25  1  0
M  END
$$$$
