NVQ.pdb
     RDKit          3D

 25 24  0  0  1  0  0  0  0  0999 V2000
   17.3882  -13.0277  -18.6603 N   0  0  0  0  0  0  0  0  0  0  0  0
   17.0460  -11.6772  -18.4057 C   0  0  0  0  0  0  0  0  0  0  0  0
   16.1980  -11.1101  -19.1346 O   0  0  0  0  0  0  0  0  0  0  0  0
   17.6970  -10.9829  -17.2934 C   0  0  0  0  0  0  0  0  0  0  0  0
   18.7074  -11.8539  -16.5709 C   0  0  2  0  0  0  0  0  0  0  0  0
   18.0475  -12.9245  -15.8508 N   0  0  0  0  0  0  0  0  0  0  0  0
   19.4445  -10.9547  -15.6427 C   0  0  0  0  0  0  0  0  0  0  0  0
   18.8843  -10.6514  -14.5590 O   0  0  0  0  0  0  0  0  0  0  0  0
   22.8808  -11.4923  -14.3068 C   0  0  0  0  0  0  0  0  0  0  0  0
   22.8573  -10.1591  -14.9539 C   0  0  1  0  0  0  0  0  0  0  0  0
   23.4880  -10.1648  -16.3291 C   0  0  0  0  0  0  0  0  0  0  0  0
   21.4653   -9.5656  -14.9851 C   0  0  2  0  0  0  0  0  0  0  0  0
   20.7212  -10.4304  -15.9079 N   0  0  0  0  0  0  0  0  0  0  0  0
   21.4328   -8.1671  -15.4626 C   0  0  0  0  0  0  0  0  0  0  0  0
   21.4080   -7.8881  -16.7115 O   0  0  0  0  0  0  0  0  0  0  0  0
   18.6264   -4.9457  -17.2504 N   0  0  0  0  0  0  0  0  0  0  0  0
   19.1523   -3.7090  -16.7321 C   0  0  0  0  0  0  0  0  0  0  0  0
   18.9304   -2.6393  -17.3500 O   0  0  0  0  0  0  0  0  0  0  0  0
   19.9500   -3.6744  -15.4843 C   0  0  0  0  0  0  0  0  0  0  0  0
   20.0270   -5.0544  -14.8918 C   0  0  0  0  0  0  0  0  0  0  0  0
   21.3970   -5.6816  -15.1150 C   0  0  2  0  0  0  0  0  0  0  0  0
   21.4226   -7.0489  -14.6017 N   0  0  0  0  0  0  0  0  0  0  0  0
   22.4388   -4.8569  -14.4494 C   0  0  0  0  0  0  0  0  0  0  0  0
   23.1831   -4.0525  -15.0580 O   0  0  0  0  0  0  0  0  0  0  0  0
   22.6208   -4.9637  -13.0691 O   0  0  0  0  0  0  0  0  0  0  0  0
  2  4  1  0
  2  1  1  0
  3  2  2  0
  5  6  1  1
  5  7  1  0
  5  4  1  0
  7  8  2  0
 10  9  1  6
 10 12  1  0
 11 10  1  0
 12 14  1  0
 12 13  1  6
 13  7  1  0
 14 22  1  0
 14 15  2  0
 16 17  1  0
 17 18  2  0
 19 17  1  0
 19 20  1  0
 21 20  1  1
 21 23  1  0
 22 21  1  0
 23 24  2  0
 23 25  1  0
M  END
$$$$
