NVQ.pdb
     RDKit          3D

 25 24  0  0  1  0  0  0  0  0999 V2000
   28.7903  -22.4900  -18.4719 N   0  0  0  0  0  0  0  0  0  0  0  0
   28.1318  -21.3512  -17.9472 C   0  0  0  0  0  0  0  0  0  0  0  0
   28.4873  -20.2087  -18.3216 O   0  0  0  0  0  0  0  0  0  0  0  0
   27.0512  -21.5458  -16.9789 C   0  0  0  0  0  0  0  0  0  0  0  0
   27.3703  -20.9536  -15.6191 C   0  0  2  0  0  0  0  0  0  0  0  0
   28.6480  -21.4335  -15.1319 N   0  0  0  0  0  0  0  0  0  0  0  0
   26.2612  -21.3626  -14.7158 C   0  0  0  0  0  0  0  0  0  0  0  0
   25.3080  -22.0084  -15.2202 O   0  0  0  0  0  0  0  0  0  0  0  0
   26.0293  -19.6679  -10.9596 C   0  0  0  0  0  0  0  0  0  0  0  0
   25.6060  -21.0842  -11.0683 C   0  0  1  0  0  0  0  0  0  0  0  0
   24.6036  -21.4787  -10.0061 C   0  0  0  0  0  0  0  0  0  0  0  0
   25.1060  -21.4243  -12.4559 C   0  0  2  0  0  0  0  0  0  0  0  0
   26.2206  -21.0697  -13.3418 N   0  0  0  0  0  0  0  0  0  0  0  0
   23.8918  -20.6755  -12.8433 C   0  0  0  0  0  0  0  0  0  0  0  0
   23.9562  -19.4651  -13.2540 O   0  0  0  0  0  0  0  0  0  0  0  0
   22.5608  -20.6299  -17.1120 N   0  0  0  0  0  0  0  0  0  0  0  0
   21.8505  -19.4378  -16.7261 C   0  0  0  0  0  0  0  0  0  0  0  0
   21.8991  -18.4260  -17.4670 O   0  0  0  0  0  0  0  0  0  0  0  0
   21.0637  -19.3822  -15.4722 C   0  0  0  0  0  0  0  0  0  0  0  0
   21.1882  -20.6874  -14.7357 C   0  0  0  0  0  0  0  0  0  0  0  0
   21.4233  -20.4675  -13.2469 C   0  0  2  0  0  0  0  0  0  0  0  0
   22.5911  -21.2211  -12.7974 N   0  0  0  0  0  0  0  0  0  0  0  0
   20.2154  -20.8769  -12.4842 C   0  0  0  0  0  0  0  0  0  0  0  0
   20.0880  -21.9944  -11.9305 O   0  0  0  0  0  0  0  0  0  0  0  0
   19.1467  -19.9867  -12.3612 O   0  0  0  0  0  0  0  0  0  0  0  0
  2  4  1  0
  2  1  1  0
  3  2  2  0
  5  6  1  1
  5  7  1  0
  5  4  1  0
  7  8  2  0
 10  9  1  6
 10 12  1  0
 11 10  1  0
 12 14  1  0
 12 13  1  6
 13  7  1  0
 14 22  1  0
 14 15  2  0
 16 17  1  0
 17 18  2  0
 19 17  1  0
 19 20  1  0
 21 20  1  6
 21 23  1  0
 22 21  1  0
 23 24  2  0
 23 25  1  0
M  END
$$$$
