NVQ.pdb
     RDKit          3D

 25 24  0  0  1  0  0  0  0  0999 V2000
   23.6208  -21.8919   -7.7874 N   0  0  0  0  0  0  0  0  0  0  0  0
   22.7998  -21.1618   -8.6811 C   0  0  0  0  0  0  0  0  0  0  0  0
   21.5626  -21.1181   -8.4829 O   0  0  0  0  0  0  0  0  0  0  0  0
   23.4256  -20.4777   -9.8140 C   0  0  0  0  0  0  0  0  0  0  0  0
   24.8912  -20.8348   -9.9761 C   0  0  2  0  0  0  0  0  0  0  0  0
   25.6410  -20.5007   -8.7818 N   0  0  0  0  0  0  0  0  0  0  0  0
   25.3800  -20.0654  -11.1519 C   0  0  0  0  0  0  0  0  0  0  0  0
   25.7489  -18.8793  -10.9587 O   0  0  0  0  0  0  0  0  0  0  0  0
   28.2750  -20.6715  -12.9601 C   0  0  0  0  0  0  0  0  0  0  0  0
   27.2230  -20.6815  -14.0042 C   0  0  1  0  0  0  0  0  0  0  0  0
   26.8310  -22.0803  -14.4267 C   0  0  0  0  0  0  0  0  0  0  0  0
   26.0140  -19.8646  -13.6021 C   0  0  2  0  0  0  0  0  0  0  0  0
   25.4515  -20.5866  -12.4552 N   0  0  0  0  0  0  0  0  0  0  0  0
   25.0019  -19.7459  -14.6729 C   0  0  0  0  0  0  0  0  0  0  0  0
   24.0724  -20.6145  -14.8127 O   0  0  0  0  0  0  0  0  0  0  0  0
   20.9348  -17.4305  -15.6381 N   0  0  0  0  0  0  0  0  0  0  0  0
   21.0194  -17.1698  -17.0521 C   0  0  0  0  0  0  0  0  0  0  0  0
   19.9639  -17.0810  -17.7254 O   0  0  0  0  0  0  0  0  0  0  0  0
   22.3273  -17.0045  -17.7277 C   0  0  0  0  0  0  0  0  0  0  0  0
   23.4386  -17.1372  -16.7232 C   0  0  0  0  0  0  0  0  0  0  0  0
   23.9232  -18.5772  -16.6146 C   0  0  2  0  0  0  0  0  0  0  0  0
   24.9742  -18.6877  -15.6062 N   0  0  0  0  0  0  0  0  0  0  0  0
   24.4208  -19.0383  -17.9368 C   0  0  0  0  0  0  0  0  0  0  0  0
   25.6171  -18.9473  -18.3001 O   0  0  0  0  0  0  0  0  0  0  0  0
   23.5274  -19.6090  -18.8456 O   0  0  0  0  0  0  0  0  0  0  0  0
  2  4  1  0
  2  1  1  0
  3  2  2  0
  5  6  1  1
  5  7  1  0
  5  4  1  0
  7  8  2  0
 10  9  1  1
 10 12  1  0
 11 10  1  0
 12 14  1  0
 12 13  1  1
 13  7  1  0
 14 22  1  0
 14 15  2  0
 16 17  1  0
 17 18  2  0
 19 17  1  0
 19 20  1  0
 21 20  1  6
 21 23  1  0
 22 21  1  0
 23 24  2  0
 23 25  1  0
M  END
$$$$
