NVQ.pdb
     RDKit          3D

 25 24  0  0  1  0  0  0  0  0999 V2000
   36.6525   -8.5642  -13.1563 N   0  0  0  0  0  0  0  0  0  0  0  0
   36.2063   -7.5994  -14.0921 C   0  0  0  0  0  0  0  0  0  0  0  0
   36.0325   -6.4152  -13.7186 O   0  0  0  0  0  0  0  0  0  0  0  0
   35.9610   -8.0179  -15.4733 C   0  0  0  0  0  0  0  0  0  0  0  0
   36.0926   -9.5174  -15.6624 C   0  0  2  0  0  0  0  0  0  0  0  0
   37.4514   -9.9541  -15.4111 N   0  0  0  0  0  0  0  0  0  0  0  0
   35.6877   -9.7975  -17.0664 C   0  0  0  0  0  0  0  0  0  0  0  0
   36.5654   -9.6825  -17.9590 O   0  0  0  0  0  0  0  0  0  0  0  0
   33.5670  -12.8509  -18.1147 C   0  0  0  0  0  0  0  0  0  0  0  0
   32.9720  -11.6108  -18.6671 C   0  0  1  0  0  0  0  0  0  0  0  0
   31.7659  -11.1411  -17.8838 C   0  0  0  0  0  0  0  0  0  0  0  0
   33.9965  -10.5075  -18.8218 C   0  0  2  0  0  0  0  0  0  0  0  0
   34.3900  -10.1803  -17.4466 N   0  0  0  0  0  0  0  0  0  0  0  0
   33.4675   -9.3043  -19.4982 C   0  0  0  0  0  0  0  0  0  0  0  0
   32.7716   -8.4350  -18.8672 O   0  0  0  0  0  0  0  0  0  0  0  0
   36.1766   -5.7741  -23.5527 N   0  0  0  0  0  0  0  0  0  0  0  0
   34.8424   -5.2400  -23.6495 C   0  0  0  0  0  0  0  0  0  0  0  0
   34.6666   -4.1168  -24.1811 O   0  0  0  0  0  0  0  0  0  0  0  0
   33.6735   -5.9900  -23.1340 C   0  0  0  0  0  0  0  0  0  0  0  0
   34.1261   -7.3035  -22.5582 C   0  0  0  0  0  0  0  0  0  0  0  0
   33.1654   -7.8035  -21.4871 C   0  0  2  0  0  0  0  0  0  0  0  0
   33.6835   -9.0183  -20.8631 N   0  0  0  0  0  0  0  0  0  0  0  0
   31.8316   -8.0575  -22.0911 C   0  0  0  0  0  0  0  0  0  0  0  0
   30.9797   -7.1614  -22.2983 O   0  0  0  0  0  0  0  0  0  0  0  0
   31.4806   -9.3582  -22.4581 O   0  0  0  0  0  0  0  0  0  0  0  0
  2  4  1  0
  2  1  1  0
  3  2  2  0
  5  6  1  6
  5  7  1  0
  5  4  1  0
  7  8  2  0
 10  9  1  1
 10 12  1  0
 11 10  1  0
 12 14  1  0
 12 13  1  1
 13  7  1  0
 14 22  1  0
 14 15  2  0
 16 17  1  0
 17 18  2  0
 19 17  1  0
 19 20  1  0
 21 20  1  6
 21 23  1  0
 22 21  1  0
 23 24  2  0
 23 25  1  0
M  END
$$$$
