NVQ.pdb
     RDKit          3D

 25 24  0  0  1  0  0  0  0  0999 V2000
   17.4870  -14.5385  -20.7224 N   0  0  0  0  0  0  0  0  0  0  0  0
   18.7436  -13.9830  -20.3788 C   0  0  0  0  0  0  0  0  0  0  0  0
   19.7080  -14.1080  -21.1702 O   0  0  0  0  0  0  0  0  0  0  0  0
   18.8770  -13.2767  -19.1035 C   0  0  0  0  0  0  0  0  0  0  0  0
   20.0288  -13.7968  -18.2643 C   0  0  2  0  0  0  0  0  0  0  0  0
   19.7375  -15.1189  -17.7471 N   0  0  0  0  0  0  0  0  0  0  0  0
   20.2168  -12.8163  -17.1612 C   0  0  0  0  0  0  0  0  0  0  0  0
   19.2622  -12.6516  -16.3602 O   0  0  0  0  0  0  0  0  0  0  0  0
   23.1793  -12.8042  -14.8518 C   0  0  0  0  0  0  0  0  0  0  0  0
   23.0281  -11.4342  -15.3968 C   0  0  1  0  0  0  0  0  0  0  0  0
   24.0253  -11.1268  -16.4924 C   0  0  0  0  0  0  0  0  0  0  0  0
   21.6097  -11.1523  -15.8434 C   0  0  2  0  0  0  0  0  0  0  0  0
   21.3922  -12.0707  -16.9670 N   0  0  0  0  0  0  0  0  0  0  0  0
   21.3972   -9.7564  -16.2806 C   0  0  0  0  0  0  0  0  0  0  0  0
   21.8559   -9.3286  -17.3962 O   0  0  0  0  0  0  0  0  0  0  0  0
   18.2786   -6.8572  -18.6260 N   0  0  0  0  0  0  0  0  0  0  0  0
   18.4530   -5.6173  -17.9140 C   0  0  0  0  0  0  0  0  0  0  0  0
   18.1965   -4.5340  -18.4934 O   0  0  0  0  0  0  0  0  0  0  0  0
   18.9291   -5.5954  -16.5113 C   0  0  0  0  0  0  0  0  0  0  0  0
   19.0905   -7.0029  -16.0073 C   0  0  0  0  0  0  0  0  0  0  0  0
   20.5566   -7.4134  -15.9589 C   0  0  2  0  0  0  0  0  0  0  0  0
   20.6842   -8.8020  -15.5240 N   0  0  0  0  0  0  0  0  0  0  0  0
   21.2984   -6.5107  -15.0405 C   0  0  0  0  0  0  0  0  0  0  0  0
   21.6117   -5.3312  -15.3272 O   0  0  0  0  0  0  0  0  0  0  0  0
   21.6806   -6.9762  -13.7808 O   0  0  0  0  0  0  0  0  0  0  0  0
  2  4  1  0
  2  1  1  0
  3  2  2  0
  5  6  1  1
  5  7  1  0
  5  4  1  0
  7  8  2  0
 10  9  1  6
 10 12  1  0
 11 10  1  0
 12 14  1  0
 12 13  1  6
 13  7  1  0
 14 22  1  0
 14 15  2  0
 16 17  1  0
 17 18  2  0
 19 17  1  0
 19 20  1  0
 21 20  1  1
 21 23  1  0
 22 21  1  0
 23 24  2  0
 23 25  1  0
M  END
$$$$
