NVQ.pdb
     RDKit          3D

 25 24  0  0  1  0  0  0  0  0999 V2000
   23.2401  -18.9646  -16.8769 N   0  0  0  0  0  0  0  0  0  0  0  0
   22.0448  -19.6214  -16.4954 C   0  0  0  0  0  0  0  0  0  0  0  0
   21.0146  -19.4787  -17.1956 O   0  0  0  0  0  0  0  0  0  0  0  0
   22.0504  -20.4505  -15.2889 C   0  0  0  0  0  0  0  0  0  0  0  0
   23.4157  -20.5167  -14.6308 C   0  0  2  0  0  0  0  0  0  0  0  0
   24.3497  -21.2636  -15.4492 N   0  0  0  0  0  0  0  0  0  0  0  0
   23.2110  -21.1731  -13.3114 C   0  0  0  0  0  0  0  0  0  0  0  0
   23.5613  -22.3751  -13.1990 O   0  0  0  0  0  0  0  0  0  0  0  0
   21.9131  -18.9038   -9.9781 C   0  0  0  0  0  0  0  0  0  0  0  0
   22.8788  -20.0259   -9.9043 C   0  0  1  0  0  0  0  0  0  0  0  0
   23.0646  -20.5463   -8.4958 C   0  0  0  0  0  0  0  0  0  0  0  0
   22.5301  -21.1415  -10.8658 C   0  0  2  0  0  0  0  0  0  0  0  0
   22.6526  -20.5295  -12.1938 N   0  0  0  0  0  0  0  0  0  0  0  0
   21.1646  -21.6753  -10.6771 C   0  0  0  0  0  0  0  0  0  0  0  0
   20.1883  -21.2856  -11.4071 O   0  0  0  0  0  0  0  0  0  0  0  0
   16.7029  -25.7629   -6.2394 N   0  0  0  0  0  0  0  0  0  0  0  0
   17.8853  -25.0327   -6.6180 C   0  0  0  0  0  0  0  0  0  0  0  0
   18.8986  -25.0769   -5.8789 O   0  0  0  0  0  0  0  0  0  0  0  0
   17.9291  -24.2304   -7.8626 C   0  0  0  0  0  0  0  0  0  0  0  0
   19.3374  -23.7709   -8.1218 C   0  0  0  0  0  0  0  0  0  0  0  0
   19.4487  -23.0371   -9.4519 C   0  0  2  0  0  0  0  0  0  0  0  0
   20.8319  -22.6393   -9.7016 N   0  0  0  0  0  0  0  0  0  0  0  0
   18.5592  -21.8467   -9.4421 C   0  0  0  0  0  0  0  0  0  0  0  0
   17.4136  -21.8302   -9.9508 O   0  0  0  0  0  0  0  0  0  0  0  0
   18.9985  -20.6663   -8.8392 O   0  0  0  0  0  0  0  0  0  0  0  0
  2  4  1  0
  2  1  1  0
  3  2  2  0
  5  6  1  6
  5  7  1  0
  5  4  1  0
  7  8  2  0
 10  9  1  1
 10 12  1  0
 11 10  1  0
 12 14  1  0
 12 13  1  6
 13  7  1  0
 14 22  1  0
 14 15  2  0
 16 17  1  0
 17 18  2  0
 19 17  1  0
 19 20  1  0
 21 20  1  1
 21 23  1  0
 22 21  1  0
 23 24  2  0
 23 25  1  0
M  END
$$$$
