EFF.pdb
     RDKit          3D

 32 33  0  0  1  0  0  0  0  0999 V2000
   12.6167  -16.4765    5.6327 N   0  0  0  0  0  0  0  0  0  0  0  0
   13.4357  -16.2637    6.7612 C   0  0  1  0  0  0  0  0  0  0  0  0
   13.2695  -17.3112    7.8056 C   0  0  0  0  0  0  0  0  0  0  0  0
   11.8751  -17.4854    8.2757 C   0  0  0  0  0  0  0  0  0  0  0  0
   11.6723  -18.5120    9.2935 C   0  0  0  0  0  0  0  0  0  0  0  0
   12.5503  -19.2801    9.7408 O   0  0  0  0  0  0  0  0  0  0  0  0
   14.8920  -16.2381    6.3586 C   0  0  0  0  0  0  0  0  0  0  0  0
   15.1797  -16.7672    5.2766 O   0  0  0  0  0  0  0  0  0  0  0  0
   10.3747  -18.6804    9.8452 O   0  0  0  0  0  0  0  0  0  0  0  0
   15.8253  -15.6371    7.1983 N   0  0  0  0  0  0  0  0  0  0  0  0
   17.2672  -15.5645    6.8917 C   0  0  1  0  0  0  0  0  0  0  0  0
   17.7481  -14.3075    7.5379 C   0  0  0  0  0  0  0  0  0  0  0  0
   18.7528  -13.5246    6.8029 C   0  0  0  0  0  0  0  0  0  0  0  0
   18.5389  -12.9829    5.5585 C   0  0  0  0  0  0  0  0  0  0  0  0
   19.5090  -12.2541    4.8900 C   0  0  0  0  0  0  0  0  0  0  0  0
   20.7446  -12.0369    5.4477 C   0  0  0  0  0  0  0  0  0  0  0  0
   20.9747  -12.5746    6.6971 C   0  0  0  0  0  0  0  0  0  0  0  0
   20.0129  -13.2999    7.3655 C   0  0  0  0  0  0  0  0  0  0  0  0
   17.8969  -16.7822    7.4031 C   0  0  0  0  0  0  0  0  0  0  0  0
   17.4694  -17.2355    8.5320 O   0  0  0  0  0  0  0  0  0  0  0  0
   18.9398  -17.5260    6.7656 N   0  0  0  0  0  0  0  0  0  0  0  0
   19.4541  -18.6877    7.4159 C   0  0  1  0  0  0  0  0  0  0  0  0
   19.2821  -19.9390    6.5673 C   0  0  0  0  0  0  0  0  0  0  0  0
   19.7677  -21.1645    7.1734 C   0  0  0  0  0  0  0  0  0  0  0  0
   19.0769  -21.7830    8.1903 C   0  0  0  0  0  0  0  0  0  0  0  0
   19.5590  -22.9660    8.7689 C   0  0  0  0  0  0  0  0  0  0  0  0
   20.7381  -23.5196    8.3173 C   0  0  0  0  0  0  0  0  0  0  0  0
   21.4279  -22.9145    7.3116 C   0  0  0  0  0  0  0  0  0  0  0  0
   20.9361  -21.7522    6.7570 C   0  0  0  0  0  0  0  0  0  0  0  0
   20.8339  -18.5434    7.8972 C   0  0  0  0  0  0  0  0  0  0  0  0
   21.6868  -18.0377    7.0991 O   0  0  0  0  0  0  0  0  0  0  0  0
   21.2585  -18.9138    9.1381 O   0  0  0  0  0  0  0  0  0  0  0  0
  2  3  1  0
  2  1  1  6
  3  4  1  0
  5  4  1  0
  6  5  2  0
  7  2  1  0
  7  8  2  0
  9  5  1  0
 10  7  1  0
 11 19  1  0
 11 10  1  0
 11 12  1  1
 13 12  1  0
 13 14  2  0
 15 14  1  0
 16 15  2  0
 17 18  2  0
 17 16  1  0
 18 13  1  0
 19 21  1  0
 20 19  2  0
 21 22  1  0
 22 30  1  0
 22 23  1  6
 24 23  1  0
 24 29  1  0
 25 24  2  0
 26 25  1  0
 26 27  2  0
 27 28  1  0
 28 29  2  0
 30 31  2  0
 30 32  1  0
M  END
$$$$
