EFF.pdb
     RDKit          3D

 32 33  0  0  1  0  0  0  0  0999 V2000
   28.0366  -22.2059  -16.6387 N   0  0  0  0  0  0  0  0  0  0  0  0
   27.1428  -21.1591  -16.3303 C   0  0  1  0  0  0  0  0  0  0  0  0
   26.3712  -20.6867  -17.5122 C   0  0  0  0  0  0  0  0  0  0  0  0
   27.1998  -20.0585  -18.5679 C   0  0  0  0  0  0  0  0  0  0  0  0
   27.8374  -20.9782  -19.5053 C   0  0  0  0  0  0  0  0  0  0  0  0
   27.2489  -21.8200  -20.2167 O   0  0  0  0  0  0  0  0  0  0  0  0
   26.1530  -21.6036  -15.2785 C   0  0  0  0  0  0  0  0  0  0  0  0
   25.7800  -22.7833  -15.3285 O   0  0  0  0  0  0  0  0  0  0  0  0
   29.2500  -20.9405  -19.6457 O   0  0  0  0  0  0  0  0  0  0  0  0
   25.7129  -20.6928  -14.3224 N   0  0  0  0  0  0  0  0  0  0  0  0
   24.8047  -21.0510  -13.2154 C   0  0  1  0  0  0  0  0  0  0  0  0
   25.1199  -20.0909  -12.1165 C   0  0  0  0  0  0  0  0  0  0  0  0
   24.3028  -20.1846  -10.8973 C   0  0  0  0  0  0  0  0  0  0  0  0
   23.0310  -19.6763  -10.7889 C   0  0  0  0  0  0  0  0  0  0  0  0
   22.2890  -19.7766   -9.6233 C   0  0  0  0  0  0  0  0  0  0  0  0
   22.7972  -20.3967   -8.5088 C   0  0  0  0  0  0  0  0  0  0  0  0
   24.0733  -20.9124   -8.6021 C   0  0  0  0  0  0  0  0  0  0  0  0
   24.8147  -20.8149   -9.7592 C   0  0  0  0  0  0  0  0  0  0  0  0
   23.4321  -20.9638  -13.7145 C   0  0  0  0  0  0  0  0  0  0  0  0
   23.1131  -19.9034  -14.3753 O   0  0  0  0  0  0  0  0  0  0  0  0
   22.4077  -21.9485  -13.5466 N   0  0  0  0  0  0  0  0  0  0  0  0
   21.0785  -21.6380  -13.9633 C   0  0  1  0  0  0  0  0  0  0  0  0
   20.6478  -22.4711  -15.1617 C   0  0  0  0  0  0  0  0  0  0  0  0
   19.8953  -21.7516  -16.1722 C   0  0  0  0  0  0  0  0  0  0  0  0
   19.5404  -20.4335  -15.9973 C   0  0  0  0  0  0  0  0  0  0  0  0
   18.8109  -19.7506  -16.9812 C   0  0  0  0  0  0  0  0  0  0  0  0
   18.4426  -20.4028  -18.1386 C   0  0  0  0  0  0  0  0  0  0  0  0
   18.7896  -21.7066  -18.3200 C   0  0  0  0  0  0  0  0  0  0  0  0
   19.5068  -22.3590  -17.3400 C   0  0  0  0  0  0  0  0  0  0  0  0
   20.0852  -21.6865  -12.8830 C   0  0  0  0  0  0  0  0  0  0  0  0
   18.9322  -21.2020  -13.1200 O   0  0  0  0  0  0  0  0  0  0  0  0
   20.3166  -22.2150  -11.6483 O   0  0  0  0  0  0  0  0  0  0  0  0
  2  3  1  0
  2  1  1  6
  3  4  1  0
  5  4  1  0
  6  5  2  0
  7  2  1  0
  7  8  2  0
  9  5  1  0
 10  7  1  0
 11 19  1  0
 11 10  1  0
 11 12  1  1
 13 12  1  0
 13 14  2  0
 15 14  1  0
 16 15  2  0
 17 18  2  0
 17 16  1  0
 18 13  1  0
 19 21  1  0
 20 19  2  0
 21 22  1  0
 22 30  1  0
 22 23  1  6
 24 23  1  0
 24 29  1  0
 25 24  2  0
 26 25  1  0
 26 27  2  0
 27 28  1  0
 28 29  2  0
 30 31  2  0
 30 32  1  0
M  END
$$$$
