EFF.pdb
     RDKit          3D

 32 33  0  0  1  0  0  0  0  0999 V2000
   25.5959  -21.6201  -13.0725 N   0  0  0  0  0  0  0  0  0  0  0  0
   25.2237  -20.7183  -12.0537 C   0  0  1  0  0  0  0  0  0  0  0  0
   23.7486  -20.5832  -11.9076 C   0  0  0  0  0  0  0  0  0  0  0  0
   23.0694  -20.0147  -13.0956 C   0  0  0  0  0  0  0  0  0  0  0  0
   22.6268  -20.9809  -14.0963 C   0  0  0  0  0  0  0  0  0  0  0  0
   21.8772  -21.9582  -13.8862 O   0  0  0  0  0  0  0  0  0  0  0  0
   25.7817  -21.1669  -10.7228 C   0  0  0  0  0  0  0  0  0  0  0  0
   25.5547  -22.3379  -10.3904 O   0  0  0  0  0  0  0  0  0  0  0  0
   23.0686  -20.8272  -15.4371 O   0  0  0  0  0  0  0  0  0  0  0  0
   26.5082  -20.2690   -9.9461 N   0  0  0  0  0  0  0  0  0  0  0  0
   27.1687  -20.6388   -8.6791 C   0  0  1  0  0  0  0  0  0  0  0  0
   28.3735  -19.7619   -8.5882 C   0  0  0  0  0  0  0  0  0  0  0  0
   29.0617  -19.7104   -7.2896 C   0  0  0  0  0  0  0  0  0  0  0  0
   28.9322  -18.6742   -6.3967 C   0  0  0  0  0  0  0  0  0  0  0  0
   29.5991  -18.6535   -5.1826 C   0  0  0  0  0  0  0  0  0  0  0  0
   30.4306  -19.6810   -4.8113 C   0  0  0  0  0  0  0  0  0  0  0  0
   30.5710  -20.7289   -5.6974 C   0  0  0  0  0  0  0  0  0  0  0  0
   29.9097  -20.7536   -6.9057 C   0  0  0  0  0  0  0  0  0  0  0  0
   26.2029  -20.4474   -7.5967 C   0  0  0  0  0  0  0  0  0  0  0  0
   25.3592  -19.4810   -7.7257 O   0  0  0  0  0  0  0  0  0  0  0  0
   26.0986  -21.2368   -6.4078 N   0  0  0  0  0  0  0  0  0  0  0  0
   25.4775  -20.6682   -5.2556 C   0  0  1  0  0  0  0  0  0  0  0  0
   24.4411  -21.6020   -4.6477 C   0  0  0  0  0  0  0  0  0  0  0  0
   23.7766  -21.0946   -3.4620 C   0  0  0  0  0  0  0  0  0  0  0  0
   22.4719  -20.6586   -3.5037 C   0  0  0  0  0  0  0  0  0  0  0  0
   21.8424  -20.1682   -2.3505 C   0  0  0  0  0  0  0  0  0  0  0  0
   22.5342  -20.1201   -1.1590 C   0  0  0  0  0  0  0  0  0  0  0  0
   23.8251  -20.5495   -1.1086 C   0  0  0  0  0  0  0  0  0  0  0  0
   24.4248  -21.0278   -2.2541 C   0  0  0  0  0  0  0  0  0  0  0  0
   26.4238  -20.1765   -4.2461 C   0  0  0  0  0  0  0  0  0  0  0  0
   27.3238  -20.9801   -3.8407 O   0  0  0  0  0  0  0  0  0  0  0  0
   26.4013  -18.9204   -3.7179 O   0  0  0  0  0  0  0  0  0  0  0  0
  2  3  1  0
  2  1  1  6
  3  4  1  0
  5  4  1  0
  6  5  2  0
  7  2  1  0
  7  8  2  0
  9  5  1  0
 10  7  1  0
 11 19  1  0
 11 10  1  0
 11 12  1  1
 13 12  1  0
 13 14  2  0
 15 14  1  0
 16 15  2  0
 17 18  2  0
 17 16  1  0
 18 13  1  0
 19 21  1  0
 20 19  2  0
 21 22  1  0
 22 30  1  0
 22 23  1  1
 24 23  1  0
 24 29  1  0
 25 24  2  0
 26 25  1  0
 26 27  2  0
 27 28  1  0
 28 29  2  0
 30 31  2  0
 30 32  1  0
M  END
$$$$
