EFF.pdb
     RDKit          3D

 32 33  0  0  1  0  0  0  0  0999 V2000
   27.6512  -25.1880  -16.8615 N   0  0  0  0  0  0  0  0  0  0  0  0
   26.9012  -24.3671  -17.7295 C   0  0  1  0  0  0  0  0  0  0  0  0
   26.0292  -25.1424  -18.6536 C   0  0  0  0  0  0  0  0  0  0  0  0
   26.7660  -26.0281  -19.5854 C   0  0  0  0  0  0  0  0  0  0  0  0
   25.9482  -26.7470  -20.5576 C   0  0  0  0  0  0  0  0  0  0  0  0
   24.7018  -26.7071  -20.6350 O   0  0  0  0  0  0  0  0  0  0  0  0
   26.0192  -23.4297  -16.9377 C   0  0  0  0  0  0  0  0  0  0  0  0
   25.9476  -23.6303  -15.7179 O   0  0  0  0  0  0  0  0  0  0  0  0
   26.5934  -27.5745  -21.5145 O   0  0  0  0  0  0  0  0  0  0  0  0
   25.3416  -22.4067  -17.5947 N   0  0  0  0  0  0  0  0  0  0  0  0
   24.4707  -21.4345  -16.9056 C   0  0  1  0  0  0  0  0  0  0  0  0
   24.7285  -20.1255  -17.5754 C   0  0  0  0  0  0  0  0  0  0  0  0
   24.2233  -19.9702  -18.9478 C   0  0  0  0  0  0  0  0  0  0  0  0
   24.9385  -20.3153  -20.0689 C   0  0  0  0  0  0  0  0  0  0  0  0
   24.4354  -20.1514  -21.3493 C   0  0  0  0  0  0  0  0  0  0  0  0
   23.1828  -19.6299  -21.5590 C   0  0  0  0  0  0  0  0  0  0  0  0
   22.4522  -19.2785  -20.4428 C   0  0  0  0  0  0  0  0  0  0  0  0
   22.9485  -19.4399  -19.1679 C   0  0  0  0  0  0  0  0  0  0  0  0
   23.0908  -21.9072  -17.0207 C   0  0  0  0  0  0  0  0  0  0  0  0
   22.7803  -22.5603  -18.0883 O   0  0  0  0  0  0  0  0  0  0  0  0
   22.0505  -21.7209  -16.0562 N   0  0  0  0  0  0  0  0  0  0  0  0
   20.7151  -22.0853  -16.4040 C   0  0  1  0  0  0  0  0  0  0  0  0
   20.2518  -23.3292  -15.6600 C   0  0  0  0  0  0  0  0  0  0  0  0
   20.8668  -24.5697  -16.0935 C   0  0  0  0  0  0  0  0  0  0  0  0
   21.9666  -25.0873  -15.4481 C   0  0  0  0  0  0  0  0  0  0  0  0
   22.5527  -26.2861  -15.8790 C   0  0  0  0  0  0  0  0  0  0  0  0
   22.0249  -26.9577  -16.9613 C   0  0  0  0  0  0  0  0  0  0  0  0
   20.9370  -26.4529  -17.6055 C   0  0  0  0  0  0  0  0  0  0  0  0
   20.3765  -25.2729  -17.1653 C   0  0  0  0  0  0  0  0  0  0  0  0
   19.7451  -20.9892  -16.2862 C   0  0  0  0  0  0  0  0  0  0  0  0
   18.5636  -21.1994  -16.7104 O   0  0  0  0  0  0  0  0  0  0  0  0
   20.0266  -19.7667  -15.7538 O   0  0  0  0  0  0  0  0  0  0  0  0
  2  3  1  0
  2  1  1  1
  3  4  1  0
  5  4  1  0
  6  5  2  0
  7  2  1  0
  7  8  2  0
  9  5  1  0
 10  7  1  0
 11 19  1  0
 11 10  1  0
 11 12  1  6
 13 12  1  0
 13 14  2  0
 15 14  1  0
 16 15  2  0
 17 18  2  0
 17 16  1  0
 18 13  1  0
 19 21  1  0
 20 19  2  0
 21 22  1  0
 22 30  1  0
 22 23  1  1
 24 23  1  0
 24 29  1  0
 25 24  2  0
 26 25  1  0
 26 27  2  0
 27 28  1  0
 28 29  2  0
 30 31  2  0
 30 32  1  0
M  END
$$$$
