EFF.pdb
     RDKit          3D

 32 33  0  0  1  0  0  0  0  0999 V2000
   27.9429  -21.7165  -17.6215 N   0  0  0  0  0  0  0  0  0  0  0  0
   27.3994  -20.6224  -16.9162 C   0  0  1  0  0  0  0  0  0  0  0  0
   26.4683  -19.8044  -17.7404 C   0  0  0  0  0  0  0  0  0  0  0  0
   27.1163  -18.6787  -18.4536 C   0  0  0  0  0  0  0  0  0  0  0  0
   28.1373  -19.0491  -19.4288 C   0  0  0  0  0  0  0  0  0  0  0  0
   29.3674  -19.0982  -19.2153 O   0  0  0  0  0  0  0  0  0  0  0  0
   26.6415  -21.1028  -15.7004 C   0  0  0  0  0  0  0  0  0  0  0  0
   25.7740  -21.9658  -15.8904 O   0  0  0  0  0  0  0  0  0  0  0  0
   27.7322  -19.3892  -20.7467 O   0  0  0  0  0  0  0  0  0  0  0  0
   26.9415  -20.5695  -14.4502 N   0  0  0  0  0  0  0  0  0  0  0  0
   26.2304  -20.9469  -13.2132 C   0  0  1  0  0  0  0  0  0  0  0  0
   27.0683  -20.4187  -12.0962 C   0  0  0  0  0  0  0  0  0  0  0  0
   26.4927  -20.4851  -10.7445 C   0  0  0  0  0  0  0  0  0  0  0  0
   26.2599  -19.3828   -9.9583 C   0  0  0  0  0  0  0  0  0  0  0  0
   25.7207  -19.4798   -8.6858 C   0  0  0  0  0  0  0  0  0  0  0  0
   25.3901  -20.6979   -8.1454 C   0  0  0  0  0  0  0  0  0  0  0  0
   25.6180  -21.8143   -8.9230 C   0  0  0  0  0  0  0  0  0  0  0  0
   26.1539  -21.7224  -10.1888 C   0  0  0  0  0  0  0  0  0  0  0  0
   24.8846  -20.3762  -13.2768 C   0  0  0  0  0  0  0  0  0  0  0  0
   24.7918  -19.1174  -13.5406 O   0  0  0  0  0  0  0  0  0  0  0  0
   23.6565  -21.0839  -13.0817 N   0  0  0  0  0  0  0  0  0  0  0  0
   22.4625  -20.3393  -12.8432 C   0  0  1  0  0  0  0  0  0  0  0  0
   22.0556  -19.5119  -14.0537 C   0  0  0  0  0  0  0  0  0  0  0  0
   21.7458  -20.2782  -15.2461 C   0  0  0  0  0  0  0  0  0  0  0  0
   20.4758  -20.7529  -15.4823 C   0  0  0  0  0  0  0  0  0  0  0  0
   20.1906  -21.4943  -16.6379 C   0  0  0  0  0  0  0  0  0  0  0  0
   21.1906  -21.7534  -17.5509 C   0  0  0  0  0  0  0  0  0  0  0  0
   22.4497  -21.2875  -17.3254 C   0  0  0  0  0  0  0  0  0  0  0  0
   22.7082  -20.5608  -16.1829 C   0  0  0  0  0  0  0  0  0  0  0  0
   21.3450  -21.1454  -12.3358 C   0  0  0  0  0  0  0  0  0  0  0  0
   21.5336  -22.3973  -12.2033 O   0  0  0  0  0  0  0  0  0  0  0  0
   20.1244  -20.6422  -11.9984 O   0  0  0  0  0  0  0  0  0  0  0  0
  2  3  1  0
  2  1  1  6
  3  4  1  0
  5  4  1  0
  6  5  2  0
  7  2  1  0
  7  8  2  0
  9  5  1  0
 10  7  1  0
 11 19  1  0
 11 10  1  0
 11 12  1  1
 13 12  1  0
 13 14  2  0
 15 14  1  0
 16 15  2  0
 17 18  2  0
 17 16  1  0
 18 13  1  0
 19 21  1  0
 20 19  2  0
 21 22  1  0
 22 30  1  0
 22 23  1  6
 24 23  1  0
 24 29  1  0
 25 24  2  0
 26 25  1  0
 26 27  2  0
 27 28  1  0
 28 29  2  0
 30 31  2  0
 30 32  1  0
M  END
$$$$
