EFF.pdb
     RDKit          3D

 32 33  0  0  1  0  0  0  0  0999 V2000
   27.4404  -22.8004  -16.6551 N   0  0  0  0  0  0  0  0  0  0  0  0
   26.7844  -21.6542  -16.1595 C   0  0  1  0  0  0  0  0  0  0  0  0
   25.6324  -21.2338  -17.0030 C   0  0  0  0  0  0  0  0  0  0  0  0
   26.0155  -20.5175  -18.2423 C   0  0  0  0  0  0  0  0  0  0  0  0
   26.8588  -19.3400  -18.0596 C   0  0  0  0  0  0  0  0  0  0  0  0
   28.1024  -19.3074  -18.1761 O   0  0  0  0  0  0  0  0  0  0  0  0
   26.2677  -21.9054  -14.7618 C   0  0  0  0  0  0  0  0  0  0  0  0
   25.7690  -23.0178  -14.5443 O   0  0  0  0  0  0  0  0  0  0  0  0
   26.2447  -18.1059  -17.7183 O   0  0  0  0  0  0  0  0  0  0  0  0
   26.3706  -20.9026  -13.8021 N   0  0  0  0  0  0  0  0  0  0  0  0
   25.8803  -21.0486  -12.4176 C   0  0  1  0  0  0  0  0  0  0  0  0
   26.9267  -20.4212  -11.5573 C   0  0  0  0  0  0  0  0  0  0  0  0
   26.6214  -20.2953  -10.1242 C   0  0  0  0  0  0  0  0  0  0  0  0
   26.1426  -19.1462   -9.5430 C   0  0  0  0  0  0  0  0  0  0  0  0
   25.8696  -19.0586   -8.1876 C   0  0  0  0  0  0  0  0  0  0  0  0
   26.0676  -20.1302   -7.3524 C   0  0  0  0  0  0  0  0  0  0  0  0
   26.5481  -21.2914   -7.9213 C   0  0  0  0  0  0  0  0  0  0  0  0
   26.8208  -21.3829   -9.2686 C   0  0  0  0  0  0  0  0  0  0  0  0
   24.5690  -20.4047  -12.3353 C   0  0  0  0  0  0  0  0  0  0  0  0
   24.4946  -19.1727  -12.7086 O   0  0  0  0  0  0  0  0  0  0  0  0
   23.3549  -21.0144  -11.8864 N   0  0  0  0  0  0  0  0  0  0  0  0
   22.2179  -20.1871  -11.6420 C   0  0  1  0  0  0  0  0  0  0  0  0
   21.8941  -19.2972  -12.8331 C   0  0  0  0  0  0  0  0  0  0  0  0
   21.5827  -20.0034  -14.0616 C   0  0  0  0  0  0  0  0  0  0  0  0
   20.4130  -20.7147  -14.2017 C   0  0  0  0  0  0  0  0  0  0  0  0
   20.1256  -21.3948  -15.3940 C   0  0  0  0  0  0  0  0  0  0  0  0
   21.0221  -21.3535  -16.4406 C   0  0  0  0  0  0  0  0  0  0  0  0
   22.1816  -20.6522  -16.3106 C   0  0  0  0  0  0  0  0  0  0  0  0
   22.4442  -19.9909  -15.1299 C   0  0  0  0  0  0  0  0  0  0  0  0
   21.0343  -20.9189  -11.1732 C   0  0  0  0  0  0  0  0  0  0  0  0
   19.9996  -20.2390  -10.8777 O   0  0  0  0  0  0  0  0  0  0  0  0
   20.9719  -22.2733  -11.0352 O   0  0  0  0  0  0  0  0  0  0  0  0
  2  3  1  0
  2  1  1  6
  3  4  1  0
  5  4  1  0
  6  5  2  0
  7  2  1  0
  7  8  2  0
  9  5  1  0
 10  7  1  0
 11 19  1  0
 11 10  1  0
 11 12  1  1
 13 12  1  0
 13 14  2  0
 15 14  1  0
 16 15  2  0
 17 18  2  0
 17 16  1  0
 18 13  1  0
 19 21  1  0
 20 19  2  0
 21 22  1  0
 22 30  1  0
 22 23  1  6
 24 23  1  0
 24 29  1  0
 25 24  2  0
 26 25  1  0
 26 27  2  0
 27 28  1  0
 28 29  2  0
 30 31  2  0
 30 32  1  0
M  END
$$$$
