EFF.pdb
     RDKit          3D

 32 33  0  0  1  0  0  0  0  0999 V2000
   24.6120  -15.4649  -19.8047 N   0  0  0  0  0  0  0  0  0  0  0  0
   24.5435  -16.6841  -19.0984 C   0  0  1  0  0  0  0  0  0  0  0  0
   25.8229  -17.0385  -18.4255 C   0  0  0  0  0  0  0  0  0  0  0  0
   26.9662  -17.2209  -19.3503 C   0  0  0  0  0  0  0  0  0  0  0  0
   28.1991  -17.7154  -18.7450 C   0  0  0  0  0  0  0  0  0  0  0  0
   28.3792  -17.9320  -17.5278 O   0  0  0  0  0  0  0  0  0  0  0  0
   23.4659  -16.6209  -18.0408 C   0  0  0  0  0  0  0  0  0  0  0  0
   23.3926  -15.5744  -17.3828 O   0  0  0  0  0  0  0  0  0  0  0  0
   29.3126  -17.9842  -19.5845 O   0  0  0  0  0  0  0  0  0  0  0  0
   22.6229  -17.7126  -17.8546 N   0  0  0  0  0  0  0  0  0  0  0  0
   21.4802  -17.7077  -16.9203 C   0  0  1  0  0  0  0  0  0  0  0  0
   20.2625  -17.7706  -17.7816 C   0  0  0  0  0  0  0  0  0  0  0  0
   19.8078  -16.5079  -18.3830 C   0  0  0  0  0  0  0  0  0  0  0  0
   18.9817  -15.6128  -17.7475 C   0  0  0  0  0  0  0  0  0  0  0  0
   18.5669  -14.4334  -18.3443 C   0  0  0  0  0  0  0  0  0  0  0  0
   18.9677  -14.1008  -19.6146 C   0  0  0  0  0  0  0  0  0  0  0  0
   19.7977  -14.9897  -20.2659 C   0  0  0  0  0  0  0  0  0  0  0  0
   20.2126  -16.1635  -19.6762 C   0  0  0  0  0  0  0  0  0  0  0  0
   21.6355  -18.8466  -16.0149 C   0  0  0  0  0  0  0  0  0  0  0  0
   21.9827  -19.9719  -16.5400 O   0  0  0  0  0  0  0  0  0  0  0  0
   21.4463  -18.8306  -14.5967 N   0  0  0  0  0  0  0  0  0  0  0  0
   21.6218  -20.0429  -13.8645 C   0  0  1  0  0  0  0  0  0  0  0  0
   21.7559  -19.7915  -12.3697 C   0  0  0  0  0  0  0  0  0  0  0  0
   20.5164  -19.4733  -11.6861 C   0  0  0  0  0  0  0  0  0  0  0  0
   19.8412  -20.4202  -10.9502 C   0  0  0  0  0  0  0  0  0  0  0  0
   18.6427  -20.0998  -10.2964 C   0  0  0  0  0  0  0  0  0  0  0  0
   18.1308  -18.8230  -10.3889 C   0  0  0  0  0  0  0  0  0  0  0  0
   18.7923  -17.8800  -11.1146 C   0  0  0  0  0  0  0  0  0  0  0  0
   19.9689  -18.2164  -11.7494 C   0  0  0  0  0  0  0  0  0  0  0  0
   20.6123  -21.0692  -14.1541 C   0  0  0  0  0  0  0  0  0  0  0  0
   19.5201  -20.6884  -14.6854 O   0  0  0  0  0  0  0  0  0  0  0  0
   20.7687  -22.3975  -13.8925 O   0  0  0  0  0  0  0  0  0  0  0  0
  2  3  1  0
  2  1  1  1
  3  4  1  0
  5  4  1  0
  6  5  2  0
  7  2  1  0
  7  8  2  0
  9  5  1  0
 10  7  1  0
 11 19  1  0
 11 10  1  0
 11 12  1  6
 13 12  1  0
 13 14  2  0
 15 14  1  0
 16 15  2  0
 17 18  2  0
 17 16  1  0
 18 13  1  0
 19 21  1  0
 20 19  2  0
 21 22  1  0
 22 30  1  0
 22 23  1  1
 24 23  1  0
 24 29  1  0
 25 24  2  0
 26 25  1  0
 26 27  2  0
 27 28  1  0
 28 29  2  0
 30 31  2  0
 30 32  1  0
M  END
$$$$
