EFF.pdb
     RDKit          3D

 32 33  0  0  1  0  0  0  0  0999 V2000
   27.1513  -21.9952  -13.7668 N   0  0  0  0  0  0  0  0  0  0  0  0
   27.3949  -20.9083  -12.9013 C   0  0  1  0  0  0  0  0  0  0  0  0
   26.6320  -19.6859  -13.2746 C   0  0  0  0  0  0  0  0  0  0  0  0
   26.1746  -19.6612  -14.6838 C   0  0  0  0  0  0  0  0  0  0  0  0
   27.2001  -19.3611  -15.6784 C   0  0  0  0  0  0  0  0  0  0  0  0
   28.0261  -18.4258  -15.6161 O   0  0  0  0  0  0  0  0  0  0  0  0
   27.0233  -21.2708  -11.4821 C   0  0  0  0  0  0  0  0  0  0  0  0
   26.2324  -22.2125  -11.3372 O   0  0  0  0  0  0  0  0  0  0  0  0
   27.2952  -20.1842  -16.8317 O   0  0  0  0  0  0  0  0  0  0  0  0
   27.5706  -20.5502  -10.4245 N   0  0  0  0  0  0  0  0  0  0  0  0
   27.2445  -20.8099   -9.0086 C   0  0  1  0  0  0  0  0  0  0  0  0
   28.2738  -20.0686   -8.2214 C   0  0  0  0  0  0  0  0  0  0  0  0
   28.0465  -19.9524   -6.7731 C   0  0  0  0  0  0  0  0  0  0  0  0
   27.3812  -18.9035   -6.1858 C   0  0  0  0  0  0  0  0  0  0  0  0
   27.1881  -18.8211   -4.8164 C   0  0  0  0  0  0  0  0  0  0  0  0
   27.6589  -19.7965   -3.9727 C   0  0  0  0  0  0  0  0  0  0  0  0
   28.3292  -20.8564   -4.5475 C   0  0  0  0  0  0  0  0  0  0  0  0
   28.5233  -20.9424   -5.9087 C   0  0  0  0  0  0  0  0  0  0  0  0
   25.8713  -20.3621   -8.7746 C   0  0  0  0  0  0  0  0  0  0  0  0
   25.5293  -19.2260   -9.2796 O   0  0  0  0  0  0  0  0  0  0  0  0
   24.8649  -21.0691   -8.0435 N   0  0  0  0  0  0  0  0  0  0  0  0
   23.4950  -20.7245   -8.2475 C   0  0  1  0  0  0  0  0  0  0  0  0
   23.1203  -20.7273   -9.7224 C   0  0  0  0  0  0  0  0  0  0  0  0
   21.7311  -20.4180  -10.0043 C   0  0  0  0  0  0  0  0  0  0  0  0
   20.7768  -21.4073  -10.0715 C   0  0  0  0  0  0  0  0  0  0  0  0
   19.4379  -21.0947  -10.3473 C   0  0  0  0  0  0  0  0  0  0  0  0
   19.0683  -19.7826  -10.5543 C   0  0  0  0  0  0  0  0  0  0  0  0
   20.0058  -18.7977  -10.4895 C   0  0  0  0  0  0  0  0  0  0  0  0
   21.3164  -19.1271  -10.2172 C   0  0  0  0  0  0  0  0  0  0  0  0
   22.5525  -21.5157   -7.4463 C   0  0  0  0  0  0  0  0  0  0  0  0
   21.4373  -20.9794   -7.1481 O   0  0  0  0  0  0  0  0  0  0  0  0
   22.7932  -22.7819   -7.0036 O   0  0  0  0  0  0  0  0  0  0  0  0
  2  3  1  0
  2  1  1  6
  3  4  1  0
  5  4  1  0
  6  5  2  0
  7  2  1  0
  7  8  2  0
  9  5  1  0
 10  7  1  0
 11 19  1  0
 11 10  1  0
 11 12  1  1
 13 12  1  0
 13 14  2  0
 15 14  1  0
 16 15  2  0
 17 18  2  0
 17 16  1  0
 18 13  1  0
 19 21  1  0
 20 19  2  0
 21 22  1  0
 22 30  1  0
 22 23  1  6
 24 23  1  0
 24 29  1  0
 25 24  2  0
 26 25  1  0
 26 27  2  0
 27 28  1  0
 28 29  2  0
 30 31  2  0
 30 32  1  0
M  END
$$$$
