EFF.pdb
     RDKit          3D

 32 33  0  0  1  0  0  0  0  0999 V2000
   14.3176  -18.5098    2.6310 N   0  0  0  0  0  0  0  0  0  0  0  0
   14.4472  -17.8100    3.8489 C   0  0  1  0  0  0  0  0  0  0  0  0
   14.2689  -18.6820    5.0419 C   0  0  0  0  0  0  0  0  0  0  0  0
   13.1444  -18.2861    5.9218 C   0  0  0  0  0  0  0  0  0  0  0  0
   12.9426  -19.1160    7.1057 C   0  0  0  0  0  0  0  0  0  0  0  0
   11.9093  -19.7644    7.3753 O   0  0  0  0  0  0  0  0  0  0  0  0
   15.8114  -17.1671    3.9448 C   0  0  0  0  0  0  0  0  0  0  0  0
   16.6314  -17.4678    3.0671 O   0  0  0  0  0  0  0  0  0  0  0  0
   13.9928  -19.2174    8.0562 O   0  0  0  0  0  0  0  0  0  0  0  0
   16.0829  -16.2869    4.9883 N   0  0  0  0  0  0  0  0  0  0  0  0
   17.3968  -15.6456    5.1904 C   0  0  1  0  0  0  0  0  0  0  0  0
   17.0956  -14.2723    5.6925 C   0  0  0  0  0  0  0  0  0  0  0  0
   18.2455  -13.4300    6.0547 C   0  0  0  0  0  0  0  0  0  0  0  0
   18.7186  -13.2934    7.3372 C   0  0  0  0  0  0  0  0  0  0  0  0
   19.8020  -12.4870    7.6463 C   0  0  0  0  0  0  0  0  0  0  0  0
   20.4608  -11.7784    6.6722 C   0  0  0  0  0  0  0  0  0  0  0  0
   19.9974  -11.9053    5.3791 C   0  0  0  0  0  0  0  0  0  0  0  0
   18.9206  -12.7060    5.0673 C   0  0  0  0  0  0  0  0  0  0  0  0
   18.1614  -16.4727    6.1241 C   0  0  0  0  0  0  0  0  0  0  0  0
   17.5341  -16.9303    7.1536 O   0  0  0  0  0  0  0  0  0  0  0  0
   19.5412  -16.8310    6.0010 N   0  0  0  0  0  0  0  0  0  0  0  0
   20.1396  -17.6287    7.0220 C   0  0  1  0  0  0  0  0  0  0  0  0
   20.6325  -18.9648    6.4857 C   0  0  0  0  0  0  0  0  0  0  0  0
   19.6072  -19.8088    5.9014 C   0  0  0  0  0  0  0  0  0  0  0  0
   18.8867  -20.6953    6.6686 C   0  0  0  0  0  0  0  0  0  0  0  0
   17.8999  -21.5069    6.0905 C   0  0  0  0  0  0  0  0  0  0  0  0
   17.6452  -21.4195    4.7384 C   0  0  0  0  0  0  0  0  0  0  0  0
   18.3532  -20.5452    3.9719 C   0  0  0  0  0  0  0  0  0  0  0  0
   19.3187  -19.7567    4.5606 C   0  0  0  0  0  0  0  0  0  0  0  0
   21.1804  -16.9351    7.7914 C   0  0  0  0  0  0  0  0  0  0  0  0
   21.6577  -17.5321    8.8092 O   0  0  0  0  0  0  0  0  0  0  0  0
   21.6668  -15.6990    7.4872 O   0  0  0  0  0  0  0  0  0  0  0  0
  2  3  1  0
  2  1  1  6
  3  4  1  0
  5  4  1  0
  6  5  2  0
  7  2  1  0
  7  8  2  0
  9  5  1  0
 10  7  1  0
 11 19  1  0
 11 10  1  0
 11 12  1  1
 13 12  1  0
 13 14  2  0
 15 14  1  0
 16 15  2  0
 17 18  2  0
 17 16  1  0
 18 13  1  0
 19 21  1  0
 20 19  2  0
 21 22  1  0
 22 30  1  0
 22 23  1  6
 24 23  1  0
 24 29  1  0
 25 24  2  0
 26 25  1  0
 26 27  2  0
 27 28  1  0
 28 29  2  0
 30 31  2  0
 30 32  1  0
M  END
$$$$
