EFF.pdb
     RDKit          3D

 32 33  0  0  1  0  0  0  0  0999 V2000
   15.2228  -20.3726    2.2593 N   0  0  0  0  0  0  0  0  0  0  0  0
   15.5758  -19.4831    3.2956 C   0  0  1  0  0  0  0  0  0  0  0  0
   14.8045  -19.7140    4.5475 C   0  0  0  0  0  0  0  0  0  0  0  0
   14.8163  -21.1189    5.0187 C   0  0  0  0  0  0  0  0  0  0  0  0
   14.3235  -21.3372    6.3753 C   0  0  0  0  0  0  0  0  0  0  0  0
   14.9579  -21.1111    7.4277 O   0  0  0  0  0  0  0  0  0  0  0  0
   17.0446  -19.6145    3.6258 C   0  0  0  0  0  0  0  0  0  0  0  0
   17.6476  -20.5661    3.1118 O   0  0  0  0  0  0  0  0  0  0  0  0
   13.0116  -21.8516    6.5514 O   0  0  0  0  0  0  0  0  0  0  0  0
   17.6432  -18.6854    4.4717 N   0  0  0  0  0  0  0  0  0  0  0  0
   19.0956  -18.6384    4.7305 C   0  0  1  0  0  0  0  0  0  0  0  0
   19.4497  -17.1882    4.7460 C   0  0  0  0  0  0  0  0  0  0  0  0
   19.7555  -16.5647    3.4497 C   0  0  0  0  0  0  0  0  0  0  0  0
   19.1436  -15.4251    2.9867 C   0  0  0  0  0  0  0  0  0  0  0  0
   19.4509  -14.8653    1.7572 C   0  0  0  0  0  0  0  0  0  0  0  0
   20.3934  -15.4312    0.9346 C   0  0  0  0  0  0  0  0  0  0  0  0
   21.0167  -16.5762    1.3858 C   0  0  0  0  0  0  0  0  0  0  0  0
   20.7142  -17.1361    2.6077 C   0  0  0  0  0  0  0  0  0  0  0  0
   19.3494  -19.3327    5.9932 C   0  0  0  0  0  0  0  0  0  0  0  0
   18.4740  -19.1897    6.9290 O   0  0  0  0  0  0  0  0  0  0  0  0
   20.4755  -20.1646    6.2886 N   0  0  0  0  0  0  0  0  0  0  0  0
   20.5909  -20.7299    7.5939 C   0  0  1  0  0  0  0  0  0  0  0  0
   21.0390  -22.1834    7.5478 C   0  0  0  0  0  0  0  0  0  0  0  0
   21.1107  -22.8459    8.8366 C   0  0  0  0  0  0  0  0  0  0  0  0
   20.0328  -23.5295    9.3510 C   0  0  0  0  0  0  0  0  0  0  0  0
   20.1149  -24.1635   10.5992 C   0  0  0  0  0  0  0  0  0  0  0  0
   21.2867  -24.1039   11.3232 C   0  0  0  0  0  0  0  0  0  0  0  0
   22.3580  -23.4299   10.8218 C   0  0  0  0  0  0  0  0  0  0  0  0
   22.2556  -22.8139    9.5928 C   0  0  0  0  0  0  0  0  0  0  0  0
   21.4109  -19.9379    8.5194 C   0  0  0  0  0  0  0  0  0  0  0  0
   22.5155  -19.4794    8.0837 O   0  0  0  0  0  0  0  0  0  0  0  0
   21.0671  -19.6626    9.8090 O   0  0  0  0  0  0  0  0  0  0  0  0
  2  3  1  0
  2  1  1  6
  3  4  1  0
  5  4  1  0
  6  5  2  0
  7  2  1  0
  7  8  2  0
  9  5  1  0
 10  7  1  0
 11 19  1  0
 11 10  1  0
 11 12  1  1
 13 12  1  0
 13 14  2  0
 15 14  1  0
 16 15  2  0
 17 18  2  0
 17 16  1  0
 18 13  1  0
 19 21  1  0
 20 19  2  0
 21 22  1  0
 22 30  1  0
 22 23  1  6
 24 23  1  0
 24 29  1  0
 25 24  2  0
 26 25  1  0
 26 27  2  0
 27 28  1  0
 28 29  2  0
 30 31  2  0
 30 32  1  0
M  END
$$$$
