EFF.pdb
     RDKit          3D

 32 33  0  0  1  0  0  0  0  0999 V2000
   18.5571  -25.6241  -16.5990 N   0  0  0  0  0  0  0  0  0  0  0  0
   19.4997  -25.3959  -15.5746 C   0  0  1  0  0  0  0  0  0  0  0  0
   20.8518  -25.9262  -15.9004 C   0  0  0  0  0  0  0  0  0  0  0  0
   20.9514  -27.4041  -15.8598 C   0  0  0  0  0  0  0  0  0  0  0  0
   21.4269  -27.9736  -14.6026 C   0  0  0  0  0  0  0  0  0  0  0  0
   21.9020  -27.3299  -13.6430 O   0  0  0  0  0  0  0  0  0  0  0  0
   19.6358  -23.9155  -15.3036 C   0  0  0  0  0  0  0  0  0  0  0  0
   19.3264  -23.1500  -16.2264 O   0  0  0  0  0  0  0  0  0  0  0  0
   21.3590  -29.3804  -14.4207 O   0  0  0  0  0  0  0  0  0  0  0  0
   20.0915  -23.4849  -14.0609 N   0  0  0  0  0  0  0  0  0  0  0  0
   20.2465  -22.0621  -13.7000 C   0  0  1  0  0  0  0  0  0  0  0  0
   20.0915  -22.0095  -12.2161 C   0  0  0  0  0  0  0  0  0  0  0  0
   20.1278  -20.6790  -11.5907 C   0  0  0  0  0  0  0  0  0  0  0  0
   20.0255  -20.4679  -10.2370 C   0  0  0  0  0  0  0  0  0  0  0  0
   20.0580  -19.2001   -9.6794 C   0  0  0  0  0  0  0  0  0  0  0  0
   20.1959  -18.0821  -10.4644 C   0  0  0  0  0  0  0  0  0  0  0  0
   20.3000  -18.2779  -11.8259 C   0  0  0  0  0  0  0  0  0  0  0  0
   20.2681  -19.5367  -12.3846 C   0  0  0  0  0  0  0  0  0  0  0  0
   21.5532  -21.6159  -14.1839 C   0  0  0  0  0  0  0  0  0  0  0  0
   22.5810  -21.9203  -13.4671 O   0  0  0  0  0  0  0  0  0  0  0  0
   21.8030  -20.8783  -15.3843 N   0  0  0  0  0  0  0  0  0  0  0  0
   23.0737  -20.2518  -15.5563 C   0  0  1  0  0  0  0  0  0  0  0  0
   23.8897  -20.9113  -16.6585 C   0  0  0  0  0  0  0  0  0  0  0  0
   24.2863  -22.2816  -16.3938 C   0  0  0  0  0  0  0  0  0  0  0  0
   25.5510  -22.5870  -15.9456 C   0  0  0  0  0  0  0  0  0  0  0  0
   25.9219  -23.9162  -15.6959 C   0  0  0  0  0  0  0  0  0  0  0  0
   25.0127  -24.9322  -15.9005 C   0  0  0  0  0  0  0  0  0  0  0  0
   23.7593  -24.6390  -16.3437 C   0  0  0  0  0  0  0  0  0  0  0  0
   23.4156  -23.3256  -16.5828 C   0  0  0  0  0  0  0  0  0  0  0  0
   23.0050  -18.7952  -15.7289 C   0  0  0  0  0  0  0  0  0  0  0  0
   24.1039  -18.1544  -15.7738 O   0  0  0  0  0  0  0  0  0  0  0  0
   21.8458  -18.0881  -15.8444 O   0  0  0  0  0  0  0  0  0  0  0  0
  2  3  1  0
  2  1  1  6
  3  4  1  0
  5  4  1  0
  6  5  2  0
  7  2  1  0
  7  8  2  0
  9  5  1  0
 10  7  1  0
 11 19  1  0
 11 10  1  0
 11 12  1  1
 13 12  1  0
 13 14  2  0
 15 14  1  0
 16 15  2  0
 17 18  2  0
 17 16  1  0
 18 13  1  0
 19 21  1  0
 20 19  2  0
 21 22  1  0
 22 30  1  0
 22 23  1  6
 24 23  1  0
 24 29  1  0
 25 24  2  0
 26 25  1  0
 26 27  2  0
 27 28  1  0
 28 29  2  0
 30 31  2  0
 30 32  1  0
M  END
$$$$
