YNL.pdb
     RDKit          3D

 29 29  0  0  1  0  0  0  0  0999 V2000
   28.8788  -19.4547   -4.1772 O   0  0  0  0  0  0  0  0  0  0  0  0
   28.4231  -19.5649   -5.4762 C   0  0  0  0  0  0  0  0  0  0  0  0
   28.9634  -20.4651   -6.3571 C   0  0  0  0  0  0  0  0  0  0  0  0
   28.4986  -20.5674   -7.6586 C   0  0  0  0  0  0  0  0  0  0  0  0
   27.4768  -19.7689   -8.1161 C   0  0  0  0  0  0  0  0  0  0  0  0
   26.9573  -19.8490   -9.4920 C   0  0  0  0  0  0  0  0  0  0  0  0
   26.3140  -21.1248   -9.8833 C   0  0  2  0  0  0  0  0  0  0  0  0
   27.4046  -22.1345   -9.9234 N   0  0  0  0  0  0  0  0  0  0  0  0
   25.6471  -21.2029  -11.1641 C   0  0  0  0  0  0  0  0  0  0  0  0
   26.0790  -21.9409  -12.0973 O   0  0  0  0  0  0  0  0  0  0  0  0
   26.9408  -18.8660   -7.2189 C   0  0  0  0  0  0  0  0  0  0  0  0
   27.3924  -18.7513   -5.9181 C   0  0  0  0  0  0  0  0  0  0  0  0
   20.5713  -22.5444  -11.0482 N   0  0  0  0  0  0  0  0  0  0  0  0
   21.8334  -21.9454  -11.1546 C   0  0  0  0  0  0  0  0  0  0  0  0
   22.1729  -21.1634  -10.2057 O   0  0  0  0  0  0  0  0  0  0  0  0
   22.8083  -22.1307  -12.2565 C   0  0  0  0  0  0  0  0  0  0  0  0
   23.5742  -20.8656  -12.5494 C   0  0  2  0  0  0  0  0  0  0  0  0
   24.4660  -20.4833  -11.5008 N   0  0  0  0  0  0  0  0  0  0  0  0
   22.6740  -19.7961  -13.0310 C   0  0  0  0  0  0  0  0  0  0  0  0
   21.9972  -19.0552  -12.2508 O   0  0  0  0  0  0  0  0  0  0  0  0
   22.6126  -16.8010  -18.3706 C   0  0  0  0  0  0  0  0  0  0  0  0
   21.9594  -16.9142  -16.9869 C   0  0  2  0  0  0  0  0  0  0  0  0
   21.8633  -15.6229  -16.2726 C   0  0  0  0  0  0  0  0  0  0  0  0
   22.4441  -18.0903  -16.2318 C   0  0  0  0  0  0  0  0  0  0  0  0
   21.7383  -18.4804  -14.9894 C   0  0  2  0  0  0  0  0  0  0  0  0
   22.5534  -19.5794  -14.4103 N   0  0  0  0  0  0  0  0  0  0  0  0
   20.3436  -18.8867  -15.0980 C   0  0  0  0  0  0  0  0  0  0  0  0
   19.3334  -17.9722  -14.7367 O   0  0  0  0  0  0  0  0  0  0  0  0
   19.9316  -19.9973  -15.4906 O   0  0  0  0  0  0  0  0  0  0  0  0
  2  1  1  0
  3  2  2  0
  4  3  1  0
  5 11  1  0
  5  4  2  0
  6  5  1  0
  7  8  1  6
  7  6  1  0
  9  7  1  0
 10  9  2  0
 11 12  2  0
 12  2  1  0
 13 14  1  0
 14 15  2  0
 16 14  1  0
 17 16  1  1
 17 18  1  0
 18  9  1  0
 19 26  1  0
 19 17  1  0
 20 19  2  0
 22 21  1  6
 22 23  1  0
 24 22  1  0
 25 24  1  6
 25 26  1  0
 27 25  1  0
 28 27  1  0
 29 27  2  0
M  END
$$$$
