YNL.pdb
     RDKit          3D

 29 29  0  0  1  0  0  0  0  0999 V2000
   19.9243  -13.2821  -17.4379 O   0  0  0  0  0  0  0  0  0  0  0  0
   20.3922  -14.3845  -16.7502 C   0  0  0  0  0  0  0  0  0  0  0  0
   19.7165  -15.5769  -16.7516 C   0  0  0  0  0  0  0  0  0  0  0  0
   20.1950  -16.6770  -16.0580 C   0  0  0  0  0  0  0  0  0  0  0  0
   21.3670  -16.6141  -15.3413 C   0  0  0  0  0  0  0  0  0  0  0  0
   21.9059  -17.7620  -14.5920 C   0  0  0  0  0  0  0  0  0  0  0  0
   22.8917  -18.6110  -15.3006 C   0  0  2  0  0  0  0  0  0  0  0  0
   22.3674  -18.7761  -16.6821 N   0  0  0  0  0  0  0  0  0  0  0  0
   23.1436  -19.9456  -14.8044 C   0  0  0  0  0  0  0  0  0  0  0  0
   22.4807  -20.9445  -15.2103 O   0  0  0  0  0  0  0  0  0  0  0  0
   22.0385  -15.4072  -15.3479 C   0  0  0  0  0  0  0  0  0  0  0  0
   21.5753  -14.3010  -16.0340 C   0  0  0  0  0  0  0  0  0  0  0  0
   24.0955  -24.8892  -13.9462 N   0  0  0  0  0  0  0  0  0  0  0  0
   25.0615  -23.8990  -14.1675 C   0  0  0  0  0  0  0  0  0  0  0  0
   26.2761  -24.2366  -13.9719 O   0  0  0  0  0  0  0  0  0  0  0  0
   24.8119  -22.5043  -14.6047 C   0  0  0  0  0  0  0  0  0  0  0  0
   24.4588  -21.6058  -13.4466 C   0  0  2  0  0  0  0  0  0  0  0  0
   24.1376  -20.2701  -13.8386 N   0  0  0  0  0  0  0  0  0  0  0  0
   25.4544  -21.7204  -12.3594 C   0  0  0  0  0  0  0  0  0  0  0  0
   26.7089  -21.6936  -12.5617 O   0  0  0  0  0  0  0  0  0  0  0  0
   27.9782  -20.1530   -8.6342 C   0  0  0  0  0  0  0  0  0  0  0  0
   27.0125  -19.2004   -9.3512 C   0  0  2  0  0  0  0  0  0  0  0  0
   26.5614  -18.0728   -8.5076 C   0  0  0  0  0  0  0  0  0  0  0  0
   25.9946  -19.9246  -10.1435 C   0  0  0  0  0  0  0  0  0  0  0  0
   25.7645  -21.3613   -9.8661 C   0  0  2  0  0  0  0  0  0  0  0  0
   25.0055  -21.8652  -11.0397 N   0  0  0  0  0  0  0  0  0  0  0  0
   25.0797  -21.7144   -8.6298 C   0  0  0  0  0  0  0  0  0  0  0  0
   23.6711  -21.6711   -8.5903 O   0  0  0  0  0  0  0  0  0  0  0  0
   25.6252  -22.0638   -7.5631 O   0  0  0  0  0  0  0  0  0  0  0  0
  2  1  1  0
  3  2  2  0
  4  3  1  0
  5 11  1  0
  5  4  2  0
  6  5  1  0
  7  8  1  6
  7  6  1  0
  9  7  1  0
 10  9  2  0
 11 12  2  0
 12  2  1  0
 13 14  1  0
 14 15  2  0
 16 14  1  0
 17 16  1  6
 17 18  1  0
 18  9  1  0
 19 26  1  0
 19 17  1  0
 20 19  2  0
 22 21  1  1
 22 23  1  0
 24 22  1  0
 25 24  1  6
 25 26  1  0
 27 25  1  0
 28 27  1  0
 29 27  2  0
M  END
$$$$
