YNL.pdb
     RDKit          3D

 29 29  0  0  1  0  0  0  0  0999 V2000
   28.6191  -15.3066  -19.0625 O   0  0  0  0  0  0  0  0  0  0  0  0
   27.6320  -16.0798  -18.4837 C   0  0  0  0  0  0  0  0  0  0  0  0
   27.9134  -17.2785  -17.8819 C   0  0  0  0  0  0  0  0  0  0  0  0
   26.9151  -18.0466  -17.3041 C   0  0  0  0  0  0  0  0  0  0  0  0
   25.6030  -17.6349  -17.3126 C   0  0  0  0  0  0  0  0  0  0  0  0
   24.5158  -18.4245  -16.7094 C   0  0  0  0  0  0  0  0  0  0  0  0
   24.2594  -19.7582  -17.3013 C   0  0  2  0  0  0  0  0  0  0  0  0
   23.8681  -19.5077  -18.7137 N   0  0  0  0  0  0  0  0  0  0  0  0
   23.2137  -20.5807  -16.7347 C   0  0  0  0  0  0  0  0  0  0  0  0
   21.9887  -20.3008  -16.8862 O   0  0  0  0  0  0  0  0  0  0  0  0
   25.3324  -16.4254  -17.9220 C   0  0  0  0  0  0  0  0  0  0  0  0
   26.3157  -15.6475  -18.5026 C   0  0  0  0  0  0  0  0  0  0  0  0
   24.9778  -23.5969  -14.6031 N   0  0  0  0  0  0  0  0  0  0  0  0
   23.9740  -24.4472  -15.0850 C   0  0  0  0  0  0  0  0  0  0  0  0
   24.2480  -25.6928  -15.1094 O   0  0  0  0  0  0  0  0  0  0  0  0
   22.6311  -24.0432  -15.5667 C   0  0  0  0  0  0  0  0  0  0  0  0
   22.4002  -22.5612  -15.4135 C   0  0  2  0  0  0  0  0  0  0  0  0
   23.4432  -21.7609  -15.9726 N   0  0  0  0  0  0  0  0  0  0  0  0
   22.0211  -22.2208  -14.0254 C   0  0  0  0  0  0  0  0  0  0  0  0
   22.8705  -21.9307  -13.1255 O   0  0  0  0  0  0  0  0  0  0  0  0
   19.8912  -17.8709  -11.8873 C   0  0  0  0  0  0  0  0  0  0  0  0
   20.2473  -19.2725  -11.3745 C   0  0  2  0  0  0  0  0  0  0  0  0
   21.0843  -19.2594  -10.1555 C   0  0  0  0  0  0  0  0  0  0  0  0
   20.6307  -20.1902  -12.4695 C   0  0  0  0  0  0  0  0  0  0  0  0
   20.1547  -21.5921  -12.4246 C   0  0  2  0  0  0  0  0  0  0  0  0
   20.6645  -22.2139  -13.6739 N   0  0  0  0  0  0  0  0  0  0  0  0
   18.7219  -21.8202  -12.2928 C   0  0  0  0  0  0  0  0  0  0  0  0
   18.1580  -21.9094  -11.0037 O   0  0  0  0  0  0  0  0  0  0  0  0
   17.9104  -21.9500  -13.2319 O   0  0  0  0  0  0  0  0  0  0  0  0
  2  1  1  0
  3  2  2  0
  4  3  1  0
  5 11  1  0
  5  4  2  0
  6  5  1  0
  7  8  1  6
  7  6  1  0
  9  7  1  0
 10  9  2  0
 11 12  2  0
 12  2  1  0
 13 14  1  0
 14 15  2  0
 16 14  1  0
 17 16  1  1
 17 18  1  0
 18  9  1  0
 19 26  1  0
 19 17  1  0
 20 19  2  0
 22 21  1  6
 22 23  1  0
 24 22  1  0
 25 24  1  6
 25 26  1  0
 27 25  1  0
 28 27  1  0
 29 27  2  0
M  END
$$$$
