YNL.pdb
     RDKit          3D

 29 29  0  0  1  0  0  0  0  0999 V2000
   29.6492  -18.9461   -5.1584 O   0  0  0  0  0  0  0  0  0  0  0  0
   28.9167  -19.2809   -6.2802 C   0  0  0  0  0  0  0  0  0  0  0  0
   29.2463  -20.3561   -7.0636 C   0  0  0  0  0  0  0  0  0  0  0  0
   28.5044  -20.6832   -8.1874 C   0  0  0  0  0  0  0  0  0  0  0  0
   27.4082  -19.9409   -8.5596 C   0  0  0  0  0  0  0  0  0  0  0  0
   26.5965  -20.2579   -9.7470 C   0  0  0  0  0  0  0  0  0  0  0  0
   25.2918  -20.9151   -9.5006 C   0  0  2  0  0  0  0  0  0  0  0  0
   25.6114  -22.2807   -9.0067 N   0  0  0  0  0  0  0  0  0  0  0  0
   24.3820  -21.0922  -10.6105 C   0  0  0  0  0  0  0  0  0  0  0  0
   24.6634  -21.8416  -11.5909 O   0  0  0  0  0  0  0  0  0  0  0  0
   27.0864  -18.8602   -7.7620 C   0  0  0  0  0  0  0  0  0  0  0  0
   27.8154  -18.5204   -6.6385 C   0  0  0  0  0  0  0  0  0  0  0  0
   20.6804  -22.3533   -9.0667 N   0  0  0  0  0  0  0  0  0  0  0  0
   20.7222  -22.2628  -10.4642 C   0  0  0  0  0  0  0  0  0  0  0  0
   20.7088  -23.3655  -11.1055 O   0  0  0  0  0  0  0  0  0  0  0  0
   20.7798  -21.0173  -11.2667 C   0  0  0  0  0  0  0  0  0  0  0  0
   22.1746  -20.7305  -11.7620 C   0  0  2  0  0  0  0  0  0  0  0  0
   23.1084  -20.4650  -10.7140 N   0  0  0  0  0  0  0  0  0  0  0  0
   22.1584  -19.7371  -12.8571 C   0  0  0  0  0  0  0  0  0  0  0  0
   22.1645  -18.4822  -12.6556 O   0  0  0  0  0  0  0  0  0  0  0  0
   21.8338  -18.7972  -18.2798 C   0  0  0  0  0  0  0  0  0  0  0  0
   23.1834  -19.1418  -17.6364 C   0  0  2  0  0  0  0  0  0  0  0  0
   24.1693  -19.6907  -18.5922 C   0  0  0  0  0  0  0  0  0  0  0  0
   23.0262  -19.8240  -16.3334 C   0  0  0  0  0  0  0  0  0  0  0  0
   22.0661  -19.2712  -15.3503 C   0  0  2  0  0  0  0  0  0  0  0  0
   22.1356  -20.1885  -14.1836 N   0  0  0  0  0  0  0  0  0  0  0  0
   20.6837  -19.0945  -15.7745 C   0  0  0  0  0  0  0  0  0  0  0  0
   20.2139  -17.7952  -16.0552 O   0  0  0  0  0  0  0  0  0  0  0  0
   19.8399  -20.0020  -15.9217 O   0  0  0  0  0  0  0  0  0  0  0  0
  2  1  1  0
  3  2  2  0
  4  3  1  0
  5 11  1  0
  5  4  2  0
  6  5  1  0
  7  8  1  6
  7  6  1  0
  9  7  1  0
 10  9  2  0
 11 12  2  0
 12  2  1  0
 13 14  1  0
 14 15  2  0
 16 14  1  0
 17 16  1  1
 17 18  1  0
 18  9  1  0
 19 26  1  0
 19 17  1  0
 20 19  2  0
 22 21  1  6
 22 23  1  0
 24 22  1  0
 25 24  1  6
 25 26  1  0
 27 25  1  0
 28 27  1  0
 29 27  2  0
M  END
$$$$
