YNL.pdb
     RDKit          3D

 29 29  0  0  1  0  0  0  0  0999 V2000
   23.7530  -13.4796  -23.2385 O   0  0  0  0  0  0  0  0  0  0  0  0
   22.9002  -12.6704  -22.5139 C   0  0  0  0  0  0  0  0  0  0  0  0
   23.3704  -11.7122  -21.6543 C   0  0  0  0  0  0  0  0  0  0  0  0
   22.5057  -10.9055  -20.9318 C   0  0  0  0  0  0  0  0  0  0  0  0
   21.1418  -11.0360  -21.0500 C   0  0  0  0  0  0  0  0  0  0  0  0
   20.1926  -10.1974  -20.2983 C   0  0  0  0  0  0  0  0  0  0  0  0
   20.1490  -10.3993  -18.8313 C   0  0  2  0  0  0  0  0  0  0  0  0
   19.4842  -11.7125  -18.6213 N   0  0  0  0  0  0  0  0  0  0  0  0
   19.4235   -9.4474  -18.0198 C   0  0  0  0  0  0  0  0  0  0  0  0
   18.1613   -9.4737  -17.9286 O   0  0  0  0  0  0  0  0  0  0  0  0
   20.6806  -12.0051  -21.9194 C   0  0  0  0  0  0  0  0  0  0  0  0
   21.5290  -12.8175  -22.6470 C   0  0  0  0  0  0  0  0  0  0  0  0
   17.8437   -9.3993  -15.0953 N   0  0  0  0  0  0  0  0  0  0  0  0
   18.7199   -8.5155  -14.4519 C   0  0  0  0  0  0  0  0  0  0  0  0
   18.8769   -8.6840  -13.1971 O   0  0  0  0  0  0  0  0  0  0  0  0
   19.4791   -7.4093  -15.0832 C   0  0  0  0  0  0  0  0  0  0  0  0
   19.3023   -7.3876  -16.5803 C   0  0  2  0  0  0  0  0  0  0  0  0
   20.0331   -8.4128  -17.2556 N   0  0  0  0  0  0  0  0  0  0  0  0
   19.4873   -6.0234  -17.1199 C   0  0  0  0  0  0  0  0  0  0  0  0
   20.6232   -5.5530  -17.4426 O   0  0  0  0  0  0  0  0  0  0  0  0
   17.7553   -3.8570  -20.6753 C   0  0  0  0  0  0  0  0  0  0  0  0
   16.6964   -4.0609  -19.5838 C   0  0  2  0  0  0  0  0  0  0  0  0
   15.3147   -3.8127  -20.0488 C   0  0  0  0  0  0  0  0  0  0  0  0
   17.1071   -3.4789  -18.2874 C   0  0  0  0  0  0  0  0  0  0  0  0
   18.4542   -3.7949  -17.7586 C   0  0  2  0  0  0  0  0  0  0  0  0
   18.3648   -5.2015  -17.2883 N   0  0  0  0  0  0  0  0  0  0  0  0
   18.9895   -2.9416  -16.7064 C   0  0  0  0  0  0  0  0  0  0  0  0
   19.5104   -1.6769  -17.0484 O   0  0  0  0  0  0  0  0  0  0  0  0
   19.0387   -3.2192  -15.4907 O   0  0  0  0  0  0  0  0  0  0  0  0
  2  1  1  0
  3  2  2  0
  4  3  1  0
  5 11  1  0
  5  4  2  0
  6  5  1  0
  7  8  1  6
  7  6  1  0
  9  7  1  0
 10  9  2  0
 11 12  2  0
 12  2  1  0
 13 14  1  0
 14 15  2  0
 16 14  1  0
 17 16  1  1
 17 18  1  0
 18  9  1  0
 19 26  1  0
 19 17  1  0
 20 19  2  0
 22 21  1  6
 22 23  1  0
 24 22  1  0
 25 24  1  1
 25 26  1  0
 27 25  1  0
 28 27  1  0
 29 27  2  0
M  END
$$$$
