YNL.pdb
     RDKit          3D

 29 29  0  0  1  0  0  0  0  0999 V2000
   28.7449  -19.6573   -5.4607 O   0  0  0  0  0  0  0  0  0  0  0  0
   28.2547  -19.7459   -6.7488 C   0  0  0  0  0  0  0  0  0  0  0  0
   26.9102  -19.7195   -7.0132 C   0  0  0  0  0  0  0  0  0  0  0  0
   26.4290  -19.8093   -8.3096 C   0  0  0  0  0  0  0  0  0  0  0  0
   27.2829  -19.9284   -9.3810 C   0  0  0  0  0  0  0  0  0  0  0  0
   26.8081  -20.0268  -10.7718 C   0  0  0  0  0  0  0  0  0  0  0  0
   26.2065  -21.3189  -11.1759 C   0  0  2  0  0  0  0  0  0  0  0  0
   27.3047  -22.0995  -11.8047 N   0  0  0  0  0  0  0  0  0  0  0  0
   25.1209  -21.3116  -12.1311 C   0  0  0  0  0  0  0  0  0  0  0  0
   25.3192  -21.1111  -13.3650 O   0  0  0  0  0  0  0  0  0  0  0  0
   28.6352  -19.9538   -9.1014 C   0  0  0  0  0  0  0  0  0  0  0  0
   29.1315  -19.8654   -7.8149 C   0  0  0  0  0  0  0  0  0  0  0  0
   19.1412  -21.9826  -13.3219 N   0  0  0  0  0  0  0  0  0  0  0  0
   20.4869  -22.3465  -13.4620 C   0  0  0  0  0  0  0  0  0  0  0  0
   20.8577  -22.7141  -14.6260 O   0  0  0  0  0  0  0  0  0  0  0  0
   21.5171  -22.3459  -12.3956 C   0  0  0  0  0  0  0  0  0  0  0  0
   22.6842  -21.4560  -12.7406 C   0  0  2  0  0  0  0  0  0  0  0  0
   23.7543  -21.5276  -11.7967 N   0  0  0  0  0  0  0  0  0  0  0  0
   22.2320  -20.0890  -13.0767 C   0  0  0  0  0  0  0  0  0  0  0  0
   22.5740  -19.0617  -12.4109 O   0  0  0  0  0  0  0  0  0  0  0  0
   22.0845  -17.0416  -17.3827 C   0  0  0  0  0  0  0  0  0  0  0  0
   23.0171  -17.1679  -16.1708 C   0  0  2  0  0  0  0  0  0  0  0  0
   24.4307  -16.8631  -16.4801 C   0  0  0  0  0  0  0  0  0  0  0  0
   22.7279  -18.3730  -15.3632 C   0  0  0  0  0  0  0  0  0  0  0  0
   21.3295  -18.6380  -14.9533 C   0  0  2  0  0  0  0  0  0  0  0  0
   21.3867  -19.9049  -14.1792 N   0  0  0  0  0  0  0  0  0  0  0  0
   20.3193  -18.7281  -15.9990 C   0  0  0  0  0  0  0  0  0  0  0  0
   19.3780  -17.6873  -16.1339 O   0  0  0  0  0  0  0  0  0  0  0  0
   20.1926  -19.6611  -16.8181 O   0  0  0  0  0  0  0  0  0  0  0  0
  2  1  1  0
  3  2  2  0
  4  3  1  0
  5 11  1  0
  5  4  2  0
  6  5  1  0
  7  8  1  6
  7  6  1  0
  9  7  1  0
 10  9  2  0
 11 12  2  0
 12  2  1  0
 13 14  1  0
 14 15  2  0
 16 14  1  0
 17 16  1  1
 17 18  1  0
 18  9  1  0
 19 26  1  0
 19 17  1  0
 20 19  2  0
 22 21  1  6
 22 23  1  0
 24 22  1  0
 25 24  1  6
 25 26  1  0
 27 25  1  0
 28 27  1  0
 29 27  2  0
M  END
$$$$
