YNL.pdb
     RDKit          3D

 29 29  0  0  1  0  0  0  0  0999 V2000
   27.4944  -13.2332  -16.9253 O   0  0  0  0  0  0  0  0  0  0  0  0
   26.3314  -12.4886  -16.9407 C   0  0  0  0  0  0  0  0  0  0  0  0
   26.1919  -11.3837  -17.7395 C   0  0  0  0  0  0  0  0  0  0  0  0
   25.0204  -10.6435  -17.7472 C   0  0  0  0  0  0  0  0  0  0  0  0
   23.9524  -10.9898  -16.9530 C   0  0  0  0  0  0  0  0  0  0  0  0
   22.6925  -10.2272  -16.9344 C   0  0  0  0  0  0  0  0  0  0  0  0
   22.7109   -8.9364  -16.2075 C   0  0  2  0  0  0  0  0  0  0  0  0
   22.8782   -9.2812  -14.7709 N   0  0  0  0  0  0  0  0  0  0  0  0
   21.5481   -8.0800  -16.2822 C   0  0  0  0  0  0  0  0  0  0  0  0
   21.0961   -7.6635  -17.3886 O   0  0  0  0  0  0  0  0  0  0  0  0
   24.1055  -12.1050  -16.1528 C   0  0  0  0  0  0  0  0  0  0  0  0
   25.2665  -12.8539  -16.1332 C   0  0  0  0  0  0  0  0  0  0  0  0
   19.4892   -7.9022  -12.5814 N   0  0  0  0  0  0  0  0  0  0  0  0
   18.4091   -7.9743  -13.4708 C   0  0  0  0  0  0  0  0  0  0  0  0
   17.3523   -8.5417  -13.0363 O   0  0  0  0  0  0  0  0  0  0  0  0
   18.3740   -7.4582  -14.8604 C   0  0  0  0  0  0  0  0  0  0  0  0
   19.6642   -6.7774  -15.2411 C   0  0  2  0  0  0  0  0  0  0  0  0
   20.8066   -7.6308  -15.1532 N   0  0  0  0  0  0  0  0  0  0  0  0
   19.8000   -5.4720  -14.5600 C   0  0  0  0  0  0  0  0  0  0  0  0
   20.6167   -5.2679  -13.6077 O   0  0  0  0  0  0  0  0  0  0  0  0
   20.4907   -0.2848  -15.1954 C   0  0  0  0  0  0  0  0  0  0  0  0
   21.3322   -1.4731  -14.7116 C   0  0  2  0  0  0  0  0  0  0  0  0
   22.7770   -1.3246  -14.9894 C   0  0  0  0  0  0  0  0  0  0  0  0
   20.6967   -2.7730  -15.0188 C   0  0  0  0  0  0  0  0  0  0  0  0
   19.2852   -2.9876  -14.6244 C   0  0  2  0  0  0  0  0  0  0  0  0
   18.9961   -4.4021  -14.9757 N   0  0  0  0  0  0  0  0  0  0  0  0
   18.2769   -2.1066  -15.1982 C   0  0  0  0  0  0  0  0  0  0  0  0
   17.6445   -2.4808  -16.4014 O   0  0  0  0  0  0  0  0  0  0  0  0
   17.8987   -1.0167  -14.7223 O   0  0  0  0  0  0  0  0  0  0  0  0
  2  1  1  0
  3  2  2  0
  4  3  1  0
  5 11  1  0
  5  4  2  0
  6  5  1  0
  7  8  1  1
  7  6  1  0
  9  7  1  0
 10  9  2  0
 11 12  2  0
 12  2  1  0
 13 14  1  0
 14 15  2  0
 16 14  1  0
 17 16  1  1
 17 18  1  0
 18  9  1  0
 19 26  1  0
 19 17  1  0
 20 19  2  0
 22 21  1  6
 22 23  1  0
 24 22  1  0
 25 24  1  6
 25 26  1  0
 27 25  1  0
 28 27  1  0
 29 27  2  0
M  END
$$$$
