YNL.pdb
     RDKit          3D

 29 29  0  0  1  0  0  0  0  0999 V2000
   30.4332  -21.2175   -9.5231 O   0  0  0  0  0  0  0  0  0  0  0  0
   29.3879  -20.9279  -10.3779 C   0  0  0  0  0  0  0  0  0  0  0  0
   28.1174  -21.3864  -10.1462 C   0  0  0  0  0  0  0  0  0  0  0  0
   27.0756  -21.0900  -11.0106 C   0  0  0  0  0  0  0  0  0  0  0  0
   27.2772  -20.3238  -12.1347 C   0  0  0  0  0  0  0  0  0  0  0  0
   26.1949  -19.9889  -13.0759 C   0  0  0  0  0  0  0  0  0  0  0  0
   25.5313  -21.1270  -13.7535 C   0  0  2  0  0  0  0  0  0  0  0  0
   26.5462  -21.6973  -14.6784 N   0  0  0  0  0  0  0  0  0  0  0  0
   24.3565  -20.8691  -14.5561 C   0  0  0  0  0  0  0  0  0  0  0  0
   24.4054  -20.1563  -15.6008 O   0  0  0  0  0  0  0  0  0  0  0  0
   28.5618  -19.8678  -12.3569 C   0  0  0  0  0  0  0  0  0  0  0  0
   29.6115  -20.1542  -11.5053 C   0  0  0  0  0  0  0  0  0  0  0  0
   23.5832  -22.2774  -17.1023 N   0  0  0  0  0  0  0  0  0  0  0  0
   22.3446  -22.8407  -16.7683 C   0  0  0  0  0  0  0  0  0  0  0  0
   22.0309  -23.9207  -17.3704 O   0  0  0  0  0  0  0  0  0  0  0  0
   21.3679  -22.3073  -15.7884 C   0  0  0  0  0  0  0  0  0  0  0  0
   21.9025  -21.1002  -15.0604 C   0  0  2  0  0  0  0  0  0  0  0  0
   23.0586  -21.3779  -14.2683 N   0  0  0  0  0  0  0  0  0  0  0  0
   20.8197  -20.3760  -14.3609 C   0  0  0  0  0  0  0  0  0  0  0  0
   20.4425  -20.6624  -13.1814 O   0  0  0  0  0  0  0  0  0  0  0  0
   19.9164  -16.3058  -12.6794 C   0  0  0  0  0  0  0  0  0  0  0  0
   20.1135  -16.2313  -14.1992 C   0  0  2  0  0  0  0  0  0  0  0  0
   20.2334  -14.8493  -14.7113 C   0  0  0  0  0  0  0  0  0  0  0  0
   19.2275  -17.1663  -14.9266 C   0  0  0  0  0  0  0  0  0  0  0  0
   19.0640  -18.5437  -14.4071 C   0  0  2  0  0  0  0  0  0  0  0  0
   20.1718  -19.3220  -15.0192 N   0  0  0  0  0  0  0  0  0  0  0  0
   17.7892  -19.2104  -14.6361 C   0  0  0  0  0  0  0  0  0  0  0  0
   17.6587  -20.0795  -15.7385 O   0  0  0  0  0  0  0  0  0  0  0  0
   16.7628  -19.0909  -13.9364 O   0  0  0  0  0  0  0  0  0  0  0  0
  2  1  1  0
  3  2  2  0
  4  3  1  0
  5 11  1  0
  5  4  2  0
  6  5  1  0
  7  8  1  6
  7  6  1  0
  9  7  1  0
 10  9  2  0
 11 12  2  0
 12  2  1  0
 13 14  1  0
 14 15  2  0
 16 14  1  0
 17 16  1  1
 17 18  1  0
 18  9  1  0
 19 26  1  0
 19 17  1  0
 20 19  2  0
 22 21  1  1
 22 23  1  0
 24 22  1  0
 25 24  1  6
 25 26  1  0
 27 25  1  0
 28 27  1  0
 29 27  2  0
M  END
$$$$
