YNL.pdb
     RDKit          3D

 29 29  0  0  1  0  0  0  0  0999 V2000
   15.3215  -16.3225  -15.5999 O   0  0  0  0  0  0  0  0  0  0  0  0
   16.0848  -15.1728  -15.6518 C   0  0  0  0  0  0  0  0  0  0  0  0
   17.1886  -15.0023  -14.8575 C   0  0  0  0  0  0  0  0  0  0  0  0
   17.9475  -13.8443  -14.9175 C   0  0  0  0  0  0  0  0  0  0  0  0
   17.6217  -12.8215  -15.7770 C   0  0  0  0  0  0  0  0  0  0  0  0
   18.4040  -11.5768  -15.8678 C   0  0  0  0  0  0  0  0  0  0  0  0
   19.0923  -11.3202  -17.1544 C   0  0  2  0  0  0  0  0  0  0  0  0
   20.2586  -12.2419  -17.1824 N   0  0  0  0  0  0  0  0  0  0  0  0
   19.6192   -9.9979  -17.4091 C   0  0  0  0  0  0  0  0  0  0  0  0
   20.7181   -9.6108  -16.9145 O   0  0  0  0  0  0  0  0  0  0  0  0
   16.5074  -13.0054  -16.5720 C   0  0  0  0  0  0  0  0  0  0  0  0
   15.7400  -14.1535  -16.5246 C   0  0  0  0  0  0  0  0  0  0  0  0
   20.8869   -6.4672  -20.4973 N   0  0  0  0  0  0  0  0  0  0  0  0
   19.4973   -6.3192  -20.3979 C   0  0  0  0  0  0  0  0  0  0  0  0
   18.9283   -5.6588  -21.3293 O   0  0  0  0  0  0  0  0  0  0  0  0
   18.6276   -6.8522  -19.3217 C   0  0  0  0  0  0  0  0  0  0  0  0
   19.4074   -7.6607  -18.3160 C   0  0  2  0  0  0  0  0  0  0  0  0
   18.9799   -9.0207  -18.2232 N   0  0  0  0  0  0  0  0  0  0  0  0
   19.5169   -6.9460  -17.0263 C   0  0  0  0  0  0  0  0  0  0  0  0
   19.6175   -7.5429  -15.9086 O   0  0  0  0  0  0  0  0  0  0  0  0
   23.6534   -4.7797  -14.7232 C   0  0  0  0  0  0  0  0  0  0  0  0
   22.1425   -4.6268  -14.5042 C   0  0  2  0  0  0  0  0  0  0  0  0
   21.7223   -4.8629  -13.1061 C   0  0  0  0  0  0  0  0  0  0  0  0
   21.3521   -5.2601  -15.5824 C   0  0  0  0  0  0  0  0  0  0  0  0
   19.9989   -4.7349  -15.8773 C   0  0  2  0  0  0  0  0  0  0  0  0
   19.5110   -5.5446  -17.0235 N   0  0  0  0  0  0  0  0  0  0  0  0
   19.8694   -3.3135  -16.1691 C   0  0  0  0  0  0  0  0  0  0  0  0
   19.3372   -2.4574  -15.1835 O   0  0  0  0  0  0  0  0  0  0  0  0
   20.1902   -2.7516  -17.2362 O   0  0  0  0  0  0  0  0  0  0  0  0
  2  1  1  0
  3  2  2  0
  4  3  1  0
  5 11  1  0
  5  4  2  0
  6  5  1  0
  7  8  1  1
  7  6  1  0
  9  7  1  0
 10  9  2  0
 11 12  2  0
 12  2  1  0
 13 14  1  0
 14 15  2  0
 16 14  1  0
 17 16  1  6
 17 18  1  0
 18  9  1  0
 19 26  1  0
 19 17  1  0
 20 19  2  0
 22 21  1  1
 22 23  1  0
 24 22  1  0
 25 24  1  6
 25 26  1  0
 27 25  1  0
 28 27  1  0
 29 27  2  0
M  END
$$$$
