VAQ.pdb
     RDKit          3D

 22 21  0  0  1  0  0  0  0  0999 V2000
    8.7254  -15.3417   19.7817 C   0  0  0  0  0  0  0  0  0  0  0  0
    7.4390  -14.5556   19.7657 C   0  0  2  0  0  0  0  0  0  0  0  0
    6.9025  -14.3657   18.3816 C   0  0  0  0  0  0  0  0  0  0  0  0
    7.7263  -13.2106   20.4458 C   0  0  2  0  0  0  0  0  0  0  0  0
    8.8032  -12.6051   19.7122 N   0  0  0  0  0  0  0  0  0  0  0  0
    8.1914  -13.5095   21.8271 C   0  0  0  0  0  0  0  0  0  0  0  0
    9.3924  -13.7866   22.0965 O   0  0  0  0  0  0  0  0  0  0  0  0
    6.6217  -13.5445   25.3046 C   0  0  0  0  0  0  0  0  0  0  0  0
    7.6853  -13.8506   24.2756 C   0  0  2  0  0  0  0  0  0  0  0  0
    7.2945  -13.4998   22.9402 N   0  0  0  0  0  0  0  0  0  0  0  0
    8.2031  -15.2240   24.3946 C   0  0  0  0  0  0  0  0  0  0  0  0
    7.5647  -16.1817   23.9238 O   0  0  0  0  0  0  0  0  0  0  0  0
   13.5788  -16.2744   21.7446 N   0  0  0  0  0  0  0  0  0  0  0  0
   13.1207  -16.2060   23.0709 C   0  0  0  0  0  0  0  0  0  0  0  0
   13.9322  -16.0499   24.0157 O   0  0  0  0  0  0  0  0  0  0  0  0
   11.6797  -16.3118   23.4311 C   0  0  0  0  0  0  0  0  0  0  0  0
   11.4727  -16.7107   24.8485 C   0  0  0  0  0  0  0  0  0  0  0  0
   10.0154  -16.7821   25.2254 C   0  0  2  0  0  0  0  0  0  0  0  0
    9.4300  -15.4489   25.0469 N   0  0  0  0  0  0  0  0  0  0  0  0
    9.7364  -17.2306   26.5820 C   0  0  0  0  0  0  0  0  0  0  0  0
    9.9969  -18.4363   26.8958 O   0  0  0  0  0  0  0  0  0  0  0  0
    9.1921  -16.3618   27.5385 O   0  0  0  0  0  0  0  0  0  0  0  0
  2  3  1  6
  2  1  1  0
  4  2  1  0
  4  5  1  6
  6 10  1  0
  6  4  1  0
  7  6  2  0
  9 10  1  0
  9  8  1  1
 11  9  1  0
 11 19  1  0
 12 11  2  0
 14 13  1  0
 14 15  2  0
 16 14  1  0
 16 17  1  0
 18 17  1  1
 18 19  1  0
 18 20  1  0
 20 21  2  0
 20 22  1  0
M  END
$$$$
