VAQ.pdb
     RDKit          3D

 22 21  0  0  1  0  0  0  0  0999 V2000
    6.0893  -11.8404   27.3533 C   0  0  0  0  0  0  0  0  0  0  0  0
    7.0022  -12.6891   26.5051 C   0  0  2  0  0  0  0  0  0  0  0  0
    7.9426  -11.8679   25.6800 C   0  0  0  0  0  0  0  0  0  0  0  0
    6.1065  -13.5707   25.6250 C   0  0  2  0  0  0  0  0  0  0  0  0
    5.3493  -14.4025   26.5191 N   0  0  0  0  0  0  0  0  0  0  0  0
    7.0054  -14.4315   24.8099 C   0  0  0  0  0  0  0  0  0  0  0  0
    7.7478  -15.3156   25.3188 O   0  0  0  0  0  0  0  0  0  0  0  0
    7.8628  -14.7464   21.0993 C   0  0  0  0  0  0  0  0  0  0  0  0
    7.9532  -15.0945   22.5672 C   0  0  2  0  0  0  0  0  0  0  0  0
    7.0804  -14.3049   23.3880 N   0  0  0  0  0  0  0  0  0  0  0  0
    9.3434  -15.1290   23.0515 C   0  0  0  0  0  0  0  0  0  0  0  0
   10.0241  -14.0889   23.0892 O   0  0  0  0  0  0  0  0  0  0  0  0
   11.2928  -17.6083   28.1212 N   0  0  0  0  0  0  0  0  0  0  0  0
   10.5565  -18.3607   27.1910 C   0  0  0  0  0  0  0  0  0  0  0  0
    9.9065  -19.3684   27.5619 O   0  0  0  0  0  0  0  0  0  0  0  0
   10.5017  -18.0194   25.7426 C   0  0  0  0  0  0  0  0  0  0  0  0
   11.2564  -16.7799   25.4186 C   0  0  0  0  0  0  0  0  0  0  0  0
   11.2850  -16.4862   23.9408 C   0  0  2  0  0  0  0  0  0  0  0  0
    9.9009  -16.3505   23.4737 N   0  0  0  0  0  0  0  0  0  0  0  0
   11.9558  -17.4786   23.1137 C   0  0  0  0  0  0  0  0  0  0  0  0
   13.2106  -17.6440   23.2493 O   0  0  0  0  0  0  0  0  0  0  0  0
   11.2466  -18.2483   22.1805 O   0  0  0  0  0  0  0  0  0  0  0  0
  2  3  1  6
  2  1  1  0
  4  2  1  0
  4  5  1  1
  6 10  1  0
  6  4  1  0
  7  6  2  0
  9 10  1  0
  9  8  1  6
 11  9  1  0
 11 19  1  0
 12 11  2  0
 14 13  1  0
 14 15  2  0
 16 14  1  0
 16 17  1  0
 18 17  1  1
 18 19  1  0
 18 20  1  0
 20 21  2  0
 20 22  1  0
M  END
$$$$
