VAQ.pdb
     RDKit          3D

 22 21  0  0  1  0  0  0  0  0999 V2000
    8.2275  -12.7298   17.7958 C   0  0  0  0  0  0  0  0  0  0  0  0
    8.2011  -13.4055   19.1433 C   0  0  2  0  0  0  0  0  0  0  0  0
    9.1218  -12.7545   20.1271 C   0  0  0  0  0  0  0  0  0  0  0  0
    8.5725  -14.8766   18.9152 C   0  0  2  0  0  0  0  0  0  0  0  0
    7.6671  -15.3752   17.9171 N   0  0  0  0  0  0  0  0  0  0  0  0
    8.3232  -15.5941   20.1945 C   0  0  0  0  0  0  0  0  0  0  0  0
    7.1778  -15.6772   20.7169 O   0  0  0  0  0  0  0  0  0  0  0  0
    9.8951  -18.2691   22.1975 C   0  0  0  0  0  0  0  0  0  0  0  0
    9.1828  -16.9371   22.1503 C   0  0  2  0  0  0  0  0  0  0  0  0
    9.3785  -16.2375   20.9128 N   0  0  0  0  0  0  0  0  0  0  0  0
    9.4534  -16.1131   23.3403 C   0  0  0  0  0  0  0  0  0  0  0  0
   10.4988  -15.4444   23.4200 O   0  0  0  0  0  0  0  0  0  0  0  0
    5.2076  -12.6469   25.8414 N   0  0  0  0  0  0  0  0  0  0  0  0
    6.1592  -12.6556   26.8748 C   0  0  0  0  0  0  0  0  0  0  0  0
    6.1362  -11.7723   27.7664 O   0  0  0  0  0  0  0  0  0  0  0  0
    7.2285  -13.6869   26.9757 C   0  0  0  0  0  0  0  0  0  0  0  0
    7.2485  -14.6057   25.8068 C   0  0  0  0  0  0  0  0  0  0  0  0
    8.6185  -15.1718   25.5356 C   0  0  2  0  0  0  0  0  0  0  0  0
    8.5186  -16.0857   24.3924 N   0  0  0  0  0  0  0  0  0  0  0  0
    9.2365  -15.8852   26.6439 C   0  0  0  0  0  0  0  0  0  0  0  0
    9.0898  -17.1473   26.7197 O   0  0  0  0  0  0  0  0  0  0  0  0
    9.9848  -15.2091   27.6181 O   0  0  0  0  0  0  0  0  0  0  0  0
  2  3  1  1
  2  1  1  0
  4  2  1  0
  4  5  1  6
  6 10  1  0
  6  4  1  0
  7  6  2  0
  9 10  1  0
  9  8  1  6
 11  9  1  0
 11 19  1  0
 12 11  2  0
 14 13  1  0
 14 15  2  0
 16 14  1  0
 16 17  1  0
 18 17  1  1
 18 19  1  0
 18 20  1  0
 20 21  2  0
 20 22  1  0
M  END
$$$$
