VAQ.pdb
     RDKit          3D

 22 21  0  0  1  0  0  0  0  0999 V2000
    7.8439  -14.5201   16.4765 C   0  0  0  0  0  0  0  0  0  0  0  0
    8.4739  -14.7784   17.8217 C   0  0  2  0  0  0  0  0  0  0  0  0
    8.2635  -16.1839   18.2907 C   0  0  0  0  0  0  0  0  0  0  0  0
    7.8715  -13.7634   18.8019 C   0  0  2  0  0  0  0  0  0  0  0  0
    8.1527  -12.4611   18.2636 N   0  0  0  0  0  0  0  0  0  0  0  0
    8.5955  -13.9188   20.0924 C   0  0  0  0  0  0  0  0  0  0  0  0
    9.8257  -13.6685   20.2178 O   0  0  0  0  0  0  0  0  0  0  0  0
    7.6236  -14.7637   23.6835 C   0  0  0  0  0  0  0  0  0  0  0  0
    8.5852  -14.5049   22.5468 C   0  0  2  0  0  0  0  0  0  0  0  0
    7.9316  -14.3654   21.2770 N   0  0  0  0  0  0  0  0  0  0  0  0
    9.7047  -15.4614   22.5294 C   0  0  0  0  0  0  0  0  0  0  0  0
    9.5849  -16.5622   21.9637 O   0  0  0  0  0  0  0  0  0  0  0  0
   15.2339  -14.3329   20.8965 N   0  0  0  0  0  0  0  0  0  0  0  0
   15.5299  -15.3920   21.7708 C   0  0  0  0  0  0  0  0  0  0  0  0
   16.6299  -15.9914   21.6924 O   0  0  0  0  0  0  0  0  0  0  0  0
   14.5816  -15.8589   22.8196 C   0  0  0  0  0  0  0  0  0  0  0  0
   13.3004  -15.1043   22.8086 C   0  0  0  0  0  0  0  0  0  0  0  0
   12.1105  -15.9742   23.1222 C   0  0  2  0  0  0  0  0  0  0  0  0
   10.9169  -15.1221   23.1593 N   0  0  0  0  0  0  0  0  0  0  0  0
   12.1852  -16.7181   24.3712 C   0  0  0  0  0  0  0  0  0  0  0  0
   11.4943  -16.3219   25.3641 O   0  0  0  0  0  0  0  0  0  0  0  0
   12.9977  -17.8543   24.4945 O   0  0  0  0  0  0  0  0  0  0  0  0
  2  3  1  1
  2  1  1  0
  4  2  1  0
  4  5  1  6
  6 10  1  0
  6  4  1  0
  7  6  2  0
  9 10  1  0
  9  8  1  1
 11  9  1  0
 11 19  1  0
 12 11  2  0
 14 13  1  0
 14 15  2  0
 16 14  1  0
 16 17  1  0
 18 17  1  1
 18 19  1  0
 18 20  1  0
 20 21  2  0
 20 22  1  0
M  END
$$$$
