VAQ.pdb
     RDKit          3D

 22 21  0  0  1  0  0  0  0  0999 V2000
    7.4357  -13.3805   21.0807 C   0  0  0  0  0  0  0  0  0  0  0  0
    8.4375  -13.4839   19.9587 C   0  0  2  0  0  0  0  0  0  0  0  0
    8.1274  -12.5535   18.8284 C   0  0  0  0  0  0  0  0  0  0  0  0
    8.4441  -14.9468   19.4962 C   0  0  2  0  0  0  0  0  0  0  0  0
    7.1492  -15.1998   18.9270 N   0  0  0  0  0  0  0  0  0  0  0  0
    8.6100  -15.7890   20.7114 C   0  0  0  0  0  0  0  0  0  0  0  0
    7.6703  -16.0028   21.5256 O   0  0  0  0  0  0  0  0  0  0  0  0
   11.1205  -18.2398   22.0806 C   0  0  0  0  0  0  0  0  0  0  0  0
   10.0900  -17.1459   22.2398 C   0  0  2  0  0  0  0  0  0  0  0  0
    9.8572  -16.4110   21.0295 N   0  0  0  0  0  0  0  0  0  0  0  0
   10.3579  -16.2876   23.4061 C   0  0  0  0  0  0  0  0  0  0  0  0
   11.0204  -15.2427   23.2812 O   0  0  0  0  0  0  0  0  0  0  0  0
    7.4773  -11.9681   27.9523 N   0  0  0  0  0  0  0  0  0  0  0  0
    7.6205  -13.0033   27.0135 C   0  0  0  0  0  0  0  0  0  0  0  0
    6.7717  -13.1550   26.1012 O   0  0  0  0  0  0  0  0  0  0  0  0
    8.7594  -13.9622   27.0402 C   0  0  0  0  0  0  0  0  0  0  0  0
    8.7637  -14.8773   25.8682 C   0  0  0  0  0  0  0  0  0  0  0  0
    9.9545  -15.8009   25.8561 C   0  0  2  0  0  0  0  0  0  0  0  0
    9.8581  -16.6573   24.6689 N   0  0  0  0  0  0  0  0  0  0  0  0
   10.1043  -16.6516   27.0278 C   0  0  0  0  0  0  0  0  0  0  0  0
    9.6655  -17.8455   26.9798 O   0  0  0  0  0  0  0  0  0  0  0  0
   10.7204  -16.1802   28.1959 O   0  0  0  0  0  0  0  0  0  0  0  0
  2  3  1  6
  2  1  1  0
  4  2  1  0
  4  5  1  1
  6 10  1  0
  6  4  1  0
  7  6  2  0
  9 10  1  0
  9  8  1  6
 11  9  1  0
 11 19  1  0
 12 11  2  0
 14 13  1  0
 14 15  2  0
 16 14  1  0
 16 17  1  0
 18 17  1  1
 18 19  1  0
 18 20  1  0
 20 21  2  0
 20 22  1  0
M  END
$$$$
