VAQ.pdb
     RDKit          3D

 22 21  0  0  1  0  0  0  0  0999 V2000
   11.1587  -16.1441   19.8141 C   0  0  0  0  0  0  0  0  0  0  0  0
   11.0318  -16.4240   21.2901 C   0  0  2  0  0  0  0  0  0  0  0  0
   12.3328  -16.2737   22.0141 C   0  0  0  0  0  0  0  0  0  0  0  0
   10.4719  -17.8455   21.4310 C   0  0  2  0  0  0  0  0  0  0  0  0
    9.2612  -17.8848   20.6581 N   0  0  0  0  0  0  0  0  0  0  0  0
   10.1345  -18.0425   22.8666 C   0  0  0  0  0  0  0  0  0  0  0  0
    9.4599  -17.2069   23.5287 O   0  0  0  0  0  0  0  0  0  0  0  0
   10.4336  -20.8333   25.4213 C   0  0  0  0  0  0  0  0  0  0  0  0
   10.3407  -19.3873   24.9918 C   0  0  2  0  0  0  0  0  0  0  0  0
   10.5600  -19.2023   23.5858 N   0  0  0  0  0  0  0  0  0  0  0  0
   11.1558  -18.4974   25.8357 C   0  0  0  0  0  0  0  0  0  0  0  0
   12.3121  -18.1910   25.4962 O   0  0  0  0  0  0  0  0  0  0  0  0
    8.3569  -13.5234   26.7194 N   0  0  0  0  0  0  0  0  0  0  0  0
    9.3291  -13.9477   27.6405 C   0  0  0  0  0  0  0  0  0  0  0  0
    9.9906  -13.1074   28.2977 O   0  0  0  0  0  0  0  0  0  0  0  0
    9.6291  -15.3848   27.8895 C   0  0  0  0  0  0  0  0  0  0  0  0
   11.0635  -15.7144   27.6777 C   0  0  0  0  0  0  0  0  0  0  0  0
   11.3777  -17.1587   27.9713 C   0  0  2  0  0  0  0  0  0  0  0  0
   10.6172  -17.9928   27.0343 N   0  0  0  0  0  0  0  0  0  0  0  0
   11.0868  -17.6042   29.3263 C   0  0  0  0  0  0  0  0  0  0  0  0
   10.1393  -18.4342   29.5095 O   0  0  0  0  0  0  0  0  0  0  0  0
   11.8289  -17.1383   30.4210 O   0  0  0  0  0  0  0  0  0  0  0  0
  2  3  1  1
  2  1  1  0
  4  2  1  0
  4  5  1  6
  6 10  1  0
  6  4  1  0
  7  6  2  0
  9 10  1  0
  9  8  1  1
 11  9  1  0
 11 19  1  0
 12 11  2  0
 14 13  1  0
 14 15  2  0
 16 14  1  0
 16 17  1  0
 18 17  1  1
 18 19  1  0
 18 20  1  0
 20 21  2  0
 20 22  1  0
M  END
$$$$
