VAQ.pdb
     RDKit          3D

 22 21  0  0  1  0  0  0  0  0999 V2000
    6.6454  -14.6278   19.9558 C   0  0  0  0  0  0  0  0  0  0  0  0
    7.4573  -15.1637   21.1076 C   0  0  2  0  0  0  0  0  0  0  0  0
    7.5419  -14.1963   22.2462 C   0  0  0  0  0  0  0  0  0  0  0  0
    8.8479  -15.5050   20.5563 C   0  0  2  0  0  0  0  0  0  0  0  0
    8.6406  -16.4134   19.4625 N   0  0  0  0  0  0  0  0  0  0  0  0
    9.5858  -16.2119   21.6376 C   0  0  0  0  0  0  0  0  0  0  0  0
    9.3598  -17.4151   21.9425 O   0  0  0  0  0  0  0  0  0  0  0  0
   12.4610  -15.3582   24.0000 C   0  0  0  0  0  0  0  0  0  0  0  0
   11.3222  -16.1975   23.4685 C   0  0  2  0  0  0  0  0  0  0  0  0
   10.6040  -15.5614   22.4015 N   0  0  0  0  0  0  0  0  0  0  0  0
   10.4513  -16.7062   24.5415 C   0  0  0  0  0  0  0  0  0  0  0  0
    9.3648  -16.1535   24.7872 O   0  0  0  0  0  0  0  0  0  0  0  0
    6.2088  -19.0834   25.1127 N   0  0  0  0  0  0  0  0  0  0  0  0
    6.7092  -19.9049   26.1366 C   0  0  0  0  0  0  0  0  0  0  0  0
    5.9342  -20.3929   26.9950 O   0  0  0  0  0  0  0  0  0  0  0  0
    8.1542  -20.2404   26.2655 C   0  0  0  0  0  0  0  0  0  0  0  0
    9.0189  -19.3798   25.4155 C   0  0  0  0  0  0  0  0  0  0  0  0
    9.9719  -18.5360   26.2221 C   0  0  2  0  0  0  0  0  0  0  0  0
   10.8564  -17.8266   25.2912 N   0  0  0  0  0  0  0  0  0  0  0  0
   10.7953  -19.2574   27.1816 C   0  0  0  0  0  0  0  0  0  0  0  0
   12.0001  -19.5299   26.8744 O   0  0  0  0  0  0  0  0  0  0  0  0
   10.2859  -19.6511   28.4273 O   0  0  0  0  0  0  0  0  0  0  0  0
  2  3  1  1
  2  1  1  0
  4  2  1  0
  4  5  1  6
  6 10  1  0
  6  4  1  0
  7  6  2  0
  9 10  1  0
  9  8  1  1
 11  9  1  0
 11 19  1  0
 12 11  2  0
 14 13  1  0
 14 15  2  0
 16 14  1  0
 16 17  1  0
 18 17  1  6
 18 19  1  0
 18 20  1  0
 20 21  2  0
 20 22  1  0
M  END
$$$$
