VAQ.pdb
     RDKit          3D

 22 21  0  0  1  0  0  0  0  0999 V2000
    7.2995  -14.1227   18.2581 C   0  0  0  0  0  0  0  0  0  0  0  0
    7.6578  -14.4674   19.6815 C   0  0  2  0  0  0  0  0  0  0  0  0
    6.7324  -15.4834   20.2736 C   0  0  0  0  0  0  0  0  0  0  0  0
    7.6377  -13.1571   20.4794 C   0  0  2  0  0  0  0  0  0  0  0  0
    8.6013  -12.2889   19.8610 N   0  0  0  0  0  0  0  0  0  0  0  0
    8.0927  -13.4781   21.8590 C   0  0  0  0  0  0  0  0  0  0  0  0
    9.2335  -13.9569   22.1060 O   0  0  0  0  0  0  0  0  0  0  0  0
    6.6638  -13.1189   25.3787 C   0  0  0  0  0  0  0  0  0  0  0  0
    7.6071  -13.6589   24.3287 C   0  0  2  0  0  0  0  0  0  0  0  0
    7.2543  -13.2601   22.9962 N   0  0  0  0  0  0  0  0  0  0  0  0
    7.8327  -15.1074   24.4681 C   0  0  0  0  0  0  0  0  0  0  0  0
    6.9795  -15.9198   24.0701 O   0  0  0  0  0  0  0  0  0  0  0  0
   13.0844  -18.7024   23.2627 N   0  0  0  0  0  0  0  0  0  0  0  0
   12.5977  -17.3871   23.3447 C   0  0  0  0  0  0  0  0  0  0  0  0
   12.9500  -16.5261   22.5021 O   0  0  0  0  0  0  0  0  0  0  0  0
   11.6567  -16.9420   24.4095 C   0  0  0  0  0  0  0  0  0  0  0  0
   10.2729  -17.4420   24.1950 C   0  0  0  0  0  0  0  0  0  0  0  0
    9.3187  -16.9916   25.2708 C   0  0  2  0  0  0  0  0  0  0  0  0
    9.0245  -15.5703   25.0569 N   0  0  0  0  0  0  0  0  0  0  0  0
    9.7839  -17.1655   26.6392 C   0  0  0  0  0  0  0  0  0  0  0  0
   10.0003  -16.1320   27.3501 O   0  0  0  0  0  0  0  0  0  0  0  0
    9.9931  -18.4420   27.1804 O   0  0  0  0  0  0  0  0  0  0  0  0
  2  3  1  1
  2  1  1  0
  4  2  1  0
  4  5  1  6
  6 10  1  0
  6  4  1  0
  7  6  2  0
  9 10  1  0
  9  8  1  1
 11  9  1  0
 11 19  1  0
 12 11  2  0
 14 13  1  0
 14 15  2  0
 16 14  1  0
 16 17  1  0
 18 17  1  6
 18 19  1  0
 18 20  1  0
 20 21  2  0
 20 22  1  0
M  END
$$$$
