VAQ.pdb
     RDKit          3D

 22 21  0  0  1  0  0  0  0  0999 V2000
    6.5987  -18.3838   22.2643 C   0  0  0  0  0  0  0  0  0  0  0  0
    5.3022  -17.6569   22.0117 C   0  0  2  0  0  0  0  0  0  0  0  0
    4.1054  -18.5221   22.2538 C   0  0  0  0  0  0  0  0  0  0  0  0
    5.3458  -17.1512   20.5638 C   0  0  2  0  0  0  0  0  0  0  0  0
    5.4255  -18.3170   19.7275 N   0  0  0  0  0  0  0  0  0  0  0  0
    6.5985  -16.3628   20.4133 C   0  0  0  0  0  0  0  0  0  0  0  0
    7.7044  -16.8914   20.1147 O   0  0  0  0  0  0  0  0  0  0  0  0
    7.5090  -12.6618   20.4000 C   0  0  0  0  0  0  0  0  0  0  0  0
    7.8004  -14.1442   20.4400 C   0  0  2  0  0  0  0  0  0  0  0  0
    6.6211  -14.9458   20.6005 N   0  0  0  0  0  0  0  0  0  0  0  0
    8.8731  -14.4801   21.3912 C   0  0  0  0  0  0  0  0  0  0  0  0
    9.9916  -13.9453   21.2951 O   0  0  0  0  0  0  0  0  0  0  0  0
    8.7481  -18.5961   27.4657 N   0  0  0  0  0  0  0  0  0  0  0  0
    9.0655  -17.4288   26.7514 C   0  0  0  0  0  0  0  0  0  0  0  0
    9.2908  -16.3540   27.3594 O   0  0  0  0  0  0  0  0  0  0  0  0
    9.1525  -17.3932   25.2654 C   0  0  0  0  0  0  0  0  0  0  0  0
    8.9987  -16.0199   24.7165 C   0  0  0  0  0  0  0  0  0  0  0  0
    9.6496  -15.8567   23.3672 C   0  0  2  0  0  0  0  0  0  0  0  0
    8.6253  -15.4140   22.4149 N   0  0  0  0  0  0  0  0  0  0  0  0
   10.2951  -17.0461   22.8308 C   0  0  0  0  0  0  0  0  0  0  0  0
    9.7004  -17.7106   21.9225 O   0  0  0  0  0  0  0  0  0  0  0  0
   11.5504  -17.4649   23.2942 O   0  0  0  0  0  0  0  0  0  0  0  0
  2  3  1  6
  2  1  1  0
  4  2  1  0
  4  5  1  6
  6 10  1  0
  6  4  1  0
  7  6  2  0
  9 10  1  0
  9  8  1  1
 11  9  1  0
 11 19  1  0
 12 11  2  0
 14 13  1  0
 14 15  2  0
 16 14  1  0
 16 17  1  0
 18 17  1  1
 18 19  1  0
 18 20  1  0
 20 21  2  0
 20 22  1  0
M  END
$$$$
