LHH.pdb
     RDKit          3D

 29 30  0  0  1  0  0  0  0  0999 V2000
   37.5980  -29.7141  -15.8216 C   0  0  0  0  0  0  0  0  0  0  0  0
   37.1455  -28.2733  -15.6974 C   0  0  1  0  0  0  0  0  0  0  0  0
   38.1227  -27.4309  -14.9403 C   0  0  0  0  0  0  0  0  0  0  0  0
   36.7495  -27.6954  -17.0168 C   0  0  0  0  0  0  0  0  0  0  0  0
   36.3669  -26.2582  -16.9713 C   0  0  2  0  0  0  0  0  0  0  0  0
   35.2550  -25.9859  -16.0895 N   0  0  0  0  0  0  0  0  0  0  0  0
   36.0465  -25.8342  -18.3768 C   0  0  0  0  0  0  0  0  0  0  0  0
   37.0000  -25.8328  -19.1969 O   0  0  0  0  0  0  0  0  0  0  0  0
   34.7456  -25.4524  -18.7774 N   0  0  0  0  0  0  0  0  0  0  0  0
   34.4851  -24.9213  -20.1248 C   0  0  1  0  0  0  0  0  0  0  0  0
   33.6326  -25.8724  -20.9062 C   0  0  0  0  0  0  0  0  0  0  0  0
   33.5014  -27.1560  -20.2119 C   0  0  0  0  0  0  0  0  0  0  0  0
   34.2836  -27.6475  -19.2030 C   0  0  0  0  0  0  0  0  0  0  0  0
   33.8144  -28.8570  -18.8961 N   0  0  0  0  0  0  0  0  0  0  0  0
   32.7749  -29.1376  -19.6714 C   0  0  0  0  0  0  0  0  0  0  0  0
   32.5595  -28.1104  -20.4902 N   0  0  0  0  0  0  0  0  0  0  0  0
   33.8184  -23.6220  -19.9744 C   0  0  0  0  0  0  0  0  0  0  0  0
   33.3674  -23.1804  -18.8887 O   0  0  0  0  0  0  0  0  0  0  0  0
   33.6530  -22.7810  -21.1051 N   0  0  0  0  0  0  0  0  0  0  0  0
   33.2977  -21.3635  -20.9550 C   0  0  1  0  0  0  0  0  0  0  0  0
   34.3183  -20.7418  -20.0618 C   0  0  0  0  0  0  0  0  0  0  0  0
   34.1713  -19.2990  -19.8884 C   0  0  0  0  0  0  0  0  0  0  0  0
   33.0583  -18.5623  -20.2022 C   0  0  0  0  0  0  0  0  0  0  0  0
   33.3280  -17.2843  -19.8934 N   0  0  0  0  0  0  0  0  0  0  0  0
   34.5733  -17.2266  -19.4013 C   0  0  0  0  0  0  0  0  0  0  0  0
   35.0862  -18.4627  -19.4000 N   0  0  0  0  0  0  0  0  0  0  0  0
   33.2118  -20.7059  -22.2836 C   0  0  0  0  0  0  0  0  0  0  0  0
   33.9644  -21.0787  -23.2186 O   0  0  0  0  0  0  0  0  0  0  0  0
   32.3243  -19.6757  -22.5592 O   0  0  0  0  0  0  0  0  0  0  0  0
  2  1  1  6
  2  3  1  0
  4  2  1  0
  5  4  1  0
  5  6  1  1
  7  8  2  0
  7  5  1  0
  9  7  1  0
 10 11  1  6
 10  9  1  0
 11 12  1  0
 12 13  2  0
 12 16  1  0
 13 14  1  0
 14 15  1  0
 16 15  2  0
 17 10  1  0
 18 17  2  0
 19 17  1  0
 20 19  1  0
 21 22  1  0
 20 21  1  1
 22 23  2  0
 23 24  1  0
 25 24  1  0
 26 22  1  0
 26 25  2  0
 27 20  1  0
 27 29  1  0
 28 27  2  0
M  END
$$$$
