LHH.pdb
     RDKit          3D

 29 30  0  0  1  0  0  0  0  0999 V2000
   20.2211  -30.5045  -13.4018 C   0  0  0  0  0  0  0  0  0  0  0  0
   20.7526  -29.7447  -12.2034 C   0  0  1  0  0  0  0  0  0  0  0  0
   19.7941  -28.7052  -11.7150 C   0  0  0  0  0  0  0  0  0  0  0  0
   21.2415  -30.6625  -11.1309 C   0  0  0  0  0  0  0  0  0  0  0  0
   21.7908  -29.9735   -9.9318 C   0  0  2  0  0  0  0  0  0  0  0  0
   22.9642  -29.1781  -10.2119 N   0  0  0  0  0  0  0  0  0  0  0  0
   22.0970  -31.0298   -8.9080 C   0  0  0  0  0  0  0  0  0  0  0  0
   21.1589  -31.8109   -8.6054 O   0  0  0  0  0  0  0  0  0  0  0  0
   23.3686  -31.1561   -8.3035 N   0  0  0  0  0  0  0  0  0  0  0  0
   23.6592  -32.2407   -7.3523 C   0  0  1  0  0  0  0  0  0  0  0  0
   25.1344  -32.4845   -7.2716 C   0  0  0  0  0  0  0  0  0  0  0  0
   25.6174  -33.1959   -8.4580 C   0  0  0  0  0  0  0  0  0  0  0  0
   24.8737  -33.7721   -9.4511 C   0  0  0  0  0  0  0  0  0  0  0  0
   25.7287  -34.3265  -10.3106 N   0  0  0  0  0  0  0  0  0  0  0  0
   26.9711  -34.1195   -9.8936 C   0  0  0  0  0  0  0  0  0  0  0  0
   26.9336  -33.4273   -8.7572 N   0  0  0  0  0  0  0  0  0  0  0  0
   23.1204  -31.8478   -6.0445 C   0  0  0  0  0  0  0  0  0  0  0  0
   23.0033  -30.6592   -5.6565 O   0  0  0  0  0  0  0  0  0  0  0  0
   22.6935  -32.8458   -5.1308 N   0  0  0  0  0  0  0  0  0  0  0  0
   21.8565  -32.5094   -3.9713 C   0  0  1  0  0  0  0  0  0  0  0  0
   20.6393  -31.8179   -4.4875 C   0  0  0  0  0  0  0  0  0  0  0  0
   20.3647  -30.5283   -3.8593 C   0  0  0  0  0  0  0  0  0  0  0  0
   21.3056  -29.6328   -3.4204 C   0  0  0  0  0  0  0  0  0  0  0  0
   20.6456  -28.5817   -2.9096 N   0  0  0  0  0  0  0  0  0  0  0  0
   19.3311  -28.8157   -3.0271 C   0  0  0  0  0  0  0  0  0  0  0  0
   19.1634  -30.0090   -3.6093 N   0  0  0  0  0  0  0  0  0  0  0  0
   21.5413  -33.7300   -3.1865 C   0  0  0  0  0  0  0  0  0  0  0  0
   21.3243  -34.8179   -3.7774 O   0  0  0  0  0  0  0  0  0  0  0  0
   21.4707  -33.7384   -1.8010 O   0  0  0  0  0  0  0  0  0  0  0  0
  2  1  1  6
  2  3  1  0
  4  2  1  0
  5  4  1  0
  5  6  1  6
  7  8  2  0
  7  5  1  0
  9  7  1  0
 10 11  1  1
 10  9  1  0
 11 12  1  0
 12 13  2  0
 12 16  1  0
 13 14  1  0
 14 15  1  0
 16 15  2  0
 17 10  1  0
 18 17  2  0
 19 17  1  0
 20 19  1  0
 21 22  1  0
 20 21  1  6
 22 23  2  0
 23 24  1  0
 25 24  1  0
 26 22  1  0
 26 25  2  0
 27 20  1  0
 27 29  1  0
 28 27  2  0
M  END
$$$$
