LHH.pdb
     RDKit          3D

 29 30  0  0  1  0  0  0  0  0999 V2000
   17.6193  -14.6602  -19.3338 C   0  0  0  0  0  0  0  0  0  0  0  0
   17.4698  -13.3178  -18.6472 C   0  0  1  0  0  0  0  0  0  0  0  0
   16.0499  -12.8479  -18.6143 C   0  0  0  0  0  0  0  0  0  0  0  0
   18.1419  -13.2936  -17.3133 C   0  0  0  0  0  0  0  0  0  0  0  0
   19.5999  -13.5886  -17.3513 C   0  0  2  0  0  0  0  0  0  0  0  0
   19.9174  -14.9638  -17.0416 N   0  0  0  0  0  0  0  0  0  0  0  0
   20.2718  -12.6571  -16.3823 C   0  0  0  0  0  0  0  0  0  0  0  0
   20.3190  -13.0298  -15.1821 O   0  0  0  0  0  0  0  0  0  0  0  0
   20.8290  -11.4202  -16.7795 N   0  0  0  0  0  0  0  0  0  0  0  0
   21.5936  -10.5877  -15.8371 C   0  0  1  0  0  0  0  0  0  0  0  0
   22.9477  -10.2756  -16.3946 C   0  0  0  0  0  0  0  0  0  0  0  0
   23.8021  -11.4659  -16.4031 C   0  0  0  0  0  0  0  0  0  0  0  0
   24.5910  -11.9393  -15.3907 C   0  0  0  0  0  0  0  0  0  0  0  0
   25.2075  -13.0284  -15.8498 N   0  0  0  0  0  0  0  0  0  0  0  0
   24.8356  -13.2513  -17.1037 C   0  0  0  0  0  0  0  0  0  0  0  0
   23.9723  -12.3068  -17.4706 N   0  0  0  0  0  0  0  0  0  0  0  0
   20.8277   -9.3578  -15.6006 C   0  0  0  0  0  0  0  0  0  0  0  0
   20.1645   -8.7576  -16.4821 O   0  0  0  0  0  0  0  0  0  0  0  0
   20.8104   -8.7778  -14.3059 N   0  0  0  0  0  0  0  0  0  0  0  0
   20.0997   -7.5190  -14.0443 C   0  0  1  0  0  0  0  0  0  0  0  0
   19.7589   -7.4946  -12.5920 C   0  0  0  0  0  0  0  0  0  0  0  0
   18.6084   -8.3172  -12.2271 C   0  0  0  0  0  0  0  0  0  0  0  0
   17.8068   -9.0077  -13.0991 C   0  0  0  0  0  0  0  0  0  0  0  0
   16.8703   -9.6321  -12.3681 N   0  0  0  0  0  0  0  0  0  0  0  0
   17.0826   -9.3390  -11.0776 C   0  0  0  0  0  0  0  0  0  0  0  0
   18.1481   -8.5334  -10.9957 N   0  0  0  0  0  0  0  0  0  0  0  0
   20.9250   -6.3589  -14.4661 C   0  0  0  0  0  0  0  0  0  0  0  0
   22.1717   -6.4802  -14.5712 O   0  0  0  0  0  0  0  0  0  0  0  0
   20.3843   -5.1152  -14.7586 O   0  0  0  0  0  0  0  0  0  0  0  0
  2  1  1  1
  2  3  1  0
  4  2  1  0
  5  4  1  0
  5  6  1  1
  7  8  2  0
  7  5  1  0
  9  7  1  0
 10 11  1  6
 10  9  1  0
 11 12  1  0
 12 13  2  0
 12 16  1  0
 13 14  1  0
 14 15  1  0
 16 15  2  0
 17 10  1  0
 18 17  2  0
 19 17  1  0
 20 19  1  0
 21 22  1  0
 20 21  1  1
 22 23  2  0
 23 24  1  0
 25 24  1  0
 26 22  1  0
 26 25  2  0
 27 20  1  0
 27 29  1  0
 28 27  2  0
M  END
$$$$
