LHH.pdb
     RDKit          3D

 29 30  0  0  1  0  0  0  0  0999 V2000
   20.9353  -14.4497  -21.2199 C   0  0  0  0  0  0  0  0  0  0  0  0
   21.6637  -13.5225  -20.2682 C   0  0  1  0  0  0  0  0  0  0  0  0
   22.7792  -12.7814  -20.9346 C   0  0  0  0  0  0  0  0  0  0  0  0
   20.7216  -12.6408  -19.5154 C   0  0  0  0  0  0  0  0  0  0  0  0
   21.3746  -11.7445  -18.5231 C   0  0  2  0  0  0  0  0  0  0  0  0
   22.2469  -12.4405  -17.6051 N   0  0  0  0  0  0  0  0  0  0  0  0
   20.2835  -11.0277  -17.7792 C   0  0  0  0  0  0  0  0  0  0  0  0
   19.4614  -10.3764  -18.4732 O   0  0  0  0  0  0  0  0  0  0  0  0
   20.1691  -11.0706  -16.3709 N   0  0  0  0  0  0  0  0  0  0  0  0
   19.1298  -10.3053  -15.6640 C   0  0  1  0  0  0  0  0  0  0  0  0
   18.5314  -11.1273  -14.5648 C   0  0  0  0  0  0  0  0  0  0  0  0
   17.4573  -11.9850  -15.0722 C   0  0  0  0  0  0  0  0  0  0  0  0
   16.9409  -12.0222  -16.3384 C   0  0  0  0  0  0  0  0  0  0  0  0
   15.9661  -12.9316  -16.3385 N   0  0  0  0  0  0  0  0  0  0  0  0
   15.8549  -13.4603  -15.1268 C   0  0  0  0  0  0  0  0  0  0  0  0
   16.7587  -12.8977  -14.3275 N   0  0  0  0  0  0  0  0  0  0  0  0
   19.7534   -9.0888  -15.1290 C   0  0  0  0  0  0  0  0  0  0  0  0
   20.9523   -9.0111  -14.7634 O   0  0  0  0  0  0  0  0  0  0  0  0
   18.9854   -7.9027  -15.0004 N   0  0  0  0  0  0  0  0  0  0  0  0
   19.5886   -6.6528  -14.5188 C   0  0  1  0  0  0  0  0  0  0  0  0
   20.7640   -6.3619  -15.3905 C   0  0  0  0  0  0  0  0  0  0  0  0
   21.4155   -5.0830  -15.1199 C   0  0  0  0  0  0  0  0  0  0  0  0
   22.2057   -4.7983  -14.0362 C   0  0  0  0  0  0  0  0  0  0  0  0
   22.6066   -3.5236  -14.1610 N   0  0  0  0  0  0  0  0  0  0  0  0
   22.0811   -3.0283  -15.2901 C   0  0  0  0  0  0  0  0  0  0  0  0
   21.3523   -3.9867  -15.8744 N   0  0  0  0  0  0  0  0  0  0  0  0
   18.5844   -5.5590  -14.5150 C   0  0  0  0  0  0  0  0  0  0  0  0
   17.6608   -5.5514  -15.3674 O   0  0  0  0  0  0  0  0  0  0  0  0
   18.6080   -4.5167  -13.5996 O   0  0  0  0  0  0  0  0  0  0  0  0
  2  1  1  6
  2  3  1  0
  4  2  1  0
  5  4  1  0
  5  6  1  1
  7  8  2  0
  7  5  1  0
  9  7  1  0
 10 11  1  1
 10  9  1  0
 11 12  1  0
 12 13  2  0
 12 16  1  0
 13 14  1  0
 14 15  1  0
 16 15  2  0
 17 10  1  0
 18 17  2  0
 19 17  1  0
 20 19  1  0
 21 22  1  0
 20 21  1  6
 22 23  2  0
 23 24  1  0
 25 24  1  0
 26 22  1  0
 26 25  2  0
 27 20  1  0
 27 29  1  0
 28 27  2  0
M  END
$$$$
