LHH.pdb
     RDKit          3D

 29 30  0  0  1  0  0  0  0  0999 V2000
   16.1871  -15.9342  -17.7503 C   0  0  0  0  0  0  0  0  0  0  0  0
   16.8845  -15.2417  -16.5970 C   0  0  1  0  0  0  0  0  0  0  0  0
   18.2695  -15.7606  -16.3725 C   0  0  0  0  0  0  0  0  0  0  0  0
   16.8111  -13.7540  -16.7107 C   0  0  0  0  0  0  0  0  0  0  0  0
   17.4933  -13.0166  -15.6129 C   0  0  2  0  0  0  0  0  0  0  0  0
   16.9940  -13.3497  -14.2985 N   0  0  0  0  0  0  0  0  0  0  0  0
   17.3281  -11.5487  -15.8877 C   0  0  0  0  0  0  0  0  0  0  0  0
   17.6738  -11.1457  -17.0278 O   0  0  0  0  0  0  0  0  0  0  0  0
   16.8120  -10.6492  -14.9270 N   0  0  0  0  0  0  0  0  0  0  0  0
   16.5384   -9.2432  -15.2646 C   0  0  1  0  0  0  0  0  0  0  0  0
   15.2601   -8.7918  -14.6289 C   0  0  0  0  0  0  0  0  0  0  0  0
   14.0992   -9.2377  -15.4038 C   0  0  0  0  0  0  0  0  0  0  0  0
   14.0554   -9.5783  -16.7280 C   0  0  0  0  0  0  0  0  0  0  0  0
   12.7917   -9.8957  -17.0101 N   0  0  0  0  0  0  0  0  0  0  0  0
   12.0492   -9.7665  -15.9182 C   0  0  0  0  0  0  0  0  0  0  0  0
   12.8260   -9.3632  -14.9152 N   0  0  0  0  0  0  0  0  0  0  0  0
   17.6717   -8.4389  -14.7916 C   0  0  0  0  0  0  0  0  0  0  0  0
   18.1744   -8.5316  -13.6445 O   0  0  0  0  0  0  0  0  0  0  0  0
   18.2658   -7.4835  -15.6561 N   0  0  0  0  0  0  0  0  0  0  0  0
   19.3451   -6.6021  -15.1909 C   0  0  1  0  0  0  0  0  0  0  0  0
   20.4761   -6.7378  -16.1545 C   0  0  0  0  0  0  0  0  0  0  0  0
   21.6432   -5.9197  -15.8357 C   0  0  0  0  0  0  0  0  0  0  0  0
   21.8026   -5.1527  -14.7105 C   0  0  0  0  0  0  0  0  0  0  0  0
   23.0048   -4.5627  -14.7990 N   0  0  0  0  0  0  0  0  0  0  0  0
   23.5780   -4.9510  -15.9466 C   0  0  0  0  0  0  0  0  0  0  0  0
   22.7407   -5.7821  -16.5785 N   0  0  0  0  0  0  0  0  0  0  0  0
   18.8567   -5.2056  -15.0626 C   0  0  0  0  0  0  0  0  0  0  0  0
   18.0931   -4.7246  -15.9375 O   0  0  0  0  0  0  0  0  0  0  0  0
   19.2044   -4.3793  -14.0039 O   0  0  0  0  0  0  0  0  0  0  0  0
  2  1  1  6
  2  3  1  0
  4  2  1  0
  5  4  1  0
  5  6  1  1
  7  8  2  0
  7  5  1  0
  9  7  1  0
 10 11  1  1
 10  9  1  0
 11 12  1  0
 12 13  2  0
 12 16  1  0
 13 14  1  0
 14 15  1  0
 16 15  2  0
 17 10  1  0
 18 17  2  0
 19 17  1  0
 20 19  1  0
 21 22  1  0
 20 21  1  6
 22 23  2  0
 23 24  1  0
 25 24  1  0
 26 22  1  0
 26 25  2  0
 27 20  1  0
 27 29  1  0
 28 27  2  0
M  END
$$$$
