LHH.pdb
     RDKit          3D

 29 30  0  0  1  0  0  0  0  0999 V2000
   30.6817  -24.9393  -16.8815 C   0  0  0  0  0  0  0  0  0  0  0  0
   29.2859  -24.7289  -17.4323 C   0  0  1  0  0  0  0  0  0  0  0  0
   28.6365  -26.0109  -17.8478 C   0  0  0  0  0  0  0  0  0  0  0  0
   28.4444  -23.8965  -16.5210 C   0  0  0  0  0  0  0  0  0  0  0  0
   27.0461  -23.6921  -16.9871 C   0  0  2  0  0  0  0  0  0  0  0  0
   26.9376  -23.4988  -18.4150 N   0  0  0  0  0  0  0  0  0  0  0  0
   26.4949  -22.5063  -16.2471 C   0  0  0  0  0  0  0  0  0  0  0  0
   26.4704  -22.5860  -14.9922 O   0  0  0  0  0  0  0  0  0  0  0  0
   26.0228  -21.3498  -16.9090 N   0  0  0  0  0  0  0  0  0  0  0  0
   25.4755  -20.2084  -16.1584 C   0  0  1  0  0  0  0  0  0  0  0  0
   26.0770  -18.9262  -16.6441 C   0  0  0  0  0  0  0  0  0  0  0  0
   27.5340  -19.0353  -16.7547 C   0  0  0  0  0  0  0  0  0  0  0  0
   28.3221  -20.1049  -16.4285 C   0  0  0  0  0  0  0  0  0  0  0  0
   29.5846  -19.7498  -16.6678 N   0  0  0  0  0  0  0  0  0  0  0  0
   29.6141  -18.5059  -17.1283 C   0  0  0  0  0  0  0  0  0  0  0  0
   28.3683  -18.0413  -17.1922 N   0  0  0  0  0  0  0  0  0  0  0  0
   24.0190  -20.2069  -16.3419 C   0  0  0  0  0  0  0  0  0  0  0  0
   23.4446  -20.4156  -17.4390 O   0  0  0  0  0  0  0  0  0  0  0  0
   23.1704  -19.9574  -15.2326 N   0  0  0  0  0  0  0  0  0  0  0  0
   21.7092  -20.0453  -15.3560 C   0  0  1  0  0  0  0  0  0  0  0  0
   21.3863  -21.4176  -15.8444 C   0  0  0  0  0  0  0  0  0  0  0  0
   21.5862  -22.4738  -14.8556 C   0  0  0  0  0  0  0  0  0  0  0  0
   22.2005  -22.3278  -13.6385 C   0  0  0  0  0  0  0  0  0  0  0  0
   22.1801  -23.5274  -13.0370 N   0  0  0  0  0  0  0  0  0  0  0  0
   21.5706  -24.3958  -13.8560 C   0  0  0  0  0  0  0  0  0  0  0  0
   21.2084  -23.7464  -14.9687 N   0  0  0  0  0  0  0  0  0  0  0  0
   21.0580  -19.7221  -14.0612 C   0  0  0  0  0  0  0  0  0  0  0  0
   21.7608  -19.4971  -13.0437 O   0  0  0  0  0  0  0  0  0  0  0  0
   19.6811  -19.6526  -13.9061 O   0  0  0  0  0  0  0  0  0  0  0  0
  2  1  1  1
  2  3  1  0
  4  2  1  0
  5  4  1  0
  5  6  1  6
  7  8  2  0
  7  5  1  0
  9  7  1  0
 10 11  1  6
 10  9  1  0
 11 12  1  0
 12 13  2  0
 12 16  1  0
 13 14  1  0
 14 15  1  0
 16 15  2  0
 17 10  1  0
 18 17  2  0
 19 17  1  0
 20 19  1  0
 21 22  1  0
 20 21  1  1
 22 23  2  0
 23 24  1  0
 25 24  1  0
 26 22  1  0
 26 25  2  0
 27 20  1  0
 27 29  1  0
 28 27  2  0
M  END
$$$$
