LHH.pdb
     RDKit          3D

 29 30  0  0  1  0  0  0  0  0999 V2000
   22.3680  -25.8108  -21.0322 C   0  0  0  0  0  0  0  0  0  0  0  0
   22.2953  -24.6011  -20.1227 C   0  0  1  0  0  0  0  0  0  0  0  0
   23.0446  -23.4282  -20.6712 C   0  0  0  0  0  0  0  0  0  0  0  0
   20.8909  -24.2842  -19.7243 C   0  0  0  0  0  0  0  0  0  0  0  0
   20.7588  -23.1317  -18.7923 C   0  0  2  0  0  0  0  0  0  0  0  0
   21.8585  -23.0145  -17.8622 N   0  0  0  0  0  0  0  0  0  0  0  0
   19.4576  -23.2944  -18.0587 C   0  0  0  0  0  0  0  0  0  0  0  0
   18.4150  -23.3322  -18.7611 O   0  0  0  0  0  0  0  0  0  0  0  0
   19.3872  -23.4014  -16.6509 N   0  0  0  0  0  0  0  0  0  0  0  0
   18.1011  -23.5913  -15.9614 C   0  0  1  0  0  0  0  0  0  0  0  0
   18.2241  -24.6462  -14.9060 C   0  0  0  0  0  0  0  0  0  0  0  0
   18.2557  -25.9854  -15.4995 C   0  0  0  0  0  0  0  0  0  0  0  0
   18.0579  -26.3272  -16.8093 C   0  0  0  0  0  0  0  0  0  0  0  0
   18.1531  -27.6546  -16.8874 N   0  0  0  0  0  0  0  0  0  0  0  0
   18.4012  -28.1516  -15.6825 C   0  0  0  0  0  0  0  0  0  0  0  0
   18.4696  -27.1489  -14.8095 N   0  0  0  0  0  0  0  0  0  0  0  0
   17.7123  -22.3038  -15.3731 C   0  0  0  0  0  0  0  0  0  0  0  0
   16.7238  -22.1426  -14.6154 O   0  0  0  0  0  0  0  0  0  0  0  0
   18.4769  -21.1422  -15.6544 N   0  0  0  0  0  0  0  0  0  0  0  0
   18.1291  -19.8407  -15.0686 C   0  0  1  0  0  0  0  0  0  0  0  0
   19.2973  -18.9352  -15.2724 C   0  0  0  0  0  0  0  0  0  0  0  0
   20.5370  -19.3999  -14.6555 C   0  0  0  0  0  0  0  0  0  0  0  0
   20.6770  -20.5244  -13.8838 C   0  0  0  0  0  0  0  0  0  0  0  0
   21.9652  -20.5941  -13.5136 N   0  0  0  0  0  0  0  0  0  0  0  0
   22.6092  -19.5430  -14.0396 C   0  0  0  0  0  0  0  0  0  0  0  0
   21.7308  -18.8141  -14.7383 N   0  0  0  0  0  0  0  0  0  0  0  0
   16.8772  -19.3172  -15.6718 C   0  0  0  0  0  0  0  0  0  0  0  0
   16.6020  -19.5756  -16.8707 O   0  0  0  0  0  0  0  0  0  0  0  0
   15.9696  -18.5383  -14.9689 O   0  0  0  0  0  0  0  0  0  0  0  0
  2  1  1  6
  2  3  1  0
  4  2  1  0
  5  4  1  0
  5  6  1  1
  7  8  2  0
  7  5  1  0
  9  7  1  0
 10 11  1  1
 10  9  1  0
 11 12  1  0
 12 13  2  0
 12 16  1  0
 13 14  1  0
 14 15  1  0
 16 15  2  0
 17 10  1  0
 18 17  2  0
 19 17  1  0
 20 19  1  0
 21 22  1  0
 20 21  1  6
 22 23  2  0
 23 24  1  0
 25 24  1  0
 26 22  1  0
 26 25  2  0
 27 20  1  0
 27 29  1  0
 28 27  2  0
M  END
$$$$
