LHH.pdb
     RDKit          3D

 29 30  0  0  1  0  0  0  0  0999 V2000
   21.2988  -12.5552    6.3483 C   0  0  0  0  0  0  0  0  0  0  0  0
   19.8416  -12.1451    6.4123 C   0  0  1  0  0  0  0  0  0  0  0  0
   19.3066  -11.7275    5.0791 C   0  0  0  0  0  0  0  0  0  0  0  0
   19.0017  -13.1695    7.1027 C   0  0  0  0  0  0  0  0  0  0  0  0
   18.8376  -14.4425    6.3499 C   0  0  2  0  0  0  0  0  0  0  0  0
   17.7434  -14.4166    5.4065 N   0  0  0  0  0  0  0  0  0  0  0  0
   18.6433  -15.5389    7.3588 C   0  0  0  0  0  0  0  0  0  0  0  0
   18.8760  -15.2479    8.5601 O   0  0  0  0  0  0  0  0  0  0  0  0
   18.2207  -16.8385    6.9969 N   0  0  0  0  0  0  0  0  0  0  0  0
   17.9830  -17.8764    8.0127 C   0  0  1  0  0  0  0  0  0  0  0  0
   17.1048  -18.9565    7.4614 C   0  0  0  0  0  0  0  0  0  0  0  0
   15.6958  -18.5551    7.4864 C   0  0  0  0  0  0  0  0  0  0  0  0
   15.1283  -17.5294    8.1915 C   0  0  0  0  0  0  0  0  0  0  0  0
   13.8209  -17.5507    7.9321 N   0  0  0  0  0  0  0  0  0  0  0  0
   13.5523  -18.5457    7.0965 C   0  0  0  0  0  0  0  0  0  0  0  0
   14.6856  -19.1805    6.8054 N   0  0  0  0  0  0  0  0  0  0  0  0
   19.2869  -18.4162    8.4171 C   0  0  0  0  0  0  0  0  0  0  0  0
   20.2149  -18.6954    7.6183 O   0  0  0  0  0  0  0  0  0  0  0  0
   19.5554  -18.6522    9.7901 N   0  0  0  0  0  0  0  0  0  0  0  0
   20.8158  -19.2691   10.2250 C   0  0  1  0  0  0  0  0  0  0  0  0
   21.1776  -18.6619   11.5389 C   0  0  0  0  0  0  0  0  0  0  0  0
   21.9800  -17.4454   11.4421 C   0  0  0  0  0  0  0  0  0  0  0  0
   22.3431  -16.8138   10.2806 C   0  0  0  0  0  0  0  0  0  0  0  0
   23.0718  -15.7401   10.6234 N   0  0  0  0  0  0  0  0  0  0  0  0
   23.1601  -15.7039   11.9603 C   0  0  0  0  0  0  0  0  0  0  0  0
   22.4901  -16.7501   12.4578 N   0  0  0  0  0  0  0  0  0  0  0  0
   20.6769  -20.7462   10.2872 C   0  0  0  0  0  0  0  0  0  0  0  0
   19.6321  -21.2594   10.7615 O   0  0  0  0  0  0  0  0  0  0  0  0
   21.6609  -21.6158    9.8396 O   0  0  0  0  0  0  0  0  0  0  0  0
  2  1  1  6
  2  3  1  0
  4  2  1  0
  5  4  1  0
  5  6  1  6
  7  8  2  0
  7  5  1  0
  9  7  1  0
 10 11  1  6
 10  9  1  0
 11 12  1  0
 12 13  2  0
 12 16  1  0
 13 14  1  0
 14 15  1  0
 16 15  2  0
 17 10  1  0
 18 17  2  0
 19 17  1  0
 20 19  1  0
 21 22  1  0
 20 21  1  1
 22 23  2  0
 23 24  1  0
 25 24  1  0
 26 22  1  0
 26 25  2  0
 27 20  1  0
 27 29  1  0
 28 27  2  0
M  END
$$$$
