LHH.pdb
     RDKit          3D

 29 30  0  0  1  0  0  0  0  0999 V2000
   27.5633  -14.7092  -17.4280 C   0  0  0  0  0  0  0  0  0  0  0  0
   27.1356  -16.1488  -17.2268 C   0  0  1  0  0  0  0  0  0  0  0  0
   28.2982  -17.0655  -17.0124 C   0  0  0  0  0  0  0  0  0  0  0  0
   26.0703  -16.2761  -16.1874 C   0  0  0  0  0  0  0  0  0  0  0  0
   25.5154  -17.6486  -16.0369 C   0  0  2  0  0  0  0  0  0  0  0  0
   26.0352  -18.5888  -17.0032 N   0  0  0  0  0  0  0  0  0  0  0  0
   24.0207  -17.5434  -16.1489 C   0  0  0  0  0  0  0  0  0  0  0  0
   23.4545  -16.7193  -15.3860 O   0  0  0  0  0  0  0  0  0  0  0  0
   23.2702  -18.3222  -17.0591 N   0  0  0  0  0  0  0  0  0  0  0  0
   21.7988  -18.3002  -17.0530 C   0  0  1  0  0  0  0  0  0  0  0  0
   21.2639  -18.7192  -18.3873 C   0  0  0  0  0  0  0  0  0  0  0  0
   21.2563  -17.5967  -19.3289 C   0  0  0  0  0  0  0  0  0  0  0  0
   21.5109  -16.2787  -19.0649 C   0  0  0  0  0  0  0  0  0  0  0  0
   21.3663  -15.6136  -20.2112 N   0  0  0  0  0  0  0  0  0  0  0  0
   21.0326  -16.4618  -21.1753 C   0  0  0  0  0  0  0  0  0  0  0  0
   20.9576  -17.6880  -20.6623 N   0  0  0  0  0  0  0  0  0  0  0  0
   21.3403  -19.2091  -15.9954 C   0  0  0  0  0  0  0  0  0  0  0  0
   22.0348  -20.1359  -15.5096 O   0  0  0  0  0  0  0  0  0  0  0  0
   20.0341  -19.0643  -15.4607 N   0  0  0  0  0  0  0  0  0  0  0  0
   19.6575  -19.6940  -14.1880 C   0  0  1  0  0  0  0  0  0  0  0  0
   20.5996  -19.1898  -13.1469 C   0  0  0  0  0  0  0  0  0  0  0  0
   20.2352  -19.5464  -11.7782 C   0  0  0  0  0  0  0  0  0  0  0  0
   19.8618  -20.7928  -11.3460 C   0  0  0  0  0  0  0  0  0  0  0  0
   19.6113  -20.6985  -10.0308 N   0  0  0  0  0  0  0  0  0  0  0  0
   19.8225  -19.4296   -9.6545 C   0  0  0  0  0  0  0  0  0  0  0  0
   20.2044  -18.7273  -10.7278 N   0  0  0  0  0  0  0  0  0  0  0  0
   18.2350  -19.4111  -13.8692 C   0  0  0  0  0  0  0  0  0  0  0  0
   17.5390  -20.2771  -13.2815 O   0  0  0  0  0  0  0  0  0  0  0  0
   17.6136  -18.2134  -14.1917 O   0  0  0  0  0  0  0  0  0  0  0  0
  2  1  1  1
  2  3  1  0
  4  2  1  0
  5  4  1  0
  5  6  1  6
  7  8  2  0
  7  5  1  0
  9  7  1  0
 10 11  1  6
 10  9  1  0
 11 12  1  0
 12 13  2  0
 12 16  1  0
 13 14  1  0
 14 15  1  0
 16 15  2  0
 17 10  1  0
 18 17  2  0
 19 17  1  0
 20 19  1  0
 21 22  1  0
 20 21  1  1
 22 23  2  0
 23 24  1  0
 25 24  1  0
 26 22  1  0
 26 25  2  0
 27 20  1  0
 27 29  1  0
 28 27  2  0
M  END
$$$$
