LHH.pdb
     RDKit          3D

 29 30  0  0  1  0  0  0  0  0999 V2000
   20.2384  -17.7451  -25.1901 C   0  0  0  0  0  0  0  0  0  0  0  0
   20.4573  -16.7979  -24.0278 C   0  0  1  0  0  0  0  0  0  0  0  0
   19.4583  -15.6847  -24.0022 C   0  0  0  0  0  0  0  0  0  0  0  0
   20.5801  -17.5252  -22.7288 C   0  0  0  0  0  0  0  0  0  0  0  0
   20.7184  -16.6433  -21.5382 C   0  0  2  0  0  0  0  0  0  0  0  0
   22.0142  -16.0119  -21.4369 N   0  0  0  0  0  0  0  0  0  0  0  0
   20.4397  -17.4822  -20.3232 C   0  0  0  0  0  0  0  0  0  0  0  0
   20.2826  -18.7155  -20.5131 O   0  0  0  0  0  0  0  0  0  0  0  0
   20.3545  -16.9326  -19.0236 N   0  0  0  0  0  0  0  0  0  0  0  0
   20.2781  -17.7933  -17.8324 C   0  0  1  0  0  0  0  0  0  0  0  0
   21.1909  -17.2846  -16.7601 C   0  0  0  0  0  0  0  0  0  0  0  0
   22.5825  -17.6535  -17.0328 C   0  0  0  0  0  0  0  0  0  0  0  0
   23.0568  -18.4541  -18.0355 C   0  0  0  0  0  0  0  0  0  0  0  0
   24.3789  -18.5324  -17.8832 N   0  0  0  0  0  0  0  0  0  0  0  0
   24.7457  -17.8152  -16.8291 C   0  0  0  0  0  0  0  0  0  0  0  0
   23.6625  -17.2635  -16.2864 N   0  0  0  0  0  0  0  0  0  0  0  0
   18.8838  -17.8023  -17.3733 C   0  0  0  0  0  0  0  0  0  0  0  0
   18.1897  -16.7701  -17.2006 O   0  0  0  0  0  0  0  0  0  0  0  0
   18.2426  -19.0371  -17.0955 N   0  0  0  0  0  0  0  0  0  0  0  0
   16.8210  -19.0921  -16.7290 C   0  0  1  0  0  0  0  0  0  0  0  0
   16.1741  -20.1081  -17.6095 C   0  0  0  0  0  0  0  0  0  0  0  0
   14.7455  -20.2942  -17.3694 C   0  0  0  0  0  0  0  0  0  0  0  0
   13.9846  -19.5918  -16.4708 C   0  0  0  0  0  0  0  0  0  0  0  0
   12.7312  -20.0640  -16.5572 N   0  0  0  0  0  0  0  0  0  0  0  0
   12.7119  -21.0328  -17.4831 C   0  0  0  0  0  0  0  0  0  0  0  0
   13.9477  -21.1706  -17.9781 N   0  0  0  0  0  0  0  0  0  0  0  0
   16.6684  -19.3957  -15.2835 C   0  0  0  0  0  0  0  0  0  0  0  0
   17.4256  -20.2355  -14.7349 O   0  0  0  0  0  0  0  0  0  0  0  0
   15.7120  -18.7890  -14.4823 O   0  0  0  0  0  0  0  0  0  0  0  0
  2  1  1  6
  2  3  1  0
  4  2  1  0
  5  4  1  0
  5  6  1  1
  7  8  2  0
  7  5  1  0
  9  7  1  0
 10 11  1  1
 10  9  1  0
 11 12  1  0
 12 13  2  0
 12 16  1  0
 13 14  1  0
 14 15  1  0
 16 15  2  0
 17 10  1  0
 18 17  2  0
 19 17  1  0
 20 19  1  0
 21 22  1  0
 20 21  1  6
 22 23  2  0
 23 24  1  0
 25 24  1  0
 26 22  1  0
 26 25  2  0
 27 20  1  0
 27 29  1  0
 28 27  2  0
M  END
$$$$
