LHH.pdb
     RDKit          3D

 29 30  0  0  1  0  0  0  0  0999 V2000
   21.6705  -15.4833  -21.9216 C   0  0  0  0  0  0  0  0  0  0  0  0
   21.7029  -15.4078  -20.4086 C   0  0  1  0  0  0  0  0  0  0  0  0
   23.0367  -14.9760  -19.8866 C   0  0  0  0  0  0  0  0  0  0  0  0
   20.5592  -14.6166  -19.8632 C   0  0  0  0  0  0  0  0  0  0  0  0
   20.5784  -14.4420  -18.3855 C   0  0  2  0  0  0  0  0  0  0  0  0
   20.4676  -15.6853  -17.6574 N   0  0  0  0  0  0  0  0  0  0  0  0
   19.4511  -13.5149  -18.0283 C   0  0  0  0  0  0  0  0  0  0  0  0
   18.4801  -13.4737  -18.8266 O   0  0  0  0  0  0  0  0  0  0  0  0
   19.4619  -12.7208  -16.8588 N   0  0  0  0  0  0  0  0  0  0  0  0
   18.3132  -11.8749  -16.4978 C   0  0  1  0  0  0  0  0  0  0  0  0
   17.7807  -12.2619  -15.1530 C   0  0  0  0  0  0  0  0  0  0  0  0
   16.8412  -13.3812  -15.2596 C   0  0  0  0  0  0  0  0  0  0  0  0
   16.4208  -14.0181  -16.3950 C   0  0  0  0  0  0  0  0  0  0  0  0
   15.5502  -14.9554  -16.0200 N   0  0  0  0  0  0  0  0  0  0  0  0
   15.4118  -14.9277  -14.7008 C   0  0  0  0  0  0  0  0  0  0  0  0
   16.1932  -13.9699  -14.2065 N   0  0  0  0  0  0  0  0  0  0  0  0
   18.7653  -10.4782  -16.5005 C   0  0  0  0  0  0  0  0  0  0  0  0
   19.8881  -10.0979  -16.0861 O   0  0  0  0  0  0  0  0  0  0  0  0
   17.9076   -9.4620  -16.9951 N   0  0  0  0  0  0  0  0  0  0  0  0
   18.2908   -8.0451  -16.9346 C   0  0  1  0  0  0  0  0  0  0  0  0
   17.3513   -7.2926  -17.8161 C   0  0  0  0  0  0  0  0  0  0  0  0
   17.6355   -5.8638  -17.9223 C   0  0  0  0  0  0  0  0  0  0  0  0
   18.8490   -5.2678  -17.6943 C   0  0  0  0  0  0  0  0  0  0  0  0
   18.6889   -3.9508  -17.8973 N   0  0  0  0  0  0  0  0  0  0  0  0
   17.4122   -3.7327  -18.2419 C   0  0  0  0  0  0  0  0  0  0  0  0
   16.7705   -4.9070  -18.2560 N   0  0  0  0  0  0  0  0  0  0  0  0
   18.2799   -7.5635  -15.5300 C   0  0  0  0  0  0  0  0  0  0  0  0
   17.3359   -7.8826  -14.7640 O   0  0  0  0  0  0  0  0  0  0  0  0
   19.2791   -6.7597  -15.0005 O   0  0  0  0  0  0  0  0  0  0  0  0
  2  1  1  6
  2  3  1  0
  4  2  1  0
  5  4  1  0
  5  6  1  1
  7  8  2  0
  7  5  1  0
  9  7  1  0
 10 11  1  1
 10  9  1  0
 11 12  1  0
 12 13  2  0
 12 16  1  0
 13 14  1  0
 14 15  1  0
 16 15  2  0
 17 10  1  0
 18 17  2  0
 19 17  1  0
 20 19  1  0
 21 22  1  0
 20 21  1  6
 22 23  2  0
 23 24  1  0
 25 24  1  0
 26 22  1  0
 26 25  2  0
 27 20  1  0
 27 29  1  0
 28 27  2  0
M  END
$$$$
