LHH.pdb
     RDKit          3D

 29 30  0  0  1  0  0  0  0  0999 V2000
   26.4760  -19.4462   -7.8833 C   0  0  0  0  0  0  0  0  0  0  0  0
   26.1870  -20.6460   -8.7624 C   0  0  1  0  0  0  0  0  0  0  0  0
   24.9839  -21.4104   -8.3083 C   0  0  0  0  0  0  0  0  0  0  0  0
   26.1571  -20.2839  -10.2114 C   0  0  0  0  0  0  0  0  0  0  0  0
   25.8955  -21.4265  -11.1280 C   0  0  2  0  0  0  0  0  0  0  0  0
   27.0930  -22.1287  -11.5292 N   0  0  0  0  0  0  0  0  0  0  0  0
   25.1712  -20.8834  -12.3272 C   0  0  0  0  0  0  0  0  0  0  0  0
   25.7582  -19.9836  -12.9811 O   0  0  0  0  0  0  0  0  0  0  0  0
   23.8940  -21.3466  -12.7178 N   0  0  0  0  0  0  0  0  0  0  0  0
   23.2801  -20.9203  -13.9854 C   0  0  1  0  0  0  0  0  0  0  0  0
   22.9129  -22.1111  -14.8154 C   0  0  0  0  0  0  0  0  0  0  0  0
   24.1074  -22.8390  -15.2515 C   0  0  0  0  0  0  0  0  0  0  0  0
   24.5791  -24.0344  -14.7824 C   0  0  0  0  0  0  0  0  0  0  0  0
   25.7024  -24.3019  -15.4487 N   0  0  0  0  0  0  0  0  0  0  0  0
   25.9485  -23.3241  -16.3109 C   0  0  0  0  0  0  0  0  0  0  0  0
   24.9849  -22.4109  -16.2119 N   0  0  0  0  0  0  0  0  0  0  0  0
   22.0926  -20.1198  -13.6627 C   0  0  0  0  0  0  0  0  0  0  0  0
   21.8987  -19.5568  -12.5570 O   0  0  0  0  0  0  0  0  0  0  0  0
   21.0747  -19.9472  -14.6359 N   0  0  0  0  0  0  0  0  0  0  0  0
   20.1067  -18.8464  -14.5392 C   0  0  1  0  0  0  0  0  0  0  0  0
   20.8791  -17.5706  -14.5807 C   0  0  0  0  0  0  0  0  0  0  0  0
   20.0581  -16.3644  -14.5143 C   0  0  0  0  0  0  0  0  0  0  0  0
   18.6945  -16.3285  -14.3762 C   0  0  0  0  0  0  0  0  0  0  0  0
   18.3312  -15.0366  -14.3574 N   0  0  0  0  0  0  0  0  0  0  0  0
   19.4369  -14.2891  -14.4802 C   0  0  0  0  0  0  0  0  0  0  0  0
   20.4924  -15.1064  -14.5760 N   0  0  0  0  0  0  0  0  0  0  0  0
   19.0951  -18.9475  -15.6215 C   0  0  0  0  0  0  0  0  0  0  0  0
   19.4642  -19.0652  -16.8172 O   0  0  0  0  0  0  0  0  0  0  0  0
   17.7289  -18.9186  -15.3819 O   0  0  0  0  0  0  0  0  0  0  0  0
  2  1  1  1
  2  3  1  0
  4  2  1  0
  5  4  1  0
  5  6  1  6
  7  8  2  0
  7  5  1  0
  9  7  1  0
 10 11  1  6
 10  9  1  0
 11 12  1  0
 12 13  2  0
 12 16  1  0
 13 14  1  0
 14 15  1  0
 16 15  2  0
 17 10  1  0
 18 17  2  0
 19 17  1  0
 20 19  1  0
 21 22  1  0
 20 21  1  6
 22 23  2  0
 23 24  1  0
 25 24  1  0
 26 22  1  0
 26 25  2  0
 27 20  1  0
 27 29  1  0
 28 27  2  0
M  END
$$$$
