LHH.pdb
     RDKit          3D

 29 30  0  0  1  0  0  0  0  0999 V2000
   40.3774  -12.9794  -10.8605 C   0  0  0  0  0  0  0  0  0  0  0  0
   41.7254  -12.5459  -10.3212 C   0  0  1  0  0  0  0  0  0  0  0  0
   42.6058  -11.9660  -11.3826 C   0  0  0  0  0  0  0  0  0  0  0  0
   41.5918  -11.6794   -9.1117 C   0  0  0  0  0  0  0  0  0  0  0  0
   42.8753  -11.1183   -8.6094 C   0  0  2  0  0  0  0  0  0  0  0  0
   43.6803  -12.0778   -7.8889 N   0  0  0  0  0  0  0  0  0  0  0  0
   42.5400   -9.9431   -7.7352 C   0  0  0  0  0  0  0  0  0  0  0  0
   42.1303  -10.2020   -6.5747 O   0  0  0  0  0  0  0  0  0  0  0  0
   42.6715   -8.6063   -8.1758 N   0  0  0  0  0  0  0  0  0  0  0  0
   42.3114   -7.4752   -7.3060 C   0  0  1  0  0  0  0  0  0  0  0  0
   43.5012   -6.5973   -7.0701 C   0  0  0  0  0  0  0  0  0  0  0  0
   44.4247   -7.2070   -6.1097 C   0  0  0  0  0  0  0  0  0  0  0  0
   44.2906   -8.4040   -5.4611 C   0  0  0  0  0  0  0  0  0  0  0  0
   45.3527   -8.5415   -4.6672 N   0  0  0  0  0  0  0  0  0  0  0  0
   46.1401   -7.4813   -4.7948 C   0  0  0  0  0  0  0  0  0  0  0  0
   45.5951   -6.6443   -5.6748 N   0  0  0  0  0  0  0  0  0  0  0  0
   41.2314   -6.7291   -7.9633 C   0  0  0  0  0  0  0  0  0  0  0  0
   41.0432   -6.7044   -9.2047 O   0  0  0  0  0  0  0  0  0  0  0  0
   40.3202   -5.9742   -7.1804 N   0  0  0  0  0  0  0  0  0  0  0  0
   39.2702   -5.1598   -7.8069 C   0  0  1  0  0  0  0  0  0  0  0  0
   38.3787   -4.6686   -6.7161 C   0  0  0  0  0  0  0  0  0  0  0  0
   37.2990   -3.7936   -7.1657 C   0  0  0  0  0  0  0  0  0  0  0  0
   36.9476   -3.5578   -8.4698 C   0  0  0  0  0  0  0  0  0  0  0  0
   35.9142   -2.7016   -8.4539 N   0  0  0  0  0  0  0  0  0  0  0  0
   35.6300   -2.4123   -7.1765 C   0  0  0  0  0  0  0  0  0  0  0  0
   36.4806   -3.0832   -6.3907 N   0  0  0  0  0  0  0  0  0  0  0  0
   39.8714   -4.0606   -8.6040 C   0  0  0  0  0  0  0  0  0  0  0  0
   40.8747   -3.4432   -8.1658 O   0  0  0  0  0  0  0  0  0  0  0  0
   39.3756   -3.6654   -9.8380 O   0  0  0  0  0  0  0  0  0  0  0  0
  2  1  1  6
  2  3  1  0
  4  2  1  0
  5  4  1  0
  5  6  1  1
  7  8  2  0
  7  5  1  0
  9  7  1  0
 10 11  1  6
 10  9  1  0
 11 12  1  0
 12 13  2  0
 12 16  1  0
 13 14  1  0
 14 15  1  0
 16 15  2  0
 17 10  1  0
 18 17  2  0
 19 17  1  0
 20 19  1  0
 21 22  1  0
 20 21  1  1
 22 23  2  0
 23 24  1  0
 25 24  1  0
 26 22  1  0
 26 25  2  0
 27 20  1  0
 27 29  1  0
 28 27  2  0
M  END
$$$$
