LHH.pdb
     RDKit          3D

 29 30  0  0  1  0  0  0  0  0999 V2000
   18.8153  -14.0610    2.0311 C   0  0  0  0  0  0  0  0  0  0  0  0
   18.3013  -14.3466    3.4276 C   0  0  1  0  0  0  0  0  0  0  0  0
   17.7617  -13.1235    4.0990 C   0  0  0  0  0  0  0  0  0  0  0  0
   17.3632  -15.5089    3.4518 C   0  0  0  0  0  0  0  0  0  0  0  0
   16.9660  -15.9533    4.8153 C   0  0  2  0  0  0  0  0  0  0  0  0
   17.8949  -15.5495    5.8458 N   0  0  0  0  0  0  0  0  0  0  0  0
   16.8309  -17.4493    4.7783 C   0  0  0  0  0  0  0  0  0  0  0  0
   15.8189  -17.9101    4.1906 O   0  0  0  0  0  0  0  0  0  0  0  0
   17.7820  -18.3130    5.3681 N   0  0  0  0  0  0  0  0  0  0  0  0
   17.6398  -19.7756    5.2895 C   0  0  1  0  0  0  0  0  0  0  0  0
   18.5290  -20.3309    4.2204 C   0  0  0  0  0  0  0  0  0  0  0  0
   17.9252  -20.1691    2.8952 C   0  0  0  0  0  0  0  0  0  0  0  0
   16.6807  -19.6878    2.5936 C   0  0  0  0  0  0  0  0  0  0  0  0
   16.5487  -19.7437    1.2682 N   0  0  0  0  0  0  0  0  0  0  0  0
   17.6574  -20.2393    0.7341 C   0  0  0  0  0  0  0  0  0  0  0  0
   18.5212  -20.5101    1.7102 N   0  0  0  0  0  0  0  0  0  0  0  0
   17.9882  -20.3320    6.6026 C   0  0  0  0  0  0  0  0  0  0  0  0
   18.5578  -19.6851    7.5159 O   0  0  0  0  0  0  0  0  0  0  0  0
   17.6784  -21.6847    6.8981 N   0  0  0  0  0  0  0  0  0  0  0  0
   18.0196  -22.2781    8.1979 C   0  0  1  0  0  0  0  0  0  0  0  0
   16.8382  -23.0702    8.6486 C   0  0  0  0  0  0  0  0  0  0  0  0
   15.7442  -22.2686    9.1907 C   0  0  0  0  0  0  0  0  0  0  0  0
   15.8783  -21.1037    9.9012 C   0  0  0  0  0  0  0  0  0  0  0  0
   14.6422  -20.6849   10.2141 N   0  0  0  0  0  0  0  0  0  0  0  0
   13.7632  -21.5637    9.7128 C   0  0  0  0  0  0  0  0  0  0  0  0
   14.4423  -22.5321    9.0868 N   0  0  0  0  0  0  0  0  0  0  0  0
   19.2565  -23.0923    8.0888 C   0  0  0  0  0  0  0  0  0  0  0  0
   19.7481  -23.3392    6.9586 O   0  0  0  0  0  0  0  0  0  0  0  0
   19.9185  -23.6101    9.1926 O   0  0  0  0  0  0  0  0  0  0  0  0
  2  1  1  6
  2  3  1  0
  4  2  1  0
  5  4  1  0
  5  6  1  1
  7  8  2  0
  7  5  1  0
  9  7  1  0
 10 11  1  6
 10  9  1  0
 11 12  1  0
 12 13  2  0
 12 16  1  0
 13 14  1  0
 14 15  1  0
 16 15  2  0
 17 10  1  0
 18 17  2  0
 19 17  1  0
 20 19  1  0
 21 22  1  0
 20 21  1  6
 22 23  2  0
 23 24  1  0
 25 24  1  0
 26 22  1  0
 26 25  2  0
 27 20  1  0
 27 29  1  0
 28 27  2  0
M  END
$$$$
