IEG.pdb
     RDKit          3D

 22 21  0  0  1  0  0  0  0  0999 V2000
   28.4154  -11.6485  -16.2388 C   0  0  0  0  0  0  0  0  0  0  0  0
   27.0174  -12.2269  -16.2292 C   0  0  0  0  0  0  0  0  0  0  0  0
   26.0210  -11.0896  -16.3644 C   0  0  2  0  0  0  0  0  0  0  0  0
   26.0400  -10.3138  -15.0542 C   0  0  0  0  0  0  0  0  0  0  0  0
   24.6229  -11.5958  -16.5620 C   0  0  2  0  0  0  0  0  0  0  0  0
   24.4821  -12.5115  -17.6588 N   0  0  0  0  0  0  0  0  0  0  0  0
   23.6851  -10.4647  -16.6349 C   0  0  0  0  0  0  0  0  0  0  0  0
   23.6748   -9.7680  -17.6832 O   0  0  0  0  0  0  0  0  0  0  0  0
   22.7902  -10.1116  -15.5930 N   0  0  0  0  0  0  0  0  0  0  0  0
   21.8882   -9.0077  -15.7681 C   0  0  1  0  0  0  0  0  0  0  0  0
   20.4488   -9.4657  -15.8398 C   0  0  0  0  0  0  0  0  0  0  0  0
   19.4861   -8.3228  -16.0450 C   0  0  0  0  0  0  0  0  0  0  0  0
   19.1158   -8.2715  -17.4698 C   0  0  0  0  0  0  0  0  0  0  0  0
   19.5438   -9.1393  -18.2552 O   0  0  0  0  0  0  0  0  0  0  0  0
   22.0937   -8.0468  -14.6415 C   0  0  0  0  0  0  0  0  0  0  0  0
   22.3139   -8.4604  -13.4750 O   0  0  0  0  0  0  0  0  0  0  0  0
   18.2991   -7.2693  -17.9386 O   0  0  0  0  0  0  0  0  0  0  0  0
   22.0538   -6.6304  -14.8174 N   0  0  0  0  0  0  0  0  0  0  0  0
   22.1929   -5.6960  -13.7459 C   0  0  0  0  0  0  0  0  0  0  0  0
   22.0642   -4.2842  -14.1622 C   0  0  0  0  0  0  0  0  0  0  0  0
   22.2283   -3.3086  -13.1900 O   0  0  0  0  0  0  0  0  0  0  0  0
   21.8166   -3.8991  -15.3331 O   0  0  0  0  0  0  0  0  0  0  0  0
  2  1  1  0
  3  5  1  0
  3  2  1  0
  3  4  1  1
  5  7  1  0
  5  6  1  6
  7  8  2  0
  9  7  1  0
  9 10  1  0
 10 15  1  0
 10 11  1  1
 11 12  1  0
 12 13  1  0
 13 14  2  0
 13 17  1  0
 15 16  2  0
 18 19  1  0
 18 15  1  0
 20 19  1  0
 21 20  1  0
 22 20  2  0
M  END
$$$$
