IEG.pdb
     RDKit          3D

 22 21  0  0  1  0  0  0  0  0999 V2000
   15.7091  -13.1493  -15.9562 C   0  0  0  0  0  0  0  0  0  0  0  0
   15.9207  -11.7858  -15.3357 C   0  0  0  0  0  0  0  0  0  0  0  0
   17.3612  -11.3659  -15.5670 C   0  0  2  0  0  0  0  0  0  0  0  0
   18.2472  -12.3782  -14.8535 C   0  0  0  0  0  0  0  0  0  0  0  0
   17.6511  -10.0210  -14.9696 C   0  0  2  0  0  0  0  0  0  0  0  0
   16.8012   -8.9702  -15.4543 N   0  0  0  0  0  0  0  0  0  0  0  0
   19.0825   -9.7096  -15.1048 C   0  0  0  0  0  0  0  0  0  0  0  0
   19.8977  -10.3338  -14.3767 O   0  0  0  0  0  0  0  0  0  0  0  0
   19.5999   -8.7463  -16.0080 N   0  0  0  0  0  0  0  0  0  0  0  0
   21.0111   -8.4811  -16.0400 C   0  0  1  0  0  0  0  0  0  0  0  0
   21.6003   -8.7448  -17.4074 C   0  0  0  0  0  0  0  0  0  0  0  0
   23.0766   -8.4420  -17.4711 C   0  0  0  0  0  0  0  0  0  0  0  0
   23.5650   -8.7708  -18.8214 C   0  0  0  0  0  0  0  0  0  0  0  0
   24.0642   -9.8903  -19.0466 O   0  0  0  0  0  0  0  0  0  0  0  0
   21.2348   -7.0641  -15.6196 C   0  0  0  0  0  0  0  0  0  0  0  0
   20.6770   -6.1164  -16.2288 O   0  0  0  0  0  0  0  0  0  0  0  0
   23.4729   -7.8473  -19.8363 O   0  0  0  0  0  0  0  0  0  0  0  0
   22.0775   -6.7075  -14.5235 N   0  0  0  0  0  0  0  0  0  0  0  0
   22.3745   -5.3582  -14.1605 C   0  0  0  0  0  0  0  0  0  0  0  0
   21.2519   -4.6526  -13.5086 C   0  0  0  0  0  0  0  0  0  0  0  0
   21.4618   -3.3421  -13.1058 O   0  0  0  0  0  0  0  0  0  0  0  0
   20.1184   -5.1509  -13.2907 O   0  0  0  0  0  0  0  0  0  0  0  0
  2  1  1  0
  3  5  1  0
  3  2  1  0
  3  4  1  1
  5  7  1  0
  5  6  1  6
  7  8  2  0
  9  7  1  0
  9 10  1  0
 10 15  1  0
 10 11  1  6
 11 12  1  0
 12 13  1  0
 13 14  2  0
 13 17  1  0
 15 16  2  0
 18 19  1  0
 18 15  1  0
 20 19  1  0
 21 20  1  0
 22 20  2  0
M  END
$$$$
