IEG.pdb
     RDKit          3D

 22 21  0  0  1  0  0  0  0  0999 V2000
   29.0057  -13.7579  -16.8650 C   0  0  0  0  0  0  0  0  0  0  0  0
   27.5170  -13.5846  -16.6584 C   0  0  0  0  0  0  0  0  0  0  0  0
   27.2340  -12.1205  -16.3733 C   0  0  2  0  0  0  0  0  0  0  0  0
   27.8802  -11.7875  -15.0352 C   0  0  0  0  0  0  0  0  0  0  0  0
   25.7641  -11.8547  -16.2365 C   0  0  2  0  0  0  0  0  0  0  0  0
   24.9660  -12.4295  -17.2825 N   0  0  0  0  0  0  0  0  0  0  0  0
   25.5288  -10.4132  -16.0615 C   0  0  0  0  0  0  0  0  0  0  0  0
   26.0253   -9.8483  -15.0521 O   0  0  0  0  0  0  0  0  0  0  0  0
   24.7746   -9.6202  -16.9635 N   0  0  0  0  0  0  0  0  0  0  0  0
   24.5589   -8.2280  -16.6840 C   0  0  1  0  0  0  0  0  0  0  0  0
   24.9830   -7.3516  -17.8410 C   0  0  0  0  0  0  0  0  0  0  0  0
   26.4741   -7.3717  -18.0678 C   0  0  0  0  0  0  0  0  0  0  0  0
   26.7848   -6.5093  -19.2209 C   0  0  0  0  0  0  0  0  0  0  0  0
   25.8663   -5.9167  -19.8196 O   0  0  0  0  0  0  0  0  0  0  0  0
   23.1135   -8.0303  -16.3582 C   0  0  0  0  0  0  0  0  0  0  0  0
   22.2345   -8.7841  -16.8477 O   0  0  0  0  0  0  0  0  0  0  0  0
   28.0851   -6.3544  -19.6408 O   0  0  0  0  0  0  0  0  0  0  0  0
   22.6520   -6.9955  -15.4893 N   0  0  0  0  0  0  0  0  0  0  0  0
   21.2747   -6.7789  -15.1789 C   0  0  0  0  0  0  0  0  0  0  0  0
   21.0431   -5.6818  -14.2166 C   0  0  0  0  0  0  0  0  0  0  0  0
   19.7295   -5.3729  -13.8960 O   0  0  0  0  0  0  0  0  0  0  0  0
   21.9482   -5.0053  -13.6655 O   0  0  0  0  0  0  0  0  0  0  0  0
  2  1  1  0
  3  5  1  0
  3  2  1  0
  3  4  1  1
  5  7  1  0
  5  6  1  6
  7  8  2  0
  9  7  1  0
  9 10  1  0
 10 15  1  0
 10 11  1  6
 11 12  1  0
 12 13  1  0
 13 14  2  0
 13 17  1  0
 15 16  2  0
 18 19  1  0
 18 15  1  0
 20 19  1  0
 21 20  1  0
 22 20  2  0
M  END
$$$$
