IEG.pdb
     RDKit          3D

 22 21  0  0  1  0  0  0  0  0999 V2000
   25.4688  -13.1192  -15.6448 C   0  0  0  0  0  0  0  0  0  0  0  0
   23.9595  -13.2054  -15.5862 C   0  0  0  0  0  0  0  0  0  0  0  0
   23.3837  -11.8283  -15.8636 C   0  0  2  0  0  0  0  0  0  0  0  0
   23.8214  -10.9176  -14.7243 C   0  0  0  0  0  0  0  0  0  0  0  0
   21.8839  -11.8438  -15.8705 C   0  0  2  0  0  0  0  0  0  0  0  0
   21.3128  -12.7619  -16.8151 N   0  0  0  0  0  0  0  0  0  0  0  0
   21.3684  -10.4739  -16.0182 C   0  0  0  0  0  0  0  0  0  0  0  0
   21.5338   -9.8927  -17.1224 O   0  0  0  0  0  0  0  0  0  0  0  0
   20.6951   -9.7675  -14.9891 N   0  0  0  0  0  0  0  0  0  0  0  0
   20.2570   -8.4186  -15.2158 C   0  0  1  0  0  0  0  0  0  0  0  0
   18.7547   -8.2902  -15.1011 C   0  0  0  0  0  0  0  0  0  0  0  0
   18.0290   -8.9034  -16.2726 C   0  0  0  0  0  0  0  0  0  0  0  0
   16.5792   -8.7764  -16.0449 C   0  0  0  0  0  0  0  0  0  0  0  0
   15.9535   -7.8190  -16.5401 O   0  0  0  0  0  0  0  0  0  0  0  0
   20.9516   -7.5261  -14.2382 C   0  0  0  0  0  0  0  0  0  0  0  0
   21.2491   -7.9390  -13.0886 O   0  0  0  0  0  0  0  0  0  0  0  0
   15.9115   -9.7101  -15.2876 O   0  0  0  0  0  0  0  0  0  0  0  0
   21.3124   -6.1788  -14.5435 N   0  0  0  0  0  0  0  0  0  0  0  0
   21.9763   -5.3100  -13.6242 C   0  0  0  0  0  0  0  0  0  0  0  0
   22.3636   -4.0075  -14.2044 C   0  0  0  0  0  0  0  0  0  0  0  0
   22.9957   -3.0947  -13.3733 O   0  0  0  0  0  0  0  0  0  0  0  0
   22.1630   -3.6630  -15.3968 O   0  0  0  0  0  0  0  0  0  0  0  0
  2  1  1  0
  3  5  1  0
  3  2  1  0
  3  4  1  1
  5  7  1  0
  5  6  1  6
  7  8  2  0
  9  7  1  0
  9 10  1  0
 10 15  1  0
 10 11  1  1
 11 12  1  0
 12 13  1  0
 13 14  2  0
 13 17  1  0
 15 16  2  0
 18 19  1  0
 18 15  1  0
 20 19  1  0
 21 20  1  0
 22 20  2  0
M  END
$$$$
