IEG.pdb
     RDKit          3D

 22 21  0  0  1  0  0  0  0  0999 V2000
   28.6887  -11.3402  -16.4968 C   0  0  0  0  0  0  0  0  0  0  0  0
   27.3350  -11.9889  -16.3075 C   0  0  0  0  0  0  0  0  0  0  0  0
   26.2637  -10.9201  -16.4289 C   0  0  2  0  0  0  0  0  0  0  0  0
   26.4265   -9.9800  -15.2421 C   0  0  0  0  0  0  0  0  0  0  0  0
   24.8843  -11.5038  -16.3488 C   0  0  2  0  0  0  0  0  0  0  0  0
   24.6464  -12.5718  -17.2784 N   0  0  0  0  0  0  0  0  0  0  0  0
   23.8800  -10.4325  -16.4364 C   0  0  0  0  0  0  0  0  0  0  0  0
   23.7669   -9.8116  -17.5255 O   0  0  0  0  0  0  0  0  0  0  0  0
   23.0299  -10.0566  -15.3653 N   0  0  0  0  0  0  0  0  0  0  0  0
   22.0434   -9.0312  -15.5609 C   0  0  1  0  0  0  0  0  0  0  0  0
   20.6376   -9.5778  -15.4536 C   0  0  0  0  0  0  0  0  0  0  0  0
   20.3262  -10.5919  -16.5259 C   0  0  0  0  0  0  0  0  0  0  0  0
   18.9551  -11.0886  -16.3177 C   0  0  0  0  0  0  0  0  0  0  0  0
   17.9815  -10.3630  -16.5985 O   0  0  0  0  0  0  0  0  0  0  0  0
   22.2806   -7.9500  -14.5562 C   0  0  0  0  0  0  0  0  0  0  0  0
   22.7536   -8.2175  -13.4226 O   0  0  0  0  0  0  0  0  0  0  0  0
   18.7435  -12.3508  -15.8144 O   0  0  0  0  0  0  0  0  0  0  0  0
   21.9910   -6.5763  -14.8168 N   0  0  0  0  0  0  0  0  0  0  0  0
   22.2620   -5.5216  -13.8924 C   0  0  0  0  0  0  0  0  0  0  0  0
   21.9965   -4.1712  -14.4300 C   0  0  0  0  0  0  0  0  0  0  0  0
   22.3067   -3.0851  -13.6252 O   0  0  0  0  0  0  0  0  0  0  0  0
   21.5094   -3.9314  -15.5640 O   0  0  0  0  0  0  0  0  0  0  0  0
  2  1  1  0
  3  5  1  0
  3  2  1  0
  3  4  1  1
  5  7  1  0
  5  6  1  6
  7  8  2  0
  9  7  1  0
  9 10  1  0
 10 15  1  0
 10 11  1  1
 11 12  1  0
 12 13  1  0
 13 14  2  0
 13 17  1  0
 15 16  2  0
 18 19  1  0
 18 15  1  0
 20 19  1  0
 21 20  1  0
 22 20  2  0
M  END
$$$$
