IEG.pdb
     RDKit          3D

 22 21  0  0  1  0  0  0  0  0999 V2000
   19.9965  -15.0002  -17.6516 C   0  0  0  0  0  0  0  0  0  0  0  0
   18.9459  -14.1911  -16.9232 C   0  0  0  0  0  0  0  0  0  0  0  0
   19.4282  -12.7556  -16.8146 C   0  0  2  0  0  0  0  0  0  0  0  0
   20.6429  -12.7552  -15.8962 C   0  0  0  0  0  0  0  0  0  0  0  0
   18.3949  -11.8679  -16.1869 C   0  0  2  0  0  0  0  0  0  0  0  0
   17.0696  -12.0549  -16.7066 N   0  0  0  0  0  0  0  0  0  0  0  0
   18.8389  -10.4664  -16.2383 C   0  0  0  0  0  0  0  0  0  0  0  0
   20.0263  -10.2316  -16.5840 O   0  0  0  0  0  0  0  0  0  0  0  0
   18.0078   -9.3619  -15.9212 N   0  0  0  0  0  0  0  0  0  0  0  0
   18.5294   -8.0264  -16.0065 C   0  0  1  0  0  0  0  0  0  0  0  0
   17.4375   -7.0136  -16.2683 C   0  0  0  0  0  0  0  0  0  0  0  0
   17.9641   -5.6031  -16.3583 C   0  0  0  0  0  0  0  0  0  0  0  0
   16.8250   -4.6883  -16.5470 C   0  0  0  0  0  0  0  0  0  0  0  0
   16.3299   -4.1010  -15.5655 O   0  0  0  0  0  0  0  0  0  0  0  0
   19.2559   -7.7212  -14.7362 C   0  0  0  0  0  0  0  0  0  0  0  0
   18.9089   -8.2551  -13.6523 O   0  0  0  0  0  0  0  0  0  0  0  0
   16.3042   -4.4787  -17.8024 O   0  0  0  0  0  0  0  0  0  0  0  0
   20.3651   -6.8240  -14.6771 N   0  0  0  0  0  0  0  0  0  0  0  0
   21.0272   -6.4636  -13.4638 C   0  0  0  0  0  0  0  0  0  0  0  0
   22.2458   -5.6526  -13.6647 C   0  0  0  0  0  0  0  0  0  0  0  0
   22.8775   -5.1491  -12.5373 O   0  0  0  0  0  0  0  0  0  0  0  0
   22.7545   -5.3834  -14.7824 O   0  0  0  0  0  0  0  0  0  0  0  0
  2  1  1  0
  3  5  1  0
  3  2  1  0
  3  4  1  1
  5  7  1  0
  5  6  1  6
  7  8  2  0
  9  7  1  0
  9 10  1  0
 10 15  1  0
 10 11  1  1
 11 12  1  0
 12 13  1  0
 13 14  2  0
 13 17  1  0
 15 16  2  0
 18 19  1  0
 18 15  1  0
 20 19  1  0
 21 20  1  0
 22 20  2  0
M  END
$$$$
