IEG.pdb
     RDKit          3D

 22 21  0  0  1  0  0  0  0  0999 V2000
   12.2644  -11.9854  -10.0894 C   0  0  0  0  0  0  0  0  0  0  0  0
   13.4979  -12.0653  -10.9617 C   0  0  0  0  0  0  0  0  0  0  0  0
   14.5320  -11.0892  -10.4300 C   0  0  2  0  0  0  0  0  0  0  0  0
   13.9737   -9.6864  -10.6289 C   0  0  0  0  0  0  0  0  0  0  0  0
   15.8185  -11.1694  -11.1971 C   0  0  2  0  0  0  0  0  0  0  0  0
   16.3990  -12.4822  -11.2297 N   0  0  0  0  0  0  0  0  0  0  0  0
   16.7538  -10.1402  -10.7178 C   0  0  0  0  0  0  0  0  0  0  0  0
   17.4561  -10.4004   -9.7060 O   0  0  0  0  0  0  0  0  0  0  0  0
   16.9121   -8.8699  -11.3283 N   0  0  0  0  0  0  0  0  0  0  0  0
   17.8488   -7.9266  -10.7846 C   0  0  1  0  0  0  0  0  0  0  0  0
   18.9398   -7.5857  -11.7746 C   0  0  0  0  0  0  0  0  0  0  0  0
   19.9680   -6.6420  -11.2024 C   0  0  0  0  0  0  0  0  0  0  0  0
   21.0241   -6.4334  -12.2080 C   0  0  0  0  0  0  0  0  0  0  0  0
   21.4149   -5.2791  -12.4690 O   0  0  0  0  0  0  0  0  0  0  0  0
   17.0980   -6.7037  -10.3658 C   0  0  0  0  0  0  0  0  0  0  0  0
   16.5825   -5.9406  -11.2216 O   0  0  0  0  0  0  0  0  0  0  0  0
   21.5818   -7.5074  -12.8611 O   0  0  0  0  0  0  0  0  0  0  0  0
   16.9237   -6.3351   -8.9974 N   0  0  0  0  0  0  0  0  0  0  0  0
   16.3070   -5.1165   -8.5789 C   0  0  0  0  0  0  0  0  0  0  0  0
   14.8359   -5.1118   -8.7169 C   0  0  0  0  0  0  0  0  0  0  0  0
   14.1485   -4.0025   -8.2470 O   0  0  0  0  0  0  0  0  0  0  0  0
   14.1584   -6.0389   -9.2287 O   0  0  0  0  0  0  0  0  0  0  0  0
  2  1  1  0
  3  5  1  0
  3  2  1  0
  3  4  1  6
  5  7  1  0
  5  6  1  1
  7  8  2  0
  9  7  1  0
  9 10  1  0
 10 15  1  0
 10 11  1  6
 11 12  1  0
 12 13  1  0
 13 14  2  0
 13 17  1  0
 15 16  2  0
 18 19  1  0
 18 15  1  0
 20 19  1  0
 21 20  1  0
 22 20  2  0
M  END
$$$$
