IEG.pdb
     RDKit          3D

 22 21  0  0  1  0  0  0  0  0999 V2000
   26.4013  -14.6509  -14.6531 C   0  0  0  0  0  0  0  0  0  0  0  0
   25.7918  -14.0770  -15.9132 C   0  0  0  0  0  0  0  0  0  0  0  0
   24.4831  -13.3970  -15.5529 C   0  0  2  0  0  0  0  0  0  0  0  0
   23.5420  -14.4751  -15.0324 C   0  0  0  0  0  0  0  0  0  0  0  0
   23.8301  -12.7769  -16.7524 C   0  0  2  0  0  0  0  0  0  0  0  0
   24.7545  -12.3298  -17.7559 N   0  0  0  0  0  0  0  0  0  0  0  0
   22.8928  -11.7260  -16.3267 C   0  0  0  0  0  0  0  0  0  0  0  0
   21.9352  -12.0519  -15.5775 O   0  0  0  0  0  0  0  0  0  0  0  0
   23.0037  -10.3653  -16.7104 N   0  0  0  0  0  0  0  0  0  0  0  0
   22.0120   -9.4184  -16.2830 C   0  0  1  0  0  0  0  0  0  0  0  0
   22.5641   -8.4515  -15.2599 C   0  0  0  0  0  0  0  0  0  0  0  0
   21.5162   -7.5029  -14.7334 C   0  0  0  0  0  0  0  0  0  0  0  0
   22.1148   -6.6920  -13.6591 C   0  0  0  0  0  0  0  0  0  0  0  0
   22.1311   -7.1234  -12.4899 O   0  0  0  0  0  0  0  0  0  0  0  0
   21.4989   -8.6961  -17.4870 C   0  0  0  0  0  0  0  0  0  0  0  0
   22.2282   -8.5307  -18.4975 O   0  0  0  0  0  0  0  0  0  0  0  0
   22.6565   -5.4596  -13.9400 O   0  0  0  0  0  0  0  0  0  0  0  0
   20.1771   -8.1613  -17.5619 N   0  0  0  0  0  0  0  0  0  0  0  0
   19.6851   -7.4222  -18.6809 C   0  0  0  0  0  0  0  0  0  0  0  0
   18.2429   -7.1101  -18.6050 C   0  0  0  0  0  0  0  0  0  0  0  0
   17.3546   -8.0397  -19.1253 O   0  0  0  0  0  0  0  0  0  0  0  0
   17.7586   -6.0638  -18.1038 O   0  0  0  0  0  0  0  0  0  0  0  0
  2  1  1  0
  3  5  1  0
  3  2  1  0
  3  4  1  6
  5  7  1  0
  5  6  1  6
  7  8  2  0
  9  7  1  0
  9 10  1  0
 10 15  1  0
 10 11  1  1
 11 12  1  0
 12 13  1  0
 13 14  2  0
 13 17  1  0
 15 16  2  0
 18 19  1  0
 18 15  1  0
 20 19  1  0
 21 20  1  0
 22 20  2  0
M  END
$$$$
