IEG.pdb
     RDKit          3D

 22 21  0  0  1  0  0  0  0  0999 V2000
   28.0186  -10.6269  -16.3197 C   0  0  0  0  0  0  0  0  0  0  0  0
   26.7991  -11.5018  -16.5109 C   0  0  0  0  0  0  0  0  0  0  0  0
   25.5689  -10.6138  -16.5664 C   0  0  2  0  0  0  0  0  0  0  0  0
   25.3901  -10.0024  -15.1832 C   0  0  0  0  0  0  0  0  0  0  0  0
   24.3284  -11.4007  -16.8693 C   0  0  2  0  0  0  0  0  0  0  0  0
   24.4569  -12.2854  -17.9928 N   0  0  0  0  0  0  0  0  0  0  0  0
   23.1743  -10.4953  -16.9809 C   0  0  0  0  0  0  0  0  0  0  0  0
   23.0897   -9.7637  -18.0017 O   0  0  0  0  0  0  0  0  0  0  0  0
   22.1495  -10.3972  -16.0056 N   0  0  0  0  0  0  0  0  0  0  0  0
   21.0099   -9.5571  -16.2474 C   0  0  1  0  0  0  0  0  0  0  0  0
   19.7134  -10.3293  -16.1501 C   0  0  0  0  0  0  0  0  0  0  0  0
   18.4997   -9.4466  -16.3020 C   0  0  0  0  0  0  0  0  0  0  0  0
   17.3958  -10.0284  -15.5191 C   0  0  0  0  0  0  0  0  0  0  0  0
   17.5663  -11.0987  -14.9038 O   0  0  0  0  0  0  0  0  0  0  0  0
   21.0402   -8.4272  -15.2692 C   0  0  0  0  0  0  0  0  0  0  0  0
   20.1306   -7.5595  -15.2599 O   0  0  0  0  0  0  0  0  0  0  0  0
   16.1761   -9.3956  -15.4637 O   0  0  0  0  0  0  0  0  0  0  0  0
   22.0818   -8.2674  -14.3056 N   0  0  0  0  0  0  0  0  0  0  0  0
   22.2261   -7.1097  -13.4815 C   0  0  0  0  0  0  0  0  0  0  0  0
   22.4703   -5.8636  -14.2370 C   0  0  0  0  0  0  0  0  0  0  0  0
   22.8539   -4.7401  -13.5197 O   0  0  0  0  0  0  0  0  0  0  0  0
   22.3563   -5.7439  -15.4833 O   0  0  0  0  0  0  0  0  0  0  0  0
  2  1  1  0
  3  5  1  0
  3  2  1  0
  3  4  1  1
  5  7  1  0
  5  6  1  6
  7  8  2  0
  9  7  1  0
  9 10  1  0
 10 15  1  0
 10 11  1  1
 11 12  1  0
 12 13  1  0
 13 14  2  0
 13 17  1  0
 15 16  2  0
 18 19  1  0
 18 15  1  0
 20 19  1  0
 21 20  1  0
 22 20  2  0
M  END
$$$$
