IEG.pdb
     RDKit          3D

 22 21  0  0  1  0  0  0  0  0999 V2000
   23.8408  -14.0630  -19.2784 C   0  0  0  0  0  0  0  0  0  0  0  0
   24.0311  -13.4747  -17.8976 C   0  0  0  0  0  0  0  0  0  0  0  0
   23.3395  -12.1242  -17.8462 C   0  0  2  0  0  0  0  0  0  0  0  0
   24.0877  -11.1968  -18.7944 C   0  0  0  0  0  0  0  0  0  0  0  0
   23.4114  -11.5144  -16.4777 C   0  0  2  0  0  0  0  0  0  0  0  0
   23.0507  -12.4128  -15.4174 N   0  0  0  0  0  0  0  0  0  0  0  0
   22.6495  -10.2564  -16.4479 C   0  0  0  0  0  0  0  0  0  0  0  0
   22.9525   -9.3585  -17.2764 O   0  0  0  0  0  0  0  0  0  0  0  0
   21.5920   -9.9941  -15.5400 N   0  0  0  0  0  0  0  0  0  0  0  0
   20.8785   -8.7497  -15.6131 C   0  0  1  0  0  0  0  0  0  0  0  0
   19.4013   -8.9340  -15.3477 C   0  0  0  0  0  0  0  0  0  0  0  0
   18.6251   -7.6464  -15.4692 C   0  0  0  0  0  0  0  0  0  0  0  0
   17.1986   -7.9355  -15.2419 C   0  0  0  0  0  0  0  0  0  0  0  0
   16.3279   -7.1796  -15.7151 O   0  0  0  0  0  0  0  0  0  0  0  0
   21.4884   -7.7977  -14.6351 C   0  0  0  0  0  0  0  0  0  0  0  0
   22.0462   -8.2182  -13.5900 O   0  0  0  0  0  0  0  0  0  0  0  0
   16.8222   -9.0366  -14.5092 O   0  0  0  0  0  0  0  0  0  0  0  0
   21.4752   -6.3824  -14.8240 N   0  0  0  0  0  0  0  0  0  0  0  0
   22.0527   -5.4561  -13.9026 C   0  0  0  0  0  0  0  0  0  0  0  0
   22.0281   -4.0542  -14.3685 C   0  0  0  0  0  0  0  0  0  0  0  0
   21.5264   -3.8059  -15.6375 O   0  0  0  0  0  0  0  0  0  0  0  0
   22.4285   -3.0671  -13.7007 O   0  0  0  0  0  0  0  0  0  0  0  0
  2  1  1  0
  3  5  1  0
  3  2  1  0
  3  4  1  6
  5  7  1  0
  5  6  1  1
  7  8  2  0
  9  7  1  0
  9 10  1  0
 10 15  1  0
 10 11  1  1
 11 12  1  0
 12 13  1  0
 13 14  2  0
 13 17  1  0
 15 16  2  0
 18 19  1  0
 18 15  1  0
 20 19  1  0
 21 20  1  0
 22 20  2  0
M  END
$$$$
