IEG.pdb
     RDKit          3D

 22 21  0  0  1  0  0  0  0  0999 V2000
   27.0504  -19.9858   -7.0013 C   0  0  0  0  0  0  0  0  0  0  0  0
   27.2268  -20.9084   -8.1874 C   0  0  0  0  0  0  0  0  0  0  0  0
   26.3291  -20.4278   -9.3135 C   0  0  2  0  0  0  0  0  0  0  0  0
   24.8931  -20.7310   -8.9075 C   0  0  0  0  0  0  0  0  0  0  0  0
   26.5961  -21.1667  -10.5912 C   0  0  2  0  0  0  0  0  0  0  0  0
   27.9903  -21.3153  -10.9004 N   0  0  0  0  0  0  0  0  0  0  0  0
   25.8258  -20.5640  -11.6900 C   0  0  0  0  0  0  0  0  0  0  0  0
   26.0613  -19.3652  -11.9930 O   0  0  0  0  0  0  0  0  0  0  0  0
   24.8319  -21.2540  -12.4298 N   0  0  0  0  0  0  0  0  0  0  0  0
   24.2076  -20.6177  -13.5560 C   0  0  1  0  0  0  0  0  0  0  0  0
   24.5195  -21.3357  -14.8497 C   0  0  0  0  0  0  0  0  0  0  0  0
   24.4285  -22.8355  -14.7173 C   0  0  0  0  0  0  0  0  0  0  0  0
   24.9123  -23.4470  -15.9671 C   0  0  0  0  0  0  0  0  0  0  0  0
   25.7119  -24.4020  -15.9232 O   0  0  0  0  0  0  0  0  0  0  0  0
   22.7341  -20.5630  -13.3103 C   0  0  0  0  0  0  0  0  0  0  0  0
   21.9789  -19.9056  -14.0706 O   0  0  0  0  0  0  0  0  0  0  0  0
   24.4856  -22.9687  -17.1838 O   0  0  0  0  0  0  0  0  0  0  0  0
   22.1070  -21.2396  -12.2205 N   0  0  0  0  0  0  0  0  0  0  0  0
   20.7193  -21.1152  -11.9054 C   0  0  0  0  0  0  0  0  0  0  0  0
   19.8369  -21.9485  -12.7480 C   0  0  0  0  0  0  0  0  0  0  0  0
   18.4688  -21.8495  -12.5426 O   0  0  0  0  0  0  0  0  0  0  0  0
   20.2328  -22.7425  -13.6387 O   0  0  0  0  0  0  0  0  0  0  0  0
  2  1  1  0
  3  5  1  0
  3  2  1  0
  3  4  1  1
  5  7  1  0
  5  6  1  6
  7  8  2  0
  9  7  1  0
  9 10  1  0
 10 15  1  0
 10 11  1  6
 11 12  1  0
 12 13  1  0
 13 14  2  0
 13 17  1  0
 15 16  2  0
 18 19  1  0
 18 15  1  0
 20 19  1  0
 21 20  1  0
 22 20  2  0
M  END
$$$$
