IEG.pdb
     RDKit          3D

 22 21  0  0  1  0  0  0  0  0999 V2000
   17.8961  -12.5664  -19.0936 C   0  0  0  0  0  0  0  0  0  0  0  0
   19.1352  -11.9645  -18.4681 C   0  0  0  0  0  0  0  0  0  0  0  0
   18.7127  -11.0792  -17.3094 C   0  0  2  0  0  0  0  0  0  0  0  0
   17.8232   -9.9825  -17.8796 C   0  0  0  0  0  0  0  0  0  0  0  0
   19.8890  -10.4083  -16.6645 C   0  0  2  0  0  0  0  0  0  0  0  0
   20.8622  -11.3195  -16.1315 N   0  0  0  0  0  0  0  0  0  0  0  0
   19.4250   -9.4219  -15.6767 C   0  0  0  0  0  0  0  0  0  0  0  0
   18.8224   -9.8427  -14.6548 O   0  0  0  0  0  0  0  0  0  0  0  0
   19.6161   -8.0227  -15.8069 N   0  0  0  0  0  0  0  0  0  0  0  0
   19.1238   -7.1357  -14.7903 C   0  0  1  0  0  0  0  0  0  0  0  0
   20.2167   -6.7206  -13.8311 C   0  0  0  0  0  0  0  0  0  0  0  0
   21.2977   -5.9085  -14.4998 C   0  0  0  0  0  0  0  0  0  0  0  0
   22.3204   -5.5711  -13.4946 C   0  0  0  0  0  0  0  0  0  0  0  0
   23.3160   -4.8970  -13.8226 O   0  0  0  0  0  0  0  0  0  0  0  0
   18.5105   -5.9469  -15.4575 C   0  0  0  0  0  0  0  0  0  0  0  0
   18.9989   -5.4810  -16.5181 O   0  0  0  0  0  0  0  0  0  0  0  0
   22.1820   -5.9967  -12.1943 O   0  0  0  0  0  0  0  0  0  0  0  0
   17.3568   -5.2817  -14.9423 N   0  0  0  0  0  0  0  0  0  0  0  0
   16.7362   -4.1652  -15.5816 C   0  0  0  0  0  0  0  0  0  0  0  0
   17.5747   -2.9490  -15.6094 C   0  0  0  0  0  0  0  0  0  0  0  0
   17.0528   -1.8207  -16.2244 O   0  0  0  0  0  0  0  0  0  0  0  0
   18.7280   -2.8589  -15.1169 O   0  0  0  0  0  0  0  0  0  0  0  0
  2  1  1  0
  3  5  1  0
  3  2  1  0
  3  4  1  6
  5  7  1  0
  5  6  1  1
  7  8  2  0
  9  7  1  0
  9 10  1  0
 10 15  1  0
 10 11  1  1
 11 12  1  0
 12 13  1  0
 13 14  2  0
 13 17  1  0
 15 16  2  0
 18 19  1  0
 18 15  1  0
 20 19  1  0
 21 20  1  0
 22 20  2  0
M  END
$$$$
