DMM.pdb
     RDKit          3D

 25 24  0  0  1  0  0  0  0  0999 V2000
   17.3941  -12.3504  -15.3612 N   0  0  0  0  0  0  0  0  0  0  0  0
   17.1047  -10.9504  -15.3779 C   0  0  1  0  0  0  0  0  0  0  0  0
   15.6234  -10.7067  -15.4324 C   0  0  0  0  0  0  0  0  0  0  0  0
   15.0080  -11.2734  -16.6590 C   0  0  0  0  0  0  0  0  0  0  0  0
   15.4214  -10.9165  -17.7844 O   0  0  0  0  0  0  0  0  0  0  0  0
   17.6786  -10.2266  -14.2154 C   0  0  0  0  0  0  0  0  0  0  0  0
   17.5114  -10.6837  -13.0522 O   0  0  0  0  0  0  0  0  0  0  0  0
   13.9852  -12.1889  -16.5514 O   0  0  0  0  0  0  0  0  0  0  0  0
   24.1246   -9.4401  -14.5344 C   0  0  0  0  0  0  0  0  0  0  0  0
   22.9643   -8.1566  -14.0454 S   0  0  0  0  0  0  0  0  0  0  0  0
   21.3053   -8.8366  -13.7041 C   0  0  0  0  0  0  0  0  0  0  0  0
   20.3090   -7.7372  -13.4674 C   0  0  0  0  0  0  0  0  0  0  0  0
   18.9663   -8.3354  -13.1443 C   0  0  2  0  0  0  0  0  0  0  0  0
   18.4238   -9.0215  -14.3231 N   0  0  0  0  0  0  0  0  0  0  0  0
   17.9632   -7.3395  -12.6508 C   0  0  0  0  0  0  0  0  0  0  0  0
   17.2927   -6.6170  -13.4318 O   0  0  0  0  0  0  0  0  0  0  0  0
   14.7048   -7.1266   -6.4475 C   0  0  0  0  0  0  0  0  0  0  0  0
   13.7473   -6.8106   -7.9684 S   0  0  0  0  0  0  0  0  0  0  0  0
   14.7791   -5.9559   -9.1610 C   0  0  0  0  0  0  0  0  0  0  0  0
   15.8084   -6.7784   -9.8426 C   0  0  0  0  0  0  0  0  0  0  0  0
   16.7146   -6.1354  -10.8319 C   0  0  2  0  0  0  0  0  0  0  0  0
   17.7137   -7.1561  -11.2750 N   0  0  0  0  0  0  0  0  0  0  0  0
   17.4124   -4.9573  -10.3523 C   0  0  0  0  0  0  0  0  0  0  0  0
   18.5931   -4.9254   -9.9773 O   0  0  0  0  0  0  0  0  0  0  0  0
   16.7490   -3.6976  -10.2786 O   0  0  0  0  0  0  0  0  0  0  0  0
  2  1  1  1
  3  2  1  0
  3  4  1  0
  4  8  1  0
  5  4  2  0
  6  7  2  0
  6  2  1  0
  9 10  1  0
 10 11  1  0
 11 12  1  0
 13 12  1  6
 13 14  1  0
 14  6  1  0
 15 13  1  0
 16 15  2  0
 18 17  1  0
 19 18  1  0
 21 20  1  1
 20 19  1  0
 21 22  1  0
 22 15  1  0
 23 25  1  0
 23 21  1  0
 24 23  2  0
M  END
$$$$
