DMM.pdb
     RDKit          3D

 25 24  0  0  1  0  0  0  0  0999 V2000
   21.3459  -15.3708  -17.5977 N   0  0  0  0  0  0  0  0  0  0  0  0
   21.7364  -14.0683  -18.0392 C   0  0  1  0  0  0  0  0  0  0  0  0
   20.5995  -13.3696  -18.7291 C   0  0  0  0  0  0  0  0  0  0  0  0
   20.1883  -14.0657  -19.9744 C   0  0  0  0  0  0  0  0  0  0  0  0
   21.0574  -14.5519  -20.7314 O   0  0  0  0  0  0  0  0  0  0  0  0
   22.2429  -13.2112  -16.9376 C   0  0  0  0  0  0  0  0  0  0  0  0
   21.7065  -13.2786  -15.7985 O   0  0  0  0  0  0  0  0  0  0  0  0
   18.8522  -14.1724  -20.2896 O   0  0  0  0  0  0  0  0  0  0  0  0
   28.2241  -12.0360  -16.0400 C   0  0  0  0  0  0  0  0  0  0  0  0
   27.2923  -13.1463  -14.9761 S   0  0  0  0  0  0  0  0  0  0  0  0
   25.4948  -12.8557  -15.1015 C   0  0  0  0  0  0  0  0  0  0  0  0
   25.2055  -11.5276  -15.7415 C   0  0  0  0  0  0  0  0  0  0  0  0
   23.7266  -11.3996  -15.9895 C   0  0  2  0  0  0  0  0  0  0  0  0
   23.3194  -12.2947  -17.0794 N   0  0  0  0  0  0  0  0  0  0  0  0
   23.2851  -10.0050  -16.3085 C   0  0  0  0  0  0  0  0  0  0  0  0
   23.4832   -9.4775  -17.4328 O   0  0  0  0  0  0  0  0  0  0  0  0
   18.8306   -5.4376  -19.4350 C   0  0  0  0  0  0  0  0  0  0  0  0
   19.6429   -7.0054  -18.9748 S   0  0  0  0  0  0  0  0  0  0  0  0
   20.6651   -6.7488  -17.5233 C   0  0  0  0  0  0  0  0  0  0  0  0
   21.3583   -7.9479  -16.9921 C   0  0  0  0  0  0  0  0  0  0  0  0
   22.1565   -7.8319  -15.7420 C   0  0  2  0  0  0  0  0  0  0  0  0
   22.6187   -9.2018  -15.3601 N   0  0  0  0  0  0  0  0  0  0  0  0
   21.4595   -7.2304  -14.6206 C   0  0  0  0  0  0  0  0  0  0  0  0
   21.0591   -7.8358  -13.6163 O   0  0  0  0  0  0  0  0  0  0  0  0
   21.1774   -5.8331  -14.6033 O   0  0  0  0  0  0  0  0  0  0  0  0
  2  1  1  1
  3  2  1  0
  3  4  1  0
  4  8  1  0
  5  4  2  0
  6  7  2  0
  6  2  1  0
  9 10  1  0
 10 11  1  0
 11 12  1  0
 13 12  1  6
 13 14  1  0
 14  6  1  0
 15 13  1  0
 16 15  2  0
 18 17  1  0
 19 18  1  0
 21 20  1  6
 20 19  1  0
 21 22  1  0
 22 15  1  0
 23 25  1  0
 23 21  1  0
 24 23  2  0
M  END
$$$$
