DMM.pdb
     RDKit          3D

 25 24  0  0  1  0  0  0  0  0999 V2000
   15.7461  -19.8983    1.6091 N   0  0  0  0  0  0  0  0  0  0  0  0
   15.4538  -19.1220    2.7736 C   0  0  1  0  0  0  0  0  0  0  0  0
   14.7534  -19.9510    3.8123 C   0  0  0  0  0  0  0  0  0  0  0  0
   13.4160  -20.4066    3.3560 C   0  0  0  0  0  0  0  0  0  0  0  0
   13.2828  -21.5479    2.8616 O   0  0  0  0  0  0  0  0  0  0  0  0
   16.6618  -18.5013    3.3738 C   0  0  0  0  0  0  0  0  0  0  0  0
   17.7810  -19.0683    3.2493 O   0  0  0  0  0  0  0  0  0  0  0  0
   12.3293  -19.5702    3.4793 O   0  0  0  0  0  0  0  0  0  0  0  0
   20.3451  -11.9098    5.6354 C   0  0  0  0  0  0  0  0  0  0  0  0
   18.7672  -12.7256    5.3570 S   0  0  0  0  0  0  0  0  0  0  0  0
   18.9562  -14.5349    5.2086 C   0  0  0  0  0  0  0  0  0  0  0  0
   17.6584  -15.1835    4.8184 C   0  0  0  0  0  0  0  0  0  0  0  0
   17.8777  -16.6561    4.5980 C   0  0  2  0  0  0  0  0  0  0  0  0
   16.6459  -17.2795    4.0990 N   0  0  0  0  0  0  0  0  0  0  0  0
   18.3388  -17.3886    5.8196 C   0  0  0  0  0  0  0  0  0  0  0  0
   17.5362  -17.8388    6.6768 O   0  0  0  0  0  0  0  0  0  0  0  0
   22.1004  -23.3959    8.5438 C   0  0  0  0  0  0  0  0  0  0  0  0
   21.6152  -22.3017    7.1666 S   0  0  0  0  0  0  0  0  0  0  0  0
   21.0068  -20.7462    7.8210 C   0  0  0  0  0  0  0  0  0  0  0  0
   20.5411  -19.7543    6.8211 C   0  0  0  0  0  0  0  0  0  0  0  0
   20.1137  -18.4053    7.2801 C   0  0  2  0  0  0  0  0  0  0  0  0
   19.7066  -17.6154    6.0774 N   0  0  0  0  0  0  0  0  0  0  0  0
   21.1133  -17.6637    8.0256 C   0  0  0  0  0  0  0  0  0  0  0  0
   21.9147  -16.8523    7.5407 O   0  0  0  0  0  0  0  0  0  0  0  0
   21.2428  -17.8308    9.4355 O   0  0  0  0  0  0  0  0  0  0  0  0
  2  1  1  6
  3  2  1  0
  3  4  1  0
  4  8  1  0
  5  4  2  0
  6  7  2  0
  6  2  1  0
  9 10  1  0
 10 11  1  0
 11 12  1  0
 13 12  1  1
 13 14  1  0
 14  6  1  0
 15 13  1  0
 16 15  2  0
 18 17  1  0
 19 18  1  0
 21 20  1  6
 20 19  1  0
 21 22  1  0
 22 15  1  0
 23 25  1  0
 23 21  1  0
 24 23  2  0
M  END
$$$$
