DMM.pdb
     RDKit          3D

 25 24  0  0  1  0  0  0  0  0999 V2000
   27.5784  -22.0820  -16.1433 N   0  0  0  0  0  0  0  0  0  0  0  0
   27.3876  -20.9914  -15.2388 C   0  0  1  0  0  0  0  0  0  0  0  0
   26.8640  -19.7805  -15.9571 C   0  0  0  0  0  0  0  0  0  0  0  0
   27.8361  -19.2541  -16.9482 C   0  0  0  0  0  0  0  0  0  0  0  0
   27.5055  -18.3154  -17.7060 O   0  0  0  0  0  0  0  0  0  0  0  0
   26.4789  -21.3252  -14.1128 C   0  0  0  0  0  0  0  0  0  0  0  0
   25.4054  -21.9458  -14.3414 O   0  0  0  0  0  0  0  0  0  0  0  0
   29.0967  -19.8020  -17.0280 O   0  0  0  0  0  0  0  0  0  0  0  0
   26.8579  -19.2405   -7.5650 C   0  0  0  0  0  0  0  0  0  0  0  0
   26.0779  -20.8597   -7.6171 S   0  0  0  0  0  0  0  0  0  0  0  0
   25.3798  -21.2233   -9.2638 C   0  0  0  0  0  0  0  0  0  0  0  0
   26.3817  -20.9461  -10.3486 C   0  0  0  0  0  0  0  0  0  0  0  0
   25.7701  -21.2525  -11.6892 C   0  0  2  0  0  0  0  0  0  0  0  0
   26.7401  -20.9855  -12.7581 N   0  0  0  0  0  0  0  0  0  0  0  0
   24.5108  -20.4921  -11.9676 C   0  0  0  0  0  0  0  0  0  0  0  0
   24.5106  -19.2592  -12.2160 O   0  0  0  0  0  0  0  0  0  0  0  0
   22.3996  -19.5504  -16.8808 C   0  0  0  0  0  0  0  0  0  0  0  0
   20.7075  -19.5653  -16.1982 S   0  0  0  0  0  0  0  0  0  0  0  0
   20.7825  -19.5415  -14.4061 C   0  0  0  0  0  0  0  0  0  0  0  0
   21.8706  -20.3375  -13.7872 C   0  0  0  0  0  0  0  0  0  0  0  0
   22.0258  -20.3295  -12.3077 C   0  0  2  0  0  0  0  0  0  0  0  0
   23.2483  -21.1205  -11.9670 N   0  0  0  0  0  0  0  0  0  0  0  0
   20.8934  -20.8533  -11.5673 C   0  0  0  0  0  0  0  0  0  0  0  0
   20.7656  -22.0253  -11.1856 O   0  0  0  0  0  0  0  0  0  0  0  0
   19.8003  -20.0088  -11.2147 O   0  0  0  0  0  0  0  0  0  0  0  0
  2  1  1  6
  3  2  1  0
  3  4  1  0
  4  8  1  0
  5  4  2  0
  6  7  2  0
  6  2  1  0
  9 10  1  0
 10 11  1  0
 11 12  1  0
 13 12  1  1
 13 14  1  0
 14  6  1  0
 15 13  1  0
 16 15  2  0
 18 17  1  0
 19 18  1  0
 21 20  1  6
 20 19  1  0
 21 22  1  0
 22 15  1  0
 23 25  1  0
 23 21  1  0
 24 23  2  0
M  END
$$$$
