DMM.pdb
     RDKit          3D

 25 24  0  0  1  0  0  0  0  0999 V2000
   27.5388  -20.3774  -16.5475 N   0  0  0  0  0  0  0  0  0  0  0  0
   27.0320  -21.7141  -16.5307 C   0  0  1  0  0  0  0  0  0  0  0  0
   28.1477  -22.7149  -16.6323 C   0  0  0  0  0  0  0  0  0  0  0  0
   28.9305  -22.5548  -17.8836 C   0  0  0  0  0  0  0  0  0  0  0  0
   30.0348  -21.9678  -17.8559 O   0  0  0  0  0  0  0  0  0  0  0  0
   26.2166  -22.0090  -15.3252 C   0  0  0  0  0  0  0  0  0  0  0  0
   25.5800  -23.0950  -15.2539 O   0  0  0  0  0  0  0  0  0  0  0  0
   28.4368  -23.0533  -19.0683 O   0  0  0  0  0  0  0  0  0  0  0  0
   24.6747  -20.9454   -7.6559 C   0  0  0  0  0  0  0  0  0  0  0  0
   25.6576  -20.4856   -9.0895 S   0  0  0  0  0  0  0  0  0  0  0  0
   24.9639  -21.1670  -10.6340 C   0  0  0  0  0  0  0  0  0  0  0  0
   25.8569  -20.8693  -11.8050 C   0  0  0  0  0  0  0  0  0  0  0  0
   25.2557  -21.4490  -13.0570 C   0  0  2  0  0  0  0  0  0  0  0  0
   26.0992  -21.1298  -14.2152 N   0  0  0  0  0  0  0  0  0  0  0  0
   23.8570  -20.9878  -13.3261 C   0  0  0  0  0  0  0  0  0  0  0  0
   23.5617  -19.7714  -13.4479 O   0  0  0  0  0  0  0  0  0  0  0  0
   17.2938  -22.5148  -17.2761 C   0  0  0  0  0  0  0  0  0  0  0  0
   18.9252  -23.0864  -16.6921 S   0  0  0  0  0  0  0  0  0  0  0  0
   19.4814  -22.0404  -15.3453 C   0  0  0  0  0  0  0  0  0  0  0  0
   20.8846  -22.2337  -14.9045 C   0  0  0  0  0  0  0  0  0  0  0  0
   21.4224  -21.3926  -13.8015 C   0  0  2  0  0  0  0  0  0  0  0  0
   22.7876  -21.8975  -13.4588 N   0  0  0  0  0  0  0  0  0  0  0  0
   20.6082  -21.3579  -12.6011 C   0  0  0  0  0  0  0  0  0  0  0  0
   19.6616  -20.5844  -12.3981 O   0  0  0  0  0  0  0  0  0  0  0  0
   20.8593  -22.2581  -11.5246 O   0  0  0  0  0  0  0  0  0  0  0  0
  2  1  1  1
  3  2  1  0
  3  4  1  0
  4  8  1  0
  5  4  2  0
  6  7  2  0
  6  2  1  0
  9 10  1  0
 10 11  1  0
 11 12  1  0
 13 12  1  1
 13 14  1  0
 14  6  1  0
 15 13  1  0
 16 15  2  0
 18 17  1  0
 19 18  1  0
 21 20  1  6
 20 19  1  0
 21 22  1  0
 22 15  1  0
 23 25  1  0
 23 21  1  0
 24 23  2  0
M  END
$$$$
