DMM.pdb
     RDKit          3D

 25 24  0  0  1  0  0  0  0  0999 V2000
   27.8555  -21.7799  -15.3053 N   0  0  0  0  0  0  0  0  0  0  0  0
   27.3916  -20.6945  -14.4987 C   0  0  1  0  0  0  0  0  0  0  0  0
   26.6665  -19.6757  -15.3311 C   0  0  0  0  0  0  0  0  0  0  0  0
   27.5379  -19.0870  -16.3792 C   0  0  0  0  0  0  0  0  0  0  0  0
   27.3016  -19.3165  -17.5859 O   0  0  0  0  0  0  0  0  0  0  0  0
   26.5125  -21.1345  -13.3859 C   0  0  0  0  0  0  0  0  0  0  0  0
   25.6715  -22.0532  -13.5820 O   0  0  0  0  0  0  0  0  0  0  0  0
   28.6018  -18.2915  -16.0173 O   0  0  0  0  0  0  0  0  0  0  0  0
   28.0625  -19.3604   -7.3525 C   0  0  0  0  0  0  0  0  0  0  0  0
   26.5366  -20.2982   -7.1937 S   0  0  0  0  0  0  0  0  0  0  0  0
   26.0633  -21.0941   -8.7665 C   0  0  0  0  0  0  0  0  0  0  0  0
   25.7768  -20.0685   -9.8263 C   0  0  0  0  0  0  0  0  0  0  0  0
   25.4535  -20.7609  -11.1229 C   0  0  2  0  0  0  0  0  0  0  0  0
   26.5525  -20.5784  -12.0789 N   0  0  0  0  0  0  0  0  0  0  0  0
   24.1746  -20.3017  -11.7514 C   0  0  0  0  0  0  0  0  0  0  0  0
   24.1428  -19.4083  -12.6360 O   0  0  0  0  0  0  0  0  0  0  0  0
   22.6169  -20.4457  -16.8512 C   0  0  0  0  0  0  0  0  0  0  0  0
   21.2398  -21.4733  -16.2370 S   0  0  0  0  0  0  0  0  0  0  0  0
   20.8331  -20.9911  -14.5578 C   0  0  0  0  0  0  0  0  0  0  0  0
   21.9561  -20.9883  -13.5887 C   0  0  0  0  0  0  0  0  0  0  0  0
   21.7113  -20.5331  -12.1936 C   0  0  2  0  0  0  0  0  0  0  0  0
   22.9281  -20.8494  -11.3840 N   0  0  0  0  0  0  0  0  0  0  0  0
   20.5450  -21.1118  -11.5534 C   0  0  0  0  0  0  0  0  0  0  0  0
   19.3687  -20.9077  -11.8854 O   0  0  0  0  0  0  0  0  0  0  0  0
   20.6868  -21.9971  -10.4450 O   0  0  0  0  0  0  0  0  0  0  0  0
  2  1  1  6
  3  2  1  0
  3  4  1  0
  4  8  1  0
  5  4  2  0
  6  7  2  0
  6  2  1  0
  9 10  1  0
 10 11  1  0
 11 12  1  0
 13 12  1  1
 13 14  1  0
 14  6  1  0
 15 13  1  0
 16 15  2  0
 18 17  1  0
 19 18  1  0
 21 20  1  6
 20 19  1  0
 21 22  1  0
 22 15  1  0
 23 25  1  0
 23 21  1  0
 24 23  2  0
M  END
$$$$
