DMM.pdb
     RDKit          3D

 25 24  0  0  1  0  0  0  0  0999 V2000
   26.3351  -21.8959  -16.2570 N   0  0  0  0  0  0  0  0  0  0  0  0
   24.9768  -21.4579  -16.3416 C   0  0  1  0  0  0  0  0  0  0  0  0
   24.2994  -22.0327  -17.5529 C   0  0  0  0  0  0  0  0  0  0  0  0
   24.2065  -21.0492  -18.6613 C   0  0  0  0  0  0  0  0  0  0  0  0
   25.2284  -20.4294  -19.0305 O   0  0  0  0  0  0  0  0  0  0  0  0
   24.1842  -21.7922  -15.1312 C   0  0  0  0  0  0  0  0  0  0  0  0
   23.8707  -22.9921  -14.9034 O   0  0  0  0  0  0  0  0  0  0  0  0
   22.9957  -20.8244  -19.2771 O   0  0  0  0  0  0  0  0  0  0  0  0
   27.3804  -21.2036   -9.6218 C   0  0  0  0  0  0  0  0  0  0  0  0
   25.8215  -20.4056  -10.0290 S   0  0  0  0  0  0  0  0  0  0  0  0
   24.9797  -21.2329  -11.4212 C   0  0  0  0  0  0  0  0  0  0  0  0
   23.6944  -20.5358  -11.7667 C   0  0  0  0  0  0  0  0  0  0  0  0
   23.0540  -21.2159  -12.9466 C   0  0  2  0  0  0  0  0  0  0  0  0
   23.7414  -20.8294  -14.1847 N   0  0  0  0  0  0  0  0  0  0  0  0
   21.5909  -20.9318  -13.0879 C   0  0  0  0  0  0  0  0  0  0  0  0
   21.1571  -19.9417  -13.7309 O   0  0  0  0  0  0  0  0  0  0  0  0
   16.2517  -25.2450  -12.7245 C   0  0  0  0  0  0  0  0  0  0  0  0
   16.0019  -23.8960  -11.5215 S   0  0  0  0  0  0  0  0  0  0  0  0
   16.8887  -22.4345  -12.0651 C   0  0  0  0  0  0  0  0  0  0  0  0
   18.3611  -22.5700  -12.1833 C   0  0  0  0  0  0  0  0  0  0  0  0
   19.1678  -21.3936  -12.6058 C   0  0  2  0  0  0  0  0  0  0  0  0
   20.6131  -21.7638  -12.5046 N   0  0  0  0  0  0  0  0  0  0  0  0
   18.9289  -20.1796  -11.8480 C   0  0  0  0  0  0  0  0  0  0  0  0
   19.6374  -19.7608  -10.9216 O   0  0  0  0  0  0  0  0  0  0  0  0
   17.8061  -19.3500  -12.1368 O   0  0  0  0  0  0  0  0  0  0  0  0
  2  1  1  1
  3  2  1  0
  3  4  1  0
  4  8  1  0
  5  4  2  0
  6  7  2  0
  6  2  1  0
  9 10  1  0
 10 11  1  0
 11 12  1  0
 13 12  1  1
 13 14  1  0
 14  6  1  0
 15 13  1  0
 16 15  2  0
 18 17  1  0
 19 18  1  0
 21 20  1  1
 20 19  1  0
 21 22  1  0
 22 15  1  0
 23 25  1  0
 23 21  1  0
 24 23  2  0
M  END
$$$$
