DMM.pdb
     RDKit          3D

 25 24  0  0  1  0  0  0  0  0999 V2000
   13.7885  -11.9684  -14.4649 N   0  0  0  0  0  0  0  0  0  0  0  0
   13.7891  -10.5799  -14.1241 C   0  0  1  0  0  0  0  0  0  0  0  0
   13.9092  -10.3893  -12.6389 C   0  0  0  0  0  0  0  0  0  0  0  0
   12.7652  -10.9859  -11.9041 C   0  0  0  0  0  0  0  0  0  0  0  0
   12.9772  -11.7911  -10.9707 O   0  0  0  0  0  0  0  0  0  0  0  0
   14.8657   -9.8171  -14.8053 C   0  0  0  0  0  0  0  0  0  0  0  0
   15.8494  -10.4326  -15.2984 O   0  0  0  0  0  0  0  0  0  0  0  0
   11.4768  -10.6495  -12.2541 O   0  0  0  0  0  0  0  0  0  0  0  0
   16.8680   -3.3589  -18.9017 C   0  0  0  0  0  0  0  0  0  0  0  0
   15.6610   -4.1912  -17.8610 S   0  0  0  0  0  0  0  0  0  0  0  0
   16.3172   -5.7502  -17.1753 C   0  0  0  0  0  0  0  0  0  0  0  0
   15.2740   -6.4652  -16.3643 C   0  0  0  0  0  0  0  0  0  0  0  0
   15.8730   -7.7025  -15.7516 C   0  0  2  0  0  0  0  0  0  0  0  0
   14.8663   -8.4030  -14.9451 N   0  0  0  0  0  0  0  0  0  0  0  0
   17.0801   -7.4357  -14.9070 C   0  0  0  0  0  0  0  0  0  0  0  0
   16.9971   -7.1668  -13.6813 O   0  0  0  0  0  0  0  0  0  0  0  0
   23.7388  -10.2932  -12.5142 C   0  0  0  0  0  0  0  0  0  0  0  0
   22.2447  -10.3579  -13.5597 S   0  0  0  0  0  0  0  0  0  0  0  0
   21.4934   -8.7308  -13.6351 C   0  0  0  0  0  0  0  0  0  0  0  0
   20.2281   -8.6303  -14.4028 C   0  0  0  0  0  0  0  0  0  0  0  0
   19.5629   -7.3065  -14.5377 C   0  0  2  0  0  0  0  0  0  0  0  0
   18.3841   -7.4718  -15.4428 N   0  0  0  0  0  0  0  0  0  0  0  0
   20.4092   -6.2412  -15.0413 C   0  0  0  0  0  0  0  0  0  0  0  0
   20.4548   -5.8565  -16.2184 O   0  0  0  0  0  0  0  0  0  0  0  0
   21.2866   -5.5338  -14.1683 O   0  0  0  0  0  0  0  0  0  0  0  0
  2  1  1  1
  3  2  1  0
  3  4  1  0
  4  8  1  0
  5  4  2  0
  6  7  2  0
  6  2  1  0
  9 10  1  0
 10 11  1  0
 11 12  1  0
 13 12  1  1
 13 14  1  0
 14  6  1  0
 15 13  1  0
 16 15  2  0
 18 17  1  0
 19 18  1  0
 21 20  1  6
 20 19  1  0
 21 22  1  0
 22 15  1  0
 23 25  1  0
 23 21  1  0
 24 23  2  0
M  END
$$$$
