KAH.pdb
     RDKit          3D

 25 25  0  0  1  0  0  0  0  0999 V2000
    7.7539  -19.2690   20.3325 N   0  0  0  0  0  0  0  0  0  0  0  0
    7.0541  -18.3924   21.2922 C   0  0  1  0  0  0  0  0  0  0  0  0
    6.9072  -19.1970   22.5820 C   0  0  0  0  0  0  0  0  0  0  0  0
    5.9136  -20.2812   22.4486 C   0  0  0  0  0  0  0  0  0  0  0  0
    5.6847  -21.1420   23.6443 C   0  0  0  0  0  0  0  0  0  0  0  0
    4.6421  -22.1850   23.5126 C   0  0  0  0  0  0  0  0  0  0  0  0
    4.3765  -22.9066   24.7158 N   0  0  0  0  0  0  0  0  0  0  0  0
    7.8424  -17.1600   21.4785 C   0  0  0  0  0  0  0  0  0  0  0  0
    9.0948  -17.2234   21.4078 O   0  0  0  0  0  0  0  0  0  0  0  0
    7.1778  -13.5080   21.7082 C   0  0  0  0  0  0  0  0  0  0  0  0
    8.0355  -14.7437   21.9441 C   0  0  2  0  0  0  0  0  0  0  0  0
    7.2075  -15.8912   21.7388 N   0  0  0  0  0  0  0  0  0  0  0  0
    8.6299  -14.6844   23.2942 C   0  0  0  0  0  0  0  0  0  0  0  0
    9.3602  -13.7008   23.5747 O   0  0  0  0  0  0  0  0  0  0  0  0
    8.4290  -15.6685   24.2968 N   0  0  0  0  0  0  0  0  0  0  0  0
    8.8981  -15.5035   25.6577 C   0  0  1  0  0  0  0  0  0  0  0  0
    7.6972  -15.6345   26.5777 C   0  0  0  0  0  0  0  0  0  0  0  0
    6.8390  -14.4046   26.5318 C   0  0  0  0  0  0  0  0  0  0  0  0
    7.2677  -13.1251   26.2661 C   0  0  0  0  0  0  0  0  0  0  0  0
    6.2170  -12.2929   26.3125 N   0  0  0  0  0  0  0  0  0  0  0  0
    5.1546  -13.0618   26.6048 C   0  0  0  0  0  0  0  0  0  0  0  0
    5.5225  -14.3405   26.7390 N   0  0  0  0  0  0  0  0  0  0  0  0
    9.8825  -16.5613   25.9391 C   0  0  0  0  0  0  0  0  0  0  0  0
   10.2805  -17.5021   24.9852 O   0  0  0  0  0  0  0  0  0  0  0  0
   10.4257  -16.6735   27.0764 O   0  0  0  0  0  0  0  0  0  0  0  0
  2  8  1  0
  2  1  1  6
  3  2  1  0
  4  3  1  0
  5  4  1  0
  5  6  1  0
  6  7  1  0
  8  9  2  0
 11 10  1  1
 12 11  1  0
 12  8  1  0
 13 14  2  0
 13 11  1  0
 15 13  1  0
 16 15  1  0
 16 23  1  0
 16 17  1  1
 18 19  2  0
 18 17  1  0
 20 19  1  0
 21 22  2  0
 21 20  1  0
 22 18  1  0
 23 24  1  0
 25 23  2  0
M  END
$$$$
