KAH.pdb
     RDKit          3D

 25 25  0  0  1  0  0  0  0  0999 V2000
    5.5420  -16.7977   20.5433 N   0  0  0  0  0  0  0  0  0  0  0  0
    6.9904  -16.7920   20.8288 C   0  0  1  0  0  0  0  0  0  0  0  0
    7.4562  -15.3471   20.6616 C   0  0  0  0  0  0  0  0  0  0  0  0
    7.6863  -14.9996   19.2449 C   0  0  0  0  0  0  0  0  0  0  0  0
    8.2042  -13.6312   18.9580 C   0  0  0  0  0  0  0  0  0  0  0  0
    8.3331  -13.2641   17.5294 C   0  0  0  0  0  0  0  0  0  0  0  0
    8.8535  -11.9539   17.3032 N   0  0  0  0  0  0  0  0  0  0  0  0
    7.2118  -17.3055   22.1935 C   0  0  0  0  0  0  0  0  0  0  0  0
    6.2663  -17.2638   23.0191 O   0  0  0  0  0  0  0  0  0  0  0  0
    9.4961  -19.6652   23.7659 C   0  0  0  0  0  0  0  0  0  0  0  0
    8.5926  -18.4462   23.8919 C   0  0  2  0  0  0  0  0  0  0  0  0
    8.4848  -17.8513   22.5962 N   0  0  0  0  0  0  0  0  0  0  0  0
    9.1361  -17.5296   24.9137 C   0  0  0  0  0  0  0  0  0  0  0  0
    9.1361  -17.9135   26.1105 O   0  0  0  0  0  0  0  0  0  0  0  0
    9.6591  -16.2411   24.6306 N   0  0  0  0  0  0  0  0  0  0  0  0
    9.3020  -15.0670   25.4010 C   0  0  1  0  0  0  0  0  0  0  0  0
    7.8092  -14.8439   25.2349 C   0  0  0  0  0  0  0  0  0  0  0  0
    7.3336  -13.6945   26.0740 C   0  0  0  0  0  0  0  0  0  0  0  0
    8.1074  -12.6617   26.5493 C   0  0  0  0  0  0  0  0  0  0  0  0
    7.3344  -11.8260   27.2585 N   0  0  0  0  0  0  0  0  0  0  0  0
    6.0969  -12.3475   27.2149 C   0  0  0  0  0  0  0  0  0  0  0  0
    6.0880  -13.4779   26.5003 N   0  0  0  0  0  0  0  0  0  0  0  0
    9.6324  -15.3222   26.8127 C   0  0  0  0  0  0  0  0  0  0  0  0
   10.2239  -14.3633   27.6399 O   0  0  0  0  0  0  0  0  0  0  0  0
    9.3937  -16.4397   27.3561 O   0  0  0  0  0  0  0  0  0  0  0  0
  2  8  1  0
  2  1  1  1
  3  2  1  0
  4  3  1  0
  5  4  1  0
  5  6  1  0
  6  7  1  0
  8  9  2  0
 11 10  1  6
 12 11  1  0
 12  8  1  0
 13 14  2  0
 13 11  1  0
 15 13  1  0
 16 15  1  0
 16 23  1  0
 16 17  1  1
 18 19  2  0
 18 17  1  0
 20 19  1  0
 21 22  2  0
 21 20  1  0
 22 18  1  0
 23 24  1  0
 25 23  2  0
M  END
$$$$
