KAH.pdb
     RDKit          3D

 25 25  0  0  1  0  0  0  0  0999 V2000
    9.5469  -18.2209   19.0105 N   0  0  0  0  0  0  0  0  0  0  0  0
    8.3497  -17.5671   19.5750 C   0  0  1  0  0  0  0  0  0  0  0  0
    7.5159  -18.6749   20.2153 C   0  0  0  0  0  0  0  0  0  0  0  0
    8.0366  -20.0181   19.8908 C   0  0  0  0  0  0  0  0  0  0  0  0
    7.2490  -21.1865   20.3783 C   0  0  0  0  0  0  0  0  0  0  0  0
    7.7329  -22.5233   19.9645 C   0  0  0  0  0  0  0  0  0  0  0  0
    6.9959  -23.6134   20.5188 N   0  0  0  0  0  0  0  0  0  0  0  0
    8.7762  -16.5435   20.5473 C   0  0  0  0  0  0  0  0  0  0  0  0
    9.8805  -16.6815   21.1296 O   0  0  0  0  0  0  0  0  0  0  0  0
    7.5868  -13.1663   21.6036 C   0  0  0  0  0  0  0  0  0  0  0  0
    8.4656  -14.4027   21.7358 C   0  0  2  0  0  0  0  0  0  0  0  0
    7.9555  -15.3943   20.8410 N   0  0  0  0  0  0  0  0  0  0  0  0
    8.4927  -14.8435   23.1446 C   0  0  0  0  0  0  0  0  0  0  0  0
    7.5562  -15.5762   23.5516 O   0  0  0  0  0  0  0  0  0  0  0  0
    9.5100  -14.4922   24.0697 N   0  0  0  0  0  0  0  0  0  0  0  0
    9.4371  -14.8318   25.4763 C   0  0  1  0  0  0  0  0  0  0  0  0
    7.9692  -14.9559   25.8446 C   0  0  0  0  0  0  0  0  0  0  0  0
    7.3339  -13.6070   26.0126 C   0  0  0  0  0  0  0  0  0  0  0  0
    7.9800  -12.3938   25.9653 C   0  0  0  0  0  0  0  0  0  0  0  0
    7.0852  -11.4135   26.1581 N   0  0  0  0  0  0  0  0  0  0  0  0
    5.9010  -12.0268   26.3218 C   0  0  0  0  0  0  0  0  0  0  0  0
    6.0429  -13.3538   26.2351 N   0  0  0  0  0  0  0  0  0  0  0  0
   10.1308  -16.1143   25.6791 C   0  0  0  0  0  0  0  0  0  0  0  0
   10.7137  -16.8364   24.6339 O   0  0  0  0  0  0  0  0  0  0  0  0
   10.2356  -16.6351   26.8275 O   0  0  0  0  0  0  0  0  0  0  0  0
  2  8  1  0
  2  1  1  1
  3  2  1  0
  4  3  1  0
  5  4  1  0
  5  6  1  0
  6  7  1  0
  8  9  2  0
 11 10  1  1
 12 11  1  0
 12  8  1  0
 13 14  2  0
 13 11  1  0
 15 13  1  0
 16 15  1  0
 16 23  1  0
 16 17  1  6
 18 19  2  0
 18 17  1  0
 20 19  1  0
 21 22  2  0
 21 20  1  0
 22 18  1  0
 23 24  1  0
 25 23  2  0
M  END
$$$$
