KAH.pdb
     RDKit          3D

 25 25  0  0  1  0  0  0  0  0999 V2000
   12.2736  -19.2785   18.7017 N   0  0  0  0  0  0  0  0  0  0  0  0
   11.6840  -18.0523   18.1288 C   0  0  1  0  0  0  0  0  0  0  0  0
   10.9323  -18.4832   16.8711 C   0  0  0  0  0  0  0  0  0  0  0  0
   10.2576  -19.7849   17.0475 C   0  0  0  0  0  0  0  0  0  0  0  0
    8.7815  -19.8170   16.8402 C   0  0  0  0  0  0  0  0  0  0  0  0
    8.1497  -21.1559   16.8239 C   0  0  0  0  0  0  0  0  0  0  0  0
    6.7276  -21.1340   16.6975 N   0  0  0  0  0  0  0  0  0  0  0  0
   10.8009  -17.4308   19.1331 C   0  0  0  0  0  0  0  0  0  0  0  0
    9.5956  -17.7807   19.1818 O   0  0  0  0  0  0  0  0  0  0  0  0
    9.4664  -17.1381   21.4182 C   0  0  0  0  0  0  0  0  0  0  0  0
   10.8395  -16.4804   21.4107 C   0  0  2  0  0  0  0  0  0  0  0  0
   11.2908  -16.4352   20.0547 N   0  0  0  0  0  0  0  0  0  0  0  0
   11.7494  -17.2219   22.3063 C   0  0  0  0  0  0  0  0  0  0  0  0
   11.4114  -17.3587   23.5090 O   0  0  0  0  0  0  0  0  0  0  0  0
   12.9828  -17.7908   21.8952 N   0  0  0  0  0  0  0  0  0  0  0  0
   13.8077  -18.5889   22.7796 C   0  0  1  0  0  0  0  0  0  0  0  0
   14.2783  -19.8034   21.9990 C   0  0  0  0  0  0  0  0  0  0  0  0
   13.1219  -20.6616   21.5777 C   0  0  0  0  0  0  0  0  0  0  0  0
   11.9682  -20.8781   22.2943 C   0  0  0  0  0  0  0  0  0  0  0  0
   11.1682  -21.6995   21.5983 N   0  0  0  0  0  0  0  0  0  0  0  0
   11.8315  -21.9812   20.4644 C   0  0  0  0  0  0  0  0  0  0  0  0
   13.0143  -21.3572   20.4442 N   0  0  0  0  0  0  0  0  0  0  0  0
   14.9557  -17.7711   23.2045 C   0  0  0  0  0  0  0  0  0  0  0  0
   15.1764  -16.4716   22.7396 O   0  0  0  0  0  0  0  0  0  0  0  0
   15.8133  -18.2108   24.0244 O   0  0  0  0  0  0  0  0  0  0  0  0
  2  8  1  0
  2  1  1  1
  3  2  1  0
  4  3  1  0
  5  4  1  0
  5  6  1  0
  6  7  1  0
  8  9  2  0
 11 10  1  6
 12 11  1  0
 12  8  1  0
 13 14  2  0
 13 11  1  0
 15 13  1  0
 16 15  1  0
 16 23  1  0
 16 17  1  6
 18 19  2  0
 18 17  1  0
 20 19  1  0
 21 22  2  0
 21 20  1  0
 22 18  1  0
 23 24  1  0
 25 23  2  0
M  END
$$$$
