KAH.pdb
     RDKit          3D

 25 25  0  0  1  0  0  0  0  0999 V2000
   10.1726  -15.4001   14.5409 N   0  0  0  0  0  0  0  0  0  0  0  0
   10.1059  -16.4630   15.5632 C   0  0  1  0  0  0  0  0  0  0  0  0
   11.2327  -17.4420   15.2404 C   0  0  0  0  0  0  0  0  0  0  0  0
   10.9186  -18.2809   14.0665 C   0  0  0  0  0  0  0  0  0  0  0  0
   11.9157  -19.3244   13.6924 C   0  0  0  0  0  0  0  0  0  0  0  0
   11.6244  -20.1015   12.4663 C   0  0  0  0  0  0  0  0  0  0  0  0
   12.5840  -21.1166   12.1712 N   0  0  0  0  0  0  0  0  0  0  0  0
   10.2487  -15.8533   16.8984 C   0  0  0  0  0  0  0  0  0  0  0  0
   11.2785  -15.1804   17.1520 O   0  0  0  0  0  0  0  0  0  0  0  0
    8.1782  -15.5781   20.0040 C   0  0  0  0  0  0  0  0  0  0  0  0
    9.4657  -15.4416   19.2027 C   0  0  2  0  0  0  0  0  0  0  0  0
    9.2355  -16.0132   17.9125 N   0  0  0  0  0  0  0  0  0  0  0  0
   10.5764  -16.0800   19.9364 C   0  0  0  0  0  0  0  0  0  0  0  0
   10.8660  -17.2691   19.6505 O   0  0  0  0  0  0  0  0  0  0  0  0
   11.3389  -15.4359   20.9452 N   0  0  0  0  0  0  0  0  0  0  0  0
   12.4725  -16.0674   21.5898 C   0  0  1  0  0  0  0  0  0  0  0  0
   13.5277  -14.9991   21.8158 C   0  0  0  0  0  0  0  0  0  0  0  0
   14.1632  -14.5792   20.5231 C   0  0  0  0  0  0  0  0  0  0  0  0
   14.0836  -15.2486   19.3243 C   0  0  0  0  0  0  0  0  0  0  0  0
   14.7772  -14.5710   18.3977 N   0  0  0  0  0  0  0  0  0  0  0  0
   15.2761  -13.4952   19.0291 C   0  0  0  0  0  0  0  0  0  0  0  0
   14.9093  -13.4928   20.3152 N   0  0  0  0  0  0  0  0  0  0  0  0
   12.0211  -16.6277   22.8742 C   0  0  0  0  0  0  0  0  0  0  0  0
   12.8353  -17.4250   23.6834 O   0  0  0  0  0  0  0  0  0  0  0  0
   10.8553  -16.4121   23.3164 O   0  0  0  0  0  0  0  0  0  0  0  0
  2  8  1  0
  2  1  1  6
  3  2  1  0
  4  3  1  0
  5  4  1  0
  5  6  1  0
  6  7  1  0
  8  9  2  0
 11 10  1  1
 12 11  1  0
 12  8  1  0
 13 14  2  0
 13 11  1  0
 15 13  1  0
 16 15  1  0
 16 23  1  0
 16 17  1  1
 18 19  2  0
 18 17  1  0
 20 19  1  0
 21 22  2  0
 21 20  1  0
 22 18  1  0
 23 24  1  0
 25 23  2  0
M  END
$$$$
