KAH.pdb
     RDKit          3D

 25 25  0  0  1  0  0  0  0  0999 V2000
    7.0307  -17.7468   20.2740 N   0  0  0  0  0  0  0  0  0  0  0  0
    8.4993  -17.7608   20.1244 C   0  0  1  0  0  0  0  0  0  0  0  0
    8.7783  -17.8738   18.6271 C   0  0  0  0  0  0  0  0  0  0  0  0
    7.7148  -18.6148   17.9197 C   0  0  0  0  0  0  0  0  0  0  0  0
    8.1385  -19.5104   16.8055 C   0  0  0  0  0  0  0  0  0  0  0  0
    7.0581  -20.2351   16.0985 C   0  0  0  0  0  0  0  0  0  0  0  0
    7.5126  -21.0950   15.0531 N   0  0  0  0  0  0  0  0  0  0  0  0
    9.0527  -16.5273   20.7135 C   0  0  0  0  0  0  0  0  0  0  0  0
   10.2995  -16.4006   20.7979 O   0  0  0  0  0  0  0  0  0  0  0  0
    7.7825  -13.1674   21.6487 C   0  0  0  0  0  0  0  0  0  0  0  0
    8.8017  -14.2951   21.7367 C   0  0  2  0  0  0  0  0  0  0  0  0
    8.1959  -15.4699   21.1916 N   0  0  0  0  0  0  0  0  0  0  0  0
    9.2408  -14.4585   23.1368 C   0  0  0  0  0  0  0  0  0  0  0  0
    9.9691  -13.5635   23.6350 O   0  0  0  0  0  0  0  0  0  0  0  0
    8.8927  -15.5631   23.9570 N   0  0  0  0  0  0  0  0  0  0  0  0
    9.3100  -15.6704   25.3403 C   0  0  1  0  0  0  0  0  0  0  0  0
    8.0577  -15.6908   26.1988 C   0  0  0  0  0  0  0  0  0  0  0  0
    7.4079  -14.3392   26.2464 C   0  0  0  0  0  0  0  0  0  0  0  0
    8.0305  -13.1491   26.5423 C   0  0  0  0  0  0  0  0  0  0  0  0
    7.1289  -12.1577   26.4870 N   0  0  0  0  0  0  0  0  0  0  0  0
    5.9640  -12.7413   26.1592 C   0  0  0  0  0  0  0  0  0  0  0  0
    6.1243  -14.0609   26.0119 N   0  0  0  0  0  0  0  0  0  0  0  0
   10.0660  -16.9235   25.4995 C   0  0  0  0  0  0  0  0  0  0  0  0
   10.5997  -17.3389   26.7226 O   0  0  0  0  0  0  0  0  0  0  0  0
   10.2737  -17.6992   24.5215 O   0  0  0  0  0  0  0  0  0  0  0  0
  2  8  1  0
  2  1  1  6
  3  2  1  0
  4  3  1  0
  5  4  1  0
  5  6  1  0
  6  7  1  0
  8  9  2  0
 11 10  1  1
 12 11  1  0
 12  8  1  0
 13 14  2  0
 13 11  1  0
 15 13  1  0
 16 15  1  0
 16 23  1  0
 16 17  1  1
 18 19  2  0
 18 17  1  0
 20 19  1  0
 21 22  2  0
 21 20  1  0
 22 18  1  0
 23 24  1  0
 25 23  2  0
M  END
$$$$
