KAH.pdb
     RDKit          3D

 25 25  0  0  1  0  0  0  0  0999 V2000
    8.1338  -17.9989   16.1631 N   0  0  0  0  0  0  0  0  0  0  0  0
    9.3834  -17.2949   16.5128 C   0  0  1  0  0  0  0  0  0  0  0  0
    9.0529  -15.8038   16.5087 C   0  0  0  0  0  0  0  0  0  0  0  0
    8.6755  -15.3237   15.1642 C   0  0  0  0  0  0  0  0  0  0  0  0
    8.5053  -13.8524   14.9927 C   0  0  0  0  0  0  0  0  0  0  0  0
    8.2834  -13.3739   13.6092 C   0  0  0  0  0  0  0  0  0  0  0  0
    8.0739  -11.9657   13.5002 N   0  0  0  0  0  0  0  0  0  0  0  0
    9.8486  -17.7696   17.8293 C   0  0  0  0  0  0  0  0  0  0  0  0
    9.0027  -17.9743   18.7349 O   0  0  0  0  0  0  0  0  0  0  0  0
   13.0743  -18.8639   19.3606 C   0  0  0  0  0  0  0  0  0  0  0  0
   11.6373  -18.3643   19.4228 C   0  0  2  0  0  0  0  0  0  0  0  0
   11.2470  -18.0019   18.0959 N   0  0  0  0  0  0  0  0  0  0  0  0
   11.5411  -17.2498   20.3864 C   0  0  0  0  0  0  0  0  0  0  0  0
   12.0662  -16.1518   20.0729 O   0  0  0  0  0  0  0  0  0  0  0  0
   10.8928  -17.3394   21.6456 N   0  0  0  0  0  0  0  0  0  0  0  0
   10.7352  -16.1990   22.5254 C   0  0  1  0  0  0  0  0  0  0  0  0
    9.2792  -16.1451   22.9530 C   0  0  0  0  0  0  0  0  0  0  0  0
    8.4132  -15.5782   21.8668 C   0  0  0  0  0  0  0  0  0  0  0  0
    8.8446  -15.0955   20.6534 C   0  0  0  0  0  0  0  0  0  0  0  0
    7.7846  -14.6739   19.9480 N   0  0  0  0  0  0  0  0  0  0  0  0
    6.7140  -14.8988   20.7280 C   0  0  0  0  0  0  0  0  0  0  0  0
    7.0857  -15.4457   21.8904 N   0  0  0  0  0  0  0  0  0  0  0  0
   11.6101  -16.3918   23.6936 C   0  0  0  0  0  0  0  0  0  0  0  0
   11.8612  -15.3844   24.6294 O   0  0  0  0  0  0  0  0  0  0  0  0
   12.1874  -17.4964   23.9121 O   0  0  0  0  0  0  0  0  0  0  0  0
  2  8  1  0
  2  1  1  1
  3  2  1  0
  4  3  1  0
  5  4  1  0
  5  6  1  0
  6  7  1  0
  8  9  2  0
 11 10  1  6
 12 11  1  0
 12  8  1  0
 13 14  2  0
 13 11  1  0
 15 13  1  0
 16 15  1  0
 16 23  1  0
 16 17  1  1
 18 19  2  0
 18 17  1  0
 20 19  1  0
 21 22  2  0
 21 20  1  0
 22 18  1  0
 23 24  1  0
 25 23  2  0
M  END
$$$$
