KAH.pdb
     RDKit          3D

 25 25  0  0  1  0  0  0  0  0999 V2000
    7.2176  -17.9714   15.1113 N   0  0  0  0  0  0  0  0  0  0  0  0
    8.4610  -17.4125   15.6779 C   0  0  1  0  0  0  0  0  0  0  0  0
    8.4621  -15.9254   15.3298 C   0  0  0  0  0  0  0  0  0  0  0  0
    7.8952  -15.6695   13.9905 C   0  0  0  0  0  0  0  0  0  0  0  0
    8.8424  -15.2310   12.9258 C   0  0  0  0  0  0  0  0  0  0  0  0
    8.2402  -14.8460   11.6291 C   0  0  0  0  0  0  0  0  0  0  0  0
    9.1892  -14.5181   10.6139 N   0  0  0  0  0  0  0  0  0  0  0  0
    8.4762  -17.6551   17.1325 C   0  0  0  0  0  0  0  0  0  0  0  0
    7.5387  -17.2007   17.8340 O   0  0  0  0  0  0  0  0  0  0  0  0
   10.2112  -19.8956   19.4911 C   0  0  0  0  0  0  0  0  0  0  0  0
    9.4937  -18.5897   19.1778 C   0  0  2  0  0  0  0  0  0  0  0  0
    9.5398  -18.3991   17.7616 N   0  0  0  0  0  0  0  0  0  0  0  0
   10.1161  -17.4874   19.9377 C   0  0  0  0  0  0  0  0  0  0  0  0
   11.1133  -16.9124   19.4330 O   0  0  0  0  0  0  0  0  0  0  0  0
    9.6597  -17.0351   21.2030 N   0  0  0  0  0  0  0  0  0  0  0  0
   10.2639  -15.9154   21.8962 C   0  0  1  0  0  0  0  0  0  0  0  0
    9.1484  -14.9675   22.2999 C   0  0  0  0  0  0  0  0  0  0  0  0
    8.6691  -14.1606   21.1292 C   0  0  0  0  0  0  0  0  0  0  0  0
    9.1655  -14.2152   19.8478 C   0  0  0  0  0  0  0  0  0  0  0  0
    8.4872  -13.3511   19.0784 N   0  0  0  0  0  0  0  0  0  0  0  0
    7.5830  -12.7737   19.8872 C   0  0  0  0  0  0  0  0  0  0  0  0
    7.6865  -13.2579   21.1295 N   0  0  0  0  0  0  0  0  0  0  0  0
   10.9608  -16.4299   23.0865 C   0  0  0  0  0  0  0  0  0  0  0  0
   12.0094  -15.7459   23.7080 O   0  0  0  0  0  0  0  0  0  0  0  0
   10.6404  -17.5343   23.6145 O   0  0  0  0  0  0  0  0  0  0  0  0
  2  8  1  0
  2  1  1  1
  3  2  1  0
  4  3  1  0
  5  4  1  0
  5  6  1  0
  6  7  1  0
  8  9  2  0
 11 10  1  6
 12 11  1  0
 12  8  1  0
 13 14  2  0
 13 11  1  0
 15 13  1  0
 16 15  1  0
 16 23  1  0
 16 17  1  1
 18 19  2  0
 18 17  1  0
 20 19  1  0
 21 22  2  0
 21 20  1  0
 22 18  1  0
 23 24  1  0
 25 23  2  0
M  END
$$$$
