CTW.pdb
     RDKit          3D

 28 29  0  0  1  0  0  0  0  0999 V2000
   30.3466  -22.4010  -18.3852 N   0  0  0  0  0  0  0  0  0  0  0  0
   28.9874  -22.1406  -17.9586 C   0  0  1  0  0  0  0  0  0  0  0  0
   28.1793  -23.4417  -17.9355 C   0  0  0  0  0  0  0  0  0  0  0  0
   28.0185  -24.0215  -19.6394 S   0  0  0  0  0  0  0  0  0  0  0  0
   28.9596  -21.4648  -16.6340 C   0  0  0  0  0  0  0  0  0  0  0  0
   29.9861  -20.8267  -16.2842 O   0  0  0  0  0  0  0  0  0  0  0  0
   28.9539  -18.8922  -15.9791 C   0  0  0  0  0  0  0  0  0  0  0  0
   27.7071  -19.2315  -15.2362 C   0  0  1  0  0  0  0  0  0  0  0  0
   26.5891  -19.0190  -16.0895 O   0  0  0  0  0  0  0  0  0  0  0  0
   27.6504  -20.6463  -14.6989 C   0  0  2  0  0  0  0  0  0  0  0  0
   27.8050  -21.5642  -15.8378 N   0  0  0  0  0  0  0  0  0  0  0  0
   26.3859  -20.9894  -14.0267 C   0  0  0  0  0  0  0  0  0  0  0  0
   25.4113  -21.4761  -14.7121 O   0  0  0  0  0  0  0  0  0  0  0  0
   26.1145  -20.8369  -12.6418 N   0  0  0  0  0  0  0  0  0  0  0  0
   24.9400  -21.4246  -12.0136 C   0  0  1  0  0  0  0  0  0  0  0  0
   25.3354  -22.0182  -10.6802 C   0  0  0  0  0  0  0  0  0  0  0  0
   26.1397  -21.0770   -9.8841 C   0  0  0  0  0  0  0  0  0  0  0  0
   25.7209  -20.0084   -9.1073 C   0  0  0  0  0  0  0  0  0  0  0  0
   26.8108  -19.4376   -8.5662 N   0  0  0  0  0  0  0  0  0  0  0  0
   27.9233  -20.1124   -8.9752 C   0  0  0  0  0  0  0  0  0  0  0  0
   29.2507  -19.8877   -8.6757 C   0  0  0  0  0  0  0  0  0  0  0  0
   30.2224  -20.7066   -9.2083 C   0  0  0  0  0  0  0  0  0  0  0  0
   29.8566  -21.7462  -10.0383 C   0  0  0  0  0  0  0  0  0  0  0  0
   28.5123  -21.9460  -10.3204 C   0  0  0  0  0  0  0  0  0  0  0  0
   27.5223  -21.1468   -9.8046 C   0  0  0  0  0  0  0  0  0  0  0  0
   23.9685  -20.3532  -11.7406 C   0  0  0  0  0  0  0  0  0  0  0  0
   22.7000  -20.6620  -11.3059 O   0  0  0  0  0  0  0  0  0  0  0  0
   24.2784  -19.1486  -11.8986 O   0  0  0  0  0  0  0  0  0  0  0  0
  2  1  1  1
  3  2  1  0
  4  3  1  0
  5  2  1  0
  5  6  2  0
  8  7  1  6
  8 10  1  0
  9  8  1  0
 10 11  1  6
 10 12  1  0
 11  5  1  0
 12 14  1  0
 12 13  2  0
 14 15  1  0
 15 26  1  0
 15 16  1  1
 17 18  2  0
 17 16  1  0
 19 18  1  0
 20 25  2  0
 20 19  1  0
 21 20  1  0
 22 23  1  0
 22 21  2  0
 23 24  2  0
 24 25  1  0
 25 17  1  0
 26 27  1  0
 28 26  2  0
M  END
$$$$
