CTW.pdb
     RDKit          3D

 28 29  0  0  1  0  0  0  0  0999 V2000
   36.5463  -37.6920   -6.4228 N   0  0  0  0  0  0  0  0  0  0  0  0
   35.3342  -37.5502   -5.6429 C   0  0  1  0  0  0  0  0  0  0  0  0
   35.6218  -36.7831   -4.3487 C   0  0  0  0  0  0  0  0  0  0  0  0
   36.6519  -37.8352   -3.3012 S   0  0  0  0  0  0  0  0  0  0  0  0
   34.2602  -36.8912   -6.4332 C   0  0  0  0  0  0  0  0  0  0  0  0
   34.5837  -35.9080   -7.1488 O   0  0  0  0  0  0  0  0  0  0  0  0
   32.2261  -37.9810   -9.2653 C   0  0  0  0  0  0  0  0  0  0  0  0
   31.3284  -37.6875   -8.1123 C   0  0  1  0  0  0  0  0  0  0  0  0
   31.0234  -38.9051   -7.4433 O   0  0  0  0  0  0  0  0  0  0  0  0
   31.8853  -36.7025   -7.1056 C   0  0  2  0  0  0  0  0  0  0  0  0
   32.9467  -37.3858   -6.3506 N   0  0  0  0  0  0  0  0  0  0  0  0
   30.8988  -36.2104   -6.1292 C   0  0  0  0  0  0  0  0  0  0  0  0
   31.2074  -36.1614   -4.8807 O   0  0  0  0  0  0  0  0  0  0  0  0
   29.5863  -35.7616   -6.4302 N   0  0  0  0  0  0  0  0  0  0  0  0
   28.6628  -35.3194   -5.3953 C   0  0  1  0  0  0  0  0  0  0  0  0
   28.6067  -33.8083   -5.3932 C   0  0  0  0  0  0  0  0  0  0  0  0
   28.1520  -33.2802   -6.6896 C   0  0  0  0  0  0  0  0  0  0  0  0
   28.7755  -33.3408   -7.9260 C   0  0  0  0  0  0  0  0  0  0  0  0
   27.9843  -32.7227   -8.8194 N   0  0  0  0  0  0  0  0  0  0  0  0
   26.8648  -32.2644   -8.1894 C   0  0  0  0  0  0  0  0  0  0  0  0
   25.7844  -31.5763   -8.7008 C   0  0  0  0  0  0  0  0  0  0  0  0
   24.7497  -31.2077   -7.8690 C   0  0  0  0  0  0  0  0  0  0  0  0
   24.8049  -31.5316   -6.5291 C   0  0  0  0  0  0  0  0  0  0  0  0
   25.9058  -32.2247   -6.0452 C   0  0  0  0  0  0  0  0  0  0  0  0
   26.9514  -32.6051   -6.8495 C   0  0  0  0  0  0  0  0  0  0  0  0
   27.3141  -35.8032   -5.7322 C   0  0  0  0  0  0  0  0  0  0  0  0
   26.2539  -35.5387   -4.8958 O   0  0  0  0  0  0  0  0  0  0  0  0
   27.1099  -36.4603   -6.7802 O   0  0  0  0  0  0  0  0  0  0  0  0
  2  1  1  6
  3  2  1  0
  4  3  1  0
  5  2  1  0
  5  6  2  0
  8  7  1  6
  8 10  1  0
  9  8  1  0
 10 11  1  1
 10 12  1  0
 11  5  1  0
 12 14  1  0
 12 13  2  0
 14 15  1  0
 15 26  1  0
 15 16  1  6
 17 18  2  0
 17 16  1  0
 19 18  1  0
 20 25  2  0
 20 19  1  0
 21 20  1  0
 22 23  1  0
 22 21  2  0
 23 24  2  0
 24 25  1  0
 25 17  1  0
 26 27  1  0
 28 26  2  0
M  END
$$$$
