CTW.pdb
     RDKit          3D

 28 29  0  0  1  0  0  0  0  0999 V2000
   28.4838  -20.8708  -18.1813 N   0  0  0  0  0  0  0  0  0  0  0  0
   27.7322  -21.4162  -17.0700 C   0  0  1  0  0  0  0  0  0  0  0  0
   27.9074  -22.9365  -17.0053 C   0  0  0  0  0  0  0  0  0  0  0  0
   26.6192  -23.6843  -18.0285 S   0  0  0  0  0  0  0  0  0  0  0  0
   28.1250  -20.7730  -15.7878 C   0  0  0  0  0  0  0  0  0  0  0  0
   29.0639  -19.9358  -15.8199 O   0  0  0  0  0  0  0  0  0  0  0  0
   27.8997  -18.2604  -14.9349 C   0  0  0  0  0  0  0  0  0  0  0  0
   27.1610  -18.8694  -13.7925 C   0  0  1  0  0  0  0  0  0  0  0  0
   25.7728  -18.8938  -14.1011 O   0  0  0  0  0  0  0  0  0  0  0  0
   27.6042  -20.2691  -13.4207 C   0  0  2  0  0  0  0  0  0  0  0  0
   27.4419  -21.1206  -14.6090 N   0  0  0  0  0  0  0  0  0  0  0  0
   26.8257  -20.8822  -12.3313 C   0  0  0  0  0  0  0  0  0  0  0  0
   25.8620  -21.6878  -12.6119 O   0  0  0  0  0  0  0  0  0  0  0  0
   27.0344  -20.6733  -10.9430 N   0  0  0  0  0  0  0  0  0  0  0  0
   26.2764  -21.3924   -9.9292 C   0  0  1  0  0  0  0  0  0  0  0  0
   27.1678  -21.6541   -8.7361 C   0  0  0  0  0  0  0  0  0  0  0  0
   27.3334  -20.4490   -7.9074 C   0  0  0  0  0  0  0  0  0  0  0  0
   26.8005  -19.1825   -8.0893 C   0  0  0  0  0  0  0  0  0  0  0  0
   27.2261  -18.4053   -7.0787 N   0  0  0  0  0  0  0  0  0  0  0  0
   28.0210  -19.1397   -6.2488 C   0  0  0  0  0  0  0  0  0  0  0  0
   28.6741  -18.7648   -5.0933 C   0  0  0  0  0  0  0  0  0  0  0  0
   29.4340  -19.6852   -4.4051 C   0  0  0  0  0  0  0  0  0  0  0  0
   29.5344  -20.9765   -4.8802 C   0  0  0  0  0  0  0  0  0  0  0  0
   28.8651  -21.3227   -6.0459 C   0  0  0  0  0  0  0  0  0  0  0  0
   28.1008  -20.4276   -6.7527 C   0  0  0  0  0  0  0  0  0  0  0  0
   25.1757  -20.5311   -9.4677 C   0  0  0  0  0  0  0  0  0  0  0  0
   24.1723  -21.0501   -8.6819 O   0  0  0  0  0  0  0  0  0  0  0  0
   25.1339  -19.3178   -9.7808 O   0  0  0  0  0  0  0  0  0  0  0  0
  2  1  1  6
  3  2  1  0
  4  3  1  0
  5  2  1  0
  5  6  2  0
  8  7  1  6
  8 10  1  0
  9  8  1  0
 10 11  1  6
 10 12  1  0
 11  5  1  0
 12 14  1  0
 12 13  2  0
 14 15  1  0
 15 26  1  0
 15 16  1  1
 17 18  2  0
 17 16  1  0
 19 18  1  0
 20 25  2  0
 20 19  1  0
 21 20  1  0
 22 23  1  0
 22 21  2  0
 23 24  2  0
 24 25  1  0
 25 17  1  0
 26 27  1  0
 28 26  2  0
M  END
$$$$
