CTW.pdb
     RDKit          3D

 28 29  0  0  1  0  0  0  0  0999 V2000
   30.3278  -22.1419  -18.6453 N   0  0  0  0  0  0  0  0  0  0  0  0
   28.9821  -21.9902  -18.1321 C   0  0  1  0  0  0  0  0  0  0  0  0
   28.2796  -23.3500  -18.0731 C   0  0  0  0  0  0  0  0  0  0  0  0
   27.9556  -23.8778  -19.7706 S   0  0  0  0  0  0  0  0  0  0  0  0
   28.9857  -21.3266  -16.8010 C   0  0  0  0  0  0  0  0  0  0  0  0
   29.9942  -20.6387  -16.4960 O   0  0  0  0  0  0  0  0  0  0  0  0
   28.9162  -18.7785  -16.1085 C   0  0  0  0  0  0  0  0  0  0  0  0
   27.7171  -19.1714  -15.3152 C   0  0  1  0  0  0  0  0  0  0  0  0
   26.5550  -18.9904  -16.1150 O   0  0  0  0  0  0  0  0  0  0  0  0
   27.7357  -20.5933  -14.7940 C   0  0  2  0  0  0  0  0  0  0  0  0
   27.8789  -21.4919  -15.9497 N   0  0  0  0  0  0  0  0  0  0  0  0
   26.5131  -20.9921  -14.0765 C   0  0  0  0  0  0  0  0  0  0  0  0
   25.5245  -21.4929  -14.7310 O   0  0  0  0  0  0  0  0  0  0  0  0
   26.2985  -20.8812  -12.6778 N   0  0  0  0  0  0  0  0  0  0  0  0
   25.1378  -21.4679  -12.0236 C   0  0  1  0  0  0  0  0  0  0  0  0
   25.5654  -22.0769  -10.7072 C   0  0  0  0  0  0  0  0  0  0  0  0
   26.2832  -21.1045   -9.8670 C   0  0  0  0  0  0  0  0  0  0  0  0
   25.7810  -20.0324   -9.1465 C   0  0  0  0  0  0  0  0  0  0  0  0
   26.8117  -19.4283   -8.5306 N   0  0  0  0  0  0  0  0  0  0  0  0
   27.9673  -20.0850   -8.8364 C   0  0  0  0  0  0  0  0  0  0  0  0
   29.2614  -19.8257   -8.4358 C   0  0  0  0  0  0  0  0  0  0  0  0
   30.2896  -20.6317   -8.8733 C   0  0  0  0  0  0  0  0  0  0  0  0
   30.0135  -21.6932   -9.7102 C   0  0  0  0  0  0  0  0  0  0  0  0
   28.7008  -21.9278  -10.0954 C   0  0  0  0  0  0  0  0  0  0  0  0
   27.6561  -21.1422   -9.6757 C   0  0  0  0  0  0  0  0  0  0  0  0
   24.1808  -20.3934  -11.7140 C   0  0  0  0  0  0  0  0  0  0  0  0
   22.8945  -20.6994  -11.3328 O   0  0  0  0  0  0  0  0  0  0  0  0
   24.5192  -19.1887  -11.7920 O   0  0  0  0  0  0  0  0  0  0  0  0
  2  1  1  1
  3  2  1  0
  4  3  1  0
  5  2  1  0
  5  6  2  0
  8  7  1  6
  8 10  1  0
  9  8  1  0
 10 11  1  6
 10 12  1  0
 11  5  1  0
 12 14  1  0
 12 13  2  0
 14 15  1  0
 15 26  1  0
 15 16  1  1
 17 18  2  0
 17 16  1  0
 19 18  1  0
 20 25  2  0
 20 19  1  0
 21 20  1  0
 22 23  1  0
 22 21  2  0
 23 24  2  0
 24 25  1  0
 25 17  1  0
 26 27  1  0
 28 26  2  0
M  END
$$$$
