CTW.pdb
     RDKit          3D

 28 29  0  0  1  0  0  0  0  0999 V2000
   20.7038  -20.5883  -14.7242 N   0  0  0  0  0  0  0  0  0  0  0  0
   21.4484  -19.9077  -13.6851 C   0  0  1  0  0  0  0  0  0  0  0  0
   20.4941  -19.1493  -12.7576 C   0  0  0  0  0  0  0  0  0  0  0  0
   20.1038  -17.5683  -13.5409 S   0  0  0  0  0  0  0  0  0  0  0  0
   22.2994  -20.8593  -12.9220 C   0  0  0  0  0  0  0  0  0  0  0  0
   21.7224  -21.7975  -12.3136 O   0  0  0  0  0  0  0  0  0  0  0  0
   24.6401  -23.2322  -14.1152 C   0  0  0  0  0  0  0  0  0  0  0  0
   25.3894  -22.3716  -13.1563 C   0  0  1  0  0  0  0  0  0  0  0  0
   26.1624  -21.4289  -13.8891 O   0  0  0  0  0  0  0  0  0  0  0  0
   24.5261  -21.6268  -12.1595 C   0  0  2  0  0  0  0  0  0  0  0  0
   23.6934  -20.6755  -12.9113 N   0  0  0  0  0  0  0  0  0  0  0  0
   25.2829  -20.8538  -11.1603 C   0  0  0  0  0  0  0  0  0  0  0  0
   24.8928  -19.6694  -10.8417 O   0  0  0  0  0  0  0  0  0  0  0  0
   26.4469  -21.2947  -10.4781 N   0  0  0  0  0  0  0  0  0  0  0  0
   27.1496  -20.4520   -9.5213 C   0  0  1  0  0  0  0  0  0  0  0  0
   26.3851  -20.4390   -8.2166 C   0  0  0  0  0  0  0  0  0  0  0  0
   27.0325  -19.5744   -7.2168 C   0  0  0  0  0  0  0  0  0  0  0  0
   27.1093  -18.1912   -7.1751 C   0  0  0  0  0  0  0  0  0  0  0  0
   27.7991  -17.8478   -6.0738 N   0  0  0  0  0  0  0  0  0  0  0  0
   28.1694  -18.9764   -5.4035 C   0  0  0  0  0  0  0  0  0  0  0  0
   28.8845  -19.1116   -4.2319 C   0  0  0  0  0  0  0  0  0  0  0  0
   29.1469  -20.3673   -3.7292 C   0  0  0  0  0  0  0  0  0  0  0  0
   28.6904  -21.4801   -4.4049 C   0  0  0  0  0  0  0  0  0  0  0  0
   27.9735  -21.3107   -5.5814 C   0  0  0  0  0  0  0  0  0  0  0  0
   27.6968  -20.0726   -6.1062 C   0  0  0  0  0  0  0  0  0  0  0  0
   28.4658  -21.0507   -9.2469 C   0  0  0  0  0  0  0  0  0  0  0  0
   28.5930  -22.4144   -9.1141 O   0  0  0  0  0  0  0  0  0  0  0  0
   29.4871  -20.3327   -9.1303 O   0  0  0  0  0  0  0  0  0  0  0  0
  2  1  1  6
  3  2  1  0
  4  3  1  0
  5  2  1  0
  5  6  2  0
  8  7  1  6
  8 10  1  0
  9  8  1  0
 10 11  1  6
 10 12  1  0
 11  5  1  0
 12 14  1  0
 12 13  2  0
 14 15  1  0
 15 26  1  0
 15 16  1  1
 17 18  2  0
 17 16  1  0
 19 18  1  0
 20 25  2  0
 20 19  1  0
 21 20  1  0
 22 23  1  0
 22 21  2  0
 23 24  2  0
 24 25  1  0
 25 17  1  0
 26 27  1  0
 28 26  2  0
M  END
$$$$
