CTW.pdb
     RDKit          3D

 28 29  0  0  1  0  0  0  0  0999 V2000
   19.8262  -21.0557  -13.0256 N   0  0  0  0  0  0  0  0  0  0  0  0
   20.8553  -20.3972  -12.2479 C   0  0  1  0  0  0  0  0  0  0  0  0
   20.3058  -19.9877  -10.8781 C   0  0  0  0  0  0  0  0  0  0  0  0
   19.9084  -18.2263  -10.9472 S   0  0  0  0  0  0  0  0  0  0  0  0
   22.0596  -21.2591  -12.1103 C   0  0  0  0  0  0  0  0  0  0  0  0
   21.8799  -22.5016  -12.0258 O   0  0  0  0  0  0  0  0  0  0  0  0
   23.9110  -22.6935  -14.2460 C   0  0  0  0  0  0  0  0  0  0  0  0
   24.8769  -21.8160  -13.5258 C   0  0  1  0  0  0  0  0  0  0  0  0
   24.9928  -20.5841  -14.2271 O   0  0  0  0  0  0  0  0  0  0  0  0
   24.5206  -21.5258  -12.0827 C   0  0  2  0  0  0  0  0  0  0  0  0
   23.3314  -20.6601  -12.0806 N   0  0  0  0  0  0  0  0  0  0  0  0
   25.5738  -20.8270  -11.3269 C   0  0  0  0  0  0  0  0  0  0  0  0
   25.2486  -19.9542  -10.4387 O   0  0  0  0  0  0  0  0  0  0  0  0
   26.9716  -21.0229  -11.4771 N   0  0  0  0  0  0  0  0  0  0  0  0
   27.9270  -20.5896  -10.4677 C   0  0  1  0  0  0  0  0  0  0  0  0
   27.7121  -21.3922   -9.2042 C   0  0  0  0  0  0  0  0  0  0  0  0
   27.4032  -20.5245   -8.0561 C   0  0  0  0  0  0  0  0  0  0  0  0
   26.3686  -19.6156   -7.9000 C   0  0  0  0  0  0  0  0  0  0  0  0
   26.4897  -19.0551   -6.6844 N   0  0  0  0  0  0  0  0  0  0  0  0
   27.5778  -19.5807   -6.0519 C   0  0  0  0  0  0  0  0  0  0  0  0
   28.0860  -19.3089   -4.7989 C   0  0  0  0  0  0  0  0  0  0  0  0
   29.2123  -19.9683   -4.3575 C   0  0  0  0  0  0  0  0  0  0  0  0
   29.8222  -20.8967   -5.1757 C   0  0  0  0  0  0  0  0  0  0  0  0
   29.2863  -21.1478   -6.4313 C   0  0  0  0  0  0  0  0  0  0  0  0
   28.1657  -20.5066   -6.8980 C   0  0  0  0  0  0  0  0  0  0  0  0
   29.2854  -20.8912  -10.9475 C   0  0  0  0  0  0  0  0  0  0  0  0
   29.4674  -21.6018  -12.1117 O   0  0  0  0  0  0  0  0  0  0  0  0
   30.2932  -20.5082  -10.3075 O   0  0  0  0  0  0  0  0  0  0  0  0
  2  1  1  1
  3  2  1  0
  4  3  1  0
  5  2  1  0
  5  6  2  0
  8  7  1  6
  8 10  1  0
  9  8  1  0
 10 11  1  6
 10 12  1  0
 11  5  1  0
 12 14  1  0
 12 13  2  0
 14 15  1  0
 15 26  1  0
 15 16  1  1
 17 18  2  0
 17 16  1  0
 19 18  1  0
 20 25  2  0
 20 19  1  0
 21 20  1  0
 22 23  1  0
 22 21  2  0
 23 24  2  0
 24 25  1  0
 25 17  1  0
 26 27  1  0
 28 26  2  0
M  END
$$$$
