CTW.pdb
     RDKit          3D

 28 29  0  0  1  0  0  0  0  0999 V2000
   27.7012  -20.1678  -17.7850 N   0  0  0  0  0  0  0  0  0  0  0  0
   28.0911  -20.9395  -16.6232 C   0  0  1  0  0  0  0  0  0  0  0  0
   29.5332  -21.4336  -16.7732 C   0  0  0  0  0  0  0  0  0  0  0  0
   29.5635  -22.6495  -18.1096 S   0  0  0  0  0  0  0  0  0  0  0  0
   27.9176  -20.1535  -15.3725 C   0  0  0  0  0  0  0  0  0  0  0  0
   28.1625  -18.9202  -15.4211 O   0  0  0  0  0  0  0  0  0  0  0  0
   26.1149  -18.3035  -14.6422 C   0  0  0  0  0  0  0  0  0  0  0  0
   25.9046  -19.1633  -13.4430 C   0  0  1  0  0  0  0  0  0  0  0  0
   24.8004  -20.0273  -13.6825 O   0  0  0  0  0  0  0  0  0  0  0  0
   27.1015  -19.9994  -13.0404 C   0  0  2  0  0  0  0  0  0  0  0  0
   27.4931  -20.8098  -14.2038 N   0  0  0  0  0  0  0  0  0  0  0  0
   26.8460  -20.9265  -11.9252 C   0  0  0  0  0  0  0  0  0  0  0  0
   26.9365  -22.1958  -12.1180 O   0  0  0  0  0  0  0  0  0  0  0  0
   26.4975  -20.5547  -10.6004 N   0  0  0  0  0  0  0  0  0  0  0  0
   26.2882  -21.5400   -9.5493 C   0  0  1  0  0  0  0  0  0  0  0  0
   27.5047  -21.5739   -8.6518 C   0  0  0  0  0  0  0  0  0  0  0  0
   27.5255  -20.4327   -7.7224 C   0  0  0  0  0  0  0  0  0  0  0  0
   26.8927  -19.2045   -7.8311 C   0  0  0  0  0  0  0  0  0  0  0  0
   27.2013  -18.4817   -6.7407 N   0  0  0  0  0  0  0  0  0  0  0  0
   28.0182  -19.2141   -5.9306 C   0  0  0  0  0  0  0  0  0  0  0  0
   28.5818  -18.8840   -4.7158 C   0  0  0  0  0  0  0  0  0  0  0  0
   29.3868  -19.7920   -4.0635 C   0  0  0  0  0  0  0  0  0  0  0  0
   29.6219  -21.0261   -4.6337 C   0  0  0  0  0  0  0  0  0  0  0  0
   29.0401  -21.3282   -5.8572 C   0  0  0  0  0  0  0  0  0  0  0  0
   28.2339  -20.4441   -6.5303 C   0  0  0  0  0  0  0  0  0  0  0  0
   25.1503  -21.1083   -8.7216 C   0  0  0  0  0  0  0  0  0  0  0  0
   24.6349  -21.9472   -7.7602 O   0  0  0  0  0  0  0  0  0  0  0  0
   24.6346  -19.9762   -8.8775 O   0  0  0  0  0  0  0  0  0  0  0  0
  2  1  1  6
  3  2  1  0
  4  3  1  0
  5  2  1  0
  5  6  2  0
  8  7  1  6
  8 10  1  0
  9  8  1  0
 10 11  1  6
 10 12  1  0
 11  5  1  0
 12 14  1  0
 12 13  2  0
 14 15  1  0
 15 26  1  0
 15 16  1  1
 17 18  2  0
 17 16  1  0
 19 18  1  0
 20 25  2  0
 20 19  1  0
 21 20  1  0
 22 23  1  0
 22 21  2  0
 23 24  2  0
 24 25  1  0
 25 17  1  0
 26 27  1  0
 28 26  2  0
M  END
$$$$
