CTW.pdb
     RDKit          3D

 28 29  0  0  1  0  0  0  0  0999 V2000
   27.6170  -20.2671  -15.5501 N   0  0  0  0  0  0  0  0  0  0  0  0
   27.6122  -20.8965  -14.2458 C   0  0  1  0  0  0  0  0  0  0  0  0
   29.0356  -20.9661  -13.6842 C   0  0  0  0  0  0  0  0  0  0  0  0
   29.9372  -22.2214  -14.6205 S   0  0  0  0  0  0  0  0  0  0  0  0
   26.6974  -20.1890  -13.3106 C   0  0  0  0  0  0  0  0  0  0  0  0
   26.2651  -19.0604  -13.6611 O   0  0  0  0  0  0  0  0  0  0  0  0
   24.1879  -19.2426  -13.3175 C   0  0  0  0  0  0  0  0  0  0  0  0
   24.0586  -20.0722  -12.0861 C   0  0  1  0  0  0  0  0  0  0  0  0
   23.6387  -21.3807  -12.4531 O   0  0  0  0  0  0  0  0  0  0  0  0
   25.3195  -20.1785  -11.2539 C   0  0  2  0  0  0  0  0  0  0  0  0
   26.3571  -20.8002  -12.0909 N   0  0  0  0  0  0  0  0  0  0  0  0
   25.1789  -21.0045  -10.0429 C   0  0  0  0  0  0  0  0  0  0  0  0
   25.3994  -22.2709  -10.1059 O   0  0  0  0  0  0  0  0  0  0  0  0
   24.8126  -20.5331   -8.7551 N   0  0  0  0  0  0  0  0  0  0  0  0
   24.6927  -21.4237   -7.6097 C   0  0  1  0  0  0  0  0  0  0  0  0
   25.2073  -20.7170   -6.3758 C   0  0  0  0  0  0  0  0  0  0  0  0
   26.5583  -20.1721   -6.5862 C   0  0  0  0  0  0  0  0  0  0  0  0
   27.2191  -19.9070   -7.7753 C   0  0  0  0  0  0  0  0  0  0  0  0
   28.4333  -19.4158   -7.4736 N   0  0  0  0  0  0  0  0  0  0  0  0
   28.5721  -19.3576   -6.1181 C   0  0  0  0  0  0  0  0  0  0  0  0
   29.6391  -18.9250   -5.3587 C   0  0  0  0  0  0  0  0  0  0  0  0
   29.5594  -18.9548   -3.9835 C   0  0  0  0  0  0  0  0  0  0  0  0
   28.4097  -19.4185   -3.3782 C   0  0  0  0  0  0  0  0  0  0  0  0
   27.3533  -19.8468   -4.1702 C   0  0  0  0  0  0  0  0  0  0  0  0
   27.4037  -19.8287   -5.5421 C   0  0  0  0  0  0  0  0  0  0  0  0
   23.2663  -21.7079   -7.3838 C   0  0  0  0  0  0  0  0  0  0  0  0
   22.8853  -22.6393   -6.4453 O   0  0  0  0  0  0  0  0  0  0  0  0
   22.3799  -21.1098   -8.0385 O   0  0  0  0  0  0  0  0  0  0  0  0
  2  1  1  6
  3  2  1  0
  4  3  1  0
  5  2  1  0
  5  6  2  0
  8  7  1  6
  8 10  1  0
  9  8  1  0
 10 11  1  6
 10 12  1  0
 11  5  1  0
 12 14  1  0
 12 13  2  0
 14 15  1  0
 15 26  1  0
 15 16  1  1
 17 18  2  0
 17 16  1  0
 19 18  1  0
 20 25  2  0
 20 19  1  0
 21 20  1  0
 22 23  1  0
 22 21  2  0
 23 24  2  0
 24 25  1  0
 25 17  1  0
 26 27  1  0
 28 26  2  0
M  END
$$$$
