CTW.pdb
     RDKit          3D

 28 29  0  0  1  0  0  0  0  0999 V2000
   27.3852  -21.7424   -9.8183 N   0  0  0  0  0  0  0  0  0  0  0  0
   26.1459  -21.0732  -10.1555 C   0  0  1  0  0  0  0  0  0  0  0  0
   26.0227  -19.7596   -9.3775 C   0  0  0  0  0  0  0  0  0  0  0  0
   25.9958  -20.1621   -7.6161 S   0  0  0  0  0  0  0  0  0  0  0  0
   26.0400  -20.8440  -11.6212 C   0  0  0  0  0  0  0  0  0  0  0  0
   27.0853  -20.9786  -12.3087 O   0  0  0  0  0  0  0  0  0  0  0  0
   26.1238  -22.6239  -13.5393 C   0  0  0  0  0  0  0  0  0  0  0  0
   24.8401  -22.0389  -14.0203 C   0  0  1  0  0  0  0  0  0  0  0  0
   23.7617  -22.8249  -13.5283 O   0  0  0  0  0  0  0  0  0  0  0  0
   24.6115  -20.5941  -13.6276 C   0  0  2  0  0  0  0  0  0  0  0  0
   24.7952  -20.4915  -12.1718 N   0  0  0  0  0  0  0  0  0  0  0  0
   23.2638  -20.0877  -13.9370 C   0  0  0  0  0  0  0  0  0  0  0  0
   22.3578  -20.0868  -13.0228 O   0  0  0  0  0  0  0  0  0  0  0  0
   22.8376  -19.5750  -15.1901 N   0  0  0  0  0  0  0  0  0  0  0  0
   21.5076  -19.0166  -15.3864 C   0  0  1  0  0  0  0  0  0  0  0  0
   21.5762  -17.9276  -16.4333 C   0  0  0  0  0  0  0  0  0  0  0  0
   22.3479  -16.7672  -15.9596 C   0  0  0  0  0  0  0  0  0  0  0  0
   21.8961  -15.5160  -15.5706 C   0  0  0  0  0  0  0  0  0  0  0  0
   22.9644  -14.7821  -15.2152 N   0  0  0  0  0  0  0  0  0  0  0  0
   24.0953  -15.5296  -15.3653 C   0  0  0  0  0  0  0  0  0  0  0  0
   25.4116  -15.1956  -15.1242 C   0  0  0  0  0  0  0  0  0  0  0  0
   26.4066  -16.1217  -15.3489 C   0  0  0  0  0  0  0  0  0  0  0  0
   26.0753  -17.3776  -15.8142 C   0  0  0  0  0  0  0  0  0  0  0  0
   24.7414  -17.6828  -16.0471 C   0  0  0  0  0  0  0  0  0  0  0  0
   23.7287  -16.7811  -15.8325 C   0  0  0  0  0  0  0  0  0  0  0  0
   20.6290  -20.0723  -15.9155 C   0  0  0  0  0  0  0  0  0  0  0  0
   19.2625  -19.9600  -15.7987 O   0  0  0  0  0  0  0  0  0  0  0  0
   21.1079  -21.0854  -16.4780 O   0  0  0  0  0  0  0  0  0  0  0  0
  2  1  1  6
  3  2  1  0
  4  3  1  0
  5  2  1  0
  5  6  2  0
  8  7  1  1
  8 10  1  0
  9  8  1  0
 10 11  1  1
 10 12  1  0
 11  5  1  0
 12 14  1  0
 12 13  2  0
 14 15  1  0
 15 26  1  0
 15 16  1  6
 17 18  2  0
 17 16  1  0
 19 18  1  0
 20 25  2  0
 20 19  1  0
 21 20  1  0
 22 23  1  0
 22 21  2  0
 23 24  2  0
 24 25  1  0
 25 17  1  0
 26 27  1  0
 28 26  2  0
M  END
$$$$
