CTW.pdb
     RDKit          3D

 28 29  0  0  1  0  0  0  0  0999 V2000
   18.0882   -9.5182  -15.5518 N   0  0  0  0  0  0  0  0  0  0  0  0
   17.5253   -9.4258  -14.2206 C   0  0  1  0  0  0  0  0  0  0  0  0
   17.9774  -10.6159  -13.3689 C   0  0  0  0  0  0  0  0  0  0  0  0
   17.1031  -12.0821  -13.9615 S   0  0  0  0  0  0  0  0  0  0  0  0
   17.8811   -8.1342  -13.5747 C   0  0  0  0  0  0  0  0  0  0  0  0
   19.0147   -7.6498  -13.8270 O   0  0  0  0  0  0  0  0  0  0  0  0
   18.4653   -5.4939  -14.3970 C   0  0  0  0  0  0  0  0  0  0  0  0
   17.2591   -5.2723  -13.5499 C   0  0  1  0  0  0  0  0  0  0  0  0
   16.0955   -5.5102  -14.3326 O   0  0  0  0  0  0  0  0  0  0  0  0
   17.1917   -6.1265  -12.3011 C   0  0  2  0  0  0  0  0  0  0  0  0
   16.9508   -7.5154  -12.7211 N   0  0  0  0  0  0  0  0  0  0  0  0
   16.1123   -5.7557  -11.3704 C   0  0  0  0  0  0  0  0  0  0  0  0
   14.8928   -6.0485  -11.6594 O   0  0  0  0  0  0  0  0  0  0  0  0
   16.2795   -5.0822  -10.1321 N   0  0  0  0  0  0  0  0  0  0  0  0
   15.1465   -4.6601   -9.3212 C   0  0  1  0  0  0  0  0  0  0  0  0
   15.1978   -5.3725   -7.9883 C   0  0  0  0  0  0  0  0  0  0  0  0
   14.7748   -6.7773   -8.1071 C   0  0  0  0  0  0  0  0  0  0  0  0
   15.5318   -7.8950   -8.4210 C   0  0  0  0  0  0  0  0  0  0  0  0
   14.7162   -8.9634   -8.4115 N   0  0  0  0  0  0  0  0  0  0  0  0
   13.4509   -8.5620   -8.0988 C   0  0  0  0  0  0  0  0  0  0  0  0
   12.2956   -9.3050   -7.9737 C   0  0  0  0  0  0  0  0  0  0  0  0
   11.1114   -8.6821   -7.6452 C   0  0  0  0  0  0  0  0  0  0  0  0
   11.0931   -7.3173   -7.4441 C   0  0  0  0  0  0  0  0  0  0  0  0
   12.2724   -6.5977   -7.5774 C   0  0  0  0  0  0  0  0  0  0  0  0
   13.4669   -7.1906   -7.9036 C   0  0  0  0  0  0  0  0  0  0  0  0
   15.2757   -3.2195   -9.0484 C   0  0  0  0  0  0  0  0  0  0  0  0
   14.2668   -2.5434   -8.4016 O   0  0  0  0  0  0  0  0  0  0  0  0
   16.3007   -2.5881   -9.3987 O   0  0  0  0  0  0  0  0  0  0  0  0
  2  1  1  6
  3  2  1  0
  4  3  1  0
  5  2  1  0
  5  6  2  0
  8  7  1  6
  8 10  1  0
  9  8  1  0
 10 11  1  6
 10 12  1  0
 11  5  1  0
 12 14  1  0
 12 13  2  0
 14 15  1  0
 15 26  1  0
 15 16  1  1
 17 18  2  0
 17 16  1  0
 19 18  1  0
 20 25  2  0
 20 19  1  0
 21 20  1  0
 22 23  1  0
 22 21  2  0
 23 24  2  0
 24 25  1  0
 25 17  1  0
 26 27  1  0
 28 26  2  0
M  END
$$$$
