CTW.pdb
     RDKit          3D

 28 29  0  0  1  0  0  0  0  0999 V2000
   29.0020  -16.8624  -18.4440 N   0  0  0  0  0  0  0  0  0  0  0  0
   29.0335  -18.0600  -17.6303 C   0  0  1  0  0  0  0  0  0  0  0  0
   30.4813  -18.4776  -17.3554 C   0  0  0  0  0  0  0  0  0  0  0  0
   31.1989  -19.0398  -18.9156 S   0  0  0  0  0  0  0  0  0  0  0  0
   28.2772  -17.8696  -16.3637 C   0  0  0  0  0  0  0  0  0  0  0  0
   28.1274  -16.6920  -15.9464 O   0  0  0  0  0  0  0  0  0  0  0  0
   26.0020  -16.6866  -15.7834 C   0  0  0  0  0  0  0  0  0  0  0  0
   25.6291  -18.0023  -15.1907 C   0  0  1  0  0  0  0  0  0  0  0  0
   24.9819  -18.7889  -16.1834 O   0  0  0  0  0  0  0  0  0  0  0  0
   26.7861  -18.7937  -14.6170 C   0  0  2  0  0  0  0  0  0  0  0  0
   27.7677  -18.9958  -15.6937 N   0  0  0  0  0  0  0  0  0  0  0  0
   26.4160  -20.1238  -14.1047 C   0  0  0  0  0  0  0  0  0  0  0  0
   26.5633  -21.1593  -14.8546 O   0  0  0  0  0  0  0  0  0  0  0  0
   25.8934  -20.3998  -12.8142 N   0  0  0  0  0  0  0  0  0  0  0  0
   25.3602  -21.7068  -12.4580 C   0  0  1  0  0  0  0  0  0  0  0  0
   26.0989  -22.2307  -11.2471 C   0  0  0  0  0  0  0  0  0  0  0  0
   26.1523  -21.2301  -10.1689 C   0  0  0  0  0  0  0  0  0  0  0  0
   25.1411  -20.4203   -9.6764 C   0  0  0  0  0  0  0  0  0  0  0  0
   25.6576  -19.6661   -8.6910 N   0  0  0  0  0  0  0  0  0  0  0  0
   26.9781  -19.9698   -8.5356 C   0  0  0  0  0  0  0  0  0  0  0  0
   27.9040  -19.4530   -7.6535 C   0  0  0  0  0  0  0  0  0  0  0  0
   29.2021  -19.9143   -7.6730 C   0  0  0  0  0  0  0  0  0  0  0  0
   29.5638  -20.8914   -8.5773 C   0  0  0  0  0  0  0  0  0  0  0  0
   28.6088  -21.3912   -9.4518 C   0  0  0  0  0  0  0  0  0  0  0  0
   27.3083  -20.9512   -9.4558 C   0  0  0  0  0  0  0  0  0  0  0  0
   23.9492  -21.5480  -12.0703 C   0  0  0  0  0  0  0  0  0  0  0  0
   23.3978  -20.2921  -11.9601 O   0  0  0  0  0  0  0  0  0  0  0  0
   23.2304  -22.5481  -11.8354 O   0  0  0  0  0  0  0  0  0  0  0  0
  2  1  1  1
  3  2  1  0
  4  3  1  0
  5  2  1  0
  5  6  2  0
  8  7  1  6
  8 10  1  0
  9  8  1  0
 10 11  1  6
 10 12  1  0
 11  5  1  0
 12 14  1  0
 12 13  2  0
 14 15  1  0
 15 26  1  0
 15 16  1  1
 17 18  2  0
 17 16  1  0
 19 18  1  0
 20 25  2  0
 20 19  1  0
 21 20  1  0
 22 23  1  0
 22 21  2  0
 23 24  2  0
 24 25  1  0
 25 17  1  0
 26 27  1  0
 28 26  2  0
M  END
$$$$
