CTW.pdb
     RDKit          3D

 28 29  0  0  1  0  0  0  0  0999 V2000
   27.6061  -20.5531  -17.3103 N   0  0  0  0  0  0  0  0  0  0  0  0
   27.8964  -21.3033  -16.1061 C   0  0  1  0  0  0  0  0  0  0  0  0
   29.3273  -21.8480  -16.1514 C   0  0  0  0  0  0  0  0  0  0  0  0
   29.3476  -23.2512  -17.2898 S   0  0  0  0  0  0  0  0  0  0  0  0
   27.6723  -20.4765  -14.8902 C   0  0  0  0  0  0  0  0  0  0  0  0
   27.9841  -19.2589  -14.9484 O   0  0  0  0  0  0  0  0  0  0  0  0
   25.8694  -18.5729  -14.4094 C   0  0  0  0  0  0  0  0  0  0  0  0
   25.5257  -19.3641  -13.1939 C   0  0  1  0  0  0  0  0  0  0  0  0
   24.4149  -20.2025  -13.4877 O   0  0  0  0  0  0  0  0  0  0  0  0
   26.6522  -20.2176  -12.6495 C   0  0  2  0  0  0  0  0  0  0  0  0
   27.1291  -21.0794  -13.7419 N   0  0  0  0  0  0  0  0  0  0  0  0
   26.2623  -21.0970  -11.5345 C   0  0  0  0  0  0  0  0  0  0  0  0
   25.8811  -22.3023  -11.7766 O   0  0  0  0  0  0  0  0  0  0  0  0
   26.2639  -20.7440  -10.1597 N   0  0  0  0  0  0  0  0  0  0  0  0
   25.8685  -21.6821   -9.1190 C   0  0  1  0  0  0  0  0  0  0  0  0
   26.9613  -21.7558   -8.0763 C   0  0  0  0  0  0  0  0  0  0  0  0
   27.1889  -20.4505   -7.4354 C   0  0  0  0  0  0  0  0  0  0  0  0
   26.7554  -19.1947   -7.8303 C   0  0  0  0  0  0  0  0  0  0  0  0
   27.2055  -18.3003   -6.9336 N   0  0  0  0  0  0  0  0  0  0  0  0
   27.9193  -18.9488   -5.9692 C   0  0  0  0  0  0  0  0  0  0  0  0
   28.5625  -18.4438   -4.8585 C   0  0  0  0  0  0  0  0  0  0  0  0
   29.2322  -19.2952   -4.0072 C   0  0  0  0  0  0  0  0  0  0  0  0
   29.2527  -20.6484   -4.2749 C   0  0  0  0  0  0  0  0  0  0  0  0
   28.5957  -21.1256   -5.4007 C   0  0  0  0  0  0  0  0  0  0  0  0
   27.9204  -20.3018   -6.2668 C   0  0  0  0  0  0  0  0  0  0  0  0
   24.6654  -21.1610   -8.4503 C   0  0  0  0  0  0  0  0  0  0  0  0
   24.0872  -21.8633   -7.4177 O   0  0  0  0  0  0  0  0  0  0  0  0
   24.1502  -20.0753   -8.8079 O   0  0  0  0  0  0  0  0  0  0  0  0
  2  1  1  6
  3  2  1  0
  4  3  1  0
  5  2  1  0
  5  6  2  0
  8  7  1  6
  8 10  1  0
  9  8  1  0
 10 11  1  6
 10 12  1  0
 11  5  1  0
 12 14  1  0
 12 13  2  0
 14 15  1  0
 15 26  1  0
 15 16  1  1
 17 18  2  0
 17 16  1  0
 19 18  1  0
 20 25  2  0
 20 19  1  0
 21 20  1  0
 22 23  1  0
 22 21  2  0
 23 24  2  0
 24 25  1  0
 25 17  1  0
 26 27  1  0
 28 26  2  0
M  END
$$$$
