CTW.pdb
     RDKit          3D

 28 29  0  0  1  0  0  0  0  0999 V2000
   27.2863  -20.5351  -17.5076 N   0  0  0  0  0  0  0  0  0  0  0  0
   27.6922  -21.2221  -16.2991 C   0  0  1  0  0  0  0  0  0  0  0  0
   29.1776  -21.5890  -16.3700 C   0  0  0  0  0  0  0  0  0  0  0  0
   29.3377  -23.0377  -17.4382 S   0  0  0  0  0  0  0  0  0  0  0  0
   27.3951  -20.4067  -15.0912 C   0  0  0  0  0  0  0  0  0  0  0  0
   27.4867  -19.1561  -15.1960 O   0  0  0  0  0  0  0  0  0  0  0  0
   25.3040  -18.8531  -14.5702 C   0  0  0  0  0  0  0  0  0  0  0  0
   25.1709  -19.6370  -13.3095 C   0  0  1  0  0  0  0  0  0  0  0  0
   24.2119  -20.6687  -13.5066 O   0  0  0  0  0  0  0  0  0  0  0  0
   26.4580  -20.2555  -12.8049 C   0  0  2  0  0  0  0  0  0  0  0  0
   27.0292  -21.0558  -13.8989 N   0  0  0  0  0  0  0  0  0  0  0  0
   26.2877  -21.1509  -11.6482 C   0  0  0  0  0  0  0  0  0  0  0  0
   26.1558  -22.4173  -11.8365 O   0  0  0  0  0  0  0  0  0  0  0  0
   26.2543  -20.7505  -10.2869 N   0  0  0  0  0  0  0  0  0  0  0  0
   25.9882  -21.6923   -9.2091 C   0  0  1  0  0  0  0  0  0  0  0  0
   27.1815  -21.7343   -8.2812 C   0  0  0  0  0  0  0  0  0  0  0  0
   27.3873  -20.4443   -7.6030 C   0  0  0  0  0  0  0  0  0  0  0  0
   26.8878  -19.1939   -7.9315 C   0  0  0  0  0  0  0  0  0  0  0  0
   27.3435  -18.3143   -7.0231 N   0  0  0  0  0  0  0  0  0  0  0  0
   28.1251  -18.9670   -6.1159 C   0  0  0  0  0  0  0  0  0  0  0  0
   28.7984  -18.4758   -5.0169 C   0  0  0  0  0  0  0  0  0  0  0  0
   29.5388  -19.3290   -4.2282 C   0  0  0  0  0  0  0  0  0  0  0  0
   29.5995  -20.6700   -4.5465 C   0  0  0  0  0  0  0  0  0  0  0  0
   28.9108  -21.1333   -5.6590 C   0  0  0  0  0  0  0  0  0  0  0  0
   28.1652  -20.3074   -6.4632 C   0  0  0  0  0  0  0  0  0  0  0  0
   24.8458  -21.1968   -8.4245 C   0  0  0  0  0  0  0  0  0  0  0  0
   24.5022  -21.8062   -7.2396 O   0  0  0  0  0  0  0  0  0  0  0  0
   24.1705  -20.2172   -8.8201 O   0  0  0  0  0  0  0  0  0  0  0  0
  2  1  1  6
  3  2  1  0
  4  3  1  0
  5  2  1  0
  5  6  2  0
  8  7  1  6
  8 10  1  0
  9  8  1  0
 10 11  1  6
 10 12  1  0
 11  5  1  0
 12 14  1  0
 12 13  2  0
 14 15  1  0
 15 26  1  0
 15 16  1  1
 17 18  2  0
 17 16  1  0
 19 18  1  0
 20 25  2  0
 20 19  1  0
 21 20  1  0
 22 23  1  0
 22 21  2  0
 23 24  2  0
 24 25  1  0
 25 17  1  0
 26 27  1  0
 28 26  2  0
M  END
$$$$
