LSR.pdb
     RDKit          3D

 26 25  0  0  1  0  0  0  0  0999 V2000
    6.9057  -12.8863   20.3904 C   0  0  0  0  0  0  0  0  0  0  0  0
    7.6874  -13.4269   19.2371 C   0  0  1  0  0  0  0  0  0  0  0  0
    8.2817  -12.2525   18.4666 C   0  0  0  0  0  0  0  0  0  0  0  0
    8.7669  -14.4094   19.6392 C   0  0  0  0  0  0  0  0  0  0  0  0
    9.4493  -14.8990   18.3835 C   0  0  2  0  0  0  0  0  0  0  0  0
    8.6299  -15.9015   17.7371 N   0  0  0  0  0  0  0  0  0  0  0  0
   10.7797  -15.4545   18.6279 C   0  0  0  0  0  0  0  0  0  0  0  0
   10.9070  -16.5463   19.2058 O   0  0  0  0  0  0  0  0  0  0  0  0
   14.7560  -13.2841   18.4389 O   0  0  0  0  0  0  0  0  0  0  0  0
   14.4145  -14.5037   17.8754 C   0  0  0  0  0  0  0  0  0  0  0  0
   13.3057  -15.1981   18.6199 C   0  0  2  0  0  0  0  0  0  0  0  0
   11.9961  -14.8026   18.2323 N   0  0  0  0  0  0  0  0  0  0  0  0
   13.5002  -14.9487   20.0624 C   0  0  0  0  0  0  0  0  0  0  0  0
   12.6367  -14.2877   20.6947 O   0  0  0  0  0  0  0  0  0  0  0  0
   11.2961  -20.5213   26.7224 N   0  0  0  0  0  0  0  0  0  0  0  0
   12.1255  -19.4161   26.3966 C   0  0  0  0  0  0  0  0  0  0  0  0
   12.4298  -18.5020   27.2798 N   0  0  0  0  0  0  0  0  0  0  0  0
   12.6732  -19.2371   25.0953 N   0  0  0  0  0  0  0  0  0  0  0  0
   12.2825  -18.1069   24.2714 C   0  0  0  0  0  0  0  0  0  0  0  0
   13.4134  -17.2142   23.9243 C   0  0  0  0  0  0  0  0  0  0  0  0
   13.4673  -16.6769   22.5478 C   0  0  0  0  0  0  0  0  0  0  0  0
   14.5758  -15.7412   22.2227 C   0  0  2  0  0  0  0  0  0  0  0  0
   14.6112  -15.4096   20.7990 N   0  0  0  0  0  0  0  0  0  0  0  0
   15.9168  -16.1402   22.6425 C   0  0  0  0  0  0  0  0  0  0  0  0
   16.3003  -16.0289   23.8480 O   0  0  0  0  0  0  0  0  0  0  0  0
   16.8252  -16.6594   21.7351 O   0  0  0  0  0  0  0  0  0  0  0  0
  2  3  1  1
  2  1  1  0
  4  2  1  0
  5  6  1  1
  5  4  1  0
  7  5  1  0
  8  7  2  0
  9 10  1  0
 11 10  1  6
 11 12  1  0
 12  7  1  0
 13 11  1  0
 13 14  2  0
 16 17  2  0
 16 15  1  0
 18 16  1  0
 19 18  1  0
 20 19  1  0
 21 20  1  0
 22 21  1  6
 23 22  1  0
 23 13  1  0
 24 22  1  0
 25 24  2  0
 26 24  1  0
M  END
$$$$
