LSR.pdb
     RDKit          3D

 26 25  0  0  1  0  0  0  0  0999 V2000
    7.7152  -11.9102   19.3724 C   0  0  0  0  0  0  0  0  0  0  0  0
    8.0743  -13.3562   19.4890 C   0  0  1  0  0  0  0  0  0  0  0  0
    8.5247  -13.8515   18.1187 C   0  0  0  0  0  0  0  0  0  0  0  0
    9.1284  -13.6400   20.5380 C   0  0  0  0  0  0  0  0  0  0  0  0
    9.3216  -15.1361   20.6186 C   0  0  2  0  0  0  0  0  0  0  0  0
    8.0751  -15.7742   20.9837 N   0  0  0  0  0  0  0  0  0  0  0  0
   10.3587  -15.5345   21.5695 C   0  0  0  0  0  0  0  0  0  0  0  0
   11.5273  -15.1401   21.4247 O   0  0  0  0  0  0  0  0  0  0  0  0
    9.5198  -18.1287   24.8933 O   0  0  0  0  0  0  0  0  0  0  0  0
   10.5045  -17.1594   25.0058 C   0  0  0  0  0  0  0  0  0  0  0  0
   11.0799  -16.7580   23.6740 C   0  0  2  0  0  0  0  0  0  0  0  0
   10.1127  -16.3816   22.7022 N   0  0  0  0  0  0  0  0  0  0  0  0
   11.8881  -17.8860   23.1687 C   0  0  0  0  0  0  0  0  0  0  0  0
   11.3151  -18.8388   22.5805 O   0  0  0  0  0  0  0  0  0  0  0  0
   12.2531  -15.3595   19.9336 N   0  0  0  0  0  0  0  0  0  0  0  0
   13.5078  -14.9772   19.3905 C   0  0  0  0  0  0  0  0  0  0  0  0
   13.7449  -13.7504   19.0072 N   0  0  0  0  0  0  0  0  0  0  0  0
   14.5781  -15.9015   19.2311 N   0  0  0  0  0  0  0  0  0  0  0  0
   15.1595  -16.5735   20.3797 C   0  0  0  0  0  0  0  0  0  0  0  0
   14.5747  -17.9109   20.6359 C   0  0  0  0  0  0  0  0  0  0  0  0
   15.0836  -18.6725   21.7967 C   0  0  0  0  0  0  0  0  0  0  0  0
   14.0945  -19.0959   22.8226 C   0  0  2  0  0  0  0  0  0  0  0  0
   13.2895  -17.9731   23.3018 N   0  0  0  0  0  0  0  0  0  0  0  0
   14.6159  -19.8228   23.9774 C   0  0  0  0  0  0  0  0  0  0  0  0
   14.3922  -19.4368   25.1663 O   0  0  0  0  0  0  0  0  0  0  0  0
   15.3777  -20.9683   23.8169 O   0  0  0  0  0  0  0  0  0  0  0  0
  2  3  1  6
  2  1  1  0
  4  2  1  0
  5  6  1  1
  5  4  1  0
  7  5  1  0
  8  7  2  0
  9 10  1  0
 11 10  1  1
 11 12  1  0
 12  7  1  0
 13 11  1  0
 13 14  2  0
 16 17  2  0
 16 15  1  0
 18 16  1  0
 19 18  1  0
 20 19  1  0
 21 20  1  0
 22 21  1  6
 23 22  1  0
 23 13  1  0
 24 22  1  0
 25 24  2  0
 26 24  1  0
M  END
$$$$
