LSR.pdb
     RDKit          3D

 26 25  0  0  1  0  0  0  0  0999 V2000
    8.3579  -11.7572   19.8942 C   0  0  0  0  0  0  0  0  0  0  0  0
    8.0910  -13.1950   19.5858 C   0  0  1  0  0  0  0  0  0  0  0  0
    9.0541  -13.6382   18.4894 C   0  0  0  0  0  0  0  0  0  0  0  0
    8.1903  -14.1058   20.7911 C   0  0  0  0  0  0  0  0  0  0  0  0
    8.1057  -15.5351   20.3093 C   0  0  2  0  0  0  0  0  0  0  0  0
    6.7917  -16.0721   20.5903 N   0  0  0  0  0  0  0  0  0  0  0  0
    9.1160  -16.4071   20.9072 C   0  0  0  0  0  0  0  0  0  0  0  0
    9.8486  -15.9861   21.8172 O   0  0  0  0  0  0  0  0  0  0  0  0
    9.5807  -20.4684   19.6535 O   0  0  0  0  0  0  0  0  0  0  0  0
   10.0277  -20.0935   20.9111 C   0  0  0  0  0  0  0  0  0  0  0  0
   10.3477  -18.6254   21.0006 C   0  0  2  0  0  0  0  0  0  0  0  0
    9.3295  -17.7676   20.5014 N   0  0  0  0  0  0  0  0  0  0  0  0
   11.6083  -18.3888   20.2687 C   0  0  0  0  0  0  0  0  0  0  0  0
   11.5950  -18.3668   19.0111 O   0  0  0  0  0  0  0  0  0  0  0  0
   16.0644  -12.4348   17.5790 N   0  0  0  0  0  0  0  0  0  0  0  0
   16.2127  -13.8140   17.2766 C   0  0  0  0  0  0  0  0  0  0  0  0
   17.0053  -14.2265   16.3228 N   0  0  0  0  0  0  0  0  0  0  0  0
   15.5110  -14.8261   17.9898 N   0  0  0  0  0  0  0  0  0  0  0  0
   14.1433  -14.6153   18.4300 C   0  0  0  0  0  0  0  0  0  0  0  0
   13.5665  -15.7841   19.1355 C   0  0  0  0  0  0  0  0  0  0  0  0
   14.4729  -16.5952   19.9762 C   0  0  0  0  0  0  0  0  0  0  0  0
   14.1206  -18.0254   20.1774 C   0  0  2  0  0  0  0  0  0  0  0  0
   12.8554  -18.1810   20.8939 N   0  0  0  0  0  0  0  0  0  0  0  0
   15.1275  -18.8660   20.8204 C   0  0  0  0  0  0  0  0  0  0  0  0
   16.2612  -19.0758   20.2883 O   0  0  0  0  0  0  0  0  0  0  0  0
   14.8813  -19.4681   22.0432 O   0  0  0  0  0  0  0  0  0  0  0  0
  2  3  1  6
  2  1  1  0
  4  2  1  0
  5  6  1  1
  5  4  1  0
  7  5  1  0
  8  7  2  0
  9 10  1  0
 11 10  1  6
 11 12  1  0
 12  7  1  0
 13 11  1  0
 13 14  2  0
 16 17  2  0
 16 15  1  0
 18 16  1  0
 19 18  1  0
 20 19  1  0
 21 20  1  0
 22 21  1  1
 23 22  1  0
 23 13  1  0
 24 22  1  0
 25 24  2  0
 26 24  1  0
M  END
$$$$
