LSR.pdb
     RDKit          3D

 26 25  0  0  1  0  0  0  0  0999 V2000
    6.6387  -11.4429   26.8335 C   0  0  0  0  0  0  0  0  0  0  0  0
    6.2887  -12.5452   25.8870 C   0  0  1  0  0  0  0  0  0  0  0  0
    6.4113  -12.0131   24.4630 C   0  0  0  0  0  0  0  0  0  0  0  0
    7.1248  -13.7942   26.0695 C   0  0  0  0  0  0  0  0  0  0  0  0
    6.6661  -14.8196   25.0594 C   0  0  2  0  0  0  0  0  0  0  0  0
    5.4469  -15.4503   25.5174 N   0  0  0  0  0  0  0  0  0  0  0  0
    7.6658  -15.8521   24.7895 C   0  0  0  0  0  0  0  0  0  0  0  0
    7.8586  -16.7672   25.6066 O   0  0  0  0  0  0  0  0  0  0  0  0
   10.6013  -15.5546   21.6794 O   0  0  0  0  0  0  0  0  0  0  0  0
    9.9920  -16.7827   21.8851 C   0  0  0  0  0  0  0  0  0  0  0  0
    9.3935  -16.9117   23.2602 C   0  0  2  0  0  0  0  0  0  0  0  0
    8.4714  -15.8847   23.6016 N   0  0  0  0  0  0  0  0  0  0  0  0
   10.5002  -16.9393   24.2375 C   0  0  0  0  0  0  0  0  0  0  0  0
   10.8709  -15.8657   24.7781 O   0  0  0  0  0  0  0  0  0  0  0  0
   12.5062  -21.5237   31.4570 N   0  0  0  0  0  0  0  0  0  0  0  0
   13.6964  -20.8382   31.0975 C   0  0  0  0  0  0  0  0  0  0  0  0
   14.6990  -20.7214   31.9278 N   0  0  0  0  0  0  0  0  0  0  0  0
   13.8693  -20.2396   29.8180 N   0  0  0  0  0  0  0  0  0  0  0  0
   12.7488  -20.0945   28.9057 C   0  0  0  0  0  0  0  0  0  0  0  0
   13.0816  -19.3235   27.6845 C   0  0  0  0  0  0  0  0  0  0  0  0
   12.0024  -19.0973   26.6994 C   0  0  0  0  0  0  0  0  0  0  0  0
   12.2790  -18.1480   25.5893 C   0  0  2  0  0  0  0  0  0  0  0  0
   11.1873  -18.1111   24.6170 N   0  0  0  0  0  0  0  0  0  0  0  0
   13.5381  -18.3263   24.8706 C   0  0  0  0  0  0  0  0  0  0  0  0
   13.5926  -18.9406   23.7605 O   0  0  0  0  0  0  0  0  0  0  0  0
   14.7270  -17.8273   25.3765 O   0  0  0  0  0  0  0  0  0  0  0  0
  2  3  1  6
  2  1  1  0
  4  2  1  0
  5  6  1  1
  5  4  1  0
  7  5  1  0
  8  7  2  0
  9 10  1  0
 11 10  1  6
 11 12  1  0
 12  7  1  0
 13 11  1  0
 13 14  2  0
 16 17  2  0
 16 15  1  0
 18 16  1  0
 19 18  1  0
 20 19  1  0
 21 20  1  0
 22 21  1  1
 23 22  1  0
 23 13  1  0
 24 22  1  0
 25 24  2  0
 26 24  1  0
M  END
$$$$
