LSR.pdb
     RDKit          3D

 26 25  0  0  1  0  0  0  0  0999 V2000
    2.2699  -19.8896   21.1016 C   0  0  0  0  0  0  0  0  0  0  0  0
    3.1454  -18.9277   20.3655 C   0  0  1  0  0  0  0  0  0  0  0  0
    2.4076  -17.5979   20.2500 C   0  0  0  0  0  0  0  0  0  0  0  0
    4.5072  -18.7354   20.9985 C   0  0  0  0  0  0  0  0  0  0  0  0
    5.2810  -17.7459   20.1593 C   0  0  2  0  0  0  0  0  0  0  0  0
    5.5200  -18.2979   18.8431 N   0  0  0  0  0  0  0  0  0  0  0  0
    6.5595  -17.3589   20.7543 C   0  0  0  0  0  0  0  0  0  0  0  0
    7.5872  -18.0129   20.5128 O   0  0  0  0  0  0  0  0  0  0  0  0
    6.8960  -14.3744   23.8583 O   0  0  0  0  0  0  0  0  0  0  0  0
    7.8924  -14.4798   22.9002 C   0  0  0  0  0  0  0  0  0  0  0  0
    7.9341  -15.8376   22.2518 C   0  0  2  0  0  0  0  0  0  0  0  0
    6.7175  -16.2334   21.6315 N   0  0  0  0  0  0  0  0  0  0  0  0
    8.3167  -16.8230   23.2831 C   0  0  0  0  0  0  0  0  0  0  0  0
    7.4447  -17.2432   24.0864 O   0  0  0  0  0  0  0  0  0  0  0  0
   12.9578  -22.9199   21.7025 N   0  0  0  0  0  0  0  0  0  0  0  0
   13.5287  -21.6950   22.1373 C   0  0  0  0  0  0  0  0  0  0  0  0
   14.3406  -21.0079   21.3776 N   0  0  0  0  0  0  0  0  0  0  0  0
   13.2534  -21.1434   23.4199 N   0  0  0  0  0  0  0  0  0  0  0  0
   12.1034  -21.5843   24.1893 C   0  0  0  0  0  0  0  0  0  0  0  0
   11.3244  -20.4673   24.7741 C   0  0  0  0  0  0  0  0  0  0  0  0
   10.8672  -19.3970   23.8621 C   0  0  0  0  0  0  0  0  0  0  0  0
   10.0018  -18.3335   24.4367 C   0  0  2  0  0  0  0  0  0  0  0  0
    9.6207  -17.3386   23.4351 N   0  0  0  0  0  0  0  0  0  0  0  0
   10.5112  -17.6375   25.6156 C   0  0  0  0  0  0  0  0  0  0  0  0
   11.1435  -16.5401   25.5222 O   0  0  0  0  0  0  0  0  0  0  0  0
   10.3211  -18.1518   26.8874 O   0  0  0  0  0  0  0  0  0  0  0  0
  2  3  1  1
  2  1  1  0
  4  2  1  0
  5  6  1  6
  5  4  1  0
  7  5  1  0
  8  7  2  0
  9 10  1  0
 11 10  1  1
 11 12  1  0
 12  7  1  0
 13 11  1  0
 13 14  2  0
 16 17  2  0
 16 15  1  0
 18 16  1  0
 19 18  1  0
 20 19  1  0
 21 20  1  0
 22 21  1  6
 23 22  1  0
 23 13  1  0
 24 22  1  0
 25 24  2  0
 26 24  1  0
M  END
$$$$
