LSR.pdb
     RDKit          3D

 26 25  0  0  1  0  0  0  0  0999 V2000
    3.9293  -19.3288   20.0493 C   0  0  0  0  0  0  0  0  0  0  0  0
    4.6124  -18.0269   19.7809 C   0  0  1  0  0  0  0  0  0  0  0  0
    3.5485  -16.9397   19.6705 C   0  0  0  0  0  0  0  0  0  0  0  0
    5.6531  -17.6593   20.8172 C   0  0  0  0  0  0  0  0  0  0  0  0
    6.3182  -16.3748   20.3814 C   0  0  2  0  0  0  0  0  0  0  0  0
    6.7618  -16.4914   19.0089 N   0  0  0  0  0  0  0  0  0  0  0  0
    7.4554  -15.9994   21.2206 C   0  0  0  0  0  0  0  0  0  0  0  0
    8.6137  -16.2746   20.8671 O   0  0  0  0  0  0  0  0  0  0  0  0
    6.8994  -14.6496   25.2237 O   0  0  0  0  0  0  0  0  0  0  0  0
    8.0008  -14.1569   24.5410 C   0  0  0  0  0  0  0  0  0  0  0  0
    8.3888  -15.0154   23.3670 C   0  0  2  0  0  0  0  0  0  0  0  0
    7.3234  -15.3089   22.4724 N   0  0  0  0  0  0  0  0  0  0  0  0
    8.9655  -16.2698   23.8912 C   0  0  0  0  0  0  0  0  0  0  0  0
    8.2467  -17.3005   23.9494 O   0  0  0  0  0  0  0  0  0  0  0  0
   15.9671  -21.2499   22.7392 N   0  0  0  0  0  0  0  0  0  0  0  0
   15.5832  -19.9736   22.2501 C   0  0  0  0  0  0  0  0  0  0  0  0
   16.3719  -19.2657   21.4853 N   0  0  0  0  0  0  0  0  0  0  0  0
   14.3229  -19.3904   22.5611 N   0  0  0  0  0  0  0  0  0  0  0  0
   13.2218  -20.2070   23.0399 C   0  0  0  0  0  0  0  0  0  0  0  0
   12.4170  -19.5478   24.0955 C   0  0  0  0  0  0  0  0  0  0  0  0
   11.7324  -18.2838   23.7489 C   0  0  0  0  0  0  0  0  0  0  0  0
   10.8937  -17.6508   24.8005 C   0  0  2  0  0  0  0  0  0  0  0  0
   10.2958  -16.3976   24.3418 N   0  0  0  0  0  0  0  0  0  0  0  0
   11.5281  -17.4187   26.0957 C   0  0  0  0  0  0  0  0  0  0  0  0
   12.0291  -18.3682   26.7739 O   0  0  0  0  0  0  0  0  0  0  0  0
   11.6081  -16.1454   26.6347 O   0  0  0  0  0  0  0  0  0  0  0  0
  2  3  1  1
  2  1  1  0
  4  2  1  0
  5  6  1  6
  5  4  1  0
  7  5  1  0
  8  7  2  0
  9 10  1  0
 11 10  1  1
 11 12  1  0
 12  7  1  0
 13 11  1  0
 13 14  2  0
 16 17  2  0
 16 15  1  0
 18 16  1  0
 19 18  1  0
 20 19  1  0
 21 20  1  0
 22 21  1  6
 23 22  1  0
 23 13  1  0
 24 22  1  0
 25 24  2  0
 26 24  1  0
M  END
$$$$
