LSR.pdb
     RDKit          3D

 26 25  0  0  1  0  0  0  0  0999 V2000
    8.0856  -17.3266   13.8089 C   0  0  0  0  0  0  0  0  0  0  0  0
    9.2434  -16.9233   14.6634 C   0  0  1  0  0  0  0  0  0  0  0  0
    9.2188  -15.4066   14.8214 C   0  0  0  0  0  0  0  0  0  0  0  0
    9.2710  -17.6056   16.0146 C   0  0  0  0  0  0  0  0  0  0  0  0
   10.4707  -17.0933   16.7764 C   0  0  2  0  0  0  0  0  0  0  0  0
   11.6808  -17.3707   16.0328 N   0  0  0  0  0  0  0  0  0  0  0  0
   10.5918  -17.6658   18.1165 C   0  0  0  0  0  0  0  0  0  0  0  0
    9.6696  -17.5386   18.9385 O   0  0  0  0  0  0  0  0  0  0  0  0
   14.3688  -18.9021   19.6383 O   0  0  0  0  0  0  0  0  0  0  0  0
   13.2568  -19.5905   20.0983 C   0  0  0  0  0  0  0  0  0  0  0  0
   11.9763  -18.8240   19.9021 C   0  0  2  0  0  0  0  0  0  0  0  0
   11.7451  -18.3923   18.5672 N   0  0  0  0  0  0  0  0  0  0  0  0
   11.9989  -17.6599   20.8104 C   0  0  0  0  0  0  0  0  0  0  0  0
   12.3149  -16.5304   20.3557 O   0  0  0  0  0  0  0  0  0  0  0  0
    6.2058  -12.9032   20.6639 N   0  0  0  0  0  0  0  0  0  0  0  0
    7.5876  -12.8554   20.3419 C   0  0  0  0  0  0  0  0  0  0  0  0
    8.0309  -12.1739   19.3185 N   0  0  0  0  0  0  0  0  0  0  0  0
    8.5691  -13.5428   21.1096 N   0  0  0  0  0  0  0  0  0  0  0  0
    8.2272  -14.1510   22.3832 C   0  0  0  0  0  0  0  0  0  0  0  0
    9.3726  -14.8260   23.0382 C   0  0  0  0  0  0  0  0  0  0  0  0
   10.0147  -15.9454   22.3165 C   0  0  0  0  0  0  0  0  0  0  0  0
   11.1799  -16.5993   22.9683 C   0  0  2  0  0  0  0  0  0  0  0  0
   11.6839  -17.7256   22.1836 N   0  0  0  0  0  0  0  0  0  0  0  0
   10.9996  -17.0369   24.3503 C   0  0  0  0  0  0  0  0  0  0  0  0
   11.0038  -18.2665   24.6676 O   0  0  0  0  0  0  0  0  0  0  0  0
   10.8173  -16.1203   25.3725 O   0  0  0  0  0  0  0  0  0  0  0  0
  2  3  1  1
  2  1  1  0
  4  2  1  0
  5  6  1  6
  5  4  1  0
  7  5  1  0
  8  7  2  0
  9 10  1  0
 11 10  1  6
 11 12  1  0
 12  7  1  0
 13 11  1  0
 13 14  2  0
 16 17  2  0
 16 15  1  0
 18 16  1  0
 19 18  1  0
 20 19  1  0
 21 20  1  0
 22 21  1  6
 23 22  1  0
 23 13  1  0
 24 22  1  0
 25 24  2  0
 26 24  1  0
M  END
$$$$
