LSR.pdb
     RDKit          3D

 26 25  0  0  1  0  0  0  0  0999 V2000
    7.1468  -12.0420   19.3345 C   0  0  0  0  0  0  0  0  0  0  0  0
    8.0406  -13.2391   19.2936 C   0  0  1  0  0  0  0  0  0  0  0  0
    9.4737  -12.7773   19.5364 C   0  0  0  0  0  0  0  0  0  0  0  0
    7.6508  -14.3249   20.2740 C   0  0  0  0  0  0  0  0  0  0  0  0
    8.6063  -15.4819   20.0996 C   0  0  2  0  0  0  0  0  0  0  0  0
    8.1773  -16.3122   18.9947 N   0  0  0  0  0  0  0  0  0  0  0  0
    8.7354  -16.3104   21.2977 C   0  0  0  0  0  0  0  0  0  0  0  0
    7.7896  -17.0224   21.6727 O   0  0  0  0  0  0  0  0  0  0  0  0
   12.4709  -17.2769   22.9256 O   0  0  0  0  0  0  0  0  0  0  0  0
   11.3393  -17.9919   23.2860 C   0  0  0  0  0  0  0  0  0  0  0  0
   10.0913  -17.1503   23.2731 C   0  0  2  0  0  0  0  0  0  0  0  0
    9.9233  -16.3613   22.1023 N   0  0  0  0  0  0  0  0  0  0  0  0
   10.1163  -16.2808   24.4664 C   0  0  0  0  0  0  0  0  0  0  0  0
   11.1640  -15.6406   24.7397 O   0  0  0  0  0  0  0  0  0  0  0  0
    5.7685  -21.4614   24.7806 N   0  0  0  0  0  0  0  0  0  0  0  0
    6.8343  -21.9799   25.5622 C   0  0  0  0  0  0  0  0  0  0  0  0
    7.4520  -23.0841   25.2345 N   0  0  0  0  0  0  0  0  0  0  0  0
    7.2926  -21.3323   26.7437 N   0  0  0  0  0  0  0  0  0  0  0  0
    6.6916  -20.0891   27.1928 C   0  0  0  0  0  0  0  0  0  0  0  0
    7.6772  -19.0024   27.4032 C   0  0  0  0  0  0  0  0  0  0  0  0
    7.7960  -17.9695   26.3518 C   0  0  0  0  0  0  0  0  0  0  0  0
    8.8105  -16.9019   26.5548 C   0  0  2  0  0  0  0  0  0  0  0  0
    9.0235  -16.1129   25.3422 N   0  0  0  0  0  0  0  0  0  0  0  0
   10.1103  -17.3207   27.0734 C   0  0  0  0  0  0  0  0  0  0  0  0
   10.4587  -17.0855   28.2717 O   0  0  0  0  0  0  0  0  0  0  0  0
   11.0162  -17.9956   26.2721 O   0  0  0  0  0  0  0  0  0  0  0  0
  2  3  1  1
  2  1  1  0
  4  2  1  0
  5  6  1  6
  5  4  1  0
  7  5  1  0
  8  7  2  0
  9 10  1  0
 11 10  1  6
 11 12  1  0
 12  7  1  0
 13 11  1  0
 13 14  2  0
 16 17  2  0
 16 15  1  0
 18 16  1  0
 19 18  1  0
 20 19  1  0
 21 20  1  0
 22 21  1  6
 23 22  1  0
 23 13  1  0
 24 22  1  0
 25 24  2  0
 26 24  1  0
M  END
$$$$
