MYP.pdb
     RDKit          3D

 28 29  0  0  1  0  0  0  0  0999 V2000
    9.7470  -21.8865   21.9125 C   0  0  0  0  0  0  0  0  0  0  0  0
    9.7648  -22.3054   20.1683 S   0  0  0  0  0  0  0  0  0  0  0  0
    9.4809  -20.7989   19.1539 C   0  0  0  0  0  0  0  0  0  0  0  0
    9.8057  -19.6362   20.0301 C   0  0  0  0  0  0  0  0  0  0  0  0
    9.0439  -18.3824   19.7562 C   0  0  2  0  0  0  0  0  0  0  0  0
    9.5586  -17.8389   18.4990 N   0  0  0  0  0  0  0  0  0  0  0  0
    9.2018  -17.3433   20.7961 C   0  0  0  0  0  0  0  0  0  0  0  0
   10.3222  -16.7217   20.8611 O   0  0  0  0  0  0  0  0  0  0  0  0
    7.1656  -11.8569   27.4982 O   0  0  0  0  0  0  0  0  0  0  0  0
    7.1109  -12.7422   26.4093 C   0  0  0  0  0  0  0  0  0  0  0  0
    6.7301  -14.0608   26.5866 C   0  0  0  0  0  0  0  0  0  0  0  0
    6.6738  -14.9432   25.5120 C   0  0  0  0  0  0  0  0  0  0  0  0
    6.9930  -14.5438   24.2326 C   0  0  0  0  0  0  0  0  0  0  0  0
    6.9408  -15.4643   23.0749 C   0  0  0  0  0  0  0  0  0  0  0  0
    8.3094  -16.0619   22.7716 C   0  0  2  0  0  0  0  0  0  0  0  0
    8.1527  -17.0460   21.6878 N   0  0  0  0  0  0  0  0  0  0  0  0
    8.7387  -16.7969   23.9846 C   0  0  0  0  0  0  0  0  0  0  0  0
    8.1771  -17.9221   24.2263 O   0  0  0  0  0  0  0  0  0  0  0  0
    7.3685  -13.2266   24.0849 C   0  0  0  0  0  0  0  0  0  0  0  0
    7.4293  -12.3429   25.1346 C   0  0  0  0  0  0  0  0  0  0  0  0
    9.7223  -16.3662   24.9057 N   0  0  0  0  0  0  0  0  0  0  0  0
   10.1421  -14.9584   25.0354 C   0  0  0  0  0  0  0  0  0  0  0  0
   11.6412  -15.1025   25.1254 C   0  0  0  0  0  0  0  0  0  0  0  0
   11.9039  -16.4344   25.7752 C   0  0  0  0  0  0  0  0  0  0  0  0
   10.5059  -17.0407   25.9013 C   0  0  1  0  0  0  0  0  0  0  0  0
    9.9721  -16.8240   27.2834 C   0  0  0  0  0  0  0  0  0  0  0  0
   10.3927  -17.5700   28.3496 O   0  0  0  0  0  0  0  0  0  0  0  0
    9.1148  -15.9242   27.4362 O   0  0  0  0  0  0  0  0  0  0  0  0
  2  1  1  0
  3  4  1  0
  3  2  1  0
  5  6  1  6
  5  4  1  0
  7  5  1  0
  8  7  2  0
  9 10  1  0
 10 11  2  0
 10 20  1  0
 11 12  1  0
 12 13  2  0
 13 14  1  0
 15 14  1  1
 15 16  1  0
 16  7  1  0
 17 15  1  0
 17 21  1  0
 18 17  2  0
 19 13  1  0
 20 19  2  0
 21 22  1  0
 23 22  1  0
 24 23  1  0
 25 21  1  0
 25 24  1  0
 25 26  1  1
 26 27  1  0
 28 26  2  0
M  END
$$$$
