MYP.pdb
     RDKit          3D

 28 29  0  0  1  0  0  0  0  0999 V2000
    2.3030  -19.3067   20.9883 C   0  0  0  0  0  0  0  0  0  0  0  0
    3.9269  -19.9021   21.4645 S   0  0  0  0  0  0  0  0  0  0  0  0
    4.4812  -19.0630   23.0031 C   0  0  0  0  0  0  0  0  0  0  0  0
    5.8749  -19.5303   23.2567 C   0  0  0  0  0  0  0  0  0  0  0  0
    6.5635  -18.9165   24.4301 C   0  0  2  0  0  0  0  0  0  0  0  0
    5.7498  -19.2216   25.6072 N   0  0  0  0  0  0  0  0  0  0  0  0
    6.7021  -17.4469   24.3449 C   0  0  0  0  0  0  0  0  0  0  0  0
    5.6931  -16.7268   24.6752 O   0  0  0  0  0  0  0  0  0  0  0  0
    9.2169  -14.6369   29.6753 O   0  0  0  0  0  0  0  0  0  0  0  0
    9.2190  -14.6811   28.2717 C   0  0  0  0  0  0  0  0  0  0  0  0
    9.9540  -15.6379   27.5939 C   0  0  0  0  0  0  0  0  0  0  0  0
    9.9605  -15.6872   26.2032 C   0  0  0  0  0  0  0  0  0  0  0  0
    9.2393  -14.7903   25.4458 C   0  0  0  0  0  0  0  0  0  0  0  0
    9.2313  -14.8232   23.9662 C   0  0  0  0  0  0  0  0  0  0  0  0
    7.9608  -15.4688   23.4265 C   0  0  2  0  0  0  0  0  0  0  0  0
    7.9063  -16.8570   23.9139 N   0  0  0  0  0  0  0  0  0  0  0  0
    8.0935  -15.5176   21.9514 C   0  0  0  0  0  0  0  0  0  0  0  0
    8.0889  -16.6700   21.3931 O   0  0  0  0  0  0  0  0  0  0  0  0
    8.5170  -13.8491   26.1458 C   0  0  0  0  0  0  0  0  0  0  0  0
    8.4997  -13.7865   27.5178 C   0  0  0  0  0  0  0  0  0  0  0  0
    8.2233  -14.3975   21.0970 N   0  0  0  0  0  0  0  0  0  0  0  0
    8.3458  -13.0148   21.5952 C   0  0  0  0  0  0  0  0  0  0  0  0
    7.4113  -12.2803   20.6661 C   0  0  0  0  0  0  0  0  0  0  0  0
    7.4341  -13.0269   19.3595 C   0  0  0  0  0  0  0  0  0  0  0  0
    8.3020  -14.2463   19.6717 C   0  0  1  0  0  0  0  0  0  0  0  0
    9.7056  -14.0142   19.2045 C   0  0  0  0  0  0  0  0  0  0  0  0
   10.1053  -14.3108   17.9308 O   0  0  0  0  0  0  0  0  0  0  0  0
   10.5157  -13.5322   20.0288 O   0  0  0  0  0  0  0  0  0  0  0  0
  2  1  1  0
  3  4  1  0
  3  2  1  0
  5  6  1  1
  5  4  1  0
  7  5  1  0
  8  7  2  0
  9 10  1  0
 10 11  2  0
 10 20  1  0
 11 12  1  0
 12 13  2  0
 13 14  1  0
 15 14  1  1
 15 16  1  0
 16  7  1  0
 17 15  1  0
 17 21  1  0
 18 17  2  0
 19 13  1  0
 20 19  2  0
 21 22  1  0
 23 22  1  0
 24 23  1  0
 25 21  1  0
 25 24  1  0
 25 26  1  1
 26 27  1  0
 28 26  2  0
M  END
$$$$
