MYP.pdb
     RDKit          3D

 28 29  0  0  1  0  0  0  0  0999 V2000
    8.0706  -19.7153   20.8748 C   0  0  0  0  0  0  0  0  0  0  0  0
    6.9129  -20.3996   19.6876 S   0  0  0  0  0  0  0  0  0  0  0  0
    5.1935  -19.9346   20.1419 C   0  0  0  0  0  0  0  0  0  0  0  0
    5.0172  -20.3248   21.5708 C   0  0  0  0  0  0  0  0  0  0  0  0
    4.1311  -19.4395   22.3823 C   0  0  2  0  0  0  0  0  0  0  0  0
    2.9279  -19.1978   21.5857 N   0  0  0  0  0  0  0  0  0  0  0  0
    4.7284  -18.1269   22.7086 C   0  0  0  0  0  0  0  0  0  0  0  0
    4.4994  -17.1467   21.9133 O   0  0  0  0  0  0  0  0  0  0  0  0
    8.4324  -11.5484   27.3370 O   0  0  0  0  0  0  0  0  0  0  0  0
    7.9482  -12.8015   26.9278 C   0  0  0  0  0  0  0  0  0  0  0  0
    6.5894  -13.0274   26.7954 C   0  0  0  0  0  0  0  0  0  0  0  0
    6.1029  -14.2667   26.3904 C   0  0  0  0  0  0  0  0  0  0  0  0
    6.9489  -15.3161   26.1056 C   0  0  0  0  0  0  0  0  0  0  0  0
    6.4547  -16.6426   25.6737 C   0  0  0  0  0  0  0  0  0  0  0  0
    6.1685  -16.6744   24.1773 C   0  0  2  0  0  0  0  0  0  0  0  0
    5.5247  -17.9594   23.8583 N   0  0  0  0  0  0  0  0  0  0  0  0
    7.4788  -16.6467   23.4858 C   0  0  0  0  0  0  0  0  0  0  0  0
    8.1354  -17.7438   23.4148 O   0  0  0  0  0  0  0  0  0  0  0  0
    8.2960  -15.0638   26.2456 C   0  0  0  0  0  0  0  0  0  0  0  0
    8.7925  -13.8468   26.6442 C   0  0  0  0  0  0  0  0  0  0  0  0
    8.0738  -15.5098   22.8901 N   0  0  0  0  0  0  0  0  0  0  0  0
    7.6708  -14.1282   23.2125 C   0  0  0  0  0  0  0  0  0  0  0  0
    7.6192  -13.5056   21.8393 C   0  0  0  0  0  0  0  0  0  0  0  0
    8.6409  -14.2289   21.0038 C   0  0  0  0  0  0  0  0  0  0  0  0
    9.1338  -15.3342   21.9383 C   0  0  1  0  0  0  0  0  0  0  0  0
   10.4174  -14.9238   22.5911 C   0  0  0  0  0  0  0  0  0  0  0  0
   11.6082  -14.9288   21.9186 O   0  0  0  0  0  0  0  0  0  0  0  0
   10.3669  -14.5698   23.7912 O   0  0  0  0  0  0  0  0  0  0  0  0
  2  1  1  0
  3  4  1  0
  3  2  1  0
  5  6  1  6
  5  4  1  0
  7  5  1  0
  8  7  2  0
  9 10  1  0
 10 11  2  0
 10 20  1  0
 11 12  1  0
 12 13  2  0
 13 14  1  0
 15 14  1  1
 15 16  1  0
 16  7  1  0
 17 15  1  0
 17 21  1  0
 18 17  2  0
 19 13  1  0
 20 19  2  0
 21 22  1  0
 23 22  1  0
 24 23  1  0
 25 21  1  0
 25 24  1  0
 25 26  1  1
 26 27  1  0
 28 26  2  0
M  END
$$$$
