MYP.pdb
     RDKit          3D

 28 29  0  0  1  0  0  0  0  0999 V2000
   14.2045  -21.7585   20.2673 C   0  0  0  0  0  0  0  0  0  0  0  0
   13.0963  -20.8166   21.3174 S   0  0  0  0  0  0  0  0  0  0  0  0
   12.6500  -19.2304   20.5028 C   0  0  0  0  0  0  0  0  0  0  0  0
   11.7044  -18.5371   21.4248 C   0  0  0  0  0  0  0  0  0  0  0  0
   11.1598  -17.2350   20.9395 C   0  0  2  0  0  0  0  0  0  0  0  0
   12.1929  -16.6295   20.0988 N   0  0  0  0  0  0  0  0  0  0  0  0
   10.8376  -16.2779   22.0194 C   0  0  0  0  0  0  0  0  0  0  0  0
   11.7283  -15.4132   22.3433 O   0  0  0  0  0  0  0  0  0  0  0  0
    6.2395  -11.2063   27.6112 O   0  0  0  0  0  0  0  0  0  0  0  0
    6.6267  -12.1207   26.6181 C   0  0  0  0  0  0  0  0  0  0  0  0
    7.2300  -11.6860   25.4511 C   0  0  0  0  0  0  0  0  0  0  0  0
    7.6161  -12.5867   24.4630 C   0  0  0  0  0  0  0  0  0  0  0  0
    7.4153  -13.9424   24.6038 C   0  0  0  0  0  0  0  0  0  0  0  0
    7.8171  -14.9188   23.5667 C   0  0  0  0  0  0  0  0  0  0  0  0
    9.2547  -15.3848   23.7623 C   0  0  2  0  0  0  0  0  0  0  0  0
    9.5899  -16.3156   22.6720 N   0  0  0  0  0  0  0  0  0  0  0  0
    9.2924  -16.1499   25.0309 C   0  0  0  0  0  0  0  0  0  0  0  0
    8.9741  -17.3894   24.9858 O   0  0  0  0  0  0  0  0  0  0  0  0
    6.8130  -14.3474   25.7747 C   0  0  0  0  0  0  0  0  0  0  0  0
    6.4260  -13.4718   26.7597 C   0  0  0  0  0  0  0  0  0  0  0  0
    9.6533  -15.6315   26.2968 N   0  0  0  0  0  0  0  0  0  0  0  0
    9.2620  -14.2862   26.7571 C   0  0  0  0  0  0  0  0  0  0  0  0
   10.5503  -13.7955   27.3701 C   0  0  0  0  0  0  0  0  0  0  0  0
   11.2677  -15.0131   27.8878 C   0  0  0  0  0  0  0  0  0  0  0  0
   10.3834  -16.1658   27.4112 C   0  0  1  0  0  0  0  0  0  0  0  0
    9.4789  -16.6139   28.5172 C   0  0  0  0  0  0  0  0  0  0  0  0
    9.9488  -17.2821   29.6139 O   0  0  0  0  0  0  0  0  0  0  0  0
    8.2591  -16.3539   28.4059 O   0  0  0  0  0  0  0  0  0  0  0  0
  2  1  1  0
  3  4  1  0
  3  2  1  0
  5  6  1  6
  5  4  1  0
  7  5  1  0
  8  7  2  0
  9 10  1  0
 10 11  2  0
 10 20  1  0
 11 12  1  0
 12 13  2  0
 13 14  1  0
 15 14  1  6
 15 16  1  0
 16  7  1  0
 17 15  1  0
 17 21  1  0
 18 17  2  0
 19 13  1  0
 20 19  2  0
 21 22  1  0
 23 22  1  0
 24 23  1  0
 25 21  1  0
 25 24  1  0
 25 26  1  1
 26 27  1  0
 28 26  2  0
M  END
$$$$
