MYP.pdb
     RDKit          3D

 28 29  0  0  1  0  0  0  0  0999 V2000
    7.9612  -23.6278   22.5056 C   0  0  0  0  0  0  0  0  0  0  0  0
    7.7595  -23.3208   20.7497 S   0  0  0  0  0  0  0  0  0  0  0  0
    6.5774  -21.9388   20.4818 C   0  0  0  0  0  0  0  0  0  0  0  0
    6.9146  -20.8965   21.4942 C   0  0  0  0  0  0  0  0  0  0  0  0
    5.9202  -19.7943   21.6491 C   0  0  2  0  0  0  0  0  0  0  0  0
    5.3004  -19.5945   20.3388 N   0  0  0  0  0  0  0  0  0  0  0  0
    6.5111  -18.5062   22.0707 C   0  0  0  0  0  0  0  0  0  0  0  0
    7.1692  -17.8319   21.2002 O   0  0  0  0  0  0  0  0  0  0  0  0
    8.2856  -11.4053   27.1335 O   0  0  0  0  0  0  0  0  0  0  0  0
    7.7938  -12.6282   26.6489 C   0  0  0  0  0  0  0  0  0  0  0  0
    6.6097  -12.6828   25.9349 C   0  0  0  0  0  0  0  0  0  0  0  0
    6.1167  -13.8912   25.4519 C   0  0  0  0  0  0  0  0  0  0  0  0
    6.7831  -15.0786   25.6628 C   0  0  0  0  0  0  0  0  0  0  0  0
    6.2780  -16.3753   25.1592 C   0  0  0  0  0  0  0  0  0  0  0  0
    6.9131  -16.7440   23.8239 C   0  0  2  0  0  0  0  0  0  0  0  0
    6.3551  -18.0351   23.3890 N   0  0  0  0  0  0  0  0  0  0  0  0
    8.3601  -16.9436   24.0738 C   0  0  0  0  0  0  0  0  0  0  0  0
    8.7098  -17.9807   24.7386 O   0  0  0  0  0  0  0  0  0  0  0  0
    7.9586  -14.9952   26.3762 C   0  0  0  0  0  0  0  0  0  0  0  0
    8.4589  -13.8110   26.8598 C   0  0  0  0  0  0  0  0  0  0  0  0
    9.3985  -16.0868   23.6391 N   0  0  0  0  0  0  0  0  0  0  0  0
    9.1983  -14.6502   23.3723 C   0  0  0  0  0  0  0  0  0  0  0  0
    9.9561  -14.4798   22.0789 C   0  0  0  0  0  0  0  0  0  0  0  0
   11.0716  -15.4900   22.1012 C   0  0  0  0  0  0  0  0  0  0  0  0
   10.7967  -16.2822   23.3797 C   0  0  1  0  0  0  0  0  0  0  0  0
   11.6552  -15.7741   24.4964 C   0  0  0  0  0  0  0  0  0  0  0  0
   12.9848  -16.0807   24.5874 O   0  0  0  0  0  0  0  0  0  0  0  0
   11.1101  -15.0478   25.3586 O   0  0  0  0  0  0  0  0  0  0  0  0
  2  1  1  0
  3  4  1  0
  3  2  1  0
  5  6  1  6
  5  4  1  0
  7  5  1  0
  8  7  2  0
  9 10  1  0
 10 11  2  0
 10 20  1  0
 11 12  1  0
 12 13  2  0
 13 14  1  0
 15 14  1  1
 15 16  1  0
 16  7  1  0
 17 15  1  0
 17 21  1  0
 18 17  2  0
 19 13  1  0
 20 19  2  0
 21 22  1  0
 23 22  1  0
 24 23  1  0
 25 21  1  0
 25 24  1  0
 25 26  1  1
 26 27  1  0
 28 26  2  0
M  END
$$$$
