MYP.pdb
     RDKit          3D

 28 29  0  0  1  0  0  0  0  0999 V2000
    6.9397  -22.3971   22.0881 C   0  0  0  0  0  0  0  0  0  0  0  0
    5.6064  -21.2191   21.8587 S   0  0  0  0  0  0  0  0  0  0  0  0
    5.5629  -20.0330   23.2623 C   0  0  0  0  0  0  0  0  0  0  0  0
    6.8925  -20.1271   23.9320 C   0  0  0  0  0  0  0  0  0  0  0  0
    7.0891  -19.2392   25.1155 C   0  0  2  0  0  0  0  0  0  0  0  0
    6.0258  -19.5598   26.0681 N   0  0  0  0  0  0  0  0  0  0  0  0
    6.9988  -17.7961   24.8062 C   0  0  0  0  0  0  0  0  0  0  0  0
    5.8536  -17.2279   24.9130 O   0  0  0  0  0  0  0  0  0  0  0  0
    9.9281  -14.5624   29.9611 O   0  0  0  0  0  0  0  0  0  0  0  0
    9.7785  -14.6570   28.5680 C   0  0  0  0  0  0  0  0  0  0  0  0
   10.3261  -15.7170   27.8669 C   0  0  0  0  0  0  0  0  0  0  0  0
   10.1817  -15.8168   26.4863 C   0  0  0  0  0  0  0  0  0  0  0  0
    9.4911  -14.8694   25.7626 C   0  0  0  0  0  0  0  0  0  0  0  0
    9.3249  -14.9544   24.2944 C   0  0  0  0  0  0  0  0  0  0  0  0
    8.0413  -15.6837   23.9167 C   0  0  2  0  0  0  0  0  0  0  0  0
    8.1368  -17.0687   24.4066 N   0  0  0  0  0  0  0  0  0  0  0  0
    7.9928  -15.7352   22.4365 C   0  0  0  0  0  0  0  0  0  0  0  0
    7.9143  -16.8884   21.8853 O   0  0  0  0  0  0  0  0  0  0  0  0
    8.9567  -13.8255   26.4854 C   0  0  0  0  0  0  0  0  0  0  0  0
    9.0899  -13.7121   27.8477 C   0  0  0  0  0  0  0  0  0  0  0  0
    8.0232  -14.6170   21.5703 N   0  0  0  0  0  0  0  0  0  0  0  0
    8.1461  -13.2286   22.0522 C   0  0  0  0  0  0  0  0  0  0  0  0
    7.1207  -12.5256   21.1974 C   0  0  0  0  0  0  0  0  0  0  0  0
    7.0610  -13.2789   19.8958 C   0  0  0  0  0  0  0  0  0  0  0  0
    7.9846  -14.4721   20.1428 C   0  0  1  0  0  0  0  0  0  0  0  0
    9.3398  -14.2041   19.5649 C   0  0  0  0  0  0  0  0  0  0  0  0
   10.4084  -13.8634   20.3473 O   0  0  0  0  0  0  0  0  0  0  0  0
    9.4673  -14.3030   18.3232 O   0  0  0  0  0  0  0  0  0  0  0  0
  2  1  1  0
  3  4  1  0
  3  2  1  0
  5  6  1  1
  5  4  1  0
  7  5  1  0
  8  7  2  0
  9 10  1  0
 10 11  2  0
 10 20  1  0
 11 12  1  0
 12 13  2  0
 13 14  1  0
 15 14  1  6
 15 16  1  0
 16  7  1  0
 17 15  1  0
 17 21  1  0
 18 17  2  0
 19 13  1  0
 20 19  2  0
 21 22  1  0
 23 22  1  0
 24 23  1  0
 25 21  1  0
 25 24  1  0
 25 26  1  1
 26 27  1  0
 28 26  2  0
M  END
$$$$
