MYP.pdb
     RDKit          3D

 28 29  0  0  1  0  0  0  0  0999 V2000
    8.3612  -19.8155   19.3422 C   0  0  0  0  0  0  0  0  0  0  0  0
    6.6210  -19.3805   19.3612 S   0  0  0  0  0  0  0  0  0  0  0  0
    6.4246  -17.5564   19.2463 C   0  0  0  0  0  0  0  0  0  0  0  0
    7.6003  -16.9632   19.9471 C   0  0  0  0  0  0  0  0  0  0  0  0
    7.4059  -15.5882   20.4939 C   0  0  2  0  0  0  0  0  0  0  0  0
    7.6966  -14.6537   19.4063 N   0  0  0  0  0  0  0  0  0  0  0  0
    8.3003  -15.2585   21.6242 C   0  0  0  0  0  0  0  0  0  0  0  0
    9.5324  -15.0121   21.3652 O   0  0  0  0  0  0  0  0  0  0  0  0
   10.9150  -14.8375   30.1393 O   0  0  0  0  0  0  0  0  0  0  0  0
   10.1715  -14.7840   28.9491 C   0  0  0  0  0  0  0  0  0  0  0  0
    9.4425  -15.8788   28.5192 C   0  0  0  0  0  0  0  0  0  0  0  0
    8.7036  -15.8325   27.3408 C   0  0  0  0  0  0  0  0  0  0  0  0
    8.6666  -14.7006   26.5561 C   0  0  0  0  0  0  0  0  0  0  0  0
    7.8885  -14.6283   25.2993 C   0  0  0  0  0  0  0  0  0  0  0  0
    8.7134  -15.0848   24.1021 C   0  0  2  0  0  0  0  0  0  0  0  0
    7.8127  -15.2166   22.9450 N   0  0  0  0  0  0  0  0  0  0  0  0
    9.2300  -16.4362   24.4230 C   0  0  0  0  0  0  0  0  0  0  0  0
    8.3786  -17.3869   24.5294 O   0  0  0  0  0  0  0  0  0  0  0  0
    9.4011  -13.6261   27.0075 C   0  0  0  0  0  0  0  0  0  0  0  0
   10.1354  -13.6552   28.1678 C   0  0  0  0  0  0  0  0  0  0  0  0
   10.5892  -16.7745   24.6216 N   0  0  0  0  0  0  0  0  0  0  0  0
   11.6445  -15.7690   24.8463 C   0  0  0  0  0  0  0  0  0  0  0  0
   12.7452  -16.2894   23.9553 C   0  0  0  0  0  0  0  0  0  0  0  0
   12.5876  -17.7856   23.9114 C   0  0  0  0  0  0  0  0  0  0  0  0
   11.2961  -18.0216   24.6951 C   0  0  1  0  0  0  0  0  0  0  0  0
   11.6123  -18.4100   26.1062 C   0  0  0  0  0  0  0  0  0  0  0  0
   11.3108  -17.6012   27.1669 O   0  0  0  0  0  0  0  0  0  0  0  0
   12.1702  -19.5160   26.2890 O   0  0  0  0  0  0  0  0  0  0  0  0
  2  1  1  0
  3  4  1  0
  3  2  1  0
  5  6  1  6
  5  4  1  0
  7  5  1  0
  8  7  2  0
  9 10  1  0
 10 11  2  0
 10 20  1  0
 11 12  1  0
 12 13  2  0
 13 14  1  0
 15 14  1  1
 15 16  1  0
 16  7  1  0
 17 15  1  0
 17 21  1  0
 18 17  2  0
 19 13  1  0
 20 19  2  0
 21 22  1  0
 23 22  1  0
 24 23  1  0
 25 21  1  0
 25 24  1  0
 25 26  1  1
 26 27  1  0
 28 26  2  0
M  END
$$$$
