MYP.pdb
     RDKit          3D

 28 29  0  0  1  0  0  0  0  0999 V2000
   12.3030  -21.1319   22.5058 C   0  0  0  0  0  0  0  0  0  0  0  0
   12.2719  -19.6832   21.4481 S   0  0  0  0  0  0  0  0  0  0  0  0
   10.7508  -18.7015   21.7662 C   0  0  0  0  0  0  0  0  0  0  0  0
   10.8205  -17.5160   20.8635 C   0  0  0  0  0  0  0  0  0  0  0  0
    9.7102  -16.5280   21.0003 C   0  0  2  0  0  0  0  0  0  0  0  0
    9.8393  -15.5874   19.8870 N   0  0  0  0  0  0  0  0  0  0  0  0
    9.7495  -15.7493   22.2566 C   0  0  0  0  0  0  0  0  0  0  0  0
   10.4542  -14.6776   22.2791 O   0  0  0  0  0  0  0  0  0  0  0  0
    5.6860  -10.3444   26.6182 O   0  0  0  0  0  0  0  0  0  0  0  0
    6.1894  -11.6174   26.3047 C   0  0  0  0  0  0  0  0  0  0  0  0
    7.5363  -11.8032   26.0476 C   0  0  0  0  0  0  0  0  0  0  0  0
    8.0417  -13.0619   25.7363 C   0  0  0  0  0  0  0  0  0  0  0  0
    7.2268  -14.1709   25.6714 C   0  0  0  0  0  0  0  0  0  0  0  0
    7.7416  -15.5189   25.3420 C   0  0  0  0  0  0  0  0  0  0  0  0
    9.1091  -15.4489   24.6733 C   0  0  2  0  0  0  0  0  0  0  0  0
    9.0341  -16.1729   23.3936 N   0  0  0  0  0  0  0  0  0  0  0  0
   10.0557  -16.1815   25.5470 C   0  0  0  0  0  0  0  0  0  0  0  0
   10.7299  -17.1356   25.0226 O   0  0  0  0  0  0  0  0  0  0  0  0
    5.8910  -13.9575   25.9317 C   0  0  0  0  0  0  0  0  0  0  0  0
    5.3761  -12.7221   26.2403 C   0  0  0  0  0  0  0  0  0  0  0  0
   10.2856  -15.9189   26.9179 N   0  0  0  0  0  0  0  0  0  0  0  0
    9.4314  -15.0238   27.7205 C   0  0  0  0  0  0  0  0  0  0  0  0
   10.4644  -14.2354   28.4868 C   0  0  0  0  0  0  0  0  0  0  0  0
   11.6481  -15.1468   28.6694 C   0  0  0  0  0  0  0  0  0  0  0  0
   11.2592  -16.3865   27.8634 C   0  0  1  0  0  0  0  0  0  0  0  0
   10.7046  -17.4397   28.7719 C   0  0  0  0  0  0  0  0  0  0  0  0
    9.3804  -17.7811   28.7646 O   0  0  0  0  0  0  0  0  0  0  0  0
   11.5030  -18.0080   29.5514 O   0  0  0  0  0  0  0  0  0  0  0  0
  2  1  1  0
  3  4  1  0
  3  2  1  0
  5  6  1  6
  5  4  1  0
  7  5  1  0
  8  7  2  0
  9 10  1  0
 10 11  2  0
 10 20  1  0
 11 12  1  0
 12 13  2  0
 13 14  1  0
 15 14  1  1
 15 16  1  0
 16  7  1  0
 17 15  1  0
 17 21  1  0
 18 17  2  0
 19 13  1  0
 20 19  2  0
 21 22  1  0
 23 22  1  0
 24 23  1  0
 25 21  1  0
 25 24  1  0
 25 26  1  1
 26 27  1  0
 28 26  2  0
M  END
$$$$
