MYP.pdb
     RDKit          3D

 28 29  0  0  1  0  0  0  0  0999 V2000
    8.3543  -21.2155   20.0196 C   0  0  0  0  0  0  0  0  0  0  0  0
    6.8508  -22.1516   19.7347 S   0  0  0  0  0  0  0  0  0  0  0  0
    5.5781  -21.6973   20.9808 C   0  0  0  0  0  0  0  0  0  0  0  0
    5.7845  -20.2512   21.2829 C   0  0  0  0  0  0  0  0  0  0  0  0
    4.9150  -19.6796   22.3528 C   0  0  2  0  0  0  0  0  0  0  0  0
    3.5443  -19.6985   21.8413 N   0  0  0  0  0  0  0  0  0  0  0  0
    5.2437  -18.2838   22.7132 C   0  0  0  0  0  0  0  0  0  0  0  0
    4.8220  -17.3479   21.9437 O   0  0  0  0  0  0  0  0  0  0  0  0
    7.7887  -11.1010   27.1645 O   0  0  0  0  0  0  0  0  0  0  0  0
    7.5025  -12.4256   26.7963 C   0  0  0  0  0  0  0  0  0  0  0  0
    8.5214  -13.3187   26.5147 C   0  0  0  0  0  0  0  0  0  0  0  0
    8.2448  -14.6327   26.1492 C   0  0  0  0  0  0  0  0  0  0  0  0
    6.9516  -15.0980   26.0526 C   0  0  0  0  0  0  0  0  0  0  0  0
    6.6334  -16.4906   25.6656 C   0  0  0  0  0  0  0  0  0  0  0  0
    6.4809  -16.6320   24.1559 C   0  0  2  0  0  0  0  0  0  0  0  0
    5.9973  -17.9922   23.8669 N   0  0  0  0  0  0  0  0  0  0  0  0
    7.8364  -16.5054   23.5707 C   0  0  0  0  0  0  0  0  0  0  0  0
    8.6209  -17.5129   23.6677 O   0  0  0  0  0  0  0  0  0  0  0  0
    5.9573  -14.1883   26.3383 C   0  0  0  0  0  0  0  0  0  0  0  0
    6.2131  -12.8883   26.7004 C   0  0  0  0  0  0  0  0  0  0  0  0
    8.3456  -15.3645   22.9071 N   0  0  0  0  0  0  0  0  0  0  0  0
    7.8753  -13.9946   23.1852 C   0  0  0  0  0  0  0  0  0  0  0  0
    7.7432  -13.4367   21.7897 C   0  0  0  0  0  0  0  0  0  0  0  0
    8.7765  -14.1382   20.9498 C   0  0  0  0  0  0  0  0  0  0  0  0
    9.3621  -15.1722   21.9119 C   0  0  1  0  0  0  0  0  0  0  0  0
   10.6410  -14.6628   22.5012 C   0  0  0  0  0  0  0  0  0  0  0  0
   11.8066  -14.6286   21.7869 O   0  0  0  0  0  0  0  0  0  0  0  0
   10.6105  -14.2623   23.6872 O   0  0  0  0  0  0  0  0  0  0  0  0
  2  1  1  0
  3  4  1  0
  3  2  1  0
  5  6  1  6
  5  4  1  0
  7  5  1  0
  8  7  2  0
  9 10  1  0
 10 11  2  0
 10 20  1  0
 11 12  1  0
 12 13  2  0
 13 14  1  0
 15 14  1  1
 15 16  1  0
 16  7  1  0
 17 15  1  0
 17 21  1  0
 18 17  2  0
 19 13  1  0
 20 19  2  0
 21 22  1  0
 23 22  1  0
 24 23  1  0
 25 21  1  0
 25 24  1  0
 25 26  1  1
 26 27  1  0
 28 26  2  0
M  END
$$$$
