MYP.pdb
     RDKit          3D

 28 29  0  0  1  0  0  0  0  0999 V2000
    8.9885  -12.1137   18.5021 C   0  0  0  0  0  0  0  0  0  0  0  0
    8.3446  -13.7150   18.0127 S   0  0  0  0  0  0  0  0  0  0  0  0
    8.6471  -14.9500   19.3400 C   0  0  0  0  0  0  0  0  0  0  0  0
   10.1250  -15.1411   19.4060 C   0  0  0  0  0  0  0  0  0  0  0  0
   10.6200  -16.0082   20.5153 C   0  0  2  0  0  0  0  0  0  0  0  0
    9.8611  -17.2574   20.4487 N   0  0  0  0  0  0  0  0  0  0  0  0
   10.4239  -15.4316   21.8627 C   0  0  0  0  0  0  0  0  0  0  0  0
   11.2798  -14.5721   22.2802 O   0  0  0  0  0  0  0  0  0  0  0  0
    6.1324  -11.5809   28.4367 O   0  0  0  0  0  0  0  0  0  0  0  0
    6.4756  -12.4146   27.3600 C   0  0  0  0  0  0  0  0  0  0  0  0
    6.9378  -11.8809   26.1699 C   0  0  0  0  0  0  0  0  0  0  0  0
    7.2796  -12.7013   25.0990 C   0  0  0  0  0  0  0  0  0  0  0  0
    7.1730  -14.0727   25.1777 C   0  0  0  0  0  0  0  0  0  0  0  0
    7.5301  -14.9649   24.0522 C   0  0  0  0  0  0  0  0  0  0  0  0
    9.0379  -15.1589   23.9472 C   0  0  2  0  0  0  0  0  0  0  0  0
    9.3298  -15.8157   22.6623 N   0  0  0  0  0  0  0  0  0  0  0  0
    9.4297  -16.0949   25.0272 C   0  0  0  0  0  0  0  0  0  0  0  0
    9.5724  -17.3297   24.7192 O   0  0  0  0  0  0  0  0  0  0  0  0
    6.7104  -14.5769   26.3734 C   0  0  0  0  0  0  0  0  0  0  0  0
    6.3689  -13.7814   27.4397 C   0  0  0  0  0  0  0  0  0  0  0  0
    9.6646  -15.7451   26.3777 N   0  0  0  0  0  0  0  0  0  0  0  0
    9.0143  -14.5971   27.0367 C   0  0  0  0  0  0  0  0  0  0  0  0
   10.1744  -13.9873   27.7841 C   0  0  0  0  0  0  0  0  0  0  0  0
   11.1051  -15.1198   28.1253 C   0  0  0  0  0  0  0  0  0  0  0  0
   10.4670  -16.3176   27.4211 C   0  0  1  0  0  0  0  0  0  0  0  0
    9.6492  -17.1116   28.3921 C   0  0  0  0  0  0  0  0  0  0  0  0
   10.2232  -17.8957   29.3543 O   0  0  0  0  0  0  0  0  0  0  0  0
    8.4031  -17.0347   28.2951 O   0  0  0  0  0  0  0  0  0  0  0  0
  2  1  1  0
  3  4  1  0
  3  2  1  0
  5  6  1  1
  5  4  1  0
  7  5  1  0
  8  7  2  0
  9 10  1  0
 10 11  2  0
 10 20  1  0
 11 12  1  0
 12 13  2  0
 13 14  1  0
 15 14  1  6
 15 16  1  0
 16  7  1  0
 17 15  1  0
 17 21  1  0
 18 17  2  0
 19 13  1  0
 20 19  2  0
 21 22  1  0
 23 22  1  0
 24 23  1  0
 25 21  1  0
 25 24  1  0
 25 26  1  1
 26 27  1  0
 28 26  2  0
M  END
$$$$
