MYP.pdb
     RDKit          3D

 28 29  0  0  1  0  0  0  0  0999 V2000
    7.6131  -12.8529   17.2846 C   0  0  0  0  0  0  0  0  0  0  0  0
    8.4060  -13.3254   18.8228 S   0  0  0  0  0  0  0  0  0  0  0  0
    8.8998  -15.0949   18.7613 C   0  0  0  0  0  0  0  0  0  0  0  0
    9.6233  -15.3728   20.0359 C   0  0  0  0  0  0  0  0  0  0  0  0
    8.8173  -16.0169   21.1143 C   0  0  2  0  0  0  0  0  0  0  0  0
    7.4196  -15.9718   20.6842 N   0  0  0  0  0  0  0  0  0  0  0  0
    8.9097  -15.3349   22.4230 C   0  0  0  0  0  0  0  0  0  0  0  0
    8.8916  -14.0522   22.4362 O   0  0  0  0  0  0  0  0  0  0  0  0
    5.2896  -10.5413   26.4956 O   0  0  0  0  0  0  0  0  0  0  0  0
    5.9204  -11.7802   26.2973 C   0  0  0  0  0  0  0  0  0  0  0  0
    5.2038  -12.9613   26.3787 C   0  0  0  0  0  0  0  0  0  0  0  0
    5.8226  -14.1924   26.1833 C   0  0  0  0  0  0  0  0  0  0  0  0
    7.1680  -14.2873   25.9019 C   0  0  0  0  0  0  0  0  0  0  0  0
    7.8476  -15.5849   25.6907 C   0  0  0  0  0  0  0  0  0  0  0  0
    9.1558  -15.4150   24.9277 C   0  0  2  0  0  0  0  0  0  0  0  0
    9.0144  -16.0728   23.6182 N   0  0  0  0  0  0  0  0  0  0  0  0
   10.1970  -16.1476   25.6862 C   0  0  0  0  0  0  0  0  0  0  0  0
   10.9032  -17.0044   25.0482 O   0  0  0  0  0  0  0  0  0  0  0  0
    7.8568  -13.0966   25.8266 C   0  0  0  0  0  0  0  0  0  0  0  0
    7.2614  -11.8736   26.0168 C   0  0  0  0  0  0  0  0  0  0  0  0
   10.4854  -15.9833   27.0614 N   0  0  0  0  0  0  0  0  0  0  0  0
    9.7521  -15.0449   27.9312 C   0  0  0  0  0  0  0  0  0  0  0  0
   10.8820  -14.4131   28.7061 C   0  0  0  0  0  0  0  0  0  0  0  0
   11.9634  -15.4547   28.8096 C   0  0  0  0  0  0  0  0  0  0  0  0
   11.4237  -16.6016   27.9545 C   0  0  1  0  0  0  0  0  0  0  0  0
   10.7788  -17.6352   28.8251 C   0  0  0  0  0  0  0  0  0  0  0  0
    9.4264  -17.8377   28.8319 O   0  0  0  0  0  0  0  0  0  0  0  0
   11.5275  -18.3200   29.5589 O   0  0  0  0  0  0  0  0  0  0  0  0
  2  1  1  0
  3  4  1  0
  3  2  1  0
  5  6  1  6
  5  4  1  0
  7  5  1  0
  8  7  2  0
  9 10  1  0
 10 11  2  0
 10 20  1  0
 11 12  1  0
 12 13  2  0
 13 14  1  0
 15 14  1  1
 15 16  1  0
 16  7  1  0
 17 15  1  0
 17 21  1  0
 18 17  2  0
 19 13  1  0
 20 19  2  0
 21 22  1  0
 23 22  1  0
 24 23  1  0
 25 21  1  0
 25 24  1  0
 25 26  1  1
 26 27  1  0
 28 26  2  0
M  END
$$$$
