MYP.pdb
     RDKit          3D

 28 29  0  0  1  0  0  0  0  0999 V2000
    9.9316  -20.8462   26.5457 C   0  0  0  0  0  0  0  0  0  0  0  0
   10.0330  -19.6149   25.2450 S   0  0  0  0  0  0  0  0  0  0  0  0
    8.8330  -20.0071   23.9090 C   0  0  0  0  0  0  0  0  0  0  0  0
    7.4777  -19.9331   24.5278 C   0  0  0  0  0  0  0  0  0  0  0  0
    7.2002  -18.7136   25.3423 C   0  0  2  0  0  0  0  0  0  0  0  0
    6.0678  -19.0327   26.2122 N   0  0  0  0  0  0  0  0  0  0  0  0
    6.8343  -17.5259   24.5414 C   0  0  0  0  0  0  0  0  0  0  0  0
    5.6785  -17.5075   23.9849 O   0  0  0  0  0  0  0  0  0  0  0  0
    5.6720  -11.9904   28.7028 O   0  0  0  0  0  0  0  0  0  0  0  0
    6.2875  -12.5065   27.5509 C   0  0  0  0  0  0  0  0  0  0  0  0
    7.5338  -13.1039   27.6206 C   0  0  0  0  0  0  0  0  0  0  0  0
    8.1494  -13.6174   26.4830 C   0  0  0  0  0  0  0  0  0  0  0  0
    7.5474  -13.5533   25.2454 C   0  0  0  0  0  0  0  0  0  0  0  0
    8.1827  -14.0920   24.0222 C   0  0  0  0  0  0  0  0  0  0  0  0
    7.4417  -15.3161   23.4980 C   0  0  2  0  0  0  0  0  0  0  0  0
    7.7289  -16.4478   24.3948 N   0  0  0  0  0  0  0  0  0  0  0  0
    8.0211  -15.6376   22.1725 C   0  0  0  0  0  0  0  0  0  0  0  0
    8.4003  -16.8434   21.9676 O   0  0  0  0  0  0  0  0  0  0  0  0
    6.3077  -12.9538   25.2049 C   0  0  0  0  0  0  0  0  0  0  0  0
    5.6864  -12.4421   26.3179 C   0  0  0  0  0  0  0  0  0  0  0  0
    8.1923  -14.7267   21.1038 N   0  0  0  0  0  0  0  0  0  0  0  0
    8.0320  -13.2684   21.2554 C   0  0  0  0  0  0  0  0  0  0  0  0
    7.2363  -12.9270   20.0198 C   0  0  0  0  0  0  0  0  0  0  0  0
    7.6331  -13.9263   18.9667 C   0  0  0  0  0  0  0  0  0  0  0  0
    8.5575  -14.8801   19.7241 C   0  0  1  0  0  0  0  0  0  0  0  0
    9.9889  -14.5183   19.4746 C   0  0  0  0  0  0  0  0  0  0  0  0
   10.6699  -14.9648   18.3760 O   0  0  0  0  0  0  0  0  0  0  0  0
   10.5530  -13.7822   20.3160 O   0  0  0  0  0  0  0  0  0  0  0  0
  2  1  1  0
  3  4  1  0
  3  2  1  0
  5  6  1  1
  5  4  1  0
  7  5  1  0
  8  7  2  0
  9 10  1  0
 10 11  2  0
 10 20  1  0
 11 12  1  0
 12 13  2  0
 13 14  1  0
 15 14  1  1
 15 16  1  0
 16  7  1  0
 17 15  1  0
 17 21  1  0
 18 17  2  0
 19 13  1  0
 20 19  2  0
 21 22  1  0
 23 22  1  0
 24 23  1  0
 25 21  1  0
 25 24  1  0
 25 26  1  1
 26 27  1  0
 28 26  2  0
M  END
$$$$
