QSM.pdb
     RDKit          3D

 24 23  0  0  1  0  0  0  0  0999 V2000
   10.8217  -12.7086   18.2769 N   0  0  0  0  0  0  0  0  0  0  0  0
    9.5259  -12.9327   17.6851 C   0  0  0  0  0  0  0  0  0  0  0  0
    9.5461  -13.3787   16.5269 O   0  0  0  0  0  0  0  0  0  0  0  0
    8.3014  -12.6382   18.4314 C   0  0  0  0  0  0  0  0  0  0  0  0
    8.0958  -13.5098   19.6245 C   0  0  0  0  0  0  0  0  0  0  0  0
    8.1226  -14.9791   19.3850 C   0  0  2  0  0  0  0  0  0  0  0  0
    7.1131  -15.5275   18.5565 N   0  0  0  0  0  0  0  0  0  0  0  0
    8.1685  -15.7451   20.6624 C   0  0  0  0  0  0  0  0  0  0  0  0
    7.0862  -15.7912   21.3380 O   0  0  0  0  0  0  0  0  0  0  0  0
   11.6042  -17.3813   22.6179 O   0  0  0  0  0  0  0  0  0  0  0  0
   10.3899  -18.0535   22.5367 C   0  0  0  0  0  0  0  0  0  0  0  0
    9.2293  -17.0788   22.4157 C   0  0  2  0  0  0  0  0  0  0  0  0
    9.3093  -16.4080   21.1615 N   0  0  0  0  0  0  0  0  0  0  0  0
    9.3444  -16.1445   23.5774 C   0  0  0  0  0  0  0  0  0  0  0  0
    9.6967  -14.9581   23.3652 O   0  0  0  0  0  0  0  0  0  0  0  0
    6.8063  -11.2838   27.9163 C   0  0  0  0  0  0  0  0  0  0  0  0
    7.1331  -12.3026   26.4758 S   0  0  0  0  0  0  0  0  0  0  0  0
    6.9855  -14.0495   26.8248 C   0  0  0  0  0  0  0  0  0  0  0  0
    7.4786  -14.9511   25.7602 C   0  0  0  0  0  0  0  0  0  0  0  0
    8.8149  -15.5472   25.9940 C   0  0  2  0  0  0  0  0  0  0  0  0
    9.0732  -16.5417   24.9019 N   0  0  0  0  0  0  0  0  0  0  0  0
    8.9332  -16.2781   27.2474 C   0  0  0  0  0  0  0  0  0  0  0  0
    8.6056  -17.4776   27.4489 O   0  0  0  0  0  0  0  0  0  0  0  0
    9.4681  -15.6049   28.3803 O   0  0  0  0  0  0  0  0  0  0  0  0
  2  1  1  0
  3  2  2  0
  4  2  1  0
  5  4  1  0
  6  5  1  0
  6  7  1  1
  8  9  2  0
  8  6  1  0
 10 11  1  0
 12 11  1  6
 12 13  1  0
 13  8  1  0
 14 12  1  0
 15 14  2  0
 17 16  1  0
 18 17  1  0
 19 18  1  0
 20 19  1  6
 20 22  1  0
 20 21  1  0
 21 14  1  0
 22 24  1  0
 23 22  2  0
M  END
$$$$
