QSM.pdb
     RDKit          3D

 24 23  0  0  1  0  0  0  0  0999 V2000
    2.4747  -20.6090   20.8109 N   0  0  0  0  0  0  0  0  0  0  0  0
    2.0833  -19.8483   19.6498 C   0  0  0  0  0  0  0  0  0  0  0  0
    1.0674  -20.2607   19.0681 O   0  0  0  0  0  0  0  0  0  0  0  0
    2.8595  -18.6831   19.2222 C   0  0  0  0  0  0  0  0  0  0  0  0
    3.9776  -18.3295   20.1445 C   0  0  0  0  0  0  0  0  0  0  0  0
    5.3454  -18.7278   19.7118 C   0  0  2  0  0  0  0  0  0  0  0  0
    5.4899  -19.9773   19.0606 N   0  0  0  0  0  0  0  0  0  0  0  0
    6.3226  -18.6518   20.8342 C   0  0  0  0  0  0  0  0  0  0  0  0
    6.1566  -19.4808   21.7909 O   0  0  0  0  0  0  0  0  0  0  0  0
   10.0062  -16.8315   20.6987 O   0  0  0  0  0  0  0  0  0  0  0  0
    9.6940  -17.8469   21.5956 C   0  0  0  0  0  0  0  0  0  0  0  0
    8.2455  -17.7539   22.0484 C   0  0  2  0  0  0  0  0  0  0  0  0
    7.3967  -17.7400   20.9044 N   0  0  0  0  0  0  0  0  0  0  0  0
    8.1399  -16.5023   22.8597 C   0  0  0  0  0  0  0  0  0  0  0  0
    7.8863  -15.4219   22.2723 O   0  0  0  0  0  0  0  0  0  0  0  0
    6.9652  -10.8354   26.9041 C   0  0  0  0  0  0  0  0  0  0  0  0
    7.0289  -12.1774   25.7146 S   0  0  0  0  0  0  0  0  0  0  0  0
    6.8996  -13.7841   26.4872 C   0  0  0  0  0  0  0  0  0  0  0  0
    7.0108  -14.9386   25.5684 C   0  0  0  0  0  0  0  0  0  0  0  0
    8.3683  -15.2067   25.0384 C   0  0  2  0  0  0  0  0  0  0  0  0
    8.3137  -16.4860   24.2580 N   0  0  0  0  0  0  0  0  0  0  0  0
    9.3841  -15.3975   26.0635 C   0  0  0  0  0  0  0  0  0  0  0  0
    9.6138  -16.4587   26.7022 O   0  0  0  0  0  0  0  0  0  0  0  0
   10.2209  -14.2996   26.4056 O   0  0  0  0  0  0  0  0  0  0  0  0
  2  1  1  0
  3  2  2  0
  4  2  1  0
  5  4  1  0
  6  5  1  0
  6  7  1  1
  8  9  2  0
  8  6  1  0
 10 11  1  0
 12 11  1  6
 12 13  1  0
 13  8  1  0
 14 12  1  0
 15 14  2  0
 17 16  1  0
 18 17  1  0
 19 18  1  0
 20 19  1  1
 20 22  1  0
 20 21  1  0
 21 14  1  0
 22 24  1  0
 23 22  2  0
M  END
$$$$
