QSM.pdb
     RDKit          3D

 24 23  0  0  1  0  0  0  0  0999 V2000
    8.4376  -12.7531   17.7427 N   0  0  0  0  0  0  0  0  0  0  0  0
    8.3767  -13.6764   16.6366 C   0  0  0  0  0  0  0  0  0  0  0  0
    8.3058  -13.1500   15.5148 O   0  0  0  0  0  0  0  0  0  0  0  0
    8.3963  -15.1220   16.8666 C   0  0  0  0  0  0  0  0  0  0  0  0
    8.4349  -15.5046   18.3080 C   0  0  0  0  0  0  0  0  0  0  0  0
    8.4164  -16.9629   18.6079 C   0  0  2  0  0  0  0  0  0  0  0  0
    7.6781  -17.8024   17.7382 N   0  0  0  0  0  0  0  0  0  0  0  0
    7.9955  -17.2317   20.0118 C   0  0  0  0  0  0  0  0  0  0  0  0
    6.7602  -17.0528   20.2802 O   0  0  0  0  0  0  0  0  0  0  0  0
   10.3619  -18.9161   22.9919 O   0  0  0  0  0  0  0  0  0  0  0  0
    8.9744  -18.9291   23.0778 C   0  0  0  0  0  0  0  0  0  0  0  0
    8.3691  -17.7228   22.3777 C   0  0  2  0  0  0  0  0  0  0  0  0
    8.8587  -17.6619   21.0413 N   0  0  0  0  0  0  0  0  0  0  0  0
    8.7587  -16.5287   23.1891 C   0  0  0  0  0  0  0  0  0  0  0  0
    9.8588  -15.9714   22.9532 O   0  0  0  0  0  0  0  0  0  0  0  0
    6.4229  -10.1434   27.0649 C   0  0  0  0  0  0  0  0  0  0  0  0
    5.9845  -11.7153   26.3188 S   0  0  0  0  0  0  0  0  0  0  0  0
    7.3871  -12.8116   26.1576 C   0  0  0  0  0  0  0  0  0  0  0  0
    7.1690  -13.9956   25.2973 C   0  0  0  0  0  0  0  0  0  0  0  0
    8.3648  -14.8339   25.0464 C   0  0  2  0  0  0  0  0  0  0  0  0
    7.9404  -16.0029   24.2087 N   0  0  0  0  0  0  0  0  0  0  0  0
    8.9679  -15.3912   26.2485 C   0  0  0  0  0  0  0  0  0  0  0  0
    9.7045  -14.7819   27.0687 O   0  0  0  0  0  0  0  0  0  0  0  0
    8.7239  -16.7568   26.5623 O   0  0  0  0  0  0  0  0  0  0  0  0
  2  1  1  0
  3  2  2  0
  4  2  1  0
  5  4  1  0
  6  5  1  0
  6  7  1  6
  8  9  2  0
  8  6  1  0
 10 11  1  0
 12 11  1  1
 12 13  1  0
 13  8  1  0
 14 12  1  0
 15 14  2  0
 17 16  1  0
 18 17  1  0
 19 18  1  0
 20 19  1  1
 20 22  1  0
 20 21  1  0
 21 14  1  0
 22 24  1  0
 23 22  2  0
M  END
$$$$
