QSM.pdb
     RDKit          3D

 24 23  0  0  1  0  0  0  0  0999 V2000
    9.7456  -19.7895   15.9651 N   0  0  0  0  0  0  0  0  0  0  0  0
    9.8911  -20.6618   17.1042 C   0  0  0  0  0  0  0  0  0  0  0  0
    9.6377  -21.8573   16.8876 O   0  0  0  0  0  0  0  0  0  0  0  0
   10.3064  -20.1319   18.4042 C   0  0  0  0  0  0  0  0  0  0  0  0
   10.6085  -18.6710   18.3933 C   0  0  0  0  0  0  0  0  0  0  0  0
   11.1326  -18.0927   19.6613 C   0  0  2  0  0  0  0  0  0  0  0  0
   11.7123  -18.9827   20.5983 N   0  0  0  0  0  0  0  0  0  0  0  0
   10.1071  -17.2624   20.3537 C   0  0  0  0  0  0  0  0  0  0  0  0
   10.2534  -15.9963   20.2780 O   0  0  0  0  0  0  0  0  0  0  0  0
    7.0174  -18.6901   22.7857 O   0  0  0  0  0  0  0  0  0  0  0  0
    6.7542  -17.6574   21.8928 C   0  0  0  0  0  0  0  0  0  0  0  0
    8.0183  -16.8786   21.5652 C   0  0  2  0  0  0  0  0  0  0  0  0
    9.0081  -17.7771   21.0730 N   0  0  0  0  0  0  0  0  0  0  0  0
    8.4333  -16.2017   22.8323 C   0  0  0  0  0  0  0  0  0  0  0  0
    9.5239  -16.5284   23.3619 O   0  0  0  0  0  0  0  0  0  0  0  0
    6.5860  -10.4927   28.1091 C   0  0  0  0  0  0  0  0  0  0  0  0
    6.1631  -11.4211   26.6330 S   0  0  0  0  0  0  0  0  0  0  0  0
    7.3247  -12.7373   26.2956 C   0  0  0  0  0  0  0  0  0  0  0  0
    7.1092  -13.4602   25.0226 C   0  0  0  0  0  0  0  0  0  0  0  0
    8.0753  -14.5452   24.7310 C   0  0  2  0  0  0  0  0  0  0  0  0
    7.6493  -15.2112   23.4568 N   0  0  0  0  0  0  0  0  0  0  0  0
    8.1229  -15.5918   25.7419 C   0  0  0  0  0  0  0  0  0  0  0  0
    7.3283  -16.5628   25.8528 O   0  0  0  0  0  0  0  0  0  0  0  0
    9.1554  -15.5482   26.7189 O   0  0  0  0  0  0  0  0  0  0  0  0
  2  1  1  0
  3  2  2  0
  4  2  1  0
  5  4  1  0
  6  5  1  0
  6  7  1  1
  8  9  2  0
  8  6  1  0
 10 11  1  0
 12 11  1  1
 12 13  1  0
 13  8  1  0
 14 12  1  0
 15 14  2  0
 17 16  1  0
 18 17  1  0
 19 18  1  0
 20 19  1  1
 20 22  1  0
 20 21  1  0
 21 14  1  0
 22 24  1  0
 23 22  2  0
M  END
$$$$
