QSM.pdb
     RDKit          3D

 24 23  0  0  1  0  0  0  0  0999 V2000
    9.4128  -14.3799   15.6565 N   0  0  0  0  0  0  0  0  0  0  0  0
    7.9999  -14.5386   15.8984 C   0  0  0  0  0  0  0  0  0  0  0  0
    7.3947  -15.2196   15.0555 O   0  0  0  0  0  0  0  0  0  0  0  0
    7.3664  -13.9205   17.0644 C   0  0  0  0  0  0  0  0  0  0  0  0
    8.2849  -13.0623   17.8679 C   0  0  0  0  0  0  0  0  0  0  0  0
    9.3315  -13.7685   18.6571 C   0  0  2  0  0  0  0  0  0  0  0  0
   10.2271  -14.6108   17.9538 N   0  0  0  0  0  0  0  0  0  0  0  0
    8.7437  -14.5306   19.7948 C   0  0  0  0  0  0  0  0  0  0  0  0
    7.7737  -13.9750   20.4117 O   0  0  0  0  0  0  0  0  0  0  0  0
   10.4375  -17.8878   21.6397 O   0  0  0  0  0  0  0  0  0  0  0  0
    9.0557  -17.8330   21.4963 C   0  0  0  0  0  0  0  0  0  0  0  0
    8.5733  -16.3971   21.3648 C   0  0  2  0  0  0  0  0  0  0  0  0
    9.1832  -15.8004   20.2240 N   0  0  0  0  0  0  0  0  0  0  0  0
    8.9444  -15.7122   22.6412 C   0  0  0  0  0  0  0  0  0  0  0  0
   10.0065  -15.0437   22.6807 O   0  0  0  0  0  0  0  0  0  0  0  0
    6.1662  -10.7608   27.7729 C   0  0  0  0  0  0  0  0  0  0  0  0
    5.8890  -12.0478   26.5537 S   0  0  0  0  0  0  0  0  0  0  0  0
    7.3261  -13.0828   26.3116 C   0  0  0  0  0  0  0  0  0  0  0  0
    7.2204  -14.0643   25.2094 C   0  0  0  0  0  0  0  0  0  0  0  0
    8.4093  -14.9239   25.0011 C   0  0  2  0  0  0  0  0  0  0  0  0
    8.1497  -15.7867   23.8025 N   0  0  0  0  0  0  0  0  0  0  0  0
    8.6919  -15.8317   26.1034 C   0  0  0  0  0  0  0  0  0  0  0  0
    8.2309  -16.9943   26.2535 O   0  0  0  0  0  0  0  0  0  0  0  0
    9.5724  -15.3991   27.1332 O   0  0  0  0  0  0  0  0  0  0  0  0
  2  1  1  0
  3  2  2  0
  4  2  1  0
  5  4  1  0
  6  5  1  0
  6  7  1  6
  8  9  2  0
  8  6  1  0
 10 11  1  0
 12 11  1  1
 12 13  1  0
 13  8  1  0
 14 12  1  0
 15 14  2  0
 17 16  1  0
 18 17  1  0
 19 18  1  0
 20 19  1  1
 20 22  1  0
 20 21  1  0
 21 14  1  0
 22 24  1  0
 23 22  2  0
M  END
$$$$
