QSM.pdb
     RDKit          3D

 24 23  0  0  1  0  0  0  0  0999 V2000
    8.0444  -12.6649   17.4974 N   0  0  0  0  0  0  0  0  0  0  0  0
    7.9717  -13.7601   16.5621 C   0  0  0  0  0  0  0  0  0  0  0  0
    7.5293  -13.4660   15.4403 O   0  0  0  0  0  0  0  0  0  0  0  0
    8.3962  -15.1060   16.9513 C   0  0  0  0  0  0  0  0  0  0  0  0
    8.9278  -15.1938   18.3425 C   0  0  0  0  0  0  0  0  0  0  0  0
    9.3228  -16.5486   18.8172 C   0  0  2  0  0  0  0  0  0  0  0  0
    9.0492  -17.6477   17.9667 N   0  0  0  0  0  0  0  0  0  0  0  0
    8.7764  -16.8388   20.1729 C   0  0  0  0  0  0  0  0  0  0  0  0
    7.5170  -16.6921   20.3226 O   0  0  0  0  0  0  0  0  0  0  0  0
   10.7692  -18.8112   23.1713 O   0  0  0  0  0  0  0  0  0  0  0  0
    9.3820  -18.7196   23.1745 C   0  0  0  0  0  0  0  0  0  0  0  0
    8.9158  -17.4167   22.5445 C   0  0  2  0  0  0  0  0  0  0  0  0
    9.5477  -17.2560   21.2779 N   0  0  0  0  0  0  0  0  0  0  0  0
    9.2755  -16.3327   23.5097 C   0  0  0  0  0  0  0  0  0  0  0  0
   10.4036  -15.7897   23.4145 O   0  0  0  0  0  0  0  0  0  0  0  0
    6.1591  -11.1482   25.1162 C   0  0  0  0  0  0  0  0  0  0  0  0
    6.6904  -11.5725   26.7768 S   0  0  0  0  0  0  0  0  0  0  0  0
    7.8477  -12.9347   26.7984 C   0  0  0  0  0  0  0  0  0  0  0  0
    7.7075  -13.9015   25.6870 C   0  0  0  0  0  0  0  0  0  0  0  0
    8.8102  -14.8816   25.5481 C   0  0  2  0  0  0  0  0  0  0  0  0
    8.3989  -15.8955   24.5227 N   0  0  0  0  0  0  0  0  0  0  0  0
    9.1049  -15.6271   26.7632 C   0  0  0  0  0  0  0  0  0  0  0  0
    9.8143  -15.2368   27.7281 O   0  0  0  0  0  0  0  0  0  0  0  0
    8.5547  -16.9300   26.9130 O   0  0  0  0  0  0  0  0  0  0  0  0
  2  1  1  0
  3  2  2  0
  4  2  1  0
  5  4  1  0
  6  5  1  0
  6  7  1  6
  8  9  2  0
  8  6  1  0
 10 11  1  0
 12 11  1  1
 12 13  1  0
 13  8  1  0
 14 12  1  0
 15 14  2  0
 17 16  1  0
 18 17  1  0
 19 18  1  0
 20 19  1  1
 20 22  1  0
 20 21  1  0
 21 14  1  0
 22 24  1  0
 23 22  2  0
M  END
$$$$
