QSM.pdb
     RDKit          3D

 24 23  0  0  1  0  0  0  0  0999 V2000
   11.0289  -13.1849   19.1579 N   0  0  0  0  0  0  0  0  0  0  0  0
    9.9074  -12.7359   18.3702 C   0  0  0  0  0  0  0  0  0  0  0  0
   10.1598  -12.5096   17.1761 O   0  0  0  0  0  0  0  0  0  0  0  0
    8.5856  -12.5693   18.9769 C   0  0  0  0  0  0  0  0  0  0  0  0
    8.3512  -13.4409   20.1648 C   0  0  0  0  0  0  0  0  0  0  0  0
    8.1215  -14.8865   19.8917 C   0  0  2  0  0  0  0  0  0  0  0  0
    6.9354  -15.2442   19.2050 N   0  0  0  0  0  0  0  0  0  0  0  0
    8.2276  -15.7055   21.1320 C   0  0  0  0  0  0  0  0  0  0  0  0
    7.3326  -15.5106   22.0214 O   0  0  0  0  0  0  0  0  0  0  0  0
   11.1535  -18.5917   21.8522 O   0  0  0  0  0  0  0  0  0  0  0  0
    9.8858  -18.7336   22.4049 C   0  0  0  0  0  0  0  0  0  0  0  0
    9.2208  -17.3816   22.6092 C   0  0  2  0  0  0  0  0  0  0  0  0
    9.2344  -16.6620   21.3798 N   0  0  0  0  0  0  0  0  0  0  0  0
    9.9941  -16.6935   23.6883 C   0  0  0  0  0  0  0  0  0  0  0  0
   10.9151  -15.9049   23.3619 O   0  0  0  0  0  0  0  0  0  0  0  0
    8.9853  -12.2221   28.2984 C   0  0  0  0  0  0  0  0  0  0  0  0
    9.3711  -13.7572   29.1437 S   0  0  0  0  0  0  0  0  0  0  0  0
   10.3965  -14.8417   28.1599 C   0  0  0  0  0  0  0  0  0  0  0  0
    9.7366  -15.4332   26.9749 C   0  0  0  0  0  0  0  0  0  0  0  0
   10.5934  -16.2979   26.1299 C   0  0  2  0  0  0  0  0  0  0  0  0
    9.7310  -16.8944   25.0580 N   0  0  0  0  0  0  0  0  0  0  0  0
   11.1967  -17.4177   26.8380 C   0  0  0  0  0  0  0  0  0  0  0  0
   10.7782  -18.6056   26.8562 O   0  0  0  0  0  0  0  0  0  0  0  0
   12.3781  -17.1873   27.5956 O   0  0  0  0  0  0  0  0  0  0  0  0
  2  1  1  0
  3  2  2  0
  4  2  1  0
  5  4  1  0
  6  5  1  0
  6  7  1  1
  8  9  2  0
  8  6  1  0
 10 11  1  0
 12 11  1  6
 12 13  1  0
 13  8  1  0
 14 12  1  0
 15 14  2  0
 17 16  1  0
 18 17  1  0
 19 18  1  0
 20 19  1  1
 20 22  1  0
 20 21  1  0
 21 14  1  0
 22 24  1  0
 23 22  2  0
M  END
$$$$
