QSM.pdb
     RDKit          3D

 24 23  0  0  1  0  0  0  0  0999 V2000
    9.1042  -12.4640   18.0949 N   0  0  0  0  0  0  0  0  0  0  0  0
    8.3316  -13.5280   17.5026 C   0  0  0  0  0  0  0  0  0  0  0  0
    8.5854  -13.7621   16.3104 O   0  0  0  0  0  0  0  0  0  0  0  0
    7.3286  -14.2504   18.2868 C   0  0  0  0  0  0  0  0  0  0  0  0
    7.5085  -14.1241   19.7624 C   0  0  0  0  0  0  0  0  0  0  0  0
    8.7472  -14.7217   20.3331 C   0  0  2  0  0  0  0  0  0  0  0  0
    9.4428  -15.6693   19.5431 N   0  0  0  0  0  0  0  0  0  0  0  0
    8.5073  -15.3019   21.6845 C   0  0  0  0  0  0  0  0  0  0  0  0
    7.7147  -14.6558   22.4491 O   0  0  0  0  0  0  0  0  0  0  0  0
   10.3181  -18.7420   23.0474 O   0  0  0  0  0  0  0  0  0  0  0  0
    9.1374  -18.3597   23.6740 C   0  0  0  0  0  0  0  0  0  0  0  0
    8.8937  -16.8665   23.5231 C   0  0  2  0  0  0  0  0  0  0  0  0
    9.0893  -16.4949   22.1618 N   0  0  0  0  0  0  0  0  0  0  0  0
    9.8534  -16.1899   24.4489 C   0  0  0  0  0  0  0  0  0  0  0  0
   10.7504  -16.8773   24.9961 O   0  0  0  0  0  0  0  0  0  0  0  0
    6.1228  -10.9645   26.5221 C   0  0  0  0  0  0  0  0  0  0  0  0
    6.2775  -12.3728   27.6234 S   0  0  0  0  0  0  0  0  0  0  0  0
    7.8918  -13.1355   27.5371 C   0  0  0  0  0  0  0  0  0  0  0  0
    8.2828  -13.6393   26.2019 C   0  0  0  0  0  0  0  0  0  0  0  0
    9.6107  -14.2926   26.1277 C   0  0  2  0  0  0  0  0  0  0  0  0
    9.7918  -14.8110   24.7323 N   0  0  0  0  0  0  0  0  0  0  0  0
    9.7639  -15.4391   27.0116 C   0  0  0  0  0  0  0  0  0  0  0  0
   10.5631  -15.5367   27.9803 O   0  0  0  0  0  0  0  0  0  0  0  0
    8.9470  -16.5823   26.7917 O   0  0  0  0  0  0  0  0  0  0  0  0
  2  1  1  0
  3  2  2  0
  4  2  1  0
  5  4  1  0
  6  5  1  0
  6  7  1  6
  8  9  2  0
  8  6  1  0
 10 11  1  0
 12 11  1  6
 12 13  1  0
 13  8  1  0
 14 12  1  0
 15 14  2  0
 17 16  1  0
 18 17  1  0
 19 18  1  0
 20 19  1  6
 20 22  1  0
 20 21  1  0
 21 14  1  0
 22 24  1  0
 23 22  2  0
M  END
$$$$
