QSM.pdb
     RDKit          3D

 24 23  0  0  1  0  0  0  0  0999 V2000
   14.7442  -13.5092   19.0759 N   0  0  0  0  0  0  0  0  0  0  0  0
   14.1397  -14.3082   20.1131 C   0  0  0  0  0  0  0  0  0  0  0  0
   14.8353  -14.4662   21.1288 O   0  0  0  0  0  0  0  0  0  0  0  0
   12.8016  -14.8753   19.9367 C   0  0  0  0  0  0  0  0  0  0  0  0
   12.5972  -15.5445   18.6192 C   0  0  0  0  0  0  0  0  0  0  0  0
   11.2153  -16.0107   18.3194 C   0  0  2  0  0  0  0  0  0  0  0  0
   10.5665  -15.4566   17.1888 N   0  0  0  0  0  0  0  0  0  0  0  0
   10.3201  -15.8789   19.5033 C   0  0  0  0  0  0  0  0  0  0  0  0
    9.8233  -14.7221   19.7157 O   0  0  0  0  0  0  0  0  0  0  0  0
    9.5530  -18.8329   22.3481 O   0  0  0  0  0  0  0  0  0  0  0  0
    8.4853  -18.1010   21.8412 C   0  0  0  0  0  0  0  0  0  0  0  0
    8.9428  -16.7446   21.3287 C   0  0  2  0  0  0  0  0  0  0  0  0
    9.9945  -16.9302   20.3858 N   0  0  0  0  0  0  0  0  0  0  0  0
    9.3766  -15.9675   22.5303 C   0  0  0  0  0  0  0  0  0  0  0  0
   10.6018  -15.9027   22.7972 O   0  0  0  0  0  0  0  0  0  0  0  0
    5.1880  -12.1895   26.7946 C   0  0  0  0  0  0  0  0  0  0  0  0
    6.9454  -11.8399   26.8888 S   0  0  0  0  0  0  0  0  0  0  0  0
    7.9493  -13.2708   26.5146 C   0  0  0  0  0  0  0  0  0  0  0  0
    7.7970  -13.8097   25.1450 C   0  0  0  0  0  0  0  0  0  0  0  0
    8.8859  -14.7024   24.6834 C   0  0  2  0  0  0  0  0  0  0  0  0
    8.4652  -15.3044   23.3760 N   0  0  0  0  0  0  0  0  0  0  0  0
    9.1634  -15.8187   25.5757 C   0  0  0  0  0  0  0  0  0  0  0  0
    8.6510  -16.9680   25.5193 O   0  0  0  0  0  0  0  0  0  0  0  0
   10.1014  -15.6321   26.6283 O   0  0  0  0  0  0  0  0  0  0  0  0
  2  1  1  0
  3  2  2  0
  4  2  1  0
  5  4  1  0
  6  5  1  0
  6  7  1  6
  8  9  2  0
  8  6  1  0
 10 11  1  0
 12 11  1  1
 12 13  1  0
 13  8  1  0
 14 12  1  0
 15 14  2  0
 17 16  1  0
 18 17  1  0
 19 18  1  0
 20 19  1  1
 20 22  1  0
 20 21  1  0
 21 14  1  0
 22 24  1  0
 23 22  2  0
M  END
$$$$
