QSM.pdb
     RDKit          3D

 24 23  0  0  1  0  0  0  0  0999 V2000
    8.1186  -12.2905   18.3596 N   0  0  0  0  0  0  0  0  0  0  0  0
    8.4642  -13.3823   17.4832 C   0  0  0  0  0  0  0  0  0  0  0  0
    9.1979  -13.0795   16.5289 O   0  0  0  0  0  0  0  0  0  0  0  0
    7.9606  -14.7334   17.7365 C   0  0  0  0  0  0  0  0  0  0  0  0
    8.7745  -15.5081   18.7178 C   0  0  0  0  0  0  0  0  0  0  0  0
    8.2864  -16.8745   19.0522 C   0  0  2  0  0  0  0  0  0  0  0  0
    7.1329  -17.3428   18.3767 N   0  0  0  0  0  0  0  0  0  0  0  0
    8.0906  -17.0462   20.5194 C   0  0  0  0  0  0  0  0  0  0  0  0
    6.9633  -16.6759   20.9907 O   0  0  0  0  0  0  0  0  0  0  0  0
   10.9622  -18.4926   23.2192 O   0  0  0  0  0  0  0  0  0  0  0  0
    9.6139  -18.7737   23.4087 C   0  0  0  0  0  0  0  0  0  0  0  0
    8.7358  -17.7004   22.7852 C   0  0  2  0  0  0  0  0  0  0  0  0
    9.0529  -17.5807   21.4015 N   0  0  0  0  0  0  0  0  0  0  0  0
    9.0048  -16.4434   23.5490 C   0  0  0  0  0  0  0  0  0  0  0  0
    9.8521  -15.6334   23.0990 O   0  0  0  0  0  0  0  0  0  0  0  0
    6.1193  -10.5474   27.7382 C   0  0  0  0  0  0  0  0  0  0  0  0
    5.9364  -11.9995   26.7001 S   0  0  0  0  0  0  0  0  0  0  0  0
    7.4505  -12.9401   26.5655 C   0  0  0  0  0  0  0  0  0  0  0  0
    7.3821  -14.1260   25.6832 C   0  0  0  0  0  0  0  0  0  0  0  0
    8.6474  -14.8809   25.5258 C   0  0  2  0  0  0  0  0  0  0  0  0
    8.3454  -16.1308   24.7544 N   0  0  0  0  0  0  0  0  0  0  0  0
    9.2476  -15.3111   26.7804 C   0  0  0  0  0  0  0  0  0  0  0  0
    9.7102  -14.5654   27.6841 O   0  0  0  0  0  0  0  0  0  0  0  0
    9.3383  -16.7047   27.0492 O   0  0  0  0  0  0  0  0  0  0  0  0
  2  1  1  0
  3  2  2  0
  4  2  1  0
  5  4  1  0
  6  5  1  0
  6  7  1  6
  8  9  2  0
  8  6  1  0
 10 11  1  0
 12 11  1  1
 12 13  1  0
 13  8  1  0
 14 12  1  0
 15 14  2  0
 17 16  1  0
 18 17  1  0
 19 18  1  0
 20 19  1  1
 20 22  1  0
 20 21  1  0
 21 14  1  0
 22 24  1  0
 23 22  2  0
M  END
$$$$
