QSM.pdb
     RDKit          3D

 24 23  0  0  1  0  0  0  0  0999 V2000
   10.2654  -23.5873   21.6754 N   0  0  0  0  0  0  0  0  0  0  0  0
   10.5833  -22.4133   22.4503 C   0  0  0  0  0  0  0  0  0  0  0  0
   11.1080  -22.6364   23.5528 O   0  0  0  0  0  0  0  0  0  0  0  0
   10.2875  -21.0748   21.9364 C   0  0  0  0  0  0  0  0  0  0  0  0
    9.1342  -20.4097   22.6095 C   0  0  0  0  0  0  0  0  0  0  0  0
    8.1938  -19.6623   21.7297 C   0  0  2  0  0  0  0  0  0  0  0  0
    8.0167  -20.1355   20.4065 N   0  0  0  0  0  0  0  0  0  0  0  0
    8.5192  -18.2089   21.6838 C   0  0  0  0  0  0  0  0  0  0  0  0
    9.7400  -17.8920   21.8821 O   0  0  0  0  0  0  0  0  0  0  0  0
    5.8055  -15.5618   20.5124 O   0  0  0  0  0  0  0  0  0  0  0  0
    7.0924  -15.0366   20.4811 C   0  0  0  0  0  0  0  0  0  0  0  0
    8.0328  -15.8332   21.3716 C   0  0  2  0  0  0  0  0  0  0  0  0
    7.5822  -17.1828   21.4405 N   0  0  0  0  0  0  0  0  0  0  0  0
    8.0239  -15.1538   22.7036 C   0  0  0  0  0  0  0  0  0  0  0  0
    7.0273  -14.4587   23.0200 O   0  0  0  0  0  0  0  0  0  0  0  0
    6.4584  -10.6053   26.8329 C   0  0  0  0  0  0  0  0  0  0  0  0
    6.9706  -12.3225   26.9259 S   0  0  0  0  0  0  0  0  0  0  0  0
    7.1352  -13.0763   25.3136 C   0  0  0  0  0  0  0  0  0  0  0  0
    7.5631  -14.4928   25.3182 C   0  0  0  0  0  0  0  0  0  0  0  0
    8.9945  -14.7303   25.0179 C   0  0  2  0  0  0  0  0  0  0  0  0
    9.0896  -15.2623   23.6191 N   0  0  0  0  0  0  0  0  0  0  0  0
    9.6295  -15.7209   25.8749 C   0  0  0  0  0  0  0  0  0  0  0  0
    9.6555  -16.9664   25.6884 O   0  0  0  0  0  0  0  0  0  0  0  0
   10.2979  -15.2772   27.0493 O   0  0  0  0  0  0  0  0  0  0  0  0
  2  1  1  0
  3  2  2  0
  4  2  1  0
  5  4  1  0
  6  5  1  0
  6  7  1  6
  8  9  2  0
  8  6  1  0
 10 11  1  0
 12 11  1  6
 12 13  1  0
 13  8  1  0
 14 12  1  0
 15 14  2  0
 17 16  1  0
 18 17  1  0
 19 18  1  0
 20 19  1  1
 20 22  1  0
 20 21  1  0
 21 14  1  0
 22 24  1  0
 23 22  2  0
M  END
$$$$
