QSM.pdb
     RDKit          3D

 24 23  0  0  1  0  0  0  0  0999 V2000
    9.5594  -12.2661   18.7619 N   0  0  0  0  0  0  0  0  0  0  0  0
    8.7045  -13.0464   17.9017 C   0  0  0  0  0  0  0  0  0  0  0  0
    9.1840  -13.3190   16.7898 O   0  0  0  0  0  0  0  0  0  0  0  0
    7.3734  -13.4621   18.3472 C   0  0  0  0  0  0  0  0  0  0  0  0
    7.3385  -13.9819   19.7451 C   0  0  0  0  0  0  0  0  0  0  0  0
    8.4383  -14.9059   20.1369 C   0  0  2  0  0  0  0  0  0  0  0  0
    8.8038  -15.9186   19.2165 N   0  0  0  0  0  0  0  0  0  0  0  0
    8.1872  -15.5292   21.4669 C   0  0  0  0  0  0  0  0  0  0  0  0
    7.2649  -15.0043   22.1768 O   0  0  0  0  0  0  0  0  0  0  0  0
   10.3865  -18.6753   23.0227 O   0  0  0  0  0  0  0  0  0  0  0  0
    9.0597  -18.5535   23.4199 C   0  0  0  0  0  0  0  0  0  0  0  0
    8.5747  -17.1190   23.2836 C   0  0  2  0  0  0  0  0  0  0  0  0
    8.8904  -16.6393   21.9799 N   0  0  0  0  0  0  0  0  0  0  0  0
    9.2564  -16.3421   24.3642 C   0  0  0  0  0  0  0  0  0  0  0  0
   10.4129  -15.9012   24.1529 O   0  0  0  0  0  0  0  0  0  0  0  0
    5.8804  -12.1196   26.5281 C   0  0  0  0  0  0  0  0  0  0  0  0
    7.5152  -12.0254   25.7946 S   0  0  0  0  0  0  0  0  0  0  0  0
    8.7531  -12.8687   26.7701 C   0  0  0  0  0  0  0  0  0  0  0  0
    8.4137  -14.2547   27.1618 C   0  0  0  0  0  0  0  0  0  0  0  0
    9.3476  -15.3017   26.6851 C   0  0  2  0  0  0  0  0  0  0  0  0
    8.6528  -16.0845   25.6113 N   0  0  0  0  0  0  0  0  0  0  0  0
    9.7374  -16.2651   27.7045 C   0  0  0  0  0  0  0  0  0  0  0  0
    9.3019  -17.4404   27.8301 O   0  0  0  0  0  0  0  0  0  0  0  0
   10.7044  -15.8781   28.6729 O   0  0  0  0  0  0  0  0  0  0  0  0
  2  1  1  0
  3  2  2  0
  4  2  1  0
  5  4  1  0
  6  5  1  0
  6  7  1  6
  8  9  2  0
  8  6  1  0
 10 11  1  0
 12 11  1  6
 12 13  1  0
 13  8  1  0
 14 12  1  0
 15 14  2  0
 17 16  1  0
 18 17  1  0
 19 18  1  0
 20 19  1  1
 20 22  1  0
 20 21  1  0
 21 14  1  0
 22 24  1  0
 23 22  2  0
M  END
$$$$
