QSM.pdb
     RDKit          3D

 24 23  0  0  1  0  0  0  0  0999 V2000
    8.2978  -13.0666   15.8660 N   0  0  0  0  0  0  0  0  0  0  0  0
    8.4012  -13.9285   14.7144 C   0  0  0  0  0  0  0  0  0  0  0  0
    7.6842  -13.6102   13.7525 O   0  0  0  0  0  0  0  0  0  0  0  0
    9.2972  -15.0862   14.7242 C   0  0  0  0  0  0  0  0  0  0  0  0
   10.0145  -15.2849   16.0171 C   0  0  0  0  0  0  0  0  0  0  0  0
    9.3482  -16.1641   17.0170 C   0  0  2  0  0  0  0  0  0  0  0  0
    8.0006  -16.5278   16.7763 N   0  0  0  0  0  0  0  0  0  0  0  0
    9.4612  -15.6137   18.3971 C   0  0  0  0  0  0  0  0  0  0  0  0
   10.6437  -15.4550   18.8518 O   0  0  0  0  0  0  0  0  0  0  0  0
    6.3660  -15.1792   21.3784 O   0  0  0  0  0  0  0  0  0  0  0  0
    7.3480  -14.2277   21.1269 C   0  0  0  0  0  0  0  0  0  0  0  0
    8.6052  -14.8710   20.5636 C   0  0  2  0  0  0  0  0  0  0  0  0
    8.3665  -15.2650   19.2155 N   0  0  0  0  0  0  0  0  0  0  0  0
    8.9186  -16.0293   21.4557 C   0  0  0  0  0  0  0  0  0  0  0  0
    8.8605  -17.1901   20.9806 O   0  0  0  0  0  0  0  0  0  0  0  0
   13.5012  -18.9586   20.7171 C   0  0  0  0  0  0  0  0  0  0  0  0
   13.7310  -18.4274   22.4156 S   0  0  0  0  0  0  0  0  0  0  0  0
   12.1824  -18.2233   23.2848 C   0  0  0  0  0  0  0  0  0  0  0  0
   11.3770  -17.0515   22.8754 C   0  0  0  0  0  0  0  0  0  0  0  0
   10.0657  -16.9085   23.5506 C   0  0  2  0  0  0  0  0  0  0  0  0
    9.2767  -15.8709   22.8094 N   0  0  0  0  0  0  0  0  0  0  0  0
   10.1495  -16.4490   24.9294 C   0  0  0  0  0  0  0  0  0  0  0  0
    9.9359  -15.2787   25.3433 O   0  0  0  0  0  0  0  0  0  0  0  0
   10.5045  -17.3858   25.9389 O   0  0  0  0  0  0  0  0  0  0  0  0
  2  1  1  0
  3  2  2  0
  4  2  1  0
  5  4  1  0
  6  5  1  0
  6  7  1  6
  8  9  2  0
  8  6  1  0
 10 11  1  0
 12 11  1  1
 12 13  1  0
 13  8  1  0
 14 12  1  0
 15 14  2  0
 17 16  1  0
 18 17  1  0
 19 18  1  0
 20 19  1  6
 20 22  1  0
 20 21  1  0
 21 14  1  0
 22 24  1  0
 23 22  2  0
M  END
$$$$
