WEY.pdb
     RDKit          3D

 36 38  0  0  1  0  0  0  0  0999 V2000
   24.5343   -2.9184  -18.9029 N   0  0  0  0  0  0  0  0  0  0  0  0
   24.5900   -4.2372  -18.3139 C   0  0  1  0  0  0  0  0  0  0  0  0
   25.8387   -4.3967  -17.4702 C   0  0  0  0  0  0  0  0  0  0  0  0
   27.0471   -4.4310  -18.3326 C   0  0  0  0  0  0  0  0  0  0  0  0
   28.0059   -3.4704  -18.5656 C   0  0  0  0  0  0  0  0  0  0  0  0
   28.9161   -3.9416  -19.4215 N   0  0  0  0  0  0  0  0  0  0  0  0
   28.6019   -5.1968  -19.7766 C   0  0  0  0  0  0  0  0  0  0  0  0
   29.2000   -6.1155  -20.6185 C   0  0  0  0  0  0  0  0  0  0  0  0
   28.6145   -7.3374  -20.7681 C   0  0  0  0  0  0  0  0  0  0  0  0
   27.4372   -7.6700  -20.0936 C   0  0  0  0  0  0  0  0  0  0  0  0
   26.8412   -6.7535  -19.2541 C   0  0  0  0  0  0  0  0  0  0  0  0
   27.4287   -5.5185  -19.0998 C   0  0  0  0  0  0  0  0  0  0  0  0
   23.3453   -4.4023  -17.4789 C   0  0  0  0  0  0  0  0  0  0  0  0
   22.9014   -3.4188  -16.8587 O   0  0  0  0  0  0  0  0  0  0  0  0
   22.6835   -5.6488  -17.3941 N   0  0  0  0  0  0  0  0  0  0  0  0
   21.5112   -5.9668  -16.6715 C   0  0  1  0  0  0  0  0  0  0  0  0
   20.4333   -6.7274  -17.4364 C   0  0  0  0  0  0  0  0  0  0  0  0
   19.1642   -6.9239  -16.6865 C   0  0  0  0  0  0  0  0  0  0  0  0
   17.9869   -6.7588  -17.6029 C   0  0  0  0  0  0  0  0  0  0  0  0
   18.1598   -6.6820  -18.8300 O   0  0  0  0  0  0  0  0  0  0  0  0
   21.7211   -6.6399  -15.3886 C   0  0  0  0  0  0  0  0  0  0  0  0
   22.5544   -7.6099  -15.3730 O   0  0  0  0  0  0  0  0  0  0  0  0
   16.7283   -6.6973  -17.0313 O   0  0  0  0  0  0  0  0  0  0  0  0
   16.4969   -3.9333  -10.2568 O   0  0  0  0  0  0  0  0  0  0  0  0
   17.7358   -4.4042  -10.6716 C   0  0  0  0  0  0  0  0  0  0  0  0
   18.3495   -5.4034   -9.9415 C   0  0  0  0  0  0  0  0  0  0  0  0
   19.5776   -5.9093  -10.3050 C   0  0  0  0  0  0  0  0  0  0  0  0
   20.2310   -5.4089  -11.4390 C   0  0  0  0  0  0  0  0  0  0  0  0
   21.5480   -5.9338  -11.8101 C   0  0  0  0  0  0  0  0  0  0  0  0
   21.4714   -6.9559  -12.8924 C   0  0  2  0  0  0  0  0  0  0  0  0
   21.1006   -6.3282  -14.1756 N   0  0  0  0  0  0  0  0  0  0  0  0
   20.4447   -7.9558  -12.5902 C   0  0  0  0  0  0  0  0  0  0  0  0
   20.6221   -8.8467  -11.5542 O   0  0  0  0  0  0  0  0  0  0  0  0
   19.5985   -4.3995  -12.1664 C   0  0  0  0  0  0  0  0  0  0  0  0
   18.3693   -3.9099  -11.7819 C   0  0  0  0  0  0  0  0  0  0  0  0
   19.3975   -8.0148  -13.2686 O   0  0  0  0  0  0  0  0  0  0  0  0
  2  1  1  1
  3  2  1  0
  4  3  1  0
  4 12  1  0
  5  6  1  0
  5  4  2  0
  6  7  1  0
  7  8  2  0
  7 12  1  0
  8  9  1  0
  9 10  2  0
 11 10  1  0
 12 11  2  0
 13  2  1  0
 14 13  2  0
 15 13  1  0
 16 15  1  0
 16 17  1  6
 18 17  1  0
 19 23  1  0
 19 18  1  0
 20 19  2  0
 21 16  1  0
 21 31  1  0
 22 21  2  0
 24 25  1  0
 25 26  2  0
 26 27  1  0
 28 29  1  0
 28 27  2  0
 30 29  1  1
 30 31  1  0
 30 32  1  0
 32 36  2  0
 32 33  1  0
 34 28  1  0
 35 34  2  0
 35 25  1  0
M  END
$$$$
