WEY.pdb
     RDKit          3D

 36 38  0  0  1  0  0  0  0  0999 V2000
   28.5875  -20.2590  -15.2302 N   0  0  0  0  0  0  0  0  0  0  0  0
   28.0016  -21.2409  -14.3458 C   0  0  1  0  0  0  0  0  0  0  0  0
   27.9101  -20.7038  -12.9317 C   0  0  0  0  0  0  0  0  0  0  0  0
   29.2667  -20.4457  -12.3856 C   0  0  0  0  0  0  0  0  0  0  0  0
   30.0633  -19.3252  -12.4650 C   0  0  0  0  0  0  0  0  0  0  0  0
   31.2137  -19.5447  -11.8236 N   0  0  0  0  0  0  0  0  0  0  0  0
   31.2205  -20.7844  -11.3101 C   0  0  0  0  0  0  0  0  0  0  0  0
   32.1500  -21.4936  -10.5729 C   0  0  0  0  0  0  0  0  0  0  0  0
   31.8449  -22.7674  -10.1952 C   0  0  0  0  0  0  0  0  0  0  0  0
   30.6256  -23.3576  -10.5368 C   0  0  0  0  0  0  0  0  0  0  0  0
   29.6991  -22.6498  -11.2719 C   0  0  0  0  0  0  0  0  0  0  0  0
   30.0026  -21.3633  -11.6555 C   0  0  0  0  0  0  0  0  0  0  0  0
   26.6350  -21.5693  -14.8918 C   0  0  0  0  0  0  0  0  0  0  0  0
   25.9842  -20.6756  -15.4637 O   0  0  0  0  0  0  0  0  0  0  0  0
   26.0904  -22.8677  -14.7632 N   0  0  0  0  0  0  0  0  0  0  0  0
   24.7537  -23.2775  -14.9697 C   0  0  1  0  0  0  0  0  0  0  0  0
   24.5113  -24.7819  -15.0296 C   0  0  0  0  0  0  0  0  0  0  0  0
   23.1285  -25.1713  -15.4140 C   0  0  0  0  0  0  0  0  0  0  0  0
   22.9676  -25.1166  -16.9053 C   0  0  0  0  0  0  0  0  0  0  0  0
   23.9647  -25.1888  -17.6416 O   0  0  0  0  0  0  0  0  0  0  0  0
   23.7645  -22.6920  -14.0631 C   0  0  0  0  0  0  0  0  0  0  0  0
   24.0910  -22.6021  -12.8299 O   0  0  0  0  0  0  0  0  0  0  0  0
   21.6866  -24.9847  -17.4114 O   0  0  0  0  0  0  0  0  0  0  0  0
   25.8564  -20.2017   -8.9129 O   0  0  0  0  0  0  0  0  0  0  0  0
   24.9882  -20.1618   -9.9960 C   0  0  0  0  0  0  0  0  0  0  0  0
   23.6591  -20.4830   -9.7993 C   0  0  0  0  0  0  0  0  0  0  0  0
   22.7525  -20.4608  -10.8356 C   0  0  0  0  0  0  0  0  0  0  0  0
   23.1735  -20.1058  -12.1240 C   0  0  0  0  0  0  0  0  0  0  0  0
   22.2108  -20.1050  -13.2289 C   0  0  0  0  0  0  0  0  0  0  0  0
   21.6356  -21.4558  -13.4867 C   0  0  2  0  0  0  0  0  0  0  0  0
   22.4958  -22.2199  -14.4110 N   0  0  0  0  0  0  0  0  0  0  0  0
   20.3177  -21.3470  -14.1164 C   0  0  0  0  0  0  0  0  0  0  0  0
   19.2475  -20.8406  -13.4116 O   0  0  0  0  0  0  0  0  0  0  0  0
   24.5192  -19.7840  -12.3072 C   0  0  0  0  0  0  0  0  0  0  0  0
   25.4069  -19.8139  -11.2538 C   0  0  0  0  0  0  0  0  0  0  0  0
   20.1472  -21.7137  -15.2983 O   0  0  0  0  0  0  0  0  0  0  0  0
  2  1  1  6
  3  2  1  0
  4  3  1  0
  4 12  1  0
  5  6  1  0
  5  4  2  0
  6  7  1  0
  7  8  2  0
  7 12  1  0
  8  9  1  0
  9 10  2  0
 11 10  1  0
 12 11  2  0
 13  2  1  0
 14 13  2  0
 15 13  1  0
 16 15  1  0
 16 17  1  1
 18 17  1  0
 19 23  1  0
 19 18  1  0
 20 19  2  0
 21 16  1  0
 21 31  1  0
 22 21  2  0
 24 25  1  0
 25 26  2  0
 26 27  1  0
 28 29  1  0
 28 27  2  0
 30 29  1  6
 30 31  1  0
 30 32  1  0
 32 36  2  0
 32 33  1  0
 34 28  1  0
 35 34  2  0
 35 25  1  0
M  END
$$$$
