WEY.pdb
     RDKit          3D

 36 38  0  0  1  0  0  0  0  0999 V2000
   26.8024  -17.1279  -18.8960 N   0  0  0  0  0  0  0  0  0  0  0  0
   25.9000  -16.5527  -17.9243 C   0  0  1  0  0  0  0  0  0  0  0  0
   25.6044  -15.1041  -18.2569 C   0  0  0  0  0  0  0  0  0  0  0  0
   26.8387  -14.2851  -18.1527 C   0  0  0  0  0  0  0  0  0  0  0  0
   27.5526  -13.6177  -19.1229 C   0  0  0  0  0  0  0  0  0  0  0  0
   28.6046  -13.0098  -18.5692 N   0  0  0  0  0  0  0  0  0  0  0  0
   28.6252  -13.2461  -17.2484 C   0  0  0  0  0  0  0  0  0  0  0  0
   29.4815  -12.8579  -16.2352 C   0  0  0  0  0  0  0  0  0  0  0  0
   29.2178  -13.2775  -14.9653 C   0  0  0  0  0  0  0  0  0  0  0  0
   28.1123  -14.0814  -14.6770 C   0  0  0  0  0  0  0  0  0  0  0  0
   27.2587  -14.4680  -15.6878 C   0  0  0  0  0  0  0  0  0  0  0  0
   27.5207  -14.0469  -16.9717 C   0  0  0  0  0  0  0  0  0  0  0  0
   24.6411  -17.3824  -17.9436 C   0  0  0  0  0  0  0  0  0  0  0  0
   24.3078  -17.9467  -19.0017 O   0  0  0  0  0  0  0  0  0  0  0  0
   23.8437  -17.5255  -16.7849 N   0  0  0  0  0  0  0  0  0  0  0  0
   22.6078  -18.1986  -16.6539 C   0  0  1  0  0  0  0  0  0  0  0  0
   22.2607  -18.7053  -15.2582 C   0  0  0  0  0  0  0  0  0  0  0  0
   20.9977  -19.4866  -15.1797 C   0  0  0  0  0  0  0  0  0  0  0  0
   20.7484  -19.9330  -13.7685 C   0  0  0  0  0  0  0  0  0  0  0  0
   19.7278  -20.5844  -13.4932 O   0  0  0  0  0  0  0  0  0  0  0  0
   21.4418  -17.4906  -17.1852 C   0  0  0  0  0  0  0  0  0  0  0  0
   21.1835  -16.3426  -16.6843 O   0  0  0  0  0  0  0  0  0  0  0  0
   21.6860  -19.5934  -12.8094 O   0  0  0  0  0  0  0  0  0  0  0  0
   14.8046  -14.4684  -22.1502 O   0  0  0  0  0  0  0  0  0  0  0  0
   15.8969  -15.1681  -21.6544 C   0  0  0  0  0  0  0  0  0  0  0  0
   17.0449  -14.4719  -21.3293 C   0  0  0  0  0  0  0  0  0  0  0  0
   18.1587  -15.1122  -20.8337 C   0  0  0  0  0  0  0  0  0  0  0  0
   18.1413  -16.5010  -20.6492 C   0  0  0  0  0  0  0  0  0  0  0  0
   19.3360  -17.1821  -20.1428 C   0  0  0  0  0  0  0  0  0  0  0  0
   19.4073  -17.1793  -18.6538 C   0  0  2  0  0  0  0  0  0  0  0  0
   20.5801  -17.9445  -18.1877 N   0  0  0  0  0  0  0  0  0  0  0  0
   18.2212  -17.8159  -18.0764 C   0  0  0  0  0  0  0  0  0  0  0  0
   18.3080  -19.0690  -17.5101 O   0  0  0  0  0  0  0  0  0  0  0  0
   16.9745  -17.1907  -20.9821 C   0  0  0  0  0  0  0  0  0  0  0  0
   15.8730  -16.5268  -21.4767 C   0  0  0  0  0  0  0  0  0  0  0  0
   17.1169  -17.2323  -18.0923 O   0  0  0  0  0  0  0  0  0  0  0  0
  2  1  1  6
  3  2  1  0
  4  3  1  0
  4 12  1  0
  5  6  1  0
  5  4  2  0
  6  7  1  0
  7  8  2  0
  7 12  1  0
  8  9  1  0
  9 10  2  0
 11 10  1  0
 12 11  2  0
 13  2  1  0
 14 13  2  0
 15 13  1  0
 16 15  1  0
 16 17  1  1
 18 17  1  0
 19 23  1  0
 19 18  1  0
 20 19  2  0
 21 16  1  0
 21 31  1  0
 22 21  2  0
 24 25  1  0
 25 26  2  0
 26 27  1  0
 28 29  1  0
 28 27  2  0
 30 29  1  6
 30 31  1  0
 30 32  1  0
 32 36  2  0
 32 33  1  0
 34 28  1  0
 35 34  2  0
 35 25  1  0
M  END
$$$$
