WEY.pdb
     RDKit          3D

 36 38  0  0  1  0  0  0  0  0999 V2000
   28.2707  -21.6268  -10.5975 N   0  0  0  0  0  0  0  0  0  0  0  0
   27.0463  -21.1133  -10.0261 C   0  0  1  0  0  0  0  0  0  0  0  0
   27.3383  -19.9958   -9.0449 C   0  0  0  0  0  0  0  0  0  0  0  0
   28.4429  -20.3829   -8.1310 C   0  0  0  0  0  0  0  0  0  0  0  0
   29.4749  -21.2778   -8.3058 C   0  0  0  0  0  0  0  0  0  0  0  0
   30.2365  -21.3059   -7.2094 N   0  0  0  0  0  0  0  0  0  0  0  0
   29.7500  -20.4541   -6.2939 C   0  0  0  0  0  0  0  0  0  0  0  0
   30.1545  -20.1109   -5.0175 C   0  0  0  0  0  0  0  0  0  0  0  0
   29.4241  -19.1873   -4.3307 C   0  0  0  0  0  0  0  0  0  0  0  0
   28.2904  -18.5916   -4.8888 C   0  0  0  0  0  0  0  0  0  0  0  0
   27.8876  -18.9342   -6.1617 C   0  0  0  0  0  0  0  0  0  0  0  0
   28.6219  -19.8662   -6.8592 C   0  0  0  0  0  0  0  0  0  0  0  0
   26.1950  -20.6232  -11.1701 C   0  0  0  0  0  0  0  0  0  0  0  0
   26.4702  -19.5316  -11.7010 O   0  0  0  0  0  0  0  0  0  0  0  0
   25.0996  -21.3822  -11.6420 N   0  0  0  0  0  0  0  0  0  0  0  0
   24.1576  -21.0304  -12.6352 C   0  0  1  0  0  0  0  0  0  0  0  0
   24.3253  -21.7047  -13.9926 C   0  0  0  0  0  0  0  0  0  0  0  0
   23.4850  -21.1305  -15.0770 C   0  0  0  0  0  0  0  0  0  0  0  0
   22.5779  -22.1827  -15.6454 C   0  0  0  0  0  0  0  0  0  0  0  0
   22.6178  -23.3427  -15.2044 O   0  0  0  0  0  0  0  0  0  0  0  0
   22.7517  -21.1403  -12.2419 C   0  0  0  0  0  0  0  0  0  0  0  0
   22.3695  -22.2645  -11.7668 O   0  0  0  0  0  0  0  0  0  0  0  0
   21.7147  -21.8102  -16.6605 O   0  0  0  0  0  0  0  0  0  0  0  0
   19.6131  -24.1859   -6.9696 O   0  0  0  0  0  0  0  0  0  0  0  0
   19.6828  -23.1510   -7.8929 C   0  0  0  0  0  0  0  0  0  0  0  0
   20.7952  -22.3319   -7.8959 C   0  0  0  0  0  0  0  0  0  0  0  0
   20.9194  -21.2903   -8.7881 C   0  0  0  0  0  0  0  0  0  0  0  0
   19.9024  -21.0442   -9.7199 C   0  0  0  0  0  0  0  0  0  0  0  0
   20.0275  -19.9212  -10.6531 C   0  0  0  0  0  0  0  0  0  0  0  0
   20.3543  -20.3633  -12.0387 C   0  0  2  0  0  0  0  0  0  0  0  0
   21.7826  -20.1374  -12.3336 N   0  0  0  0  0  0  0  0  0  0  0  0
   19.5856  -19.5974  -13.0225 C   0  0  0  0  0  0  0  0  0  0  0  0
   18.2869  -19.9487  -13.3198 O   0  0  0  0  0  0  0  0  0  0  0  0
   18.7847  -21.8801   -9.7047 C   0  0  0  0  0  0  0  0  0  0  0  0
   18.6841  -22.9158   -8.8015 C   0  0  0  0  0  0  0  0  0  0  0  0
   20.0981  -18.6186  -13.6053 O   0  0  0  0  0  0  0  0  0  0  0  0
  2  1  1  6
  3  2  1  0
  4  3  1  0
  4 12  1  0
  5  6  1  0
  5  4  2  0
  6  7  1  0
  7  8  2  0
  7 12  1  0
  8  9  1  0
  9 10  2  0
 11 10  1  0
 12 11  2  0
 13  2  1  0
 14 13  2  0
 15 13  1  0
 16 15  1  0
 16 17  1  6
 18 17  1  0
 19 23  1  0
 19 18  1  0
 20 19  2  0
 21 16  1  0
 21 31  1  0
 22 21  2  0
 24 25  1  0
 25 26  2  0
 26 27  1  0
 28 29  1  0
 28 27  2  0
 30 29  1  1
 30 31  1  0
 30 32  1  0
 32 36  2  0
 32 33  1  0
 34 28  1  0
 35 34  2  0
 35 25  1  0
M  END
$$$$
