WEY.pdb
     RDKit          3D

 36 38  0  0  1  0  0  0  0  0999 V2000
   19.3052  -14.8125  -18.9344 N   0  0  0  0  0  0  0  0  0  0  0  0
   20.0908  -13.7423  -18.3627 C   0  0  1  0  0  0  0  0  0  0  0  0
   21.2485  -13.3807  -19.2714 C   0  0  0  0  0  0  0  0  0  0  0  0
   22.1009  -14.5701  -19.5244 C   0  0  0  0  0  0  0  0  0  0  0  0
   22.5111  -15.5724  -18.6739 C   0  0  0  0  0  0  0  0  0  0  0  0
   23.2760  -16.4417  -19.3389 N   0  0  0  0  0  0  0  0  0  0  0  0
   23.3967  -16.0573  -20.6188 C   0  0  0  0  0  0  0  0  0  0  0  0
   24.0647  -16.5924  -21.7042 C   0  0  0  0  0  0  0  0  0  0  0  0
   23.9869  -15.9426  -22.9000 C   0  0  0  0  0  0  0  0  0  0  0  0
   23.2536  -14.7621  -23.0427 C   0  0  0  0  0  0  0  0  0  0  0  0
   22.5876  -14.2290  -21.9601 C   0  0  0  0  0  0  0  0  0  0  0  0
   22.6631  -14.8816  -20.7506 C   0  0  0  0  0  0  0  0  0  0  0  0
   19.1650  -12.5680  -18.1687 C   0  0  0  0  0  0  0  0  0  0  0  0
   18.6102  -12.0678  -19.1642 O   0  0  0  0  0  0  0  0  0  0  0  0
   18.9224  -12.0348  -16.8820 N   0  0  0  0  0  0  0  0  0  0  0  0
   18.0719  -10.9629  -16.5279 C   0  0  1  0  0  0  0  0  0  0  0  0
   16.8023  -11.3322  -15.7683 C   0  0  0  0  0  0  0  0  0  0  0  0
   16.1495  -12.5873  -16.2270 C   0  0  0  0  0  0  0  0  0  0  0  0
   15.6962  -13.3992  -15.0488 C   0  0  0  0  0  0  0  0  0  0  0  0
   16.5263  -14.0167  -14.3624 O   0  0  0  0  0  0  0  0  0  0  0  0
   18.7146   -9.8494  -15.8279 C   0  0  0  0  0  0  0  0  0  0  0  0
   19.5331  -10.1487  -14.8919 O   0  0  0  0  0  0  0  0  0  0  0  0
   14.3415  -13.4281  -14.7683 O   0  0  0  0  0  0  0  0  0  0  0  0
   22.7651   -2.3701  -13.7132 O   0  0  0  0  0  0  0  0  0  0  0  0
   22.1545   -3.4613  -14.3173 C   0  0  0  0  0  0  0  0  0  0  0  0
   22.4929   -4.7332  -13.8979 C   0  0  0  0  0  0  0  0  0  0  0  0
   21.9204   -5.8524  -14.4600 C   0  0  0  0  0  0  0  0  0  0  0  0
   20.9712   -5.7129  -15.4812 C   0  0  0  0  0  0  0  0  0  0  0  0
   20.3804   -6.9065  -16.0927 C   0  0  0  0  0  0  0  0  0  0  0  0
   19.2098   -7.4211  -15.3266 C   0  0  2  0  0  0  0  0  0  0  0  0
   18.5231   -8.4881  -16.0804 N   0  0  0  0  0  0  0  0  0  0  0  0
   18.2300   -6.3564  -15.0991 C   0  0  0  0  0  0  0  0  0  0  0  0
   18.3515   -5.5170  -14.0131 O   0  0  0  0  0  0  0  0  0  0  0  0
   20.6396   -4.4216  -15.8944 C   0  0  0  0  0  0  0  0  0  0  0  0
   21.2270   -3.3175  -15.3160 C   0  0  0  0  0  0  0  0  0  0  0  0
   17.2717   -6.1976  -15.8845 O   0  0  0  0  0  0  0  0  0  0  0  0
  2  1  1  6
  3  2  1  0
  4  3  1  0
  4 12  1  0
  5  6  1  0
  5  4  2  0
  6  7  1  0
  7  8  2  0
  7 12  1  0
  8  9  1  0
  9 10  2  0
 11 10  1  0
 12 11  2  0
 13  2  1  0
 14 13  2  0
 15 13  1  0
 16 15  1  0
 16 17  1  1
 18 17  1  0
 19 23  1  0
 19 18  1  0
 20 19  2  0
 21 16  1  0
 21 31  1  0
 22 21  2  0
 24 25  1  0
 25 26  2  0
 26 27  1  0
 28 29  1  0
 28 27  2  0
 30 29  1  6
 30 31  1  0
 30 32  1  0
 32 36  2  0
 32 33  1  0
 34 28  1  0
 35 34  2  0
 35 25  1  0
M  END
$$$$
