WEY.pdb
     RDKit          3D

 36 38  0  0  1  0  0  0  0  0999 V2000
   21.1740  -20.3792  -16.2626 N   0  0  0  0  0  0  0  0  0  0  0  0
   22.3970  -19.6110  -16.2035 C   0  0  1  0  0  0  0  0  0  0  0  0
   22.1918  -18.3339  -15.4140 C   0  0  0  0  0  0  0  0  0  0  0  0
   21.2114  -17.4526  -16.0978 C   0  0  0  0  0  0  0  0  0  0  0  0
   19.9483  -17.0574  -15.7174 C   0  0  0  0  0  0  0  0  0  0  0  0
   19.4272  -16.2573  -16.6508 N   0  0  0  0  0  0  0  0  0  0  0  0
   20.3022  -16.0979  -17.6556 C   0  0  0  0  0  0  0  0  0  0  0  0
   20.2582  -15.3851  -18.8390 C   0  0  0  0  0  0  0  0  0  0  0  0
   21.3408  -15.4314  -19.6661 C   0  0  0  0  0  0  0  0  0  0  0  0
   22.4765  -16.1770  -19.3407 C   0  0  0  0  0  0  0  0  0  0  0  0
   22.5198  -16.8876  -18.1604 C   0  0  0  0  0  0  0  0  0  0  0  0
   21.4291  -16.8439  -17.3220 C   0  0  0  0  0  0  0  0  0  0  0  0
   23.4398  -20.4877  -15.5573 C   0  0  0  0  0  0  0  0  0  0  0  0
   23.1194  -21.1797  -14.5737 O   0  0  0  0  0  0  0  0  0  0  0  0
   24.7637  -20.5322  -16.0515 N   0  0  0  0  0  0  0  0  0  0  0  0
   25.8837  -21.1850  -15.4885 C   0  0  1  0  0  0  0  0  0  0  0  0
   27.0448  -21.4693  -16.4353 C   0  0  0  0  0  0  0  0  0  0  0  0
   27.6472  -20.2599  -17.0566 C   0  0  0  0  0  0  0  0  0  0  0  0
   28.7407  -20.6525  -18.0069 C   0  0  0  0  0  0  0  0  0  0  0  0
   29.0182  -21.8509  -18.1752 O   0  0  0  0  0  0  0  0  0  0  0  0
   26.4256  -20.5770  -14.2720 C   0  0  0  0  0  0  0  0  0  0  0  0
   26.6610  -19.3205  -14.3080 O   0  0  0  0  0  0  0  0  0  0  0  0
   29.4111  -19.6411  -18.6720 O   0  0  0  0  0  0  0  0  0  0  0  0
   21.3494  -21.4307   -9.9175 O   0  0  0  0  0  0  0  0  0  0  0  0
   22.6094  -20.9477  -10.2452 C   0  0  0  0  0  0  0  0  0  0  0  0
   22.8769  -20.6156  -11.5591 C   0  0  0  0  0  0  0  0  0  0  0  0
   24.1078  -20.1320  -11.9428 C   0  0  0  0  0  0  0  0  0  0  0  0
   25.1213  -19.9674  -10.9894 C   0  0  0  0  0  0  0  0  0  0  0  0
   26.4371  -19.4737  -11.4049 C   0  0  0  0  0  0  0  0  0  0  0  0
   27.3229  -20.5619  -11.9082 C   0  0  2  0  0  0  0  0  0  0  0  0
   26.7122  -21.2335  -13.0718 N   0  0  0  0  0  0  0  0  0  0  0  0
   27.5251  -21.5840  -10.8788 C   0  0  0  0  0  0  0  0  0  0  0  0
   28.0654  -21.2464   -9.6571 O   0  0  0  0  0  0  0  0  0  0  0  0
   24.8362  -20.3072   -9.6660 C   0  0  0  0  0  0  0  0  0  0  0  0
   23.5963  -20.7895   -9.3074 C   0  0  0  0  0  0  0  0  0  0  0  0
   27.2128  -22.7738  -11.0963 O   0  0  0  0  0  0  0  0  0  0  0  0
  2  1  1  1
  3  2  1  0
  4  3  1  0
  4 12  1  0
  5  6  1  0
  5  4  2  0
  6  7  1  0
  7  8  2  0
  7 12  1  0
  8  9  1  0
  9 10  2  0
 11 10  1  0
 12 11  2  0
 13  2  1  0
 14 13  2  0
 15 13  1  0
 16 15  1  0
 16 17  1  6
 18 17  1  0
 19 23  1  0
 19 18  1  0
 20 19  2  0
 21 16  1  0
 21 31  1  0
 22 21  2  0
 24 25  1  0
 25 26  2  0
 26 27  1  0
 28 29  1  0
 28 27  2  0
 30 29  1  1
 30 31  1  0
 30 32  1  0
 32 36  2  0
 32 33  1  0
 34 28  1  0
 35 34  2  0
 35 25  1  0
M  END
$$$$
