WEY.pdb
     RDKit          3D

 36 38  0  0  1  0  0  0  0  0999 V2000
   23.5035  -17.6475  -18.9668 N   0  0  0  0  0  0  0  0  0  0  0  0
   24.5788  -18.5923  -18.7657 C   0  0  1  0  0  0  0  0  0  0  0  0
   25.9235  -17.8956  -18.8194 C   0  0  0  0  0  0  0  0  0  0  0  0
   26.2186  -17.4424  -20.2024 C   0  0  0  0  0  0  0  0  0  0  0  0
   26.1451  -16.1881  -20.7663 C   0  0  0  0  0  0  0  0  0  0  0  0
   26.5044  -16.2507  -22.0508 N   0  0  0  0  0  0  0  0  0  0  0  0
   26.8203  -17.5137  -22.3754 C   0  0  0  0  0  0  0  0  0  0  0  0
   27.2453  -18.1065  -23.5494 C   0  0  0  0  0  0  0  0  0  0  0  0
   27.4872  -19.4481  -23.5495 C   0  0  0  0  0  0  0  0  0  0  0  0
   27.3145  -20.2209  -22.3986 C   0  0  0  0  0  0  0  0  0  0  0  0
   26.8907  -19.6291  -21.2281 C   0  0  0  0  0  0  0  0  0  0  0  0
   26.6453  -18.2748  -21.2230 C   0  0  0  0  0  0  0  0  0  0  0  0
   24.3550  -19.2386  -17.4219 C   0  0  0  0  0  0  0  0  0  0  0  0
   24.0214  -18.5247  -16.4584 O   0  0  0  0  0  0  0  0  0  0  0  0
   24.5175  -20.6319  -17.2461 N   0  0  0  0  0  0  0  0  0  0  0  0
   24.7737  -21.3362  -16.0477 C   0  0  1  0  0  0  0  0  0  0  0  0
   24.7648  -22.8580  -16.1449 C   0  0  0  0  0  0  0  0  0  0  0  0
   24.9552  -23.5621  -14.8489 C   0  0  0  0  0  0  0  0  0  0  0  0
   24.9639  -25.0481  -15.0600 C   0  0  0  0  0  0  0  0  0  0  0  0
   26.0281  -25.6822  -14.9754 O   0  0  0  0  0  0  0  0  0  0  0  0
   25.9789  -20.9325  -15.3213 C   0  0  0  0  0  0  0  0  0  0  0  0
   27.0890  -21.0135  -15.9511 O   0  0  0  0  0  0  0  0  0  0  0  0
   23.7596  -25.6659  -15.3471 O   0  0  0  0  0  0  0  0  0  0  0  0
   23.4044  -21.1022   -8.4720 O   0  0  0  0  0  0  0  0  0  0  0  0
   24.3073  -20.5846   -9.3914 C   0  0  0  0  0  0  0  0  0  0  0  0
   23.8234  -19.9700  -10.5299 C   0  0  0  0  0  0  0  0  0  0  0  0
   24.6710  -19.4385  -11.4762 C   0  0  0  0  0  0  0  0  0  0  0  0
   26.0580  -19.5153  -11.2930 C   0  0  0  0  0  0  0  0  0  0  0  0
   26.9574  -18.9687  -12.3127 C   0  0  0  0  0  0  0  0  0  0  0  0
   27.2758  -19.9566  -13.3826 C   0  0  2  0  0  0  0  0  0  0  0  0
   26.0385  -20.4662  -14.0051 N   0  0  0  0  0  0  0  0  0  0  0  0
   27.9855  -21.1115  -12.8279 C   0  0  0  0  0  0  0  0  0  0  0  0
   27.3763  -22.3464  -12.7776 O   0  0  0  0  0  0  0  0  0  0  0  0
   26.5318  -20.1393  -10.1379 C   0  0  0  0  0  0  0  0  0  0  0  0
   25.6629  -20.6636   -9.2058 C   0  0  0  0  0  0  0  0  0  0  0  0
   29.1498  -20.9911  -12.3918 O   0  0  0  0  0  0  0  0  0  0  0  0
  2  1  1  1
  3  2  1  0
  4  3  1  0
  4 12  1  0
  5  6  1  0
  5  4  2  0
  6  7  1  0
  7  8  2  0
  7 12  1  0
  8  9  1  0
  9 10  2  0
 11 10  1  0
 12 11  2  0
 13  2  1  0
 14 13  2  0
 15 13  1  0
 16 15  1  0
 16 17  1  6
 18 17  1  0
 19 23  1  0
 19 18  1  0
 20 19  2  0
 21 16  1  0
 21 31  1  0
 22 21  2  0
 24 25  1  0
 25 26  2  0
 26 27  1  0
 28 29  1  0
 28 27  2  0
 30 29  1  1
 30 31  1  0
 30 32  1  0
 32 36  2  0
 32 33  1  0
 34 28  1  0
 35 34  2  0
 35 25  1  0
M  END
$$$$
