WEY.pdb
     RDKit          3D

 36 38  0  0  1  0  0  0  0  0999 V2000
   15.3616  -33.2387  -14.2402 N   0  0  0  0  0  0  0  0  0  0  0  0
   16.2462  -32.4167  -13.4458 C   0  0  1  0  0  0  0  0  0  0  0  0
   16.1531  -30.9640  -13.8672 C   0  0  0  0  0  0  0  0  0  0  0  0
   16.6831  -30.7876  -15.2432 C   0  0  0  0  0  0  0  0  0  0  0  0
   17.7337  -31.4077  -15.8821 C   0  0  0  0  0  0  0  0  0  0  0  0
   17.8503  -30.9299  -17.1235 N   0  0  0  0  0  0  0  0  0  0  0  0
   16.9071  -30.0017  -17.3458 C   0  0  0  0  0  0  0  0  0  0  0  0
   16.5961  -29.2181  -18.4411 C   0  0  0  0  0  0  0  0  0  0  0  0
   15.5502  -28.3494  -18.3426 C   0  0  0  0  0  0  0  0  0  0  0  0
   14.7996  -28.2408  -17.1694 C   0  0  0  0  0  0  0  0  0  0  0  0
   15.1103  -29.0224  -16.0774 C   0  0  0  0  0  0  0  0  0  0  0  0
   16.1654  -29.9012  -16.1720 C   0  0  0  0  0  0  0  0  0  0  0  0
   15.8382  -32.5916  -12.0047 C   0  0  0  0  0  0  0  0  0  0  0  0
   14.6277  -32.6745  -11.7273 O   0  0  0  0  0  0  0  0  0  0  0  0
   16.8054  -32.6623  -10.9759 N   0  0  0  0  0  0  0  0  0  0  0  0
   16.5942  -32.8535   -9.5915 C   0  0  1  0  0  0  0  0  0  0  0  0
   17.4391  -33.9330   -8.9234 C   0  0  0  0  0  0  0  0  0  0  0  0
   17.0694  -34.2235   -7.5126 C   0  0  0  0  0  0  0  0  0  0  0  0
   18.1458  -33.7442   -6.5829 C   0  0  0  0  0  0  0  0  0  0  0  0
   17.8435  -33.1595   -5.5300 O   0  0  0  0  0  0  0  0  0  0  0  0
   16.6631  -31.6454   -8.7677 C   0  0  0  0  0  0  0  0  0  0  0  0
   17.5442  -30.7756   -9.0878 O   0  0  0  0  0  0  0  0  0  0  0  0
   19.4610  -33.9777   -6.9439 O   0  0  0  0  0  0  0  0  0  0  0  0
   15.7303  -24.0178   -4.9970 O   0  0  0  0  0  0  0  0  0  0  0  0
   15.7488  -25.2166   -5.6978 C   0  0  0  0  0  0  0  0  0  0  0  0
   14.5663  -25.9105   -5.8662 C   0  0  0  0  0  0  0  0  0  0  0  0
   14.5237  -27.1040   -6.5518 C   0  0  0  0  0  0  0  0  0  0  0  0
   15.6987  -27.6383   -7.0969 C   0  0  0  0  0  0  0  0  0  0  0  0
   15.6538  -28.9196   -7.8066 C   0  0  0  0  0  0  0  0  0  0  0  0
   15.9531  -30.0769   -6.9160 C   0  0  2  0  0  0  0  0  0  0  0  0
   15.8604  -31.3462   -7.6633 N   0  0  0  0  0  0  0  0  0  0  0  0
   14.9851  -30.1517   -5.8194 C   0  0  0  0  0  0  0  0  0  0  0  0
   15.1342  -29.3594   -4.7020 O   0  0  0  0  0  0  0  0  0  0  0  0
   16.8856  -26.9258   -6.9186 C   0  0  0  0  0  0  0  0  0  0  0  0
   16.9020  -25.7335   -6.2282 C   0  0  0  0  0  0  0  0  0  0  0  0
   14.0146  -30.9356   -5.8823 O   0  0  0  0  0  0  0  0  0  0  0  0
  2  1  1  6
  3  2  1  0
  4  3  1  0
  4 12  1  0
  5  6  1  0
  5  4  2  0
  6  7  1  0
  7  8  2  0
  7 12  1  0
  8  9  1  0
  9 10  2  0
 11 10  1  0
 12 11  2  0
 13  2  1  0
 14 13  2  0
 15 13  1  0
 16 15  1  0
 16 17  1  1
 18 17  1  0
 19 23  1  0
 19 18  1  0
 20 19  2  0
 21 16  1  0
 21 31  1  0
 22 21  2  0
 24 25  1  0
 25 26  2  0
 26 27  1  0
 28 29  1  0
 28 27  2  0
 30 29  1  6
 30 31  1  0
 30 32  1  0
 32 36  2  0
 32 33  1  0
 34 28  1  0
 35 34  2  0
 35 25  1  0
M  END
$$$$
