WEY.pdb
     RDKit          3D

 36 38  0  0  1  0  0  0  0  0999 V2000
   26.1534  -18.8577   -8.7898 N   0  0  0  0  0  0  0  0  0  0  0  0
   26.5980  -20.1437   -9.2774 C   0  0  1  0  0  0  0  0  0  0  0  0
   26.0481  -21.2639   -8.4175 C   0  0  0  0  0  0  0  0  0  0  0  0
   26.2662  -20.9687   -6.9785 C   0  0  0  0  0  0  0  0  0  0  0  0
   25.3911  -21.0080   -5.9159 C   0  0  0  0  0  0  0  0  0  0  0  0
   26.0283  -20.6598   -4.7954 N   0  0  0  0  0  0  0  0  0  0  0  0
   27.3132  -20.3848   -5.0676 C   0  0  0  0  0  0  0  0  0  0  0  0
   28.3782  -19.9862   -4.2819 C   0  0  0  0  0  0  0  0  0  0  0  0
   29.5869  -19.7848   -4.8793 C   0  0  0  0  0  0  0  0  0  0  0  0
   29.7625  -19.9724   -6.2525 C   0  0  0  0  0  0  0  0  0  0  0  0
   28.7001  -20.3700   -7.0354 C   0  0  0  0  0  0  0  0  0  0  0  0
   27.4777  -20.5747   -6.4368 C   0  0  0  0  0  0  0  0  0  0  0  0
   26.1190  -20.2670  -10.7018 C   0  0  0  0  0  0  0  0  0  0  0  0
   24.9658  -19.8933  -10.9839 O   0  0  0  0  0  0  0  0  0  0  0  0
   26.9568  -20.7964  -11.7102 N   0  0  0  0  0  0  0  0  0  0  0  0
   26.7729  -20.7500  -13.1108 C   0  0  1  0  0  0  0  0  0  0  0  0
   27.9939  -21.0802  -13.9625 C   0  0  0  0  0  0  0  0  0  0  0  0
   27.7774  -20.9576  -15.4286 C   0  0  0  0  0  0  0  0  0  0  0  0
   29.0261  -21.3317  -16.1725 C   0  0  0  0  0  0  0  0  0  0  0  0
   29.9962  -21.8069  -15.5603 O   0  0  0  0  0  0  0  0  0  0  0  0
   25.6367  -21.5160  -13.6259 C   0  0  0  0  0  0  0  0  0  0  0  0
   25.5276  -22.7271  -13.2301 O   0  0  0  0  0  0  0  0  0  0  0  0
   29.0474  -21.1276  -17.5409 O   0  0  0  0  0  0  0  0  0  0  0  0
   17.5800  -20.2483  -11.3153 O   0  0  0  0  0  0  0  0  0  0  0  0
   18.9144  -20.2790  -11.6987 C   0  0  0  0  0  0  0  0  0  0  0  0
   19.5114  -19.1122  -12.1348 C   0  0  0  0  0  0  0  0  0  0  0  0
   20.8310  -19.0823  -12.5273 C   0  0  0  0  0  0  0  0  0  0  0  0
   21.5977  -20.2544  -12.4883 C   0  0  0  0  0  0  0  0  0  0  0  0
   22.9953  -20.2239  -12.9280 C   0  0  0  0  0  0  0  0  0  0  0  0
   23.2201  -21.0123  -14.1729 C   0  0  2  0  0  0  0  0  0  0  0  0
   24.6564  -21.0554  -14.5093 N   0  0  0  0  0  0  0  0  0  0  0  0
   22.5305  -20.3962  -15.3088 C   0  0  0  0  0  0  0  0  0  0  0  0
   22.8413  -19.1123  -15.7006 O   0  0  0  0  0  0  0  0  0  0  0  0
   20.9807  -21.4254  -12.0455 C   0  0  0  0  0  0  0  0  0  0  0  0
   19.6584  -21.4293  -11.6581 C   0  0  0  0  0  0  0  0  0  0  0  0
   21.6513  -21.0256  -15.9344 O   0  0  0  0  0  0  0  0  0  0  0  0
  2  1  1  1
  3  2  1  0
  4  3  1  0
  4 12  1  0
  5  6  1  0
  5  4  2  0
  6  7  1  0
  7  8  2  0
  7 12  1  0
  8  9  1  0
  9 10  2  0
 11 10  1  0
 12 11  2  0
 13  2  1  0
 14 13  2  0
 15 13  1  0
 16 15  1  0
 16 17  1  6
 18 17  1  0
 19 23  1  0
 19 18  1  0
 20 19  2  0
 21 16  1  0
 21 31  1  0
 22 21  2  0
 24 25  1  0
 25 26  2  0
 26 27  1  0
 28 29  1  0
 28 27  2  0
 30 29  1  1
 30 31  1  0
 30 32  1  0
 32 36  2  0
 32 33  1  0
 34 28  1  0
 35 34  2  0
 35 25  1  0
M  END
$$$$
