WEY.pdb
     RDKit          3D

 36 38  0  0  1  0  0  0  0  0999 V2000
   26.0451  -22.6203  -13.2395 N   0  0  0  0  0  0  0  0  0  0  0  0
   25.4646  -21.5386  -12.4765 C   0  0  1  0  0  0  0  0  0  0  0  0
   26.2651  -20.2643  -12.6559 C   0  0  0  0  0  0  0  0  0  0  0  0
   27.6164  -20.4115  -12.0579 C   0  0  0  0  0  0  0  0  0  0  0  0
   28.8536  -20.4979  -12.6564 C   0  0  0  0  0  0  0  0  0  0  0  0
   29.7979  -20.6248  -11.7210 N   0  0  0  0  0  0  0  0  0  0  0  0
   29.2360  -20.6270  -10.5025 C   0  0  0  0  0  0  0  0  0  0  0  0
   29.7553  -20.7303   -9.2258 C   0  0  0  0  0  0  0  0  0  0  0  0
   28.8942  -20.6985   -8.1695 C   0  0  0  0  0  0  0  0  0  0  0  0
   27.5160  -20.5651   -8.3551 C   0  0  0  0  0  0  0  0  0  0  0  0
   26.9988  -20.4621   -9.6286 C   0  0  0  0  0  0  0  0  0  0  0  0
   27.8642  -20.4937  -10.6983 C   0  0  0  0  0  0  0  0  0  0  0  0
   24.0482  -21.3635  -12.9632 C   0  0  0  0  0  0  0  0  0  0  0  0
   23.8054  -21.5102  -14.1751 O   0  0  0  0  0  0  0  0  0  0  0  0
   23.0037  -21.0386  -12.0674 N   0  0  0  0  0  0  0  0  0  0  0  0
   21.6113  -21.1847  -12.2610 C   0  0  1  0  0  0  0  0  0  0  0  0
   20.8021  -21.6113  -11.0409 C   0  0  0  0  0  0  0  0  0  0  0  0
   19.3450  -21.7728  -11.2902 C   0  0  0  0  0  0  0  0  0  0  0  0
   18.6290  -22.0861  -10.0088 C   0  0  0  0  0  0  0  0  0  0  0  0
   19.2613  -22.1488   -8.9421 O   0  0  0  0  0  0  0  0  0  0  0  0
   20.9350  -20.0438  -12.8807 C   0  0  0  0  0  0  0  0  0  0  0  0
   21.2631  -18.8800  -12.4641 O   0  0  0  0  0  0  0  0  0  0  0  0
   17.2628  -22.2974  -10.0683 O   0  0  0  0  0  0  0  0  0  0  0  0
   21.7576  -16.2188  -20.4003 O   0  0  0  0  0  0  0  0  0  0  0  0
   21.6958  -16.9755  -19.2376 C   0  0  0  0  0  0  0  0  0  0  0  0
   20.8743  -18.0856  -19.2057 C   0  0  0  0  0  0  0  0  0  0  0  0
   20.7726  -18.8734  -18.0808 C   0  0  0  0  0  0  0  0  0  0  0  0
   21.5137  -18.5540  -16.9355 C   0  0  0  0  0  0  0  0  0  0  0  0
   21.3861  -19.3815  -15.7327 C   0  0  0  0  0  0  0  0  0  0  0  0
   20.0305  -19.2924  -15.1190 C   0  0  2  0  0  0  0  0  0  0  0  0
   19.9642  -20.0987  -13.8847 N   0  0  0  0  0  0  0  0  0  0  0  0
   19.0124  -19.8181  -16.0314 C   0  0  0  0  0  0  0  0  0  0  0  0
   18.4679  -21.0667  -15.8243 O   0  0  0  0  0  0  0  0  0  0  0  0
   22.3392  -17.4295  -16.9828 C   0  0  0  0  0  0  0  0  0  0  0  0
   22.4234  -16.6571  -18.1207 C   0  0  0  0  0  0  0  0  0  0  0  0
   18.6271  -19.1425  -17.0090 O   0  0  0  0  0  0  0  0  0  0  0  0
  2  1  1  6
  3  2  1  0
  4  3  1  0
  4 12  1  0
  5  6  1  0
  5  4  2  0
  6  7  1  0
  7  8  2  0
  7 12  1  0
  8  9  1  0
  9 10  2  0
 11 10  1  0
 12 11  2  0
 13  2  1  0
 14 13  2  0
 15 13  1  0
 16 15  1  0
 16 17  1  1
 18 17  1  0
 19 23  1  0
 19 18  1  0
 20 19  2  0
 21 16  1  0
 21 31  1  0
 22 21  2  0
 24 25  1  0
 25 26  2  0
 26 27  1  0
 28 29  1  0
 28 27  2  0
 30 29  1  6
 30 31  1  0
 30 32  1  0
 32 36  2  0
 32 33  1  0
 34 28  1  0
 35 34  2  0
 35 25  1  0
M  END
$$$$
