WEY.pdb
     RDKit          3D

 36 38  0  0  1  0  0  0  0  0999 V2000
   21.9516  -17.3568  -18.4081 N   0  0  0  0  0  0  0  0  0  0  0  0
   21.4246  -16.7145  -19.5909 C   0  0  1  0  0  0  0  0  0  0  0  0
   19.9152  -16.8403  -19.6435 C   0  0  0  0  0  0  0  0  0  0  0  0
   19.5166  -18.2666  -19.7531 C   0  0  0  0  0  0  0  0  0  0  0  0
   19.0555  -19.1415  -18.7948 C   0  0  0  0  0  0  0  0  0  0  0  0
   18.8224  -20.3337  -19.3491 N   0  0  0  0  0  0  0  0  0  0  0  0
   19.1125  -20.2929  -20.6585 C   0  0  0  0  0  0  0  0  0  0  0  0
   19.0494  -21.2356  -21.6673 C   0  0  0  0  0  0  0  0  0  0  0  0
   19.4251  -20.8677  -22.9250 C   0  0  0  0  0  0  0  0  0  0  0  0
   19.8662  -19.5721  -23.2053 C   0  0  0  0  0  0  0  0  0  0  0  0
   19.9289  -18.6324  -22.1989 C   0  0  0  0  0  0  0  0  0  0  0  0
   19.5505  -18.9991  -20.9274 C   0  0  0  0  0  0  0  0  0  0  0  0
   21.8476  -15.2683  -19.5354 C   0  0  0  0  0  0  0  0  0  0  0  0
   21.6567  -14.6248  -18.4873 O   0  0  0  0  0  0  0  0  0  0  0  0
   22.4531  -14.6419  -20.6489 N   0  0  0  0  0  0  0  0  0  0  0  0
   22.7806  -13.2765  -20.8105 C   0  0  1  0  0  0  0  0  0  0  0  0
   23.6770  -12.9339  -21.9956 C   0  0  0  0  0  0  0  0  0  0  0  0
   25.0872  -13.3849  -21.8557 C   0  0  0  0  0  0  0  0  0  0  0  0
   25.8436  -13.1311  -23.1270 C   0  0  0  0  0  0  0  0  0  0  0  0
   26.3864  -12.0310  -23.3189 O   0  0  0  0  0  0  0  0  0  0  0  0
   21.6476  -12.3495  -20.8126 C   0  0  0  0  0  0  0  0  0  0  0  0
   20.5168  -12.8178  -21.1836 O   0  0  0  0  0  0  0  0  0  0  0  0
   25.9072  -14.1553  -24.0552 O   0  0  0  0  0  0  0  0  0  0  0  0
   14.8887   -7.2601  -19.4591 O   0  0  0  0  0  0  0  0  0  0  0  0
   16.0110   -8.0779  -19.4658 C   0  0  0  0  0  0  0  0  0  0  0  0
   16.2958   -8.8126  -20.6004 C   0  0  0  0  0  0  0  0  0  0  0  0
   17.3946   -9.6401  -20.6649 C   0  0  0  0  0  0  0  0  0  0  0  0
   18.2522   -9.7489  -19.5623 C   0  0  0  0  0  0  0  0  0  0  0  0
   19.4081  -10.6475  -19.6262 C   0  0  0  0  0  0  0  0  0  0  0  0
   20.4931  -10.1215  -20.5026 C   0  0  2  0  0  0  0  0  0  0  0  0
   21.6775  -11.0003  -20.4487 N   0  0  0  0  0  0  0  0  0  0  0  0
   20.9220   -8.7937  -20.0572 C   0  0  0  0  0  0  0  0  0  0  0  0
   20.0379   -7.7370  -20.0620 O   0  0  0  0  0  0  0  0  0  0  0  0
   17.9515   -9.0006  -18.4231 C   0  0  0  0  0  0  0  0  0  0  0  0
   16.8456   -8.1797  -18.3834 C   0  0  0  0  0  0  0  0  0  0  0  0
   22.0942   -8.6026  -19.6699 O   0  0  0  0  0  0  0  0  0  0  0  0
  2  1  1  1
  3  2  1  0
  4  3  1  0
  4 12  1  0
  5  6  1  0
  5  4  2  0
  6  7  1  0
  7  8  2  0
  7 12  1  0
  8  9  1  0
  9 10  2  0
 11 10  1  0
 12 11  2  0
 13  2  1  0
 14 13  2  0
 15 13  1  0
 16 15  1  0
 16 17  1  6
 18 17  1  0
 19 23  1  0
 19 18  1  0
 20 19  2  0
 21 16  1  0
 21 31  1  0
 22 21  2  0
 24 25  1  0
 25 26  2  0
 26 27  1  0
 28 29  1  0
 28 27  2  0
 30 29  1  1
 30 31  1  0
 30 32  1  0
 32 36  2  0
 32 33  1  0
 34 28  1  0
 35 34  2  0
 35 25  1  0
M  END
$$$$
