WEY.pdb
     RDKit          3D

 36 38  0  0  1  0  0  0  0  0999 V2000
   30.0805  -26.3103    9.2014 N   0  0  0  0  0  0  0  0  0  0  0  0
   28.9302  -26.9702    9.7765 C   0  0  1  0  0  0  0  0  0  0  0  0
   27.6782  -26.6576    8.9819 C   0  0  0  0  0  0  0  0  0  0  0  0
   27.3032  -25.2300    9.1443 C   0  0  0  0  0  0  0  0  0  0  0  0
   28.0854  -24.0967    9.1564 C   0  0  0  0  0  0  0  0  0  0  0  0
   27.3153  -23.0204    9.3338 N   0  0  0  0  0  0  0  0  0  0  0  0
   26.0304  -23.3916    9.4426 C   0  0  0  0  0  0  0  0  0  0  0  0
   24.8582  -22.6841    9.6322 C   0  0  0  0  0  0  0  0  0  0  0  0
   23.6856  -23.3758    9.7013 C   0  0  0  0  0  0  0  0  0  0  0  0
   23.6514  -24.7676    9.5850 C   0  0  0  0  0  0  0  0  0  0  0  0
   24.8206  -25.4725    9.3959 C   0  0  0  0  0  0  0  0  0  0  0  0
   26.0071  -24.7785    9.3254 C   0  0  0  0  0  0  0  0  0  0  0  0
   29.2208  -28.4498    9.7729 C   0  0  0  0  0  0  0  0  0  0  0  0
   30.0971  -28.8896    9.0063 O   0  0  0  0  0  0  0  0  0  0  0  0
   28.5165  -29.3339   10.6222 N   0  0  0  0  0  0  0  0  0  0  0  0
   28.4790  -30.7459   10.5738 C   0  0  1  0  0  0  0  0  0  0  0  0
   28.1142  -31.4556   11.8733 C   0  0  0  0  0  0  0  0  0  0  0  0
   28.2224  -32.9379   11.8204 C   0  0  0  0  0  0  0  0  0  0  0  0
   28.0959  -33.5187   13.1987 C   0  0  0  0  0  0  0  0  0  0  0  0
   27.9387  -32.7706   14.1770 O   0  0  0  0  0  0  0  0  0  0  0  0
   27.6708  -31.3214    9.4974 C   0  0  0  0  0  0  0  0  0  0  0  0
   26.5676  -30.7348    9.2245 O   0  0  0  0  0  0  0  0  0  0  0  0
   28.1611  -34.8949   13.3271 O   0  0  0  0  0  0  0  0  0  0  0  0
   28.4658  -32.6690    1.4897 O   0  0  0  0  0  0  0  0  0  0  0  0
   28.2986  -32.9747    2.8340 C   0  0  0  0  0  0  0  0  0  0  0  0
   28.3032  -34.3000    3.2235 C   0  0  0  0  0  0  0  0  0  0  0  0
   28.1419  -34.6631    4.5420 C   0  0  0  0  0  0  0  0  0  0  0  0
   27.9687  -33.6763    5.5216 C   0  0  0  0  0  0  0  0  0  0  0  0
   27.7750  -34.0670    6.9207 C   0  0  0  0  0  0  0  0  0  0  0  0
   27.0793  -33.0158    7.7164 C   0  0  2  0  0  0  0  0  0  0  0  0
   27.9846  -32.4505    8.7357 N   0  0  0  0  0  0  0  0  0  0  0  0
   25.9294  -33.5793    8.4274 C   0  0  0  0  0  0  0  0  0  0  0  0
   26.0884  -34.1443    9.6739 O   0  0  0  0  0  0  0  0  0  0  0  0
   27.9663  -32.3418    5.1128 C   0  0  0  0  0  0  0  0  0  0  0  0
   28.1295  -32.0043    3.7869 C   0  0  0  0  0  0  0  0  0  0  0  0
   24.7917  -33.5568    7.9120 O   0  0  0  0  0  0  0  0  0  0  0  0
  2  1  1  6
  3  2  1  0
  4  3  1  0
  4 12  1  0
  5  6  1  0
  5  4  2  0
  6  7  1  0
  7  8  2  0
  7 12  1  0
  8  9  1  0
  9 10  2  0
 11 10  1  0
 12 11  2  0
 13  2  1  0
 14 13  2  0
 15 13  1  0
 16 15  1  0
 16 17  1  1
 18 17  1  0
 19 23  1  0
 19 18  1  0
 20 19  2  0
 21 16  1  0
 21 31  1  0
 22 21  2  0
 24 25  1  0
 25 26  2  0
 26 27  1  0
 28 29  1  0
 28 27  2  0
 30 29  1  1
 30 31  1  0
 30 32  1  0
 32 36  2  0
 32 33  1  0
 34 28  1  0
 35 34  2  0
 35 25  1  0
M  END
$$$$
