WEY.pdb
     RDKit          3D

 36 38  0  0  1  0  0  0  0  0999 V2000
   26.9589  -19.0561  -12.0180 N   0  0  0  0  0  0  0  0  0  0  0  0
   27.2586  -20.4354  -12.3296 C   0  0  1  0  0  0  0  0  0  0  0  0
   26.4635  -21.3720  -11.4423 C   0  0  0  0  0  0  0  0  0  0  0  0
   26.5201  -20.9208  -10.0287 C   0  0  0  0  0  0  0  0  0  0  0  0
   25.5294  -20.4315   -9.2067 C   0  0  0  0  0  0  0  0  0  0  0  0
   26.0402  -20.1485   -8.0059 N   0  0  0  0  0  0  0  0  0  0  0  0
   27.3516  -20.4324   -7.9893 C   0  0  0  0  0  0  0  0  0  0  0  0
   28.3262  -20.3264   -7.0150 C   0  0  0  0  0  0  0  0  0  0  0  0
   29.5979  -20.7083   -7.3236 C   0  0  0  0  0  0  0  0  0  0  0  0
   29.9258  -21.1977   -8.5903 C   0  0  0  0  0  0  0  0  0  0  0  0
   28.9534  -21.3033   -9.5615 C   0  0  0  0  0  0  0  0  0  0  0  0
   27.6679  -20.9190   -9.2546 C   0  0  0  0  0  0  0  0  0  0  0  0
   26.9186  -20.6450  -13.7836 C   0  0  0  0  0  0  0  0  0  0  0  0
   25.9507  -20.0322  -14.2701 O   0  0  0  0  0  0  0  0  0  0  0  0
   27.6794  -21.5204  -14.5921 N   0  0  0  0  0  0  0  0  0  0  0  0
   27.4288  -21.9156  -15.9257 C   0  0  1  0  0  0  0  0  0  0  0  0
   28.5049  -22.7679  -16.5899 C   0  0  0  0  0  0  0  0  0  0  0  0
   29.7852  -22.0569  -16.8489 C   0  0  0  0  0  0  0  0  0  0  0  0
   29.6343  -21.1194  -18.0113 C   0  0  0  0  0  0  0  0  0  0  0  0
   30.0119  -19.9407  -17.9129 O   0  0  0  0  0  0  0  0  0  0  0  0
   26.1318  -22.5510  -16.1648 C   0  0  0  0  0  0  0  0  0  0  0  0
   25.9265  -23.6792  -15.5987 O   0  0  0  0  0  0  0  0  0  0  0  0
   29.0677  -21.6165  -19.1716 O   0  0  0  0  0  0  0  0  0  0  0  0
   18.4511  -20.4781  -13.1368 O   0  0  0  0  0  0  0  0  0  0  0  0
   19.7336  -20.6167  -13.6509 C   0  0  0  0  0  0  0  0  0  0  0  0
   20.3777  -21.8319  -13.5217 C   0  0  0  0  0  0  0  0  0  0  0  0
   21.6496  -22.0278  -14.0117 C   0  0  0  0  0  0  0  0  0  0  0  0
   22.3176  -20.9798  -14.6588 C   0  0  0  0  0  0  0  0  0  0  0  0
   23.6796  -21.1849  -15.1593 C   0  0  0  0  0  0  0  0  0  0  0  0
   23.7063  -21.9030  -16.4653 C   0  0  2  0  0  0  0  0  0  0  0  0
   25.0923  -22.0470  -16.9516 N   0  0  0  0  0  0  0  0  0  0  0  0
   22.9685  -21.1535  -17.4847 C   0  0  0  0  0  0  0  0  0  0  0  0
   23.6426  -20.4837  -18.4824 O   0  0  0  0  0  0  0  0  0  0  0  0
   21.6541  -19.7580  -14.7817 C   0  0  0  0  0  0  0  0  0  0  0  0
   20.3812  -19.5871  -14.2825 C   0  0  0  0  0  0  0  0  0  0  0  0
   21.7203  -21.1104  -17.4610 O   0  0  0  0  0  0  0  0  0  0  0  0
  2  1  1  1
  3  2  1  0
  4  3  1  0
  4 12  1  0
  5  6  1  0
  5  4  2  0
  6  7  1  0
  7  8  2  0
  7 12  1  0
  8  9  1  0
  9 10  2  0
 11 10  1  0
 12 11  2  0
 13  2  1  0
 14 13  2  0
 15 13  1  0
 16 15  1  0
 16 17  1  1
 18 17  1  0
 19 23  1  0
 19 18  1  0
 20 19  2  0
 21 16  1  0
 21 31  1  0
 22 21  2  0
 24 25  1  0
 25 26  2  0
 26 27  1  0
 28 29  1  0
 28 27  2  0
 30 29  1  1
 30 31  1  0
 30 32  1  0
 32 36  2  0
 32 33  1  0
 34 28  1  0
 35 34  2  0
 35 25  1  0
M  END
$$$$
