WEY.pdb
     RDKit          3D

 36 38  0  0  1  0  0  0  0  0999 V2000
   17.3308  -15.3266    7.6010 N   0  0  0  0  0  0  0  0  0  0  0  0
   17.8607  -16.0900    6.4939 C   0  0  1  0  0  0  0  0  0  0  0  0
   19.2274  -15.5741    6.0906 C   0  0  0  0  0  0  0  0  0  0  0  0
   19.1040  -14.2727    5.3860 C   0  0  0  0  0  0  0  0  0  0  0  0
   19.5152  -13.0125    5.7589 C   0  0  0  0  0  0  0  0  0  0  0  0
   19.1902  -12.1335    4.8077 N   0  0  0  0  0  0  0  0  0  0  0  0
   18.5691  -12.7623    3.7981 C   0  0  0  0  0  0  0  0  0  0  0  0
   18.0406  -12.3244    2.5984 C   0  0  0  0  0  0  0  0  0  0  0  0
   17.4606  -13.2396    1.7711 C   0  0  0  0  0  0  0  0  0  0  0  0
   17.3935  -14.5926    2.1125 C   0  0  0  0  0  0  0  0  0  0  0  0
   17.9208  -15.0288    3.3090 C   0  0  0  0  0  0  0  0  0  0  0  0
   18.5075  -14.1084    4.1475 C   0  0  0  0  0  0  0  0  0  0  0  0
   17.9332  -17.5279    6.9418 C   0  0  0  0  0  0  0  0  0  0  0  0
   18.8701  -17.8820    7.6808 O   0  0  0  0  0  0  0  0  0  0  0  0
   16.9586  -18.4686    6.5365 N   0  0  0  0  0  0  0  0  0  0  0  0
   16.9578  -19.8671    6.7407 C   0  0  1  0  0  0  0  0  0  0  0  0
   15.6845  -20.4611    7.3333 C   0  0  0  0  0  0  0  0  0  0  0  0
   15.7305  -21.9315    7.5510 C   0  0  0  0  0  0  0  0  0  0  0  0
   16.1637  -22.2368    8.9553 C   0  0  0  0  0  0  0  0  0  0  0  0
   17.3704  -22.2378    9.2478 O   0  0  0  0  0  0  0  0  0  0  0  0
   17.3427  -20.6763    5.5831 C   0  0  0  0  0  0  0  0  0  0  0  0
   16.8766  -20.3200    4.4467 O   0  0  0  0  0  0  0  0  0  0  0  0
   15.1797  -22.5111    9.8886 O   0  0  0  0  0  0  0  0  0  0  0  0
   21.0608  -26.6668    0.1920 O   0  0  0  0  0  0  0  0  0  0  0  0
   20.6684  -25.9213    1.2959 C   0  0  0  0  0  0  0  0  0  0  0  0
   21.4240  -24.8255    1.6651 C   0  0  0  0  0  0  0  0  0  0  0  0
   21.0835  -24.0493    2.7504 C   0  0  0  0  0  0  0  0  0  0  0  0
   19.9471  -24.3662    3.5063 C   0  0  0  0  0  0  0  0  0  0  0  0
   19.6002  -23.5514    4.6740 C   0  0  0  0  0  0  0  0  0  0  0  0
   18.5366  -22.5503    4.3765 C   0  0  2  0  0  0  0  0  0  0  0  0
   18.1709  -21.8021    5.5950 N   0  0  0  0  0  0  0  0  0  0  0  0
   17.3210  -23.2117    3.8968 C   0  0  0  0  0  0  0  0  0  0  0  0
   16.5159  -23.9101    4.7700 O   0  0  0  0  0  0  0  0  0  0  0  0
   19.1938  -25.4762    3.1211 C   0  0  0  0  0  0  0  0  0  0  0  0
   19.5556  -26.2373    2.0310 C   0  0  0  0  0  0  0  0  0  0  0  0
   17.0006  -23.1529    2.6908 O   0  0  0  0  0  0  0  0  0  0  0  0
  2  1  1  1
  3  2  1  0
  4  3  1  0
  4 12  1  0
  5  6  1  0
  5  4  2  0
  6  7  1  0
  7  8  2  0
  7 12  1  0
  8  9  1  0
  9 10  2  0
 11 10  1  0
 12 11  2  0
 13  2  1  0
 14 13  2  0
 15 13  1  0
 16 15  1  0
 16 17  1  6
 18 17  1  0
 19 23  1  0
 19 18  1  0
 20 19  2  0
 21 16  1  0
 21 31  1  0
 22 21  2  0
 24 25  1  0
 25 26  2  0
 26 27  1  0
 28 29  1  0
 28 27  2  0
 30 29  1  1
 30 31  1  0
 30 32  1  0
 32 36  2  0
 32 33  1  0
 34 28  1  0
 35 34  2  0
 35 25  1  0
M  END
$$$$
