WEY.pdb
     RDKit          3D

 36 38  0  0  1  0  0  0  0  0999 V2000
   25.5315  -21.3730  -14.1839 N   0  0  0  0  0  0  0  0  0  0  0  0
   24.5615  -21.3315  -15.2548 C   0  0  1  0  0  0  0  0  0  0  0  0
   23.8243  -22.6511  -15.3637 C   0  0  0  0  0  0  0  0  0  0  0  0
   24.7868  -23.7735  -15.5017 C   0  0  0  0  0  0  0  0  0  0  0  0
   24.9468  -24.9116  -14.7430 C   0  0  0  0  0  0  0  0  0  0  0  0
   25.9466  -25.6452  -15.2378 N   0  0  0  0  0  0  0  0  0  0  0  0
   26.4708  -25.0366  -16.3127 C   0  0  0  0  0  0  0  0  0  0  0  0
   27.5013  -25.3662  -17.1728 C   0  0  0  0  0  0  0  0  0  0  0  0
   27.7935  -24.5120  -18.1942 C   0  0  0  0  0  0  0  0  0  0  0  0
   27.0781  -23.3268  -18.3818 C   0  0  0  0  0  0  0  0  0  0  0  0
   26.0505  -22.9988  -17.5237 C   0  0  0  0  0  0  0  0  0  0  0  0
   25.7517  -23.8581  -16.4909 C   0  0  0  0  0  0  0  0  0  0  0  0
   23.6109  -20.2019  -14.9478 C   0  0  0  0  0  0  0  0  0  0  0  0
   23.2927  -19.9875  -13.7638 O   0  0  0  0  0  0  0  0  0  0  0  0
   23.0831  -19.3917  -15.9792 N   0  0  0  0  0  0  0  0  0  0  0  0
   22.1075  -18.3742  -15.8767 C   0  0  1  0  0  0  0  0  0  0  0  0
   21.7688  -17.6325  -17.1653 C   0  0  0  0  0  0  0  0  0  0  0  0
   20.7701  -16.5420  -17.0076 C   0  0  0  0  0  0  0  0  0  0  0  0
   21.4630  -15.2194  -16.8542 C   0  0  0  0  0  0  0  0  0  0  0  0
   22.5193  -14.9957  -17.4672 O   0  0  0  0  0  0  0  0  0  0  0  0
   20.8526  -18.7629  -15.2309 C   0  0  0  0  0  0  0  0  0  0  0  0
   20.4391  -19.9551  -15.4392 O   0  0  0  0  0  0  0  0  0  0  0  0
   20.8846  -14.2815  -16.0174 O   0  0  0  0  0  0  0  0  0  0  0  0
   13.8170  -19.3923   -9.9521 O   0  0  0  0  0  0  0  0  0  0  0  0
   15.0165  -19.0224  -10.5460 C   0  0  0  0  0  0  0  0  0  0  0  0
   15.0646  -17.8563  -11.2851 C   0  0  0  0  0  0  0  0  0  0  0  0
   16.2259  -17.4394  -11.8966 C   0  0  0  0  0  0  0  0  0  0  0  0
   17.3929  -18.2052  -11.7746 C   0  0  0  0  0  0  0  0  0  0  0  0
   18.6212  -17.7703  -12.4453 C   0  0  0  0  0  0  0  0  0  0  0  0
   18.8194  -18.4374  -13.7635 C   0  0  2  0  0  0  0  0  0  0  0  0
   20.0587  -17.9600  -14.4072 N   0  0  0  0  0  0  0  0  0  0  0  0
   17.7147  -18.1264  -14.6737 C   0  0  0  0  0  0  0  0  0  0  0  0
   16.6063  -18.9429  -14.7299 O   0  0  0  0  0  0  0  0  0  0  0  0
   17.3287  -19.3807  -11.0249 C   0  0  0  0  0  0  0  0  0  0  0  0
   16.1543  -19.7765  -10.4227 C   0  0  0  0  0  0  0  0  0  0  0  0
   17.7647  -17.1194  -15.4111 O   0  0  0  0  0  0  0  0  0  0  0  0
  2  1  1  1
  3  2  1  0
  4  3  1  0
  4 12  1  0
  5  6  1  0
  5  4  2  0
  6  7  1  0
  7  8  2  0
  7 12  1  0
  8  9  1  0
  9 10  2  0
 11 10  1  0
 12 11  2  0
 13  2  1  0
 14 13  2  0
 15 13  1  0
 16 15  1  0
 16 17  1  6
 18 17  1  0
 19 23  1  0
 19 18  1  0
 20 19  2  0
 21 16  1  0
 21 31  1  0
 22 21  2  0
 24 25  1  0
 25 26  2  0
 26 27  1  0
 28 29  1  0
 28 27  2  0
 30 29  1  1
 30 31  1  0
 30 32  1  0
 32 36  2  0
 32 33  1  0
 34 28  1  0
 35 34  2  0
 35 25  1  0
M  END
$$$$
