RKD.pdb
     RDKit          3D

 29 28  0  0  1  0  0  0  0  0999 V2000
   31.3260  -22.5690  -10.5641 N   0  0  0  0  0  0  0  0  0  0  0  0
   30.5722  -22.0433   -9.4934 C   0  0  0  0  0  0  0  0  0  0  0  0
   31.1469  -21.6583   -8.3968 N   0  0  0  0  0  0  0  0  0  0  0  0
   29.1655  -21.9270   -9.5952 N   0  0  0  0  0  0  0  0  0  0  0  0
   28.5543  -22.3443  -10.8688 C   0  0  0  0  0  0  0  0  0  0  0  0
   28.2700  -21.0987  -11.6502 C   0  0  0  0  0  0  0  0  0  0  0  0
   26.9146  -20.5057  -11.4809 C   0  0  0  0  0  0  0  0  0  0  0  0
   25.8652  -21.2788  -12.1797 C   0  0  2  0  0  0  0  0  0  0  0  0
   26.3775  -22.0780  -13.2338 N   0  0  0  0  0  0  0  0  0  0  0  0
   24.7194  -20.4149  -12.6269 C   0  0  0  0  0  0  0  0  0  0  0  0
   24.1737  -19.7146  -11.7369 O   0  0  0  0  0  0  0  0  0  0  0  0
   30.5984  -21.4137   -7.5449 N   0  0  0  0  0  0  0  0  0  0  0  0
   24.2616  -20.3739  -13.9663 C   0  0  1  0  0  0  0  0  0  0  0  0
   23.0716  -19.5616  -14.3476 C   0  0  0  0  0  0  0  0  0  0  0  0
   23.4286  -18.8033  -15.6054 C   0  0  0  0  0  0  0  0  0  0  0  0
   22.3962  -17.8871  -16.1423 C   0  0  0  0  0  0  0  0  0  0  0  0
   22.8135  -17.1789  -17.4045 C   0  0  0  0  0  0  0  0  0  0  0  0
   21.6782  -16.2603  -17.7995 N   0  0  0  0  0  0  0  0  0  0  0  0
   22.0265  -15.4492  -18.9390 C   0  0  0  0  0  0  0  0  0  0  0  0
   21.9090  -20.4429  -14.4564 O   0  0  0  0  0  0  0  0  0  0  0  0
   22.1006  -21.5714  -15.0350 N   0  0  0  0  0  0  0  0  0  0  0  0
   20.6007  -20.2196  -14.0040 C   0  0  1  0  0  0  0  0  0  0  0  0
   19.5486  -21.2046  -14.2596 C   0  0  0  0  0  0  0  0  0  0  0  0
   18.5625  -21.2107  -13.1188 C   0  0  0  0  0  0  0  0  0  0  0  0
   18.8968  -22.2786  -12.1648 O   0  0  0  0  0  0  0  0  0  0  0  0
   18.3046  -22.5249  -11.0863 C   0  0  0  0  0  0  0  0  0  0  0  0
   18.9163  -20.8931  -15.5547 O   0  0  0  0  0  0  0  0  0  0  0  0
   18.7475  -19.5286  -15.8773 O   0  0  0  0  0  0  0  0  0  0  0  0
   19.9826  -23.1588  -12.4167 O   0  0  0  0  0  0  0  0  0  0  0  0
  2  1  1  0
  2  3  2  0
  4  2  1  0
  5  4  1  0
  6  5  1  0
  7  6  1  0
  8  9  1  6
  8  7  1  0
 10  8  1  0
 10 11  2  0
 12 10  1  0
 13 12  1  0
 13 19  1  0
 13 14  1  1
 15 14  1  0
 16 15  1  0
 17 16  1  0
 18 17  1  0
 19 21  1  0
 19 20  2  0
 21 22  1  0
 22 23  1  6
 24 23  1  0
 24 28  1  0
 25 24  2  0
 26 27  1  0
 26 22  1  0
 29 26  2  0
M  END
$$$$
