RKD.pdb
     RDKit          3D

 29 28  0  0  1  0  0  0  0  0999 V2000
   26.8961  -21.5147   -9.5840 N   0  0  0  0  0  0  0  0  0  0  0  0
   25.6594  -21.2923  -10.2257 C   0  0  0  0  0  0  0  0  0  0  0  0
   24.5440  -21.3541   -9.5675 N   0  0  0  0  0  0  0  0  0  0  0  0
   25.6115  -20.9973  -11.6090 N   0  0  0  0  0  0  0  0  0  0  0  0
   26.7820  -21.3885  -12.4131 C   0  0  0  0  0  0  0  0  0  0  0  0
   27.7218  -20.2224  -12.4197 C   0  0  0  0  0  0  0  0  0  0  0  0
   27.3790  -19.1008  -13.3372 C   0  0  0  0  0  0  0  0  0  0  0  0
   27.2455  -19.5381  -14.7436 C   0  0  2  0  0  0  0  0  0  0  0  0
   28.4775  -19.5207  -15.4467 N   0  0  0  0  0  0  0  0  0  0  0  0
   26.1636  -18.7937  -15.4747 C   0  0  0  0  0  0  0  0  0  0  0  0
   26.3812  -17.5754  -15.6947 O   0  0  0  0  0  0  0  0  0  0  0  0
   23.6251  -21.1712  -10.0242 N   0  0  0  0  0  0  0  0  0  0  0  0
   24.9599  -19.4056  -15.9015 C   0  0  2  0  0  0  0  0  0  0  0  0
   23.8652  -18.6025  -16.5164 C   0  0  0  0  0  0  0  0  0  0  0  0
   24.1646  -18.4902  -17.9937 C   0  0  0  0  0  0  0  0  0  0  0  0
   23.1853  -17.7398  -18.8130 C   0  0  0  0  0  0  0  0  0  0  0  0
   23.5289  -17.6983  -20.2789 C   0  0  0  0  0  0  0  0  0  0  0  0
   22.5013  -16.8180  -20.9557 N   0  0  0  0  0  0  0  0  0  0  0  0
   22.7351  -16.7279  -22.3752 C   0  0  0  0  0  0  0  0  0  0  0  0
   22.5798  -19.2163  -16.1828 O   0  0  0  0  0  0  0  0  0  0  0  0
   22.6241  -20.2816  -15.4699 N   0  0  0  0  0  0  0  0  0  0  0  0
   21.2921  -18.7895  -16.5373 C   0  0  1  0  0  0  0  0  0  0  0  0
   20.1524  -19.0602  -15.6596 C   0  0  0  0  0  0  0  0  0  0  0  0
   20.5614  -18.8880  -14.2185 C   0  0  0  0  0  0  0  0  0  0  0  0
   19.4296  -19.1912  -13.3301 O   0  0  0  0  0  0  0  0  0  0  0  0
   18.2594  -19.4722  -13.6856 C   0  0  0  0  0  0  0  0  0  0  0  0
   19.0403  -18.1716  -16.0440 O   0  0  0  0  0  0  0  0  0  0  0  0
   17.7468  -18.7374  -16.0804 O   0  0  0  0  0  0  0  0  0  0  0  0
   19.5961  -19.1853  -11.9197 O   0  0  0  0  0  0  0  0  0  0  0  0
  2  1  1  0
  2  3  2  0
  4  2  1  0
  5  4  1  0
  6  5  1  0
  7  6  1  0
  8  9  1  6
  8  7  1  0
 10  8  1  0
 10 11  2  0
 12 10  1  0
 13 12  1  0
 13 19  1  0
 13 14  1  6
 15 14  1  0
 16 15  1  0
 17 16  1  0
 18 17  1  0
 19 21  1  0
 19 20  2  0
 21 22  1  0
 22 23  1  6
 24 23  1  0
 24 28  1  0
 25 24  2  0
 26 27  1  0
 26 22  1  0
 29 26  2  0
M  END
$$$$
