RKD.pdb
     RDKit          3D

 29 28  0  0  1  0  0  0  0  0999 V2000
   31.6949  -21.5294  -11.3990 N   0  0  0  0  0  0  0  0  0  0  0  0
   31.4291  -21.8589  -10.0530 C   0  0  0  0  0  0  0  0  0  0  0  0
   32.3889  -22.1709   -9.2390 N   0  0  0  0  0  0  0  0  0  0  0  0
   30.1016  -21.8571   -9.5625 N   0  0  0  0  0  0  0  0  0  0  0  0
   29.0699  -21.2762  -10.4387 C   0  0  0  0  0  0  0  0  0  0  0  0
   27.7889  -21.2639   -9.6630 C   0  0  0  0  0  0  0  0  0  0  0  0
   26.6602  -20.4982  -10.2605 C   0  0  0  0  0  0  0  0  0  0  0  0
   25.8902  -21.2939  -11.2408 C   0  0  2  0  0  0  0  0  0  0  0  0
   26.6834  -22.2580  -11.9145 N   0  0  0  0  0  0  0  0  0  0  0  0
   25.1129  -20.4309  -12.1949 C   0  0  0  0  0  0  0  0  0  0  0  0
   24.3468  -19.5811  -11.6742 O   0  0  0  0  0  0  0  0  0  0  0  0
   32.2065  -22.4197   -8.2434 N   0  0  0  0  0  0  0  0  0  0  0  0
   25.2190  -20.5480  -13.6021 C   0  0  1  0  0  0  0  0  0  0  0  0
   24.4295  -19.6669  -14.5087 C   0  0  0  0  0  0  0  0  0  0  0  0
   25.3387  -19.2614  -15.6461 C   0  0  0  0  0  0  0  0  0  0  0  0
   25.0471  -17.9634  -16.2968 C   0  0  0  0  0  0  0  0  0  0  0  0
   26.0330  -17.5914  -17.3731 C   0  0  0  0  0  0  0  0  0  0  0  0
   25.5864  -16.2671  -17.9522 N   0  0  0  0  0  0  0  0  0  0  0  0
   26.4968  -15.8001  -18.9675 C   0  0  0  0  0  0  0  0  0  0  0  0
   23.2058  -20.3647  -14.9034 O   0  0  0  0  0  0  0  0  0  0  0  0
   23.1928  -21.6356  -14.7314 N   0  0  0  0  0  0  0  0  0  0  0  0
   22.0309  -19.8246  -15.4456 C   0  0  2  0  0  0  0  0  0  0  0  0
   20.7212  -20.3290  -15.0299 C   0  0  0  0  0  0  0  0  0  0  0  0
   20.6584  -20.4173  -13.5259 C   0  0  0  0  0  0  0  0  0  0  0  0
   20.0423  -21.6885  -13.1176 O   0  0  0  0  0  0  0  0  0  0  0  0
   19.5463  -22.5534  -13.8796 C   0  0  0  0  0  0  0  0  0  0  0  0
   19.6783  -19.4505  -15.5910 O   0  0  0  0  0  0  0  0  0  0  0  0
   19.5207  -18.1783  -14.9984 O   0  0  0  0  0  0  0  0  0  0  0  0
   19.9620  -22.0448  -11.7451 O   0  0  0  0  0  0  0  0  0  0  0  0
  2  1  1  0
  2  3  2  0
  4  2  1  0
  5  4  1  0
  6  5  1  0
  7  6  1  0
  8  9  1  6
  8  7  1  0
 10  8  1  0
 10 11  2  0
 12 10  1  0
 13 12  1  0
 13 19  1  0
 13 14  1  1
 15 14  1  0
 16 15  1  0
 17 16  1  0
 18 17  1  0
 19 21  1  0
 19 20  2  0
 21 22  1  0
 22 23  1  6
 24 23  1  0
 24 28  1  0
 25 24  2  0
 26 27  1  0
 26 22  1  0
 29 26  2  0
M  END
$$$$
