RKD.pdb
     RDKit          3D

 29 28  0  0  1  0  0  0  0  0999 V2000
   30.5697  -21.1813   -9.2794 N   0  0  0  0  0  0  0  0  0  0  0  0
   31.3168  -22.0008  -10.1518 C   0  0  0  0  0  0  0  0  0  0  0  0
   32.2451  -22.7857   -9.7009 N   0  0  0  0  0  0  0  0  0  0  0  0
   31.0675  -21.9808  -11.5447 N   0  0  0  0  0  0  0  0  0  0  0  0
   30.0557  -21.0242  -12.0254 C   0  0  0  0  0  0  0  0  0  0  0  0
   28.7129  -21.6276  -11.7504 C   0  0  0  0  0  0  0  0  0  0  0  0
   27.5290  -20.8274  -12.1692 C   0  0  0  0  0  0  0  0  0  0  0  0
   27.7844  -20.0316  -13.3894 C   0  0  2  0  0  0  0  0  0  0  0  0
   28.8594  -19.1185  -13.2383 N   0  0  0  0  0  0  0  0  0  0  0  0
   26.5414  -19.3650  -13.9089 C   0  0  0  0  0  0  0  0  0  0  0  0
   26.1846  -18.3174  -13.3129 O   0  0  0  0  0  0  0  0  0  0  0  0
   32.8387  -23.3583  -10.3381 N   0  0  0  0  0  0  0  0  0  0  0  0
   25.7975  -19.8672  -15.0042 C   0  0  1  0  0  0  0  0  0  0  0  0
   24.5679  -19.1731  -15.4813 C   0  0  0  0  0  0  0  0  0  0  0  0
   24.8190  -18.7430  -16.9084 C   0  0  0  0  0  0  0  0  0  0  0  0
   25.4638  -19.7376  -17.7964 C   0  0  0  0  0  0  0  0  0  0  0  0
   25.7752  -19.2083  -19.1718 C   0  0  0  0  0  0  0  0  0  0  0  0
   26.3175  -20.3633  -19.9846 N   0  0  0  0  0  0  0  0  0  0  0  0
   26.6111  -19.9651  -21.3385 C   0  0  0  0  0  0  0  0  0  0  0  0
   23.4175  -20.0556  -15.2865 O   0  0  0  0  0  0  0  0  0  0  0  0
   23.6769  -21.2642  -14.9443 N   0  0  0  0  0  0  0  0  0  0  0  0
   22.0548  -19.7535  -15.4201 C   0  0  1  0  0  0  0  0  0  0  0  0
   21.0661  -20.3777  -14.5394 C   0  0  0  0  0  0  0  0  0  0  0  0
   21.4566  -20.1674  -13.0982 C   0  0  0  0  0  0  0  0  0  0  0  0
   20.4621  -20.7845  -12.2079 O   0  0  0  0  0  0  0  0  0  0  0  0
   20.0564  -20.3241  -11.1134 C   0  0  0  0  0  0  0  0  0  0  0  0
   19.7373  -19.8218  -14.8543 O   0  0  0  0  0  0  0  0  0  0  0  0
   18.6467  -20.7191  -14.8516 O   0  0  0  0  0  0  0  0  0  0  0  0
   19.8561  -22.0226  -12.5494 O   0  0  0  0  0  0  0  0  0  0  0  0
  2  1  1  0
  2  3  2  0
  4  2  1  0
  5  4  1  0
  6  5  1  0
  7  6  1  0
  8  9  1  1
  8  7  1  0
 10  8  1  0
 10 11  2  0
 12 10  1  0
 13 12  1  0
 13 19  1  0
 13 14  1  1
 15 14  1  0
 16 15  1  0
 17 16  1  0
 18 17  1  0
 19 21  1  0
 19 20  2  0
 21 22  1  0
 22 23  1  6
 24 23  1  0
 24 28  1  0
 25 24  2  0
 26 27  1  0
 26 22  1  0
 29 26  2  0
M  END
$$$$
