RKD.pdb
     RDKit          3D

 29 28  0  0  1  0  0  0  0  0999 V2000
   29.2615  -19.9230  -12.1627 N   0  0  0  0  0  0  0  0  0  0  0  0
   28.6650  -21.0794  -12.7085 C   0  0  0  0  0  0  0  0  0  0  0  0
   28.7806  -21.3599  -13.9691 N   0  0  0  0  0  0  0  0  0  0  0  0
   27.9227  -21.9601  -11.8862 N   0  0  0  0  0  0  0  0  0  0  0  0
   26.4551  -21.8826  -11.9836 C   0  0  0  0  0  0  0  0  0  0  0  0
   26.0182  -20.7224  -11.1435 C   0  0  0  0  0  0  0  0  0  0  0  0
   24.5704  -20.3779  -11.1917 C   0  0  0  0  0  0  0  0  0  0  0  0
   23.8420  -21.1306  -12.2358 C   0  0  2  0  0  0  0  0  0  0  0  0
   24.7072  -21.7809  -13.1528 N   0  0  0  0  0  0  0  0  0  0  0  0
   22.8061  -20.2911  -12.9296 C   0  0  0  0  0  0  0  0  0  0  0  0
   22.1147  -19.5436  -12.1925 O   0  0  0  0  0  0  0  0  0  0  0  0
   28.3119  -22.1885  -14.3933 N   0  0  0  0  0  0  0  0  0  0  0  0
   22.6007  -20.3217  -14.3304 C   0  0  2  0  0  0  0  0  0  0  0  0
   21.5306  -19.5039  -14.9687 C   0  0  0  0  0  0  0  0  0  0  0  0
   22.0207  -19.1167  -16.3451 C   0  0  0  0  0  0  0  0  0  0  0  0
   23.2517  -18.2953  -16.4032 C   0  0  0  0  0  0  0  0  0  0  0  0
   23.7594  -18.0648  -17.8025 C   0  0  0  0  0  0  0  0  0  0  0  0
   24.9637  -17.1551  -17.6984 N   0  0  0  0  0  0  0  0  0  0  0  0
   25.4977  -16.8342  -18.9983 C   0  0  0  0  0  0  0  0  0  0  0  0
   20.2759  -20.2556  -14.9392 O   0  0  0  0  0  0  0  0  0  0  0  0
   20.3767  -21.5342  -14.9363 N   0  0  0  0  0  0  0  0  0  0  0  0
   18.9642  -19.7611  -14.9084 C   0  0  2  0  0  0  0  0  0  0  0  0
   17.8282  -20.6766  -14.7899 C   0  0  0  0  0  0  0  0  0  0  0  0
   18.2686  -22.0847  -15.1014 C   0  0  0  0  0  0  0  0  0  0  0  0
   18.0625  -22.3769  -16.5278 O   0  0  0  0  0  0  0  0  0  0  0  0
   17.6347  -21.5787  -17.3964 C   0  0  0  0  0  0  0  0  0  0  0  0
   17.2578  -20.5466  -13.4365 O   0  0  0  0  0  0  0  0  0  0  0  0
   16.0369  -21.2108  -13.1856 O   0  0  0  0  0  0  0  0  0  0  0  0
   18.3524  -23.6651  -17.0508 O   0  0  0  0  0  0  0  0  0  0  0  0
  2  1  1  0
  2  3  2  0
  4  2  1  0
  5  4  1  0
  6  5  1  0
  7  6  1  0
  8  9  1  6
  8  7  1  0
 10  8  1  0
 10 11  2  0
 12 10  1  0
 13 12  1  0
 13 19  1  0
 13 14  1  1
 15 14  1  0
 16 15  1  0
 17 16  1  0
 18 17  1  0
 19 21  1  0
 19 20  2  0
 21 22  1  0
 22 23  1  6
 24 23  1  0
 24 28  1  0
 25 24  2  0
 26 27  1  0
 26 22  1  0
 29 26  2  0
M  END
$$$$
