RKD.pdb
     RDKit          3D

 29 28  0  0  1  0  0  0  0  0999 V2000
   21.7360  -19.7210  -11.7573 N   0  0  0  0  0  0  0  0  0  0  0  0
   22.1679  -20.7387  -10.8807 C   0  0  0  0  0  0  0  0  0  0  0  0
   22.2832  -20.5204   -9.6078 N   0  0  0  0  0  0  0  0  0  0  0  0
   22.4874  -22.0251  -11.3766 N   0  0  0  0  0  0  0  0  0  0  0  0
   23.4778  -22.0910  -12.4648 C   0  0  0  0  0  0  0  0  0  0  0  0
   24.5175  -21.0519  -12.1781 C   0  0  0  0  0  0  0  0  0  0  0  0
   25.6056  -20.9084  -13.1844 C   0  0  0  0  0  0  0  0  0  0  0  0
   25.1684  -21.2731  -14.5493 C   0  0  2  0  0  0  0  0  0  0  0  0
   25.4512  -22.6239  -14.8775 N   0  0  0  0  0  0  0  0  0  0  0  0
   25.6804  -20.3165  -15.5895 C   0  0  0  0  0  0  0  0  0  0  0  0
   25.5723  -19.0939  -15.3185 O   0  0  0  0  0  0  0  0  0  0  0  0
   22.5875  -21.2668   -8.9471 N   0  0  0  0  0  0  0  0  0  0  0  0
   26.2554  -20.7418  -16.8117 C   0  0  1  0  0  0  0  0  0  0  0  0
   26.7692  -19.7556  -17.8041 C   0  0  0  0  0  0  0  0  0  0  0  0
   27.8229  -20.4563  -18.6308 C   0  0  0  0  0  0  0  0  0  0  0  0
   28.5977  -21.5206  -17.9524 C   0  0  0  0  0  0  0  0  0  0  0  0
   29.5511  -22.2487  -18.8633 C   0  0  0  0  0  0  0  0  0  0  0  0
   30.2219  -23.3269  -18.0410 N   0  0  0  0  0  0  0  0  0  0  0  0
   31.1917  -24.0577  -18.8177 C   0  0  0  0  0  0  0  0  0  0  0  0
   25.6417  -19.2091  -18.5593 O   0  0  0  0  0  0  0  0  0  0  0  0
   25.9217  -18.3168  -19.4370 N   0  0  0  0  0  0  0  0  0  0  0  0
   24.2824  -19.5368  -18.4551 C   0  0  1  0  0  0  0  0  0  0  0  0
   23.2874  -18.8477  -19.2785 C   0  0  0  0  0  0  0  0  0  0  0  0
   22.4904  -19.8535  -20.0704 C   0  0  0  0  0  0  0  0  0  0  0  0
   23.2936  -20.3701  -21.1886 O   0  0  0  0  0  0  0  0  0  0  0  0
   24.4295  -19.9668  -21.5373 C   0  0  0  0  0  0  0  0  0  0  0  0
   22.4419  -18.0185  -18.4001 O   0  0  0  0  0  0  0  0  0  0  0  0
   22.5091  -18.2743  -17.0128 O   0  0  0  0  0  0  0  0  0  0  0  0
   22.8054  -21.4279  -22.0009 O   0  0  0  0  0  0  0  0  0  0  0  0
  2  1  1  0
  2  3  2  0
  4  2  1  0
  5  4  1  0
  6  5  1  0
  7  6  1  0
  8  9  1  6
  8  7  1  0
 10  8  1  0
 10 11  2  0
 12 10  1  0
 13 12  1  0
 13 19  1  0
 13 14  1  1
 15 14  1  0
 16 15  1  0
 17 16  1  0
 18 17  1  0
 19 21  1  0
 19 20  2  0
 21 22  1  0
 22 23  1  6
 24 23  1  0
 24 28  1  0
 25 24  2  0
 26 27  1  0
 26 22  1  0
 29 26  2  0
M  END
$$$$
