RKD.pdb
     RDKit          3D

 29 28  0  0  1  0  0  0  0  0999 V2000
   37.3607   -7.1120  -15.6103 N   0  0  0  0  0  0  0  0  0  0  0  0
   37.2011   -8.1282  -14.6445 C   0  0  0  0  0  0  0  0  0  0  0  0
   38.1001   -8.3310  -13.7325 N   0  0  0  0  0  0  0  0  0  0  0  0
   36.0505   -8.9522  -14.6534 N   0  0  0  0  0  0  0  0  0  0  0  0
   35.2029   -8.8976  -15.8567 C   0  0  0  0  0  0  0  0  0  0  0  0
   34.8835  -10.3110  -16.2353 C   0  0  0  0  0  0  0  0  0  0  0  0
   34.0224  -10.4965  -17.4359 C   0  0  0  0  0  0  0  0  0  0  0  0
   32.6941   -9.8640  -17.2852 C   0  0  2  0  0  0  0  0  0  0  0  0
   32.0482  -10.2178  -16.0728 N   0  0  0  0  0  0  0  0  0  0  0  0
   31.8145  -10.0866  -18.4835 C   0  0  0  0  0  0  0  0  0  0  0  0
   32.2980   -9.7533  -19.5949 O   0  0  0  0  0  0  0  0  0  0  0  0
   38.0055   -9.0920  -13.0267 N   0  0  0  0  0  0  0  0  0  0  0  0
   30.5133  -10.6379  -18.3931 C   0  0  1  0  0  0  0  0  0  0  0  0
   29.6817  -10.8500  -19.6117 C   0  0  0  0  0  0  0  0  0  0  0  0
   28.7213  -11.9777  -19.3105 C   0  0  0  0  0  0  0  0  0  0  0  0
   29.1991  -13.3495  -19.5991 C   0  0  0  0  0  0  0  0  0  0  0  0
   28.2122  -14.4246  -19.2260 C   0  0  0  0  0  0  0  0  0  0  0  0
   28.8486  -15.7547  -19.5648 N   0  0  0  0  0  0  0  0  0  0  0  0
   27.9958  -16.8574  -19.1981 C   0  0  0  0  0  0  0  0  0  0  0  0
   29.0589   -9.5812  -19.9893 O   0  0  0  0  0  0  0  0  0  0  0  0
   28.5270   -9.5314  -21.1554 N   0  0  0  0  0  0  0  0  0  0  0  0
   28.9598   -8.4014  -19.2382 C   0  0  1  0  0  0  0  0  0  0  0  0
   28.2503   -7.2382  -19.7730 C   0  0  0  0  0  0  0  0  0  0  0  0
   26.9825   -7.0051  -18.9904 C   0  0  0  0  0  0  0  0  0  0  0  0
   25.9225   -6.5056  -19.8787 O   0  0  0  0  0  0  0  0  0  0  0  0
   26.0200   -6.3048  -21.1135 C   0  0  0  0  0  0  0  0  0  0  0  0
   29.1584   -6.0770  -19.7413 O   0  0  0  0  0  0  0  0  0  0  0  0
   28.6803   -4.8702  -20.2978 O   0  0  0  0  0  0  0  0  0  0  0  0
   24.6349   -6.1971  -19.3650 O   0  0  0  0  0  0  0  0  0  0  0  0
  2  1  1  0
  2  3  2  0
  4  2  1  0
  5  4  1  0
  6  5  1  0
  7  6  1  0
  8  9  1  1
  8  7  1  0
 10  8  1  0
 10 11  2  0
 12 10  1  0
 13 12  1  0
 13 19  1  0
 13 14  1  6
 15 14  1  0
 16 15  1  0
 17 16  1  0
 18 17  1  0
 19 21  1  0
 19 20  2  0
 21 22  1  0
 22 23  1  6
 24 23  1  0
 24 28  1  0
 25 24  2  0
 26 27  1  0
 26 22  1  0
 29 26  2  0
M  END
$$$$
