RKD.pdb
     RDKit          3D

 29 28  0  0  1  0  0  0  0  0999 V2000
   21.7966  -23.5306  -14.1316 N   0  0  0  0  0  0  0  0  0  0  0  0
   22.7437  -24.5603  -14.3144 C   0  0  0  0  0  0  0  0  0  0  0  0
   22.4780  -25.7819  -13.9706 N   0  0  0  0  0  0  0  0  0  0  0  0
   24.0108  -24.2781  -14.8781 N   0  0  0  0  0  0  0  0  0  0  0  0
   24.4050  -22.8607  -14.9516 C   0  0  0  0  0  0  0  0  0  0  0  0
   25.1289  -22.5382  -13.6808 C   0  0  0  0  0  0  0  0  0  0  0  0
   25.4813  -21.1077  -13.4642 C   0  0  0  0  0  0  0  0  0  0  0  0
   26.0792  -20.4824  -14.6636 C   0  0  2  0  0  0  0  0  0  0  0  0
   27.4836  -20.3132  -14.5564 N   0  0  0  0  0  0  0  0  0  0  0  0
   25.3818  -19.2094  -15.0538 C   0  0  0  0  0  0  0  0  0  0  0  0
   25.5372  -18.2326  -14.2779 O   0  0  0  0  0  0  0  0  0  0  0  0
   23.1854  -26.5428  -14.0535 N   0  0  0  0  0  0  0  0  0  0  0  0
   24.5899  -19.0908  -16.2218 C   0  0  2  0  0  0  0  0  0  0  0  0
   23.9222  -17.8048  -16.5707 C   0  0  0  0  0  0  0  0  0  0  0  0
   24.4639  -17.3659  -17.9119 C   0  0  0  0  0  0  0  0  0  0  0  0
   25.8672  -16.8932  -17.9370 C   0  0  0  0  0  0  0  0  0  0  0  0
   26.4246  -16.7267  -19.3265 C   0  0  0  0  0  0  0  0  0  0  0  0
   27.8171  -16.1526  -19.1853 N   0  0  0  0  0  0  0  0  0  0  0  0
   28.5029  -16.1114  -20.4525 C   0  0  0  0  0  0  0  0  0  0  0  0
   22.4723  -17.9901  -16.5113 O   0  0  0  0  0  0  0  0  0  0  0  0
   22.0252  -19.1243  -16.9095 N   0  0  0  0  0  0  0  0  0  0  0  0
   21.4957  -17.0867  -16.0681 C   0  0  1  0  0  0  0  0  0  0  0  0
   20.0795  -17.4565  -16.0861 C   0  0  0  0  0  0  0  0  0  0  0  0
   19.3946  -16.9270  -14.8515 C   0  0  0  0  0  0  0  0  0  0  0  0
   18.8789  -18.0400  -14.0406 O   0  0  0  0  0  0  0  0  0  0  0  0
   18.3749  -17.9543  -12.8946 C   0  0  0  0  0  0  0  0  0  0  0  0
   19.4760  -16.9489  -17.3319 O   0  0  0  0  0  0  0  0  0  0  0  0
   18.2865  -17.5707  -17.7713 O   0  0  0  0  0  0  0  0  0  0  0  0
   18.9200  -19.3718  -14.5318 O   0  0  0  0  0  0  0  0  0  0  0  0
  2  1  1  0
  2  3  2  0
  4  2  1  0
  5  4  1  0
  6  5  1  0
  7  6  1  0
  8  9  1  1
  8  7  1  0
 10  8  1  0
 10 11  2  0
 12 10  1  0
 13 12  1  0
 13 19  1  0
 13 14  1  1
 15 14  1  0
 16 15  1  0
 17 16  1  0
 18 17  1  0
 19 21  1  0
 19 20  2  0
 21 22  1  0
 22 23  1  6
 24 23  1  0
 24 28  1  0
 25 24  2  0
 26 27  1  0
 26 22  1  0
 29 26  2  0
M  END
$$$$
