RKD.pdb
     RDKit          3D

 29 28  0  0  1  0  0  0  0  0999 V2000
   27.5522  -26.2839  -16.6396 N   0  0  0  0  0  0  0  0  0  0  0  0
   27.1335  -25.3397  -17.6008 C   0  0  0  0  0  0  0  0  0  0  0  0
   26.9579  -25.6796  -18.8396 N   0  0  0  0  0  0  0  0  0  0  0  0
   26.8972  -23.9946  -17.2298 N   0  0  0  0  0  0  0  0  0  0  0  0
   26.6156  -23.7369  -15.8072 C   0  0  0  0  0  0  0  0  0  0  0  0
   25.1412  -23.5044  -15.6848 C   0  0  0  0  0  0  0  0  0  0  0  0
   24.6422  -23.1121  -14.3378 C   0  0  0  0  0  0  0  0  0  0  0  0
   25.0269  -21.7324  -13.9694 C   0  0  2  0  0  0  0  0  0  0  0  0
   25.9747  -21.6862  -12.9150 N   0  0  0  0  0  0  0  0  0  0  0  0
   23.8344  -20.8578  -13.7003 C   0  0  0  0  0  0  0  0  0  0  0  0
   23.3812  -20.8849  -12.5281 O   0  0  0  0  0  0  0  0  0  0  0  0
   26.7355  -24.9769  -19.5765 N   0  0  0  0  0  0  0  0  0  0  0  0
   23.2374  -20.0416  -14.6916 C   0  0  2  0  0  0  0  0  0  0  0  0
   21.9987  -19.2643  -14.4038 C   0  0  0  0  0  0  0  0  0  0  0  0
   21.9793  -18.0833  -15.3470 C   0  0  0  0  0  0  0  0  0  0  0  0
   20.8516  -17.1349  -15.1979 C   0  0  0  0  0  0  0  0  0  0  0  0
   20.0009  -17.0076  -16.4345 C   0  0  0  0  0  0  0  0  0  0  0  0
   18.9331  -15.9771  -16.1401 N   0  0  0  0  0  0  0  0  0  0  0  0
   18.1215  -15.7103  -17.3011 C   0  0  0  0  0  0  0  0  0  0  0  0
   20.8441  -20.1580  -14.4956 O   0  0  0  0  0  0  0  0  0  0  0  0
   20.8419  -20.9888  -15.4727 N   0  0  0  0  0  0  0  0  0  0  0  0
   19.7303  -20.2327  -13.6472 C   0  0  1  0  0  0  0  0  0  0  0  0
   18.6590  -21.1946  -13.9114 C   0  0  0  0  0  0  0  0  0  0  0  0
   18.7088  -22.3102  -12.8980 C   0  0  0  0  0  0  0  0  0  0  0  0
   17.6199  -23.2674  -13.1433 O   0  0  0  0  0  0  0  0  0  0  0  0
   16.7578  -23.1965  -14.0523 C   0  0  0  0  0  0  0  0  0  0  0  0
   17.3703  -20.4782  -13.9039 O   0  0  0  0  0  0  0  0  0  0  0  0
   16.2529  -21.1571  -14.4376 O   0  0  0  0  0  0  0  0  0  0  0  0
   17.4611  -24.4094  -12.3140 O   0  0  0  0  0  0  0  0  0  0  0  0
  2  1  1  0
  2  3  2  0
  4  2  1  0
  5  4  1  0
  6  5  1  0
  7  6  1  0
  8  9  1  1
  8  7  1  0
 10  8  1  0
 10 11  2  0
 12 10  1  0
 13 12  1  0
 13 19  1  0
 13 14  1  6
 15 14  1  0
 16 15  1  0
 17 16  1  0
 18 17  1  0
 19 21  1  0
 19 20  2  0
 21 22  1  0
 22 23  1  6
 24 23  1  0
 24 28  1  0
 25 24  2  0
 26 27  1  0
 26 22  1  0
 29 26  2  0
M  END
$$$$
