RKD.pdb
     RDKit          3D

 29 28  0  0  1  0  0  0  0  0999 V2000
   20.5389  -33.6863  -13.3077 N   0  0  0  0  0  0  0  0  0  0  0  0
   19.7003  -32.8216  -14.0424 C   0  0  0  0  0  0  0  0  0  0  0  0
   18.8530  -33.2867  -14.9066 N   0  0  0  0  0  0  0  0  0  0  0  0
   19.7691  -31.4212  -13.8507 N   0  0  0  0  0  0  0  0  0  0  0  0
   20.8128  -30.9256  -12.9371 C   0  0  0  0  0  0  0  0  0  0  0  0
   20.1457  -30.6154  -11.6326 C   0  0  0  0  0  0  0  0  0  0  0  0
   20.6630  -29.4337  -10.8888 C   0  0  0  0  0  0  0  0  0  0  0  0
   20.5957  -28.1884  -11.6837 C   0  0  2  0  0  0  0  0  0  0  0  0
   21.7810  -27.9400  -12.4226 N   0  0  0  0  0  0  0  0  0  0  0  0
   20.1825  -27.0029  -10.8572 C   0  0  0  0  0  0  0  0  0  0  0  0
   20.9859  -26.6479   -9.9580 O   0  0  0  0  0  0  0  0  0  0  0  0
   18.2514  -32.6580  -15.4803 N   0  0  0  0  0  0  0  0  0  0  0  0
   18.9649  -26.3089  -11.0592 C   0  0  2  0  0  0  0  0  0  0  0  0
   18.6315  -25.0934  -10.2636 C   0  0  0  0  0  0  0  0  0  0  0  0
   17.7779  -24.2035  -11.1377 C   0  0  0  0  0  0  0  0  0  0  0  0
   18.1015  -22.7583  -11.1280 C   0  0  0  0  0  0  0  0  0  0  0  0
   17.1158  -21.9127  -11.8909 C   0  0  0  0  0  0  0  0  0  0  0  0
   17.6393  -20.4933  -11.8795 N   0  0  0  0  0  0  0  0  0  0  0  0
   16.7595  -19.5996  -12.5901 C   0  0  0  0  0  0  0  0  0  0  0  0
   18.0181  -25.5049   -9.0008 O   0  0  0  0  0  0  0  0  0  0  0  0
   16.9809  -26.2542   -9.0877 N   0  0  0  0  0  0  0  0  0  0  0  0
   18.4189  -25.1911   -7.6943 C   0  0  1  0  0  0  0  0  0  0  0  0
   17.6704  -25.7026   -6.5450 C   0  0  0  0  0  0  0  0  0  0  0  0
   18.5592  -25.7374   -5.3273 C   0  0  0  0  0  0  0  0  0  0  0  0
   17.8238  -26.2855   -4.1780 O   0  0  0  0  0  0  0  0  0  0  0  0
   16.7836  -26.9857   -4.2257 C   0  0  0  0  0  0  0  0  0  0  0  0
   16.4740  -24.8631   -6.3507 O   0  0  0  0  0  0  0  0  0  0  0  0
   15.3615  -25.4633   -5.7209 O   0  0  0  0  0  0  0  0  0  0  0  0
   18.2704  -26.0428   -2.8519 O   0  0  0  0  0  0  0  0  0  0  0  0
  2  1  1  0
  2  3  2  0
  4  2  1  0
  5  4  1  0
  6  5  1  0
  7  6  1  0
  8  9  1  1
  8  7  1  0
 10  8  1  0
 10 11  2  0
 12 10  1  0
 13 12  1  0
 13 19  1  0
 13 14  1  6
 15 14  1  0
 16 15  1  0
 17 16  1  0
 18 17  1  0
 19 21  1  0
 19 20  2  0
 21 22  1  0
 22 23  1  1
 24 23  1  0
 24 28  1  0
 25 24  2  0
 26 27  1  0
 26 22  1  0
 29 26  2  0
M  END
$$$$
