RKD.pdb
     RDKit          3D

 29 28  0  0  1  0  0  0  0  0999 V2000
   23.9743  -20.9031  -11.6221 N   0  0  0  0  0  0  0  0  0  0  0  0
   24.6998  -20.8551  -10.4129 C   0  0  0  0  0  0  0  0  0  0  0  0
   24.0909  -20.7971   -9.2697 N   0  0  0  0  0  0  0  0  0  0  0  0
   26.1149  -20.8674  -10.4242 N   0  0  0  0  0  0  0  0  0  0  0  0
   26.7686  -20.9520  -11.7414 C   0  0  0  0  0  0  0  0  0  0  0  0
   26.9028  -19.5525  -12.2575 C   0  0  0  0  0  0  0  0  0  0  0  0
   27.3409  -19.4080  -13.6733 C   0  0  0  0  0  0  0  0  0  0  0  0
   26.9199  -20.5473  -14.5171 C   0  0  2  0  0  0  0  0  0  0  0  0
   28.0101  -21.1998  -15.1480 N   0  0  0  0  0  0  0  0  0  0  0  0
   25.8418  -20.1691  -15.4937 C   0  0  0  0  0  0  0  0  0  0  0  0
   26.0984  -19.2021  -16.2548 O   0  0  0  0  0  0  0  0  0  0  0  0
   24.6096  -20.6549   -8.3769 N   0  0  0  0  0  0  0  0  0  0  0  0
   24.6006  -20.8463  -15.5724 C   0  0  1  0  0  0  0  0  0  0  0  0
   23.6555  -20.5912  -16.6963 C   0  0  0  0  0  0  0  0  0  0  0  0
   23.6970  -21.8003  -17.6024 C   0  0  0  0  0  0  0  0  0  0  0  0
   23.6223  -21.5399  -19.0585 C   0  0  0  0  0  0  0  0  0  0  0  0
   24.9671  -21.5015  -19.7358 C   0  0  0  0  0  0  0  0  0  0  0  0
   24.7265  -21.1687  -21.1919 N   0  0  0  0  0  0  0  0  0  0  0  0
   25.9651  -21.0623  -21.9214 C   0  0  0  0  0  0  0  0  0  0  0  0
   22.3394  -20.2656  -16.1466 O   0  0  0  0  0  0  0  0  0  0  0  0
   22.1345  -20.5943  -14.9239 N   0  0  0  0  0  0  0  0  0  0  0  0
   21.2623  -19.6313  -16.7818 C   0  0  1  0  0  0  0  0  0  0  0  0
   19.9943  -19.4373  -16.0767 C   0  0  0  0  0  0  0  0  0  0  0  0
   19.7679  -17.9685  -15.8214 C   0  0  0  0  0  0  0  0  0  0  0  0
   18.4093  -17.7468  -15.3042 O   0  0  0  0  0  0  0  0  0  0  0  0
   17.4457  -17.2481  -15.9344 C   0  0  0  0  0  0  0  0  0  0  0  0
   18.9141  -20.0480  -16.8733 O   0  0  0  0  0  0  0  0  0  0  0  0
   17.6362  -20.1210  -16.2765 O   0  0  0  0  0  0  0  0  0  0  0  0
   18.0762  -18.1053  -13.9710 O   0  0  0  0  0  0  0  0  0  0  0  0
  2  1  1  0
  2  3  2  0
  4  2  1  0
  5  4  1  0
  6  5  1  0
  7  6  1  0
  8  9  1  6
  8  7  1  0
 10  8  1  0
 10 11  2  0
 12 10  1  0
 13 12  1  0
 13 19  1  0
 13 14  1  6
 15 14  1  0
 16 15  1  0
 17 16  1  0
 18 17  1  0
 19 21  1  0
 19 20  2  0
 21 22  1  0
 22 23  1  6
 24 23  1  0
 24 28  1  0
 25 24  2  0
 26 27  1  0
 26 22  1  0
 29 26  2  0
M  END
$$$$
