WTR.pdb
     RDKit          3D

 33 34  0  0  1  0  0  0  0  0999 V2000
    5.7614  -17.0005   24.1310 N   0  0  0  0  0  0  0  0  0  0  0  0
    6.7613  -16.0555   23.6985 C   0  0  1  0  0  0  0  0  0  0  0  0
    7.6803  -15.7507   24.8657 C   0  0  0  0  0  0  0  0  0  0  0  0
    6.9915  -14.8918   25.8909 C   0  0  0  0  0  0  0  0  0  0  0  0
    6.2325  -15.3153   26.9547 C   0  0  0  0  0  0  0  0  0  0  0  0
    5.7631  -14.2476   27.6081 N   0  0  0  0  0  0  0  0  0  0  0  0
    6.1997  -13.1174   26.9942 C   0  0  0  0  0  0  0  0  0  0  0  0
    5.9834  -11.7787   27.3061 C   0  0  0  0  0  0  0  0  0  0  0  0
    6.5556  -10.8056   26.5187 C   0  0  0  0  0  0  0  0  0  0  0  0
    7.3314  -11.1801   25.4376 C   0  0  0  0  0  0  0  0  0  0  0  0
    7.5208  -12.5124   25.1629 C   0  0  0  0  0  0  0  0  0  0  0  0
    6.9651  -13.5156   25.9252 C   0  0  0  0  0  0  0  0  0  0  0  0
    7.5133  -16.6602   22.5698 C   0  0  0  0  0  0  0  0  0  0  0  0
    6.9376  -17.3767   21.6971 O   0  0  0  0  0  0  0  0  0  0  0  0
    7.4885  -15.1632   20.3575 C   0  0  0  0  0  0  0  0  0  0  0  0
    8.9970  -15.2281   20.2884 C   0  0  1  0  0  0  0  0  0  0  0  0
    9.5473  -14.0549   20.8204 O   0  0  0  0  0  0  0  0  0  0  0  0
    9.5284  -16.4466   21.0694 C   0  0  2  0  0  0  0  0  0  0  0  0
    8.9262  -16.4781   22.3872 N   0  0  0  0  0  0  0  0  0  0  0  0
   10.9910  -16.2960   21.0992 C   0  0  0  0  0  0  0  0  0  0  0  0
   11.4819  -15.3776   21.8353 O   0  0  0  0  0  0  0  0  0  0  0  0
   11.3038  -19.3111   16.4263 N   0  0  0  0  0  0  0  0  0  0  0  0
   12.5108  -19.3678   15.6845 C   0  0  0  0  0  0  0  0  0  0  0  0
   12.5730  -19.8537   14.5003 N   0  0  0  0  0  0  0  0  0  0  0  0
   13.7316  -18.8658   16.2613 N   0  0  0  0  0  0  0  0  0  0  0  0
   14.1044  -19.1940   17.6153 C   0  0  0  0  0  0  0  0  0  0  0  0
   13.4238  -18.2203   18.5892 C   0  0  0  0  0  0  0  0  0  0  0  0
   13.9074  -18.4442   19.9944 C   0  0  0  0  0  0  0  0  0  0  0  0
   13.2438  -17.4473   20.9152 C   0  0  2  0  0  0  0  0  0  0  0  0
   11.9147  -17.0942   20.3732 N   0  0  0  0  0  0  0  0  0  0  0  0
   14.0491  -16.2225   20.9846 C   0  0  0  0  0  0  0  0  0  0  0  0
   15.2317  -16.2522   21.7457 O   0  0  0  0  0  0  0  0  0  0  0  0
   13.8057  -15.1287   20.4364 O   0  0  0  0  0  0  0  0  0  0  0  0
  2  1  1  1
  2  3  1  0
  3  4  1  0
  4  5  2  0
  5  6  1  0
  7  6  1  0
  8  7  2  0
  9  8  1  0
 10 11  1  0
 10  9  2  0
 11 12  2  0
 12  4  1  0
 12  7  1  0
 13  2  1  0
 13 14  2  0
 16 18  1  0
 16 15  1  1
 17 16  1  0
 18 19  1  1
 19 13  1  0
 20 18  1  0
 21 20  2  0
 23 22  1  0
 23 25  1  0
 24 23  2  0
 26 25  1  0
 27 26  1  0
 27 28  1  0
 29 28  1  6
 29 30  1  0
 30 20  1  0
 31 32  1  0
 31 29  1  0
 33 31  2  0
M  END
$$$$
