WTR.pdb
     RDKit          3D

 33 34  0  0  1  0  0  0  0  0999 V2000
    5.9419  -16.5869   20.9987 N   0  0  0  0  0  0  0  0  0  0  0  0
    7.2089  -16.2797   21.6153 C   0  0  1  0  0  0  0  0  0  0  0  0
    7.2470  -14.7985   21.9380 C   0  0  0  0  0  0  0  0  0  0  0  0
    7.3694  -13.9719   20.6870 C   0  0  0  0  0  0  0  0  0  0  0  0
    6.3466  -13.4519   19.9315 C   0  0  0  0  0  0  0  0  0  0  0  0
    6.8643  -12.8112   18.8785 N   0  0  0  0  0  0  0  0  0  0  0  0
    8.2191  -12.8967   18.9221 C   0  0  0  0  0  0  0  0  0  0  0  0
    9.1848  -12.3864   18.0600 C   0  0  0  0  0  0  0  0  0  0  0  0
   10.5149  -12.6068   18.3368 C   0  0  0  0  0  0  0  0  0  0  0  0
   10.8605  -13.3290   19.4636 C   0  0  0  0  0  0  0  0  0  0  0  0
    9.8773  -13.8162   20.2897 C   0  0  0  0  0  0  0  0  0  0  0  0
    8.5362  -13.6183   20.0472 C   0  0  0  0  0  0  0  0  0  0  0  0
    7.3353  -17.0986   22.8477 C   0  0  0  0  0  0  0  0  0  0  0  0
    6.3230  -17.4112   23.5434 O   0  0  0  0  0  0  0  0  0  0  0  0
    6.3531  -19.3065   24.0330 C   0  0  0  0  0  0  0  0  0  0  0  0
    7.7941  -19.7107   24.2445 C   0  0  1  0  0  0  0  0  0  0  0  0
    8.2587  -20.4140   23.1257 O   0  0  0  0  0  0  0  0  0  0  0  0
    8.6811  -18.4716   24.4790 C   0  0  2  0  0  0  0  0  0  0  0  0
    8.5950  -17.5897   23.3322 N   0  0  0  0  0  0  0  0  0  0  0  0
   10.0368  -18.9892   24.7171 C   0  0  0  0  0  0  0  0  0  0  0  0
   10.5162  -19.8178   23.8745 O   0  0  0  0  0  0  0  0  0  0  0  0
   15.8234  -16.2265   21.8926 N   0  0  0  0  0  0  0  0  0  0  0  0
   14.4735  -15.8314   21.7130 C   0  0  0  0  0  0  0  0  0  0  0  0
   13.9880  -15.5284   20.5664 N   0  0  0  0  0  0  0  0  0  0  0  0
   13.5900  -15.7590   22.8484 N   0  0  0  0  0  0  0  0  0  0  0  0
   13.9324  -16.3914   24.0986 C   0  0  0  0  0  0  0  0  0  0  0  0
   12.8983  -17.4786   24.4281 C   0  0  0  0  0  0  0  0  0  0  0  0
   13.2610  -18.1939   25.6991 C   0  0  0  0  0  0  0  0  0  0  0  0
   12.2093  -19.2347   26.0034 C   0  0  2  0  0  0  0  0  0  0  0  0
   10.8687  -18.6414   25.8146 N   0  0  0  0  0  0  0  0  0  0  0  0
   12.3259  -19.6649   27.4016 C   0  0  0  0  0  0  0  0  0  0  0  0
   13.4878  -20.3596   27.7838 O   0  0  0  0  0  0  0  0  0  0  0  0
   11.4975  -19.4850   28.3168 O   0  0  0  0  0  0  0  0  0  0  0  0
  2  1  1  1
  2  3  1  0
  3  4  1  0
  4  5  2  0
  5  6  1  0
  7  6  1  0
  8  7  2  0
  9  8  1  0
 10 11  1  0
 10  9  2  0
 11 12  2  0
 12  4  1  0
 12  7  1  0
 13  2  1  0
 13 14  2  0
 16 18  1  0
 16 15  1  6
 17 16  1  0
 18 19  1  6
 19 13  1  0
 20 18  1  0
 21 20  2  0
 23 22  1  0
 23 25  1  0
 24 23  2  0
 26 25  1  0
 27 26  1  0
 27 28  1  0
 29 28  1  1
 29 30  1  0
 30 20  1  0
 31 32  1  0
 31 29  1  0
 33 31  2  0
M  END
$$$$
