WTR.pdb
     RDKit          3D

 33 34  0  0  1  0  0  0  0  0999 V2000
    7.8935  -17.1667   24.4889 N   0  0  0  0  0  0  0  0  0  0  0  0
    7.4682  -16.8368   23.1509 C   0  0  1  0  0  0  0  0  0  0  0  0
    6.8717  -15.4426   23.1594 C   0  0  0  0  0  0  0  0  0  0  0  0
    6.6226  -14.9658   24.5643 C   0  0  0  0  0  0  0  0  0  0  0  0
    6.0371  -15.6691   25.5888 C   0  0  0  0  0  0  0  0  0  0  0  0
    5.9621  -14.8852   26.6691 N   0  0  0  0  0  0  0  0  0  0  0  0
    6.4905  -13.6681   26.3786 C   0  0  0  0  0  0  0  0  0  0  0  0
    6.6415  -12.5358   27.1731 C   0  0  0  0  0  0  0  0  0  0  0  0
    7.2277  -11.4126   26.6355 C   0  0  0  0  0  0  0  0  0  0  0  0
    7.6526  -11.4351   25.3203 C   0  0  0  0  0  0  0  0  0  0  0  0
    7.4852  -12.5725   24.5688 C   0  0  0  0  0  0  0  0  0  0  0  0
    6.9029  -13.7157   25.0691 C   0  0  0  0  0  0  0  0  0  0  0  0
    8.6525  -16.9060   22.2577 C   0  0  0  0  0  0  0  0  0  0  0  0
    8.5841  -16.5690   21.0377 O   0  0  0  0  0  0  0  0  0  0  0  0
   10.2323  -15.5329   20.3695 C   0  0  0  0  0  0  0  0  0  0  0  0
   11.3668  -15.9959   21.2543 C   0  0  1  0  0  0  0  0  0  0  0  0
   11.5391  -15.0966   22.3145 O   0  0  0  0  0  0  0  0  0  0  0  0
   11.0840  -17.4044   21.8143 C   0  0  2  0  0  0  0  0  0  0  0  0
    9.9424  -17.3516   22.7053 N   0  0  0  0  0  0  0  0  0  0  0  0
   12.3253  -17.8269   22.4800 C   0  0  0  0  0  0  0  0  0  0  0  0
   12.4390  -17.6019   23.7301 O   0  0  0  0  0  0  0  0  0  0  0  0
   15.8358  -24.6055   21.7456 N   0  0  0  0  0  0  0  0  0  0  0  0
   14.8499  -23.9770   20.9432 C   0  0  0  0  0  0  0  0  0  0  0  0
   13.6047  -24.2692   21.0216 N   0  0  0  0  0  0  0  0  0  0  0  0
   15.2362  -22.9655   19.9931 N   0  0  0  0  0  0  0  0  0  0  0  0
   15.9027  -21.7599   20.4201 C   0  0  0  0  0  0  0  0  0  0  0  0
   14.9778  -20.9596   21.3496 C   0  0  0  0  0  0  0  0  0  0  0  0
   15.5658  -19.6112   21.6573 C   0  0  0  0  0  0  0  0  0  0  0  0
   14.6385  -18.8626   22.5856 C   0  0  2  0  0  0  0  0  0  0  0  0
   13.4198  -18.4727   21.8456 N   0  0  0  0  0  0  0  0  0  0  0  0
   15.2942  -17.6397   23.0630 C   0  0  0  0  0  0  0  0  0  0  0  0
   15.9554  -17.6863   24.3037 O   0  0  0  0  0  0  0  0  0  0  0  0
   15.3373  -16.5339   22.4871 O   0  0  0  0  0  0  0  0  0  0  0  0
  2  1  1  1
  2  3  1  0
  3  4  1  0
  4  5  2  0
  5  6  1  0
  7  6  1  0
  8  7  2  0
  9  8  1  0
 10 11  1  0
 10  9  2  0
 11 12  2  0
 12  4  1  0
 12  7  1  0
 13  2  1  0
 13 14  2  0
 16 18  1  0
 16 15  1  6
 17 16  1  0
 18 19  1  1
 19 13  1  0
 20 18  1  0
 21 20  2  0
 23 22  1  0
 23 25  1  0
 24 23  2  0
 26 25  1  0
 27 26  1  0
 27 28  1  0
 29 28  1  6
 29 30  1  0
 30 20  1  0
 31 32  1  0
 31 29  1  0
 33 31  2  0
M  END
$$$$
