WTR.pdb
     RDKit          3D

 33 34  0  0  1  0  0  0  0  0999 V2000
    7.4312  -17.5918   26.4378 N   0  0  0  0  0  0  0  0  0  0  0  0
    7.9621  -16.8633   25.3121 C   0  0  1  0  0  0  0  0  0  0  0  0
    9.1306  -16.0203   25.7849 C   0  0  0  0  0  0  0  0  0  0  0  0
    8.6770  -14.9449   26.7342 C   0  0  0  0  0  0  0  0  0  0  0  0
    8.9960  -14.8227   28.0648 C   0  0  0  0  0  0  0  0  0  0  0  0
    8.3650  -13.7573   28.5686 N   0  0  0  0  0  0  0  0  0  0  0  0
    7.6296  -13.1669   27.5912 C   0  0  0  0  0  0  0  0  0  0  0  0
    6.8179  -12.0373   27.6288 C   0  0  0  0  0  0  0  0  0  0  0  0
    6.1782  -11.6325   26.4793 C   0  0  0  0  0  0  0  0  0  0  0  0
    6.3567  -12.3563   25.3153 C   0  0  0  0  0  0  0  0  0  0  0  0
    7.1662  -13.4659   25.3194 C   0  0  0  0  0  0  0  0  0  0  0  0
    7.8224  -13.9039   26.4481 C   0  0  0  0  0  0  0  0  0  0  0  0
    8.3929  -17.8459   24.2854 C   0  0  0  0  0  0  0  0  0  0  0  0
    8.7672  -19.0150   24.6015 O   0  0  0  0  0  0  0  0  0  0  0  0
    6.4638  -19.1909   21.2109 C   0  0  0  0  0  0  0  0  0  0  0  0
    7.7562  -18.5545   20.7535 C   0  0  1  0  0  0  0  0  0  0  0  0
    7.5138  -17.2431   20.3249 O   0  0  0  0  0  0  0  0  0  0  0  0
    8.7928  -18.5402   21.8947 C   0  0  2  0  0  0  0  0  0  0  0  0
    8.4148  -17.5477   22.8807 N   0  0  0  0  0  0  0  0  0  0  0  0
   10.0881  -18.2644   21.2554 C   0  0  0  0  0  0  0  0  0  0  0  0
   10.2005  -18.5012   20.0073 O   0  0  0  0  0  0  0  0  0  0  0  0
    7.2353  -14.3053   17.5426 N   0  0  0  0  0  0  0  0  0  0  0  0
    8.5004  -13.6711   17.6315 C   0  0  0  0  0  0  0  0  0  0  0  0
    8.6840  -12.4450   17.3072 N   0  0  0  0  0  0  0  0  0  0  0  0
    9.6427  -14.4118   18.1021 N   0  0  0  0  0  0  0  0  0  0  0  0
    9.5990  -15.1319   19.3510 C   0  0  0  0  0  0  0  0  0  0  0  0
   10.7378  -14.6527   20.2639 C   0  0  0  0  0  0  0  0  0  0  0  0
   10.7220  -15.3927   21.5719 C   0  0  0  0  0  0  0  0  0  0  0  0
   11.8162  -16.4342   21.5691 C   0  0  2  0  0  0  0  0  0  0  0  0
   11.2368  -17.7497   21.9134 N   0  0  0  0  0  0  0  0  0  0  0  0
   12.8235  -16.0991   22.5823 C   0  0  0  0  0  0  0  0  0  0  0  0
   14.0124  -15.4821   22.1526 O   0  0  0  0  0  0  0  0  0  0  0  0
   12.7520  -16.3009   23.8113 O   0  0  0  0  0  0  0  0  0  0  0  0
  2  1  1  1
  2  3  1  0
  3  4  1  0
  4  5  2  0
  5  6  1  0
  7  6  1  0
  8  7  2  0
  9  8  1  0
 10 11  1  0
 10  9  2  0
 11 12  2  0
 12  4  1  0
 12  7  1  0
 13  2  1  0
 13 14  2  0
 16 18  1  0
 16 15  1  1
 17 16  1  0
 18 19  1  1
 19 13  1  0
 20 18  1  0
 21 20  2  0
 23 22  1  0
 23 25  1  0
 24 23  2  0
 26 25  1  0
 27 26  1  0
 27 28  1  0
 29 28  1  1
 29 30  1  0
 30 20  1  0
 31 32  1  0
 31 29  1  0
 33 31  2  0
M  END
$$$$
