WTR.pdb
     RDKit          3D

 33 34  0  0  1  0  0  0  0  0999 V2000
    6.5334  -17.7172   24.7927 N   0  0  0  0  0  0  0  0  0  0  0  0
    7.1475  -16.6836   23.9962 C   0  0  1  0  0  0  0  0  0  0  0  0
    8.0347  -15.8410   24.8920 C   0  0  0  0  0  0  0  0  0  0  0  0
    7.2215  -14.8766   25.7117 C   0  0  0  0  0  0  0  0  0  0  0  0
    6.3492  -15.1805   26.7285 C   0  0  0  0  0  0  0  0  0  0  0  0
    5.7946  -14.0509   27.1797 N   0  0  0  0  0  0  0  0  0  0  0  0
    6.2859  -12.9974   26.4772 C   0  0  0  0  0  0  0  0  0  0  0  0
    6.0189  -11.6361   26.5853 C   0  0  0  0  0  0  0  0  0  0  0  0
    6.6670  -10.7569   25.7478 C   0  0  0  0  0  0  0  0  0  0  0  0
    7.5674  -11.2457   24.8199 C   0  0  0  0  0  0  0  0  0  0  0  0
    7.8033  -12.5967   24.7445 C   0  0  0  0  0  0  0  0  0  0  0  0
    7.1748  -13.5085   25.5631 C   0  0  0  0  0  0  0  0  0  0  0  0
    7.9382  -17.3350   22.9211 C   0  0  0  0  0  0  0  0  0  0  0  0
    8.4530  -18.4825   23.0784 O   0  0  0  0  0  0  0  0  0  0  0  0
    7.6579  -16.4959   18.8905 C   0  0  0  0  0  0  0  0  0  0  0  0
    9.0841  -16.4704   19.3904 C   0  0  1  0  0  0  0  0  0  0  0  0
    9.5129  -15.1446   19.5339 O   0  0  0  0  0  0  0  0  0  0  0  0
    9.2024  -17.1995   20.7438 C   0  0  2  0  0  0  0  0  0  0  0  0
    8.1718  -16.7217   21.6436 N   0  0  0  0  0  0  0  0  0  0  0  0
   10.5665  -16.9327   21.2241 C   0  0  0  0  0  0  0  0  0  0  0  0
   10.7613  -15.8776   21.9134 O   0  0  0  0  0  0  0  0  0  0  0  0
   10.8576  -21.4854   24.4486 N   0  0  0  0  0  0  0  0  0  0  0  0
   11.9190  -22.3006   23.9802 C   0  0  0  0  0  0  0  0  0  0  0  0
   11.7901  -23.5609   23.7870 N   0  0  0  0  0  0  0  0  0  0  0  0
   13.2050  -21.7142   23.7021 N   0  0  0  0  0  0  0  0  0  0  0  0
   13.4339  -20.3021   23.8859 C   0  0  0  0  0  0  0  0  0  0  0  0
   13.1459  -19.5568   22.5739 C   0  0  0  0  0  0  0  0  0  0  0  0
   13.3578  -18.0784   22.7412 C   0  0  0  0  0  0  0  0  0  0  0  0
   13.0544  -17.3801   21.4364 C   0  0  2  0  0  0  0  0  0  0  0  0
   11.6980  -17.7578   20.9864 N   0  0  0  0  0  0  0  0  0  0  0  0
   14.0120  -17.8075   20.4098 C   0  0  0  0  0  0  0  0  0  0  0  0
   15.3626  -17.4521   20.5780 O   0  0  0  0  0  0  0  0  0  0  0  0
   13.7672  -18.4649   19.3782 O   0  0  0  0  0  0  0  0  0  0  0  0
  2  1  1  1
  2  3  1  0
  3  4  1  0
  4  5  2  0
  5  6  1  0
  7  6  1  0
  8  7  2  0
  9  8  1  0
 10 11  1  0
 10  9  2  0
 11 12  2  0
 12  4  1  0
 12  7  1  0
 13  2  1  0
 13 14  2  0
 16 18  1  0
 16 15  1  1
 17 16  1  0
 18 19  1  1
 19 13  1  0
 20 18  1  0
 21 20  2  0
 23 22  1  0
 23 25  1  0
 24 23  2  0
 26 25  1  0
 27 26  1  0
 27 28  1  0
 29 28  1  1
 29 30  1  0
 30 20  1  0
 31 32  1  0
 31 29  1  0
 33 31  2  0
M  END
$$$$
