WTR.pdb
     RDKit          3D

 33 34  0  0  1  0  0  0  0  0999 V2000
    8.4989  -16.2665   24.1743 N   0  0  0  0  0  0  0  0  0  0  0  0
    7.4244  -16.4343   23.2271 C   0  0  1  0  0  0  0  0  0  0  0  0
    6.2843  -15.5129   23.6158 C   0  0  0  0  0  0  0  0  0  0  0  0
    6.7941  -14.1552   24.0157 C   0  0  0  0  0  0  0  0  0  0  0  0
    7.1868  -13.1365   23.1819 C   0  0  0  0  0  0  0  0  0  0  0  0
    7.6114  -12.1068   23.9212 N   0  0  0  0  0  0  0  0  0  0  0  0
    7.5065  -12.4252   25.2374 C   0  0  0  0  0  0  0  0  0  0  0  0
    7.8144  -11.6834   26.3737 C   0  0  0  0  0  0  0  0  0  0  0  0
    7.6034  -12.2392   27.6150 C   0  0  0  0  0  0  0  0  0  0  0  0
    7.0908  -13.5198   27.7044 C   0  0  0  0  0  0  0  0  0  0  0  0
    6.7998  -14.2194   26.5589 C   0  0  0  0  0  0  0  0  0  0  0  0
    6.9975  -13.6996   25.2991 C   0  0  0  0  0  0  0  0  0  0  0  0
    7.9421  -16.1031   21.8753 C   0  0  0  0  0  0  0  0  0  0  0  0
    7.1630  -15.8028   20.9216 O   0  0  0  0  0  0  0  0  0  0  0  0
    7.8285  -14.1629   20.1178 C   0  0  0  0  0  0  0  0  0  0  0  0
    9.3283  -14.2522   19.9537 C   0  0  1  0  0  0  0  0  0  0  0  0
    9.9550  -13.3444   20.8170 O   0  0  0  0  0  0  0  0  0  0  0  0
    9.8277  -15.6793   20.2559 C   0  0  2  0  0  0  0  0  0  0  0  0
    9.3423  -16.0976   21.5558 N   0  0  0  0  0  0  0  0  0  0  0  0
   11.2946  -15.6159   20.1730 C   0  0  0  0  0  0  0  0  0  0  0  0
   11.9288  -15.1343   21.1691 O   0  0  0  0  0  0  0  0  0  0  0  0
   12.2464  -17.2722   12.9125 N   0  0  0  0  0  0  0  0  0  0  0  0
   12.5259  -15.9239   13.2508 C   0  0  0  0  0  0  0  0  0  0  0  0
   12.2914  -14.9478   12.4542 N   0  0  0  0  0  0  0  0  0  0  0  0
   13.0967  -15.6101   14.5356 N   0  0  0  0  0  0  0  0  0  0  0  0
   13.2545  -16.6258   15.5473 C   0  0  0  0  0  0  0  0  0  0  0  0
   13.8161  -15.9944   16.8302 C   0  0  0  0  0  0  0  0  0  0  0  0
   13.9807  -17.0292   17.9076 C   0  0  0  0  0  0  0  0  0  0  0  0
   13.4857  -16.4667   19.2193 C   0  0  2  0  0  0  0  0  0  0  0  0
   12.0752  -16.0510   19.0691 N   0  0  0  0  0  0  0  0  0  0  0  0
   14.2747  -15.2837   19.5819 C   0  0  0  0  0  0  0  0  0  0  0  0
   15.5462  -15.4864   20.1484 O   0  0  0  0  0  0  0  0  0  0  0  0
   13.9458  -14.0880   19.4458 O   0  0  0  0  0  0  0  0  0  0  0  0
  2  1  1  1
  2  3  1  0
  3  4  1  0
  4  5  2  0
  5  6  1  0
  7  6  1  0
  8  7  2  0
  9  8  1  0
 10 11  1  0
 10  9  2  0
 11 12  2  0
 12  4  1  0
 12  7  1  0
 13  2  1  0
 13 14  2  0
 16 18  1  0
 16 15  1  1
 17 16  1  0
 18 19  1  1
 19 13  1  0
 20 18  1  0
 21 20  2  0
 23 22  1  0
 23 25  1  0
 24 23  2  0
 26 25  1  0
 27 26  1  0
 27 28  1  0
 29 28  1  6
 29 30  1  0
 30 20  1  0
 31 32  1  0
 31 29  1  0
 33 31  2  0
M  END
$$$$
