WTR.pdb
     RDKit          3D

 33 34  0  0  1  0  0  0  0  0999 V2000
    5.8293  -17.2595   24.3357 N   0  0  0  0  0  0  0  0  0  0  0  0
    6.7919  -16.2644   23.9318 C   0  0  1  0  0  0  0  0  0  0  0  0
    7.7898  -16.0676   25.0566 C   0  0  0  0  0  0  0  0  0  0  0  0
    7.2231  -15.1909   26.1398 C   0  0  0  0  0  0  0  0  0  0  0  0
    6.5258  -15.5919   27.2534 C   0  0  0  0  0  0  0  0  0  0  0  0
    6.1601  -14.5120   27.9514 N   0  0  0  0  0  0  0  0  0  0  0  0
    6.6050  -13.3958   27.3182 C   0  0  0  0  0  0  0  0  0  0  0  0
    6.4792  -12.0528   27.6594 C   0  0  0  0  0  0  0  0  0  0  0  0
    7.0383  -11.0976   26.8413 C   0  0  0  0  0  0  0  0  0  0  0  0
    7.7115  -11.4940   25.7009 C   0  0  0  0  0  0  0  0  0  0  0  0
    7.8136  -12.8300   25.3988 C   0  0  0  0  0  0  0  0  0  0  0  0
    7.2675  -13.8156   26.1904 C   0  0  0  0  0  0  0  0  0  0  0  0
    7.4649  -16.7442   22.6981 C   0  0  0  0  0  0  0  0  0  0  0  0
    7.8141  -17.9549   22.5607 O   0  0  0  0  0  0  0  0  0  0  0  0
    7.3603  -15.0848   18.8864 C   0  0  0  0  0  0  0  0  0  0  0  0
    8.7536  -15.1961   19.4617 C   0  0  1  0  0  0  0  0  0  0  0  0
    9.1756  -13.9446   19.9283 O   0  0  0  0  0  0  0  0  0  0  0  0
    8.7881  -16.2154   20.6180 C   0  0  2  0  0  0  0  0  0  0  0  0
    7.7628  -15.8842   21.5871 N   0  0  0  0  0  0  0  0  0  0  0  0
   10.1514  -16.1531   21.1659 C   0  0  0  0  0  0  0  0  0  0  0  0
   10.3662  -15.3643   22.1446 O   0  0  0  0  0  0  0  0  0  0  0  0
   11.8439  -19.8573   27.6889 N   0  0  0  0  0  0  0  0  0  0  0  0
   11.6326  -18.5601   27.1566 C   0  0  0  0  0  0  0  0  0  0  0  0
   10.9623  -17.6594   27.7744 N   0  0  0  0  0  0  0  0  0  0  0  0
   12.1826  -18.2139   25.8711 N   0  0  0  0  0  0  0  0  0  0  0  0
   12.4535  -19.2269   24.8808 C   0  0  0  0  0  0  0  0  0  0  0  0
   12.9804  -18.5672   23.5975 C   0  0  0  0  0  0  0  0  0  0  0  0
   11.8453  -18.1617   22.6999 C   0  0  0  0  0  0  0  0  0  0  0  0
   12.3776  -17.2952   21.5828 C   0  0  2  0  0  0  0  0  0  0  0  0
   11.2615  -16.9044   20.6961 N   0  0  0  0  0  0  0  0  0  0  0  0
   13.3500  -18.0529   20.7866 C   0  0  0  0  0  0  0  0  0  0  0  0
   14.6843  -18.0858   21.2308 O   0  0  0  0  0  0  0  0  0  0  0  0
   13.1315  -18.6880   19.7354 O   0  0  0  0  0  0  0  0  0  0  0  0
  2  1  1  1
  2  3  1  0
  3  4  1  0
  4  5  2  0
  5  6  1  0
  7  6  1  0
  8  7  2  0
  9  8  1  0
 10 11  1  0
 10  9  2  0
 11 12  2  0
 12  4  1  0
 12  7  1  0
 13  2  1  0
 13 14  2  0
 16 18  1  0
 16 15  1  1
 17 16  1  0
 18 19  1  1
 19 13  1  0
 20 18  1  0
 21 20  2  0
 23 22  1  0
 23 25  1  0
 24 23  2  0
 26 25  1  0
 27 26  1  0
 27 28  1  0
 29 28  1  1
 29 30  1  0
 30 20  1  0
 31 32  1  0
 31 29  1  0
 33 31  2  0
M  END
$$$$
