WTR.pdb
     RDKit          3D

 33 34  0  0  1  0  0  0  0  0999 V2000
    8.1838  -16.0211   24.3065 N   0  0  0  0  0  0  0  0  0  0  0  0
    7.1131  -16.2932   23.3795 C   0  0  1  0  0  0  0  0  0  0  0  0
    5.8744  -15.5453   23.8332 C   0  0  0  0  0  0  0  0  0  0  0  0
    6.0831  -14.9150   25.1832 C   0  0  0  0  0  0  0  0  0  0  0  0
    5.9068  -15.5044   26.4114 C   0  0  0  0  0  0  0  0  0  0  0  0
    6.1565  -14.6038   27.3674 N   0  0  0  0  0  0  0  0  0  0  0  0
    6.4976  -13.4214   26.7926 C   0  0  0  0  0  0  0  0  0  0  0  0
    6.8481  -12.2045   27.3692 C   0  0  0  0  0  0  0  0  0  0  0  0
    7.1662  -11.1426   26.5533 C   0  0  0  0  0  0  0  0  0  0  0  0
    7.1305  -11.3092   25.1816 C   0  0  0  0  0  0  0  0  0  0  0  0
    6.7792  -12.5266   24.6513 C   0  0  0  0  0  0  0  0  0  0  0  0
    6.4533  -13.6125   25.4330 C   0  0  0  0  0  0  0  0  0  0  0  0
    7.5431  -15.8460   22.0303 C   0  0  0  0  0  0  0  0  0  0  0  0
    6.8621  -16.1117   20.9948 O   0  0  0  0  0  0  0  0  0  0  0  0
    8.7524  -13.8022   19.2034 C   0  0  0  0  0  0  0  0  0  0  0  0
   10.0151  -14.2857   19.8790 C   0  0  1  0  0  0  0  0  0  0  0  0
   10.5816  -13.2452   20.6264 O   0  0  0  0  0  0  0  0  0  0  0  0
    9.7165  -15.4818   20.8050 C   0  0  2  0  0  0  0  0  0  0  0  0
    8.7432  -15.0899   21.8046 N   0  0  0  0  0  0  0  0  0  0  0  0
   11.0122  -15.8792   21.3758 C   0  0  0  0  0  0  0  0  0  0  0  0
   11.4664  -15.2009   22.3555 O   0  0  0  0  0  0  0  0  0  0  0  0
   10.7112  -20.7910   26.5861 N   0  0  0  0  0  0  0  0  0  0  0  0
   11.9501  -20.2422   26.1683 C   0  0  0  0  0  0  0  0  0  0  0  0
   13.0238  -20.3524   26.8591 N   0  0  0  0  0  0  0  0  0  0  0  0
   12.0335  -19.5267   24.9208 N   0  0  0  0  0  0  0  0  0  0  0  0
   10.8477  -19.2170   24.1604 C   0  0  0  0  0  0  0  0  0  0  0  0
   11.2357  -18.4482   22.8883 C   0  0  0  0  0  0  0  0  0  0  0  0
   12.6868  -18.0583   22.9209 C   0  0  0  0  0  0  0  0  0  0  0  0
   13.0481  -17.3717   21.6247 C   0  0  2  0  0  0  0  0  0  0  0  0
   11.8096  -16.9658   20.9275 N   0  0  0  0  0  0  0  0  0  0  0  0
   13.7775  -18.3026   20.7559 C   0  0  0  0  0  0  0  0  0  0  0  0
   15.1005  -18.6310   21.1033 O   0  0  0  0  0  0  0  0  0  0  0  0
   13.3558  -18.8526   19.7185 O   0  0  0  0  0  0  0  0  0  0  0  0
  2  1  1  1
  2  3  1  0
  3  4  1  0
  4  5  2  0
  5  6  1  0
  7  6  1  0
  8  7  2  0
  9  8  1  0
 10 11  1  0
 10  9  2  0
 11 12  2  0
 12  4  1  0
 12  7  1  0
 13  2  1  0
 13 14  2  0
 16 18  1  0
 16 15  1  1
 17 16  1  0
 18 19  1  1
 19 13  1  0
 20 18  1  0
 21 20  2  0
 23 22  1  0
 23 25  1  0
 24 23  2  0
 26 25  1  0
 27 26  1  0
 27 28  1  0
 29 28  1  1
 29 30  1  0
 30 20  1  0
 31 32  1  0
 31 29  1  0
 33 31  2  0
M  END
$$$$
