WTR.pdb
     RDKit          3D

 33 34  0  0  1  0  0  0  0  0999 V2000
    6.4180  -16.8669   25.2075 N   0  0  0  0  0  0  0  0  0  0  0  0
    7.0805  -15.8042   24.4924 C   0  0  1  0  0  0  0  0  0  0  0  0
    8.2561  -15.3200   25.3190 C   0  0  0  0  0  0  0  0  0  0  0  0
    7.7951  -14.4979   26.4915 C   0  0  0  0  0  0  0  0  0  0  0  0
    7.5533  -14.9373   27.7704 C   0  0  0  0  0  0  0  0  0  0  0  0
    7.1220  -13.9107   28.5102 N   0  0  0  0  0  0  0  0  0  0  0  0
    7.0735  -12.7920   27.7413 C   0  0  0  0  0  0  0  0  0  0  0  0
    6.6998  -11.4907   28.0624 C   0  0  0  0  0  0  0  0  0  0  0  0
    6.7492  -10.5191   27.0887 C   0  0  0  0  0  0  0  0  0  0  0  0
    7.1686  -10.8579   25.8159 C   0  0  0  0  0  0  0  0  0  0  0  0
    7.5290  -12.1540   25.5390 C   0  0  0  0  0  0  0  0  0  0  0  0
    7.4924  -13.1546   26.4844 C   0  0  0  0  0  0  0  0  0  0  0  0
    7.5321  -16.3381   23.1823 C   0  0  0  0  0  0  0  0  0  0  0  0
    7.6948  -17.5807   22.9927 O   0  0  0  0  0  0  0  0  0  0  0  0
    6.9350  -14.2612   19.6543 C   0  0  0  0  0  0  0  0  0  0  0  0
    8.2859  -14.9356   19.7212 C   0  0  1  0  0  0  0  0  0  0  0  0
    9.2751  -13.9885   20.0156 O   0  0  0  0  0  0  0  0  0  0  0  0
    8.2934  -16.0399   20.7972 C   0  0  2  0  0  0  0  0  0  0  0  0
    7.8114  -15.4976   22.0517 N   0  0  0  0  0  0  0  0  0  0  0  0
    9.6806  -16.5235   20.8647 C   0  0  0  0  0  0  0  0  0  0  0  0
   10.4123  -16.1070   21.8225 O   0  0  0  0  0  0  0  0  0  0  0  0
   14.9109  -21.2824   18.2360 N   0  0  0  0  0  0  0  0  0  0  0  0
   15.2843  -21.9143   19.4493 C   0  0  0  0  0  0  0  0  0  0  0  0
   16.4523  -22.4046   19.6431 N   0  0  0  0  0  0  0  0  0  0  0  0
   14.3315  -22.0232   20.5242 N   0  0  0  0  0  0  0  0  0  0  0  0
   12.9834  -21.5327   20.3756 C   0  0  0  0  0  0  0  0  0  0  0  0
   12.9967  -19.9982   20.3045 C   0  0  0  0  0  0  0  0  0  0  0  0
   11.5969  -19.4529   20.2608 C   0  0  0  0  0  0  0  0  0  0  0  0
   11.6513  -17.9479   20.1423 C   0  0  2  0  0  0  0  0  0  0  0  0
   10.2824  -17.4254   19.9472 N   0  0  0  0  0  0  0  0  0  0  0  0
   12.4553  -17.5702   18.9742 C   0  0  0  0  0  0  0  0  0  0  0  0
   13.8494  -17.7432   19.0485 O   0  0  0  0  0  0  0  0  0  0  0  0
   12.0419  -17.1014   17.8946 O   0  0  0  0  0  0  0  0  0  0  0  0
  2  1  1  1
  2  3  1  0
  3  4  1  0
  4  5  2  0
  5  6  1  0
  7  6  1  0
  8  7  2  0
  9  8  1  0
 10 11  1  0
 10  9  2  0
 11 12  2  0
 12  4  1  0
 12  7  1  0
 13  2  1  0
 13 14  2  0
 16 18  1  0
 16 15  1  1
 17 16  1  0
 18 19  1  1
 19 13  1  0
 20 18  1  0
 21 20  2  0
 23 22  1  0
 23 25  1  0
 24 23  2  0
 26 25  1  0
 27 26  1  0
 27 28  1  0
 29 28  1  6
 29 30  1  0
 30 20  1  0
 31 32  1  0
 31 29  1  0
 33 31  2  0
M  END
$$$$
