WTR.pdb
     RDKit          3D

 33 34  0  0  1  0  0  0  0  0999 V2000
   12.6292  -21.1252   13.9675 N   0  0  0  0  0  0  0  0  0  0  0  0
   12.8718  -21.9607   15.1177 C   0  0  1  0  0  0  0  0  0  0  0  0
   13.5018  -23.2592   14.6523 C   0  0  0  0  0  0  0  0  0  0  0  0
   12.4845  -24.1539   13.9981 C   0  0  0  0  0  0  0  0  0  0  0  0
   11.9458  -24.0195   12.7415 C   0  0  0  0  0  0  0  0  0  0  0  0
   11.0495  -24.9917   12.5449 N   0  0  0  0  0  0  0  0  0  0  0  0
   10.9838  -25.7732   13.6538 C   0  0  0  0  0  0  0  0  0  0  0  0
   10.2116  -26.8996   13.9207 C   0  0  0  0  0  0  0  0  0  0  0  0
   10.3403  -27.5277   15.1386 C   0  0  0  0  0  0  0  0  0  0  0  0
   11.2327  -27.0260   16.0674 C   0  0  0  0  0  0  0  0  0  0  0  0
   11.9767  -25.9116   15.7656 C   0  0  0  0  0  0  0  0  0  0  0  0
   11.8764  -25.2542   14.5598 C   0  0  0  0  0  0  0  0  0  0  0  0
   13.7761  -21.2285   16.0403 C   0  0  0  0  0  0  0  0  0  0  0  0
   14.1505  -20.0417   15.7994 O   0  0  0  0  0  0  0  0  0  0  0  0
   14.9747  -19.3047   19.9956 C   0  0  0  0  0  0  0  0  0  0  0  0
   14.2293  -19.9541   18.8524 C   0  0  1  0  0  0  0  0  0  0  0  0
   13.8753  -18.9848   17.9051 O   0  0  0  0  0  0  0  0  0  0  0  0
   15.0952  -21.0387   18.1807 C   0  0  2  0  0  0  0  0  0  0  0  0
   14.2832  -21.8029   17.2551 N   0  0  0  0  0  0  0  0  0  0  0  0
   15.6467  -21.8471   19.2785 C   0  0  0  0  0  0  0  0  0  0  0  0
   14.8349  -22.3064   20.1481 O   0  0  0  0  0  0  0  0  0  0  0  0
   18.6614  -26.9153   17.6557 N   0  0  0  0  0  0  0  0  0  0  0  0
   19.3959  -26.1872   16.6857 C   0  0  0  0  0  0  0  0  0  0  0  0
   19.3715  -26.4776   15.4378 N   0  0  0  0  0  0  0  0  0  0  0  0
   20.2109  -25.0711   17.0920 N   0  0  0  0  0  0  0  0  0  0  0  0
   20.2323  -24.6262   18.4638 C   0  0  0  0  0  0  0  0  0  0  0  0
   18.8461  -24.0927   18.8557 C   0  0  0  0  0  0  0  0  0  0  0  0
   18.8592  -23.5481   20.2564 C   0  0  0  0  0  0  0  0  0  0  0  0
   17.4954  -22.9891   20.5872 C   0  0  2  0  0  0  0  0  0  0  0  0
   17.0194  -22.1660   19.4554 N   0  0  0  0  0  0  0  0  0  0  0  0
   17.5853  -22.1283   21.7723 C   0  0  0  0  0  0  0  0  0  0  0  0
   17.4167  -22.7242   23.0353 O   0  0  0  0  0  0  0  0  0  0  0  0
   17.7983  -20.8994   21.7965 O   0  0  0  0  0  0  0  0  0  0  0  0
  2  1  1  6
  2  3  1  0
  3  4  1  0
  4  5  2  0
  5  6  1  0
  7  6  1  0
  8  7  2  0
  9  8  1  0
 10 11  1  0
 10  9  2  0
 11 12  2  0
 12  4  1  0
 12  7  1  0
 13  2  1  0
 13 14  2  0
 16 18  1  0
 16 15  1  1
 17 16  1  0
 18 19  1  6
 19 13  1  0
 20 18  1  0
 21 20  2  0
 23 22  1  0
 23 25  1  0
 24 23  2  0
 26 25  1  0
 27 26  1  0
 27 28  1  0
 29 28  1  6
 29 30  1  0
 30 20  1  0
 31 32  1  0
 31 29  1  0
 33 31  2  0
M  END
$$$$
