WTR.pdb
     RDKit          3D

 33 34  0  0  1  0  0  0  0  0999 V2000
   10.0071  -15.9009   22.2958 N   0  0  0  0  0  0  0  0  0  0  0  0
    9.4036  -15.4403   23.5220 C   0  0  1  0  0  0  0  0  0  0  0  0
    7.9134  -15.7153   23.4646 C   0  0  0  0  0  0  0  0  0  0  0  0
    7.1295  -14.4391   23.3231 C   0  0  0  0  0  0  0  0  0  0  0  0
    6.5550  -13.9395   22.1796 C   0  0  0  0  0  0  0  0  0  0  0  0
    5.9803  -12.7649   22.4574 N   0  0  0  0  0  0  0  0  0  0  0  0
    6.1636  -12.4747   23.7716 C   0  0  0  0  0  0  0  0  0  0  0  0
    5.7470  -11.3792   24.5215 C   0  0  0  0  0  0  0  0  0  0  0  0
    6.0572  -11.3265   25.8614 C   0  0  0  0  0  0  0  0  0  0  0  0
    6.7744  -12.3620   26.4307 C   0  0  0  0  0  0  0  0  0  0  0  0
    7.1676  -13.4260   25.6563 C   0  0  0  0  0  0  0  0  0  0  0  0
    6.8782  -13.5155   24.3129 C   0  0  0  0  0  0  0  0  0  0  0  0
   10.0378  -16.1656   24.6519 C   0  0  0  0  0  0  0  0  0  0  0  0
   10.4721  -17.3491   24.5205 O   0  0  0  0  0  0  0  0  0  0  0  0
   11.1896  -14.0859   28.1769 C   0  0  0  0  0  0  0  0  0  0  0  0
   10.7131  -15.5104   28.3447 C   0  0  1  0  0  0  0  0  0  0  0  0
    9.3686  -15.5178   28.7378 O   0  0  0  0  0  0  0  0  0  0  0  0
   10.8694  -16.2982   27.0286 C   0  0  2  0  0  0  0  0  0  0  0  0
   10.2041  -15.5865   25.9557 N   0  0  0  0  0  0  0  0  0  0  0  0
   10.2993  -17.6287   27.2884 C   0  0  0  0  0  0  0  0  0  0  0  0
    9.3817  -18.0479   26.5083 O   0  0  0  0  0  0  0  0  0  0  0  0
   11.4395  -22.6246   22.0067 N   0  0  0  0  0  0  0  0  0  0  0  0
   12.3637  -22.3854   23.0552 C   0  0  0  0  0  0  0  0  0  0  0  0
   13.5728  -22.0185   22.8414 N   0  0  0  0  0  0  0  0  0  0  0  0
   11.9532  -22.5540   24.4256 N   0  0  0  0  0  0  0  0  0  0  0  0
   12.5286  -21.7532   25.4782 C   0  0  0  0  0  0  0  0  0  0  0  0
   11.6216  -20.5469   25.7643 C   0  0  0  0  0  0  0  0  0  0  0  0
   12.2031  -19.6866   26.8509 C   0  0  0  0  0  0  0  0  0  0  0  0
   11.3439  -19.7974   28.0884 C   0  0  2  0  0  0  0  0  0  0  0  0
   10.6872  -18.4978   28.3427 N   0  0  0  0  0  0  0  0  0  0  0  0
   12.1828  -20.1202   29.2484 C   0  0  0  0  0  0  0  0  0  0  0  0
   12.3660  -19.1269   30.2275 O   0  0  0  0  0  0  0  0  0  0  0  0
   12.7694  -21.1970   29.4777 O   0  0  0  0  0  0  0  0  0  0  0  0
  2  1  1  6
  2  3  1  0
  3  4  1  0
  4  5  2  0
  5  6  1  0
  7  6  1  0
  8  7  2  0
  9  8  1  0
 10 11  1  0
 10  9  2  0
 11 12  2  0
 12  4  1  0
 12  7  1  0
 13  2  1  0
 13 14  2  0
 16 18  1  0
 16 15  1  6
 17 16  1  0
 18 19  1  6
 19 13  1  0
 20 18  1  0
 21 20  2  0
 23 22  1  0
 23 25  1  0
 24 23  2  0
 26 25  1  0
 27 26  1  0
 27 28  1  0
 29 28  1  6
 29 30  1  0
 30 20  1  0
 31 32  1  0
 31 29  1  0
 33 31  2  0
M  END
$$$$
