RPF.pdb
     RDKit          3D

 30 31  0  0  1  0  0  0  0  0999 V2000
    5.7119  -20.7108   16.3225 N   0  0  0  0  0  0  0  0  0  0  0  0
    6.3648  -21.7638   16.9910 C   0  0  0  0  0  0  0  0  0  0  0  0
    6.3896  -22.9183   16.4401 N   0  0  0  0  0  0  0  0  0  0  0  0
    6.9772  -21.5321   18.2491 N   0  0  0  0  0  0  0  0  0  0  0  0
    6.8522  -20.2312   18.8530 C   0  0  0  0  0  0  0  0  0  0  0  0
    7.4086  -19.1411   17.9890 C   0  0  0  0  0  0  0  0  0  0  0  0
    7.2495  -17.7679   18.5884 C   0  0  0  0  0  0  0  0  0  0  0  0
    8.3689  -16.8456   18.1513 C   0  0  2  0  0  0  0  0  0  0  0  0
    9.4212  -17.6849   17.5522 N   0  0  0  0  0  0  0  0  0  0  0  0
    8.9257  -16.1517   19.3439 C   0  0  0  0  0  0  0  0  0  0  0  0
    9.8739  -16.6996   19.9813 O   0  0  0  0  0  0  0  0  0  0  0  0
    6.8997  -23.7251   16.8348 N   0  0  0  0  0  0  0  0  0  0  0  0
    8.4348  -14.9207   19.7734 C   0  0  0  0  0  0  0  0  0  0  0  0
    7.4491  -14.0843   19.0938 C   0  0  0  0  0  0  0  0  0  0  0  0
    7.9184  -12.6643   19.4213 C   0  0  0  0  0  0  0  0  0  0  0  0
    8.2145  -12.8475   20.9183 C   0  0  2  0  0  0  0  0  0  0  0  0
    8.8144  -14.2150   20.9770 C   0  0  0  0  0  0  0  0  0  0  0  0
    8.5188  -14.9774   22.2075 O   0  0  0  0  0  0  0  0  0  0  0  0
    7.3652  -15.4747   22.3536 N   0  0  0  0  0  0  0  0  0  0  0  0
    9.4295  -15.2070   23.2664 C   0  0  2  0  0  0  0  0  0  0  0  0
    9.2044  -14.8832   24.6362 C   0  0  0  0  0  0  0  0  0  0  0  0
    7.7983  -14.7660   25.0754 C   0  0  0  0  0  0  0  0  0  0  0  0
    7.4483  -13.6053   25.8936 C   0  0  0  0  0  0  0  0  0  0  0  0
    6.2127  -12.9678   25.8069 C   0  0  0  0  0  0  0  0  0  0  0  0
    5.8391  -11.9014   26.5643 C   0  0  0  0  0  0  0  0  0  0  0  0
    6.6988  -11.3868   27.4834 C   0  0  0  0  0  0  0  0  0  0  0  0
    7.9347  -11.9749   27.6140 C   0  0  0  0  0  0  0  0  0  0  0  0
    8.3083  -13.0444   26.8523 C   0  0  0  0  0  0  0  0  0  0  0  0
    9.8915  -15.9859   25.4272 O   0  0  0  0  0  0  0  0  0  0  0  0
   10.7375  -16.8280   24.7310 O   0  0  0  0  0  0  0  0  0  0  0  0
  2  1  1  0
  2  4  1  0
  3  2  2  0
  4  5  1  0
  5  6  1  0
  7  8  1  0
  7  6  1  0
  8  9  1  1
 10  8  1  0
 11 10  2  0
 12 16  1  0
 12 10  1  0
 13 12  1  0
 14 13  1  0
 14 15  1  0
 15 16  1  0
 17 19  1  0
 16 17  1  1
 18 17  2  0
 20 21  1  6
 20 19  1  0
 21 22  1  0
 22 27  1  0
 23 22  2  0
 23 24  1  0
 24 25  2  0
 25 26  1  0
 27 26  2  0
 28 29  1  0
 28 20  1  0
 30 28  2  0
M  END
$$$$
