RPF.pdb
     RDKit          3D

 30 31  0  0  1  0  0  0  0  0999 V2000
    8.0614  -13.7541   14.2039 N   0  0  0  0  0  0  0  0  0  0  0  0
    8.5270  -15.0828   14.2061 C   0  0  0  0  0  0  0  0  0  0  0  0
    9.4488  -15.4112   13.3819 N   0  0  0  0  0  0  0  0  0  0  0  0
    7.9742  -16.0253   15.1104 N   0  0  0  0  0  0  0  0  0  0  0  0
    8.4367  -16.0332   16.4738 C   0  0  0  0  0  0  0  0  0  0  0  0
    9.5087  -17.0526   16.7105 C   0  0  0  0  0  0  0  0  0  0  0  0
    9.9282  -17.1497   18.1545 C   0  0  0  0  0  0  0  0  0  0  0  0
   10.7412  -15.9416   18.5719 C   0  0  2  0  0  0  0  0  0  0  0  0
   12.1494  -16.3667   18.6541 N   0  0  0  0  0  0  0  0  0  0  0  0
   10.2937  -15.4912   19.9175 C   0  0  0  0  0  0  0  0  0  0  0  0
   10.9585  -15.8520   20.9341 O   0  0  0  0  0  0  0  0  0  0  0  0
    9.8783  -16.3503   13.3546 N   0  0  0  0  0  0  0  0  0  0  0  0
    9.1697  -14.6856   20.0864 C   0  0  0  0  0  0  0  0  0  0  0  0
    8.2551  -14.2267   19.0442 C   0  0  0  0  0  0  0  0  0  0  0  0
    7.8527  -12.8316   19.5296 C   0  0  0  0  0  0  0  0  0  0  0  0
    7.6015  -13.1549   21.0110 C   0  0  2  0  0  0  0  0  0  0  0  0
    8.6887  -14.1289   21.3312 C   0  0  0  0  0  0  0  0  0  0  0  0
    8.3319  -15.1637   22.3235 O   0  0  0  0  0  0  0  0  0  0  0  0
    8.1136  -16.3429   21.9222 N   0  0  0  0  0  0  0  0  0  0  0  0
    8.2062  -14.9518   23.7173 C   0  0  2  0  0  0  0  0  0  0  0  0
    8.1109  -15.9757   24.7045 C   0  0  0  0  0  0  0  0  0  0  0  0
    8.2637  -15.5635   26.1154 C   0  0  0  0  0  0  0  0  0  0  0  0
    7.5680  -14.3474   26.5353 C   0  0  0  0  0  0  0  0  0  0  0  0
    8.2123  -13.2980   27.1867 C   0  0  0  0  0  0  0  0  0  0  0  0
    7.6084  -12.1420   27.5733 C   0  0  0  0  0  0  0  0  0  0  0  0
    6.2844  -11.9527   27.3284 C   0  0  0  0  0  0  0  0  0  0  0  0
    5.5949  -12.9551   26.6880 C   0  0  0  0  0  0  0  0  0  0  0  0
    6.2024  -14.1150   26.3018 C   0  0  0  0  0  0  0  0  0  0  0  0
    6.7376  -16.5986   24.5051 O   0  0  0  0  0  0  0  0  0  0  0  0
    5.8962  -15.9911   23.5928 O   0  0  0  0  0  0  0  0  0  0  0  0
  2  1  1  0
  2  4  1  0
  3  2  2  0
  4  5  1  0
  5  6  1  0
  7  8  1  0
  7  6  1  0
  8  9  1  1
 10  8  1  0
 11 10  2  0
 12 16  1  0
 12 10  1  0
 13 12  1  0
 14 13  1  0
 14 15  1  0
 15 16  1  0
 17 19  1  0
 16 17  1  6
 18 17  2  0
 20 21  1  6
 20 19  1  0
 21 22  1  0
 22 27  1  0
 23 22  2  0
 23 24  1  0
 24 25  2  0
 25 26  1  0
 27 26  2  0
 28 29  1  0
 28 20  1  0
 30 28  2  0
M  END
$$$$
