RPF.pdb
     RDKit          3D

 30 31  0  0  1  0  0  0  0  0999 V2000
    7.1274  -22.1138   16.5613 N   0  0  0  0  0  0  0  0  0  0  0  0
    7.5506  -22.3340   17.8859 C   0  0  0  0  0  0  0  0  0  0  0  0
    8.0244  -23.4812   18.1958 N   0  0  0  0  0  0  0  0  0  0  0  0
    7.4467  -21.2939   18.8446 N   0  0  0  0  0  0  0  0  0  0  0  0
    6.9421  -20.0120   18.4263 C   0  0  0  0  0  0  0  0  0  0  0  0
    8.0136  -18.9672   18.3596 C   0  0  0  0  0  0  0  0  0  0  0  0
    7.5017  -17.6176   17.9273 C   0  0  0  0  0  0  0  0  0  0  0  0
    8.6294  -16.6118   17.8199 C   0  0  2  0  0  0  0  0  0  0  0  0
    9.7970  -17.3185   17.2650 N   0  0  0  0  0  0  0  0  0  0  0  0
    8.9697  -16.1104   19.1787 C   0  0  0  0  0  0  0  0  0  0  0  0
    9.9270  -16.6528   19.8072 O   0  0  0  0  0  0  0  0  0  0  0  0
    8.4843  -23.6808   19.0989 N   0  0  0  0  0  0  0  0  0  0  0  0
    8.2675  -15.0642   19.7729 C   0  0  0  0  0  0  0  0  0  0  0  0
    7.1911  -14.2791   19.1744 C   0  0  0  0  0  0  0  0  0  0  0  0
    7.4095  -12.8857   19.7698 C   0  0  0  0  0  0  0  0  0  0  0  0
    7.6638  -13.2854   21.2320 C   0  0  2  0  0  0  0  0  0  0  0  0
    8.4735  -14.5347   21.1026 C   0  0  0  0  0  0  0  0  0  0  0  0
    8.2499  -15.5398   22.1622 O   0  0  0  0  0  0  0  0  0  0  0  0
    7.3741  -16.4335   21.9790 N   0  0  0  0  0  0  0  0  0  0  0  0
    8.9413  -15.5954   23.3961 C   0  0  2  0  0  0  0  0  0  0  0  0
    8.5631  -14.9111   24.5879 C   0  0  0  0  0  0  0  0  0  0  0  0
    8.1478  -13.4998   24.4480 C   0  0  0  0  0  0  0  0  0  0  0  0
    7.6708  -12.8210   25.6525 C   0  0  0  0  0  0  0  0  0  0  0  0
    8.5285  -12.3771   26.6564 C   0  0  0  0  0  0  0  0  0  0  0  0
    8.1289  -11.7224   27.7800 C   0  0  0  0  0  0  0  0  0  0  0  0
    6.8098  -11.4611   27.9807 C   0  0  0  0  0  0  0  0  0  0  0  0
    5.9148  -11.8762   27.0231 C   0  0  0  0  0  0  0  0  0  0  0  0
    6.3175  -12.5340   25.8967 C   0  0  0  0  0  0  0  0  0  0  0  0
    7.4142  -15.7216   25.1684 O   0  0  0  0  0  0  0  0  0  0  0  0
    7.5551  -16.1756   26.4658 O   0  0  0  0  0  0  0  0  0  0  0  0
  2  1  1  0
  2  4  1  0
  3  2  2  0
  4  5  1  0
  5  6  1  0
  7  8  1  0
  7  6  1  0
  8  9  1  1
 10  8  1  0
 11 10  2  0
 12 16  1  0
 12 10  1  0
 13 12  1  0
 14 13  1  0
 14 15  1  0
 15 16  1  0
 17 19  1  0
 16 17  1  1
 18 17  2  0
 20 21  1  6
 20 19  1  0
 21 22  1  0
 22 27  1  0
 23 22  2  0
 23 24  1  0
 24 25  2  0
 25 26  1  0
 27 26  2  0
 28 29  1  0
 28 20  1  0
 30 28  2  0
M  END
$$$$
