RPF.pdb
     RDKit          3D

 30 31  0  0  1  0  0  0  0  0999 V2000
    8.0528  -13.4712   16.3052 N   0  0  0  0  0  0  0  0  0  0  0  0
    8.1198  -13.2754   17.6977 C   0  0  0  0  0  0  0  0  0  0  0  0
    8.2090  -12.0804   18.1457 N   0  0  0  0  0  0  0  0  0  0  0  0
    8.0879  -14.3918   18.5720 N   0  0  0  0  0  0  0  0  0  0  0  0
    8.0365  -14.1603   19.9921 C   0  0  0  0  0  0  0  0  0  0  0  0
    8.0290  -15.4335   20.7815 C   0  0  0  0  0  0  0  0  0  0  0  0
    6.8338  -15.5627   21.6899 C   0  0  0  0  0  0  0  0  0  0  0  0
    6.6650  -16.9878   22.1750 C   0  0  2  0  0  0  0  0  0  0  0  0
    5.2278  -17.3058   22.1126 N   0  0  0  0  0  0  0  0  0  0  0  0
    7.1189  -17.0809   23.5889 C   0  0  0  0  0  0  0  0  0  0  0  0
    6.5569  -16.3516   24.4595 O   0  0  0  0  0  0  0  0  0  0  0  0
    8.3180  -11.8561   19.1481 N   0  0  0  0  0  0  0  0  0  0  0  0
    8.1389  -17.9465   23.9775 C   0  0  0  0  0  0  0  0  0  0  0  0
    8.8390  -18.9116   23.1339 C   0  0  0  0  0  0  0  0  0  0  0  0
    9.1142  -20.0719   24.0939 C   0  0  0  0  0  0  0  0  0  0  0  0
    9.5994  -19.2681   25.3108 C   0  0  2  0  0  0  0  0  0  0  0  0
    8.7023  -18.0730   25.3032 C   0  0  0  0  0  0  0  0  0  0  0  0
    9.3208  -16.8212   25.7864 O   0  0  0  0  0  0  0  0  0  0  0  0
    9.9526  -16.0971   24.9644 N   0  0  0  0  0  0  0  0  0  0  0  0
    9.2725  -16.3460   27.1188 C   0  0  1  0  0  0  0  0  0  0  0  0
   10.0922  -15.3124   27.6588 C   0  0  0  0  0  0  0  0  0  0  0  0
    9.4126  -14.0716   28.0861 C   0  0  0  0  0  0  0  0  0  0  0  0
    8.4599  -13.4753   27.1503 C   0  0  0  0  0  0  0  0  0  0  0  0
    8.8539  -12.8600   25.9642 C   0  0  0  0  0  0  0  0  0  0  0  0
    8.0002  -12.3140   25.0567 C   0  0  0  0  0  0  0  0  0  0  0  0
    6.6594  -12.3470   25.2804 C   0  0  0  0  0  0  0  0  0  0  0  0
    6.2105  -12.9416   26.4359 C   0  0  0  0  0  0  0  0  0  0  0  0
    7.0689  -13.4881   27.3460 C   0  0  0  0  0  0  0  0  0  0  0  0
   10.7958  -15.9408   28.8521 O   0  0  0  0  0  0  0  0  0  0  0  0
   10.4112  -17.2189   29.2096 O   0  0  0  0  0  0  0  0  0  0  0  0
  2  1  1  0
  2  4  1  0
  3  2  2  0
  4  5  1  0
  5  6  1  0
  7  8  1  0
  7  6  1  0
  8  9  1  1
 10  8  1  0
 11 10  2  0
 12 16  1  0
 12 10  1  0
 13 12  1  0
 14 13  1  0
 14 15  1  0
 15 16  1  0
 17 19  1  0
 16 17  1  6
 18 17  2  0
 20 21  1  1
 20 19  1  0
 21 22  1  0
 22 27  1  0
 23 22  2  0
 23 24  1  0
 24 25  2  0
 25 26  1  0
 27 26  2  0
 28 29  1  0
 28 20  1  0
 30 28  2  0
M  END
$$$$
