RPF.pdb
     RDKit          3D

 30 31  0  0  1  0  0  0  0  0999 V2000
    8.1477  -13.1312   16.6704 N   0  0  0  0  0  0  0  0  0  0  0  0
    8.3503  -13.3568   18.0452 C   0  0  0  0  0  0  0  0  0  0  0  0
    8.6838  -12.3687   18.7864 N   0  0  0  0  0  0  0  0  0  0  0  0
    8.1838  -14.6594   18.5811 N   0  0  0  0  0  0  0  0  0  0  0  0
    8.6680  -14.9307   19.9096 C   0  0  0  0  0  0  0  0  0  0  0  0
    7.7077  -14.4903   20.9718 C   0  0  0  0  0  0  0  0  0  0  0  0
    6.4823  -15.3623   21.0638 C   0  0  0  0  0  0  0  0  0  0  0  0
    6.8553  -16.8061   21.3307 C   0  0  2  0  0  0  0  0  0  0  0  0
    5.6029  -17.5800   21.3878 N   0  0  0  0  0  0  0  0  0  0  0  0
    7.5408  -16.8995   22.6480 C   0  0  0  0  0  0  0  0  0  0  0  0
    6.9150  -16.5371   23.6885 O   0  0  0  0  0  0  0  0  0  0  0  0
    8.8641  -12.4543   19.7999 N   0  0  0  0  0  0  0  0  0  0  0  0
    8.8451  -17.3746   22.7653 C   0  0  0  0  0  0  0  0  0  0  0  0
    9.7132  -17.8301   21.6827 C   0  0  0  0  0  0  0  0  0  0  0  0
   10.5143  -18.9593   22.3359 C   0  0  0  0  0  0  0  0  0  0  0  0
   10.8523  -18.2747   23.6699 C   0  0  2  0  0  0  0  0  0  0  0  0
    9.5996  -17.5253   23.9896 C   0  0  0  0  0  0  0  0  0  0  0  0
    9.7980  -16.2470   24.7033 O   0  0  0  0  0  0  0  0  0  0  0  0
   10.2032  -15.2420   24.0513 N   0  0  0  0  0  0  0  0  0  0  0  0
    9.5728  -16.0378   26.0849 C   0  0  1  0  0  0  0  0  0  0  0  0
   10.3544  -15.2001   26.9330 C   0  0  0  0  0  0  0  0  0  0  0  0
   10.0861  -13.7481   26.8735 C   0  0  0  0  0  0  0  0  0  0  0  0
    8.7378  -13.3330   26.4876 C   0  0  0  0  0  0  0  0  0  0  0  0
    8.3250  -12.0026   26.5070 C   0  0  0  0  0  0  0  0  0  0  0  0
    7.0894  -11.5719   26.1350 C   0  0  0  0  0  0  0  0  0  0  0  0
    6.1587  -12.4664   25.7076 C   0  0  0  0  0  0  0  0  0  0  0  0
    6.5089  -13.7953   25.6674 C   0  0  0  0  0  0  0  0  0  0  0  0
    7.7490  -14.2258   26.0421 C   0  0  0  0  0  0  0  0  0  0  0  0
   10.0957  -15.7052   28.3443 O   0  0  0  0  0  0  0  0  0  0  0  0
    9.2400  -16.7813   28.4819 O   0  0  0  0  0  0  0  0  0  0  0  0
  2  1  1  0
  2  4  1  0
  3  2  2  0
  4  5  1  0
  5  6  1  0
  7  8  1  0
  7  6  1  0
  8  9  1  1
 10  8  1  0
 11 10  2  0
 12 16  1  0
 12 10  1  0
 13 12  1  0
 14 13  1  0
 14 15  1  0
 15 16  1  0
 17 19  1  0
 16 17  1  6
 18 17  2  0
 20 21  1  1
 20 19  1  0
 21 22  1  0
 22 27  1  0
 23 22  2  0
 23 24  1  0
 24 25  2  0
 25 26  1  0
 27 26  2  0
 28 29  1  0
 28 20  1  0
 30 28  2  0
M  END
$$$$
