RPF.pdb
     RDKit          3D

 30 31  0  0  1  0  0  0  0  0999 V2000
    9.4573  -22.3044   17.9840 N   0  0  0  0  0  0  0  0  0  0  0  0
   10.4913  -22.3771   18.9367 C   0  0  0  0  0  0  0  0  0  0  0  0
   11.2195  -23.4284   18.9728 N   0  0  0  0  0  0  0  0  0  0  0  0
   10.7074  -21.2975   19.8309 N   0  0  0  0  0  0  0  0  0  0  0  0
    9.7583  -20.2153   19.8549 C   0  0  0  0  0  0  0  0  0  0  0  0
   10.0286  -19.1909   18.7956 C   0  0  0  0  0  0  0  0  0  0  0  0
    9.0557  -18.0405   18.8191 C   0  0  0  0  0  0  0  0  0  0  0  0
    9.7701  -16.7146   18.6565 C   0  0  2  0  0  0  0  0  0  0  0  0
   11.1932  -17.0092   18.4140 N   0  0  0  0  0  0  0  0  0  0  0  0
    9.6469  -15.9340   19.9171 C   0  0  0  0  0  0  0  0  0  0  0  0
   10.6085  -15.9515   20.7421 O   0  0  0  0  0  0  0  0  0  0  0  0
   11.9884  -23.5639   19.6491 N   0  0  0  0  0  0  0  0  0  0  0  0
    8.5082  -15.1869   20.2102 C   0  0  0  0  0  0  0  0  0  0  0  0
    7.3207  -15.0336   19.3739 C   0  0  0  0  0  0  0  0  0  0  0  0
    6.8819  -13.5950   19.6597 C   0  0  0  0  0  0  0  0  0  0  0  0
    7.0366  -13.5950   21.1888 C   0  0  2  0  0  0  0  0  0  0  0  0
    8.2783  -14.3991   21.4007 C   0  0  0  0  0  0  0  0  0  0  0  0
    8.2990  -15.2073   22.6374 O   0  0  0  0  0  0  0  0  0  0  0  0
    8.0107  -16.4365   22.5665 N   0  0  0  0  0  0  0  0  0  0  0  0
    8.6176  -14.7204   23.9277 C   0  0  2  0  0  0  0  0  0  0  0  0
    8.6244  -15.4935   25.1252 C   0  0  0  0  0  0  0  0  0  0  0  0
    8.9100  -14.7760   26.3852 C   0  0  0  0  0  0  0  0  0  0  0  0
    8.1178  -13.5794   26.6671 C   0  0  0  0  0  0  0  0  0  0  0  0
    8.3993  -12.7227   27.7290 C   0  0  0  0  0  0  0  0  0  0  0  0
    7.7029  -11.5890   28.0122 C   0  0  0  0  0  0  0  0  0  0  0  0
    6.6498  -11.2263   27.2323 C   0  0  0  0  0  0  0  0  0  0  0  0
    6.3239  -12.0340   26.1684 C   0  0  0  0  0  0  0  0  0  0  0  0
    7.0234  -13.1719   25.8864 C   0  0  0  0  0  0  0  0  0  0  0  0
    7.2420  -16.1234   25.2037 O   0  0  0  0  0  0  0  0  0  0  0  0
    6.3001  -15.6931   24.2889 O   0  0  0  0  0  0  0  0  0  0  0  0
  2  1  1  0
  2  4  1  0
  3  2  2  0
  4  5  1  0
  5  6  1  0
  7  8  1  0
  7  6  1  0
  8  9  1  1
 10  8  1  0
 11 10  2  0
 12 16  1  0
 12 10  1  0
 13 12  1  0
 14 13  1  0
 14 15  1  0
 15 16  1  0
 17 19  1  0
 16 17  1  1
 18 17  2  0
 20 21  1  6
 20 19  1  0
 21 22  1  0
 22 27  1  0
 23 22  2  0
 23 24  1  0
 24 25  2  0
 25 26  1  0
 27 26  2  0
 28 29  1  0
 28 20  1  0
 30 28  2  0
M  END
$$$$
