RPF.pdb
     RDKit          3D

 30 31  0  0  1  0  0  0  0  0999 V2000
   10.8223  -13.6885   19.9172 N   0  0  0  0  0  0  0  0  0  0  0  0
   10.2893  -13.7205   18.6145 C   0  0  0  0  0  0  0  0  0  0  0  0
   11.0310  -14.1355   17.6582 N   0  0  0  0  0  0  0  0  0  0  0  0
    8.9551  -13.2977   18.3847 N   0  0  0  0  0  0  0  0  0  0  0  0
    8.1425  -12.9205   19.5117 C   0  0  0  0  0  0  0  0  0  0  0  0
    7.9824  -14.0332   20.5021 C   0  0  0  0  0  0  0  0  0  0  0  0
    6.5660  -14.5366   20.6068 C   0  0  0  0  0  0  0  0  0  0  0  0
    6.5230  -16.0504   20.6403 C   0  0  2  0  0  0  0  0  0  0  0  0
    5.1095  -16.4471   20.7636 N   0  0  0  0  0  0  0  0  0  0  0  0
    7.2662  -16.5353   21.8345 C   0  0  0  0  0  0  0  0  0  0  0  0
    6.8251  -16.2463   22.9867 O   0  0  0  0  0  0  0  0  0  0  0  0
   10.7533  -14.0926   16.6642 N   0  0  0  0  0  0  0  0  0  0  0  0
    8.4271  -17.2967   21.7181 C   0  0  0  0  0  0  0  0  0  0  0  0
    9.0597  -17.7476   20.4813 C   0  0  0  0  0  0  0  0  0  0  0  0
    9.6293  -19.1158   20.8652 C   0  0  0  0  0  0  0  0  0  0  0  0
   10.2407  -18.7491   22.2268 C   0  0  2  0  0  0  0  0  0  0  0  0
    9.2346  -17.8066   22.8038 C   0  0  0  0  0  0  0  0  0  0  0  0
    9.7935  -16.7368   23.6558 O   0  0  0  0  0  0  0  0  0  0  0  0
   10.4077  -15.7782   23.1054 N   0  0  0  0  0  0  0  0  0  0  0  0
    9.7048  -16.6849   25.0675 C   0  0  1  0  0  0  0  0  0  0  0  0
   10.4023  -15.7682   25.9071 C   0  0  0  0  0  0  0  0  0  0  0  0
   10.1298  -14.3303   25.7022 C   0  0  0  0  0  0  0  0  0  0  0  0
    8.7750  -13.8594   25.9884 C   0  0  0  0  0  0  0  0  0  0  0  0
    8.4525  -13.1501   27.1432 C   0  0  0  0  0  0  0  0  0  0  0  0
    7.2121  -12.6751   27.4367 C   0  0  0  0  0  0  0  0  0  0  0  0
    6.1833  -12.8833   26.5724 C   0  0  0  0  0  0  0  0  0  0  0  0
    6.4413  -13.5783   25.4146 C   0  0  0  0  0  0  0  0  0  0  0  0
    7.6866  -14.0552   25.1223 C   0  0  0  0  0  0  0  0  0  0  0  0
   10.0233  -16.1576   27.3279 O   0  0  0  0  0  0  0  0  0  0  0  0
   10.7379  -15.5704   28.3545 O   0  0  0  0  0  0  0  0  0  0  0  0
  2  1  1  0
  2  4  1  0
  3  2  2  0
  4  5  1  0
  5  6  1  0
  7  8  1  0
  7  6  1  0
  8  9  1  1
 10  8  1  0
 11 10  2  0
 12 16  1  0
 12 10  1  0
 13 12  1  0
 14 13  1  0
 14 15  1  0
 15 16  1  0
 17 19  1  0
 16 17  1  6
 18 17  2  0
 20 21  1  1
 20 19  1  0
 21 22  1  0
 22 27  1  0
 23 22  2  0
 23 24  1  0
 24 25  2  0
 25 26  1  0
 27 26  2  0
 28 29  1  0
 28 20  1  0
 30 28  2  0
M  END
$$$$
