RPF.pdb
     RDKit          3D

 30 31  0  0  1  0  0  0  0  0999 V2000
    8.2043  -12.2039   17.8583 N   0  0  0  0  0  0  0  0  0  0  0  0
    8.5134  -12.9325   19.0226 C   0  0  0  0  0  0  0  0  0  0  0  0
    9.6012  -12.6671   19.6416 N   0  0  0  0  0  0  0  0  0  0  0  0
    7.6257  -13.9369   19.4861 N   0  0  0  0  0  0  0  0  0  0  0  0
    8.0475  -14.7925   20.5643 C   0  0  0  0  0  0  0  0  0  0  0  0
    7.3185  -14.5081   21.8418 C   0  0  0  0  0  0  0  0  0  0  0  0
    6.2419  -15.5166   22.1491 C   0  0  0  0  0  0  0  0  0  0  0  0
    6.8080  -16.9200   22.2165 C   0  0  2  0  0  0  0  0  0  0  0  0
    5.6721  -17.8449   22.3746 N   0  0  0  0  0  0  0  0  0  0  0  0
    7.6929  -17.0346   23.4071 C   0  0  0  0  0  0  0  0  0  0  0  0
    7.1854  -16.8975   24.5600 O   0  0  0  0  0  0  0  0  0  0  0  0
    9.8978  -13.1537   20.5032 N   0  0  0  0  0  0  0  0  0  0  0  0
    9.0572  -17.2895   23.2865 C   0  0  0  0  0  0  0  0  0  0  0  0
    9.8149  -17.4408   22.0471 C   0  0  0  0  0  0  0  0  0  0  0  0
   10.8662  -18.4919   22.4127 C   0  0  0  0  0  0  0  0  0  0  0  0
   11.2894  -17.9427   23.7844 C   0  0  2  0  0  0  0  0  0  0  0  0
    9.9984  -17.4693   24.3695 C   0  0  0  0  0  0  0  0  0  0  0  0
   10.1031  -16.2822   25.2428 O   0  0  0  0  0  0  0  0  0  0  0  0
   10.3437  -15.1580   24.7160 N   0  0  0  0  0  0  0  0  0  0  0  0
    9.9576  -16.2868   26.6507 C   0  0  1  0  0  0  0  0  0  0  0  0
   10.3598  -15.2374   27.5274 C   0  0  0  0  0  0  0  0  0  0  0  0
    9.2943  -14.3630   28.0602 C   0  0  0  0  0  0  0  0  0  0  0  0
    8.4358  -13.6873   27.0878 C   0  0  0  0  0  0  0  0  0  0  0  0
    7.2150  -14.2113   26.6688 C   0  0  0  0  0  0  0  0  0  0  0  0
    6.3769  -13.6052   25.7851 C   0  0  0  0  0  0  0  0  0  0  0  0
    6.7124  -12.4027   25.2464 C   0  0  0  0  0  0  0  0  0  0  0  0
    7.9072  -11.8358   25.6224 C   0  0  0  0  0  0  0  0  0  0  0  0
    8.7474  -12.4460   26.5086 C   0  0  0  0  0  0  0  0  0  0  0  0
   11.0710  -15.9287   28.6807 O   0  0  0  0  0  0  0  0  0  0  0  0
   11.1134  -17.3097   28.6583 O   0  0  0  0  0  0  0  0  0  0  0  0
  2  1  1  0
  2  4  1  0
  3  2  2  0
  4  5  1  0
  5  6  1  0
  7  8  1  0
  7  6  1  0
  8  9  1  1
 10  8  1  0
 11 10  2  0
 12 16  1  0
 12 10  1  0
 13 12  1  0
 14 13  1  0
 14 15  1  0
 15 16  1  0
 17 19  1  0
 16 17  1  6
 18 17  2  0
 20 21  1  1
 20 19  1  0
 21 22  1  0
 22 27  1  0
 23 22  2  0
 23 24  1  0
 24 25  2  0
 25 26  1  0
 27 26  2  0
 28 29  1  0
 28 20  1  0
 30 28  2  0
M  END
$$$$
