RPF.pdb
     RDKit          3D

 30 31  0  0  1  0  0  0  0  0999 V2000
   11.4723  -22.1135   16.8144 N   0  0  0  0  0  0  0  0  0  0  0  0
   12.4230  -21.0792   16.9063 C   0  0  0  0  0  0  0  0  0  0  0  0
   12.9321  -20.6163   15.8277 N   0  0  0  0  0  0  0  0  0  0  0  0
   12.7975  -20.5723   18.1769 N   0  0  0  0  0  0  0  0  0  0  0  0
   11.7907  -19.9605   19.0045 C   0  0  0  0  0  0  0  0  0  0  0  0
   10.9201  -19.0096   18.2413 C   0  0  0  0  0  0  0  0  0  0  0  0
    9.9038  -18.3096   19.1059 C   0  0  0  0  0  0  0  0  0  0  0  0
    9.8415  -16.8294   18.7902 C   0  0  2  0  0  0  0  0  0  0  0  0
   11.1827  -16.4196   18.3386 N   0  0  0  0  0  0  0  0  0  0  0  0
    9.4988  -16.0785   20.0281 C   0  0  0  0  0  0  0  0  0  0  0  0
   10.4298  -15.7614   20.8269 O   0  0  0  0  0  0  0  0  0  0  0  0
   13.6469  -19.8708   15.8111 N   0  0  0  0  0  0  0  0  0  0  0  0
    8.1876  -15.7155   20.3278 C   0  0  0  0  0  0  0  0  0  0  0  0
    6.9985  -15.9797   19.5219 C   0  0  0  0  0  0  0  0  0  0  0  0
    6.1332  -14.7411   19.7692 C   0  0  0  0  0  0  0  0  0  0  0  0
    6.3056  -14.6267   21.2922 C   0  0  2  0  0  0  0  0  0  0  0  0
    7.7408  -14.9896   21.4959 C   0  0  0  0  0  0  0  0  0  0  0  0
    8.0361  -15.6963   22.7593 O   0  0  0  0  0  0  0  0  0  0  0  0
    8.3142  -16.9293   22.7169 N   0  0  0  0  0  0  0  0  0  0  0  0
    8.0345  -15.1069   24.0461 C   0  0  2  0  0  0  0  0  0  0  0  0
    8.4031  -15.7626   25.2569 C   0  0  0  0  0  0  0  0  0  0  0  0
    8.6234  -14.9081   26.4423 C   0  0  0  0  0  0  0  0  0  0  0  0
    7.7807  -13.7202   26.5757 C   0  0  0  0  0  0  0  0  0  0  0  0
    8.1984  -12.4521   26.1780 C   0  0  0  0  0  0  0  0  0  0  0  0
    7.4389  -11.3268   26.2634 C   0  0  0  0  0  0  0  0  0  0  0  0
    6.1773  -11.3956   26.7659 C   0  0  0  0  0  0  0  0  0  0  0  0
    5.7098  -12.6219   27.1756 C   0  0  0  0  0  0  0  0  0  0  0  0
    6.4739  -13.7500   27.0901 C   0  0  0  0  0  0  0  0  0  0  0  0
    7.2750  -16.7424   25.5419 O   0  0  0  0  0  0  0  0  0  0  0  0
    7.5064  -17.7084   26.5024 O   0  0  0  0  0  0  0  0  0  0  0  0
  2  1  1  0
  2  4  1  0
  3  2  2  0
  4  5  1  0
  5  6  1  0
  7  8  1  0
  7  6  1  0
  8  9  1  1
 10  8  1  0
 11 10  2  0
 12 16  1  0
 12 10  1  0
 13 12  1  0
 14 13  1  0
 14 15  1  0
 15 16  1  0
 17 19  1  0
 16 17  1  1
 18 17  2  0
 20 21  1  6
 20 19  1  0
 21 22  1  0
 22 27  1  0
 23 22  2  0
 23 24  1  0
 24 25  2  0
 25 26  1  0
 27 26  2  0
 28 29  1  0
 28 20  1  0
 30 28  2  0
M  END
$$$$
