RPF.pdb
     RDKit          3D

 30 31  0  0  1  0  0  0  0  0999 V2000
   15.2012  -13.7867   19.9825 N   0  0  0  0  0  0  0  0  0  0  0  0
   14.4071  -14.3632   18.9730 C   0  0  0  0  0  0  0  0  0  0  0  0
   14.8171  -14.3064   17.7624 N   0  0  0  0  0  0  0  0  0  0  0  0
   13.1800  -14.9902   19.3089 N   0  0  0  0  0  0  0  0  0  0  0  0
   12.3624  -15.5266   18.2523 C   0  0  0  0  0  0  0  0  0  0  0  0
   11.0052  -14.8944   18.1992 C   0  0  0  0  0  0  0  0  0  0  0  0
   10.4106  -14.6479   19.5615 C   0  0  0  0  0  0  0  0  0  0  0  0
    8.9792  -14.1635   19.4558 C   0  0  2  0  0  0  0  0  0  0  0  0
    9.0197  -12.6955   19.3380 N   0  0  0  0  0  0  0  0  0  0  0  0
    8.2458  -14.5279   20.6980 C   0  0  0  0  0  0  0  0  0  0  0  0
    8.1875  -13.6845   21.6419 O   0  0  0  0  0  0  0  0  0  0  0  0
   14.2963  -14.7098   16.9668 N   0  0  0  0  0  0  0  0  0  0  0  0
    7.6232  -15.7652   20.8474 C   0  0  0  0  0  0  0  0  0  0  0  0
    7.5294  -16.8260   19.8479 C   0  0  0  0  0  0  0  0  0  0  0  0
    6.1556  -17.4412   20.1271 C   0  0  0  0  0  0  0  0  0  0  0  0
    6.2312  -17.5140   21.6605 C   0  0  2  0  0  0  0  0  0  0  0  0
    6.9306  -16.2441   22.0229 C   0  0  0  0  0  0  0  0  0  0  0  0
    7.8047  -16.3263   23.2112 O   0  0  0  0  0  0  0  0  0  0  0  0
    9.0510  -16.4588   23.0425 N   0  0  0  0  0  0  0  0  0  0  0  0
    7.3652  -16.2713   24.5555 C   0  0  1  0  0  0  0  0  0  0  0  0
    8.2116  -16.2432   25.7022 C   0  0  0  0  0  0  0  0  0  0  0  0
    7.6812  -15.5794   26.9112 C   0  0  0  0  0  0  0  0  0  0  0  0
    7.1438  -14.2287   26.7507 C   0  0  0  0  0  0  0  0  0  0  0  0
    5.7850  -13.9411   26.8583 C   0  0  0  0  0  0  0  0  0  0  0  0
    5.2469  -12.6974   26.7387 C   0  0  0  0  0  0  0  0  0  0  0  0
    6.0528  -11.6294   26.4967 C   0  0  0  0  0  0  0  0  0  0  0  0
    7.4046  -11.8519   26.3800 C   0  0  0  0  0  0  0  0  0  0  0  0
    7.9426  -13.1008   26.4992 C   0  0  0  0  0  0  0  0  0  0  0  0
    8.5110  -17.7013   26.0154 O   0  0  0  0  0  0  0  0  0  0  0  0
    7.7693  -18.6554   25.3453 O   0  0  0  0  0  0  0  0  0  0  0  0
  2  1  1  0
  2  4  1  0
  3  2  2  0
  4  5  1  0
  5  6  1  0
  7  8  1  0
  7  6  1  0
  8  9  1  1
 10  8  1  0
 11 10  2  0
 12 16  1  0
 12 10  1  0
 13 12  1  0
 14 13  1  0
 14 15  1  0
 15 16  1  0
 17 19  1  0
 16 17  1  6
 18 17  2  0
 20 21  1  1
 20 19  1  0
 21 22  1  0
 22 27  1  0
 23 22  2  0
 23 24  1  0
 24 25  2  0
 25 26  1  0
 27 26  2  0
 28 29  1  0
 28 20  1  0
 30 28  2  0
M  END
$$$$
