RPF.pdb
     RDKit          3D

 30 31  0  0  1  0  0  0  0  0999 V2000
    6.6876  -18.0807   14.9904 N   0  0  0  0  0  0  0  0  0  0  0  0
    7.5065  -19.1576   14.6007 C   0  0  0  0  0  0  0  0  0  0  0  0
    7.2009  -19.8091   13.5429 N   0  0  0  0  0  0  0  0  0  0  0  0
    8.6433  -19.4998   15.3767 N   0  0  0  0  0  0  0  0  0  0  0  0
    8.5832  -19.3361   16.8058 C   0  0  0  0  0  0  0  0  0  0  0  0
    8.5613  -17.8961   17.2184 C   0  0  0  0  0  0  0  0  0  0  0  0
    9.0963  -17.6678   18.6084 C   0  0  0  0  0  0  0  0  0  0  0  0
   10.0336  -16.4784   18.6469 C   0  0  2  0  0  0  0  0  0  0  0  0
   11.3980  -16.9867   18.4220 N   0  0  0  0  0  0  0  0  0  0  0  0
    9.9695  -15.8476   19.9929 C   0  0  0  0  0  0  0  0  0  0  0  0
   10.8976  -16.0842   20.8225 O   0  0  0  0  0  0  0  0  0  0  0  0
    7.7755  -20.5795   13.1643 N   0  0  0  0  0  0  0  0  0  0  0  0
    8.9216  -15.0065   20.3609 C   0  0  0  0  0  0  0  0  0  0  0  0
    7.8675  -14.4877   19.4932 C   0  0  0  0  0  0  0  0  0  0  0  0
    7.6063  -13.0922   20.0659 C   0  0  0  0  0  0  0  0  0  0  0  0
    7.5889  -13.4448   21.5618 C   0  0  2  0  0  0  0  0  0  0  0  0
    8.6741  -14.4655   21.6788 C   0  0  0  0  0  0  0  0  0  0  0  0
    8.4438  -15.5123   22.6956 O   0  0  0  0  0  0  0  0  0  0  0  0
    7.8477  -16.5737   22.3529 N   0  0  0  0  0  0  0  0  0  0  0  0
    8.8364  -15.4347   24.0533 C   0  0  2  0  0  0  0  0  0  0  0  0
    8.9016  -16.5328   24.9598 C   0  0  0  0  0  0  0  0  0  0  0  0
    9.9098  -16.4541   26.0374 C   0  0  0  0  0  0  0  0  0  0  0  0
    9.7116  -15.4319   27.0645 C   0  0  0  0  0  0  0  0  0  0  0  0
    9.5697  -14.0793   26.7634 C   0  0  0  0  0  0  0  0  0  0  0  0
    9.3613  -13.1006   27.6849 C   0  0  0  0  0  0  0  0  0  0  0  0
    9.2790  -13.4171   29.0047 C   0  0  0  0  0  0  0  0  0  0  0  0
    9.4121  -14.7377   29.3630 C   0  0  0  0  0  0  0  0  0  0  0  0
    9.6222  -15.7184   28.4369 C   0  0  0  0  0  0  0  0  0  0  0  0
    7.5126  -16.6302   25.5723 O   0  0  0  0  0  0  0  0  0  0  0  0
    6.5888  -15.6744   25.1951 O   0  0  0  0  0  0  0  0  0  0  0  0
  2  1  1  0
  2  4  1  0
  3  2  2  0
  4  5  1  0
  5  6  1  0
  7  8  1  0
  7  6  1  0
  8  9  1  1
 10  8  1  0
 11 10  2  0
 12 16  1  0
 12 10  1  0
 13 12  1  0
 14 13  1  0
 14 15  1  0
 15 16  1  0
 17 19  1  0
 16 17  1  6
 18 17  2  0
 20 21  1  1
 20 19  1  0
 21 22  1  0
 22 27  1  0
 23 22  2  0
 23 24  1  0
 24 25  2  0
 25 26  1  0
 27 26  2  0
 28 29  1  0
 28 20  1  0
 30 28  2  0
M  END
$$$$
