RPF.pdb
     RDKit          3D

 30 31  0  0  1  0  0  0  0  0999 V2000
   13.9302  -18.4430   16.3394 N   0  0  0  0  0  0  0  0  0  0  0  0
   13.1225  -17.3244   16.6191 C   0  0  0  0  0  0  0  0  0  0  0  0
   13.3305  -16.2404   15.9723 N   0  0  0  0  0  0  0  0  0  0  0  0
   12.1033  -17.4148   17.6013 N   0  0  0  0  0  0  0  0  0  0  0  0
   11.1389  -18.4794   17.5051 C   0  0  0  0  0  0  0  0  0  0  0  0
    9.7276  -17.9768   17.4971 C   0  0  0  0  0  0  0  0  0  0  0  0
    8.7035  -19.0790   17.5782 C   0  0  0  0  0  0  0  0  0  0  0  0
    7.2983  -18.5180   17.6516 C   0  0  2  0  0  0  0  0  0  0  0  0
    7.1619  -17.5315   16.5659 N   0  0  0  0  0  0  0  0  0  0  0  0
    7.1140  -17.8278   18.9567 C   0  0  0  0  0  0  0  0  0  0  0  0
    7.4424  -16.6077   19.0535 O   0  0  0  0  0  0  0  0  0  0  0  0
   12.8510  -15.3506   16.1856 N   0  0  0  0  0  0  0  0  0  0  0  0
    6.5904  -18.4851   20.0678 C   0  0  0  0  0  0  0  0  0  0  0  0
    6.2704  -19.9060   20.1760 C   0  0  0  0  0  0  0  0  0  0  0  0
    5.0372  -19.9129   21.0831 C   0  0  0  0  0  0  0  0  0  0  0  0
    5.5141  -18.9101   22.1459 C   0  0  2  0  0  0  0  0  0  0  0  0
    6.2449  -17.8870   21.3382 C   0  0  0  0  0  0  0  0  0  0  0  0
    7.4018  -17.2639   22.0135 O   0  0  0  0  0  0  0  0  0  0  0  0
    8.5602  -17.7117   21.7748 N   0  0  0  0  0  0  0  0  0  0  0  0
    7.3322  -16.1860   22.9282 C   0  0  1  0  0  0  0  0  0  0  0  0
    8.4413  -15.6087   23.6126 C   0  0  0  0  0  0  0  0  0  0  0  0
    8.6894  -14.1686   23.3929 C   0  0  0  0  0  0  0  0  0  0  0  0
    8.4862  -13.6545   22.0389 C   0  0  0  0  0  0  0  0  0  0  0  0
    9.5307  -13.4863   21.1325 C   0  0  0  0  0  0  0  0  0  0  0  0
    9.3822  -13.0334   19.8584 C   0  0  0  0  0  0  0  0  0  0  0  0
    8.1466  -12.7092   19.3927 C   0  0  0  0  0  0  0  0  0  0  0  0
    7.0759  -12.8543   20.2429 C   0  0  0  0  0  0  0  0  0  0  0  0
    7.2270  -13.3079   21.5216 C   0  0  0  0  0  0  0  0  0  0  0  0
    8.1745  -15.8567   25.0895 O   0  0  0  0  0  0  0  0  0  0  0  0
    9.2353  -15.6885   25.9588 O   0  0  0  0  0  0  0  0  0  0  0  0
  2  1  1  0
  2  4  1  0
  3  2  2  0
  4  5  1  0
  5  6  1  0
  7  8  1  0
  7  6  1  0
  8  9  1  6
 10  8  1  0
 11 10  2  0
 12 16  1  0
 12 10  1  0
 13 12  1  0
 14 13  1  0
 14 15  1  0
 15 16  1  0
 17 19  1  0
 16 17  1  1
 18 17  2  0
 20 21  1  1
 20 19  1  0
 21 22  1  0
 22 27  1  0
 23 22  2  0
 23 24  1  0
 24 25  2  0
 25 26  1  0
 27 26  2  0
 28 29  1  0
 28 20  1  0
 30 28  2  0
M  END
$$$$
