RPF.pdb
     RDKit          3D

 30 31  0  0  1  0  0  0  0  0999 V2000
    5.2823  -19.4948   15.9489 N   0  0  0  0  0  0  0  0  0  0  0  0
    5.5724  -20.8310   16.2841 C   0  0  0  0  0  0  0  0  0  0  0  0
    5.5013  -21.7224   15.3692 N   0  0  0  0  0  0  0  0  0  0  0  0
    5.9345  -21.1647   17.6142 N   0  0  0  0  0  0  0  0  0  0  0  0
    6.1960  -20.1022   18.5499 C   0  0  0  0  0  0  0  0  0  0  0  0
    7.0498  -19.0191   17.9649 C   0  0  0  0  0  0  0  0  0  0  0  0
    7.7878  -18.2168   19.0051 C   0  0  0  0  0  0  0  0  0  0  0  0
    8.5897  -17.0999   18.3693 C   0  0  2  0  0  0  0  0  0  0  0  0
    9.7079  -17.7223   17.6394 N   0  0  0  0  0  0  0  0  0  0  0  0
    9.1397  -16.2223   19.4375 C   0  0  0  0  0  0  0  0  0  0  0  0
   10.2805  -16.4898   19.9199 O   0  0  0  0  0  0  0  0  0  0  0  0
    5.7226  -22.7187   15.5283 N   0  0  0  0  0  0  0  0  0  0  0  0
    8.4366  -15.1190   19.9163 C   0  0  0  0  0  0  0  0  0  0  0  0
    7.2158  -14.5463   19.3554 C   0  0  0  0  0  0  0  0  0  0  0  0
    7.3872  -13.0476   19.6168 C   0  0  0  0  0  0  0  0  0  0  0  0
    7.8881  -13.1117   21.0684 C   0  0  2  0  0  0  0  0  0  0  0  0
    8.7837  -14.3080   21.0620 C   0  0  0  0  0  0  0  0  0  0  0  0
    8.8121  -15.0772   22.3231 O   0  0  0  0  0  0  0  0  0  0  0  0
    7.9082  -15.9364   22.5329 N   0  0  0  0  0  0  0  0  0  0  0  0
    9.7808  -14.9367   23.3455 C   0  0  1  0  0  0  0  0  0  0  0  0
    9.5927  -15.2799   24.7162 C   0  0  0  0  0  0  0  0  0  0  0  0
   10.3327  -14.4811   25.7153 C   0  0  0  0  0  0  0  0  0  0  0  0
   10.1037  -14.7959   27.1250 C   0  0  0  0  0  0  0  0  0  0  0  0
    9.2872  -14.0219   27.9465 C   0  0  0  0  0  0  0  0  0  0  0  0
    9.0298  -14.2919   29.2547 C   0  0  0  0  0  0  0  0  0  0  0  0
    9.5867  -15.3827   29.8452 C   0  0  0  0  0  0  0  0  0  0  0  0
   10.4031  -16.1849   29.0836 C   0  0  0  0  0  0  0  0  0  0  0  0
   10.6611  -15.9118   27.7711 C   0  0  0  0  0  0  0  0  0  0  0  0
    8.0982  -15.1405   24.9631 O   0  0  0  0  0  0  0  0  0  0  0  0
    7.4992  -13.9634   24.5570 O   0  0  0  0  0  0  0  0  0  0  0  0
  2  1  1  0
  2  4  1  0
  3  2  2  0
  4  5  1  0
  5  6  1  0
  7  8  1  0
  7  6  1  0
  8  9  1  1
 10  8  1  0
 11 10  2  0
 12 16  1  0
 12 10  1  0
 13 12  1  0
 14 13  1  0
 14 15  1  0
 15 16  1  0
 17 19  1  0
 16 17  1  1
 18 17  2  0
 20 21  1  1
 20 19  1  0
 21 22  1  0
 22 27  1  0
 23 22  2  0
 23 24  1  0
 24 25  2  0
 25 26  1  0
 27 26  2  0
 28 29  1  0
 28 20  1  0
 30 28  2  0
M  END
$$$$
