RPF.pdb
     RDKit          3D

 30 31  0  0  1  0  0  0  0  0999 V2000
   10.7714  -20.5882   15.7618 N   0  0  0  0  0  0  0  0  0  0  0  0
   10.0427  -21.4584   16.5949 C   0  0  0  0  0  0  0  0  0  0  0  0
    9.4135  -22.4357   16.0604 N   0  0  0  0  0  0  0  0  0  0  0  0
   10.0174  -21.2412   17.9962 N   0  0  0  0  0  0  0  0  0  0  0  0
    9.5062  -19.9915   18.4960 C   0  0  0  0  0  0  0  0  0  0  0  0
    8.7219  -19.2386   17.4652 C   0  0  0  0  0  0  0  0  0  0  0  0
    8.0469  -18.0082   18.0136 C   0  0  0  0  0  0  0  0  0  0  0  0
    8.8922  -16.7717   17.7868 C   0  0  2  0  0  0  0  0  0  0  0  0
   10.1345  -17.2044   17.1235 N   0  0  0  0  0  0  0  0  0  0  0  0
    9.2334  -16.1637   19.1012 C   0  0  0  0  0  0  0  0  0  0  0  0
   10.2657  -16.5715   19.7125 O   0  0  0  0  0  0  0  0  0  0  0  0
    8.8295  -23.0971   16.5975 N   0  0  0  0  0  0  0  0  0  0  0  0
    8.4520  -15.1616   19.6721 C   0  0  0  0  0  0  0  0  0  0  0  0
    7.3305  -14.4627   19.0501 C   0  0  0  0  0  0  0  0  0  0  0  0
    7.4429  -13.0493   19.6275 C   0  0  0  0  0  0  0  0  0  0  0  0
    7.7067  -13.4100   21.0981 C   0  0  2  0  0  0  0  0  0  0  0  0
    8.6039  -14.6007   20.9962 C   0  0  0  0  0  0  0  0  0  0  0  0
    8.4386  -15.6044   22.0677 O   0  0  0  0  0  0  0  0  0  0  0  0
    7.6251  -16.5562   21.8905 N   0  0  0  0  0  0  0  0  0  0  0  0
    9.1223  -15.5981   23.3070 C   0  0  2  0  0  0  0  0  0  0  0  0
    8.6894  -14.9263   24.4874 C   0  0  0  0  0  0  0  0  0  0  0  0
    8.3400  -13.4965   24.3555 C   0  0  0  0  0  0  0  0  0  0  0  0
    7.7975  -12.8293   25.5385 C   0  0  0  0  0  0  0  0  0  0  0  0
    8.3547  -11.6686   26.0704 C   0  0  0  0  0  0  0  0  0  0  0  0
    7.8685  -11.0048   27.1537 C   0  0  0  0  0  0  0  0  0  0  0  0
    6.7634  -11.4696   27.7952 C   0  0  0  0  0  0  0  0  0  0  0  0
    6.1696  -12.6130   27.3155 C   0  0  0  0  0  0  0  0  0  0  0  0
    6.6595  -13.2784   26.2289 C   0  0  0  0  0  0  0  0  0  0  0  0
    7.4724  -15.7025   24.9671 O   0  0  0  0  0  0  0  0  0  0  0  0
    7.4195  -16.0255   26.3096 O   0  0  0  0  0  0  0  0  0  0  0  0
  2  1  1  0
  2  4  1  0
  3  2  2  0
  4  5  1  0
  5  6  1  0
  7  8  1  0
  7  6  1  0
  8  9  1  1
 10  8  1  0
 11 10  2  0
 12 16  1  0
 12 10  1  0
 13 12  1  0
 14 13  1  0
 14 15  1  0
 15 16  1  0
 17 19  1  0
 16 17  1  1
 18 17  2  0
 20 21  1  6
 20 19  1  0
 21 22  1  0
 22 27  1  0
 23 22  2  0
 23 24  1  0
 24 25  2  0
 25 26  1  0
 27 26  2  0
 28 29  1  0
 28 20  1  0
 30 28  2  0
M  END
$$$$
