NKV.pdb
     RDKit          3D

 25 24  0  0  1  0  0  0  0  0999 V2000
   25.3108  -21.7222   -7.9806 N   0  0  0  0  0  0  0  0  0  0  0  0
   25.3973  -20.3995   -8.4569 C   0  0  0  0  0  0  0  0  0  0  0  0
   25.3035  -19.4253   -7.6686 O   0  0  0  0  0  0  0  0  0  0  0  0
   25.6032  -20.1203   -9.9134 C   0  0  0  0  0  0  0  0  0  0  0  0
   25.6208  -21.3944  -10.7171 C   0  0  2  0  0  0  0  0  0  0  0  0
   26.8016  -22.1453  -10.3653 N   0  0  0  0  0  0  0  0  0  0  0  0
   25.7007  -21.0404  -12.1545 C   0  0  0  0  0  0  0  0  0  0  0  0
   26.8180  -20.6411  -12.5993 O   0  0  0  0  0  0  0  0  0  0  0  0
   24.5985  -21.1256  -13.0487 N   0  0  0  0  0  0  0  0  0  0  0  0
   24.7022  -20.8731  -14.4711 C   0  0  1  0  0  0  0  0  0  0  0  0
   23.6141  -21.6685  -15.1598 C   0  0  0  0  0  0  0  0  0  0  0  0
   23.6581  -21.4370  -16.6328 C   0  0  0  0  0  0  0  0  0  0  0  0
   22.5537  -22.2549  -17.2674 C   0  0  0  0  0  0  0  0  0  0  0  0
   22.4878  -22.0563  -18.7655 C   0  0  0  0  0  0  0  0  0  0  0  0
   21.4413  -22.9608  -19.2501 N   0  0  0  0  0  0  0  0  0  0  0  0
   24.5931  -19.4343  -14.7062 C   0  0  0  0  0  0  0  0  0  0  0  0
   23.7594  -18.7384  -14.0715 O   0  0  0  0  0  0  0  0  0  0  0  0
   26.4033  -15.0659  -15.6830 C   0  0  0  0  0  0  0  0  0  0  0  0
   26.5538  -16.5573  -15.5132 C   0  0  2  0  0  0  0  0  0  0  0  0
   27.7370  -17.0545  -16.2790 C   0  0  0  0  0  0  0  0  0  0  0  0
   25.2764  -17.2895  -15.8568 C   0  0  2  0  0  0  0  0  0  0  0  0
   25.3993  -18.7173  -15.6481 N   0  0  0  0  0  0  0  0  0  0  0  0
   24.9831  -17.0525  -17.2799 C   0  0  0  0  0  0  0  0  0  0  0  0
   24.4975  -15.8301  -17.6857 O   0  0  0  0  0  0  0  0  0  0  0  0
   25.1678  -17.9466  -18.1348 O   0  0  0  0  0  0  0  0  0  0  0  0
  2  1  1  0
  2  3  2  0
  4  2  1  0
  5  4  1  0
  5  6  1  1
  7  5  1  0
  7  8  2  0
  9  7  1  0
 10  9  1  0
 10 11  1  6
 12 11  1  0
 13 12  1  0
 13 14  1  0
 14 15  1  0
 16 10  1  0
 17 16  2  0
 19 18  1  6
 20 19  1  0
 21 19  1  0
 21 22  1  6
 22 16  1  0
 23 24  1  0
 23 21  1  0
 25 23  2  0
M  END
$$$$
