NKV.pdb
     RDKit          3D

 25 24  0  0  1  0  0  0  0  0999 V2000
   28.8218  -23.2879  -18.0379 N   0  0  0  0  0  0  0  0  0  0  0  0
   29.1134  -23.0462  -16.6814 C   0  0  0  0  0  0  0  0  0  0  0  0
   29.7711  -23.8782  -16.0074 O   0  0  0  0  0  0  0  0  0  0  0  0
   28.6476  -21.7925  -16.0081 C   0  0  0  0  0  0  0  0  0  0  0  0
   27.7154  -21.0094  -16.8953 C   0  0  2  0  0  0  0  0  0  0  0  0
   28.4716  -19.9770  -17.5617 N   0  0  0  0  0  0  0  0  0  0  0  0
   26.6895  -20.3633  -16.0422 C   0  0  0  0  0  0  0  0  0  0  0  0
   27.0627  -19.4095  -15.2961 O   0  0  0  0  0  0  0  0  0  0  0  0
   25.3231  -20.7559  -16.0198 N   0  0  0  0  0  0  0  0  0  0  0  0
   24.3160  -20.0991  -15.2122 C   0  0  1  0  0  0  0  0  0  0  0  0
   23.1008  -19.8739  -16.0860 C   0  0  0  0  0  0  0  0  0  0  0  0
   21.9950  -19.2696  -15.2877 C   0  0  0  0  0  0  0  0  0  0  0  0
   20.7860  -19.1382  -16.1891 C   0  0  0  0  0  0  0  0  0  0  0  0
   19.6187  -18.4844  -15.4834 C   0  0  0  0  0  0  0  0  0  0  0  0
   18.5960  -18.2619  -16.5093 N   0  0  0  0  0  0  0  0  0  0  0  0
   24.0320  -20.9283  -14.0421 C   0  0  0  0  0  0  0  0  0  0  0  0
   23.6270  -22.1120  -14.1734 O   0  0  0  0  0  0  0  0  0  0  0  0
   24.7525  -19.7221   -9.8408 C   0  0  0  0  0  0  0  0  0  0  0  0
   24.8093  -21.1194  -10.4067 C   0  0  2  0  0  0  0  0  0  0  0  0
   26.2129  -21.4791  -10.7730 C   0  0  0  0  0  0  0  0  0  0  0  0
   23.8352  -21.2985  -11.5491 C   0  0  2  0  0  0  0  0  0  0  0  0
   24.1852  -20.4792  -12.6909 N   0  0  0  0  0  0  0  0  0  0  0  0
   22.5005  -20.8925  -11.0788 C   0  0  0  0  0  0  0  0  0  0  0  0
   21.9021  -19.7682  -11.6008 O   0  0  0  0  0  0  0  0  0  0  0  0
   21.8943  -21.5538  -10.2072 O   0  0  0  0  0  0  0  0  0  0  0  0
  2  1  1  0
  2  3  2  0
  4  2  1  0
  5  4  1  0
  5  6  1  1
  7  5  1  0
  7  8  2  0
  9  7  1  0
 10  9  1  0
 10 11  1  6
 12 11  1  0
 13 12  1  0
 13 14  1  0
 14 15  1  0
 16 10  1  0
 17 16  2  0
 19 18  1  6
 20 19  1  0
 21 19  1  0
 21 22  1  6
 22 16  1  0
 23 24  1  0
 23 21  1  0
 25 23  2  0
M  END
$$$$
