NKV.pdb
     RDKit          3D

 25 24  0  0  1  0  0  0  0  0999 V2000
   14.1689  -22.3964    0.7251 N   0  0  0  0  0  0  0  0  0  0  0  0
   14.5280  -22.7638    2.0365 C   0  0  0  0  0  0  0  0  0  0  0  0
   14.1745  -23.8714    2.5131 O   0  0  0  0  0  0  0  0  0  0  0  0
   15.3397  -21.8447    2.8958 C   0  0  0  0  0  0  0  0  0  0  0  0
   15.6004  -20.5340    2.2003 C   0  0  2  0  0  0  0  0  0  0  0  0
   16.1014  -20.8068    0.8750 N   0  0  0  0  0  0  0  0  0  0  0  0
   16.6453  -19.8026    2.9558 C   0  0  0  0  0  0  0  0  0  0  0  0
   17.8550  -20.0929    2.7152 O   0  0  0  0  0  0  0  0  0  0  0  0
   16.3609  -18.8029    3.9261 N   0  0  0  0  0  0  0  0  0  0  0  0
   17.3726  -17.9496    4.5145 C   0  0  1  0  0  0  0  0  0  0  0  0
   16.7686  -16.5726    4.6879 C   0  0  0  0  0  0  0  0  0  0  0  0
   17.8223  -15.5914    5.0781 C   0  0  0  0  0  0  0  0  0  0  0  0
   17.2014  -14.2109    5.0689 C   0  0  0  0  0  0  0  0  0  0  0  0
   18.2149  -13.1294    5.3713 C   0  0  0  0  0  0  0  0  0  0  0  0
   17.4823  -11.8608    5.3241 N   0  0  0  0  0  0  0  0  0  0  0  0
   17.8165  -18.5411    5.7755 C   0  0  0  0  0  0  0  0  0  0  0  0
   17.0059  -19.1417    6.5269 O   0  0  0  0  0  0  0  0  0  0  0  0
   21.8267  -19.6150    6.5435 C   0  0  0  0  0  0  0  0  0  0  0  0
   20.6361  -20.1474    7.3017 C   0  0  2  0  0  0  0  0  0  0  0  0
   20.1053  -21.3801    6.6441 C   0  0  0  0  0  0  0  0  0  0  0  0
   19.5813  -19.0830    7.5026 C   0  0  2  0  0  0  0  0  0  0  0  0
   19.1674  -18.4891    6.2482 N   0  0  0  0  0  0  0  0  0  0  0  0
   20.1563  -18.0247    8.3493 C   0  0  0  0  0  0  0  0  0  0  0  0
   20.4020  -18.2698    9.6812 O   0  0  0  0  0  0  0  0  0  0  0  0
   20.4283  -16.8981    7.8789 O   0  0  0  0  0  0  0  0  0  0  0  0
  2  1  1  0
  2  3  2  0
  4  2  1  0
  5  4  1  0
  5  6  1  6
  7  5  1  0
  7  8  2  0
  9  7  1  0
 10  9  1  0
 10 11  1  1
 12 11  1  0
 13 12  1  0
 13 14  1  0
 14 15  1  0
 16 10  1  0
 17 16  2  0
 19 18  1  6
 20 19  1  0
 21 19  1  0
 21 22  1  6
 22 16  1  0
 23 24  1  0
 23 21  1  0
 25 23  2  0
M  END
$$$$
