NKV.pdb
     RDKit          3D

 25 24  0  0  1  0  0  0  0  0999 V2000
   27.5180  -12.9809  -15.4995 N   0  0  0  0  0  0  0  0  0  0  0  0
   27.1893  -12.5360  -16.7948 C   0  0  0  0  0  0  0  0  0  0  0  0
   27.8614  -12.9044  -17.7906 O   0  0  0  0  0  0  0  0  0  0  0  0
   26.0314  -11.6133  -17.0184 C   0  0  0  0  0  0  0  0  0  0  0  0
   25.3611  -11.2523  -15.7184 C   0  0  2  0  0  0  0  0  0  0  0  0
   24.7921  -12.4479  -15.1453 N   0  0  0  0  0  0  0  0  0  0  0  0
   24.2616  -10.3007  -16.0069 C   0  0  0  0  0  0  0  0  0  0  0  0
   24.5499   -9.2491  -16.6523 O   0  0  0  0  0  0  0  0  0  0  0  0
   22.9149  -10.5069  -15.6001 N   0  0  0  0  0  0  0  0  0  0  0  0
   21.8373   -9.5899  -15.9093 C   0  0  1  0  0  0  0  0  0  0  0  0
   20.5326  -10.3345  -15.7245 C   0  0  0  0  0  0  0  0  0  0  0  0
   20.3973  -11.4040  -16.7555 C   0  0  0  0  0  0  0  0  0  0  0  0
   19.0542  -12.0743  -16.5597 C   0  0  0  0  0  0  0  0  0  0  0  0
   18.7881  -13.1318  -17.6080 C   0  0  0  0  0  0  0  0  0  0  0  0
   17.5427  -13.7944  -17.2103 N   0  0  0  0  0  0  0  0  0  0  0  0
   21.9517   -8.4158  -15.0459 C   0  0  0  0  0  0  0  0  0  0  0  0
   22.3539   -8.5247  -13.8590 O   0  0  0  0  0  0  0  0  0  0  0  0
   22.6640   -3.6001  -14.4036 C   0  0  0  0  0  0  0  0  0  0  0  0
   22.5392   -4.8147  -15.2896 C   0  0  2  0  0  0  0  0  0  0  0  0
   21.9485   -4.4405  -16.6105 C   0  0  0  0  0  0  0  0  0  0  0  0
   21.7890   -5.9325  -14.6013 C   0  0  2  0  0  0  0  0  0  0  0  0
   21.6266   -7.0849  -15.4632 N   0  0  0  0  0  0  0  0  0  0  0  0
   20.4525   -5.4309  -14.2410 C   0  0  0  0  0  0  0  0  0  0  0  0
   20.3120   -4.5381  -13.2028 O   0  0  0  0  0  0  0  0  0  0  0  0
   19.4338   -5.8026  -14.8642 O   0  0  0  0  0  0  0  0  0  0  0  0
  2  1  1  0
  2  3  2  0
  4  2  1  0
  5  4  1  0
  5  6  1  6
  7  5  1  0
  7  8  2  0
  9  7  1  0
 10  9  1  0
 10 11  1  1
 12 11  1  0
 13 12  1  0
 13 14  1  0
 14 15  1  0
 16 10  1  0
 17 16  2  0
 19 18  1  1
 20 19  1  0
 21 19  1  0
 21 22  1  6
 22 16  1  0
 23 24  1  0
 23 21  1  0
 25 23  2  0
M  END
$$$$
