NKV.pdb
     RDKit          3D

 25 24  0  0  1  0  0  0  0  0999 V2000
   18.3068  -21.9704  -12.5922 N   0  0  0  0  0  0  0  0  0  0  0  0
   18.5342  -20.6843  -12.0650 C   0  0  0  0  0  0  0  0  0  0  0  0
   18.0995  -20.3695  -10.9288 O   0  0  0  0  0  0  0  0  0  0  0  0
   19.2991  -19.6598  -12.8443 C   0  0  0  0  0  0  0  0  0  0  0  0
   19.6475  -20.1670  -14.2195 C   0  0  2  0  0  0  0  0  0  0  0  0
   20.6571  -21.1898  -14.0917 N   0  0  0  0  0  0  0  0  0  0  0  0
   20.2140  -19.0435  -15.0034 C   0  0  0  0  0  0  0  0  0  0  0  0
   21.4424  -18.7770  -14.8433 O   0  0  0  0  0  0  0  0  0  0  0  0
   19.4563  -18.2591  -15.9156 N   0  0  0  0  0  0  0  0  0  0  0  0
   20.0395  -17.2580  -16.7848 C   0  0  1  0  0  0  0  0  0  0  0  0
   19.0575  -16.9939  -17.9059 C   0  0  0  0  0  0  0  0  0  0  0  0
   19.5085  -17.6686  -19.1576 C   0  0  0  0  0  0  0  0  0  0  0  0
   18.4567  -17.4324  -20.2204 C   0  0  0  0  0  0  0  0  0  0  0  0
   18.8351  -18.0591  -21.5442 C   0  0  0  0  0  0  0  0  0  0  0  0
   17.7278  -17.7730  -22.4608 N   0  0  0  0  0  0  0  0  0  0  0  0
   20.3409  -16.0639  -15.9970 C   0  0  0  0  0  0  0  0  0  0  0  0
   19.5409  -15.6523  -15.1178 O   0  0  0  0  0  0  0  0  0  0  0  0
   24.0747  -13.8143  -16.3473 C   0  0  0  0  0  0  0  0  0  0  0  0
   23.2181  -13.8435  -15.1058 C   0  0  2  0  0  0  0  0  0  0  0  0
   23.7400  -14.8513  -14.1334 C   0  0  0  0  0  0  0  0  0  0  0  0
   21.7576  -14.0454  -15.4407 C   0  0  2  0  0  0  0  0  0  0  0  0
   21.5332  -15.2861  -16.1533 N   0  0  0  0  0  0  0  0  0  0  0  0
   21.3288  -12.9315  -16.3026 C   0  0  0  0  0  0  0  0  0  0  0  0
   21.0988  -13.1501  -17.6420 O   0  0  0  0  0  0  0  0  0  0  0  0
   21.1679  -11.7812  -15.8387 O   0  0  0  0  0  0  0  0  0  0  0  0
  2  1  1  0
  2  3  2  0
  4  2  1  0
  5  4  1  0
  5  6  1  1
  7  5  1  0
  7  8  2  0
  9  7  1  0
 10  9  1  0
 10 11  1  6
 12 11  1  0
 13 12  1  0
 13 14  1  0
 14 15  1  0
 16 10  1  0
 17 16  2  0
 19 18  1  6
 20 19  1  0
 21 19  1  0
 21 22  1  6
 22 16  1  0
 23 24  1  0
 23 21  1  0
 25 23  2  0
M  END
$$$$
