NKV.pdb
     RDKit          3D

 25 24  0  0  1  0  0  0  0  0999 V2000
   29.6012  -19.2226  -17.0320 N   0  0  0  0  0  0  0  0  0  0  0  0
   28.2874  -18.7405  -17.1912 C   0  0  0  0  0  0  0  0  0  0  0  0
   28.0485  -17.7627  -17.9435 O   0  0  0  0  0  0  0  0  0  0  0  0
   27.1425  -19.3803  -16.4688 C   0  0  0  0  0  0  0  0  0  0  0  0
   27.6061  -20.5431  -15.6306 C   0  0  2  0  0  0  0  0  0  0  0  0
   27.9668  -21.6297  -16.5088 N   0  0  0  0  0  0  0  0  0  0  0  0
   26.4776  -20.9844  -14.7767 C   0  0  0  0  0  0  0  0  0  0  0  0
   25.6403  -21.7907  -15.2813 O   0  0  0  0  0  0  0  0  0  0  0  0
   26.2898  -20.5529  -13.4350 N   0  0  0  0  0  0  0  0  0  0  0  0
   25.1584  -20.9453  -12.6203 C   0  0  1  0  0  0  0  0  0  0  0  0
   25.4917  -20.6154  -11.1811 C   0  0  0  0  0  0  0  0  0  0  0  0
   24.3981  -21.0782  -10.2782 C   0  0  0  0  0  0  0  0  0  0  0  0
   24.8092  -20.7748   -8.8533 C   0  0  0  0  0  0  0  0  0  0  0  0
   23.8265  -21.3315   -7.8470 C   0  0  0  0  0  0  0  0  0  0  0  0
   24.2918  -20.8813   -6.5321 N   0  0  0  0  0  0  0  0  0  0  0  0
   23.9644  -20.2533  -13.1027 C   0  0  0  0  0  0  0  0  0  0  0  0
   23.9599  -19.0046  -13.2551 O   0  0  0  0  0  0  0  0  0  0  0  0
   20.0375  -19.8733  -15.8741 C   0  0  0  0  0  0  0  0  0  0  0  0
   21.2116  -20.6516  -15.3342 C   0  0  2  0  0  0  0  0  0  0  0  0
   20.9569  -22.1208  -15.4355 C   0  0  0  0  0  0  0  0  0  0  0  0
   21.5778  -20.2096  -13.9354 C   0  0  2  0  0  0  0  0  0  0  0  0
   22.7380  -20.9155  -13.4323 N   0  0  0  0  0  0  0  0  0  0  0  0
   20.4376  -20.5021  -13.0511 C   0  0  0  0  0  0  0  0  0  0  0  0
   19.3430  -19.6676  -13.0449 O   0  0  0  0  0  0  0  0  0  0  0  0
   20.4435  -21.5016  -12.2993 O   0  0  0  0  0  0  0  0  0  0  0  0
  2  1  1  0
  2  3  2  0
  4  2  1  0
  5  4  1  0
  5  6  1  6
  7  5  1  0
  7  8  2  0
  9  7  1  0
 10  9  1  0
 10 11  1  1
 12 11  1  0
 13 12  1  0
 13 14  1  0
 14 15  1  0
 16 10  1  0
 17 16  2  0
 19 18  1  1
 20 19  1  0
 21 19  1  0
 21 22  1  1
 22 16  1  0
 23 24  1  0
 23 21  1  0
 25 23  2  0
M  END
$$$$
