NKV.pdb
     RDKit          3D

 25 24  0  0  1  0  0  0  0  0999 V2000
   29.4184  -20.8366  -10.1483 N   0  0  0  0  0  0  0  0  0  0  0  0
   28.8710  -20.7810  -11.4448 C   0  0  0  0  0  0  0  0  0  0  0  0
   29.5098  -21.2253  -12.4315 O   0  0  0  0  0  0  0  0  0  0  0  0
   27.5150  -20.1916  -11.6806 C   0  0  0  0  0  0  0  0  0  0  0  0
   26.6210  -21.1543  -12.4179 C   0  0  2  0  0  0  0  0  0  0  0  0
   27.2128  -21.4422  -13.7019 N   0  0  0  0  0  0  0  0  0  0  0  0
   25.3103  -20.4989  -12.6414 C   0  0  0  0  0  0  0  0  0  0  0  0
   24.7584  -19.9367  -11.6489 O   0  0  0  0  0  0  0  0  0  0  0  0
   24.6489  -20.4700  -13.8997 N   0  0  0  0  0  0  0  0  0  0  0  0
   23.3943  -19.7830  -14.1276 C   0  0  1  0  0  0  0  0  0  0  0  0
   23.2892  -19.4972  -15.6102 C   0  0  0  0  0  0  0  0  0  0  0  0
   23.9190  -18.1831  -15.9292 C   0  0  0  0  0  0  0  0  0  0  0  0
   23.8157  -17.9662  -17.4238 C   0  0  0  0  0  0  0  0  0  0  0  0
   24.4621  -16.6689  -17.8563 C   0  0  0  0  0  0  0  0  0  0  0  0
   24.2909  -16.5940  -19.3100 N   0  0  0  0  0  0  0  0  0  0  0  0
   22.3010  -20.6148  -13.6277 C   0  0  0  0  0  0  0  0  0  0  0  0
   22.1553  -21.7981  -14.0289 O   0  0  0  0  0  0  0  0  0  0  0  0
   19.3539  -19.2778  -10.6373 C   0  0  0  0  0  0  0  0  0  0  0  0
   19.8883  -20.6835  -10.7564 C   0  0  2  0  0  0  0  0  0  0  0  0
   21.0053  -20.9026   -9.7879 C   0  0  0  0  0  0  0  0  0  0  0  0
   20.2668  -21.0174  -12.1816 C   0  0  2  0  0  0  0  0  0  0  0  0
   21.3339  -20.1688  -12.6701 N   0  0  0  0  0  0  0  0  0  0  0  0
   19.0820  -20.8070  -13.0298 C   0  0  0  0  0  0  0  0  0  0  0  0
   18.0121  -21.6684  -12.9393 O   0  0  0  0  0  0  0  0  0  0  0  0
   19.0273  -19.8537  -13.8375 O   0  0  0  0  0  0  0  0  0  0  0  0
  2  1  1  0
  2  3  2  0
  4  2  1  0
  5  4  1  0
  5  6  1  6
  7  5  1  0
  7  8  2  0
  9  7  1  0
 10  9  1  0
 10 11  1  6
 12 11  1  0
 13 12  1  0
 13 14  1  0
 14 15  1  0
 16 10  1  0
 17 16  2  0
 19 18  1  6
 20 19  1  0
 21 19  1  0
 21 22  1  6
 22 16  1  0
 23 24  1  0
 23 21  1  0
 25 23  2  0
M  END
$$$$
