NKV.pdb
     RDKit          3D

 25 24  0  0  1  0  0  0  0  0999 V2000
   23.6855  -20.1660   -7.7112 N   0  0  0  0  0  0  0  0  0  0  0  0
   23.3235  -20.7938   -8.9189 C   0  0  0  0  0  0  0  0  0  0  0  0
   22.6440  -21.8509   -8.9151 O   0  0  0  0  0  0  0  0  0  0  0  0
   23.7384  -20.2182  -10.2374 C   0  0  0  0  0  0  0  0  0  0  0  0
   24.7250  -21.1148  -10.9391 C   0  0  2  0  0  0  0  0  0  0  0  0
   25.9251  -21.1931  -10.1419 N   0  0  0  0  0  0  0  0  0  0  0  0
   25.0680  -20.5024  -12.2449 C   0  0  0  0  0  0  0  0  0  0  0  0
   25.6423  -19.3729  -12.2305 O   0  0  0  0  0  0  0  0  0  0  0  0
   24.7878  -21.1122  -13.4984 N   0  0  0  0  0  0  0  0  0  0  0  0
   25.3082  -20.6239  -14.7588 C   0  0  1  0  0  0  0  0  0  0  0  0
   26.3217  -21.6308  -15.2589 C   0  0  0  0  0  0  0  0  0  0  0  0
   26.9142  -21.1709  -16.5483 C   0  0  0  0  0  0  0  0  0  0  0  0
   27.9247  -22.2063  -16.9935 C   0  0  0  0  0  0  0  0  0  0  0  0
   28.6813  -21.7686  -18.2281 C   0  0  0  0  0  0  0  0  0  0  0  0
   29.6212  -22.8508  -18.5341 N   0  0  0  0  0  0  0  0  0  0  0  0
   24.1954  -20.4254  -15.6859 C   0  0  0  0  0  0  0  0  0  0  0  0
   23.2556  -21.2587  -15.7533 O   0  0  0  0  0  0  0  0  0  0  0  0
   23.3595  -16.6758  -17.5655 C   0  0  0  0  0  0  0  0  0  0  0  0
   22.3464  -17.7804  -17.3941 C   0  0  2  0  0  0  0  0  0  0  0  0
   21.5766  -17.5926  -16.1270 C   0  0  0  0  0  0  0  0  0  0  0  0
   22.9868  -19.1459  -17.5006 C   0  0  2  0  0  0  0  0  0  0  0  0
   24.0835  -19.3024  -16.5677 N   0  0  0  0  0  0  0  0  0  0  0  0
   23.5149  -19.2972  -18.8665 C   0  0  0  0  0  0  0  0  0  0  0  0
   22.6468  -19.4171  -19.9280 O   0  0  0  0  0  0  0  0  0  0  0  0
   24.7464  -19.3191  -19.0838 O   0  0  0  0  0  0  0  0  0  0  0  0
  2  1  1  0
  2  3  2  0
  4  2  1  0
  5  4  1  0
  5  6  1  1
  7  5  1  0
  7  8  2  0
  9  7  1  0
 10  9  1  0
 10 11  1  6
 12 11  1  0
 13 12  1  0
 13 14  1  0
 14 15  1  0
 16 10  1  0
 17 16  2  0
 19 18  1  1
 20 19  1  0
 21 19  1  0
 21 22  1  1
 22 16  1  0
 23 24  1  0
 23 21  1  0
 25 23  2  0
M  END
$$$$
