NKV.pdb
     RDKit          3D

 25 24  0  0  1  0  0  0  0  0999 V2000
   20.7543  -15.8090  -17.4732 N   0  0  0  0  0  0  0  0  0  0  0  0
   22.0308  -16.3982  -17.5586 C   0  0  0  0  0  0  0  0  0  0  0  0
   22.9491  -15.8491  -18.2176 O   0  0  0  0  0  0  0  0  0  0  0  0
   22.3262  -17.6928  -16.8669 C   0  0  0  0  0  0  0  0  0  0  0  0
   23.1279  -18.6137  -17.7494 C   0  0  2  0  0  0  0  0  0  0  0  0
   22.2247  -19.2993  -18.6417 N   0  0  0  0  0  0  0  0  0  0  0  0
   23.7950  -19.6216  -16.8911 C   0  0  0  0  0  0  0  0  0  0  0  0
   23.0773  -20.5461  -16.4054 O   0  0  0  0  0  0  0  0  0  0  0  0
   25.1842  -19.6030  -16.5891 N   0  0  0  0  0  0  0  0  0  0  0  0
   25.8315  -20.5845  -15.7432 C   0  0  1  0  0  0  0  0  0  0  0  0
   27.2848  -20.6628  -16.1587 C   0  0  0  0  0  0  0  0  0  0  0  0
   27.6537  -22.0706  -16.4862 C   0  0  0  0  0  0  0  0  0  0  0  0
   29.0845  -22.0757  -16.9804 C   0  0  0  0  0  0  0  0  0  0  0  0
   29.5166  -23.4446  -17.4573 C   0  0  0  0  0  0  0  0  0  0  0  0
   30.8925  -23.2919  -17.9388 N   0  0  0  0  0  0  0  0  0  0  0  0
   25.6578  -20.1936  -14.3453 C   0  0  0  0  0  0  0  0  0  0  0  0
   25.9671  -19.0384  -13.9553 O   0  0  0  0  0  0  0  0  0  0  0  0
   23.5009  -20.0955  -10.0580 C   0  0  0  0  0  0  0  0  0  0  0  0
   23.6004  -20.4768  -11.5141 C   0  0  2  0  0  0  0  0  0  0  0  0
   22.7358  -21.6605  -11.8055 C   0  0  0  0  0  0  0  0  0  0  0  0
   25.0371  -20.6737  -11.9421 C   0  0  2  0  0  0  0  0  0  0  0  0
   25.1378  -21.0634  -13.3333 N   0  0  0  0  0  0  0  0  0  0  0  0
   25.6161  -21.7467  -11.1169 C   0  0  0  0  0  0  0  0  0  0  0  0
   25.9672  -21.4934   -9.8103 O   0  0  0  0  0  0  0  0  0  0  0  0
   25.7971  -22.8932  -11.5829 O   0  0  0  0  0  0  0  0  0  0  0  0
  2  1  1  0
  2  3  2  0
  4  2  1  0
  5  4  1  0
  5  6  1  6
  7  5  1  0
  7  8  2  0
  9  7  1  0
 10  9  1  0
 10 11  1  6
 12 11  1  0
 13 12  1  0
 13 14  1  0
 14 15  1  0
 16 10  1  0
 17 16  2  0
 19 18  1  1
 20 19  1  0
 21 19  1  0
 21 22  1  6
 22 16  1  0
 23 24  1  0
 23 21  1  0
 25 23  2  0
M  END
$$$$
