NKV.pdb
     RDKit          3D

 25 24  0  0  1  0  0  0  0  0999 V2000
   29.4653  -18.8021  -15.2037 N   0  0  0  0  0  0  0  0  0  0  0  0
   28.2590  -18.1678  -15.5592 C   0  0  0  0  0  0  0  0  0  0  0  0
   28.2655  -17.0982  -16.2187 O   0  0  0  0  0  0  0  0  0  0  0  0
   26.9389  -18.7513  -15.1607 C   0  0  0  0  0  0  0  0  0  0  0  0
   27.1187  -19.9486  -14.2642 C   0  0  2  0  0  0  0  0  0  0  0  0
   27.7294  -21.0093  -15.0282 N   0  0  0  0  0  0  0  0  0  0  0  0
   25.7807  -20.4032  -13.8160 C   0  0  0  0  0  0  0  0  0  0  0  0
   25.0429  -20.9840  -14.6669 O   0  0  0  0  0  0  0  0  0  0  0  0
   25.2896  -20.2221  -12.4941 N   0  0  0  0  0  0  0  0  0  0  0  0
   23.9943  -20.6951  -12.0509 C   0  0  1  0  0  0  0  0  0  0  0  0
   23.9884  -20.6689  -10.5375 C   0  0  0  0  0  0  0  0  0  0  0  0
   22.7063  -21.2253  -10.0160 C   0  0  0  0  0  0  0  0  0  0  0  0
   22.7699  -21.2065   -8.5037 C   0  0  0  0  0  0  0  0  0  0  0  0
   21.4991  -21.7330   -7.8744 C   0  0  0  0  0  0  0  0  0  0  0  0
   21.7285  -21.7251   -6.4269 N   0  0  0  0  0  0  0  0  0  0  0  0
   22.9551  -19.8527  -12.6404 C   0  0  0  0  0  0  0  0  0  0  0  0
   22.9543  -18.6078  -12.4597 O   0  0  0  0  0  0  0  0  0  0  0  0
   20.6548  -20.9759  -16.0225 C   0  0  0  0  0  0  0  0  0  0  0  0
   20.8531  -19.5646  -15.5278 C   0  0  2  0  0  0  0  0  0  0  0  0
   22.0700  -18.9585  -16.1487 C   0  0  0  0  0  0  0  0  0  0  0  0
   20.8645  -19.4995  -14.0173 C   0  0  2  0  0  0  0  0  0  0  0  0
   21.8841  -20.3556  -13.4474 N   0  0  0  0  0  0  0  0  0  0  0  0
   19.5517  -19.9548  -13.5309 C   0  0  0  0  0  0  0  0  0  0  0  0
   18.4425  -19.1582  -13.7032 O   0  0  0  0  0  0  0  0  0  0  0  0
   19.4227  -21.0599  -12.9595 O   0  0  0  0  0  0  0  0  0  0  0  0
  2  1  1  0
  2  3  2  0
  4  2  1  0
  5  4  1  0
  5  6  1  6
  7  5  1  0
  7  8  2  0
  9  7  1  0
 10  9  1  0
 10 11  1  1
 12 11  1  0
 13 12  1  0
 13 14  1  0
 14 15  1  0
 16 10  1  0
 17 16  2  0
 19 18  1  1
 20 19  1  0
 21 19  1  0
 21 22  1  1
 22 16  1  0
 23 24  1  0
 23 21  1  0
 25 23  2  0
M  END
$$$$
