NKV.pdb
     RDKit          3D

 25 24  0  0  1  0  0  0  0  0999 V2000
   27.0626  -18.0211  -19.5208 N   0  0  0  0  0  0  0  0  0  0  0  0
   26.9856  -19.4266  -19.4710 C   0  0  0  0  0  0  0  0  0  0  0  0
   27.3880  -20.1266  -20.4340 O   0  0  0  0  0  0  0  0  0  0  0  0
   26.4229  -20.1222  -18.2705 C   0  0  0  0  0  0  0  0  0  0  0  0
   25.9524  -19.1331  -17.2361 C   0  0  2  0  0  0  0  0  0  0  0  0
   27.1046  -18.4739  -16.6707 N   0  0  0  0  0  0  0  0  0  0  0  0
   25.2608  -19.8775  -16.1567 C   0  0  0  0  0  0  0  0  0  0  0  0
   24.1956  -20.4940  -16.4585 O   0  0  0  0  0  0  0  0  0  0  0  0
   25.7277  -19.9337  -14.8149 N   0  0  0  0  0  0  0  0  0  0  0  0
   25.0202  -20.6150  -13.7504 C   0  0  1  0  0  0  0  0  0  0  0  0
   25.7890  -20.3854  -12.4669 C   0  0  0  0  0  0  0  0  0  0  0  0
   25.0330  -20.9380  -11.3057 C   0  0  0  0  0  0  0  0  0  0  0  0
   25.7773  -20.5621  -10.0423 C   0  0  0  0  0  0  0  0  0  0  0  0
   25.0408  -21.0016   -8.7963 C   0  0  0  0  0  0  0  0  0  0  0  0
   25.8814  -20.6010   -7.6644 N   0  0  0  0  0  0  0  0  0  0  0  0
   23.6497  -20.1095  -13.6930 C   0  0  0  0  0  0  0  0  0  0  0  0
   23.4207  -18.8839  -13.5261 O   0  0  0  0  0  0  0  0  0  0  0  0
   18.9707  -20.1945  -15.0045 C   0  0  0  0  0  0  0  0  0  0  0  0
   20.3989  -20.6751  -15.0749 C   0  0  2  0  0  0  0  0  0  0  0  0
   20.4487  -22.1091  -15.4931 C   0  0  0  0  0  0  0  0  0  0  0  0
   21.1411  -20.4089  -13.7848 C   0  0  2  0  0  0  0  0  0  0  0  0
   22.4886  -20.9386  -13.8176 N   0  0  0  0  0  0  0  0  0  0  0  0
   20.4092  -21.0707  -12.6922 C   0  0  0  0  0  0  0  0  0  0  0  0
   19.3888  -20.4070  -12.0497 O   0  0  0  0  0  0  0  0  0  0  0  0
   20.6981  -22.2334  -12.3331 O   0  0  0  0  0  0  0  0  0  0  0  0
  2  1  1  0
  2  3  2  0
  4  2  1  0
  5  4  1  0
  5  6  1  1
  7  5  1  0
  7  8  2  0
  9  7  1  0
 10  9  1  0
 10 11  1  1
 12 11  1  0
 13 12  1  0
 13 14  1  0
 14 15  1  0
 16 10  1  0
 17 16  2  0
 19 18  1  1
 20 19  1  0
 21 19  1  0
 21 22  1  6
 22 16  1  0
 23 24  1  0
 23 21  1  0
 25 23  2  0
M  END
$$$$
