NKV.pdb
     RDKit          3D

 25 24  0  0  1  0  0  0  0  0999 V2000
   20.8213  -14.7146  -15.4075 N   0  0  0  0  0  0  0  0  0  0  0  0
   19.7412  -13.8338  -15.6108 C   0  0  0  0  0  0  0  0  0  0  0  0
   18.5620  -14.2647  -15.6641 O   0  0  0  0  0  0  0  0  0  0  0  0
   19.9702  -12.3625  -15.7686 C   0  0  0  0  0  0  0  0  0  0  0  0
   19.1122  -11.7904  -16.8668 C   0  0  2  0  0  0  0  0  0  0  0  0
   19.6174  -12.2549  -18.1360 N   0  0  0  0  0  0  0  0  0  0  0  0
   19.2262  -10.3128  -16.8285 C   0  0  0  0  0  0  0  0  0  0  0  0
   20.2585   -9.7903  -17.3455 O   0  0  0  0  0  0  0  0  0  0  0  0
   18.2463   -9.4623  -16.2473 N   0  0  0  0  0  0  0  0  0  0  0  0
   18.3124   -8.0163  -16.2967 C   0  0  1  0  0  0  0  0  0  0  0  0
   16.9300   -7.4819  -15.9895 C   0  0  0  0  0  0  0  0  0  0  0  0
   16.0757   -7.5254  -17.2115 C   0  0  0  0  0  0  0  0  0  0  0  0
   14.6394   -7.7108  -16.7709 C   0  0  0  0  0  0  0  0  0  0  0  0
   13.6806   -7.7073  -17.9409 C   0  0  0  0  0  0  0  0  0  0  0  0
   12.3574   -8.0007  -17.3832 N   0  0  0  0  0  0  0  0  0  0  0  0
   19.3260   -7.5557  -15.3492 C   0  0  0  0  0  0  0  0  0  0  0  0
   19.3849   -8.0308  -14.1859 O   0  0  0  0  0  0  0  0  0  0  0  0
   23.1893   -7.3541  -15.6640 C   0  0  0  0  0  0  0  0  0  0  0  0
   22.6632   -5.9966  -15.2687 C   0  0  2  0  0  0  0  0  0  0  0  0
   23.6331   -5.3010  -14.3691 C   0  0  0  0  0  0  0  0  0  0  0  0
   21.2723   -6.0864  -14.6828 C   0  0  2  0  0  0  0  0  0  0  0  0
   20.3065   -6.5571  -15.6538 N   0  0  0  0  0  0  0  0  0  0  0  0
   20.8726   -4.7381  -14.2472 C   0  0  0  0  0  0  0  0  0  0  0  0
   19.8526   -4.0815  -14.8977 O   0  0  0  0  0  0  0  0  0  0  0  0
   21.4457   -4.1725  -13.2901 O   0  0  0  0  0  0  0  0  0  0  0  0
  2  1  1  0
  2  3  2  0
  4  2  1  0
  5  4  1  0
  5  6  1  6
  7  5  1  0
  7  8  2  0
  9  7  1  0
 10  9  1  0
 10 11  1  1
 12 11  1  0
 13 12  1  0
 13 14  1  0
 14 15  1  0
 16 10  1  0
 17 16  2  0
 19 18  1  1
 20 19  1  0
 21 19  1  0
 21 22  1  6
 22 16  1  0
 23 24  1  0
 23 21  1  0
 25 23  2  0
M  END
$$$$
