NKV.pdb
     RDKit          3D

 25 24  0  0  1  0  0  0  0  0999 V2000
   29.2321  -20.3993   -8.8239 N   0  0  0  0  0  0  0  0  0  0  0  0
   28.9461  -20.8463  -10.1285 C   0  0  0  0  0  0  0  0  0  0  0  0
   29.5448  -21.8392  -10.6132 O   0  0  0  0  0  0  0  0  0  0  0  0
   27.9222  -20.1505  -10.9708 C   0  0  0  0  0  0  0  0  0  0  0  0
   26.5242  -20.5236  -10.5515 C   0  0  2  0  0  0  0  0  0  0  0  0
   26.5159  -21.9115  -10.1570 N   0  0  0  0  0  0  0  0  0  0  0  0
   25.6260  -20.3622  -11.7197 C   0  0  0  0  0  0  0  0  0  0  0  0
   25.6409  -19.2474  -12.3218 O   0  0  0  0  0  0  0  0  0  0  0  0
   24.7585  -21.3845  -12.1929 N   0  0  0  0  0  0  0  0  0  0  0  0
   23.9173  -21.2404  -13.3632 C   0  0  1  0  0  0  0  0  0  0  0  0
   23.9804  -22.5393  -14.1376 C   0  0  0  0  0  0  0  0  0  0  0  0
   25.2745  -22.6404  -14.8727 C   0  0  0  0  0  0  0  0  0  0  0  0
   25.2511  -23.9169  -15.6862 C   0  0  0  0  0  0  0  0  0  0  0  0
   26.5338  -24.1208  -16.4616 C   0  0  0  0  0  0  0  0  0  0  0  0
   26.3529  -25.3560  -17.2294 N   0  0  0  0  0  0  0  0  0  0  0  0
   22.5627  -20.8972  -12.9337 C   0  0  0  0  0  0  0  0  0  0  0  0
   22.1064  -21.3189  -11.8400 O   0  0  0  0  0  0  0  0  0  0  0  0
   19.1507  -17.5311  -12.6846 C   0  0  0  0  0  0  0  0  0  0  0  0
   20.0231  -18.2592  -13.6769 C   0  0  2  0  0  0  0  0  0  0  0  0
   19.3897  -18.2580  -15.0305 C   0  0  0  0  0  0  0  0  0  0  0  0
   20.3813  -19.6460  -13.1923 C   0  0  2  0  0  0  0  0  0  0  0  0
   21.6683  -20.0785  -13.6960 N   0  0  0  0  0  0  0  0  0  0  0  0
   19.3540  -20.5799  -13.6820 C   0  0  0  0  0  0  0  0  0  0  0  0
   18.1779  -20.7336  -12.9836 O   0  0  0  0  0  0  0  0  0  0  0  0
   19.5296  -21.2421  -14.7285 O   0  0  0  0  0  0  0  0  0  0  0  0
  2  1  1  0
  2  3  2  0
  4  2  1  0
  5  4  1  0
  5  6  1  6
  7  5  1  0
  7  8  2  0
  9  7  1  0
 10  9  1  0
 10 11  1  1
 12 11  1  0
 13 12  1  0
 13 14  1  0
 14 15  1  0
 16 10  1  0
 17 16  2  0
 19 18  1  1
 20 19  1  0
 21 19  1  0
 21 22  1  6
 22 16  1  0
 23 24  1  0
 23 21  1  0
 25 23  2  0
M  END
$$$$
