MGT.pdb
     RDKit          3D

 20 19  0  0  1  0  0  0  0  0999 V2000
   28.6063  -20.1829   -6.1920 C   0  0  0  0  0  0  0  0  0  0  0  0
   27.3764  -19.1559   -7.0298 S   0  0  0  0  0  0  0  0  0  0  0  0
   26.2059  -20.2433   -7.8724 C   0  0  0  0  0  0  0  0  0  0  0  0
   26.7881  -20.7310   -9.1574 C   0  0  0  0  0  0  0  0  0  0  0  0
   26.0461  -20.2888  -10.3809 C   0  0  2  0  0  0  0  0  0  0  0  0
   24.7310  -20.8347  -10.3787 N   0  0  0  0  0  0  0  0  0  0  0  0
   26.8466  -20.7084  -11.5651 C   0  0  0  0  0  0  0  0  0  0  0  0
   27.0879  -21.9275  -11.7463 O   0  0  0  0  0  0  0  0  0  0  0  0
   27.3588  -19.7906  -12.5135 N   0  0  0  0  0  0  0  0  0  0  0  0
   27.1122  -19.7972  -13.9162 C   0  0  0  0  0  0  0  0  0  0  0  0
   25.7878  -19.3201  -14.3077 C   0  0  0  0  0  0  0  0  0  0  0  0
   25.4346  -18.1410  -14.1021 O   0  0  0  0  0  0  0  0  0  0  0  0
   24.2994  -19.1039  -17.5945 C   0  0  0  0  0  0  0  0  0  0  0  0
   23.3020  -19.9546  -16.8201 C   0  0  1  0  0  0  0  0  0  0  0  0
   23.5186  -21.2757  -17.2242 O   0  0  0  0  0  0  0  0  0  0  0  0
   23.5385  -19.8499  -15.3373 C   0  0  2  0  0  0  0  0  0  0  0  0
   24.8627  -20.1918  -14.9352 N   0  0  0  0  0  0  0  0  0  0  0  0
   22.5392  -20.5957  -14.5510 C   0  0  0  0  0  0  0  0  0  0  0  0
   21.2418  -20.1497  -14.4606 O   0  0  0  0  0  0  0  0  0  0  0  0
   22.8741  -21.6406  -13.9627 O   0  0  0  0  0  0  0  0  0  0  0  0
  2  1  1  0
  3  2  1  0
  4  3  1  0
  5  4  1  0
  5  6  1  6
  7  5  1  0
  7  8  2  0
  9  7  1  0
 10  9  1  0
 10 11  1  0
 11 17  1  0
 11 12  2  0
 14 13  1  6
 15 14  1  0
 16 14  1  0
 16 17  1  6
 18 16  1  0
 18 19  1  0
 20 18  2  0
M  END
$$$$
