MGT.pdb
     RDKit          3D

 20 19  0  0  1  0  0  0  0  0999 V2000
   27.5937  -17.9678  -16.0030 C   0  0  0  0  0  0  0  0  0  0  0  0
   27.1310  -16.3041  -16.5388 S   0  0  0  0  0  0  0  0  0  0  0  0
   26.2369  -15.5003  -15.1908 C   0  0  0  0  0  0  0  0  0  0  0  0
   25.9203  -14.0871  -15.5524 C   0  0  0  0  0  0  0  0  0  0  0  0
   24.4570  -13.7705  -15.5905 C   0  0  2  0  0  0  0  0  0  0  0  0
   23.7748  -14.7116  -16.4129 N   0  0  0  0  0  0  0  0  0  0  0  0
   24.3157  -12.3682  -16.0732 C   0  0  0  0  0  0  0  0  0  0  0  0
   24.8088  -11.4307  -15.3987 O   0  0  0  0  0  0  0  0  0  0  0  0
   23.6435  -12.0302  -17.2723 N   0  0  0  0  0  0  0  0  0  0  0  0
   23.4040  -10.7160  -17.7666 C   0  0  0  0  0  0  0  0  0  0  0  0
   22.2171  -10.0625  -17.2196 C   0  0  0  0  0  0  0  0  0  0  0  0
   21.0743  -10.3301  -17.6433 O   0  0  0  0  0  0  0  0  0  0  0  0
   20.6498  -10.4544  -14.1697 C   0  0  0  0  0  0  0  0  0  0  0  0
   20.9744   -8.9671  -14.1425 C   0  0  1  0  0  0  0  0  0  0  0  0
   22.1304   -8.8335  -13.3669 O   0  0  0  0  0  0  0  0  0  0  0  0
   21.2506   -8.4485  -15.5283 C   0  0  2  0  0  0  0  0  0  0  0  0
   22.3349   -9.0995  -16.1862 N   0  0  0  0  0  0  0  0  0  0  0  0
   21.4159   -6.9839  -15.5618 C   0  0  0  0  0  0  0  0  0  0  0  0
   22.6098   -6.4209  -15.9464 O   0  0  0  0  0  0  0  0  0  0  0  0
   20.4640   -6.2497  -15.2383 O   0  0  0  0  0  0  0  0  0  0  0  0
  2  1  1  0
  3  2  1  0
  4  3  1  0
  5  4  1  0
  5  6  1  6
  7  5  1  0
  7  8  2  0
  9  7  1  0
 10  9  1  0
 10 11  1  0
 11 17  1  0
 11 12  2  0
 14 13  1  6
 15 14  1  0
 16 14  1  0
 16 17  1  1
 18 16  1  0
 18 19  1  0
 20 18  2  0
M  END
$$$$
