MGT.pdb
     RDKit          3D

 20 19  0  0  1  0  0  0  0  0999 V2000
   20.0476  -16.5336  -15.0825 C   0  0  0  0  0  0  0  0  0  0  0  0
   19.1875  -15.1697  -15.9004 S   0  0  0  0  0  0  0  0  0  0  0  0
   20.4218  -14.0968  -16.6671 C   0  0  0  0  0  0  0  0  0  0  0  0
   19.7765  -12.8519  -17.1790 C   0  0  0  0  0  0  0  0  0  0  0  0
   20.7254  -11.8706  -17.7952 C   0  0  2  0  0  0  0  0  0  0  0  0
   21.8416  -11.6645  -16.9354 N   0  0  0  0  0  0  0  0  0  0  0  0
   19.9622  -10.6201  -18.0652 C   0  0  0  0  0  0  0  0  0  0  0  0
   18.9299  -10.6690  -18.7786 O   0  0  0  0  0  0  0  0  0  0  0  0
   20.3451   -9.3577  -17.5516 N   0  0  0  0  0  0  0  0  0  0  0  0
   19.4711   -8.3139  -17.1331 C   0  0  0  0  0  0  0  0  0  0  0  0
   19.8064   -7.7140  -15.8437 C   0  0  0  0  0  0  0  0  0  0  0  0
   19.8798   -8.4030  -14.8057 O   0  0  0  0  0  0  0  0  0  0  0  0
   22.9869   -6.1798  -15.4409 C   0  0  0  0  0  0  0  0  0  0  0  0
   22.0236   -6.2415  -14.2633 C   0  0  1  0  0  0  0  0  0  0  0  0
   22.5897   -5.4564  -13.2540 O   0  0  0  0  0  0  0  0  0  0  0  0
   20.6804   -5.6718  -14.6331 C   0  0  2  0  0  0  0  0  0  0  0  0
   20.0580   -6.3230  -15.7380 N   0  0  0  0  0  0  0  0  0  0  0  0
   20.7213   -4.2122  -14.8357 C   0  0  0  0  0  0  0  0  0  0  0  0
   21.1611   -3.3768  -13.8362 O   0  0  0  0  0  0  0  0  0  0  0  0
   20.3536   -3.7314  -15.9236 O   0  0  0  0  0  0  0  0  0  0  0  0
  2  1  1  0
  3  2  1  0
  4  3  1  0
  5  4  1  0
  5  6  1  1
  7  5  1  0
  7  8  2  0
  9  7  1  0
 10  9  1  0
 10 11  1  0
 11 17  1  0
 11 12  2  0
 14 13  1  6
 15 14  1  0
 16 14  1  0
 16 17  1  6
 18 16  1  0
 18 19  1  0
 20 18  2  0
M  END
$$$$
