MGT.pdb
     RDKit          3D

 20 19  0  0  1  0  0  0  0  0999 V2000
   29.8838  -20.6580   -5.9215 C   0  0  0  0  0  0  0  0  0  0  0  0
   28.6854  -19.9258   -4.7828 S   0  0  0  0  0  0  0  0  0  0  0  0
   27.1945  -19.5119   -5.7147 C   0  0  0  0  0  0  0  0  0  0  0  0
   27.1726  -20.2548   -7.0092 C   0  0  0  0  0  0  0  0  0  0  0  0
   25.9784  -19.9695   -7.8669 C   0  0  2  0  0  0  0  0  0  0  0  0
   24.7826  -20.2733   -7.1561 N   0  0  0  0  0  0  0  0  0  0  0  0
   26.1272  -20.7638   -9.1185 C   0  0  0  0  0  0  0  0  0  0  0  0
   25.2481  -21.6078   -9.4219 O   0  0  0  0  0  0  0  0  0  0  0  0
   27.2255  -20.6156   -9.9992 N   0  0  0  0  0  0  0  0  0  0  0  0
   27.2314  -20.8859  -11.3976 C   0  0  0  0  0  0  0  0  0  0  0  0
   26.1852  -20.2055  -12.1575 C   0  0  0  0  0  0  0  0  0  0  0  0
   25.3370  -19.4843  -11.5938 O   0  0  0  0  0  0  0  0  0  0  0  0
   26.9279  -17.8728  -15.0019 C   0  0  0  0  0  0  0  0  0  0  0  0
   25.9474  -18.9023  -15.5468 C   0  0  1  0  0  0  0  0  0  0  0  0
   26.7108  -19.8255  -16.2681 O   0  0  0  0  0  0  0  0  0  0  0  0
   25.2384  -19.6185  -14.4288 C   0  0  2  0  0  0  0  0  0  0  0  0
   26.1060  -20.3493  -13.5655 N   0  0  0  0  0  0  0  0  0  0  0  0
   24.1354  -20.4692  -14.9116 C   0  0  0  0  0  0  0  0  0  0  0  0
   22.9892  -19.9087  -15.4240 O   0  0  0  0  0  0  0  0  0  0  0  0
   24.2435  -21.7081  -14.8546 O   0  0  0  0  0  0  0  0  0  0  0  0
  2  1  1  0
  3  2  1  0
  4  3  1  0
  5  4  1  0
  5  6  1  1
  7  5  1  0
  7  8  2  0
  9  7  1  0
 10  9  1  0
 10 11  1  0
 11 17  1  0
 11 12  2  0
 14 13  1  1
 15 14  1  0
 16 14  1  0
 16 17  1  6
 18 16  1  0
 18 19  1  0
 20 18  2  0
M  END
$$$$
