MGT.pdb
     RDKit          3D

 20 19  0  0  1  0  0  0  0  0999 V2000
   19.0670  -17.5754  -16.8854 C   0  0  0  0  0  0  0  0  0  0  0  0
   18.4306  -15.8862  -16.7808 S   0  0  0  0  0  0  0  0  0  0  0  0
   19.6452  -14.7737  -17.5220 C   0  0  0  0  0  0  0  0  0  0  0  0
   19.2667  -13.3526  -17.2662 C   0  0  0  0  0  0  0  0  0  0  0  0
   20.2401  -12.3468  -17.7989 C   0  0  2  0  0  0  0  0  0  0  0  0
   21.5590  -12.6683  -17.3693 N   0  0  0  0  0  0  0  0  0  0  0  0
   19.7912  -11.0030  -17.3383 C   0  0  0  0  0  0  0  0  0  0  0  0
   18.6418  -10.5986  -17.6424 O   0  0  0  0  0  0  0  0  0  0  0  0
   20.6050  -10.1427  -16.5627 N   0  0  0  0  0  0  0  0  0  0  0  0
   20.2088   -8.9098  -15.9699 C   0  0  0  0  0  0  0  0  0  0  0  0
   21.2615   -8.2209  -15.2269 C   0  0  0  0  0  0  0  0  0  0  0  0
   22.2371   -8.8408  -14.7563 O   0  0  0  0  0  0  0  0  0  0  0  0
   23.4873   -6.0892  -16.7088 C   0  0  0  0  0  0  0  0  0  0  0  0
   22.9492   -5.1930  -15.6018 C   0  0  1  0  0  0  0  0  0  0  0  0
   22.0122   -4.3476  -16.2043 O   0  0  0  0  0  0  0  0  0  0  0  0
   22.2640   -6.0038  -14.5347 C   0  0  2  0  0  0  0  0  0  0  0  0
   21.2005   -6.8201  -15.0192 N   0  0  0  0  0  0  0  0  0  0  0  0
   21.8200   -5.1798  -13.3958 C   0  0  0  0  0  0  0  0  0  0  0  0
   20.4814   -5.0114  -13.1309 O   0  0  0  0  0  0  0  0  0  0  0  0
   22.6665   -4.6308  -12.6664 O   0  0  0  0  0  0  0  0  0  0  0  0
  2  1  1  0
  3  2  1  0
  4  3  1  0
  5  4  1  0
  5  6  1  1
  7  5  1  0
  7  8  2  0
  9  7  1  0
 10  9  1  0
 10 11  1  0
 11 17  1  0
 11 12  2  0
 14 13  1  6
 15 14  1  0
 16 14  1  0
 16 17  1  6
 18 16  1  0
 18 19  1  0
 20 18  2  0
M  END
$$$$
