MGT.pdb
     RDKit          3D

 20 19  0  0  1  0  0  0  0  0999 V2000
   30.1168  -20.7907   -5.7718 C   0  0  0  0  0  0  0  0  0  0  0  0
   29.1667  -19.3949   -5.1252 S   0  0  0  0  0  0  0  0  0  0  0  0
   27.4877  -19.4958   -5.7834 C   0  0  0  0  0  0  0  0  0  0  0  0
   27.5187  -19.9305   -7.2111 C   0  0  0  0  0  0  0  0  0  0  0  0
   26.1802  -19.9464   -7.8829 C   0  0  2  0  0  0  0  0  0  0  0  0
   25.3023  -20.8367   -7.2017 N   0  0  0  0  0  0  0  0  0  0  0  0
   26.3996  -20.3244   -9.3071 C   0  0  0  0  0  0  0  0  0  0  0  0
   27.0333  -19.5458  -10.0617 O   0  0  0  0  0  0  0  0  0  0  0  0
   25.9237  -21.5353   -9.8650 N   0  0  0  0  0  0  0  0  0  0  0  0
   25.7868  -21.8321  -11.2513 C   0  0  0  0  0  0  0  0  0  0  0  0
   24.7885  -21.0293  -11.9541 C   0  0  0  0  0  0  0  0  0  0  0  0
   23.9171  -20.3866  -11.3336 O   0  0  0  0  0  0  0  0  0  0  0  0
   24.8679  -20.7932  -16.3780 C   0  0  0  0  0  0  0  0  0  0  0  0
   24.5682  -19.6386  -15.4317 C   0  0  1  0  0  0  0  0  0  0  0  0
   23.6626  -18.8097  -16.1013 O   0  0  0  0  0  0  0  0  0  0  0  0
   23.9332  -20.1329  -14.1597 C   0  0  2  0  0  0  0  0  0  0  0  0
   24.7838  -20.9605  -13.3699 N   0  0  0  0  0  0  0  0  0  0  0  0
   22.6317  -20.7846  -14.3933 C   0  0  0  0  0  0  0  0  0  0  0  0
   21.5564  -20.0609  -14.8519 O   0  0  0  0  0  0  0  0  0  0  0  0
   22.5054  -22.0034  -14.1729 O   0  0  0  0  0  0  0  0  0  0  0  0
  2  1  1  0
  3  2  1  0
  4  3  1  0
  5  4  1  0
  5  6  1  1
  7  5  1  0
  7  8  2  0
  9  7  1  0
 10  9  1  0
 10 11  1  0
 11 17  1  0
 11 12  2  0
 14 13  1  6
 15 14  1  0
 16 14  1  0
 16 17  1  6
 18 16  1  0
 18 19  1  0
 20 18  2  0
M  END
$$$$
