MGT.pdb
     RDKit          3D

 20 19  0  0  1  0  0  0  0  0999 V2000
   30.0010  -20.7678  -11.9851 C   0  0  0  0  0  0  0  0  0  0  0  0
   29.4261  -21.4555  -10.4148 S   0  0  0  0  0  0  0  0  0  0  0  0
   27.6929  -21.9284  -10.6014 C   0  0  0  0  0  0  0  0  0  0  0  0
   26.9651  -20.9101  -11.4147 C   0  0  0  0  0  0  0  0  0  0  0  0
   25.5019  -21.1820  -11.5826 C   0  0  2  0  0  0  0  0  0  0  0  0
   25.2957  -22.5464  -11.9336 N   0  0  0  0  0  0  0  0  0  0  0  0
   24.9863  -20.2342  -12.6099 C   0  0  0  0  0  0  0  0  0  0  0  0
   24.8594  -19.0190  -12.3200 O   0  0  0  0  0  0  0  0  0  0  0  0
   24.6255  -20.6374  -13.9181 N   0  0  0  0  0  0  0  0  0  0  0  0
   24.0140  -19.8251  -14.9155 C   0  0  0  0  0  0  0  0  0  0  0  0
   24.6029  -18.4968  -15.0697 C   0  0  0  0  0  0  0  0  0  0  0  0
   25.7383  -18.2334  -14.6240 O   0  0  0  0  0  0  0  0  0  0  0  0
   26.7556  -16.7614  -15.6672 C   0  0  0  0  0  0  0  0  0  0  0  0
   25.7311  -16.0404  -16.5326 C   0  0  1  0  0  0  0  0  0  0  0  0
   25.7317  -16.6966  -17.7675 O   0  0  0  0  0  0  0  0  0  0  0  0
   24.3548  -16.1305  -15.9297 C   0  0  2  0  0  0  0  0  0  0  0  0
   23.8932  -17.4650  -15.7340 N   0  0  0  0  0  0  0  0  0  0  0  0
   23.3603  -15.3311  -16.6680 C   0  0  0  0  0  0  0  0  0  0  0  0
   22.2951  -15.9373  -17.2911 O   0  0  0  0  0  0  0  0  0  0  0  0
   23.4867  -14.0940  -16.7275 O   0  0  0  0  0  0  0  0  0  0  0  0
  2  1  1  0
  3  2  1  0
  4  3  1  0
  5  4  1  0
  5  6  1  6
  7  5  1  0
  7  8  2  0
  9  7  1  0
 10  9  1  0
 10 11  1  0
 11 17  1  0
 11 12  2  0
 14 13  1  1
 15 14  1  0
 16 14  1  0
 16 17  1  6
 18 16  1  0
 18 19  1  0
 20 18  2  0
M  END
$$$$
