MGT.pdb
     RDKit          3D

 20 19  0  0  1  0  0  0  0  0999 V2000
   18.0853  -14.8019  -19.8210 C   0  0  0  0  0  0  0  0  0  0  0  0
   17.5627  -13.5212  -18.6565 S   0  0  0  0  0  0  0  0  0  0  0  0
   18.8924  -12.3073  -18.5114 C   0  0  0  0  0  0  0  0  0  0  0  0
   18.4166  -11.1086  -17.7600 C   0  0  0  0  0  0  0  0  0  0  0  0
   19.4755  -10.0831  -17.4951 C   0  0  2  0  0  0  0  0  0  0  0  0
   20.5018  -10.6398  -16.6800 N   0  0  0  0  0  0  0  0  0  0  0  0
   18.8110   -8.9062  -16.8684 C   0  0  0  0  0  0  0  0  0  0  0  0
   17.9470   -9.0884  -15.9754 O   0  0  0  0  0  0  0  0  0  0  0  0
   19.1065   -7.5704  -17.2319 N   0  0  0  0  0  0  0  0  0  0  0  0
   18.4916   -6.3959  -16.7114 C   0  0  0  0  0  0  0  0  0  0  0  0
   19.1566   -5.8222  -15.5437 C   0  0  0  0  0  0  0  0  0  0  0  0
   18.7512   -4.7652  -15.0187 O   0  0  0  0  0  0  0  0  0  0  0  0
   19.7716   -7.6535  -12.3478 C   0  0  0  0  0  0  0  0  0  0  0  0
   21.1287   -7.0940  -12.7524 C   0  0  1  0  0  0  0  0  0  0  0  0
   21.8494   -8.1660  -13.2880 O   0  0  0  0  0  0  0  0  0  0  0  0
   20.9819   -6.0271  -13.8040 C   0  0  2  0  0  0  0  0  0  0  0  0
   20.2889   -6.4564  -14.9735 N   0  0  0  0  0  0  0  0  0  0  0  0
   22.2679   -5.3971  -14.1541 C   0  0  0  0  0  0  0  0  0  0  0  0
   23.0259   -4.7685  -13.1946 O   0  0  0  0  0  0  0  0  0  0  0  0
   22.6715   -5.4352  -15.3313 O   0  0  0  0  0  0  0  0  0  0  0  0
  2  1  1  0
  3  2  1  0
  4  3  1  0
  5  4  1  0
  5  6  1  1
  7  5  1  0
  7  8  2  0
  9  7  1  0
 10  9  1  0
 10 11  1  0
 11 17  1  0
 11 12  2  0
 14 13  1  6
 15 14  1  0
 16 14  1  0
 16 17  1  6
 18 16  1  0
 18 19  1  0
 20 18  2  0
M  END
$$$$
