MGT.pdb
     RDKit          3D

 20 19  0  0  1  0  0  0  0  0999 V2000
   29.5051  -13.8896  -16.9145 C   0  0  0  0  0  0  0  0  0  0  0  0
   28.2929  -12.8731  -16.0390 S   0  0  0  0  0  0  0  0  0  0  0  0
   26.7038  -13.7315  -16.0677 C   0  0  0  0  0  0  0  0  0  0  0  0
   25.6523  -12.8916  -15.4219 C   0  0  0  0  0  0  0  0  0  0  0  0
   24.6581  -12.3028  -16.3747 C   0  0  2  0  0  0  0  0  0  0  0  0
   25.3267  -11.5096  -17.3500 N   0  0  0  0  0  0  0  0  0  0  0  0
   23.6740  -11.5259  -15.5702 C   0  0  0  0  0  0  0  0  0  0  0  0
   23.0091  -12.1085  -14.6782 O   0  0  0  0  0  0  0  0  0  0  0  0
   23.4442  -10.1421  -15.7608 N   0  0  0  0  0  0  0  0  0  0  0  0
   22.5841   -9.3125  -14.9859 C   0  0  0  0  0  0  0  0  0  0  0  0
   22.6193   -7.8950  -15.3384 C   0  0  0  0  0  0  0  0  0  0  0  0
   23.4401   -7.4514  -16.1671 O   0  0  0  0  0  0  0  0  0  0  0  0
   19.3696   -5.9485  -16.1995 C   0  0  0  0  0  0  0  0  0  0  0  0
   20.1495   -5.1348  -15.1758 C   0  0  1  0  0  0  0  0  0  0  0  0
   19.5211   -5.3496  -13.9451 O   0  0  0  0  0  0  0  0  0  0  0  0
   21.5770   -5.6036  -15.0865 C   0  0  2  0  0  0  0  0  0  0  0  0
   21.7153   -6.9801  -14.7423 N   0  0  0  0  0  0  0  0  0  0  0  0
   22.3973   -4.7542  -14.2039 C   0  0  0  0  0  0  0  0  0  0  0  0
   22.8461   -3.5265  -14.6302 O   0  0  0  0  0  0  0  0  0  0  0  0
   22.6862   -5.1531  -13.0606 O   0  0  0  0  0  0  0  0  0  0  0  0
  2  1  1  0
  3  2  1  0
  4  3  1  0
  5  4  1  0
  5  6  1  6
  7  5  1  0
  7  8  2  0
  9  7  1  0
 10  9  1  0
 10 11  1  0
 11 17  1  0
 11 12  2  0
 14 13  1  6
 15 14  1  0
 16 14  1  0
 16 17  1  1
 18 16  1  0
 18 19  1  0
 20 18  2  0
M  END
$$$$
