MGT.pdb
     RDKit          3D

 20 19  0  0  1  0  0  0  0  0999 V2000
   27.5992  -21.1010  -12.2910 C   0  0  0  0  0  0  0  0  0  0  0  0
   26.3795  -20.9853  -10.9613 S   0  0  0  0  0  0  0  0  0  0  0  0
   24.7321  -21.1430  -11.6851 C   0  0  0  0  0  0  0  0  0  0  0  0
   24.5776  -20.1944  -12.8271 C   0  0  0  0  0  0  0  0  0  0  0  0
   23.2180  -20.1975  -13.4553 C   0  0  2  0  0  0  0  0  0  0  0  0
   22.8798  -21.5134  -13.8814 N   0  0  0  0  0  0  0  0  0  0  0  0
   23.2401  -19.2132  -14.5733 C   0  0  0  0  0  0  0  0  0  0  0  0
   23.0774  -19.6145  -15.7521 O   0  0  0  0  0  0  0  0  0  0  0  0
   23.4381  -17.8257  -14.3745 N   0  0  0  0  0  0  0  0  0  0  0  0
   23.6085  -16.8412  -15.3896 C   0  0  0  0  0  0  0  0  0  0  0  0
   24.8711  -16.9264  -16.1200 C   0  0  0  0  0  0  0  0  0  0  0  0
   25.2769  -15.9829  -16.8289 O   0  0  0  0  0  0  0  0  0  0  0  0
   28.1053  -18.2698  -14.4225 C   0  0  0  0  0  0  0  0  0  0  0  0
   27.9507  -18.9754  -15.7628 C   0  0  1  0  0  0  0  0  0  0  0  0
   27.4682  -20.2564  -15.4767 O   0  0  0  0  0  0  0  0  0  0  0  0
   26.9568  -18.2608  -16.6387 C   0  0  2  0  0  0  0  0  0  0  0  0
   25.6731  -18.0926  -16.0420 N   0  0  0  0  0  0  0  0  0  0  0  0
   26.8412  -18.8695  -17.9763 C   0  0  0  0  0  0  0  0  0  0  0  0
   27.9532  -19.0472  -18.7652 O   0  0  0  0  0  0  0  0  0  0  0  0
   25.7246  -19.2264  -18.3956 O   0  0  0  0  0  0  0  0  0  0  0  0
  2  1  1  0
  3  2  1  0
  4  3  1  0
  5  4  1  0
  5  6  1  6
  7  5  1  0
  7  8  2  0
  9  7  1  0
 10  9  1  0
 10 11  1  0
 11 17  1  0
 11 12  2  0
 14 13  1  1
 15 14  1  0
 16 14  1  0
 16 17  1  1
 18 16  1  0
 18 19  1  0
 20 18  2  0
M  END
$$$$
