MGT.pdb
     RDKit          3D

 20 19  0  0  1  0  0  0  0  0999 V2000
   28.1343  -18.2169   -6.3979 C   0  0  0  0  0  0  0  0  0  0  0  0
   27.7976  -19.9921   -6.3305 S   0  0  0  0  0  0  0  0  0  0  0  0
   26.3570  -20.3376   -7.3639 C   0  0  0  0  0  0  0  0  0  0  0  0
   26.7213  -20.2345   -8.8077 C   0  0  0  0  0  0  0  0  0  0  0  0
   25.5802  -20.4567   -9.7519 C   0  0  2  0  0  0  0  0  0  0  0  0
   24.9587  -21.7088   -9.4811 N   0  0  0  0  0  0  0  0  0  0  0  0
   26.1216  -20.3651  -11.1367 C   0  0  0  0  0  0  0  0  0  0  0  0
   26.2858  -19.2361  -11.6617 O   0  0  0  0  0  0  0  0  0  0  0  0
   26.4669  -21.5023  -11.9058 N   0  0  0  0  0  0  0  0  0  0  0  0
   26.8136  -21.5162  -13.2872 C   0  0  0  0  0  0  0  0  0  0  0  0
   25.6797  -21.6234  -14.2024 C   0  0  0  0  0  0  0  0  0  0  0  0
   25.7273  -22.3532  -15.2136 O   0  0  0  0  0  0  0  0  0  0  0  0
   22.2057  -22.0166  -12.3913 C   0  0  0  0  0  0  0  0  0  0  0  0
   22.4955  -22.3310  -13.8526 C   0  0  1  0  0  0  0  0  0  0  0  0
   21.2526  -22.5150  -14.4667 O   0  0  0  0  0  0  0  0  0  0  0  0
   23.2084  -21.1861  -14.5210 C   0  0  2  0  0  0  0  0  0  0  0  0
   24.4877  -20.8945  -13.9636 N   0  0  0  0  0  0  0  0  0  0  0  0
   22.3776  -19.9709  -14.5996 C   0  0  0  0  0  0  0  0  0  0  0  0
   21.1671  -19.9891  -15.2513 O   0  0  0  0  0  0  0  0  0  0  0  0
   22.7767  -18.9173  -14.0700 O   0  0  0  0  0  0  0  0  0  0  0  0
  2  1  1  0
  3  2  1  0
  4  3  1  0
  5  4  1  0
  5  6  1  1
  7  5  1  0
  7  8  2  0
  9  7  1  0
 10  9  1  0
 10 11  1  0
 11 17  1  0
 11 12  2  0
 14 13  1  1
 15 14  1  0
 16 14  1  0
 16 17  1  1
 18 16  1  0
 18 19  1  0
 20 18  2  0
M  END
$$$$
