WNT.pdb
     RDKit          3D

 30 31  0  0  1  0  0  0  0  0999 V2000
   25.5285  -22.6621  -13.3295 N   0  0  0  0  0  0  0  0  0  0  0  0
   24.9569  -21.4932  -12.7366 C   0  0  1  0  0  0  0  0  0  0  0  0
   25.9051  -20.3538  -12.5948 C   0  0  0  0  0  0  0  0  0  0  0  0
   27.0670  -20.5667  -11.7461 C   0  0  0  0  0  0  0  0  0  0  0  0
   28.3707  -20.6412  -12.1790 C   0  0  0  0  0  0  0  0  0  0  0  0
   29.1885  -20.8609  -11.1140 N   0  0  0  0  0  0  0  0  0  0  0  0
   28.4319  -20.9296  -10.0006 C   0  0  0  0  0  0  0  0  0  0  0  0
   28.8087  -21.1338   -8.6906 C   0  0  0  0  0  0  0  0  0  0  0  0
   27.8483  -21.1602   -7.7104 C   0  0  0  0  0  0  0  0  0  0  0  0
   26.5329  -20.9825   -8.0557 C   0  0  0  0  0  0  0  0  0  0  0  0
   26.1635  -20.7788   -9.3694 C   0  0  0  0  0  0  0  0  0  0  0  0
   27.0984  -20.7462  -10.3837 C   0  0  0  0  0  0  0  0  0  0  0  0
   23.6981  -21.0841  -13.4456 C   0  0  0  0  0  0  0  0  0  0  0  0
   23.4820  -21.4480  -14.6401 O   0  0  0  0  0  0  0  0  0  0  0  0
   21.1073  -22.1468  -11.5012 N   0  0  0  0  0  0  0  0  0  0  0  0
   20.2301  -21.0389  -11.4754 C   0  0  0  0  0  0  0  0  0  0  0  0
   19.3348  -21.0449  -10.5954 O   0  0  0  0  0  0  0  0  0  0  0  0
   20.3165  -19.9025  -12.4134 C   0  0  0  0  0  0  0  0  0  0  0  0
   21.4316  -19.9541  -13.3737 C   0  0  2  0  0  0  0  0  0  0  0  0
   22.7274  -20.2928  -12.8149 N   0  0  0  0  0  0  0  0  0  0  0  0
   21.5039  -19.0221  -14.4809 C   0  0  0  0  0  0  0  0  0  0  0  0
   21.9677  -17.8511  -14.1668 O   0  0  0  0  0  0  0  0  0  0  0  0
   23.3095  -19.0233  -17.9994 C   0  0  0  0  0  0  0  0  0  0  0  0
   21.8400  -18.7224  -18.0620 C   0  0  1  0  0  0  0  0  0  0  0  0
   21.0492  -19.8490  -18.2892 O   0  0  0  0  0  0  0  0  0  0  0  0
   21.3135  -18.0709  -16.8010 C   0  0  2  0  0  0  0  0  0  0  0  0
   21.1529  -19.1725  -15.8289 N   0  0  0  0  0  0  0  0  0  0  0  0
   19.9842  -17.4963  -17.1176 C   0  0  0  0  0  0  0  0  0  0  0  0
   19.8266  -16.4203  -17.9441 O   0  0  0  0  0  0  0  0  0  0  0  0
   18.9482  -18.0082  -16.6134 O   0  0  0  0  0  0  0  0  0  0  0  0
  2 13  1  0
  2  1  1  6
  2  3  1  0
  4  3  1  0
  4 12  1  0
  5  6  1  0
  5  4  2  0
  6  7  1  0
  7  8  1  0
  7 12  2  0
  8  9  2  0
  9 10  1  0
 11 10  2  0
 12 11  1  0
 13 14  2  0
 15 16  1  0
 16 18  1  0
 17 16  2  0
 19 18  1  1
 19 21  1  0
 20 19  1  0
 20 13  1  0
 21 22  2  0
 21 27  1  0
 24 23  1  1
 24 26  1  0
 24 25  1  0
 26 28  1  0
 26 27  1  1
 28 30  2  0
 28 29  1  0
M  END
$$$$
