WNT.pdb
     RDKit          3D

 30 31  0  0  1  0  0  0  0  0999 V2000
   27.8186  -22.5640   -9.9850 N   0  0  0  0  0  0  0  0  0  0  0  0
   26.9788  -21.4786   -9.5834 C   0  0  1  0  0  0  0  0  0  0  0  0
   27.7077  -20.2071   -9.3201 C   0  0  0  0  0  0  0  0  0  0  0  0
   28.5598  -20.1690   -8.1419 C   0  0  0  0  0  0  0  0  0  0  0  0
   29.9352  -20.1964   -8.1485 C   0  0  0  0  0  0  0  0  0  0  0  0
   30.3938  -20.1601   -6.8680 N   0  0  0  0  0  0  0  0  0  0  0  0
   29.3349  -20.1100   -6.0355 C   0  0  0  0  0  0  0  0  0  0  0  0
   29.2984  -20.0574   -4.6587 C   0  0  0  0  0  0  0  0  0  0  0  0
   28.0850  -20.0064   -4.0192 C   0  0  0  0  0  0  0  0  0  0  0  0
   26.9337  -20.0088   -4.7645 C   0  0  0  0  0  0  0  0  0  0  0  0
   26.9784  -20.0618   -6.1425 C   0  0  0  0  0  0  0  0  0  0  0  0
   28.1778  -20.1147   -6.8227 C   0  0  0  0  0  0  0  0  0  0  0  0
   25.8466  -21.2808  -10.5496 C   0  0  0  0  0  0  0  0  0  0  0  0
   25.9529  -21.6569  -11.7552 O   0  0  0  0  0  0  0  0  0  0  0  0
   20.1071  -21.4720  -11.2565 N   0  0  0  0  0  0  0  0  0  0  0  0
   20.9417  -20.3692  -10.9650 C   0  0  0  0  0  0  0  0  0  0  0  0
   20.5904  -19.2551  -11.4247 O   0  0  0  0  0  0  0  0  0  0  0  0
   22.1778  -20.4654  -10.1641 C   0  0  0  0  0  0  0  0  0  0  0  0
   23.4185  -20.6663  -10.9314 C   0  0  2  0  0  0  0  0  0  0  0  0
   24.6437  -20.6789  -10.1537 N   0  0  0  0  0  0  0  0  0  0  0  0
   23.5771  -20.0938  -12.2530 C   0  0  0  0  0  0  0  0  0  0  0  0
   24.0469  -18.8838  -12.2604 O   0  0  0  0  0  0  0  0  0  0  0  0
   23.7101  -22.0358  -15.9510 C   0  0  0  0  0  0  0  0  0  0  0  0
   24.3417  -20.7054  -15.6598 C   0  0  1  0  0  0  0  0  0  0  0  0
   24.6073  -19.9517  -16.8034 O   0  0  0  0  0  0  0  0  0  0  0  0
   23.4988  -19.8341  -14.7531 C   0  0  2  0  0  0  0  0  0  0  0  0
   23.3039  -20.6254  -13.5202 N   0  0  0  0  0  0  0  0  0  0  0  0
   22.1903  -19.6315  -15.4197 C   0  0  0  0  0  0  0  0  0  0  0  0
   22.0558  -18.9071  -16.5698 O   0  0  0  0  0  0  0  0  0  0  0  0
   21.1510  -20.1406  -14.9196 O   0  0  0  0  0  0  0  0  0  0  0  0
  2 13  1  0
  2  1  1  6
  2  3  1  0
  4  3  1  0
  4 12  1  0
  5  6  1  0
  5  4  2  0
  6  7  1  0
  7  8  1  0
  7 12  2  0
  8  9  2  0
  9 10  1  0
 11 10  2  0
 12 11  1  0
 13 14  2  0
 15 16  1  0
 16 18  1  0
 17 16  2  0
 19 18  1  1
 19 21  1  0
 20 19  1  0
 20 13  1  0
 21 22  2  0
 21 27  1  0
 24 23  1  6
 24 26  1  0
 24 25  1  0
 26 28  1  0
 26 27  1  1
 28 30  2  0
 28 29  1  0
M  END
$$$$
