WNT.pdb
     RDKit          3D

 30 31  0  0  1  0  0  0  0  0999 V2000
   28.2769  -21.4052  -14.8031 N   0  0  0  0  0  0  0  0  0  0  0  0
   27.3574  -21.3689  -13.7086 C   0  0  1  0  0  0  0  0  0  0  0  0
   27.5324  -20.2006  -12.8020 C   0  0  0  0  0  0  0  0  0  0  0  0
   28.2031  -20.4459  -11.5348 C   0  0  0  0  0  0  0  0  0  0  0  0
   29.5606  -20.5868  -11.3627 C   0  0  0  0  0  0  0  0  0  0  0  0
   29.8277  -20.8192  -10.0489 N   0  0  0  0  0  0  0  0  0  0  0  0
   28.6627  -20.8307   -9.3710 C   0  0  0  0  0  0  0  0  0  0  0  0
   28.4276  -21.0229   -8.0266 C   0  0  0  0  0  0  0  0  0  0  0  0
   27.1384  -20.9860   -7.5569 C   0  0  0  0  0  0  0  0  0  0  0  0
   26.1108  -20.7582   -8.4361 C   0  0  0  0  0  0  0  0  0  0  0  0
   26.3542  -20.5669   -9.7807 C   0  0  0  0  0  0  0  0  0  0  0  0
   27.6353  -20.5972  -10.2922 C   0  0  0  0  0  0  0  0  0  0  0  0
   25.9392  -21.4952  -14.1855 C   0  0  0  0  0  0  0  0  0  0  0  0
   25.5572  -20.9049  -15.2399 O   0  0  0  0  0  0  0  0  0  0  0  0
   22.8522  -25.5704  -15.7173 N   0  0  0  0  0  0  0  0  0  0  0  0
   23.7103  -24.9810  -14.7614 C   0  0  0  0  0  0  0  0  0  0  0  0
   24.9186  -25.3196  -14.7989 O   0  0  0  0  0  0  0  0  0  0  0  0
   23.2615  -24.0089  -13.7453 C   0  0  0  0  0  0  0  0  0  0  0  0
   23.6762  -22.6144  -13.9726 C   0  0  2  0  0  0  0  0  0  0  0  0
   24.9981  -22.2644  -13.4865 N   0  0  0  0  0  0  0  0  0  0  0  0
   22.7199  -21.5295  -13.8827 C   0  0  0  0  0  0  0  0  0  0  0  0
   22.5889  -21.0274  -12.6928 O   0  0  0  0  0  0  0  0  0  0  0  0
   20.2819  -19.9130  -16.9543 C   0  0  0  0  0  0  0  0  0  0  0  0
   20.8120  -19.0650  -15.8347 C   0  0  1  0  0  0  0  0  0  0  0  0
   20.0085  -17.9630  -15.5410 O   0  0  0  0  0  0  0  0  0  0  0  0
   20.9857  -19.8315  -14.5408 C   0  0  2  0  0  0  0  0  0  0  0  0
   21.9119  -20.9374  -14.8622 N   0  0  0  0  0  0  0  0  0  0  0  0
   19.6627  -20.3890  -14.1717 C   0  0  0  0  0  0  0  0  0  0  0  0
   19.3956  -21.7282  -14.2002 O   0  0  0  0  0  0  0  0  0  0  0  0
   18.7366  -19.6114  -13.8151 O   0  0  0  0  0  0  0  0  0  0  0  0
  2 13  1  0
  2  1  1  6
  2  3  1  0
  4  3  1  0
  4 12  1  0
  5  6  1  0
  5  4  2  0
  6  7  1  0
  7  8  1  0
  7 12  2  0
  8  9  2  0
  9 10  1  0
 11 10  2  0
 12 11  1  0
 13 14  2  0
 15 16  1  0
 16 18  1  0
 17 16  2  0
 19 18  1  1
 19 21  1  0
 20 19  1  0
 20 13  1  0
 21 22  2  0
 21 27  1  0
 24 23  1  6
 24 26  1  0
 24 25  1  0
 26 28  1  0
 26 27  1  6
 28 30  2  0
 28 29  1  0
M  END
$$$$
