WNT.pdb
     RDKit          3D

 30 31  0  0  1  0  0  0  0  0999 V2000
   24.8065  -20.3018   -9.0692 N   0  0  0  0  0  0  0  0  0  0  0  0
   26.2128  -20.3487   -9.3238 C   0  0  1  0  0  0  0  0  0  0  0  0
   26.9974  -21.0763   -8.2883 C   0  0  0  0  0  0  0  0  0  0  0  0
   26.9195  -20.5694   -6.9272 C   0  0  0  0  0  0  0  0  0  0  0  0
   25.7592  -20.3371   -6.2255 C   0  0  0  0  0  0  0  0  0  0  0  0
   26.0667  -19.8528   -4.9917 N   0  0  0  0  0  0  0  0  0  0  0  0
   27.4080  -19.7688   -4.8871 C   0  0  0  0  0  0  0  0  0  0  0  0
   28.1842  -19.3410   -3.8316 C   0  0  0  0  0  0  0  0  0  0  0  0
   29.5512  -19.3489   -3.9551 C   0  0  0  0  0  0  0  0  0  0  0  0
   30.1160  -19.7827   -5.1271 C   0  0  0  0  0  0  0  0  0  0  0  0
   29.3322  -20.2092   -6.1794 C   0  0  0  0  0  0  0  0  0  0  0  0
   27.9550  -20.2160   -6.0952 C   0  0  0  0  0  0  0  0  0  0  0  0
   26.4984  -20.8667  -10.7039 C   0  0  0  0  0  0  0  0  0  0  0  0
   26.9303  -22.0458  -10.8749 O   0  0  0  0  0  0  0  0  0  0  0  0
   25.3094  -23.8532  -14.0948 N   0  0  0  0  0  0  0  0  0  0  0  0
   24.7334  -22.5632  -14.1375 C   0  0  0  0  0  0  0  0  0  0  0  0
   24.1765  -22.2261  -15.2109 O   0  0  0  0  0  0  0  0  0  0  0  0
   24.7562  -21.6170  -13.0048 C   0  0  0  0  0  0  0  0  0  0  0  0
   25.7490  -20.5338  -13.1012 C   0  0  2  0  0  0  0  0  0  0  0  0
   26.2979  -20.0701  -11.8403 N   0  0  0  0  0  0  0  0  0  0  0  0
   25.6145  -19.4872  -14.0943 C   0  0  0  0  0  0  0  0  0  0  0  0
   24.6397  -18.6593  -13.8723 O   0  0  0  0  0  0  0  0  0  0  0  0
   28.4167  -17.0273  -15.4813 C   0  0  0  0  0  0  0  0  0  0  0  0
   27.5344  -17.6111  -16.5464 C   0  0  1  0  0  0  0  0  0  0  0  0
   28.0644  -18.7543  -17.1451 O   0  0  0  0  0  0  0  0  0  0  0  0
   26.1590  -17.9868  -16.0375 C   0  0  2  0  0  0  0  0  0  0  0  0
   26.3561  -19.2239  -15.2535 N   0  0  0  0  0  0  0  0  0  0  0  0
   25.3121  -18.2819  -17.2178 C   0  0  0  0  0  0  0  0  0  0  0  0
   24.9705  -17.3284  -18.1342 O   0  0  0  0  0  0  0  0  0  0  0  0
   24.8819  -19.4531  -17.3986 O   0  0  0  0  0  0  0  0  0  0  0  0
  2 13  1  0
  2  1  1  1
  2  3  1  0
  4  3  1  0
  4 12  1  0
  5  6  1  0
  5  4  2  0
  6  7  1  0
  7  8  1  0
  7 12  2  0
  8  9  2  0
  9 10  1  0
 11 10  2  0
 12 11  1  0
 13 14  2  0
 15 16  1  0
 16 18  1  0
 17 16  2  0
 19 18  1  1
 19 21  1  0
 20 19  1  0
 20 13  1  0
 21 22  2  0
 21 27  1  0
 24 23  1  1
 24 26  1  0
 24 25  1  0
 26 28  1  0
 26 27  1  1
 28 30  2  0
 28 29  1  0
M  END
$$$$
