WNT.pdb
     RDKit          3D

 30 31  0  0  1  0  0  0  0  0999 V2000
   28.8636  -20.6230   -9.4167 N   0  0  0  0  0  0  0  0  0  0  0  0
   27.4845  -20.9974   -9.3643 C   0  0  1  0  0  0  0  0  0  0  0  0
   26.6700  -20.1976   -8.4082 C   0  0  0  0  0  0  0  0  0  0  0  0
   27.3552  -19.6766   -7.2357 C   0  0  0  0  0  0  0  0  0  0  0  0
   27.7539  -18.3722   -7.0563 C   0  0  0  0  0  0  0  0  0  0  0  0
   28.3746  -18.2513   -5.8515 N   0  0  0  0  0  0  0  0  0  0  0  0
   28.3827  -19.4582   -5.2513 C   0  0  0  0  0  0  0  0  0  0  0  0
   28.8930  -19.8293   -4.0259 C   0  0  0  0  0  0  0  0  0  0  0  0
   28.7786  -21.1345   -3.6166 C   0  0  0  0  0  0  0  0  0  0  0  0
   28.1582  -22.0422   -4.4364 C   0  0  0  0  0  0  0  0  0  0  0  0
   27.6500  -21.6630   -5.6619 C   0  0  0  0  0  0  0  0  0  0  0  0
   27.7455  -20.3614   -6.1097 C   0  0  0  0  0  0  0  0  0  0  0  0
   26.8737  -21.0155  -10.7358 C   0  0  0  0  0  0  0  0  0  0  0  0
   27.3924  -20.3521  -11.6829 O   0  0  0  0  0  0  0  0  0  0  0  0
   23.5783  -24.4578  -14.4913 N   0  0  0  0  0  0  0  0  0  0  0  0
   24.5957  -23.5244  -14.1897 C   0  0  0  0  0  0  0  0  0  0  0  0
   25.0270  -22.8284  -15.1415 O   0  0  0  0  0  0  0  0  0  0  0  0
   25.1610  -23.3350  -12.8394 C   0  0  0  0  0  0  0  0  0  0  0  0
   25.1426  -21.9533  -12.3305 C   0  0  2  0  0  0  0  0  0  0  0  0
   25.7188  -21.7610  -11.0125 N   0  0  0  0  0  0  0  0  0  0  0  0
   24.0262  -21.0726  -12.6088 C   0  0  0  0  0  0  0  0  0  0  0  0
   23.2225  -20.8920  -11.6056 O   0  0  0  0  0  0  0  0  0  0  0  0
   23.4850  -17.4508  -14.6497 C   0  0  0  0  0  0  0  0  0  0  0  0
   22.6411  -18.6368  -15.0174 C   0  0  1  0  0  0  0  0  0  0  0  0
   23.1658  -19.3905  -16.0676 O   0  0  0  0  0  0  0  0  0  0  0  0
   22.4261  -19.5927  -13.8634 C   0  0  2  0  0  0  0  0  0  0  0  0
   23.6679  -20.3895  -13.7785 N   0  0  0  0  0  0  0  0  0  0  0  0
   21.2954  -20.4806  -14.2246 C   0  0  0  0  0  0  0  0  0  0  0  0
   20.0008  -20.0462  -14.2565 O   0  0  0  0  0  0  0  0  0  0  0  0
   21.5191  -21.6865  -14.5169 O   0  0  0  0  0  0  0  0  0  0  0  0
  2 13  1  0
  2  1  1  6
  2  3  1  0
  4  3  1  0
  4 12  1  0
  5  6  1  0
  5  4  2  0
  6  7  1  0
  7  8  1  0
  7 12  2  0
  8  9  2  0
  9 10  1  0
 11 10  2  0
 12 11  1  0
 13 14  2  0
 15 16  1  0
 16 18  1  0
 17 16  2  0
 19 18  1  1
 19 21  1  0
 20 19  1  0
 20 13  1  0
 21 22  2  0
 21 27  1  0
 24 23  1  1
 24 26  1  0
 24 25  1  0
 26 28  1  0
 26 27  1  6
 28 30  2  0
 28 29  1  0
M  END
$$$$
