WNT.pdb
     RDKit          3D

 30 31  0  0  1  0  0  0  0  0999 V2000
   22.4908  -16.2843  -16.5710 N   0  0  0  0  0  0  0  0  0  0  0  0
   22.1943  -15.0145  -17.1578 C   0  0  1  0  0  0  0  0  0  0  0  0
   20.7430  -14.7694  -17.3831 C   0  0  0  0  0  0  0  0  0  0  0  0
   19.9923  -15.8252  -18.0445 C   0  0  0  0  0  0  0  0  0  0  0  0
   19.8765  -17.1222  -17.6010 C   0  0  0  0  0  0  0  0  0  0  0  0
   19.1132  -17.8322  -18.4755 N   0  0  0  0  0  0  0  0  0  0  0  0
   18.7353  -17.0126  -19.4767 C   0  0  0  0  0  0  0  0  0  0  0  0
   17.9582  -17.2751  -20.5844 C   0  0  0  0  0  0  0  0  0  0  0  0
   17.6988  -16.2667  -21.4787 C   0  0  0  0  0  0  0  0  0  0  0  0
   18.2188  -15.0183  -21.2508 C   0  0  0  0  0  0  0  0  0  0  0  0
   18.9961  -14.7633  -20.1397 C   0  0  0  0  0  0  0  0  0  0  0  0
   19.2803  -15.7498  -19.2177 C   0  0  0  0  0  0  0  0  0  0  0  0
   22.8340  -13.8965  -16.3862 C   0  0  0  0  0  0  0  0  0  0  0  0
   22.7688  -13.8647  -15.1210 O   0  0  0  0  0  0  0  0  0  0  0  0
   26.5713  -10.3899  -14.3749 N   0  0  0  0  0  0  0  0  0  0  0  0
   26.1636  -10.4587  -15.7264 C   0  0  0  0  0  0  0  0  0  0  0  0
   26.3228   -9.4245  -16.4201 O   0  0  0  0  0  0  0  0  0  0  0  0
   25.5733  -11.6620  -16.3447 C   0  0  0  0  0  0  0  0  0  0  0  0
   24.1017  -11.7028  -16.3782 C   0  0  2  0  0  0  0  0  0  0  0  0
   23.5196  -12.8591  -17.0342 N   0  0  0  0  0  0  0  0  0  0  0  0
   23.3273  -10.4899  -16.5473 C   0  0  0  0  0  0  0  0  0  0  0  0
   23.3921   -9.9736  -17.7365 O   0  0  0  0  0  0  0  0  0  0  0  0
   19.5238   -9.6283  -15.9259 C   0  0  0  0  0  0  0  0  0  0  0  0
   20.4686   -8.6311  -15.3204 C   0  0  1  0  0  0  0  0  0  0  0  0
   20.7560   -8.8789  -13.9779 O   0  0  0  0  0  0  0  0  0  0  0  0
   21.7976   -8.5590  -16.0417 C   0  0  2  0  0  0  0  0  0  0  0  0
   22.5267   -9.7808  -15.6421 N   0  0  0  0  0  0  0  0  0  0  0  0
   22.5175   -7.3675  -15.5320 C   0  0  0  0  0  0  0  0  0  0  0  0
   22.1493   -6.0924  -15.8549 O   0  0  0  0  0  0  0  0  0  0  0  0
   23.5102   -7.5184  -14.7696 O   0  0  0  0  0  0  0  0  0  0  0  0
  2 13  1  0
  2  1  1  1
  2  3  1  0
  4  3  1  0
  4 12  1  0
  5  6  1  0
  5  4  2  0
  6  7  1  0
  7  8  1  0
  7 12  2  0
  8  9  2  0
  9 10  1  0
 11 10  2  0
 12 11  1  0
 13 14  2  0
 15 16  1  0
 16 18  1  0
 17 16  2  0
 19 18  1  6
 19 21  1  0
 20 19  1  0
 20 13  1  0
 21 22  2  0
 21 27  1  0
 24 23  1  6
 24 26  1  0
 24 25  1  0
 26 28  1  0
 26 27  1  1
 28 30  2  0
 28 29  1  0
M  END
$$$$
