WNT.pdb
     RDKit          3D

 30 31  0  0  1  0  0  0  0  0999 V2000
   27.7411  -21.1497   -9.3837 N   0  0  0  0  0  0  0  0  0  0  0  0
   26.4218  -20.6935   -9.0740 C   0  0  1  0  0  0  0  0  0  0  0  0
   26.3704  -19.3272   -8.4843 C   0  0  0  0  0  0  0  0  0  0  0  0
   27.1780  -19.0918   -7.2977 C   0  0  0  0  0  0  0  0  0  0  0  0
   27.8706  -17.9367   -7.0181 C   0  0  0  0  0  0  0  0  0  0  0  0
   28.5236  -18.0772   -5.8326 N   0  0  0  0  0  0  0  0  0  0  0  0
   28.2628  -19.3060   -5.3436 C   0  0  0  0  0  0  0  0  0  0  0  0
   28.6949  -19.9000   -4.1774 C   0  0  0  0  0  0  0  0  0  0  0  0
   28.2889  -21.1776   -3.8824 C   0  0  0  0  0  0  0  0  0  0  0  0
   27.4611  -21.8363   -4.7551 C   0  0  0  0  0  0  0  0  0  0  0  0
   27.0329  -21.2349   -5.9208 C   0  0  0  0  0  0  0  0  0  0  0  0
   27.4190  -19.9528   -6.2537 C   0  0  0  0  0  0  0  0  0  0  0  0
   25.5096  -20.8223  -10.2597 C   0  0  0  0  0  0  0  0  0  0  0  0
   25.9731  -21.1141  -11.4026 O   0  0  0  0  0  0  0  0  0  0  0  0
   21.1347  -21.8907  -13.0376 N   0  0  0  0  0  0  0  0  0  0  0  0
   20.9195  -22.0114  -11.6460 C   0  0  0  0  0  0  0  0  0  0  0  0
   19.8362  -22.5316  -11.2827 O   0  0  0  0  0  0  0  0  0  0  0  0
   21.8870  -21.5645  -10.6247 C   0  0  0  0  0  0  0  0  0  0  0  0
   23.1415  -20.9943  -11.1437 C   0  0  2  0  0  0  0  0  0  0  0  0
   24.1261  -20.6262  -10.1431 N   0  0  0  0  0  0  0  0  0  0  0  0
   23.1401  -20.1244  -12.3025 C   0  0  0  0  0  0  0  0  0  0  0  0
   22.6884  -18.9288  -12.0751 O   0  0  0  0  0  0  0  0  0  0  0  0
   23.9092  -21.1037  -16.3670 C   0  0  0  0  0  0  0  0  0  0  0  0
   24.3349  -19.7839  -15.7919 C   0  0  1  0  0  0  0  0  0  0  0  0
   24.3702  -18.7520  -16.7301 O   0  0  0  0  0  0  0  0  0  0  0  0
   23.4425  -19.3128  -14.6634 C   0  0  2  0  0  0  0  0  0  0  0  0
   23.5392  -20.3597  -13.6248 N   0  0  0  0  0  0  0  0  0  0  0  0
   22.0553  -19.2621  -15.1835 C   0  0  0  0  0  0  0  0  0  0  0  0
   21.0660  -20.0819  -14.7197 O   0  0  0  0  0  0  0  0  0  0  0  0
   21.7592  -18.4362  -16.0889 O   0  0  0  0  0  0  0  0  0  0  0  0
  2 13  1  0
  2  1  1  6
  2  3  1  0
  4  3  1  0
  4 12  1  0
  5  6  1  0
  5  4  2  0
  6  7  1  0
  7  8  1  0
  7 12  2  0
  8  9  2  0
  9 10  1  0
 11 10  2  0
 12 11  1  0
 13 14  2  0
 15 16  1  0
 16 18  1  0
 17 16  2  0
 19 18  1  1
 19 21  1  0
 20 19  1  0
 20 13  1  0
 21 22  2  0
 21 27  1  0
 24 23  1  6
 24 26  1  0
 24 25  1  0
 26 28  1  0
 26 27  1  1
 28 30  2  0
 28 29  1  0
M  END
$$$$
