WNT.pdb
     RDKit          3D

 30 31  0  0  1  0  0  0  0  0999 V2000
   26.9177  -22.3981  -12.6049 N   0  0  0  0  0  0  0  0  0  0  0  0
   26.0363  -21.5834  -11.8277 C   0  0  1  0  0  0  0  0  0  0  0  0
   26.6519  -20.3241  -11.3253 C   0  0  0  0  0  0  0  0  0  0  0  0
   27.7279  -20.4589  -10.3560 C   0  0  0  0  0  0  0  0  0  0  0  0
   29.0333  -20.7786  -10.6496 C   0  0  0  0  0  0  0  0  0  0  0  0
   29.7557  -20.8304   -9.4978 N   0  0  0  0  0  0  0  0  0  0  0  0
   28.9358  -20.5493   -8.4654 C   0  0  0  0  0  0  0  0  0  0  0  0
   29.2099  -20.4790   -7.1165 C   0  0  0  0  0  0  0  0  0  0  0  0
   28.2010  -20.1657   -6.2402 C   0  0  0  0  0  0  0  0  0  0  0  0
   26.9406  -19.9288   -6.7261 C   0  0  0  0  0  0  0  0  0  0  0  0
   26.6739  -20.0013   -8.0779 C   0  0  0  0  0  0  0  0  0  0  0  0
   27.6602  -20.3138   -8.9908 C   0  0  0  0  0  0  0  0  0  0  0  0
   24.7516  -21.3212  -12.5593 C   0  0  0  0  0  0  0  0  0  0  0  0
   24.7286  -21.2662  -13.8252 O   0  0  0  0  0  0  0  0  0  0  0  0
   20.9182  -19.5429  -10.3637 N   0  0  0  0  0  0  0  0  0  0  0  0
   20.5200  -20.8589  -10.6909 C   0  0  0  0  0  0  0  0  0  0  0  0
   19.5954  -21.3588  -10.0043 O   0  0  0  0  0  0  0  0  0  0  0  0
   21.1269  -21.6534  -11.7767 C   0  0  0  0  0  0  0  0  0  0  0  0
   22.2385  -21.0059  -12.4933 C   0  0  2  0  0  0  0  0  0  0  0  0
   23.5443  -21.1304  -11.8722 N   0  0  0  0  0  0  0  0  0  0  0  0
   22.0447  -19.7489  -13.1875 C   0  0  0  0  0  0  0  0  0  0  0  0
   22.1623  -18.6973  -12.4356 O   0  0  0  0  0  0  0  0  0  0  0  0
   23.9383  -17.8725  -16.0105 C   0  0  0  0  0  0  0  0  0  0  0  0
   22.4756  -18.0581  -16.2929 C   0  0  1  0  0  0  0  0  0  0  0  0
   22.1884  -19.2229  -17.0049 O   0  0  0  0  0  0  0  0  0  0  0  0
   21.6294  -18.0978  -15.0382 C   0  0  2  0  0  0  0  0  0  0  0  0
   21.7473  -19.4805  -14.5301 N   0  0  0  0  0  0  0  0  0  0  0  0
   20.2258  -17.8386  -15.4386 C   0  0  0  0  0  0  0  0  0  0  0  0
   19.8085  -16.6277  -15.9131 O   0  0  0  0  0  0  0  0  0  0  0  0
   19.3708  -18.7603  -15.3442 O   0  0  0  0  0  0  0  0  0  0  0  0
  2 13  1  0
  2  1  1  6
  2  3  1  0
  4  3  1  0
  4 12  1  0
  5  6  1  0
  5  4  2  0
  6  7  1  0
  7  8  1  0
  7 12  2  0
  8  9  2  0
  9 10  1  0
 11 10  2  0
 12 11  1  0
 13 14  2  0
 15 16  1  0
 16 18  1  0
 17 16  2  0
 19 18  1  1
 19 21  1  0
 20 19  1  0
 20 13  1  0
 21 22  2  0
 21 27  1  0
 24 23  1  1
 24 26  1  0
 24 25  1  0
 26 28  1  0
 26 27  1  6
 28 30  2  0
 28 29  1  0
M  END
$$$$
