WNT.pdb
     RDKit          3D

 30 31  0  0  1  0  0  0  0  0999 V2000
   26.4289  -22.6588  -12.7430 N   0  0  0  0  0  0  0  0  0  0  0  0
   25.7154  -21.6008  -12.0979 C   0  0  1  0  0  0  0  0  0  0  0  0
   26.5406  -20.3959  -11.8067 C   0  0  0  0  0  0  0  0  0  0  0  0
   27.5762  -20.5366  -10.7951 C   0  0  0  0  0  0  0  0  0  0  0  0
   28.9093  -20.7693  -11.0424 C   0  0  0  0  0  0  0  0  0  0  0  0
   29.5792  -20.8571   -9.8614 N   0  0  0  0  0  0  0  0  0  0  0  0
   28.6981  -20.6849   -8.8558 C   0  0  0  0  0  0  0  0  0  0  0  0
   28.9050  -20.6867   -7.4932 C   0  0  0  0  0  0  0  0  0  0  0  0
   27.8409  -20.4822   -6.6507 C   0  0  0  0  0  0  0  0  0  0  0  0
   26.5933  -20.2801   -7.1833 C   0  0  0  0  0  0  0  0  0  0  0  0
   26.3941  -20.2799   -8.5486 C   0  0  0  0  0  0  0  0  0  0  0  0
   27.4373  -20.4824   -9.4287 C   0  0  0  0  0  0  0  0  0  0  0  0
   24.4651  -21.2497  -12.8515 C   0  0  0  0  0  0  0  0  0  0  0  0
   24.3687  -21.4922  -14.0917 O   0  0  0  0  0  0  0  0  0  0  0  0
   21.0261  -23.1016  -13.1253 N   0  0  0  0  0  0  0  0  0  0  0  0
   20.4574  -22.2055  -12.1920 C   0  0  0  0  0  0  0  0  0  0  0  0
   19.5150  -22.6431  -11.4874 O   0  0  0  0  0  0  0  0  0  0  0  0
   20.9099  -20.8121  -12.0122 C   0  0  0  0  0  0  0  0  0  0  0  0
   22.0740  -20.4124  -12.8206 C   0  0  2  0  0  0  0  0  0  0  0  0
   23.3713  -20.6472  -12.2138 N   0  0  0  0  0  0  0  0  0  0  0  0
   22.0301  -19.2277  -13.6536 C   0  0  0  0  0  0  0  0  0  0  0  0
   21.9685  -18.1108  -12.9949 O   0  0  0  0  0  0  0  0  0  0  0  0
   24.3451  -17.6073  -16.4696 C   0  0  0  0  0  0  0  0  0  0  0  0
   22.9142  -17.8282  -16.8664 C   0  0  1  0  0  0  0  0  0  0  0  0
   22.6924  -19.0542  -17.4942 O   0  0  0  0  0  0  0  0  0  0  0  0
   21.9567  -17.7618  -15.6956 C   0  0  2  0  0  0  0  0  0  0  0  0
   22.0380  -19.0876  -15.0477 N   0  0  0  0  0  0  0  0  0  0  0  0
   20.5939  -17.5650  -16.2447 C   0  0  0  0  0  0  0  0  0  0  0  0
   20.2110  -16.4098  -16.8647 O   0  0  0  0  0  0  0  0  0  0  0  0
   19.7426  -18.4896  -16.1446 O   0  0  0  0  0  0  0  0  0  0  0  0
  2 13  1  0
  2  1  1  6
  2  3  1  0
  4  3  1  0
  4 12  1  0
  5  6  1  0
  5  4  2  0
  6  7  1  0
  7  8  1  0
  7 12  2  0
  8  9  2  0
  9 10  1  0
 11 10  2  0
 12 11  1  0
 13 14  2  0
 15 16  1  0
 16 18  1  0
 17 16  2  0
 19 18  1  1
 19 21  1  0
 20 19  1  0
 20 13  1  0
 21 22  2  0
 21 27  1  0
 24 23  1  1
 24 26  1  0
 24 25  1  0
 26 28  1  0
 26 27  1  6
 28 30  2  0
 28 29  1  0
M  END
$$$$
