PRS.pdb
     RDKit          3D

 25 25  0  0  1  0  0  0  0  0999 V2000
    7.9268  -14.7611   18.9967 N   0  0  0  0  0  0  0  0  0  0  0  0
    6.8478  -13.8067   18.9264 C   0  0  0  0  0  0  0  0  0  0  0  0
    7.1831  -12.6842   19.8888 C   0  0  0  0  0  0  0  0  0  0  0  0
    8.7086  -12.7641   19.8158 C   0  0  0  0  0  0  0  0  0  0  0  0
    8.8717  -14.2613   19.9762 C   0  0  1  0  0  0  0  0  0  0  0  0
    8.4650  -14.7082   21.3516 C   0  0  0  0  0  0  0  0  0  0  0  0
    7.2501  -14.5990   21.6706 O   0  0  0  0  0  0  0  0  0  0  0  0
   11.6296  -21.8557   23.7478 N   0  0  0  0  0  0  0  0  0  0  0  0
   10.7266  -21.6280   22.6642 C   0  0  0  0  0  0  0  0  0  0  0  0
   10.4818  -22.5670   21.8219 N   0  0  0  0  0  0  0  0  0  0  0  0
   10.0762  -20.3759   22.4796 N   0  0  0  0  0  0  0  0  0  0  0  0
   10.3479  -19.2769   23.3961 C   0  0  0  0  0  0  0  0  0  0  0  0
    9.4790  -18.1136   23.0743 C   0  0  0  0  0  0  0  0  0  0  0  0
    9.7432  -16.9407   23.9685 C   0  0  0  0  0  0  0  0  0  0  0  0
    8.9355  -15.7326   23.5884 C   0  0  2  0  0  0  0  0  0  0  0  0
    9.3666  -15.2339   22.2808 N   0  0  0  0  0  0  0  0  0  0  0  0
    9.1378  -14.6583   24.6094 C   0  0  0  0  0  0  0  0  0  0  0  0
   10.1634  -13.9646   24.5816 O   0  0  0  0  0  0  0  0  0  0  0  0
    9.8792  -22.4130   20.9897 O   0  0  0  0  0  0  0  0  0  0  0  0
    6.1907  -12.4482   25.6719 C   0  0  0  0  0  0  0  0  0  0  0  0
    6.7706  -12.9450   26.8227 C   0  0  2  0  0  0  0  0  0  0  0  0
    8.2086  -13.4126   26.5851 N   0  0  0  0  0  0  0  0  0  0  0  0
    8.1417  -14.4574   25.5940 C   0  0  0  0  0  0  0  0  0  0  0  0
    8.7164  -13.9003   27.8835 O   0  0  0  0  0  0  0  0  0  0  0  0
    9.0334  -15.1041   28.0115 O   0  0  0  0  0  0  0  0  0  0  0  0
  1  2  1  0
  3  2  1  0
  4  5  1  0
  4  3  1  0
  5  1  1  0
  5  6  1  1
  7  6  2  0
  9  8  1  0
 10  9  2  0
 11  9  1  0
 12 13  1  0
 12 11  1  0
 13 14  1  0
 15 14  1  1
 15 16  1  0
 16  6  1  0
 17 22  1  0
 17 15  1  0
 18 17  2  0
 19 20  1  0
 21 20  1  6
 21 23  1  0
 21 22  1  0
 23 25  1  0
 24 23  2  0
M  END
$$$$
