PRS.pdb
     RDKit          3D

 25 25  0  0  1  0  0  0  0  0999 V2000
    7.8281  -14.3446   18.2423 N   0  0  0  0  0  0  0  0  0  0  0  0
    6.8244  -13.4803   18.8129 C   0  0  0  0  0  0  0  0  0  0  0  0
    7.4706  -12.7565   19.9779 C   0  0  0  0  0  0  0  0  0  0  0  0
    8.9113  -12.7318   19.4652 C   0  0  0  0  0  0  0  0  0  0  0  0
    9.0306  -14.1791   19.0352 C   0  0  1  0  0  0  0  0  0  0  0  0
    8.9921  -15.1031   20.2192 C   0  0  0  0  0  0  0  0  0  0  0  0
    7.9540  -15.0996   20.9348 O   0  0  0  0  0  0  0  0  0  0  0  0
   11.0195  -21.8019   24.5742 N   0  0  0  0  0  0  0  0  0  0  0  0
   10.6359  -22.2962   23.2898 C   0  0  0  0  0  0  0  0  0  0  0  0
   10.0305  -23.4252   23.1888 N   0  0  0  0  0  0  0  0  0  0  0  0
   10.9048  -21.5709   22.0955 N   0  0  0  0  0  0  0  0  0  0  0  0
   11.6386  -20.3143   22.1613 C   0  0  0  0  0  0  0  0  0  0  0  0
   10.7012  -19.1846   22.3999 C   0  0  0  0  0  0  0  0  0  0  0  0
   10.8287  -18.1100   21.3635 C   0  0  0  0  0  0  0  0  0  0  0  0
    9.9431  -16.9298   21.6449 C   0  0  2  0  0  0  0  0  0  0  0  0
   10.0464  -15.9561   20.5560 N   0  0  0  0  0  0  0  0  0  0  0  0
   10.3729  -16.2792   22.9214 C   0  0  0  0  0  0  0  0  0  0  0  0
   11.3155  -15.4759   22.9186 O   0  0  0  0  0  0  0  0  0  0  0  0
    9.7026  -23.7908   22.2733 O   0  0  0  0  0  0  0  0  0  0  0  0
    8.6851  -14.1053   26.2062 C   0  0  0  0  0  0  0  0  0  0  0  0
    8.6363  -15.4563   25.9234 C   0  0  2  0  0  0  0  0  0  0  0  0
    9.9704  -15.9784   25.3843 N   0  0  0  0  0  0  0  0  0  0  0  0
    9.6849  -16.6002   24.1153 C   0  0  0  0  0  0  0  0  0  0  0  0
   10.4831  -16.9412   26.3801 O   0  0  0  0  0  0  0  0  0  0  0  0
   10.5169  -18.1608   26.1016 O   0  0  0  0  0  0  0  0  0  0  0  0
  1  2  1  0
  3  2  1  0
  4  5  1  0
  4  3  1  0
  5  1  1  0
  5  6  1  1
  7  6  2  0
  9  8  1  0
 10  9  2  0
 11  9  1  0
 12 13  1  0
 12 11  1  0
 13 14  1  0
 15 14  1  6
 15 16  1  0
 16  6  1  0
 17 22  1  0
 17 15  1  0
 18 17  2  0
 19 20  1  0
 21 20  1  6
 21 23  1  0
 21 22  1  0
 23 25  1  0
 24 23  2  0
M  END
$$$$
