PRS.pdb
     RDKit          3D

 25 25  0  0  1  0  0  0  0  0999 V2000
    8.3299  -14.8714   19.1775 N   0  0  0  0  0  0  0  0  0  0  0  0
    7.1251  -14.2286   18.7134 C   0  0  0  0  0  0  0  0  0  0  0  0
    6.9052  -13.0103   19.5885 C   0  0  0  0  0  0  0  0  0  0  0  0
    8.3643  -12.7020   19.9277 C   0  0  0  0  0  0  0  0  0  0  0  0
    8.8164  -14.0979   20.3031 C   0  0  1  0  0  0  0  0  0  0  0  0
    8.1512  -14.5632   21.5673 C   0  0  0  0  0  0  0  0  0  0  0  0
    6.9919  -14.1335   21.8147 O   0  0  0  0  0  0  0  0  0  0  0  0
    8.0634  -20.2846   27.9046 N   0  0  0  0  0  0  0  0  0  0  0  0
    7.1437  -20.6968   26.8920 C   0  0  0  0  0  0  0  0  0  0  0  0
    6.1873  -21.5049   27.1811 N   0  0  0  0  0  0  0  0  0  0  0  0
    7.2497  -20.2370   25.5495 N   0  0  0  0  0  0  0  0  0  0  0  0
    8.3036  -19.2992   25.1866 C   0  0  0  0  0  0  0  0  0  0  0  0
    7.7113  -18.0237   24.7031 C   0  0  0  0  0  0  0  0  0  0  0  0
    8.7556  -17.0214   24.3156 C   0  0  0  0  0  0  0  0  0  0  0  0
    8.1633  -15.7527   23.7716 C   0  0  2  0  0  0  0  0  0  0  0  0
    8.7567  -15.4419   22.4694 N   0  0  0  0  0  0  0  0  0  0  0  0
    8.4462  -14.6276   24.7158 C   0  0  0  0  0  0  0  0  0  0  0  0
    9.5394  -14.0472   24.6755 O   0  0  0  0  0  0  0  0  0  0  0  0
    5.4531  -21.7543   26.4896 O   0  0  0  0  0  0  0  0  0  0  0  0
    5.4882  -12.2655   25.8994 C   0  0  0  0  0  0  0  0  0  0  0  0
    6.2085  -12.7195   26.9868 C   0  0  2  0  0  0  0  0  0  0  0  0
    7.6151  -13.1772   26.5930 N   0  0  0  0  0  0  0  0  0  0  0  0
    7.4470  -14.2484   25.6430 C   0  0  0  0  0  0  0  0  0  0  0  0
    8.2789  -13.6248   27.8342 O   0  0  0  0  0  0  0  0  0  0  0  0
    8.6586  -14.8126   27.9394 O   0  0  0  0  0  0  0  0  0  0  0  0
  1  2  1  0
  3  2  1  0
  4  5  1  0
  4  3  1  0
  5  1  1  0
  5  6  1  1
  7  6  2  0
  9  8  1  0
 10  9  2  0
 11  9  1  0
 12 13  1  0
 12 11  1  0
 13 14  1  0
 15 14  1  1
 15 16  1  0
 16  6  1  0
 17 22  1  0
 17 15  1  0
 18 17  2  0
 19 20  1  0
 21 20  1  6
 21 23  1  0
 21 22  1  0
 23 25  1  0
 24 23  2  0
M  END
$$$$
