PRS.pdb
     RDKit          3D

 25 25  0  0  1  0  0  0  0  0999 V2000
    8.0621  -14.7468   18.8715 N   0  0  0  0  0  0  0  0  0  0  0  0
    6.9256  -13.8608   18.9298 C   0  0  0  0  0  0  0  0  0  0  0  0
    7.1970  -12.8612   20.0368 C   0  0  0  0  0  0  0  0  0  0  0  0
    8.7240  -12.8351   19.9566 C   0  0  0  0  0  0  0  0  0  0  0  0
    8.9806  -14.3271   19.9117 C   0  0  1  0  0  0  0  0  0  0  0  0
    8.6114  -14.9817   21.2127 C   0  0  0  0  0  0  0  0  0  0  0  0
    7.4196  -14.8715   21.6093 O   0  0  0  0  0  0  0  0  0  0  0  0
    6.1175  -18.3856   26.2809 N   0  0  0  0  0  0  0  0  0  0  0  0
    7.2215  -19.1487   26.7708 C   0  0  0  0  0  0  0  0  0  0  0  0
    7.4803  -19.1718   28.0293 N   0  0  0  0  0  0  0  0  0  0  0  0
    8.0614  -19.8979   25.9003 N   0  0  0  0  0  0  0  0  0  0  0  0
    8.4102  -19.3614   24.5917 C   0  0  0  0  0  0  0  0  0  0  0  0
    9.4390  -18.2966   24.7312 C   0  0  0  0  0  0  0  0  0  0  0  0
    9.7689  -17.6480   23.4214 C   0  0  0  0  0  0  0  0  0  0  0  0
    9.1534  -16.2849   23.2819 C   0  0  2  0  0  0  0  0  0  0  0  0
    9.5231  -15.6989   21.9918 N   0  0  0  0  0  0  0  0  0  0  0  0
    9.6531  -15.3995   24.3792 C   0  0  0  0  0  0  0  0  0  0  0  0
   10.8309  -15.0169   24.3764 O   0  0  0  0  0  0  0  0  0  0  0  0
    8.2484  -19.7521   28.4200 O   0  0  0  0  0  0  0  0  0  0  0  0
    6.8417  -13.5790   26.5105 C   0  0  0  0  0  0  0  0  0  0  0  0
    8.1311  -13.1327   26.7243 C   0  0  1  0  0  0  0  0  0  0  0  0
    9.1609  -14.2535   26.5615 N   0  0  0  0  0  0  0  0  0  0  0  0
    8.7584  -15.0156   25.4058 C   0  0  0  0  0  0  0  0  0  0  0  0
    9.1200  -15.0513   27.8038 O   0  0  0  0  0  0  0  0  0  0  0  0
    9.3785  -14.5045   28.8993 O   0  0  0  0  0  0  0  0  0  0  0  0
  1  2  1  0
  3  2  1  0
  4  5  1  0
  4  3  1  0
  5  1  1  0
  5  6  1  1
  7  6  2  0
  9  8  1  0
 10  9  2  0
 11  9  1  0
 12 13  1  0
 12 11  1  0
 13 14  1  0
 15 14  1  1
 15 16  1  0
 16  6  1  0
 17 22  1  0
 17 15  1  0
 18 17  2  0
 19 20  1  0
 21 20  1  6
 21 23  1  0
 21 22  1  0
 23 25  1  0
 24 23  2  0
M  END
$$$$
