PRS.pdb
     RDKit          3D

 25 25  0  0  1  0  0  0  0  0999 V2000
    8.3620  -15.2823   19.1995 N   0  0  0  0  0  0  0  0  0  0  0  0
    7.4167  -14.4138   18.5421 C   0  0  0  0  0  0  0  0  0  0  0  0
    7.4353  -13.0923   19.2850 C   0  0  0  0  0  0  0  0  0  0  0  0
    8.8837  -13.1220   19.7750 C   0  0  0  0  0  0  0  0  0  0  0  0
    8.9192  -14.5378   20.3118 C   0  0  1  0  0  0  0  0  0  0  0  0
    8.0352  -14.6844   21.5177 C   0  0  0  0  0  0  0  0  0  0  0  0
    7.1893  -13.7764   21.7410 O   0  0  0  0  0  0  0  0  0  0  0  0
    8.9349  -20.1596   24.9502 N   0  0  0  0  0  0  0  0  0  0  0  0
    9.0490  -19.6544   26.2817 C   0  0  0  0  0  0  0  0  0  0  0  0
   10.0913  -19.9211   26.9845 N   0  0  0  0  0  0  0  0  0  0  0  0
    8.0317  -18.8520   26.8699 N   0  0  0  0  0  0  0  0  0  0  0  0
    6.7825  -18.6279   26.1549 C   0  0  0  0  0  0  0  0  0  0  0  0
    6.7546  -17.2529   25.5890 C   0  0  0  0  0  0  0  0  0  0  0  0
    7.5087  -17.1528   24.2981 C   0  0  0  0  0  0  0  0  0  0  0  0
    7.4109  -15.7882   23.6777 C   0  0  2  0  0  0  0  0  0  0  0  0
    8.1105  -15.7723   22.3914 N   0  0  0  0  0  0  0  0  0  0  0  0
    8.0426  -14.7826   24.5872 C   0  0  0  0  0  0  0  0  0  0  0  0
    9.2752  -14.7390   24.6992 O   0  0  0  0  0  0  0  0  0  0  0  0
   10.2472  -19.4918   27.9176 O   0  0  0  0  0  0  0  0  0  0  0  0
    5.3782  -12.3844   26.5798 C   0  0  0  0  0  0  0  0  0  0  0  0
    6.6360  -11.8485   26.3847 C   0  0  1  0  0  0  0  0  0  0  0  0
    7.7085  -12.9332   26.2565 N   0  0  0  0  0  0  0  0  0  0  0  0
    7.2079  -13.8948   25.3061 C   0  0  0  0  0  0  0  0  0  0  0  0
    7.8883  -13.5136   27.6027 O   0  0  0  0  0  0  0  0  0  0  0  0
    7.5174  -14.6879   27.8251 O   0  0  0  0  0  0  0  0  0  0  0  0
  1  2  1  0
  3  2  1  0
  4  5  1  0
  4  3  1  0
  5  1  1  0
  5  6  1  1
  7  6  2  0
  9  8  1  0
 10  9  2  0
 11  9  1  0
 12 13  1  0
 12 11  1  0
 13 14  1  0
 15 14  1  1
 15 16  1  0
 16  6  1  0
 17 22  1  0
 17 15  1  0
 18 17  2  0
 19 20  1  0
 21 20  1  6
 21 23  1  0
 21 22  1  0
 23 25  1  0
 24 23  2  0
M  END
$$$$
