PRS.pdb
     RDKit          3D

 25 25  0  0  1  0  0  0  0  0999 V2000
    8.0590  -14.9620   18.8852 N   0  0  0  0  0  0  0  0  0  0  0  0
    6.8725  -14.1739   18.6584 C   0  0  0  0  0  0  0  0  0  0  0  0
    6.9804  -12.9440   19.5382 C   0  0  0  0  0  0  0  0  0  0  0  0
    8.5042  -12.8182   19.5752 C   0  0  0  0  0  0  0  0  0  0  0  0
    8.8500  -14.2614   19.8779 C   0  0  1  0  0  0  0  0  0  0  0  0
    8.3990  -14.6508   21.2570 C   0  0  0  0  0  0  0  0  0  0  0  0
    7.1862  -14.4718   21.5519 O   0  0  0  0  0  0  0  0  0  0  0  0
   11.8003  -19.7993   27.7840 N   0  0  0  0  0  0  0  0  0  0  0  0
   10.5313  -19.3109   28.2226 C   0  0  0  0  0  0  0  0  0  0  0  0
   10.0238  -19.7351   29.3243 N   0  0  0  0  0  0  0  0  0  0  0  0
    9.7943  -18.3541   27.4700 N   0  0  0  0  0  0  0  0  0  0  0  0
   10.2690  -17.9466   26.1546 C   0  0  0  0  0  0  0  0  0  0  0  0
    9.3212  -16.9761   25.5450 C   0  0  0  0  0  0  0  0  0  0  0  0
    9.7472  -16.5485   24.1735 C   0  0  0  0  0  0  0  0  0  0  0  0
    8.7963  -15.5635   23.5555 C   0  0  2  0  0  0  0  0  0  0  0  0
    9.2574  -15.1968   22.2148 N   0  0  0  0  0  0  0  0  0  0  0  0
    8.7363  -14.3321   24.4027 C   0  0  0  0  0  0  0  0  0  0  0  0
    9.6229  -13.4727   24.3074 O   0  0  0  0  0  0  0  0  0  0  0  0
    9.1118  -19.3849   29.6778 O   0  0  0  0  0  0  0  0  0  0  0  0
    5.3073  -12.5028   25.3601 C   0  0  0  0  0  0  0  0  0  0  0  0
    6.0194  -12.9011   26.4744 C   0  0  2  0  0  0  0  0  0  0  0  0
    7.5150  -13.0409   26.1801 N   0  0  0  0  0  0  0  0  0  0  0  0
    7.6561  -14.1763   25.3030 C   0  0  0  0  0  0  0  0  0  0  0  0
    8.1860  -13.2468   27.4797 O   0  0  0  0  0  0  0  0  0  0  0  0
    8.8125  -14.3092   27.6914 O   0  0  0  0  0  0  0  0  0  0  0  0
  1  2  1  0
  3  2  1  0
  4  5  1  0
  4  3  1  0
  5  1  1  0
  5  6  1  1
  7  6  2  0
  9  8  1  0
 10  9  2  0
 11  9  1  0
 12 13  1  0
 12 11  1  0
 13 14  1  0
 15 14  1  1
 15 16  1  0
 16  6  1  0
 17 22  1  0
 17 15  1  0
 18 17  2  0
 19 20  1  0
 21 20  1  6
 21 23  1  0
 21 22  1  0
 23 25  1  0
 24 23  2  0
M  END
$$$$
