PRS.pdb
     RDKit          3D

 25 25  0  0  1  0  0  0  0  0999 V2000
    8.4592  -14.8427   18.9171 N   0  0  0  0  0  0  0  0  0  0  0  0
    7.3073  -14.1676   18.3717 C   0  0  0  0  0  0  0  0  0  0  0  0
    7.0436  -12.9589   19.2481 C   0  0  0  0  0  0  0  0  0  0  0  0
    8.4774  -12.6867   19.7053 C   0  0  0  0  0  0  0  0  0  0  0  0
    8.8712  -14.0975   20.0905 C   0  0  1  0  0  0  0  0  0  0  0  0
    8.1001  -14.5686   21.2907 C   0  0  0  0  0  0  0  0  0  0  0  0
    6.9851  -14.0277   21.5232 O   0  0  0  0  0  0  0  0  0  0  0  0
    8.2292  -21.1972   27.6107 N   0  0  0  0  0  0  0  0  0  0  0  0
    7.8943  -19.8426   27.9176 C   0  0  0  0  0  0  0  0  0  0  0  0
    8.2461  -19.3314   29.0428 N   0  0  0  0  0  0  0  0  0  0  0  0
    7.1716  -19.0231   27.0061 N   0  0  0  0  0  0  0  0  0  0  0  0
    7.6653  -18.8416   25.6477 C   0  0  0  0  0  0  0  0  0  0  0  0
    7.9311  -17.4019   25.3865 C   0  0  0  0  0  0  0  0  0  0  0  0
    8.3975  -17.1540   23.9842 C   0  0  0  0  0  0  0  0  0  0  0  0
    7.9425  -15.8251   23.4518 C   0  0  2  0  0  0  0  0  0  0  0  0
    8.5617  -15.5695   22.1496 N   0  0  0  0  0  0  0  0  0  0  0  0
    8.3469  -14.7439   24.4031 C   0  0  0  0  0  0  0  0  0  0  0  0
    9.5235  -14.3591   24.4372 O   0  0  0  0  0  0  0  0  0  0  0  0
    8.0406  -18.3418   29.2829 O   0  0  0  0  0  0  0  0  0  0  0  0
    5.3134  -13.2007   26.8225 C   0  0  0  0  0  0  0  0  0  0  0  0
    6.3492  -12.3756   26.4305 C   0  0  1  0  0  0  0  0  0  0  0  0
    7.6521  -13.1509   26.2191 N   0  0  0  0  0  0  0  0  0  0  0  0
    7.3647  -14.1798   25.2511 C   0  0  0  0  0  0  0  0  0  0  0  0
    8.0340  -13.7056   27.5336 O   0  0  0  0  0  0  0  0  0  0  0  0
    8.3347  -12.9306   28.4689 O   0  0  0  0  0  0  0  0  0  0  0  0
  1  2  1  0
  3  2  1  0
  4  5  1  0
  4  3  1  0
  5  1  1  0
  5  6  1  1
  7  6  2  0
  9  8  1  0
 10  9  2  0
 11  9  1  0
 12 13  1  0
 12 11  1  0
 13 14  1  0
 15 14  1  1
 15 16  1  0
 16  6  1  0
 17 22  1  0
 17 15  1  0
 18 17  2  0
 19 20  1  0
 21 20  1  6
 21 23  1  0
 21 22  1  0
 23 25  1  0
 24 23  2  0
M  END
$$$$
