PRS.pdb
     RDKit          3D

 25 25  0  0  1  0  0  0  0  0999 V2000
    8.1301  -14.6447   18.7113 N   0  0  0  0  0  0  0  0  0  0  0  0
    7.0279  -13.7155   18.6674 C   0  0  0  0  0  0  0  0  0  0  0  0
    7.2854  -12.6690   19.7337 C   0  0  0  0  0  0  0  0  0  0  0  0
    8.8144  -12.7036   19.7283 C   0  0  0  0  0  0  0  0  0  0  0  0
    9.0137  -14.2044   19.7730 C   0  0  1  0  0  0  0  0  0  0  0  0
    8.5573  -14.7746   21.0859 C   0  0  0  0  0  0  0  0  0  0  0  0
    7.3365  -14.6663   21.3818 O   0  0  0  0  0  0  0  0  0  0  0  0
    8.8309  -20.8919   21.4977 N   0  0  0  0  0  0  0  0  0  0  0  0
   10.2457  -20.7694   21.3408 C   0  0  0  0  0  0  0  0  0  0  0  0
   10.8297  -21.3021   20.3277 N   0  0  0  0  0  0  0  0  0  0  0  0
   11.0472  -20.0661   22.2830 N   0  0  0  0  0  0  0  0  0  0  0  0
   10.4243  -19.4514   23.4474 C   0  0  0  0  0  0  0  0  0  0  0  0
    9.5261  -18.3442   23.0243 C   0  0  0  0  0  0  0  0  0  0  0  0
    9.8431  -17.0558   23.7205 C   0  0  0  0  0  0  0  0  0  0  0  0
    8.9593  -15.9264   23.2735 C   0  0  2  0  0  0  0  0  0  0  0  0
    9.4194  -15.4124   21.9818 N   0  0  0  0  0  0  0  0  0  0  0  0
    9.0135  -14.8237   24.2828 C   0  0  0  0  0  0  0  0  0  0  0  0
   10.0358  -14.1328   24.3888 O   0  0  0  0  0  0  0  0  0  0  0  0
   11.8590  -21.2474   20.1976 O   0  0  0  0  0  0  0  0  0  0  0  0
    6.2174  -12.1636   27.2121 C   0  0  0  0  0  0  0  0  0  0  0  0
    6.3934  -13.1054   26.2174 C   0  0  1  0  0  0  0  0  0  0  0  0
    7.8445  -13.5848   26.1313 N   0  0  0  0  0  0  0  0  0  0  0  0
    7.8829  -14.5932   25.1016 C   0  0  0  0  0  0  0  0  0  0  0  0
    8.1929  -14.1249   27.4611 O   0  0  0  0  0  0  0  0  0  0  0  0
    8.3726  -13.3411   28.4199 O   0  0  0  0  0  0  0  0  0  0  0  0
  1  2  1  0
  3  2  1  0
  4  5  1  0
  4  3  1  0
  5  1  1  0
  5  6  1  1
  7  6  2  0
  9  8  1  0
 10  9  2  0
 11  9  1  0
 12 13  1  0
 12 11  1  0
 13 14  1  0
 15 14  1  1
 15 16  1  0
 16  6  1  0
 17 22  1  0
 17 15  1  0
 18 17  2  0
 19 20  1  0
 21 20  1  6
 21 23  1  0
 21 22  1  0
 23 25  1  0
 24 23  2  0
M  END
$$$$
