PRS.pdb
     RDKit          3D

 25 25  0  0  1  0  0  0  0  0999 V2000
    9.1414  -13.4741   17.5317 N   0  0  0  0  0  0  0  0  0  0  0  0
    7.7497  -13.8525   17.5303 C   0  0  0  0  0  0  0  0  0  0  0  0
    7.2547  -13.7331   18.9583 C   0  0  0  0  0  0  0  0  0  0  0  0
    8.1840  -12.6152   19.4332 C   0  0  0  0  0  0  0  0  0  0  0  0
    9.4939  -13.1596   18.9024 C   0  0  1  0  0  0  0  0  0  0  0  0
    9.8948  -14.4134   19.6265 C   0  0  0  0  0  0  0  0  0  0  0  0
    9.1909  -14.7772   20.6072 O   0  0  0  0  0  0  0  0  0  0  0  0
   11.3821  -20.3084   16.3660 N   0  0  0  0  0  0  0  0  0  0  0  0
   11.7480  -19.1478   15.6173 C   0  0  0  0  0  0  0  0  0  0  0  0
   10.9691  -18.7034   14.6969 N   0  0  0  0  0  0  0  0  0  0  0  0
   12.9662  -18.4528   15.8576 N   0  0  0  0  0  0  0  0  0  0  0  0
   13.3447  -18.1055   17.2206 C   0  0  0  0  0  0  0  0  0  0  0  0
   12.1963  -17.4796   17.9285 C   0  0  0  0  0  0  0  0  0  0  0  0
   12.5480  -17.0575   19.3225 C   0  0  0  0  0  0  0  0  0  0  0  0
   11.4102  -16.3685   20.0205 C   0  0  2  0  0  0  0  0  0  0  0  0
   11.0021  -15.1840   19.2623 N   0  0  0  0  0  0  0  0  0  0  0  0
   11.8490  -15.9443   21.3862 C   0  0  0  0  0  0  0  0  0  0  0  0
   12.6156  -14.9805   21.5173 O   0  0  0  0  0  0  0  0  0  0  0  0
   11.1894  -17.8398   14.1629 O   0  0  0  0  0  0  0  0  0  0  0  0
    9.5345  -17.0938   24.3895 C   0  0  0  0  0  0  0  0  0  0  0  0
   10.4964  -16.1411   24.6624 C   0  0  1  0  0  0  0  0  0  0  0  0
   11.7797  -16.3753   23.8616 N   0  0  0  0  0  0  0  0  0  0  0  0
   11.3725  -16.6618   22.5086 C   0  0  0  0  0  0  0  0  0  0  0  0
   12.4726  -17.5160   24.4942 O   0  0  0  0  0  0  0  0  0  0  0  0
   12.6216  -18.5815   23.8550 O   0  0  0  0  0  0  0  0  0  0  0  0
  1  2  1  0
  3  2  1  0
  4  5  1  0
  4  3  1  0
  5  1  1  0
  5  6  1  1
  7  6  2  0
  9  8  1  0
 10  9  2  0
 11  9  1  0
 12 13  1  0
 12 11  1  0
 13 14  1  0
 15 14  1  6
 15 16  1  0
 16  6  1  0
 17 22  1  0
 17 15  1  0
 18 17  2  0
 19 20  1  0
 21 20  1  6
 21 23  1  0
 21 22  1  0
 23 25  1  0
 24 23  2  0
M  END
$$$$
