HQW.pdb
     RDKit          3D

 34 36  0  0  1  0  0  0  0  0999 V2000
   27.5295  -17.4054  -19.2007 N   0  0  0  0  0  0  0  0  0  0  0  0
   26.8601  -17.2505  -17.9445 C   0  0  1  0  0  0  0  0  0  0  0  0
   25.4516  -16.7576  -18.0578 C   0  0  0  0  0  0  0  0  0  0  0  0
   25.3317  -15.4302  -18.6789 C   0  0  0  0  0  0  0  0  0  0  0  0
   26.1814  -14.7365  -19.5112 C   0  0  0  0  0  0  0  0  0  0  0  0
   25.6594  -13.5511  -19.8350 N   0  0  0  0  0  0  0  0  0  0  0  0
   24.4638  -13.4955  -19.1985 C   0  0  0  0  0  0  0  0  0  0  0  0
   24.2706  -14.6209  -18.5079 N   0  0  0  0  0  0  0  0  0  0  0  0
   26.8037  -18.6040  -17.2946 C   0  0  0  0  0  0  0  0  0  0  0  0
   25.7321  -19.2818  -17.2698 O   0  0  0  0  0  0  0  0  0  0  0  0
   28.6485  -23.6195  -17.0856 N   0  0  0  0  0  0  0  0  0  0  0  0
   28.9667  -22.7948  -18.2028 C   0  0  0  0  0  0  0  0  0  0  0  0
   28.9521  -23.2274  -19.3725 O   0  0  0  0  0  0  0  0  0  0  0  0
   29.3306  -21.3542  -17.9386 C   0  0  0  0  0  0  0  0  0  0  0  0
   29.2206  -21.1244  -16.4677 C   0  0  0  0  0  0  0  0  0  0  0  0
   27.9059  -20.4757  -16.0707 C   0  0  2  0  0  0  0  0  0  0  0  0
   27.9613  -19.1389  -16.6982 N   0  0  0  0  0  0  0  0  0  0  0  0
   27.6852  -20.3671  -14.6378 C   0  0  0  0  0  0  0  0  0  0  0  0
   28.3861  -19.5422  -13.9829 O   0  0  0  0  0  0  0  0  0  0  0  0
   26.7262  -21.1412  -13.9819 N   0  0  0  0  0  0  0  0  0  0  0  0
   26.5637  -21.2789  -12.5540 C   0  0  1  0  0  0  0  0  0  0  0  0
   26.4119  -19.9127  -11.9588 C   0  0  0  0  0  0  0  0  0  0  0  0
   26.1133  -19.9531  -10.5056 C   0  0  0  0  0  0  0  0  0  0  0  0
   24.9094  -19.8232   -9.8517 C   0  0  0  0  0  0  0  0  0  0  0  0
   25.1210  -19.9252   -8.5488 N   0  0  0  0  0  0  0  0  0  0  0  0
   26.4048  -20.1179   -8.2736 C   0  0  0  0  0  0  0  0  0  0  0  0
   27.0804  -20.2776   -7.0830 C   0  0  0  0  0  0  0  0  0  0  0  0
   28.4625  -20.4686   -7.0813 C   0  0  0  0  0  0  0  0  0  0  0  0
   29.1052  -20.4901   -8.2893 C   0  0  0  0  0  0  0  0  0  0  0  0
   28.4206  -20.3301   -9.4625 C   0  0  0  0  0  0  0  0  0  0  0  0
   27.0559  -20.1396   -9.4974 C   0  0  0  0  0  0  0  0  0  0  0  0
   25.4541  -22.2056  -12.1783 C   0  0  0  0  0  0  0  0  0  0  0  0
   25.5563  -22.8929  -11.1516 O   0  0  0  0  0  0  0  0  0  0  0  0
   24.3120  -22.3307  -12.9302 O   0  0  0  0  0  0  0  0  0  0  0  0
  2  1  1  6
  3  2  1  0
  4  3  1  0
  5  4  2  0
  6  5  1  0
  7  6  1  0
  7  8  2  0
  8  4  1  0
  9  2  1  0
 10  9  2  0
 12 11  1  0
 12 14  1  0
 13 12  2  0
 15 14  1  0
 16 17  1  0
 16 15  1  1
 17  9  1  0
 18 16  1  0
 19 18  2  0
 20 18  1  0
 21 20  1  0
 22 23  1  0
 21 22  1  1
 23 24  2  0
 24 25  1  0
 26 27  2  0
 26 25  1  0
 28 27  1  0
 29 28  2  0
 30 29  1  0
 30 31  2  0
 31 23  1  0
 31 26  1  0
 32 21  1  0
 32 34  1  0
 33 32  2  0
M  END
$$$$
