HQW.pdb
     RDKit          3D

 34 36  0  0  1  0  0  0  0  0999 V2000
   28.8443  -21.5932  -17.4244 N   0  0  0  0  0  0  0  0  0  0  0  0
   28.2171  -22.3273  -16.3672 C   0  0  1  0  0  0  0  0  0  0  0  0
   29.1760  -23.0052  -15.4395 C   0  0  0  0  0  0  0  0  0  0  0  0
   29.9231  -24.1111  -16.0567 C   0  0  0  0  0  0  0  0  0  0  0  0
   31.2404  -24.2129  -16.4444 C   0  0  0  0  0  0  0  0  0  0  0  0
   31.4859  -25.4172  -16.9660 N   0  0  0  0  0  0  0  0  0  0  0  0
   30.3077  -26.0849  -16.9068 C   0  0  0  0  0  0  0  0  0  0  0  0
   29.3748  -25.3012  -16.3624 N   0  0  0  0  0  0  0  0  0  0  0  0
   27.4260  -21.3482  -15.5469 C   0  0  0  0  0  0  0  0  0  0  0  0
   27.9345  -20.2575  -15.1466 O   0  0  0  0  0  0  0  0  0  0  0  0
   22.0051  -19.7936  -16.7423 N   0  0  0  0  0  0  0  0  0  0  0  0
   22.5123  -18.6759  -16.0192 C   0  0  0  0  0  0  0  0  0  0  0  0
   21.9998  -17.5420  -16.1050 O   0  0  0  0  0  0  0  0  0  0  0  0
   23.7096  -18.8941  -15.1267 C   0  0  0  0  0  0  0  0  0  0  0  0
   24.1347  -20.3165  -15.2832 C   0  0  0  0  0  0  0  0  0  0  0  0
   25.3163  -20.6774  -14.3999 C   0  0  2  0  0  0  0  0  0  0  0  0
   26.0903  -21.6399  -15.2113 N   0  0  0  0  0  0  0  0  0  0  0  0
   24.9643  -21.2510  -13.1111 C   0  0  0  0  0  0  0  0  0  0  0  0
   24.6060  -22.4636  -13.0710 O   0  0  0  0  0  0  0  0  0  0  0  0
   25.0177  -20.5012  -11.9347 N   0  0  0  0  0  0  0  0  0  0  0  0
   24.5424  -20.9092  -10.6339 C   0  0  1  0  0  0  0  0  0  0  0  0
   25.2363  -20.0843   -9.5939 C   0  0  0  0  0  0  0  0  0  0  0  0
   26.6490  -20.4913   -9.3915 C   0  0  0  0  0  0  0  0  0  0  0  0
   27.4596  -21.2750  -10.1805 C   0  0  0  0  0  0  0  0  0  0  0  0
   28.6477  -21.3713   -9.6043 N   0  0  0  0  0  0  0  0  0  0  0  0
   28.6959  -20.6962   -8.4629 C   0  0  0  0  0  0  0  0  0  0  0  0
   29.7027  -20.5137   -7.5395 C   0  0  0  0  0  0  0  0  0  0  0  0
   29.4781  -19.7384   -6.4015 C   0  0  0  0  0  0  0  0  0  0  0  0
   28.2394  -19.1781   -6.2453 C   0  0  0  0  0  0  0  0  0  0  0  0
   27.2505  -19.3685   -7.1707 C   0  0  0  0  0  0  0  0  0  0  0  0
   27.4409  -20.1287   -8.3046 C   0  0  0  0  0  0  0  0  0  0  0  0
   23.0541  -20.8665  -10.5152 C   0  0  0  0  0  0  0  0  0  0  0  0
   22.4072  -20.0983  -11.2422 O   0  0  0  0  0  0  0  0  0  0  0  0
   22.3629  -21.6506   -9.6247 O   0  0  0  0  0  0  0  0  0  0  0  0
  2  1  1  6
  3  2  1  0
  4  3  1  0
  5  4  2  0
  6  5  1  0
  7  6  1  0
  7  8  2  0
  8  4  1  0
  9  2  1  0
 10  9  2  0
 12 11  1  0
 12 14  1  0
 13 12  2  0
 15 14  1  0
 16 17  1  0
 16 15  1  6
 17  9  1  0
 18 16  1  0
 19 18  2  0
 20 18  1  0
 21 20  1  0
 22 23  1  0
 21 22  1  1
 23 24  2  0
 24 25  1  0
 26 27  2  0
 26 25  1  0
 28 27  1  0
 29 28  2  0
 30 29  1  0
 30 31  2  0
 31 23  1  0
 31 26  1  0
 32 21  1  0
 32 34  1  0
 33 32  2  0
M  END
$$$$
