HQW.pdb
     RDKit          3D

 34 36  0  0  1  0  0  0  0  0999 V2000
   28.0758  -22.8387  -18.3463 N   0  0  0  0  0  0  0  0  0  0  0  0
   29.0230  -22.8731  -17.2732 C   0  0  1  0  0  0  0  0  0  0  0  0
   30.3956  -22.4132  -17.6530 C   0  0  0  0  0  0  0  0  0  0  0  0
   31.0400  -23.2431  -18.6816 C   0  0  0  0  0  0  0  0  0  0  0  0
   31.5537  -24.5196  -18.6287 C   0  0  0  0  0  0  0  0  0  0  0  0
   32.0487  -24.8774  -19.8159 N   0  0  0  0  0  0  0  0  0  0  0  0
   31.8448  -23.8125  -20.6295 C   0  0  0  0  0  0  0  0  0  0  0  0
   31.2413  -22.8366  -19.9483 N   0  0  0  0  0  0  0  0  0  0  0  0
   28.5255  -21.9427  -16.2035 C   0  0  0  0  0  0  0  0  0  0  0  0
   29.1990  -21.7242  -15.1512 O   0  0  0  0  0  0  0  0  0  0  0  0
   27.2715  -17.1616  -14.6630 N   0  0  0  0  0  0  0  0  0  0  0  0
   27.9269  -17.3635  -15.9117 C   0  0  0  0  0  0  0  0  0  0  0  0
   28.9004  -16.6710  -16.2697 O   0  0  0  0  0  0  0  0  0  0  0  0
   27.4091  -18.4564  -16.8145 C   0  0  0  0  0  0  0  0  0  0  0  0
   26.3127  -19.1606  -16.0863 C   0  0  0  0  0  0  0  0  0  0  0  0
   26.8036  -20.3736  -15.3153 C   0  0  2  0  0  0  0  0  0  0  0  0
   27.2861  -21.2950  -16.3650 N   0  0  0  0  0  0  0  0  0  0  0  0
   25.8002  -21.0164  -14.4824 C   0  0  0  0  0  0  0  0  0  0  0  0
   24.8183  -21.5773  -15.0496 O   0  0  0  0  0  0  0  0  0  0  0  0
   25.9008  -21.0298  -13.0900 N   0  0  0  0  0  0  0  0  0  0  0  0
   24.9379  -21.5783  -12.1646 C   0  0  1  0  0  0  0  0  0  0  0  0
   25.6782  -22.1871  -11.0135 C   0  0  0  0  0  0  0  0  0  0  0  0
   26.1248  -21.1760  -10.0231 C   0  0  0  0  0  0  0  0  0  0  0  0
   25.4308  -20.1280   -9.4631 C   0  0  0  0  0  0  0  0  0  0  0  0
   26.2323  -19.4869   -8.6268 N   0  0  0  0  0  0  0  0  0  0  0  0
   27.4385  -20.0384   -8.5830 C   0  0  0  0  0  0  0  0  0  0  0  0
   28.5745  -19.7199   -7.8706 C   0  0  0  0  0  0  0  0  0  0  0  0
   29.7319  -20.4850   -8.0176 C   0  0  0  0  0  0  0  0  0  0  0  0
   29.6907  -21.5445   -8.8828 C   0  0  0  0  0  0  0  0  0  0  0  0
   28.5556  -21.8480   -9.5827 C   0  0  0  0  0  0  0  0  0  0  0  0
   27.3968  -21.1117   -9.4596 C   0  0  0  0  0  0  0  0  0  0  0  0
   23.9074  -20.5856  -11.7360 C   0  0  0  0  0  0  0  0  0  0  0  0
   24.1608  -19.3743  -11.8108 O   0  0  0  0  0  0  0  0  0  0  0  0
   22.6767  -20.9612  -11.2568 O   0  0  0  0  0  0  0  0  0  0  0  0
  2  1  1  6
  3  2  1  0
  4  3  1  0
  5  4  2  0
  6  5  1  0
  7  6  1  0
  7  8  2  0
  8  4  1  0
  9  2  1  0
 10  9  2  0
 12 11  1  0
 12 14  1  0
 13 12  2  0
 15 14  1  0
 16 17  1  0
 16 15  1  6
 17  9  1  0
 18 16  1  0
 19 18  2  0
 20 18  1  0
 21 20  1  0
 22 23  1  0
 21 22  1  1
 23 24  2  0
 24 25  1  0
 26 27  2  0
 26 25  1  0
 28 27  1  0
 29 28  2  0
 30 29  1  0
 30 31  2  0
 31 23  1  0
 31 26  1  0
 32 21  1  0
 32 34  1  0
 33 32  2  0
M  END
$$$$
