HQW.pdb
     RDKit          3D

 34 36  0  0  1  0  0  0  0  0999 V2000
   28.2649  -19.4261  -18.5384 N   0  0  0  0  0  0  0  0  0  0  0  0
   28.8485  -18.8483  -17.3657 C   0  0  1  0  0  0  0  0  0  0  0  0
   29.4437  -17.4924  -17.5822 C   0  0  0  0  0  0  0  0  0  0  0  0
   30.5109  -17.4633  -18.5933 C   0  0  0  0  0  0  0  0  0  0  0  0
   31.0827  -18.4691  -19.3399 C   0  0  0  0  0  0  0  0  0  0  0  0
   32.0293  -17.9787  -20.1437 N   0  0  0  0  0  0  0  0  0  0  0  0
   32.0556  -16.6453  -19.9014 C   0  0  0  0  0  0  0  0  0  0  0  0
   31.1463  -16.3399  -18.9737 N   0  0  0  0  0  0  0  0  0  0  0  0
   27.7542  -18.6932  -16.3479 C   0  0  0  0  0  0  0  0  0  0  0  0
   27.9550  -18.0975  -15.2463 O   0  0  0  0  0  0  0  0  0  0  0  0
   22.5624  -16.7508  -17.6971 N   0  0  0  0  0  0  0  0  0  0  0  0
   23.7671  -16.0445  -17.4153 C   0  0  0  0  0  0  0  0  0  0  0  0
   23.9347  -14.8563  -17.7553 O   0  0  0  0  0  0  0  0  0  0  0  0
   24.8625  -16.7779  -16.6805 C   0  0  0  0  0  0  0  0  0  0  0  0
   24.3725  -18.1608  -16.4052 C   0  0  0  0  0  0  0  0  0  0  0  0
   25.3824  -19.0017  -15.6438 C   0  0  2  0  0  0  0  0  0  0  0  0
   26.4752  -19.2170  -16.6151 N   0  0  0  0  0  0  0  0  0  0  0  0
   24.8729  -20.2695  -15.1473 C   0  0  0  0  0  0  0  0  0  0  0  0
   24.6556  -21.1970  -15.9798 O   0  0  0  0  0  0  0  0  0  0  0  0
   24.6266  -20.4806  -13.7894 N   0  0  0  0  0  0  0  0  0  0  0  0
   23.9271  -21.6015  -13.2075 C   0  0  1  0  0  0  0  0  0  0  0  0
   24.8306  -22.2603  -12.2109 C   0  0  0  0  0  0  0  0  0  0  0  0
   25.4870  -21.2859  -11.3040 C   0  0  0  0  0  0  0  0  0  0  0  0
   24.9973  -20.6660  -10.1772 C   0  0  0  0  0  0  0  0  0  0  0  0
   25.9373  -19.8734   -9.6865 N   0  0  0  0  0  0  0  0  0  0  0  0
   27.0453  -19.9160  -10.4156 C   0  0  0  0  0  0  0  0  0  0  0  0
   28.2581  -19.2734  -10.2913 C   0  0  0  0  0  0  0  0  0  0  0  0
   29.2734  -19.5066  -11.2193 C   0  0  0  0  0  0  0  0  0  0  0  0
   29.0176  -20.3838  -12.2381 C   0  0  0  0  0  0  0  0  0  0  0  0
   27.8087  -21.0138  -12.3479 C   0  0  0  0  0  0  0  0  0  0  0  0
   26.7860  -20.8047  -11.4477 C   0  0  0  0  0  0  0  0  0  0  0  0
   22.5993  -21.2285  -12.6341 C   0  0  0  0  0  0  0  0  0  0  0  0
   22.3622  -20.0405  -12.3703 O   0  0  0  0  0  0  0  0  0  0  0  0
   21.6180  -22.1557  -12.3833 O   0  0  0  0  0  0  0  0  0  0  0  0
  2  1  1  6
  3  2  1  0
  4  3  1  0
  5  4  2  0
  6  5  1  0
  7  6  1  0
  7  8  2  0
  8  4  1  0
  9  2  1  0
 10  9  2  0
 12 11  1  0
 12 14  1  0
 13 12  2  0
 15 14  1  0
 16 17  1  0
 16 15  1  6
 17  9  1  0
 18 16  1  0
 19 18  2  0
 20 18  1  0
 21 20  1  0
 22 23  1  0
 21 22  1  1
 23 24  2  0
 24 25  1  0
 26 27  2  0
 26 25  1  0
 28 27  1  0
 29 28  2  0
 30 29  1  0
 30 31  2  0
 31 23  1  0
 31 26  1  0
 32 21  1  0
 32 34  1  0
 33 32  2  0
M  END
$$$$
