HQW.pdb
     RDKit          3D

 34 36  0  0  1  0  0  0  0  0999 V2000
   25.8975  -20.3147  -17.0891 N   0  0  0  0  0  0  0  0  0  0  0  0
   26.8096  -20.5654  -16.0144 C   0  0  1  0  0  0  0  0  0  0  0  0
   28.1875  -20.0275  -16.2424 C   0  0  0  0  0  0  0  0  0  0  0  0
   28.9500  -20.7545  -17.2680 C   0  0  0  0  0  0  0  0  0  0  0  0
   29.2775  -22.0871  -17.3825 C   0  0  0  0  0  0  0  0  0  0  0  0
   29.9909  -22.3030  -18.4902 N   0  0  0  0  0  0  0  0  0  0  0  0
   30.1155  -21.0905  -19.0833 C   0  0  0  0  0  0  0  0  0  0  0  0
   29.4919  -20.1663  -18.3500 N   0  0  0  0  0  0  0  0  0  0  0  0
   26.2649  -19.8815  -14.7925 C   0  0  0  0  0  0  0  0  0  0  0  0
   26.2744  -18.6181  -14.6820 O   0  0  0  0  0  0  0  0  0  0  0  0
   21.5997  -19.6790  -14.2650 N   0  0  0  0  0  0  0  0  0  0  0  0
   22.0015  -21.0320  -14.0715 C   0  0  0  0  0  0  0  0  0  0  0  0
   21.4099  -21.9845  -14.6177 O   0  0  0  0  0  0  0  0  0  0  0  0
   23.1839  -21.2978  -13.1721 C   0  0  0  0  0  0  0  0  0  0  0  0
   23.7111  -19.9768  -12.7190 C   0  0  0  0  0  0  0  0  0  0  0  0
   25.2183  -19.9783  -12.5317 C   0  0  2  0  0  0  0  0  0  0  0  0
   25.7300  -20.6524  -13.7431 N   0  0  0  0  0  0  0  0  0  0  0  0
   25.6848  -20.6489  -11.3291 C   0  0  0  0  0  0  0  0  0  0  0  0
   25.6999  -21.9139  -11.3141 O   0  0  0  0  0  0  0  0  0  0  0  0
   26.1138  -19.9340  -10.2093 N   0  0  0  0  0  0  0  0  0  0  0  0
   26.2701  -20.4490   -8.8696 C   0  0  1  0  0  0  0  0  0  0  0  0
   26.7735  -19.3449   -7.9915 C   0  0  0  0  0  0  0  0  0  0  0  0
   26.9437  -19.7706   -6.5800 C   0  0  0  0  0  0  0  0  0  0  0  0
   25.9948  -20.1222   -5.6475 C   0  0  0  0  0  0  0  0  0  0  0  0
   26.6068  -20.4316   -4.5151 N   0  0  0  0  0  0  0  0  0  0  0  0
   27.9242  -20.3112   -4.6203 C   0  0  0  0  0  0  0  0  0  0  0  0
   28.9459  -20.5216   -3.7196 C   0  0  0  0  0  0  0  0  0  0  0  0
   30.2715  -20.3149   -4.1021 C   0  0  0  0  0  0  0  0  0  0  0  0
   30.5084  -19.9024   -5.3853 C   0  0  0  0  0  0  0  0  0  0  0  0
   29.4837  -19.6979   -6.2677 C   0  0  0  0  0  0  0  0  0  0  0  0
   28.1642  -19.8932   -5.9203 C   0  0  0  0  0  0  0  0  0  0  0  0
   25.0303  -21.0942   -8.3427 C   0  0  0  0  0  0  0  0  0  0  0  0
   23.9238  -20.6220   -8.6423 O   0  0  0  0  0  0  0  0  0  0  0  0
   25.0634  -22.2011   -7.5309 O   0  0  0  0  0  0  0  0  0  0  0  0
  2  1  1  6
  3  2  1  0
  4  3  1  0
  5  4  2  0
  6  5  1  0
  7  6  1  0
  7  8  2  0
  8  4  1  0
  9  2  1  0
 10  9  2  0
 12 11  1  0
 12 14  1  0
 13 12  2  0
 15 14  1  0
 16 17  1  0
 16 15  1  6
 17  9  1  0
 18 16  1  0
 19 18  2  0
 20 18  1  0
 21 20  1  0
 22 23  1  0
 21 22  1  1
 23 24  2  0
 24 25  1  0
 26 27  2  0
 26 25  1  0
 28 27  1  0
 29 28  2  0
 30 29  1  0
 30 31  2  0
 31 23  1  0
 31 26  1  0
 32 21  1  0
 32 34  1  0
 33 32  2  0
M  END
$$$$
