HQW.pdb
     RDKit          3D

 34 36  0  0  1  0  0  0  0  0999 V2000
   25.1069  -17.6035  -16.4839 N   0  0  0  0  0  0  0  0  0  0  0  0
   26.0898  -17.9283  -15.4949 C   0  0  1  0  0  0  0  0  0  0  0  0
   26.6821  -16.7389  -14.8062 C   0  0  0  0  0  0  0  0  0  0  0  0
   27.4582  -15.8603  -15.6938 C   0  0  0  0  0  0  0  0  0  0  0  0
   28.6785  -16.0368  -16.3066 C   0  0  0  0  0  0  0  0  0  0  0  0
   29.0010  -14.9630  -17.0314 N   0  0  0  0  0  0  0  0  0  0  0  0
   27.9705  -14.0966  -16.8742 C   0  0  0  0  0  0  0  0  0  0  0  0
   27.0491  -14.6360  -16.0737 N   0  0  0  0  0  0  0  0  0  0  0  0
   25.4115  -18.7568  -14.4409 C   0  0  0  0  0  0  0  0  0  0  0  0
   24.3280  -18.3806  -13.8996 O   0  0  0  0  0  0  0  0  0  0  0  0
   24.1964  -25.0540  -13.5694 N   0  0  0  0  0  0  0  0  0  0  0  0
   23.6310  -23.9725  -14.3042 C   0  0  0  0  0  0  0  0  0  0  0  0
   23.1066  -24.1336  -15.4244 O   0  0  0  0  0  0  0  0  0  0  0  0
   23.6794  -22.5957  -13.6880 C   0  0  0  0  0  0  0  0  0  0  0  0
   25.1023  -22.1446  -13.7047 C   0  0  0  0  0  0  0  0  0  0  0  0
   25.3018  -20.8032  -13.0209 C   0  0  2  0  0  0  0  0  0  0  0  0
   25.9841  -19.9787  -14.0401 N   0  0  0  0  0  0  0  0  0  0  0  0
   26.0755  -20.8523  -11.7910 C   0  0  0  0  0  0  0  0  0  0  0  0
   27.3375  -20.8774  -11.8758 O   0  0  0  0  0  0  0  0  0  0  0  0
   25.4613  -20.8679  -10.5374 N   0  0  0  0  0  0  0  0  0  0  0  0
   26.1068  -21.1025   -9.2676 C   0  0  1  0  0  0  0  0  0  0  0  0
   27.2958  -20.1974   -9.1644 C   0  0  0  0  0  0  0  0  0  0  0  0
   28.2304  -20.6034   -8.0853 C   0  0  0  0  0  0  0  0  0  0  0  0
   29.1181  -21.6541   -8.0407 C   0  0  0  0  0  0  0  0  0  0  0  0
   29.7463  -21.6296   -6.8755 N   0  0  0  0  0  0  0  0  0  0  0  0
   29.3376  -20.6191   -6.1186 C   0  0  0  0  0  0  0  0  0  0  0  0
   29.7010  -20.2055   -4.8552 C   0  0  0  0  0  0  0  0  0  0  0  0
   29.0981  -19.0844   -4.2840 C   0  0  0  0  0  0  0  0  0  0  0  0
   28.1492  -18.4264   -5.0185 C   0  0  0  0  0  0  0  0  0  0  0  0
   27.7994  -18.8492   -6.2712 C   0  0  0  0  0  0  0  0  0  0  0  0
   28.3762  -19.9525   -6.8627 C   0  0  0  0  0  0  0  0  0  0  0  0
   25.1759  -20.9775   -8.1062 C   0  0  0  0  0  0  0  0  0  0  0  0
   24.2078  -20.2067   -8.1823 O   0  0  0  0  0  0  0  0  0  0  0  0
   25.3481  -21.6879   -6.9438 O   0  0  0  0  0  0  0  0  0  0  0  0
  2  1  1  6
  3  2  1  0
  4  3  1  0
  5  4  2  0
  6  5  1  0
  7  6  1  0
  7  8  2  0
  8  4  1  0
  9  2  1  0
 10  9  2  0
 12 11  1  0
 12 14  1  0
 13 12  2  0
 15 14  1  0
 16 17  1  0
 16 15  1  6
 17  9  1  0
 18 16  1  0
 19 18  2  0
 20 18  1  0
 21 20  1  0
 22 23  1  0
 21 22  1  1
 23 24  2  0
 24 25  1  0
 26 27  2  0
 26 25  1  0
 28 27  1  0
 29 28  2  0
 30 29  1  0
 30 31  2  0
 31 23  1  0
 31 26  1  0
 32 21  1  0
 32 34  1  0
 33 32  2  0
M  END
$$$$
