HQW.pdb
     RDKit          3D

 34 36  0  0  1  0  0  0  0  0999 V2000
   26.0935  -25.2538  -16.7536 N   0  0  0  0  0  0  0  0  0  0  0  0
   25.1263  -24.3708  -16.1751 C   0  0  1  0  0  0  0  0  0  0  0  0
   24.0468  -25.0646  -15.4050 C   0  0  0  0  0  0  0  0  0  0  0  0
   23.0907  -25.7990  -16.2468 C   0  0  0  0  0  0  0  0  0  0  0  0
   21.7764  -25.5410  -16.5663 C   0  0  0  0  0  0  0  0  0  0  0  0
   21.2932  -26.4889  -17.3728 N   0  0  0  0  0  0  0  0  0  0  0  0
   22.3161  -27.3572  -17.5653 C   0  0  0  0  0  0  0  0  0  0  0  0
   23.3900  -26.9420  -16.8906 N   0  0  0  0  0  0  0  0  0  0  0  0
   25.8529  -23.4772  -15.2101 C   0  0  0  0  0  0  0  0  0  0  0  0
   26.5532  -23.9536  -14.2662 O   0  0  0  0  0  0  0  0  0  0  0  0
   26.6321  -17.5569  -16.3554 N   0  0  0  0  0  0  0  0  0  0  0  0
   27.0774  -17.5015  -15.0033 C   0  0  0  0  0  0  0  0  0  0  0  0
   27.5164  -16.4522  -14.4917 O   0  0  0  0  0  0  0  0  0  0  0  0
   27.0064  -18.7657  -14.1821 C   0  0  0  0  0  0  0  0  0  0  0  0
   26.4838  -19.8486  -15.0667 C   0  0  0  0  0  0  0  0  0  0  0  0
   26.4488  -21.2029  -14.3801 C   0  0  2  0  0  0  0  0  0  0  0  0
   25.7599  -22.0795  -15.3501 N   0  0  0  0  0  0  0  0  0  0  0  0
   25.7713  -21.2197  -13.0939 C   0  0  0  0  0  0  0  0  0  0  0  0
   24.5128  -21.0918  -13.0761 O   0  0  0  0  0  0  0  0  0  0  0  0
   26.4725  -21.3762  -11.8968 N   0  0  0  0  0  0  0  0  0  0  0  0
   25.9121  -21.3705  -10.5663 C   0  0  1  0  0  0  0  0  0  0  0  0
   27.0016  -21.6926   -9.5902 C   0  0  0  0  0  0  0  0  0  0  0  0
   27.1269  -20.6741   -8.5180 C   0  0  0  0  0  0  0  0  0  0  0  0
   26.4366  -19.4972   -8.3386 C   0  0  0  0  0  0  0  0  0  0  0  0
   26.8839  -18.9058   -7.2418 N   0  0  0  0  0  0  0  0  0  0  0  0
   27.8436  -19.6132   -6.6592 C   0  0  0  0  0  0  0  0  0  0  0  0
   28.5891  -19.3966   -5.5205 C   0  0  0  0  0  0  0  0  0  0  0  0
   29.5546  -20.3240   -5.1277 C   0  0  0  0  0  0  0  0  0  0  0  0
   29.7257  -21.4359   -5.9069 C   0  0  0  0  0  0  0  0  0  0  0  0
   28.9780  -21.6367   -7.0343 C   0  0  0  0  0  0  0  0  0  0  0  0
   28.0169  -20.7396   -7.4487 C   0  0  0  0  0  0  0  0  0  0  0  0
   25.1926  -20.1028  -10.2401 C   0  0  0  0  0  0  0  0  0  0  0  0
   25.6068  -19.0308  -10.7050 O   0  0  0  0  0  0  0  0  0  0  0  0
   24.0787  -20.0731   -9.4378 O   0  0  0  0  0  0  0  0  0  0  0  0
  2  1  1  1
  3  2  1  0
  4  3  1  0
  5  4  2  0
  6  5  1  0
  7  6  1  0
  7  8  2  0
  8  4  1  0
  9  2  1  0
 10  9  2  0
 12 11  1  0
 12 14  1  0
 13 12  2  0
 15 14  1  0
 16 17  1  0
 16 15  1  6
 17  9  1  0
 18 16  1  0
 19 18  2  0
 20 18  1  0
 21 20  1  0
 22 23  1  0
 21 22  1  1
 23 24  2  0
 24 25  1  0
 26 27  2  0
 26 25  1  0
 28 27  1  0
 29 28  2  0
 30 29  1  0
 30 31  2  0
 31 23  1  0
 31 26  1  0
 32 21  1  0
 32 34  1  0
 33 32  2  0
M  END
$$$$
