HQW.pdb
     RDKit          3D

 34 36  0  0  1  0  0  0  0  0999 V2000
   20.1999  -20.0310  -14.5594 N   0  0  0  0  0  0  0  0  0  0  0  0
   21.4508  -19.3745  -14.3265 C   0  0  1  0  0  0  0  0  0  0  0  0
   21.3267  -18.0343  -13.6721 C   0  0  0  0  0  0  0  0  0  0  0  0
   20.7896  -16.9870  -14.5534 C   0  0  0  0  0  0  0  0  0  0  0  0
   19.4960  -16.6665  -14.9000 C   0  0  0  0  0  0  0  0  0  0  0  0
   19.4770  -15.6280  -15.7388 N   0  0  0  0  0  0  0  0  0  0  0  0
   20.7760  -15.2882  -15.9245 C   0  0  0  0  0  0  0  0  0  0  0  0
   21.5588  -16.1027  -15.2141 N   0  0  0  0  0  0  0  0  0  0  0  0
   22.2512  -20.2460  -13.4005 C   0  0  0  0  0  0  0  0  0  0  0  0
   21.7942  -20.6103  -12.2750 O   0  0  0  0  0  0  0  0  0  0  0  0
   25.0249  -25.2147  -13.6526 N   0  0  0  0  0  0  0  0  0  0  0  0
   24.0315  -24.7163  -14.5437 C   0  0  0  0  0  0  0  0  0  0  0  0
   23.2743  -25.4730  -15.1837 O   0  0  0  0  0  0  0  0  0  0  0  0
   23.9093  -23.2205  -14.7029 C   0  0  0  0  0  0  0  0  0  0  0  0
   24.9195  -22.5879  -13.8042 C   0  0  0  0  0  0  0  0  0  0  0  0
   24.3136  -21.5465  -12.8795 C   0  0  2  0  0  0  0  0  0  0  0  0
   23.5371  -20.6724  -13.7833 N   0  0  0  0  0  0  0  0  0  0  0  0
   25.2774  -20.7740  -12.1127 C   0  0  0  0  0  0  0  0  0  0  0  0
   25.8401  -19.7893  -12.6732 O   0  0  0  0  0  0  0  0  0  0  0  0
   25.5856  -21.0913  -10.7885 N   0  0  0  0  0  0  0  0  0  0  0  0
   26.6396  -20.5123   -9.9897 C   0  0  1  0  0  0  0  0  0  0  0  0
   26.3557  -20.8000   -8.5474 C   0  0  0  0  0  0  0  0  0  0  0  0
   27.2489  -20.0506   -7.6292 C   0  0  0  0  0  0  0  0  0  0  0  0
   27.4644  -18.6955   -7.5242 C   0  0  0  0  0  0  0  0  0  0  0  0
   28.3492  -18.4797   -6.5633 N   0  0  0  0  0  0  0  0  0  0  0  0
   28.7523  -19.6133   -6.0035 C   0  0  0  0  0  0  0  0  0  0  0  0
   29.6450  -19.8750   -4.9867 C   0  0  0  0  0  0  0  0  0  0  0  0
   29.8873  -21.1897   -4.5875 C   0  0  0  0  0  0  0  0  0  0  0  0
   29.2133  -22.1882   -5.2368 C   0  0  0  0  0  0  0  0  0  0  0  0
   28.3304  -21.9124   -6.2442 C   0  0  0  0  0  0  0  0  0  0  0  0
   28.0695  -20.6248   -6.6614 C   0  0  0  0  0  0  0  0  0  0  0  0
   28.0031  -20.9498  -10.4146 C   0  0  0  0  0  0  0  0  0  0  0  0
   28.1924  -22.1346  -10.7269 O   0  0  0  0  0  0  0  0  0  0  0  0
   29.0688  -20.0861  -10.4747 O   0  0  0  0  0  0  0  0  0  0  0  0
  2  1  1  1
  3  2  1  0
  4  3  1  0
  5  4  2  0
  6  5  1  0
  7  6  1  0
  7  8  2  0
  8  4  1  0
  9  2  1  0
 10  9  2  0
 12 11  1  0
 12 14  1  0
 13 12  2  0
 15 14  1  0
 16 17  1  0
 16 15  1  6
 17  9  1  0
 18 16  1  0
 19 18  2  0
 20 18  1  0
 21 20  1  0
 22 23  1  0
 21 22  1  1
 23 24  2  0
 24 25  1  0
 26 27  2  0
 26 25  1  0
 28 27  1  0
 29 28  2  0
 30 29  1  0
 30 31  2  0
 31 23  1  0
 31 26  1  0
 32 21  1  0
 32 34  1  0
 33 32  2  0
M  END
$$$$
