HQW.pdb
     RDKit          3D

 34 36  0  0  1  0  0  0  0  0999 V2000
   28.1795  -23.2629  -18.0818 N   0  0  0  0  0  0  0  0  0  0  0  0
   29.3549  -22.7302  -17.4617 C   0  0  1  0  0  0  0  0  0  0  0  0
   30.2654  -22.0013  -18.3995 C   0  0  0  0  0  0  0  0  0  0  0  0
   30.8100  -22.8414  -19.4763 C   0  0  0  0  0  0  0  0  0  0  0  0
   30.3658  -23.0763  -20.7583 C   0  0  0  0  0  0  0  0  0  0  0  0
   31.1838  -23.9194  -21.3929 N   0  0  0  0  0  0  0  0  0  0  0  0
   32.1577  -24.2210  -20.4996 C   0  0  0  0  0  0  0  0  0  0  0  0
   31.9315  -23.5747  -19.3542 N   0  0  0  0  0  0  0  0  0  0  0  0
   28.9072  -21.7414  -16.4228 C   0  0  0  0  0  0  0  0  0  0  0  0
   29.7429  -21.0907  -15.7252 O   0  0  0  0  0  0  0  0  0  0  0  0
   25.1672  -17.8869  -14.2776 N   0  0  0  0  0  0  0  0  0  0  0  0
   26.3817  -17.3398  -14.7827 C   0  0  0  0  0  0  0  0  0  0  0  0
   26.8260  -16.2406  -14.3955 O   0  0  0  0  0  0  0  0  0  0  0  0
   27.1385  -18.1335  -15.8195 C   0  0  0  0  0  0  0  0  0  0  0  0
   26.4412  -19.4434  -15.9813 C   0  0  0  0  0  0  0  0  0  0  0  0
   27.0944  -20.5594  -15.1846 C   0  0  2  0  0  0  0  0  0  0  0  0
   27.5318  -21.5262  -16.2131 N   0  0  0  0  0  0  0  0  0  0  0  0
   26.2304  -21.1992  -14.2059 C   0  0  0  0  0  0  0  0  0  0  0  0
   25.2904  -21.9351  -14.6244 O   0  0  0  0  0  0  0  0  0  0  0  0
   26.4186  -21.0226  -12.8338 N   0  0  0  0  0  0  0  0  0  0  0  0
   25.5598  -21.5080  -11.7797 C   0  0  1  0  0  0  0  0  0  0  0  0
   26.4144  -21.9063  -10.6158 C   0  0  0  0  0  0  0  0  0  0  0  0
   26.5320  -20.8311   -9.5995 C   0  0  0  0  0  0  0  0  0  0  0  0
   25.6923  -19.7724   -9.3390 C   0  0  0  0  0  0  0  0  0  0  0  0
   26.1979  -19.0656   -8.3401 N   0  0  0  0  0  0  0  0  0  0  0  0
   27.3388  -19.5822   -7.9015 C   0  0  0  0  0  0  0  0  0  0  0  0
   28.2033  -19.1955   -6.9002 C   0  0  0  0  0  0  0  0  0  0  0  0
   29.3572  -19.9370   -6.6450 C   0  0  0  0  0  0  0  0  0  0  0  0
   29.5886  -21.0431   -7.4169 C   0  0  0  0  0  0  0  0  0  0  0  0
   28.7210  -21.4141   -8.4070 C   0  0  0  0  0  0  0  0  0  0  0  0
   27.5732  -20.7028   -8.6835 C   0  0  0  0  0  0  0  0  0  0  0  0
   24.4840  -20.5402  -11.4095 C   0  0  0  0  0  0  0  0  0  0  0  0
   24.6557  -19.3302  -11.6180 O   0  0  0  0  0  0  0  0  0  0  0  0
   23.2989  -20.9375  -10.8412 O   0  0  0  0  0  0  0  0  0  0  0  0
  2  1  1  6
  3  2  1  0
  4  3  1  0
  5  4  2  0
  6  5  1  0
  7  6  1  0
  7  8  2  0
  8  4  1  0
  9  2  1  0
 10  9  2  0
 12 11  1  0
 12 14  1  0
 13 12  2  0
 15 14  1  0
 16 17  1  0
 16 15  1  6
 17  9  1  0
 18 16  1  0
 19 18  2  0
 20 18  1  0
 21 20  1  0
 22 23  1  0
 21 22  1  1
 23 24  2  0
 24 25  1  0
 26 27  2  0
 26 25  1  0
 28 27  1  0
 29 28  2  0
 30 29  1  0
 30 31  2  0
 31 23  1  0
 31 26  1  0
 32 21  1  0
 32 34  1  0
 33 32  2  0
M  END
$$$$
