HQW.pdb
     RDKit          3D

 34 36  0  0  1  0  0  0  0  0999 V2000
   24.4394  -18.9620  -15.7951 N   0  0  0  0  0  0  0  0  0  0  0  0
   23.8830  -18.6135  -14.5228 C   0  0  1  0  0  0  0  0  0  0  0  0
   22.4110  -18.3447  -14.5509 C   0  0  0  0  0  0  0  0  0  0  0  0
   22.0162  -17.2803  -15.4853 C   0  0  0  0  0  0  0  0  0  0  0  0
   21.3714  -17.3315  -16.7009 C   0  0  0  0  0  0  0  0  0  0  0  0
   21.2183  -16.1046  -17.2046 N   0  0  0  0  0  0  0  0  0  0  0  0
   21.7739  -15.2673  -16.2949 C   0  0  0  0  0  0  0  0  0  0  0  0
   22.2503  -15.9733  -15.2676 N   0  0  0  0  0  0  0  0  0  0  0  0
   24.1017  -19.7796  -13.6010 C   0  0  0  0  0  0  0  0  0  0  0  0
   23.1781  -20.6147  -13.3601 O   0  0  0  0  0  0  0  0  0  0  0  0
   26.4725  -22.1401  -15.5463 N   0  0  0  0  0  0  0  0  0  0  0  0
   27.6694  -21.7445  -14.8826 C   0  0  0  0  0  0  0  0  0  0  0  0
   28.7227  -21.4994  -15.5039 O   0  0  0  0  0  0  0  0  0  0  0  0
   27.6386  -21.6248  -13.3785 C   0  0  0  0  0  0  0  0  0  0  0  0
   26.3081  -22.1178  -12.9146 C   0  0  0  0  0  0  0  0  0  0  0  0
   25.5645  -21.0970  -12.0709 C   0  0  2  0  0  0  0  0  0  0  0  0
   25.3564  -19.9568  -12.9877 N   0  0  0  0  0  0  0  0  0  0  0  0
   26.2612  -20.6739  -10.8671 C   0  0  0  0  0  0  0  0  0  0  0  0
   26.8671  -19.5634  -10.8826 O   0  0  0  0  0  0  0  0  0  0  0  0
   26.2704  -21.4562   -9.7108 N   0  0  0  0  0  0  0  0  0  0  0  0
   26.0023  -21.0045   -8.3661 C   0  0  1  0  0  0  0  0  0  0  0  0
   26.1587  -19.5154   -8.3248 C   0  0  0  0  0  0  0  0  0  0  0  0
   27.3469  -19.0875   -7.5452 C   0  0  0  0  0  0  0  0  0  0  0  0
   28.1857  -18.0141   -7.7396 C   0  0  0  0  0  0  0  0  0  0  0  0
   29.1150  -18.0255   -6.7967 N   0  0  0  0  0  0  0  0  0  0  0  0
   28.9590  -19.0486   -5.9661 C   0  0  0  0  0  0  0  0  0  0  0  0
   29.6711  -19.4564   -4.8588 C   0  0  0  0  0  0  0  0  0  0  0  0
   29.2795  -20.5946   -4.1534 C   0  0  0  0  0  0  0  0  0  0  0  0
   28.1794  -21.2750   -4.6001 C   0  0  0  0  0  0  0  0  0  0  0  0
   27.4830  -20.8578   -5.7008 C   0  0  0  0  0  0  0  0  0  0  0  0
   27.8445  -19.7380   -6.4187 C   0  0  0  0  0  0  0  0  0  0  0  0
   24.6806  -21.4670   -7.8463 C   0  0  0  0  0  0  0  0  0  0  0  0
   23.6978  -21.4737   -8.6020 O   0  0  0  0  0  0  0  0  0  0  0  0
   24.5049  -21.8901   -6.5518 O   0  0  0  0  0  0  0  0  0  0  0  0
  2  1  1  6
  3  2  1  0
  4  3  1  0
  5  4  2  0
  6  5  1  0
  7  6  1  0
  7  8  2  0
  8  4  1  0
  9  2  1  0
 10  9  2  0
 12 11  1  0
 12 14  1  0
 13 12  2  0
 15 14  1  0
 16 17  1  0
 16 15  1  6
 17  9  1  0
 18 16  1  0
 19 18  2  0
 20 18  1  0
 21 20  1  0
 22 23  1  0
 21 22  1  6
 23 24  2  0
 24 25  1  0
 26 27  2  0
 26 25  1  0
 28 27  1  0
 29 28  2  0
 30 29  1  0
 30 31  2  0
 31 23  1  0
 31 26  1  0
 32 21  1  0
 32 34  1  0
 33 32  2  0
M  END
$$$$
