HQW.pdb
     RDKit          3D

 34 36  0  0  1  0  0  0  0  0999 V2000
   29.9008  -25.1758  -18.7564 N   0  0  0  0  0  0  0  0  0  0  0  0
   29.6819  -24.5176  -17.5040 C   0  0  1  0  0  0  0  0  0  0  0  0
   30.9258  -23.9796  -16.8691 C   0  0  0  0  0  0  0  0  0  0  0  0
   31.8487  -25.0190  -16.3894 C   0  0  0  0  0  0  0  0  0  0  0  0
   31.7782  -26.3930  -16.4457 C   0  0  0  0  0  0  0  0  0  0  0  0
   32.8539  -26.9432  -15.8776 N   0  0  0  0  0  0  0  0  0  0  0  0
   33.6140  -25.9026  -15.4570 C   0  0  0  0  0  0  0  0  0  0  0  0
   33.0103  -24.7530  -15.7646 N   0  0  0  0  0  0  0  0  0  0  0  0
   28.7761  -23.3471  -17.7626 C   0  0  0  0  0  0  0  0  0  0  0  0
   28.9755  -22.5587  -18.7359 O   0  0  0  0  0  0  0  0  0  0  0  0
   26.9989  -20.7557  -20.4046 N   0  0  0  0  0  0  0  0  0  0  0  0
   25.6220  -20.6003  -20.0739 C   0  0  0  0  0  0  0  0  0  0  0  0
   24.8925  -19.7654  -20.6451 O   0  0  0  0  0  0  0  0  0  0  0  0
   25.0489  -21.4853  -18.9941 C   0  0  0  0  0  0  0  0  0  0  0  0
   26.1304  -22.4144  -18.5520 C   0  0  0  0  0  0  0  0  0  0  0  0
   26.7394  -22.0157  -17.2190 C   0  0  2  0  0  0  0  0  0  0  0  0
   27.6797  -23.1134  -16.9112 N   0  0  0  0  0  0  0  0  0  0  0  0
   25.7831  -21.8341  -16.1391 C   0  0  0  0  0  0  0  0  0  0  0  0
   25.0995  -22.8318  -15.7680 O   0  0  0  0  0  0  0  0  0  0  0  0
   25.6108  -20.5992  -15.5109 N   0  0  0  0  0  0  0  0  0  0  0  0
   24.7439  -20.3189  -14.3910 C   0  0  1  0  0  0  0  0  0  0  0  0
   24.8599  -18.8644  -14.0525 C   0  0  0  0  0  0  0  0  0  0  0  0
   24.4386  -17.9829  -15.1696 C   0  0  0  0  0  0  0  0  0  0  0  0
   23.1905  -17.4934  -15.4802 C   0  0  0  0  0  0  0  0  0  0  0  0
   23.2868  -16.7451  -16.5681 N   0  0  0  0  0  0  0  0  0  0  0  0
   24.5333  -16.6949  -17.0206 C   0  0  0  0  0  0  0  0  0  0  0  0
   25.0985  -16.0532  -18.1014 C   0  0  0  0  0  0  0  0  0  0  0  0
   26.4659  -16.1725  -18.3512 C   0  0  0  0  0  0  0  0  0  0  0  0
   27.2068  -16.9392  -17.4932 C   0  0  0  0  0  0  0  0  0  0  0  0
   26.6312  -17.5699  -16.4248 C   0  0  0  0  0  0  0  0  0  0  0  0
   25.2838  -17.4717  -16.1514 C   0  0  0  0  0  0  0  0  0  0  0  0
   23.3335  -20.7540  -14.6200 C   0  0  0  0  0  0  0  0  0  0  0  0
   22.9545  -21.0086  -15.7726 O   0  0  0  0  0  0  0  0  0  0  0  0
   22.4275  -20.8856  -13.5966 O   0  0  0  0  0  0  0  0  0  0  0  0
  2  1  1  6
  3  2  1  0
  4  3  1  0
  5  4  2  0
  6  5  1  0
  7  6  1  0
  7  8  2  0
  8  4  1  0
  9  2  1  0
 10  9  2  0
 12 11  1  0
 12 14  1  0
 13 12  2  0
 15 14  1  0
 16 17  1  0
 16 15  1  6
 17  9  1  0
 18 16  1  0
 19 18  2  0
 20 18  1  0
 21 20  1  0
 22 23  1  0
 21 22  1  6
 23 24  2  0
 24 25  1  0
 26 27  2  0
 26 25  1  0
 28 27  1  0
 29 28  2  0
 30 29  1  0
 30 31  2  0
 31 23  1  0
 31 26  1  0
 32 21  1  0
 32 34  1  0
 33 32  2  0
M  END
$$$$
