HQW.pdb
     RDKit          3D

 34 36  0  0  1  0  0  0  0  0999 V2000
   28.4823  -25.9893  -17.0270 N   0  0  0  0  0  0  0  0  0  0  0  0
   27.2102  -25.3439  -17.1499 C   0  0  1  0  0  0  0  0  0  0  0  0
   26.0516  -26.1863  -16.7162 C   0  0  0  0  0  0  0  0  0  0  0  0
   25.7505  -27.3013  -17.6262 C   0  0  0  0  0  0  0  0  0  0  0  0
   25.7069  -28.6610  -17.4138 C   0  0  0  0  0  0  0  0  0  0  0  0
   25.3862  -29.3033  -18.5394 N   0  0  0  0  0  0  0  0  0  0  0  0
   25.2250  -28.3361  -19.4754 C   0  0  0  0  0  0  0  0  0  0  0  0
   25.4434  -27.1397  -18.9262 N   0  0  0  0  0  0  0  0  0  0  0  0
   27.2323  -24.1322  -16.2619 C   0  0  0  0  0  0  0  0  0  0  0  0
   27.7800  -24.1600  -15.1183 O   0  0  0  0  0  0  0  0  0  0  0  0
   27.9623  -18.3305  -14.2661 N   0  0  0  0  0  0  0  0  0  0  0  0
   27.9454  -18.8987  -15.5723 C   0  0  0  0  0  0  0  0  0  0  0  0
   28.9917  -19.1108  -16.2173 O   0  0  0  0  0  0  0  0  0  0  0  0
   26.6067  -19.2473  -16.1757 C   0  0  0  0  0  0  0  0  0  0  0  0
   26.7432  -20.5795  -16.8352 C   0  0  0  0  0  0  0  0  0  0  0  0
   26.7008  -21.7319  -15.8467 C   0  0  2  0  0  0  0  0  0  0  0  0
   26.6349  -22.9357  -16.7014 N   0  0  0  0  0  0  0  0  0  0  0  0
   25.5866  -21.6970  -14.9135 C   0  0  0  0  0  0  0  0  0  0  0  0
   24.4150  -21.8318  -15.3715 O   0  0  0  0  0  0  0  0  0  0  0  0
   25.7827  -21.5245  -13.5420 N   0  0  0  0  0  0  0  0  0  0  0  0
   24.7682  -21.5767  -12.5161 C   0  0  1  0  0  0  0  0  0  0  0  0
   25.3306  -22.2939  -11.3275 C   0  0  0  0  0  0  0  0  0  0  0  0
   26.0850  -21.3927  -10.4212 C   0  0  0  0  0  0  0  0  0  0  0  0
   25.6242  -20.4072   -9.5784 C   0  0  0  0  0  0  0  0  0  0  0  0
   26.6590  -19.8586   -8.9613 N   0  0  0  0  0  0  0  0  0  0  0  0
   27.8046  -20.4143   -9.3351 C   0  0  0  0  0  0  0  0  0  0  0  0
   29.1110  -20.1744   -8.9674 C   0  0  0  0  0  0  0  0  0  0  0  0
   30.1461  -20.9226   -9.5289 C   0  0  0  0  0  0  0  0  0  0  0  0
   29.8143  -21.8860  -10.4424 C   0  0  0  0  0  0  0  0  0  0  0  0
   28.5129  -22.1122  -10.7970 C   0  0  0  0  0  0  0  0  0  0  0  0
   27.4684  -21.3903  -10.2606 C   0  0  0  0  0  0  0  0  0  0  0  0
   24.2100  -20.2335  -12.1767 C   0  0  0  0  0  0  0  0  0  0  0  0
   24.8508  -19.2149  -12.4749 O   0  0  0  0  0  0  0  0  0  0  0  0
   23.0032  -20.0762  -11.5409 O   0  0  0  0  0  0  0  0  0  0  0  0
  2  1  1  1
  3  2  1  0
  4  3  1  0
  5  4  2  0
  6  5  1  0
  7  6  1  0
  7  8  2  0
  8  4  1  0
  9  2  1  0
 10  9  2  0
 12 11  1  0
 12 14  1  0
 13 12  2  0
 15 14  1  0
 16 17  1  0
 16 15  1  6
 17  9  1  0
 18 16  1  0
 19 18  2  0
 20 18  1  0
 21 20  1  0
 22 23  1  0
 21 22  1  1
 23 24  2  0
 24 25  1  0
 26 27  2  0
 26 25  1  0
 28 27  1  0
 29 28  2  0
 30 29  1  0
 30 31  2  0
 31 23  1  0
 31 26  1  0
 32 21  1  0
 32 34  1  0
 33 32  2  0
M  END
$$$$
