HQW.pdb
     RDKit          3D

 34 36  0  0  1  0  0  0  0  0999 V2000
   26.7115  -34.3239  -16.3170 N   0  0  0  0  0  0  0  0  0  0  0  0
   27.4939  -34.2468  -15.1205 C   0  0  1  0  0  0  0  0  0  0  0  0
   27.9340  -32.8614  -14.7646 C   0  0  0  0  0  0  0  0  0  0  0  0
   28.9301  -32.2961  -15.6867 C   0  0  0  0  0  0  0  0  0  0  0  0
   28.8794  -31.1996  -16.5182 C   0  0  0  0  0  0  0  0  0  0  0  0
   30.0289  -31.0592  -17.1827 N   0  0  0  0  0  0  0  0  0  0  0  0
   30.8161  -32.0806  -16.7651 C   0  0  0  0  0  0  0  0  0  0  0  0
   30.1563  -32.8187  -15.8704 N   0  0  0  0  0  0  0  0  0  0  0  0
   26.6377  -34.7425  -13.9898 C   0  0  0  0  0  0  0  0  0  0  0  0
   25.4182  -34.4091  -13.8881 O   0  0  0  0  0  0  0  0  0  0  0  0
   24.2786  -38.6796  -11.1155 N   0  0  0  0  0  0  0  0  0  0  0  0
   24.4315  -38.7762  -12.5286 C   0  0  0  0  0  0  0  0  0  0  0  0
   23.5542  -39.2801  -13.2581 O   0  0  0  0  0  0  0  0  0  0  0  0
   25.7046  -38.2453  -13.1410 C   0  0  0  0  0  0  0  0  0  0  0  0
   26.5134  -37.6381  -12.0430 C   0  0  0  0  0  0  0  0  0  0  0  0
   26.3329  -36.1334  -11.9431 C   0  0  2  0  0  0  0  0  0  0  0  0
   27.1931  -35.5964  -13.0181 N   0  0  0  0  0  0  0  0  0  0  0  0
   26.6909  -35.5582  -10.6568 C   0  0  0  0  0  0  0  0  0  0  0  0
   27.9101  -35.3099  -10.4282 O   0  0  0  0  0  0  0  0  0  0  0  0
   25.7286  -35.2752   -9.6857 N   0  0  0  0  0  0  0  0  0  0  0  0
   25.9769  -34.9131   -8.3103 C   0  0  1  0  0  0  0  0  0  0  0  0
   25.3419  -33.5823   -8.0471 C   0  0  0  0  0  0  0  0  0  0  0  0
   25.1629  -33.3117   -6.5988 C   0  0  0  0  0  0  0  0  0  0  0  0
   24.0084  -33.1001   -5.8804 C   0  0  0  0  0  0  0  0  0  0  0  0
   24.3290  -32.8972   -4.6120 N   0  0  0  0  0  0  0  0  0  0  0  0
   25.6409  -32.9583   -4.4215 C   0  0  0  0  0  0  0  0  0  0  0  0
   26.4181  -32.8134   -3.2926 C   0  0  0  0  0  0  0  0  0  0  0  0
   27.8059  -32.9289   -3.3773 C   0  0  0  0  0  0  0  0  0  0  0  0
   28.3509  -33.1875   -4.6057 C   0  0  0  0  0  0  0  0  0  0  0  0
   27.5662  -33.3287   -5.7169 C   0  0  0  0  0  0  0  0  0  0  0  0
   26.1930  -33.2201   -5.6660 C   0  0  0  0  0  0  0  0  0  0  0  0
   25.5480  -35.9661   -7.3417 C   0  0  0  0  0  0  0  0  0  0  0  0
   26.3323  -36.3327   -6.4542 O   0  0  0  0  0  0  0  0  0  0  0  0
   24.3076  -36.5529   -7.3924 O   0  0  0  0  0  0  0  0  0  0  0  0
  2  1  1  6
  3  2  1  0
  4  3  1  0
  5  4  2  0
  6  5  1  0
  7  6  1  0
  7  8  2  0
  8  4  1  0
  9  2  1  0
 10  9  2  0
 12 11  1  0
 12 14  1  0
 13 12  2  0
 15 14  1  0
 16 17  1  0
 16 15  1  1
 17  9  1  0
 18 16  1  0
 19 18  2  0
 20 18  1  0
 21 20  1  0
 22 23  1  0
 21 22  1  1
 23 24  2  0
 24 25  1  0
 26 27  2  0
 26 25  1  0
 28 27  1  0
 29 28  2  0
 30 29  1  0
 30 31  2  0
 31 23  1  0
 31 26  1  0
 32 21  1  0
 32 34  1  0
 33 32  2  0
M  END
$$$$
