HQW.pdb
     RDKit          3D

 34 36  0  0  1  0  0  0  0  0999 V2000
   23.3690   -9.9661  -20.0243 N   0  0  0  0  0  0  0  0  0  0  0  0
   22.0520   -9.6657  -19.5499 C   0  0  1  0  0  0  0  0  0  0  0  0
   21.5829  -10.5545  -18.4409 C   0  0  0  0  0  0  0  0  0  0  0  0
   21.3963  -11.9577  -18.8387 C   0  0  0  0  0  0  0  0  0  0  0  0
   22.1596  -13.0787  -18.6008 C   0  0  0  0  0  0  0  0  0  0  0  0
   21.6013  -14.1555  -19.1589 N   0  0  0  0  0  0  0  0  0  0  0  0
   20.4701  -13.7084  -19.7572 C   0  0  0  0  0  0  0  0  0  0  0  0
   20.3501  -12.3935  -19.5640 N   0  0  0  0  0  0  0  0  0  0  0  0
   22.0762   -8.2631  -19.0119 C   0  0  0  0  0  0  0  0  0  0  0  0
   23.0404   -7.8429  -18.3033 O   0  0  0  0  0  0  0  0  0  0  0  0
   18.2063   -4.0862  -21.1451 N   0  0  0  0  0  0  0  0  0  0  0  0
   18.9508   -3.2032  -20.3112 C   0  0  0  0  0  0  0  0  0  0  0  0
   18.7504   -1.9722  -20.3022 O   0  0  0  0  0  0  0  0  0  0  0  0
   20.0115   -3.7987  -19.4179 C   0  0  0  0  0  0  0  0  0  0  0  0
   20.0243   -5.2725  -19.6548 C   0  0  0  0  0  0  0  0  0  0  0  0
   21.0618   -5.9943  -18.8125 C   0  0  2  0  0  0  0  0  0  0  0  0
   21.0095   -7.3896  -19.2964 N   0  0  0  0  0  0  0  0  0  0  0  0
   20.8345   -5.9344  -17.3778 C   0  0  0  0  0  0  0  0  0  0  0  0
   19.9876   -6.7252  -16.8702 O   0  0  0  0  0  0  0  0  0  0  0  0
   21.5260   -5.0371  -16.5618 N   0  0  0  0  0  0  0  0  0  0  0  0
   21.3849   -4.8919  -15.1323 C   0  0  1  0  0  0  0  0  0  0  0  0
   22.7071   -5.1837  -14.4920 C   0  0  0  0  0  0  0  0  0  0  0  0
   23.0450   -6.6288  -14.5129 C   0  0  0  0  0  0  0  0  0  0  0  0
   23.9602   -7.3063  -15.2857 C   0  0  0  0  0  0  0  0  0  0  0  0
   23.9208   -8.5896  -14.9629 N   0  0  0  0  0  0  0  0  0  0  0  0
   23.0282   -8.8291  -14.0106 C   0  0  0  0  0  0  0  0  0  0  0  0
   22.6480   -9.9895  -13.3716 C   0  0  0  0  0  0  0  0  0  0  0  0
   21.6617   -9.9559  -12.3853 C   0  0  0  0  0  0  0  0  0  0  0  0
   21.0996   -8.7447  -12.0860 C   0  0  0  0  0  0  0  0  0  0  0  0
   21.4877   -7.6017  -12.7291 C   0  0  0  0  0  0  0  0  0  0  0  0
   22.4586   -7.6019  -13.7074 C   0  0  0  0  0  0  0  0  0  0  0  0
   20.8222   -3.5676  -14.7317 C   0  0  0  0  0  0  0  0  0  0  0  0
   20.8122   -2.6373  -15.5512 O   0  0  0  0  0  0  0  0  0  0  0  0
   20.3094   -3.3330  -13.4797 O   0  0  0  0  0  0  0  0  0  0  0  0
  2  1  1  1
  3  2  1  0
  4  3  1  0
  5  4  2  0
  6  5  1  0
  7  6  1  0
  7  8  2  0
  8  4  1  0
  9  2  1  0
 10  9  2  0
 12 11  1  0
 12 14  1  0
 13 12  2  0
 15 14  1  0
 16 17  1  0
 16 15  1  6
 17  9  1  0
 18 16  1  0
 19 18  2  0
 20 18  1  0
 21 20  1  0
 22 23  1  0
 21 22  1  1
 23 24  2  0
 24 25  1  0
 26 27  2  0
 26 25  1  0
 28 27  1  0
 29 28  2  0
 30 29  1  0
 30 31  2  0
 31 23  1  0
 31 26  1  0
 32 21  1  0
 32 34  1  0
 33 32  2  0
M  END
$$$$
