GMF.pdb
     RDKit          3D

 24 24  0  0  1  0  0  0  0  0999 V2000
    8.5440  -19.5553   19.1239 N   0  0  0  0  0  0  0  0  0  0  0  0
    7.6772  -18.9446   20.1098 C   0  0  0  0  0  0  0  0  0  0  0  0
    8.3040  -17.6866   20.6461 C   0  0  0  0  0  0  0  0  0  0  0  0
    9.5462  -17.5418   20.7275 O   0  0  0  0  0  0  0  0  0  0  0  0
    8.0478  -11.5778   20.6238 C   0  0  0  0  0  0  0  0  0  0  0  0
    7.9952  -12.8453   19.3291 S   0  0  0  0  0  0  0  0  0  0  0  0
    6.8321  -14.1398   19.9177 C   0  0  0  0  0  0  0  0  0  0  0  0
    7.0661  -14.3043   21.3823 C   0  0  0  0  0  0  0  0  0  0  0  0
    7.9841  -15.4314   21.7424 C   0  0  2  0  0  0  0  0  0  0  0  0
    7.4891  -16.6231   21.0772 N   0  0  0  0  0  0  0  0  0  0  0  0
    8.0791  -15.6811   23.2033 C   0  0  0  0  0  0  0  0  0  0  0  0
    7.2343  -16.3617   23.8332 O   0  0  0  0  0  0  0  0  0  0  0  0
    9.1595  -15.1398   23.9463 N   0  0  0  0  0  0  0  0  0  0  0  0
    9.2595  -15.4525   25.3616 C   0  0  1  0  0  0  0  0  0  0  0  0
    7.8462  -15.3988   25.9193 C   0  0  0  0  0  0  0  0  0  0  0  0
    7.3749  -14.0182   26.1742 C   0  0  0  0  0  0  0  0  0  0  0  0
    8.2940  -13.0192   26.4059 C   0  0  0  0  0  0  0  0  0  0  0  0
    7.9322  -11.7055   26.6458 C   0  0  0  0  0  0  0  0  0  0  0  0
    6.5799  -11.3994   26.6494 C   0  0  0  0  0  0  0  0  0  0  0  0
    5.6546  -12.3878   26.4195 C   0  0  0  0  0  0  0  0  0  0  0  0
    6.0303  -13.7137   26.1777 C   0  0  0  0  0  0  0  0  0  0  0  0
    9.9254  -16.7419   25.6000 C   0  0  0  0  0  0  0  0  0  0  0  0
   10.2309  -17.1451   26.7728 O   0  0  0  0  0  0  0  0  0  0  0  0
   10.2618  -17.5996   24.5658 O   0  0  0  0  0  0  0  0  0  0  0  0
  2  3  1  0
  2  1  1  0
  3 10  1  0
  4  3  2  0
  6  7  1  0
  6  5  1  0
  7  8  1  0
  9  8  1  1
  9 11  1  0
 10  9  1  0
 11 13  1  0
 11 12  2  0
 13 14  1  0
 14 15  1  6
 14 22  1  0
 16 21  2  0
 16 15  1  0
 17 16  1  0
 18 19  1  0
 18 17  2  0
 19 20  2  0
 20 21  1  0
 22 24  1  0
 23 22  2  0
M  END
$$$$
