GMF.pdb
     RDKit          3D

 24 24  0  0  1  0  0  0  0  0999 V2000
    5.3789  -19.9687   22.2421 N   0  0  0  0  0  0  0  0  0  0  0  0
    5.3385  -18.8327   23.1389 C   0  0  0  0  0  0  0  0  0  0  0  0
    6.4300  -17.8571   22.7927 C   0  0  0  0  0  0  0  0  0  0  0  0
    7.6344  -18.1976   22.7293 O   0  0  0  0  0  0  0  0  0  0  0  0
    8.9459  -12.0414   19.2566 C   0  0  0  0  0  0  0  0  0  0  0  0
    7.9937  -13.5076   19.7354 S   0  0  0  0  0  0  0  0  0  0  0  0
    7.2648  -13.1381   21.3807 C   0  0  0  0  0  0  0  0  0  0  0  0
    6.3808  -14.2870   21.7351 C   0  0  0  0  0  0  0  0  0  0  0  0
    7.0973  -15.4654   22.3190 C   0  0  2  0  0  0  0  0  0  0  0  0
    6.1127  -16.5118   22.5271 N   0  0  0  0  0  0  0  0  0  0  0  0
    7.7869  -15.1702   23.6008 C   0  0  0  0  0  0  0  0  0  0  0  0
    7.5140  -14.1685   24.3048 O   0  0  0  0  0  0  0  0  0  0  0  0
    8.8027  -16.0390   24.0758 N   0  0  0  0  0  0  0  0  0  0  0  0
    9.4404  -15.7386   25.3463 C   0  0  1  0  0  0  0  0  0  0  0  0
    8.3319  -15.6769   26.3849 C   0  0  0  0  0  0  0  0  0  0  0  0
    7.7310  -14.3295   26.5131 C   0  0  0  0  0  0  0  0  0  0  0  0
    8.5475  -13.2382   26.7105 C   0  0  0  0  0  0  0  0  0  0  0  0
    8.0621  -11.9484   26.8339 C   0  0  0  0  0  0  0  0  0  0  0  0
    6.6902  -11.7653   26.7527 C   0  0  0  0  0  0  0  0  0  0  0  0
    5.8665  -12.8464   26.5560 C   0  0  0  0  0  0  0  0  0  0  0  0
    6.3669  -14.1471   26.4324 C   0  0  0  0  0  0  0  0  0  0  0  0
   10.4932  -16.7088   25.6827 C   0  0  0  0  0  0  0  0  0  0  0  0
   10.4639  -17.9173   25.2703 O   0  0  0  0  0  0  0  0  0  0  0  0
   11.5830  -16.3707   26.4678 O   0  0  0  0  0  0  0  0  0  0  0  0
  2  3  1  0
  2  1  1  0
  3 10  1  0
  4  3  2  0
  6  7  1  0
  6  5  1  0
  7  8  1  0
  9  8  1  1
  9 11  1  0
 10  9  1  0
 11 13  1  0
 11 12  2  0
 13 14  1  0
 14 15  1  1
 14 22  1  0
 16 21  2  0
 16 15  1  0
 17 16  1  0
 18 19  1  0
 18 17  2  0
 19 20  2  0
 20 21  1  0
 22 24  1  0
 23 22  2  0
M  END
$$$$
