GMF.pdb
     RDKit          3D

 24 24  0  0  1  0  0  0  0  0999 V2000
    5.3485  -19.8290   21.9595 N   0  0  0  0  0  0  0  0  0  0  0  0
    5.3597  -18.4721   22.4644 C   0  0  0  0  0  0  0  0  0  0  0  0
    6.7081  -17.8442   22.2398 C   0  0  0  0  0  0  0  0  0  0  0  0
    7.6889  -18.5013   21.8191 O   0  0  0  0  0  0  0  0  0  0  0  0
    8.3695  -11.9217   20.5769 C   0  0  0  0  0  0  0  0  0  0  0  0
    6.9695  -12.8150   19.8505 S   0  0  0  0  0  0  0  0  0  0  0  0
    7.0051  -14.5060   20.5676 C   0  0  0  0  0  0  0  0  0  0  0  0
    7.9100  -14.4589   21.7534 C   0  0  0  0  0  0  0  0  0  0  0  0
    8.1740  -15.7900   22.3869 C   0  0  2  0  0  0  0  0  0  0  0  0
    6.8993  -16.4750   22.5037 N   0  0  0  0  0  0  0  0  0  0  0  0
    8.8134  -15.6988   23.7243 C   0  0  0  0  0  0  0  0  0  0  0  0
    9.8807  -15.0714   23.9263 O   0  0  0  0  0  0  0  0  0  0  0  0
    8.2159  -16.3382   24.8408 N   0  0  0  0  0  0  0  0  0  0  0  0
    8.9078  -16.3032   26.1179 C   0  0  1  0  0  0  0  0  0  0  0  0
    7.9384  -15.6982   27.1207 C   0  0  0  0  0  0  0  0  0  0  0  0
    7.6778  -14.2602   26.8811 C   0  0  0  0  0  0  0  0  0  0  0  0
    6.4421  -13.8616   26.4220 C   0  0  0  0  0  0  0  0  0  0  0  0
    6.1209  -12.5378   26.1801 C   0  0  0  0  0  0  0  0  0  0  0  0
    7.0988  -11.5836   26.4159 C   0  0  0  0  0  0  0  0  0  0  0  0
    8.3346  -11.9697   26.8737 C   0  0  0  0  0  0  0  0  0  0  0  0
    8.6500  -13.3113   27.1155 C   0  0  0  0  0  0  0  0  0  0  0  0
    9.4004  -17.6295   26.5194 C   0  0  0  0  0  0  0  0  0  0  0  0
    9.1570  -18.6822   25.8385 O   0  0  0  0  0  0  0  0  0  0  0  0
   10.1604  -17.8181   27.6620 O   0  0  0  0  0  0  0  0  0  0  0  0
  2  3  1  0
  2  1  1  0
  3 10  1  0
  4  3  2  0
  6  7  1  0
  6  5  1  0
  7  8  1  0
  9  8  1  1
  9 11  1  0
 10  9  1  0
 11 13  1  0
 11 12  2  0
 13 14  1  0
 14 15  1  1
 14 22  1  0
 16 21  2  0
 16 15  1  0
 17 16  1  0
 18 19  1  0
 18 17  2  0
 19 20  2  0
 20 21  1  0
 22 24  1  0
 23 22  2  0
M  END
$$$$
