GMF.pdb
     RDKit          3D

 24 24  0  0  1  0  0  0  0  0999 V2000
    6.9707  -18.5128   20.4135 N   0  0  0  0  0  0  0  0  0  0  0  0
    6.7177  -17.8800   21.6909 C   0  0  0  0  0  0  0  0  0  0  0  0
    7.6113  -16.6823   21.8646 C   0  0  0  0  0  0  0  0  0  0  0  0
    8.5845  -16.4599   21.1069 O   0  0  0  0  0  0  0  0  0  0  0  0
    6.4677  -12.8567   26.8146 C   0  0  0  0  0  0  0  0  0  0  0  0
    7.0770  -11.5751   25.6867 S   0  0  0  0  0  0  0  0  0  0  0  0
    8.1151  -12.4342   24.4381 C   0  0  0  0  0  0  0  0  0  0  0  0
    7.4359  -13.7238   24.1176 C   0  0  0  0  0  0  0  0  0  0  0  0
    8.2092  -14.6231   23.2033 C   0  0  2  0  0  0  0  0  0  0  0  0
    7.3664  -15.7669   22.9053 N   0  0  0  0  0  0  0  0  0  0  0  0
    9.4977  -15.0909   23.7749 C   0  0  0  0  0  0  0  0  0  0  0  0
   10.5486  -14.4073   23.7323 O   0  0  0  0  0  0  0  0  0  0  0  0
    9.5755  -16.3610   24.4020 N   0  0  0  0  0  0  0  0  0  0  0  0
   10.8044  -16.7283   25.0846 C   0  0  1  0  0  0  0  0  0  0  0  0
   10.4124  -17.1357   26.4958 C   0  0  0  0  0  0  0  0  0  0  0  0
   10.1864  -15.9788   27.3922 C   0  0  0  0  0  0  0  0  0  0  0  0
   11.0090  -15.7929   28.4810 C   0  0  0  0  0  0  0  0  0  0  0  0
   10.8651  -14.7343   29.3602 C   0  0  0  0  0  0  0  0  0  0  0  0
    9.8419  -13.8302   29.1189 C   0  0  0  0  0  0  0  0  0  0  0  0
    9.0157  -14.0058   28.0361 C   0  0  0  0  0  0  0  0  0  0  0  0
    9.1692  -15.0797   27.1525 C   0  0  0  0  0  0  0  0  0  0  0  0
   11.5470  -17.7754   24.3669 C   0  0  0  0  0  0  0  0  0  0  0  0
   12.7041  -18.1676   24.7389 O   0  0  0  0  0  0  0  0  0  0  0  0
   11.0357  -18.4018   23.2423 O   0  0  0  0  0  0  0  0  0  0  0  0
  2  3  1  0
  2  1  1  0
  3 10  1  0
  4  3  2  0
  6  7  1  0
  6  5  1  0
  7  8  1  0
  9  8  1  1
  9 11  1  0
 10  9  1  0
 11 13  1  0
 11 12  2  0
 13 14  1  0
 14 15  1  1
 14 22  1  0
 16 21  2  0
 16 15  1  0
 17 16  1  0
 18 19  1  0
 18 17  2  0
 19 20  2  0
 20 21  1  0
 22 24  1  0
 23 22  2  0
M  END
$$$$
