GMF.pdb
     RDKit          3D

 24 24  0  0  1  0  0  0  0  0999 V2000
    4.4624  -18.8857   21.3883 N   0  0  0  0  0  0  0  0  0  0  0  0
    4.8068  -18.0300   22.5044 C   0  0  0  0  0  0  0  0  0  0  0  0
    6.2094  -17.5093   22.3475 C   0  0  0  0  0  0  0  0  0  0  0  0
    7.2063  -18.2687   22.3370 O   0  0  0  0  0  0  0  0  0  0  0  0
    8.8130  -12.0404   19.6608 C   0  0  0  0  0  0  0  0  0  0  0  0
    7.3225  -12.8922   19.0790 S   0  0  0  0  0  0  0  0  0  0  0  0
    7.2891  -14.5193   19.9313 C   0  0  0  0  0  0  0  0  0  0  0  0
    7.6561  -14.2736   21.3568 C   0  0  0  0  0  0  0  0  0  0  0  0
    7.7490  -15.5100   22.1966 C   0  0  2  0  0  0  0  0  0  0  0  0
    6.4350  -16.1272   22.2064 N   0  0  0  0  0  0  0  0  0  0  0  0
    8.1874  -15.2528   23.5921 C   0  0  0  0  0  0  0  0  0  0  0  0
    7.9245  -14.1887   24.2022 O   0  0  0  0  0  0  0  0  0  0  0  0
    8.9374  -16.2328   24.2917 N   0  0  0  0  0  0  0  0  0  0  0  0
    9.3290  -15.9635   25.6647 C   0  0  1  0  0  0  0  0  0  0  0  0
    8.0434  -15.7822   26.4556 C   0  0  0  0  0  0  0  0  0  0  0  0
    7.5979  -14.3715   26.5237 C   0  0  0  0  0  0  0  0  0  0  0  0
    6.2764  -14.0649   26.2869 C   0  0  0  0  0  0  0  0  0  0  0  0
    5.7834  -12.7731   26.3377 C   0  0  0  0  0  0  0  0  0  0  0  0
    6.6736  -11.7547   26.6421 C   0  0  0  0  0  0  0  0  0  0  0  0
    7.9937  -12.0490   26.8801 C   0  0  0  0  0  0  0  0  0  0  0  0
    8.4829  -13.3588   26.8264 C   0  0  0  0  0  0  0  0  0  0  0  0
   10.1991  -17.0159   26.2109 C   0  0  0  0  0  0  0  0  0  0  0  0
   10.3541  -18.1425   25.6295 O   0  0  0  0  0  0  0  0  0  0  0  0
   10.9054  -16.8490   27.3906 O   0  0  0  0  0  0  0  0  0  0  0  0
  2  3  1  0
  2  1  1  0
  3 10  1  0
  4  3  2  0
  6  7  1  0
  6  5  1  0
  7  8  1  0
  9  8  1  6
  9 11  1  0
 10  9  1  0
 11 13  1  0
 11 12  2  0
 13 14  1  0
 14 15  1  1
 14 22  1  0
 16 21  2  0
 16 15  1  0
 17 16  1  0
 18 19  1  0
 18 17  2  0
 19 20  2  0
 20 21  1  0
 22 24  1  0
 23 22  2  0
M  END
$$$$
