GMF.pdb
     RDKit          3D

 24 24  0  0  1  0  0  0  0  0999 V2000
    5.0086  -19.6361   21.9804 N   0  0  0  0  0  0  0  0  0  0  0  0
    4.8624  -18.2410   22.3392 C   0  0  0  0  0  0  0  0  0  0  0  0
    6.1491  -17.5022   22.0912 C   0  0  0  0  0  0  0  0  0  0  0  0
    7.2067  -18.0927   21.7696 O   0  0  0  0  0  0  0  0  0  0  0  0
    8.3928  -11.9036   19.4065 C   0  0  0  0  0  0  0  0  0  0  0  0
    8.1444  -13.6424   18.9584 S   0  0  0  0  0  0  0  0  0  0  0  0
    6.6852  -14.2206   19.9130 C   0  0  0  0  0  0  0  0  0  0  0  0
    7.0100  -14.0421   21.3586 C   0  0  0  0  0  0  0  0  0  0  0  0
    7.3949  -15.3028   22.0694 C   0  0  2  0  0  0  0  0  0  0  0  0
    6.1916  -16.1011   22.2184 N   0  0  0  0  0  0  0  0  0  0  0  0
    8.0074  -15.0736   23.4028 C   0  0  0  0  0  0  0  0  0  0  0  0
    7.6750  -14.1218   24.1492 O   0  0  0  0  0  0  0  0  0  0  0  0
    9.0143  -15.9511   23.8807 N   0  0  0  0  0  0  0  0  0  0  0  0
    9.5234  -15.7615   25.2283 C   0  0  1  0  0  0  0  0  0  0  0  0
    8.3299  -15.8739   26.1634 C   0  0  0  0  0  0  0  0  0  0  0  0
    7.6855  -14.5698   26.4413 C   0  0  0  0  0  0  0  0  0  0  0  0
    6.3205  -14.4452   26.3080 C   0  0  0  0  0  0  0  0  0  0  0  0
    5.6457  -13.2629   26.5549 C   0  0  0  0  0  0  0  0  0  0  0  0
    6.3929  -12.1650   26.9534 C   0  0  0  0  0  0  0  0  0  0  0  0
    7.7548  -12.2780   27.0895 C   0  0  0  0  0  0  0  0  0  0  0  0
    8.4283  -13.4782   26.8375 C   0  0  0  0  0  0  0  0  0  0  0  0
   10.6020  -16.7070   25.5529 C   0  0  0  0  0  0  0  0  0  0  0  0
   10.6178  -17.9033   25.1057 O   0  0  0  0  0  0  0  0  0  0  0  0
   11.6688  -16.3573   26.3642 O   0  0  0  0  0  0  0  0  0  0  0  0
  2  3  1  0
  2  1  1  0
  3 10  1  0
  4  3  2  0
  6  7  1  0
  6  5  1  0
  7  8  1  0
  9  8  1  1
  9 11  1  0
 10  9  1  0
 11 13  1  0
 11 12  2  0
 13 14  1  0
 14 15  1  1
 14 22  1  0
 16 21  2  0
 16 15  1  0
 17 16  1  0
 18 19  1  0
 18 17  2  0
 19 20  2  0
 20 21  1  0
 22 24  1  0
 23 22  2  0
M  END
$$$$
