GMF.pdb
     RDKit          3D

 24 24  0  0  1  0  0  0  0  0999 V2000
    4.2087  -18.9363   22.0840 N   0  0  0  0  0  0  0  0  0  0  0  0
    4.5819  -18.6651   23.4564 C   0  0  0  0  0  0  0  0  0  0  0  0
    5.4598  -17.4454   23.5258 C   0  0  0  0  0  0  0  0  0  0  0  0
    5.6661  -16.7138   22.5295 O   0  0  0  0  0  0  0  0  0  0  0  0
    7.4917  -11.5009   27.1313 C   0  0  0  0  0  0  0  0  0  0  0  0
    6.5503  -13.0046   26.7592 S   0  0  0  0  0  0  0  0  0  0  0  0
    7.7725  -14.3734   26.6723 C   0  0  0  0  0  0  0  0  0  0  0  0
    7.0133  -15.6174   26.3512 C   0  0  0  0  0  0  0  0  0  0  0  0
    6.9913  -15.9741   24.8968 C   0  0  2  0  0  0  0  0  0  0  0  0
    6.0811  -17.0940   24.7389 N   0  0  0  0  0  0  0  0  0  0  0  0
    8.3240  -16.3361   24.3503 C   0  0  0  0  0  0  0  0  0  0  0  0
    8.8459  -17.4638   24.5222 O   0  0  0  0  0  0  0  0  0  0  0  0
    9.0631  -15.3876   23.5977 N   0  0  0  0  0  0  0  0  0  0  0  0
   10.2012  -15.8473   22.8203 C   0  0  1  0  0  0  0  0  0  0  0  0
   10.5096  -14.7518   21.8123 C   0  0  0  0  0  0  0  0  0  0  0  0
    9.2988  -14.2148   21.1500 C   0  0  0  0  0  0  0  0  0  0  0  0
    8.5896  -15.0139   20.2810 C   0  0  0  0  0  0  0  0  0  0  0  0
    7.4466  -14.5864   19.6290 C   0  0  0  0  0  0  0  0  0  0  0  0
    7.0104  -13.2932   19.8734 C   0  0  0  0  0  0  0  0  0  0  0  0
    7.7098  -12.4876   20.7381 C   0  0  0  0  0  0  0  0  0  0  0  0
    8.8649  -12.9291   21.3928 C   0  0  0  0  0  0  0  0  0  0  0  0
   11.3518  -16.1908   23.6695 C   0  0  0  0  0  0  0  0  0  0  0  0
   11.3111  -16.0992   24.9427 O   0  0  0  0  0  0  0  0  0  0  0  0
   12.5514  -16.6363   23.1395 O   0  0  0  0  0  0  0  0  0  0  0  0
  2  3  1  0
  2  1  1  0
  3 10  1  0
  4  3  2  0
  6  7  1  0
  6  5  1  0
  7  8  1  0
  9  8  1  1
  9 11  1  0
 10  9  1  0
 11 13  1  0
 11 12  2  0
 13 14  1  0
 14 15  1  6
 14 22  1  0
 16 21  2  0
 16 15  1  0
 17 16  1  0
 18 19  1  0
 18 17  2  0
 19 20  2  0
 20 21  1  0
 22 24  1  0
 23 22  2  0
M  END
$$$$
