GMF.pdb
     RDKit          3D

 24 24  0  0  1  0  0  0  0  0999 V2000
    8.3545  -16.0816   19.5019 N   0  0  0  0  0  0  0  0  0  0  0  0
    9.7352  -15.8488   19.8705 C   0  0  0  0  0  0  0  0  0  0  0  0
    9.8354  -15.5275   21.3367 C   0  0  0  0  0  0  0  0  0  0  0  0
   10.8892  -15.0882   21.8535 O   0  0  0  0  0  0  0  0  0  0  0  0
    6.3335  -12.8301   26.3632 C   0  0  0  0  0  0  0  0  0  0  0  0
    7.3483  -12.8071   24.8614 S   0  0  0  0  0  0  0  0  0  0  0  0
    6.6266  -14.0605   23.7287 C   0  0  0  0  0  0  0  0  0  0  0  0
    7.2884  -15.3618   24.0382 C   0  0  0  0  0  0  0  0  0  0  0  0
    8.7187  -15.4506   23.6032 C   0  0  2  0  0  0  0  0  0  0  0  0
    8.7221  -15.7184   22.1764 N   0  0  0  0  0  0  0  0  0  0  0  0
    9.4932  -16.5036   24.3083 C   0  0  0  0  0  0  0  0  0  0  0  0
    9.4082  -17.7206   24.0163 O   0  0  0  0  0  0  0  0  0  0  0  0
   10.3748  -16.1497   25.3617 N   0  0  0  0  0  0  0  0  0  0  0  0
   11.1729  -17.1922   25.9840 C   0  0  1  0  0  0  0  0  0  0  0  0
   12.1764  -16.4912   26.8856 C   0  0  0  0  0  0  0  0  0  0  0  0
   11.5362  -15.6517   27.9241 C   0  0  0  0  0  0  0  0  0  0  0  0
   11.4663  -16.1113   29.2205 C   0  0  0  0  0  0  0  0  0  0  0  0
   10.8896  -15.3835   30.2462 C   0  0  0  0  0  0  0  0  0  0  0  0
   10.3639  -14.1384   29.9370 C   0  0  0  0  0  0  0  0  0  0  0  0
   10.4282  -13.6701   28.6476 C   0  0  0  0  0  0  0  0  0  0  0  0
   11.0135  -14.4136   27.6169 C   0  0  0  0  0  0  0  0  0  0  0  0
   10.3439  -18.1752   26.6977 C   0  0  0  0  0  0  0  0  0  0  0  0
    9.0943  -17.9991   26.8940 O   0  0  0  0  0  0  0  0  0  0  0  0
   10.8684  -19.3544   27.2007 O   0  0  0  0  0  0  0  0  0  0  0  0
  2  3  1  0
  2  1  1  0
  3 10  1  0
  4  3  2  0
  6  7  1  0
  6  5  1  0
  7  8  1  0
  9  8  1  1
  9 11  1  0
 10  9  1  0
 11 13  1  0
 11 12  2  0
 13 14  1  0
 14 15  1  1
 14 22  1  0
 16 21  2  0
 16 15  1  0
 17 16  1  0
 18 19  1  0
 18 17  2  0
 19 20  2  0
 20 21  1  0
 22 24  1  0
 23 22  2  0
M  END
$$$$
