GMF.pdb
     RDKit          3D

 24 24  0  0  1  0  0  0  0  0999 V2000
    8.6907  -18.9457   18.8714 N   0  0  0  0  0  0  0  0  0  0  0  0
    8.0820  -18.8964   20.1842 C   0  0  0  0  0  0  0  0  0  0  0  0
    8.5509  -17.6769   20.9298 C   0  0  0  0  0  0  0  0  0  0  0  0
    9.6970  -17.6002   21.4308 O   0  0  0  0  0  0  0  0  0  0  0  0
    8.4332  -11.6210   19.9948 C   0  0  0  0  0  0  0  0  0  0  0  0
    8.3772  -13.3569   19.4757 S   0  0  0  0  0  0  0  0  0  0  0  0
    6.7798  -14.0291   20.0850 C   0  0  0  0  0  0  0  0  0  0  0  0
    6.9650  -14.3542   21.5297 C   0  0  0  0  0  0  0  0  0  0  0  0
    8.0368  -15.3626   21.8073 C   0  0  2  0  0  0  0  0  0  0  0  0
    7.6917  -16.5726   21.0832 N   0  0  0  0  0  0  0  0  0  0  0  0
    8.2024  -15.6768   23.2494 C   0  0  0  0  0  0  0  0  0  0  0  0
    7.4296  -16.4448   23.8711 O   0  0  0  0  0  0  0  0  0  0  0  0
    9.2703  -15.0988   23.9828 N   0  0  0  0  0  0  0  0  0  0  0  0
    9.3978  -15.4136   25.3955 C   0  0  1  0  0  0  0  0  0  0  0  0
    7.9891  -15.4234   25.9672 C   0  0  0  0  0  0  0  0  0  0  0  0
    7.4810  -14.0685   26.2819 C   0  0  0  0  0  0  0  0  0  0  0  0
    8.3708  -13.0285   26.4349 C   0  0  0  0  0  0  0  0  0  0  0  0
    7.9732  -11.7351   26.7234 C   0  0  0  0  0  0  0  0  0  0  0  0
    6.6149  -11.4936   26.8612 C   0  0  0  0  0  0  0  0  0  0  0  0
    5.7187  -12.5232   26.7107 C   0  0  0  0  0  0  0  0  0  0  0  0
    6.1305  -13.8281   26.4190 C   0  0  0  0  0  0  0  0  0  0  0  0
   10.1209  -16.6743   25.6207 C   0  0  0  0  0  0  0  0  0  0  0  0
   10.3513  -17.1284   26.7920 O   0  0  0  0  0  0  0  0  0  0  0  0
   10.5963  -17.4478   24.5748 O   0  0  0  0  0  0  0  0  0  0  0  0
  2  3  1  0
  2  1  1  0
  3 10  1  0
  4  3  2  0
  6  7  1  0
  6  5  1  0
  7  8  1  0
  9  8  1  1
  9 11  1  0
 10  9  1  0
 11 13  1  0
 11 12  2  0
 13 14  1  0
 14 15  1  6
 14 22  1  0
 16 21  2  0
 16 15  1  0
 17 16  1  0
 18 19  1  0
 18 17  2  0
 19 20  2  0
 20 21  1  0
 22 24  1  0
 23 22  2  0
M  END
$$$$
