GMF.pdb
     RDKit          3D

 24 24  0  0  1  0  0  0  0  0999 V2000
    4.5468  -19.8743   23.1961 N   0  0  0  0  0  0  0  0  0  0  0  0
    4.5919  -18.4311   23.3020 C   0  0  0  0  0  0  0  0  0  0  0  0
    5.9551  -17.9234   22.9184 C   0  0  0  0  0  0  0  0  0  0  0  0
    6.9715  -18.6562   22.9419 O   0  0  0  0  0  0  0  0  0  0  0  0
    7.6522  -11.6541   20.0983 C   0  0  0  0  0  0  0  0  0  0  0  0
    7.8276  -13.2209   19.2038 S   0  0  0  0  0  0  0  0  0  0  0  0
    8.3713  -14.4659   20.4404 C   0  0  0  0  0  0  0  0  0  0  0  0
    7.1507  -14.9202   21.1690 C   0  0  0  0  0  0  0  0  0  0  0  0
    7.3998  -15.9775   22.2000 C   0  0  2  0  0  0  0  0  0  0  0  0
    6.1197  -16.5846   22.5164 N   0  0  0  0  0  0  0  0  0  0  0  0
    8.0266  -15.4627   23.4442 C   0  0  0  0  0  0  0  0  0  0  0  0
    7.8168  -14.3065   23.8832 O   0  0  0  0  0  0  0  0  0  0  0  0
    8.9052  -16.2898   24.1900 N   0  0  0  0  0  0  0  0  0  0  0  0
    9.6491  -15.7033   25.2917 C   0  0  1  0  0  0  0  0  0  0  0  0
    8.6988  -15.6482   26.4770 C   0  0  0  0  0  0  0  0  0  0  0  0
    7.8640  -14.4251   26.4952 C   0  0  0  0  0  0  0  0  0  0  0  0
    6.5316  -14.5077   26.1568 C   0  0  0  0  0  0  0  0  0  0  0  0
    5.6867  -13.4121   26.1555 C   0  0  0  0  0  0  0  0  0  0  0  0
    6.2224  -12.1844   26.5136 C   0  0  0  0  0  0  0  0  0  0  0  0
    7.5498  -12.0904   26.8529 C   0  0  0  0  0  0  0  0  0  0  0  0
    8.3964  -13.2044   26.8512 C   0  0  0  0  0  0  0  0  0  0  0  0
   10.8888  -16.4403   25.5796 C   0  0  0  0  0  0  0  0  0  0  0  0
   11.0588  -17.6547   25.2226 O   0  0  0  0  0  0  0  0  0  0  0  0
   11.9498  -15.8613   26.2561 O   0  0  0  0  0  0  0  0  0  0  0  0
  2  3  1  0
  2  1  1  0
  3 10  1  0
  4  3  2  0
  6  7  1  0
  6  5  1  0
  7  8  1  0
  9  8  1  6
  9 11  1  0
 10  9  1  0
 11 13  1  0
 11 12  2  0
 13 14  1  0
 14 15  1  1
 14 22  1  0
 16 21  2  0
 16 15  1  0
 17 16  1  0
 18 19  1  0
 18 17  2  0
 19 20  2  0
 20 21  1  0
 22 24  1  0
 23 22  2  0
M  END
$$$$
