GMF.pdb
     RDKit          3D

 24 24  0  0  1  0  0  0  0  0999 V2000
    5.0113  -20.3154   23.4895 N   0  0  0  0  0  0  0  0  0  0  0  0
    4.8563  -18.8776   23.5610 C   0  0  0  0  0  0  0  0  0  0  0  0
    6.0780  -18.1944   23.0098 C   0  0  0  0  0  0  0  0  0  0  0  0
    7.1668  -18.7956   22.8555 O   0  0  0  0  0  0  0  0  0  0  0  0
    8.7071  -12.1893   18.8823 C   0  0  0  0  0  0  0  0  0  0  0  0
    7.4590  -12.7384   20.0767 S   0  0  0  0  0  0  0  0  0  0  0  0
    7.7156  -14.5434   20.3020 C   0  0  0  0  0  0  0  0  0  0  0  0
    6.6861  -15.0131   21.2750 C   0  0  0  0  0  0  0  0  0  0  0  0
    7.1715  -16.0486   22.2420 C   0  0  2  0  0  0  0  0  0  0  0  0
    6.0211  -16.8353   22.6484 N   0  0  0  0  0  0  0  0  0  0  0  0
    7.8341  -15.4800   23.4434 C   0  0  0  0  0  0  0  0  0  0  0  0
    7.5478  -14.3501   23.9072 O   0  0  0  0  0  0  0  0  0  0  0  0
    8.8379  -16.2219   24.1173 N   0  0  0  0  0  0  0  0  0  0  0  0
    9.7124  -15.5285   25.0477 C   0  0  1  0  0  0  0  0  0  0  0  0
    8.9908  -15.5035   26.3856 C   0  0  0  0  0  0  0  0  0  0  0  0
    7.9509  -14.4522   26.4647 C   0  0  0  0  0  0  0  0  0  0  0  0
    6.6322  -14.7841   26.2467 C   0  0  0  0  0  0  0  0  0  0  0  0
    5.6042  -13.8602   26.3087 C   0  0  0  0  0  0  0  0  0  0  0  0
    5.9346  -12.5466   26.6047 C   0  0  0  0  0  0  0  0  0  0  0  0
    7.2464  -12.2044   26.8239 C   0  0  0  0  0  0  0  0  0  0  0  0
    8.2793  -13.1460   26.7590 C   0  0  0  0  0  0  0  0  0  0  0  0
   11.0453  -16.1453   25.1222 C   0  0  0  0  0  0  0  0  0  0  0  0
   11.2747  -17.3272   24.6959 O   0  0  0  0  0  0  0  0  0  0  0  0
   12.1355  -15.4808   25.6595 O   0  0  0  0  0  0  0  0  0  0  0  0
  2  3  1  0
  2  1  1  0
  3 10  1  0
  4  3  2  0
  6  7  1  0
  6  5  1  0
  7  8  1  0
  9  8  1  6
  9 11  1  0
 10  9  1  0
 11 13  1  0
 11 12  2  0
 13 14  1  0
 14 15  1  1
 14 22  1  0
 16 21  2  0
 16 15  1  0
 17 16  1  0
 18 19  1  0
 18 17  2  0
 19 20  2  0
 20 21  1  0
 22 24  1  0
 23 22  2  0
M  END
$$$$
