RLN.pdb
     RDKit          3D

 28 27  0  0  1  0  0  0  0  0999 V2000
    9.6399  -15.1496   16.0814 N   0  0  0  0  0  0  0  0  0  0  0  0
    8.5568  -14.4075   15.5369 C   0  0  0  0  0  0  0  0  0  0  0  0
    8.5959  -14.1644   14.2696 N   0  0  0  0  0  0  0  0  0  0  0  0
    7.4646  -13.9394   16.3345 N   0  0  0  0  0  0  0  0  0  0  0  0
    7.3480  -14.4082   17.6938 C   0  0  0  0  0  0  0  0  0  0  0  0
    8.3675  -13.7059   18.6041 C   0  0  0  0  0  0  0  0  0  0  0  0
    7.7719  -13.7254   19.9768 C   0  0  0  0  0  0  0  0  0  0  0  0
    8.2545  -14.9255   20.7981 C   0  0  2  0  0  0  0  0  0  0  0  0
    7.2024  -15.9052   20.9286 N   0  0  0  0  0  0  0  0  0  0  0  0
    8.5752  -14.3867   22.1328 C   0  0  0  0  0  0  0  0  0  0  0  0
    9.5887  -13.6792   22.2807 O   0  0  0  0  0  0  0  0  0  0  0  0
    7.8337  -13.6789   13.7481 C   0  0  0  0  0  0  0  0  0  0  0  0
    5.7563  -12.2351   26.9710 C   0  0  1  0  0  0  0  0  0  0  0  0
    7.0443  -12.6720   26.3138 C   0  0  0  0  0  0  0  0  0  0  0  0
    7.9635  -11.4860   26.0681 C   0  0  0  0  0  0  0  0  0  0  0  0
    6.7788  -13.4184   25.0297 C   0  0  2  0  0  0  0  0  0  0  0  0
    8.0396  -14.0175   24.5052 N   0  0  0  0  0  0  0  0  0  0  0  0
    7.7491  -14.6627   23.2394 C   0  0  0  0  0  0  0  0  0  0  0  0
    8.6426  -15.0008   25.4291 O   0  0  0  0  0  0  0  0  0  0  0  0
    8.8812  -14.6817   26.6137 N   0  0  0  0  0  0  0  0  0  0  0  0
    6.3142  -18.5378   26.0033 C   0  0  0  0  0  0  0  0  0  0  0  0
    7.5475  -18.4173   26.7029 O   0  0  0  0  0  0  0  0  0  0  0  0
    7.4892  -18.2389   27.9269 C   0  0  0  0  0  0  0  0  0  0  0  0
    8.7907  -18.5065   25.9665 C   0  0  2  0  0  0  0  0  0  0  0  0
    9.5772  -17.2271   25.9337 N   0  0  0  0  0  0  0  0  0  0  0  0
    8.9499  -16.2901   24.9856 C   0  0  0  0  0  0  0  0  0  0  0  0
   10.9651  -17.4080   25.4132 O   0  0  0  0  0  0  0  0  0  0  0  0
   11.9896  -17.8954   26.2103 O   0  0  0  0  0  0  0  0  0  0  0  0
  1  2  1  0
  2  4  1  0
  3  2  2  0
  4  5  1  0
  5  6  1  0
  7  6  1  0
  8  9  1  1
  8  7  1  0
 10  8  1  0
 11 10  2  0
 13 14  1  6
 13 12  1  0
 15 13  1  0
 16 15  1  6
 16 17  1  0
 17 10  1  0
 18 16  1  0
 18 19  2  0
 21 20  1  0
 21 22  2  0
 23 21  1  0
 24 23  1  1
 24 25  1  0
 25 18  1  0
 26 24  1  0
 27 26  1  0
 28 26  2  0
M  END
$$$$
