RLN.pdb
     RDKit          3D

 28 27  0  0  1  0  0  0  0  0999 V2000
    5.1819  -20.4151   22.2879 N   0  0  0  0  0  0  0  0  0  0  0  0
    6.0928  -20.1553   23.3478 C   0  0  0  0  0  0  0  0  0  0  0  0
    5.5877  -20.0030   24.5260 N   0  0  0  0  0  0  0  0  0  0  0  0
    7.5062  -20.0604   23.1439 N   0  0  0  0  0  0  0  0  0  0  0  0
    7.9924  -19.4131   21.9498 C   0  0  0  0  0  0  0  0  0  0  0  0
    7.6219  -17.9218   21.9465 C   0  0  0  0  0  0  0  0  0  0  0  0
    8.4031  -17.3088   20.8269 C   0  0  0  0  0  0  0  0  0  0  0  0
    8.1546  -15.8015   20.7077 C   0  0  2  0  0  0  0  0  0  0  0  0
    8.9972  -15.2293   19.6848 N   0  0  0  0  0  0  0  0  0  0  0  0
    8.5358  -15.2344   22.0145 C   0  0  0  0  0  0  0  0  0  0  0  0
    9.7384  -15.0403   22.2709 O   0  0  0  0  0  0  0  0  0  0  0  0
    6.1467  -19.7434   25.3679 C   0  0  0  0  0  0  0  0  0  0  0  0
    6.0009  -12.5061   26.8895 C   0  0  2  0  0  0  0  0  0  0  0  0
    7.2283  -12.9752   26.1443 C   0  0  0  0  0  0  0  0  0  0  0  0
    8.2599  -11.8638   26.0337 C   0  0  0  0  0  0  0  0  0  0  0  0
    6.8700  -13.5106   24.7799 C   0  0  2  0  0  0  0  0  0  0  0  0
    7.9802  -14.3475   24.2407 N   0  0  0  0  0  0  0  0  0  0  0  0
    7.5565  -14.9105   22.9733 C   0  0  0  0  0  0  0  0  0  0  0  0
    8.3788  -15.4397   25.1529 O   0  0  0  0  0  0  0  0  0  0  0  0
    7.6168  -16.4138   25.3330 N   0  0  0  0  0  0  0  0  0  0  0  0
   11.5228  -19.2671   26.1165 C   0  0  0  0  0  0  0  0  0  0  0  0
   12.2417  -18.0452   25.9935 O   0  0  0  0  0  0  0  0  0  0  0  0
   13.4540  -18.0737   26.2440 C   0  0  0  0  0  0  0  0  0  0  0  0
   11.5370  -16.8468   25.5894 C   0  0  1  0  0  0  0  0  0  0  0  0
   10.2113  -16.6562   26.2695 N   0  0  0  0  0  0  0  0  0  0  0  0
    9.6065  -15.3907   25.8190 C   0  0  0  0  0  0  0  0  0  0  0  0
   10.3312  -16.5036   27.7502 O   0  0  0  0  0  0  0  0  0  0  0  0
    9.7862  -15.4201   28.4223 O   0  0  0  0  0  0  0  0  0  0  0  0
  1  2  1  0
  2  4  1  0
  3  2  2  0
  4  5  1  0
  5  6  1  0
  7  6  1  0
  8  9  1  6
  8  7  1  0
 10  8  1  0
 11 10  2  0
 13 14  1  6
 13 12  1  0
 15 13  1  0
 16 15  1  6
 16 17  1  0
 17 10  1  0
 18 16  1  0
 18 19  2  0
 21 20  1  0
 21 22  2  0
 23 21  1  0
 24 23  1  6
 24 25  1  0
 25 18  1  0
 26 24  1  0
 27 26  1  0
 28 26  2  0
M  END
$$$$
