RLN.pdb
     RDKit          3D

 28 27  0  0  1  0  0  0  0  0999 V2000
    8.7108  -15.5571   16.9965 N   0  0  0  0  0  0  0  0  0  0  0  0
    8.3103  -14.2766   16.5270 C   0  0  0  0  0  0  0  0  0  0  0  0
    7.9919  -14.1869   15.2792 N   0  0  0  0  0  0  0  0  0  0  0  0
    8.2564  -13.1262   17.3766 N   0  0  0  0  0  0  0  0  0  0  0  0
    8.8486  -13.2057   18.6897 C   0  0  0  0  0  0  0  0  0  0  0  0
    7.8735  -13.8429   19.6919 C   0  0  0  0  0  0  0  0  0  0  0  0
    8.6251  -13.9512   20.9814 C   0  0  0  0  0  0  0  0  0  0  0  0
    8.6395  -15.3848   21.5222 C   0  0  2  0  0  0  0  0  0  0  0  0
    7.3441  -16.0004   21.3582 N   0  0  0  0  0  0  0  0  0  0  0  0
    8.9314  -15.2602   22.9623 C   0  0  0  0  0  0  0  0  0  0  0  0
   10.1144  -15.2577   23.3497 O   0  0  0  0  0  0  0  0  0  0  0  0
    7.7978  -13.2841   14.7934 C   0  0  0  0  0  0  0  0  0  0  0  0
    8.1591  -12.1459   26.0618 C   0  0  2  0  0  0  0  0  0  0  0  0
    6.9879  -12.9718   25.5844 C   0  0  0  0  0  0  0  0  0  0  0  0
    5.6697  -12.3717   26.0473 C   0  0  0  0  0  0  0  0  0  0  0  0
    7.1096  -14.4070   26.0337 C   0  0  2  0  0  0  0  0  0  0  0  0
    8.2235  -15.0863   25.3117 N   0  0  0  0  0  0  0  0  0  0  0  0
    7.8890  -15.1439   23.9020 C   0  0  0  0  0  0  0  0  0  0  0  0
    8.4883  -16.4528   25.8084 O   0  0  0  0  0  0  0  0  0  0  0  0
    7.7549  -17.4005   25.4534 N   0  0  0  0  0  0  0  0  0  0  0  0
   12.2038  -20.3600   25.5742 C   0  0  0  0  0  0  0  0  0  0  0  0
   10.8226  -20.1065   25.8042 O   0  0  0  0  0  0  0  0  0  0  0  0
   10.1167  -21.0699   26.1313 C   0  0  0  0  0  0  0  0  0  0  0  0
   10.3144  -18.7599   25.6481 C   0  0  2  0  0  0  0  0  0  0  0  0
    9.9446  -18.0903   26.9409 N   0  0  0  0  0  0  0  0  0  0  0  0
    9.5569  -16.6938   26.6764 C   0  0  0  0  0  0  0  0  0  0  0  0
   11.0909  -17.9832   27.8919 O   0  0  0  0  0  0  0  0  0  0  0  0
   11.3410  -18.9528   28.8511 O   0  0  0  0  0  0  0  0  0  0  0  0
  1  2  1  0
  2  4  1  0
  3  2  2  0
  4  5  1  0
  5  6  1  0
  7  6  1  0
  8  9  1  1
  8  7  1  0
 10  8  1  0
 11 10  2  0
 13 14  1  1
 13 12  1  0
 15 13  1  0
 16 15  1  6
 16 17  1  0
 17 10  1  0
 18 16  1  0
 18 19  2  0
 21 20  1  0
 21 22  2  0
 23 21  1  0
 24 23  1  6
 24 25  1  0
 25 18  1  0
 26 24  1  0
 27 26  1  0
 28 26  2  0
M  END
$$$$
