RLN.pdb
     RDKit          3D

 28 27  0  0  1  0  0  0  0  0999 V2000
    8.4531  -12.2341   17.4926 N   0  0  0  0  0  0  0  0  0  0  0  0
    8.0659  -13.4679   16.9025 C   0  0  0  0  0  0  0  0  0  0  0  0
    7.8440  -13.4612   15.6307 N   0  0  0  0  0  0  0  0  0  0  0  0
    7.9200  -14.6729   17.6606 N   0  0  0  0  0  0  0  0  0  0  0  0
    8.5155  -14.7428   18.9728 C   0  0  0  0  0  0  0  0  0  0  0  0
    7.5933  -14.1100   20.0265 C   0  0  0  0  0  0  0  0  0  0  0  0
    6.7848  -15.2355   20.5913 C   0  0  0  0  0  0  0  0  0  0  0  0
    7.6399  -16.2026   21.4168 C   0  0  2  0  0  0  0  0  0  0  0  0
    6.8685  -17.3622   21.7963 N   0  0  0  0  0  0  0  0  0  0  0  0
    8.0146  -15.4578   22.6332 C   0  0  0  0  0  0  0  0  0  0  0  0
    8.4029  -14.2791   22.5348 O   0  0  0  0  0  0  0  0  0  0  0  0
    7.7210  -14.3251   15.0587 C   0  0  0  0  0  0  0  0  0  0  0  0
    5.8962  -12.5172   26.4852 C   0  0  1  0  0  0  0  0  0  0  0  0
    7.1700  -13.3053   26.2898 C   0  0  0  0  0  0  0  0  0  0  0  0
    8.3856  -12.3921   26.2967 C   0  0  0  0  0  0  0  0  0  0  0  0
    7.1207  -14.1212   25.0215 C   0  0  2  0  0  0  0  0  0  0  0  0
    8.1077  -15.2374   25.0814 N   0  0  0  0  0  0  0  0  0  0  0  0
    7.9380  -16.0638   23.9020 C   0  0  0  0  0  0  0  0  0  0  0  0
    7.9637  -16.0745   26.2908 O   0  0  0  0  0  0  0  0  0  0  0  0
    6.8567  -16.5820   26.5722 N   0  0  0  0  0  0  0  0  0  0  0  0
    8.9358  -19.1523   23.9503 C   0  0  0  0  0  0  0  0  0  0  0  0
    8.9257  -19.0705   25.3709 O   0  0  0  0  0  0  0  0  0  0  0  0
    8.0297  -19.6831   25.9671 C   0  0  0  0  0  0  0  0  0  0  0  0
    9.9432  -18.2896   26.0423 C   0  0  2  0  0  0  0  0  0  0  0  0
    9.4971  -17.6928   27.3465 N   0  0  0  0  0  0  0  0  0  0  0  0
    9.0608  -16.3030   27.1260 C   0  0  0  0  0  0  0  0  0  0  0  0
   10.6014  -17.5808   28.3456 O   0  0  0  0  0  0  0  0  0  0  0  0
   10.8852  -18.5996   29.2423 O   0  0  0  0  0  0  0  0  0  0  0  0
  1  2  1  0
  2  4  1  0
  3  2  2  0
  4  5  1  0
  5  6  1  0
  7  6  1  0
  8  9  1  1
  8  7  1  0
 10  8  1  0
 11 10  2  0
 13 14  1  6
 13 12  1  0
 15 13  1  0
 16 15  1  6
 16 17  1  0
 17 10  1  0
 18 16  1  0
 18 19  2  0
 21 20  1  0
 21 22  2  0
 23 21  1  0
 24 23  1  6
 24 25  1  0
 25 18  1  0
 26 24  1  0
 27 26  1  0
 28 26  2  0
M  END
$$$$
