RLN.pdb
     RDKit          3D

 28 27  0  0  1  0  0  0  0  0999 V2000
    8.3893  -12.3507   16.7674 N   0  0  0  0  0  0  0  0  0  0  0  0
    8.3626  -13.7470   16.5027 C   0  0  0  0  0  0  0  0  0  0  0  0
    8.1713  -14.1041   15.2769 N   0  0  0  0  0  0  0  0  0  0  0  0
    8.5349  -14.7298   17.5288 N   0  0  0  0  0  0  0  0  0  0  0  0
    8.5148  -14.3038   18.9069 C   0  0  0  0  0  0  0  0  0  0  0  0
    7.2980  -14.8869   19.6421 C   0  0  0  0  0  0  0  0  0  0  0  0
    7.4420  -14.4646   21.0705 C   0  0  0  0  0  0  0  0  0  0  0  0
    7.9666  -15.5987   21.9573 C   0  0  2  0  0  0  0  0  0  0  0  0
    6.8854  -16.4642   22.3641 N   0  0  0  0  0  0  0  0  0  0  0  0
    8.5267  -14.9388   23.1513 C   0  0  0  0  0  0  0  0  0  0  0  0
    9.5511  -14.2401   23.0414 O   0  0  0  0  0  0  0  0  0  0  0  0
    8.0922  -15.0974   14.9676 C   0  0  0  0  0  0  0  0  0  0  0  0
    7.5995  -11.6697   25.4289 C   0  0  2  0  0  0  0  0  0  0  0  0
    6.6964  -12.8350   25.7577 C   0  0  0  0  0  0  0  0  0  0  0  0
    5.5094  -12.3884   26.5964 C   0  0  0  0  0  0  0  0  0  0  0  0
    7.4562  -13.9390   26.4507 C   0  0  2  0  0  0  0  0  0  0  0  0
    8.5345  -14.4650   25.5651 N   0  0  0  0  0  0  0  0  0  0  0  0
    7.9168  -15.0899   24.4115 C   0  0  0  0  0  0  0  0  0  0  0  0
    9.4135  -15.4428   26.2397 O   0  0  0  0  0  0  0  0  0  0  0  0
    9.3909  -15.5496   27.4848 N   0  0  0  0  0  0  0  0  0  0  0  0
   11.7445  -19.7979   27.2470 C   0  0  0  0  0  0  0  0  0  0  0  0
   10.3500  -19.5219   27.3113 O   0  0  0  0  0  0  0  0  0  0  0  0
    9.6313  -20.3630   27.8678 C   0  0  0  0  0  0  0  0  0  0  0  0
    9.8439  -18.2944   26.7343 C   0  0  1  0  0  0  0  0  0  0  0  0
   10.9071  -17.4042   26.1569 N   0  0  0  0  0  0  0  0  0  0  0  0
   10.2742  -16.2517   25.4925 C   0  0  0  0  0  0  0  0  0  0  0  0
   11.6997  -18.0653   25.0777 O   0  0  0  0  0  0  0  0  0  0  0  0
   11.7044  -17.5898   23.7752 O   0  0  0  0  0  0  0  0  0  0  0  0
  1  2  1  0
  2  4  1  0
  3  2  2  0
  4  5  1  0
  5  6  1  0
  7  6  1  0
  8  9  1  1
  8  7  1  0
 10  8  1  0
 11 10  2  0
 13 14  1  1
 13 12  1  0
 15 13  1  0
 16 15  1  6
 16 17  1  0
 17 10  1  0
 18 16  1  0
 18 19  2  0
 21 20  1  0
 21 22  2  0
 23 21  1  0
 24 23  1  1
 24 25  1  0
 25 18  1  0
 26 24  1  0
 27 26  1  0
 28 26  2  0
M  END
$$$$
