RLN.pdb
     RDKit          3D

 28 27  0  0  1  0  0  0  0  0999 V2000
   10.6112  -21.9006   14.6074 N   0  0  0  0  0  0  0  0  0  0  0  0
   11.7517  -21.2019   14.1262 C   0  0  0  0  0  0  0  0  0  0  0  0
   12.1362  -21.4723   12.9238 N   0  0  0  0  0  0  0  0  0  0  0  0
   12.4584  -20.2416   14.9178 N   0  0  0  0  0  0  0  0  0  0  0  0
   11.8485  -18.9561   15.1561 C   0  0  0  0  0  0  0  0  0  0  0  0
   10.6394  -19.0899   16.0950 C   0  0  0  0  0  0  0  0  0  0  0  0
   10.8916  -18.1411   17.2244 C   0  0  0  0  0  0  0  0  0  0  0  0
    9.6420  -17.3327   17.5888 C   0  0  2  0  0  0  0  0  0  0  0  0
    9.2069  -16.5394   16.4641 N   0  0  0  0  0  0  0  0  0  0  0  0
   10.0596  -16.4306   18.6780 C   0  0  0  0  0  0  0  0  0  0  0  0
   11.1554  -15.8448   18.6024 O   0  0  0  0  0  0  0  0  0  0  0  0
   12.9752  -21.0460   12.4732 C   0  0  0  0  0  0  0  0  0  0  0  0
    8.5051  -12.6354   19.2918 C   0  0  2  0  0  0  0  0  0  0  0  0
    7.5840  -13.7353   19.7645 C   0  0  0  0  0  0  0  0  0  0  0  0
    6.1945  -13.1952   20.0636 C   0  0  0  0  0  0  0  0  0  0  0  0
    8.1520  -14.4468   20.9677 C   0  0  2  0  0  0  0  0  0  0  0  0
    9.4688  -15.0626   20.6353 N   0  0  0  0  0  0  0  0  0  0  0  0
    9.2342  -16.2247   19.8002 C   0  0  0  0  0  0  0  0  0  0  0  0
   10.2386  -15.4659   21.8306 O   0  0  0  0  0  0  0  0  0  0  0  0
   10.5922  -14.6064   22.6663 N   0  0  0  0  0  0  0  0  0  0  0  0
   13.2814  -17.4898   25.2066 C   0  0  0  0  0  0  0  0  0  0  0  0
   13.6039  -16.5187   24.2177 O   0  0  0  0  0  0  0  0  0  0  0  0
   14.6653  -15.8968   24.3596 C   0  0  0  0  0  0  0  0  0  0  0  0
   12.6942  -16.3052   23.1119 C   0  0  1  0  0  0  0  0  0  0  0  0
   11.4506  -17.1458   23.1699 N   0  0  0  0  0  0  0  0  0  0  0  0
   10.5763  -16.8068   22.0337 C   0  0  0  0  0  0  0  0  0  0  0  0
   10.6149  -16.8697   24.3763 O   0  0  0  0  0  0  0  0  0  0  0  0
   11.0174  -17.2455   25.6489 O   0  0  0  0  0  0  0  0  0  0  0  0
  1  2  1  0
  2  4  1  0
  3  2  2  0
  4  5  1  0
  5  6  1  0
  7  6  1  0
  8  9  1  6
  8  7  1  0
 10  8  1  0
 11 10  2  0
 13 14  1  1
 13 12  1  0
 15 13  1  0
 16 15  1  6
 16 17  1  0
 17 10  1  0
 18 16  1  0
 18 19  2  0
 21 20  1  0
 21 22  2  0
 23 21  1  0
 24 23  1  6
 24 25  1  0
 25 18  1  0
 26 24  1  0
 27 26  1  0
 28 26  2  0
M  END
$$$$
