RLN.pdb
     RDKit          3D

 28 27  0  0  1  0  0  0  0  0999 V2000
    5.8692  -20.7102   20.9131 N   0  0  0  0  0  0  0  0  0  0  0  0
    6.8301  -20.7815   19.8681 C   0  0  0  0  0  0  0  0  0  0  0  0
    6.4030  -21.1548   18.7084 N   0  0  0  0  0  0  0  0  0  0  0  0
    8.2108  -20.4619   20.0672 N   0  0  0  0  0  0  0  0  0  0  0  0
    8.5778  -19.6499   21.2017 C   0  0  0  0  0  0  0  0  0  0  0  0
    8.1687  -18.1852   20.9815 C   0  0  0  0  0  0  0  0  0  0  0  0
    8.6020  -17.4502   22.2109 C   0  0  0  0  0  0  0  0  0  0  0  0
    8.2171  -15.9679   22.1626 C   0  0  2  0  0  0  0  0  0  0  0  0
    8.8941  -15.3047   21.0738 N   0  0  0  0  0  0  0  0  0  0  0  0
    8.6878  -15.3965   23.4380 C   0  0  0  0  0  0  0  0  0  0  0  0
    9.8660  -15.0072   23.5373 O   0  0  0  0  0  0  0  0  0  0  0  0
    7.0177  -21.2698   17.8732 C   0  0  0  0  0  0  0  0  0  0  0  0
    7.3726  -11.9574   25.2351 C   0  0  2  0  0  0  0  0  0  0  0  0
    6.4639  -13.0968   25.6321 C   0  0  0  0  0  0  0  0  0  0  0  0
    5.2087  -12.5824   26.3192 C   0  0  0  0  0  0  0  0  0  0  0  0
    7.1835  -14.0925   26.5079 C   0  0  2  0  0  0  0  0  0  0  0  0
    8.3262  -14.7046   25.7708 N   0  0  0  0  0  0  0  0  0  0  0  0
    7.8209  -15.2863   24.5423 C   0  0  0  0  0  0  0  0  0  0  0  0
    9.0299  -15.7435   26.5513 O   0  0  0  0  0  0  0  0  0  0  0  0
    9.4062  -15.5017   27.7184 N   0  0  0  0  0  0  0  0  0  0  0  0
    6.8412  -19.4789   26.9506 C   0  0  0  0  0  0  0  0  0  0  0  0
    8.1211  -19.3853   27.5655 O   0  0  0  0  0  0  0  0  0  0  0  0
    8.1550  -19.3706   28.8033 C   0  0  0  0  0  0  0  0  0  0  0  0
    9.3030  -19.3124   26.7326 C   0  0  2  0  0  0  0  0  0  0  0  0
   10.0158  -17.9916   26.7938 N   0  0  0  0  0  0  0  0  0  0  0  0
    9.2795  -16.9995   25.9913 C   0  0  0  0  0  0  0  0  0  0  0  0
   11.3752  -18.0326   26.1769 O   0  0  0  0  0  0  0  0  0  0  0  0
   11.5796  -17.7555   24.8338 O   0  0  0  0  0  0  0  0  0  0  0  0
  1  2  1  0
  2  4  1  0
  3  2  2  0
  4  5  1  0
  5  6  1  0
  7  6  1  0
  8  9  1  6
  8  7  1  0
 10  8  1  0
 11 10  2  0
 13 14  1  1
 13 12  1  0
 15 13  1  0
 16 15  1  6
 16 17  1  0
 17 10  1  0
 18 16  1  0
 18 19  2  0
 21 20  1  0
 21 22  2  0
 23 21  1  0
 24 23  1  1
 24 25  1  0
 25 18  1  0
 26 24  1  0
 27 26  1  0
 28 26  2  0
M  END
$$$$
