RLN.pdb
     RDKit          3D

 28 27  0  0  1  0  0  0  0  0999 V2000
    8.3556  -13.1193   17.1908 N   0  0  0  0  0  0  0  0  0  0  0  0
    8.8015  -12.2401   18.2149 C   0  0  0  0  0  0  0  0  0  0  0  0
    9.8836  -11.5757   17.9821 N   0  0  0  0  0  0  0  0  0  0  0  0
    8.1031  -12.0828   19.4541 N   0  0  0  0  0  0  0  0  0  0  0  0
    7.2274  -13.1409   19.8955 C   0  0  0  0  0  0  0  0  0  0  0  0
    8.0247  -14.2592   20.5847 C   0  0  0  0  0  0  0  0  0  0  0  0
    7.0071  -15.1662   21.2022 C   0  0  0  0  0  0  0  0  0  0  0  0
    7.6543  -16.3529   21.9238 C   0  0  2  0  0  0  0  0  0  0  0  0
    6.6475  -17.2939   22.3534 N   0  0  0  0  0  0  0  0  0  0  0  0
    8.3127  -15.7802   23.1126 C   0  0  0  0  0  0  0  0  0  0  0  0
    9.4656  -15.3213   23.0131 O   0  0  0  0  0  0  0  0  0  0  0  0
   10.2800  -10.8650   18.6351 C   0  0  0  0  0  0  0  0  0  0  0  0
    8.2056  -12.3736   25.4578 C   0  0  2  0  0  0  0  0  0  0  0  0
    7.0653  -13.3315   25.7103 C   0  0  0  0  0  0  0  0  0  0  0  0
    5.9430  -12.6557   26.4822 C   0  0  0  0  0  0  0  0  0  0  0  0
    7.5389  -14.5704   26.4296 C   0  0  2  0  0  0  0  0  0  0  0  0
    8.4116  -15.3883   25.5390 N   0  0  0  0  0  0  0  0  0  0  0  0
    7.6530  -15.7465   24.3562 C   0  0  0  0  0  0  0  0  0  0  0  0
    8.9143  -16.6167   26.1890 O   0  0  0  0  0  0  0  0  0  0  0  0
    8.1151  -17.5123   26.5369 N   0  0  0  0  0  0  0  0  0  0  0  0
   13.7867  -20.0318   25.8990 C   0  0  0  0  0  0  0  0  0  0  0  0
   12.4188  -19.8491   26.2460 O   0  0  0  0  0  0  0  0  0  0  0  0
   11.8727  -20.7536   26.8920 C   0  0  0  0  0  0  0  0  0  0  0  0
   11.7401  -18.6379   25.8359 C   0  0  2  0  0  0  0  0  0  0  0  0
   10.7647  -18.1087   26.8483 N   0  0  0  0  0  0  0  0  0  0  0  0
   10.2826  -16.7844   26.4191 C   0  0  0  0  0  0  0  0  0  0  0  0
   11.3855  -17.8624   28.1840 O   0  0  0  0  0  0  0  0  0  0  0  0
   11.6082  -18.8886   29.0896 O   0  0  0  0  0  0  0  0  0  0  0  0
  1  2  1  0
  2  4  1  0
  3  2  2  0
  4  5  1  0
  5  6  1  0
  7  6  1  0
  8  9  1  1
  8  7  1  0
 10  8  1  0
 11 10  2  0
 13 14  1  6
 13 12  1  0
 15 13  1  0
 16 15  1  6
 16 17  1  0
 17 10  1  0
 18 16  1  0
 18 19  2  0
 21 20  1  0
 21 22  2  0
 23 21  1  0
 24 23  1  6
 24 25  1  0
 25 18  1  0
 26 24  1  0
 27 26  1  0
 28 26  2  0
M  END
$$$$
