RLN.pdb
     RDKit          3D

 28 27  0  0  1  0  0  0  0  0999 V2000
    7.8198  -12.9554   16.5685 N   0  0  0  0  0  0  0  0  0  0  0  0
    8.4545  -14.1791   16.2215 C   0  0  0  0  0  0  0  0  0  0  0  0
    8.2419  -14.6283   15.0300 N   0  0  0  0  0  0  0  0  0  0  0  0
    9.2920  -14.8985   17.1321 N   0  0  0  0  0  0  0  0  0  0  0  0
    9.1907  -14.6107   18.5421 C   0  0  0  0  0  0  0  0  0  0  0  0
    7.7812  -14.9278   19.0653 C   0  0  0  0  0  0  0  0  0  0  0  0
    7.9695  -15.4596   20.4515 C   0  0  0  0  0  0  0  0  0  0  0  0
    7.1341  -14.6928   21.4820 C   0  0  2  0  0  0  0  0  0  0  0  0
    6.9112  -13.3357   21.0437 N   0  0  0  0  0  0  0  0  0  0  0  0
    7.9476  -14.6712   22.7118 C   0  0  0  0  0  0  0  0  0  0  0  0
    9.1613  -14.4040   22.6390 O   0  0  0  0  0  0  0  0  0  0  0  0
    8.6889  -15.4895   14.6463 C   0  0  0  0  0  0  0  0  0  0  0  0
    8.2343  -11.8543   25.7324 C   0  0  2  0  0  0  0  0  0  0  0  0
    6.9973  -12.7182   25.8048 C   0  0  0  0  0  0  0  0  0  0  0  0
    5.9675  -12.1220   26.7513 C   0  0  0  0  0  0  0  0  0  0  0  0
    7.3386  -14.1318   26.2069 C   0  0  2  0  0  0  0  0  0  0  0  0
    8.1746  -14.7843   25.1586 N   0  0  0  0  0  0  0  0  0  0  0  0
    7.3679  -14.9485   23.9648 C   0  0  0  0  0  0  0  0  0  0  0  0
    8.7056  -16.0989   25.5755 O   0  0  0  0  0  0  0  0  0  0  0  0
    7.9210  -17.0350   25.8405 N   0  0  0  0  0  0  0  0  0  0  0  0
   12.7711  -17.1636   23.3139 C   0  0  0  0  0  0  0  0  0  0  0  0
   11.8848  -17.9818   24.0691 O   0  0  0  0  0  0  0  0  0  0  0  0
   11.1288  -18.7315   23.4368 C   0  0  0  0  0  0  0  0  0  0  0  0
   11.9062  -17.9020   25.5144 C   0  0  2  0  0  0  0  0  0  0  0  0
   10.5668  -17.6188   26.1327 N   0  0  0  0  0  0  0  0  0  0  0  0
   10.0844  -16.3036   25.6767 C   0  0  0  0  0  0  0  0  0  0  0  0
   10.6241  -17.4975   27.6201 O   0  0  0  0  0  0  0  0  0  0  0  0
   10.7894  -18.6033   28.4402 O   0  0  0  0  0  0  0  0  0  0  0  0
  1  2  1  0
  2  4  1  0
  3  2  2  0
  4  5  1  0
  5  6  1  0
  7  6  1  0
  8  9  1  6
  8  7  1  0
 10  8  1  0
 11 10  2  0
 13 14  1  1
 13 12  1  0
 15 13  1  0
 16 15  1  6
 16 17  1  0
 17 10  1  0
 18 16  1  0
 18 19  2  0
 21 20  1  0
 21 22  2  0
 23 21  1  0
 24 23  1  6
 24 25  1  0
 25 18  1  0
 26 24  1  0
 27 26  1  0
 28 26  2  0
M  END
$$$$
