RLN.pdb
     RDKit          3D

 28 27  0  0  1  0  0  0  0  0999 V2000
    8.5774  -14.2271   17.3769 N   0  0  0  0  0  0  0  0  0  0  0  0
    8.2110  -13.1520   18.2315 C   0  0  0  0  0  0  0  0  0  0  0  0
    8.7768  -12.0129   18.0102 N   0  0  0  0  0  0  0  0  0  0  0  0
    7.2643  -13.3003   19.2946 N   0  0  0  0  0  0  0  0  0  0  0  0
    6.6377  -14.5848   19.4907 C   0  0  0  0  0  0  0  0  0  0  0  0
    7.6322  -15.5934   20.0865 C   0  0  0  0  0  0  0  0  0  0  0  0
    7.9917  -15.0632   21.4389 C   0  0  0  0  0  0  0  0  0  0  0  0
    8.7176  -16.1072   22.2937 C   0  0  2  0  0  0  0  0  0  0  0  0
    7.8231  -17.1844   22.6447 N   0  0  0  0  0  0  0  0  0  0  0  0
    9.1203  -15.3995   23.5232 C   0  0  0  0  0  0  0  0  0  0  0  0
   10.1332  -14.6759   23.5099 O   0  0  0  0  0  0  0  0  0  0  0  0
    8.6260  -11.1658   18.6004 C   0  0  0  0  0  0  0  0  0  0  0  0
    7.8019  -11.9985   25.5229 C   0  0  2  0  0  0  0  0  0  0  0  0
    6.8643  -13.1667   25.7174 C   0  0  0  0  0  0  0  0  0  0  0  0
    5.5573  -12.7200   26.3531 C   0  0  0  0  0  0  0  0  0  0  0  0
    7.5107  -14.2586   26.5337 C   0  0  2  0  0  0  0  0  0  0  0  0
    8.7524  -14.7433   25.8652 N   0  0  0  0  0  0  0  0  0  0  0  0
    8.3731  -15.5325   24.7094 C   0  0  0  0  0  0  0  0  0  0  0  0
    9.6096  -15.5560   26.7533 O   0  0  0  0  0  0  0  0  0  0  0  0
    9.6172  -15.3405   27.9843 N   0  0  0  0  0  0  0  0  0  0  0  0
   10.8442  -19.5578   29.3643 C   0  0  0  0  0  0  0  0  0  0  0  0
    9.8383  -19.5871   28.3582 O   0  0  0  0  0  0  0  0  0  0  0  0
    9.2355  -20.6558   28.1909 C   0  0  0  0  0  0  0  0  0  0  0  0
    9.5705  -18.3896   27.5899 C   0  0  1  0  0  0  0  0  0  0  0  0
   10.8042  -17.6860   27.1009 N   0  0  0  0  0  0  0  0  0  0  0  0
   10.4159  -16.5676   26.2241 C   0  0  0  0  0  0  0  0  0  0  0  0
   11.6668  -18.5497   26.2406 O   0  0  0  0  0  0  0  0  0  0  0  0
   12.8978  -19.0189   26.6729 O   0  0  0  0  0  0  0  0  0  0  0  0
  1  2  1  0
  2  4  1  0
  3  2  2  0
  4  5  1  0
  5  6  1  0
  7  6  1  0
  8  9  1  1
  8  7  1  0
 10  8  1  0
 11 10  2  0
 13 14  1  6
 13 12  1  0
 15 13  1  0
 16 15  1  6
 16 17  1  0
 17 10  1  0
 18 16  1  0
 18 19  2  0
 21 20  1  0
 21 22  2  0
 23 21  1  0
 24 23  1  1
 24 25  1  0
 25 18  1  0
 26 24  1  0
 27 26  1  0
 28 26  2  0
M  END
$$$$
