RLN.pdb
     RDKit          3D

 28 27  0  0  1  0  0  0  0  0999 V2000
    7.7135  -13.8729   15.7230 N   0  0  0  0  0  0  0  0  0  0  0  0
    8.7176  -14.5499   16.4671 C   0  0  0  0  0  0  0  0  0  0  0  0
    9.3723  -15.4775   15.8527 N   0  0  0  0  0  0  0  0  0  0  0  0
    9.0066  -14.2381   17.8337 N   0  0  0  0  0  0  0  0  0  0  0  0
    8.1028  -13.3744   18.5537 C   0  0  0  0  0  0  0  0  0  0  0  0
    7.3936  -14.1419   19.6803 C   0  0  0  0  0  0  0  0  0  0  0  0
    8.2108  -13.9078   20.9120 C   0  0  0  0  0  0  0  0  0  0  0  0
    8.3441  -15.1736   21.7651 C   0  0  2  0  0  0  0  0  0  0  0  0
    7.0623  -15.8204   21.9144 N   0  0  0  0  0  0  0  0  0  0  0  0
    8.8039  -14.7111   23.0878 C   0  0  0  0  0  0  0  0  0  0  0  0
    9.9411  -14.2180   23.2033 O   0  0  0  0  0  0  0  0  0  0  0  0
   10.1167  -16.0559   16.2999 C   0  0  0  0  0  0  0  0  0  0  0  0
    7.9111  -11.5609   25.7601 C   0  0  2  0  0  0  0  0  0  0  0  0
    6.8498  -12.6357   25.7764 C   0  0  0  0  0  0  0  0  0  0  0  0
    5.6163  -12.1759   26.5373 C   0  0  0  0  0  0  0  0  0  0  0  0
    7.3836  -13.9246   26.3511 C   0  0  2  0  0  0  0  0  0  0  0  0
    8.5037  -14.4436   25.5146 N   0  0  0  0  0  0  0  0  0  0  0  0
    7.9724  -14.8205   24.2190 C   0  0  0  0  0  0  0  0  0  0  0  0
    9.1892  -15.6048   26.1194 O   0  0  0  0  0  0  0  0  0  0  0  0
    9.5747  -15.5547   27.3072 N   0  0  0  0  0  0  0  0  0  0  0  0
   11.2649  -20.2276   26.9197 C   0  0  0  0  0  0  0  0  0  0  0  0
   10.1257  -20.3677   26.0786 O   0  0  0  0  0  0  0  0  0  0  0  0
    9.7673  -21.5193   25.7977 C   0  0  0  0  0  0  0  0  0  0  0  0
    9.4503  -19.1809   25.5979 C   0  0  1  0  0  0  0  0  0  0  0  0
   10.1035  -17.8933   26.0124 N   0  0  0  0  0  0  0  0  0  0  0  0
    9.4112  -16.7630   25.3693 C   0  0  0  0  0  0  0  0  0  0  0  0
   11.5166  -17.7780   25.5435 O   0  0  0  0  0  0  0  0  0  0  0  0
   12.5870  -18.1524   26.3415 O   0  0  0  0  0  0  0  0  0  0  0  0
  1  2  1  0
  2  4  1  0
  3  2  2  0
  4  5  1  0
  5  6  1  0
  7  6  1  0
  8  9  1  1
  8  7  1  0
 10  8  1  0
 11 10  2  0
 13 14  1  1
 13 12  1  0
 15 13  1  0
 16 15  1  6
 16 17  1  0
 17 10  1  0
 18 16  1  0
 18 19  2  0
 21 20  1  0
 21 22  2  0
 23 21  1  0
 24 23  1  1
 24 25  1  0
 25 18  1  0
 26 24  1  0
 27 26  1  0
 28 26  2  0
M  END
$$$$
