RLN.pdb
     RDKit          3D

 28 27  0  0  1  0  0  0  0  0999 V2000
    7.2034  -14.8444   15.2050 N   0  0  0  0  0  0  0  0  0  0  0  0
    7.9730  -13.8932   15.9284 C   0  0  0  0  0  0  0  0  0  0  0  0
    9.0997  -13.5380   15.4076 N   0  0  0  0  0  0  0  0  0  0  0  0
    7.5424  -13.3422   17.1771 N   0  0  0  0  0  0  0  0  0  0  0  0
    7.0965  -14.2404   18.2141 C   0  0  0  0  0  0  0  0  0  0  0  0
    8.2191  -15.2080   18.6198 C   0  0  0  0  0  0  0  0  0  0  0  0
    8.1519  -15.3103   20.1112 C   0  0  0  0  0  0  0  0  0  0  0  0
    8.7903  -14.1007   20.8019 C   0  0  2  0  0  0  0  0  0  0  0  0
   10.0420  -13.7592   20.1691 N   0  0  0  0  0  0  0  0  0  0  0  0
    9.0559  -14.5321   22.1868 C   0  0  0  0  0  0  0  0  0  0  0  0
   10.2156  -14.8359   22.5222 O   0  0  0  0  0  0  0  0  0  0  0  0
    9.7309  -12.8197   15.8249 C   0  0  0  0  0  0  0  0  0  0  0  0
    6.0038  -12.0667   26.7465 C   0  0  1  0  0  0  0  0  0  0  0  0
    7.2678  -12.7463   26.2751 C   0  0  0  0  0  0  0  0  0  0  0  0
    8.4826  -11.8597   26.4989 C   0  0  0  0  0  0  0  0  0  0  0  0
    7.1630  -13.1547   24.8264 C   0  0  2  0  0  0  0  0  0  0  0  0
    8.2545  -14.1075   24.4734 N   0  0  0  0  0  0  0  0  0  0  0  0
    8.0146  -14.6036   23.1321 C   0  0  0  0  0  0  0  0  0  0  0  0
    8.3525  -15.2487   25.4073 O   0  0  0  0  0  0  0  0  0  0  0  0
    8.3991  -15.0462   26.6398 N   0  0  0  0  0  0  0  0  0  0  0  0
   11.5493  -18.0848   22.4441 C   0  0  0  0  0  0  0  0  0  0  0  0
   10.5740  -18.2688   23.4638 O   0  0  0  0  0  0  0  0  0  0  0  0
    9.7076  -19.1320   23.2696 C   0  0  0  0  0  0  0  0  0  0  0  0
   10.6369  -17.4542   24.6590 C   0  0  2  0  0  0  0  0  0  0  0  0
    9.3859  -17.4869   25.4899 N   0  0  0  0  0  0  0  0  0  0  0  0
    8.3944  -16.5581   24.9203 C   0  0  0  0  0  0  0  0  0  0  0  0
    9.5977  -16.9945   26.8837 O   0  0  0  0  0  0  0  0  0  0  0  0
    9.8628  -17.8593   27.9347 O   0  0  0  0  0  0  0  0  0  0  0  0
  1  2  1  0
  2  4  1  0
  3  2  2  0
  4  5  1  0
  5  6  1  0
  7  6  1  0
  8  9  1  6
  8  7  1  0
 10  8  1  0
 11 10  2  0
 13 14  1  6
 13 12  1  0
 15 13  1  0
 16 15  1  6
 16 17  1  0
 17 10  1  0
 18 16  1  0
 18 19  2  0
 21 20  1  0
 21 22  2  0
 23 21  1  0
 24 23  1  6
 24 25  1  0
 25 18  1  0
 26 24  1  0
 27 26  1  0
 28 26  2  0
M  END
$$$$
