RLN.pdb
     RDKit          3D

 28 27  0  0  1  0  0  0  0  0999 V2000
   11.1964  -17.3840   17.4254 N   0  0  0  0  0  0  0  0  0  0  0  0
   10.2340  -18.4183   17.2690 C   0  0  0  0  0  0  0  0  0  0  0  0
   10.2131  -19.0275   16.1310 N   0  0  0  0  0  0  0  0  0  0  0  0
    9.3196  -18.7841   18.3074 N   0  0  0  0  0  0  0  0  0  0  0  0
    9.3441  -18.0436   19.5452 C   0  0  0  0  0  0  0  0  0  0  0  0
    8.5773  -16.7193   19.4056 C   0  0  0  0  0  0  0  0  0  0  0  0
    8.5303  -16.1272   20.7792 C   0  0  0  0  0  0  0  0  0  0  0  0
    7.7561  -14.8053   20.8115 C   0  0  2  0  0  0  0  0  0  0  0  0
    8.1906  -13.9383   19.7423 N   0  0  0  0  0  0  0  0  0  0  0  0
    8.0965  -14.1803   22.1030 C   0  0  0  0  0  0  0  0  0  0  0  0
    9.1758  -13.5719   22.2238 O   0  0  0  0  0  0  0  0  0  0  0  0
    9.5809  -19.8283   15.9131 C   0  0  0  0  0  0  0  0  0  0  0  0
    5.4450  -12.3700   27.3071 C   0  0  1  0  0  0  0  0  0  0  0  0
    6.6801  -12.5154   26.4497 C   0  0  0  0  0  0  0  0  0  0  0  0
    7.3824  -11.1789   26.2698 C   0  0  0  0  0  0  0  0  0  0  0  0
    6.3498  -13.1308   25.1123 C   0  0  2  0  0  0  0  0  0  0  0  0
    7.5893  -13.6220   24.4444 N   0  0  0  0  0  0  0  0  0  0  0  0
    7.2159  -14.2636   23.1988 C   0  0  0  0  0  0  0  0  0  0  0  0
    8.3570  -14.5736   25.2745 O   0  0  0  0  0  0  0  0  0  0  0  0
    8.6852  -14.2637   26.4400 N   0  0  0  0  0  0  0  0  0  0  0  0
   10.8287  -18.7064   27.0183 C   0  0  0  0  0  0  0  0  0  0  0  0
    9.6135  -19.0791   26.3783 O   0  0  0  0  0  0  0  0  0  0  0  0
    9.2606  -20.2618   26.4780 C   0  0  0  0  0  0  0  0  0  0  0  0
    8.8595  -18.0783   25.6531 C   0  0  1  0  0  0  0  0  0  0  0  0
    9.5125  -16.7261   25.6162 N   0  0  0  0  0  0  0  0  0  0  0  0
    8.7209  -15.8225   24.7633 C   0  0  0  0  0  0  0  0  0  0  0  0
   10.8636  -16.7472   24.9805 O   0  0  0  0  0  0  0  0  0  0  0  0
   12.0098  -16.4070   25.6827 O   0  0  0  0  0  0  0  0  0  0  0  0
  1  2  1  0
  2  4  1  0
  3  2  2  0
  4  5  1  0
  5  6  1  0
  7  6  1  0
  8  9  1  6
  8  7  1  0
 10  8  1  0
 11 10  2  0
 13 14  1  6
 13 12  1  0
 15 13  1  0
 16 15  1  6
 16 17  1  0
 17 10  1  0
 18 16  1  0
 18 19  2  0
 21 20  1  0
 21 22  2  0
 23 21  1  0
 24 23  1  1
 24 25  1  0
 25 18  1  0
 26 24  1  0
 27 26  1  0
 28 26  2  0
M  END
$$$$
