RLN.pdb
     RDKit          3D

 28 27  0  0  1  0  0  0  0  0999 V2000
    7.9582  -12.4828   17.0623 N   0  0  0  0  0  0  0  0  0  0  0  0
    7.9816  -13.8192   16.5784 C   0  0  0  0  0  0  0  0  0  0  0  0
    7.5158  -14.0171   15.3908 N   0  0  0  0  0  0  0  0  0  0  0  0
    8.4902  -14.9105   17.3521 N   0  0  0  0  0  0  0  0  0  0  0  0
    8.9812  -14.6473   18.6829 C   0  0  0  0  0  0  0  0  0  0  0  0
    7.8172  -14.4366   19.6637 C   0  0  0  0  0  0  0  0  0  0  0  0
    8.4469  -14.1877   20.9983 C   0  0  0  0  0  0  0  0  0  0  0  0
    8.5207  -15.4606   21.8479 C   0  0  2  0  0  0  0  0  0  0  0  0
    7.2202  -16.0791   21.9465 N   0  0  0  0  0  0  0  0  0  0  0  0
    8.9421  -15.0156   23.1892 C   0  0  0  0  0  0  0  0  0  0  0  0
   10.0163  -14.4005   23.3214 O   0  0  0  0  0  0  0  0  0  0  0  0
    7.4690  -14.9542   14.9346 C   0  0  0  0  0  0  0  0  0  0  0  0
    8.0935  -11.8994   25.5146 C   0  0  2  0  0  0  0  0  0  0  0  0
    7.0302  -12.9715   25.5582 C   0  0  0  0  0  0  0  0  0  0  0  0
    5.7304  -12.4307   26.1326 C   0  0  0  0  0  0  0  0  0  0  0  0
    7.4984  -14.1767   26.3358 C   0  0  2  0  0  0  0  0  0  0  0  0
    8.6193  -14.8538   25.6225 N   0  0  0  0  0  0  0  0  0  0  0  0
    8.1444  -15.2781   24.3197 C   0  0  0  0  0  0  0  0  0  0  0  0
    9.1506  -16.0225   26.3545 O   0  0  0  0  0  0  0  0  0  0  0  0
    9.4673  -15.9153   27.5587 N   0  0  0  0  0  0  0  0  0  0  0  0
    6.4232  -19.2320   25.8892 C   0  0  0  0  0  0  0  0  0  0  0  0
    7.5047  -19.3114   26.8106 O   0  0  0  0  0  0  0  0  0  0  0  0
    7.2384  -19.1619   28.0107 C   0  0  0  0  0  0  0  0  0  0  0  0
    8.8418  -19.5581   26.3133 C   0  0  2  0  0  0  0  0  0  0  0  0
    9.7848  -18.4024   26.4904 N   0  0  0  0  0  0  0  0  0  0  0  0
    9.3028  -17.2517   25.7069 C   0  0  0  0  0  0  0  0  0  0  0  0
   11.1497  -18.6742   25.9489 O   0  0  0  0  0  0  0  0  0  0  0  0
   12.0287  -19.5427   26.5779 O   0  0  0  0  0  0  0  0  0  0  0  0
  1  2  1  0
  2  4  1  0
  3  2  2  0
  4  5  1  0
  5  6  1  0
  7  6  1  0
  8  9  1  1
  8  7  1  0
 10  8  1  0
 11 10  2  0
 13 14  1  1
 13 12  1  0
 15 13  1  0
 16 15  1  6
 16 17  1  0
 17 10  1  0
 18 16  1  0
 18 19  2  0
 21 20  1  0
 21 22  2  0
 23 21  1  0
 24 23  1  1
 24 25  1  0
 25 18  1  0
 26 24  1  0
 27 26  1  0
 28 26  2  0
M  END
$$$$
