RLN.pdb
     RDKit          3D

 28 27  0  0  1  0  0  0  0  0999 V2000
    9.4808  -20.8615   19.6977 N   0  0  0  0  0  0  0  0  0  0  0  0
    8.2276  -20.6944   19.0480 C   0  0  0  0  0  0  0  0  0  0  0  0
    7.6586  -21.7616   18.5962 N   0  0  0  0  0  0  0  0  0  0  0  0
    7.6066  -19.4150   18.8879 N   0  0  0  0  0  0  0  0  0  0  0  0
    8.3513  -18.2330   19.2482 C   0  0  0  0  0  0  0  0  0  0  0  0
    8.5847  -18.1749   20.7659 C   0  0  0  0  0  0  0  0  0  0  0  0
    9.4160  -16.9539   21.0054 C   0  0  0  0  0  0  0  0  0  0  0  0
    8.5696  -15.6770   21.0383 C   0  0  2  0  0  0  0  0  0  0  0  0
    8.9913  -14.7638   20.0030 N   0  0  0  0  0  0  0  0  0  0  0  0
    8.8319  -15.0638   22.3535 C   0  0  0  0  0  0  0  0  0  0  0  0
    9.9862  -14.6945   22.6382 O   0  0  0  0  0  0  0  0  0  0  0  0
    6.7501  -21.7619   18.0833 C   0  0  0  0  0  0  0  0  0  0  0  0
    6.0132  -12.1982   26.9322 C   0  0  1  0  0  0  0  0  0  0  0  0
    7.2433  -12.8804   26.3817 C   0  0  0  0  0  0  0  0  0  0  0  0
    8.4349  -11.9359   26.3712 C   0  0  0  0  0  0  0  0  0  0  0  0
    6.9903  -13.4379   25.0027 C   0  0  2  0  0  0  0  0  0  0  0  0
    8.1103  -14.3308   24.5881 N   0  0  0  0  0  0  0  0  0  0  0  0
    7.7933  -14.8914   23.2888 C   0  0  0  0  0  0  0  0  0  0  0  0
    8.3627  -15.4274   25.5462 O   0  0  0  0  0  0  0  0  0  0  0  0
    7.4039  -16.0082   26.0989 N   0  0  0  0  0  0  0  0  0  0  0  0
    8.9638  -20.2862   26.5013 C   0  0  0  0  0  0  0  0  0  0  0  0
    9.8283  -19.5530   25.6411 O   0  0  0  0  0  0  0  0  0  0  0  0
   10.8351  -20.1370   25.2182 C   0  0  0  0  0  0  0  0  0  0  0  0
    9.4986  -18.1838   25.3058 C   0  0  1  0  0  0  0  0  0  0  0  0
    9.8955  -17.1833   26.3535 N   0  0  0  0  0  0  0  0  0  0  0  0
    9.6711  -15.8207   25.8404 C   0  0  0  0  0  0  0  0  0  0  0  0
   11.3531  -17.2228   26.6763 O   0  0  0  0  0  0  0  0  0  0  0  0
   11.8849  -18.1558   27.5534 O   0  0  0  0  0  0  0  0  0  0  0  0
  1  2  1  0
  2  4  1  0
  3  2  2  0
  4  5  1  0
  5  6  1  0
  7  6  1  0
  8  9  1  6
  8  7  1  0
 10  8  1  0
 11 10  2  0
 13 14  1  6
 13 12  1  0
 15 13  1  0
 16 15  1  6
 16 17  1  0
 17 10  1  0
 18 16  1  0
 18 19  2  0
 21 20  1  0
 21 22  2  0
 23 21  1  0
 24 23  1  1
 24 25  1  0
 25 18  1  0
 26 24  1  0
 27 26  1  0
 28 26  2  0
M  END
$$$$
