RLN.pdb
     RDKit          3D

 28 27  0  0  1  0  0  0  0  0999 V2000
    7.9773  -12.5208   17.3070 N   0  0  0  0  0  0  0  0  0  0  0  0
    7.9331  -13.8119   16.7140 C   0  0  0  0  0  0  0  0  0  0  0  0
    7.3076  -13.9153   15.5894 N   0  0  0  0  0  0  0  0  0  0  0  0
    8.5431  -14.9581   17.3158 N   0  0  0  0  0  0  0  0  0  0  0  0
    9.2513  -14.7926   18.5617 C   0  0  0  0  0  0  0  0  0  0  0  0
    8.3136  -15.0176   19.7581 C   0  0  0  0  0  0  0  0  0  0  0  0
    9.1462  -14.7853   20.9797 C   0  0  0  0  0  0  0  0  0  0  0  0
    8.9599  -15.8913   22.0236 C   0  0  2  0  0  0  0  0  0  0  0  0
    7.5598  -16.2024   22.1868 N   0  0  0  0  0  0  0  0  0  0  0  0
    9.4765  -15.3324   23.2868 C   0  0  0  0  0  0  0  0  0  0  0  0
   10.6757  -15.0087   23.3685 O   0  0  0  0  0  0  0  0  0  0  0  0
    7.2482  -14.7989   15.0377 C   0  0  0  0  0  0  0  0  0  0  0  0
    6.8128  -13.0352   24.3633 C   0  0  2  0  0  0  0  0  0  0  0  0
    6.9486  -13.7498   25.6872 C   0  0  0  0  0  0  0  0  0  0  0  0
    5.9454  -13.2215   26.7002 C   0  0  0  0  0  0  0  0  0  0  0  0
    8.3552  -13.6476   26.2236 C   0  0  1  0  0  0  0  0  0  0  0  0
    9.2089  -14.7309   25.6570 N   0  0  0  0  0  0  0  0  0  0  0  0
    8.6299  -15.1609   24.3990 C   0  0  0  0  0  0  0  0  0  0  0  0
    9.3426  -15.8949   26.5577 O   0  0  0  0  0  0  0  0  0  0  0  0
    9.5323  -15.7209   27.7808 N   0  0  0  0  0  0  0  0  0  0  0  0
    6.2331  -18.8302   26.4243 C   0  0  0  0  0  0  0  0  0  0  0  0
    7.3072  -19.0593   27.3292 O   0  0  0  0  0  0  0  0  0  0  0  0
    7.0638  -18.9440   28.5379 C   0  0  0  0  0  0  0  0  0  0  0  0
    8.6110  -19.4094   26.8063 C   0  0  2  0  0  0  0  0  0  0  0  0
    9.6341  -18.3163   26.9274 N   0  0  0  0  0  0  0  0  0  0  0  0
    9.2589  -17.1942   26.0496 C   0  0  0  0  0  0  0  0  0  0  0  0
   10.9870  -18.7269   26.4468 O   0  0  0  0  0  0  0  0  0  0  0  0
   11.7594  -19.6519   27.1327 O   0  0  0  0  0  0  0  0  0  0  0  0
  1  2  1  0
  2  4  1  0
  3  2  2  0
  4  5  1  0
  5  6  1  0
  7  6  1  0
  8  9  1  1
  8  7  1  0
 10  8  1  0
 11 10  2  0
 13 14  1  1
 13 12  1  0
 15 13  1  0
 16 15  1  6
 16 17  1  0
 17 10  1  0
 18 16  1  0
 18 19  2  0
 21 20  1  0
 21 22  2  0
 23 21  1  0
 24 23  1  1
 24 25  1  0
 25 18  1  0
 26 24  1  0
 27 26  1  0
 28 26  2  0
M  END
$$$$
