RLN.pdb
     RDKit          3D

 28 27  0  0  1  0  0  0  0  0999 V2000
   10.7810  -16.2632   13.2084 N   0  0  0  0  0  0  0  0  0  0  0  0
   12.0300  -16.7388   13.6923 C   0  0  0  0  0  0  0  0  0  0  0  0
   13.0918  -16.2053   13.1876 N   0  0  0  0  0  0  0  0  0  0  0  0
   12.1321  -17.7607   14.6891 N   0  0  0  0  0  0  0  0  0  0  0  0
   11.0444  -17.9309   15.6214 C   0  0  0  0  0  0  0  0  0  0  0  0
   10.8429  -16.6620   16.4643 C   0  0  0  0  0  0  0  0  0  0  0  0
    9.6916  -16.9544   17.3746 C   0  0  0  0  0  0  0  0  0  0  0  0
   10.1505  -17.5283   18.7192 C   0  0  2  0  0  0  0  0  0  0  0  0
    9.1924  -18.4884   19.2129 N   0  0  0  0  0  0  0  0  0  0  0  0
   10.1970  -16.3798   19.6430 C   0  0  0  0  0  0  0  0  0  0  0  0
   11.2554  -15.7365   19.7681 O   0  0  0  0  0  0  0  0  0  0  0  0
   14.0598  -16.5399   13.3864 C   0  0  0  0  0  0  0  0  0  0  0  0
    8.7778  -12.6602   19.2181 C   0  0  2  0  0  0  0  0  0  0  0  0
    7.7748  -13.6846   19.6940 C   0  0  0  0  0  0  0  0  0  0  0  0
    6.3507  -13.2135   19.4448 C   0  0  0  0  0  0  0  0  0  0  0  0
    7.9809  -14.0180   21.1510 C   0  0  2  0  0  0  0  0  0  0  0  0
    9.1700  -14.9019   21.3200 N   0  0  0  0  0  0  0  0  0  0  0  0
    9.0598  -16.0034   20.3834 C   0  0  0  0  0  0  0  0  0  0  0  0
    9.3049  -15.4365   22.6911 O   0  0  0  0  0  0  0  0  0  0  0  0
    9.3242  -14.6567   23.6676 N   0  0  0  0  0  0  0  0  0  0  0  0
    6.2414  -18.2267   23.5485 C   0  0  0  0  0  0  0  0  0  0  0  0
    7.1471  -17.8458   24.5779 O   0  0  0  0  0  0  0  0  0  0  0  0
    6.7178  -17.0876   25.4578 C   0  0  0  0  0  0  0  0  0  0  0  0
    8.5033  -18.3515   24.5503 C   0  0  2  0  0  0  0  0  0  0  0  0
    9.5444  -17.3007   24.2886 N   0  0  0  0  0  0  0  0  0  0  0  0
    9.4122  -16.8136   22.9046 C   0  0  0  0  0  0  0  0  0  0  0  0
   10.9391  -17.8290   24.3644 O   0  0  0  0  0  0  0  0  0  0  0  0
   11.8009  -17.7824   23.2791 O   0  0  0  0  0  0  0  0  0  0  0  0
  1  2  1  0
  2  4  1  0
  3  2  2  0
  4  5  1  0
  5  6  1  0
  7  6  1  0
  8  9  1  1
  8  7  1  0
 10  8  1  0
 11 10  2  0
 13 14  1  1
 13 12  1  0
 15 13  1  0
 16 15  1  6
 16 17  1  0
 17 10  1  0
 18 16  1  0
 18 19  2  0
 21 20  1  0
 21 22  2  0
 23 21  1  0
 24 23  1  1
 24 25  1  0
 25 18  1  0
 26 24  1  0
 27 26  1  0
 28 26  2  0
M  END
$$$$
