VNW.pdb
     RDKit          3D

 30 31  0  0  1  0  0  0  0  0999 V2000
   14.5880  -10.4161  -17.5416 C   0  0  0  0  0  0  0  0  0  0  0  0
   15.1379  -11.2706  -18.6602 C   0  0  1  0  0  0  0  0  0  0  0  0
   14.0493  -12.2740  -19.0071 C   0  0  0  0  0  0  0  0  0  0  0  0
   15.4063  -10.3660  -19.8402 C   0  0  2  0  0  0  0  0  0  0  0  0
   15.8344  -11.1635  -20.9636 N   0  0  0  0  0  0  0  0  0  0  0  0
   16.3980   -9.3424  -19.4930 C   0  0  0  0  0  0  0  0  0  0  0  0
   17.5521   -9.4472  -20.0274 O   0  0  0  0  0  0  0  0  0  0  0  0
   17.5767   -3.5903  -18.4556 N   0  0  0  0  0  0  0  0  0  0  0  0
   17.8489   -4.9713  -18.4736 C   0  0  0  0  0  0  0  0  0  0  0  0
   19.0007   -5.3843  -18.2385 O   0  0  0  0  0  0  0  0  0  0  0  0
   16.7719   -5.9316  -18.7705 C   0  0  0  0  0  0  0  0  0  0  0  0
   17.1450   -7.3213  -18.3040 C   0  0  2  0  0  0  0  0  0  0  0  0
   16.1151   -8.2689  -18.6026 N   0  0  0  0  0  0  0  0  0  0  0  0
   17.5021   -7.3343  -16.8602 C   0  0  0  0  0  0  0  0  0  0  0  0
   16.5657   -7.3312  -16.0381 O   0  0  0  0  0  0  0  0  0  0  0  0
   18.8431   -7.3492  -16.4508 N   0  0  0  0  0  0  0  0  0  0  0  0
   19.3806   -7.3899  -15.1376 C   0  0  1  0  0  0  0  0  0  0  0  0
   19.5087   -8.7945  -14.5309 C   0  0  0  0  0  0  0  0  0  0  0  0
   20.8880   -9.3074  -14.5424 C   0  0  0  0  0  0  0  0  0  0  0  0
   21.9593   -9.0092  -13.7547 C   0  0  0  0  0  0  0  0  0  0  0  0
   23.0476   -9.7437  -14.1273 N   0  0  0  0  0  0  0  0  0  0  0  0
   22.7063  -10.5281  -15.1559 C   0  0  0  0  0  0  0  0  0  0  0  0
   23.4240  -11.4448  -15.8827 C   0  0  0  0  0  0  0  0  0  0  0  0
   22.7707  -12.1088  -16.8987 C   0  0  0  0  0  0  0  0  0  0  0  0
   21.4549  -11.8901  -17.2025 C   0  0  0  0  0  0  0  0  0  0  0  0
   20.7438  -10.9517  -16.4491 C   0  0  0  0  0  0  0  0  0  0  0  0
   21.3685  -10.2724  -15.4290 C   0  0  0  0  0  0  0  0  0  0  0  0
   20.5216   -6.5284  -14.8638 C   0  0  0  0  0  0  0  0  0  0  0  0
   21.1656   -5.9689  -15.8180 O   0  0  0  0  0  0  0  0  0  0  0  0
   21.0006   -6.2430  -13.5930 O   0  0  0  0  0  0  0  0  0  0  0  0
  2  1  1  1
  3  2  1  0
  4  2  1  0
  4  5  1  6
  6  4  1  0
  7  6  2  0
  8  9  1  0
  9 10  2  0
 11  9  1  0
 12 11  1  1
 12 13  1  0
 13  6  1  0
 14 12  1  0
 14 16  1  0
 15 14  2  0
 17 16  1  0
 17 28  1  0
 17 18  1  6
 19 18  1  0
 20 19  2  0
 21 20  1  0
 22 21  1  0
 22 27  2  0
 23 22  1  0
 24 23  2  0
 24 25  1  0
 25 26  2  0
 26 27  1  0
 27 19  1  0
 28 30  1  0
 29 28  2  0
M  END
$$$$
