VNW.pdb
     RDKit          3D

 30 31  0  0  1  0  0  0  0  0999 V2000
   26.7325  -16.4131  -15.7141 C   0  0  0  0  0  0  0  0  0  0  0  0
   27.3890  -17.6321  -16.3199 C   0  0  1  0  0  0  0  0  0  0  0  0
   28.4024  -17.1155  -17.3289 C   0  0  0  0  0  0  0  0  0  0  0  0
   28.0938  -18.3745  -15.2086 C   0  0  2  0  0  0  0  0  0  0  0  0
   29.0847  -19.2548  -15.7782 N   0  0  0  0  0  0  0  0  0  0  0  0
   27.1287  -19.1075  -14.3822 C   0  0  0  0  0  0  0  0  0  0  0  0
   26.2727  -18.4151  -13.7370 O   0  0  0  0  0  0  0  0  0  0  0  0
   24.7404  -24.6002  -13.0862 N   0  0  0  0  0  0  0  0  0  0  0  0
   24.7329  -23.2058  -13.2789 C   0  0  0  0  0  0  0  0  0  0  0  0
   23.8170  -22.5131  -12.7955 O   0  0  0  0  0  0  0  0  0  0  0  0
   25.8086  -22.5624  -14.0530 C   0  0  0  0  0  0  0  0  0  0  0  0
   26.0881  -21.1697  -13.5329 C   0  0  2  0  0  0  0  0  0  0  0  0
   27.1231  -20.5273  -14.2838 N   0  0  0  0  0  0  0  0  0  0  0  0
   26.3922  -21.1821  -12.0770 C   0  0  0  0  0  0  0  0  0  0  0  0
   27.5666  -21.4253  -11.7388 O   0  0  0  0  0  0  0  0  0  0  0  0
   25.3892  -20.9291  -11.1303 N   0  0  0  0  0  0  0  0  0  0  0  0
   25.4588  -20.9792   -9.7134 C   0  0  1  0  0  0  0  0  0  0  0  0
   26.7635  -20.4426   -9.1073 C   0  0  0  0  0  0  0  0  0  0  0  0
   26.7273  -20.3547   -7.6387 C   0  0  0  0  0  0  0  0  0  0  0  0
   25.7281  -20.6221   -6.7514 C   0  0  0  0  0  0  0  0  0  0  0  0
   26.1521  -20.4053   -5.4724 N   0  0  0  0  0  0  0  0  0  0  0  0
   27.4257  -19.9969   -5.5041 C   0  0  0  0  0  0  0  0  0  0  0  0
   28.3007  -19.6568   -4.5030 C   0  0  0  0  0  0  0  0  0  0  0  0
   29.5738  -19.2747   -4.8683 C   0  0  0  0  0  0  0  0  0  0  0  0
   29.9883  -19.2237   -6.1709 C   0  0  0  0  0  0  0  0  0  0  0  0
   29.0799  -19.5742   -7.1739 C   0  0  0  0  0  0  0  0  0  0  0  0
   27.8019  -19.9592   -6.8407 C   0  0  0  0  0  0  0  0  0  0  0  0
   24.2662  -20.5823   -8.9790 C   0  0  0  0  0  0  0  0  0  0  0  0
   24.2316  -20.6433   -7.7010 O   0  0  0  0  0  0  0  0  0  0  0  0
   23.0998  -20.1186   -9.5708 O   0  0  0  0  0  0  0  0  0  0  0  0
  2  1  1  1
  3  2  1  0
  4  2  1  0
  4  5  1  6
  6  4  1  0
  7  6  2  0
  8  9  1  0
  9 10  2  0
 11  9  1  0
 12 11  1  6
 12 13  1  0
 13  6  1  0
 14 12  1  0
 14 16  1  0
 15 14  2  0
 17 16  1  0
 17 28  1  0
 17 18  1  1
 19 18  1  0
 20 19  2  0
 21 20  1  0
 22 21  1  0
 22 27  2  0
 23 22  1  0
 24 23  2  0
 24 25  1  0
 25 26  2  0
 26 27  1  0
 27 19  1  0
 28 30  1  0
 29 28  2  0
M  END
$$$$
