VNW.pdb
     RDKit          3D

 30 31  0  0  1  0  0  0  0  0999 V2000
   21.3115  -10.8643  -19.6101 C   0  0  0  0  0  0  0  0  0  0  0  0
   19.9135  -11.2172  -20.0627 C   0  0  1  0  0  0  0  0  0  0  0  0
   19.9819  -12.6403  -20.5938 C   0  0  0  0  0  0  0  0  0  0  0  0
   19.0098  -11.1565  -18.8534 C   0  0  2  0  0  0  0  0  0  0  0  0
   17.6825  -11.5785  -19.2294 N   0  0  0  0  0  0  0  0  0  0  0  0
   19.0065   -9.8078  -18.2766 C   0  0  0  0  0  0  0  0  0  0  0  0
   18.0703   -9.0218  -18.6430 O   0  0  0  0  0  0  0  0  0  0  0  0
   19.3035   -5.4759  -16.1273 N   0  0  0  0  0  0  0  0  0  0  0  0
   18.2835   -6.4113  -15.8703 C   0  0  0  0  0  0  0  0  0  0  0  0
   17.2163   -6.0431  -15.3432 O   0  0  0  0  0  0  0  0  0  0  0  0
   18.4759   -7.8283  -16.2243 C   0  0  0  0  0  0  0  0  0  0  0  0
   19.8675   -8.0639  -16.7684 C   0  0  2  0  0  0  0  0  0  0  0  0
   19.9905   -9.3666  -17.3479 N   0  0  0  0  0  0  0  0  0  0  0  0
   20.9064   -7.8232  -15.7317 C   0  0  0  0  0  0  0  0  0  0  0  0
   21.2312   -8.7866  -15.0112 O   0  0  0  0  0  0  0  0  0  0  0  0
   21.4910   -6.5579  -15.5791 N   0  0  0  0  0  0  0  0  0  0  0  0
   22.8627   -6.2100  -15.4681 C   0  0  1  0  0  0  0  0  0  0  0  0
   23.8153   -7.0334  -16.3468 C   0  0  0  0  0  0  0  0  0  0  0  0
   24.3549   -8.2196  -15.6632 C   0  0  0  0  0  0  0  0  0  0  0  0
   23.8014   -9.0412  -14.7273 C   0  0  0  0  0  0  0  0  0  0  0  0
   24.6755  -10.0304  -14.3808 N   0  0  0  0  0  0  0  0  0  0  0  0
   25.8047   -9.8722  -15.0805 C   0  0  0  0  0  0  0  0  0  0  0  0
   26.9727  -10.5925  -15.1043 C   0  0  0  0  0  0  0  0  0  0  0  0
   27.9693  -10.1676  -15.9566 C   0  0  0  0  0  0  0  0  0  0  0  0
   27.8370   -9.0724  -16.7655 C   0  0  0  0  0  0  0  0  0  0  0  0
   26.6387   -8.3539  -16.7244 C   0  0  0  0  0  0  0  0  0  0  0  0
   25.6258   -8.7529  -15.8835 C   0  0  0  0  0  0  0  0  0  0  0  0
   23.1832   -4.7905  -15.4290 C   0  0  0  0  0  0  0  0  0  0  0  0
   22.2846   -3.9081  -15.6575 O   0  0  0  0  0  0  0  0  0  0  0  0
   24.4431   -4.2792  -15.1514 O   0  0  0  0  0  0  0  0  0  0  0  0
  2  1  1  1
  3  2  1  0
  4  2  1  0
  4  5  1  6
  6  4  1  0
  7  6  2  0
  8  9  1  0
  9 10  2  0
 11  9  1  0
 12 11  1  1
 12 13  1  0
 13  6  1  0
 14 12  1  0
 14 16  1  0
 15 14  2  0
 17 16  1  0
 17 28  1  0
 17 18  1  6
 19 18  1  0
 20 19  2  0
 21 20  1  0
 22 21  1  0
 22 27  2  0
 23 22  1  0
 24 23  2  0
 24 25  1  0
 25 26  2  0
 26 27  1  0
 27 19  1  0
 28 30  1  0
 29 28  2  0
M  END
$$$$
