VNW.pdb
     RDKit          3D

 30 31  0  0  1  0  0  0  0  0999 V2000
   31.0650  -21.7532   -8.7221 C   0  0  0  0  0  0  0  0  0  0  0  0
   29.9246  -21.3653   -9.6346 C   0  0  1  0  0  0  0  0  0  0  0  0
   30.2417  -19.9690  -10.1461 C   0  0  0  0  0  0  0  0  0  0  0  0
   29.9007  -22.3467  -10.7831 C   0  0  2  0  0  0  0  0  0  0  0  0
   31.1943  -22.3641  -11.4213 N   0  0  0  0  0  0  0  0  0  0  0  0
   28.8333  -22.0088  -11.7308 C   0  0  0  0  0  0  0  0  0  0  0  0
   29.1029  -22.1210  -12.9731 O   0  0  0  0  0  0  0  0  0  0  0  0
   25.4598  -23.1678  -15.0105 N   0  0  0  0  0  0  0  0  0  0  0  0
   25.1704  -23.2622  -13.6362 C   0  0  0  0  0  0  0  0  0  0  0  0
   23.9978  -23.4423  -13.2555 O   0  0  0  0  0  0  0  0  0  0  0  0
   26.2540  -23.1483  -12.6447 C   0  0  0  0  0  0  0  0  0  0  0  0
   26.4377  -21.7113  -12.2095 C   0  0  2  0  0  0  0  0  0  0  0  0
   27.5448  -21.5720  -11.3135 N   0  0  0  0  0  0  0  0  0  0  0  0
   25.1872  -21.1532  -11.6290 C   0  0  0  0  0  0  0  0  0  0  0  0
   25.2427  -20.7121  -10.4649 O   0  0  0  0  0  0  0  0  0  0  0  0
   23.9976  -21.1294  -12.3710 N   0  0  0  0  0  0  0  0  0  0  0  0
   23.0979  -20.0537  -12.5906 C   0  0  1  0  0  0  0  0  0  0  0  0
   23.7616  -18.6948  -12.8557 C   0  0  0  0  0  0  0  0  0  0  0  0
   24.3062  -18.5714  -14.2173 C   0  0  0  0  0  0  0  0  0  0  0  0
   23.6817  -18.4787  -15.4250 C   0  0  0  0  0  0  0  0  0  0  0  0
   24.5975  -18.3709  -16.4312 N   0  0  0  0  0  0  0  0  0  0  0  0
   25.8253  -18.3904  -15.9002 C   0  0  0  0  0  0  0  0  0  0  0  0
   27.0695  -18.3087  -16.4736 C   0  0  0  0  0  0  0  0  0  0  0  0
   28.1639  -18.3528  -15.6367 C   0  0  0  0  0  0  0  0  0  0  0  0
   28.0551  -18.4727  -14.2783 C   0  0  0  0  0  0  0  0  0  0  0  0
   26.7778  -18.5545  -13.7164 C   0  0  0  0  0  0  0  0  0  0  0  0
   25.6662  -18.5140  -14.5258 C   0  0  0  0  0  0  0  0  0  0  0  0
   21.9471  -20.3183  -13.4420 C   0  0  0  0  0  0  0  0  0  0  0  0
   22.0646  -21.0223  -14.5045 O   0  0  0  0  0  0  0  0  0  0  0  0
   20.6642  -19.8513  -13.1928 O   0  0  0  0  0  0  0  0  0  0  0  0
  2  1  1  1
  3  2  1  0
  4  2  1  0
  4  5  1  6
  6  4  1  0
  7  6  2  0
  8  9  1  0
  9 10  2  0
 11  9  1  0
 12 11  1  1
 12 13  1  0
 13  6  1  0
 14 12  1  0
 14 16  1  0
 15 14  2  0
 17 16  1  0
 17 28  1  0
 17 18  1  6
 19 18  1  0
 20 19  2  0
 21 20  1  0
 22 21  1  0
 22 27  2  0
 23 22  1  0
 24 23  2  0
 24 25  1  0
 25 26  2  0
 26 27  1  0
 27 19  1  0
 28 30  1  0
 29 28  2  0
M  END
$$$$
