VNW.pdb
     RDKit          3D

 30 31  0  0  1  0  0  0  0  0999 V2000
   27.9332  -37.2946   -8.4385 C   0  0  0  0  0  0  0  0  0  0  0  0
   28.1842  -37.1637   -6.9540 C   0  0  1  0  0  0  0  0  0  0  0  0
   28.9340  -35.8552   -6.7604 C   0  0  0  0  0  0  0  0  0  0  0  0
   26.8412  -37.1003   -6.2646 C   0  0  2  0  0  0  0  0  0  0  0  0
   26.0568  -36.0391   -6.8475 N   0  0  0  0  0  0  0  0  0  0  0  0
   27.0094  -36.9186   -4.8188 C   0  0  0  0  0  0  0  0  0  0  0  0
   26.9810  -37.9688   -4.0944 O   0  0  0  0  0  0  0  0  0  0  0  0
   29.1409  -35.3185   -0.1489 N   0  0  0  0  0  0  0  0  0  0  0  0
   28.6627  -34.3548   -1.0567 C   0  0  0  0  0  0  0  0  0  0  0  0
   28.2856  -33.2411   -0.6447 O   0  0  0  0  0  0  0  0  0  0  0  0
   28.6072  -34.6613   -2.4966 C   0  0  0  0  0  0  0  0  0  0  0  0
   27.4302  -35.5576   -2.8120 C   0  0  2  0  0  0  0  0  0  0  0  0
   27.1970  -35.6406   -4.2214 N   0  0  0  0  0  0  0  0  0  0  0  0
   26.2090  -35.1329   -2.0769 C   0  0  0  0  0  0  0  0  0  0  0  0
   26.3450  -34.7985   -0.8843 O   0  0  0  0  0  0  0  0  0  0  0  0
   24.9581  -35.1136   -2.7103 N   0  0  0  0  0  0  0  0  0  0  0  0
   24.1522  -34.0027   -3.0724 C   0  0  1  0  0  0  0  0  0  0  0  0
   24.9050  -32.8443   -3.7424 C   0  0  0  0  0  0  0  0  0  0  0  0
   24.5235  -32.6416   -5.1491 C   0  0  0  0  0  0  0  0  0  0  0  0
   23.3124  -32.7259   -5.7681 C   0  0  0  0  0  0  0  0  0  0  0  0
   23.4332  -32.4451   -7.0982 N   0  0  0  0  0  0  0  0  0  0  0  0
   24.7155  -32.1741   -7.3666 C   0  0  0  0  0  0  0  0  0  0  0  0
   25.3518  -31.8328   -8.5337 C   0  0  0  0  0  0  0  0  0  0  0  0
   26.7105  -31.6068   -8.4794 C   0  0  0  0  0  0  0  0  0  0  0  0
   27.4342  -31.7088   -7.3230 C   0  0  0  0  0  0  0  0  0  0  0  0
   26.7651  -32.0579   -6.1464 C   0  0  0  0  0  0  0  0  0  0  0  0
   25.4095  -32.2904   -6.1689 C   0  0  0  0  0  0  0  0  0  0  0  0
   22.8629  -34.2929   -3.6829 C   0  0  0  0  0  0  0  0  0  0  0  0
   21.9272  -33.4196   -3.6873 O   0  0  0  0  0  0  0  0  0  0  0  0
   22.5383  -35.4960   -4.2936 O   0  0  0  0  0  0  0  0  0  0  0  0
  2  1  1  6
  3  2  1  0
  4  2  1  0
  4  5  1  6
  6  4  1  0
  7  6  2  0
  8  9  1  0
  9 10  2  0
 11  9  1  0
 12 11  1  6
 12 13  1  0
 13  6  1  0
 14 12  1  0
 14 16  1  0
 15 14  2  0
 17 16  1  0
 17 28  1  0
 17 18  1  6
 19 18  1  0
 20 19  2  0
 21 20  1  0
 22 21  1  0
 22 27  2  0
 23 22  1  0
 24 23  2  0
 24 25  1  0
 25 26  2  0
 26 27  1  0
 27 19  1  0
 28 30  1  0
 29 28  2  0
M  END
$$$$
