VNW.pdb
     RDKit          3D

 30 31  0  0  1  0  0  0  0  0999 V2000
   28.2974  -16.7400  -15.7590 C   0  0  0  0  0  0  0  0  0  0  0  0
   28.1287  -17.9789  -16.6077 C   0  0  1  0  0  0  0  0  0  0  0  0
   29.4347  -18.1599  -17.3652 C   0  0  0  0  0  0  0  0  0  0  0  0
   27.9018  -19.1467  -15.6763 C   0  0  2  0  0  0  0  0  0  0  0  0
   28.0829  -20.3787  -16.4047 N   0  0  0  0  0  0  0  0  0  0  0  0
   26.5711  -19.0697  -15.0641 C   0  0  0  0  0  0  0  0  0  0  0  0
   26.0041  -17.9266  -15.0488 O   0  0  0  0  0  0  0  0  0  0  0  0
   22.0522  -18.5969  -13.4453 N   0  0  0  0  0  0  0  0  0  0  0  0
   22.2744  -19.4097  -14.5729 C   0  0  0  0  0  0  0  0  0  0  0  0
   21.3178  -19.9835  -15.1279 O   0  0  0  0  0  0  0  0  0  0  0  0
   23.6392  -19.5836  -15.0994 C   0  0  0  0  0  0  0  0  0  0  0  0
   24.5786  -20.0626  -14.0148 C   0  0  2  0  0  0  0  0  0  0  0  0
   25.9163  -20.2021  -14.5034 N   0  0  0  0  0  0  0  0  0  0  0  0
   24.0895  -21.3182  -13.3853 C   0  0  0  0  0  0  0  0  0  0  0  0
   23.1896  -21.9439  -13.9781 O   0  0  0  0  0  0  0  0  0  0  0  0
   24.6266  -21.7713  -12.1718 N   0  0  0  0  0  0  0  0  0  0  0  0
   24.7519  -21.0873  -10.9343 C   0  0  1  0  0  0  0  0  0  0  0  0
   25.8083  -19.9733  -10.9114 C   0  0  0  0  0  0  0  0  0  0  0  0
   27.0626  -20.3772  -10.2563 C   0  0  0  0  0  0  0  0  0  0  0  0
   28.1380  -21.0660  -10.7318 C   0  0  0  0  0  0  0  0  0  0  0  0
   29.0867  -21.2040   -9.7604 N   0  0  0  0  0  0  0  0  0  0  0  0
   28.6493  -20.6110   -8.6437 C   0  0  0  0  0  0  0  0  0  0  0  0
   29.2187  -20.4664   -7.4035 C   0  0  0  0  0  0  0  0  0  0  0  0
   28.5008  -19.7832   -6.4454 C   0  0  0  0  0  0  0  0  0  0  0  0
   27.2622  -19.2534   -6.6835 C   0  0  0  0  0  0  0  0  0  0  0  0
   26.7018  -19.4132   -7.9541 C   0  0  0  0  0  0  0  0  0  0  0  0
   27.3937  -20.0908   -8.9310 C   0  0  0  0  0  0  0  0  0  0  0  0
   23.5184  -20.7378  -10.2449 C   0  0  0  0  0  0  0  0  0  0  0  0
   22.7585  -19.8086  -10.6893 O   0  0  0  0  0  0  0  0  0  0  0  0
   23.0667  -21.3540   -9.0863 O   0  0  0  0  0  0  0  0  0  0  0  0
  2  1  1  1
  3  2  1  0
  4  2  1  0
  4  5  1  6
  6  4  1  0
  7  6  2  0
  8  9  1  0
  9 10  2  0
 11  9  1  0
 12 11  1  6
 12 13  1  0
 13  6  1  0
 14 12  1  0
 14 16  1  0
 15 14  2  0
 17 16  1  0
 17 28  1  0
 17 18  1  6
 19 18  1  0
 20 19  2  0
 21 20  1  0
 22 21  1  0
 22 27  2  0
 23 22  1  0
 24 23  2  0
 24 25  1  0
 25 26  2  0
 26 27  1  0
 27 19  1  0
 28 30  1  0
 29 28  2  0
M  END
$$$$
