VNW.pdb
     RDKit          3D

 30 31  0  0  1  0  0  0  0  0999 V2000
   29.5676  -18.5489  -14.9858 C   0  0  0  0  0  0  0  0  0  0  0  0
   28.5625  -17.6941  -15.7225 C   0  0  1  0  0  0  0  0  0  0  0  0
   29.1010  -17.5204  -17.1338 C   0  0  0  0  0  0  0  0  0  0  0  0
   27.2536  -18.4482  -15.7545 C   0  0  2  0  0  0  0  0  0  0  0  0
   26.4373  -17.9394  -16.8296 N   0  0  0  0  0  0  0  0  0  0  0  0
   26.5684  -18.3513  -14.4612 C   0  0  0  0  0  0  0  0  0  0  0  0
   25.9405  -17.2676  -14.2165 O   0  0  0  0  0  0  0  0  0  0  0  0
   22.4137  -18.4123  -14.3546 N   0  0  0  0  0  0  0  0  0  0  0  0
   23.0645  -19.1592  -13.3544 C   0  0  0  0  0  0  0  0  0  0  0  0
   22.6546  -19.1192  -12.1785 O   0  0  0  0  0  0  0  0  0  0  0  0
   24.2320  -19.9900  -13.6963 C   0  0  0  0  0  0  0  0  0  0  0  0
   25.3916  -19.6975  -12.7701 C   0  0  2  0  0  0  0  0  0  0  0  0
   26.5856  -19.4021  -13.5016 N   0  0  0  0  0  0  0  0  0  0  0  0
   25.6029  -20.8011  -11.7956 C   0  0  0  0  0  0  0  0  0  0  0  0
   25.2400  -21.9436  -12.1359 O   0  0  0  0  0  0  0  0  0  0  0  0
   26.1881  -20.5548  -10.5454 N   0  0  0  0  0  0  0  0  0  0  0  0
   26.3254  -21.4238   -9.4314 C   0  0  1  0  0  0  0  0  0  0  0  0
   27.6484  -21.2925   -8.6636 C   0  0  0  0  0  0  0  0  0  0  0  0
   27.6766  -20.1389   -7.7502 C   0  0  0  0  0  0  0  0  0  0  0  0
   27.0129  -18.9494   -7.7916 C   0  0  0  0  0  0  0  0  0  0  0  0
   27.3462  -18.1769   -6.7170 N   0  0  0  0  0  0  0  0  0  0  0  0
   28.2256  -18.8452   -5.9621 C   0  0  0  0  0  0  0  0  0  0  0  0
   28.8576  -18.5165   -4.7891 C   0  0  0  0  0  0  0  0  0  0  0  0
   29.7213  -19.4434   -4.2460 C   0  0  0  0  0  0  0  0  0  0  0  0
   29.9660  -20.6584   -4.8251 C   0  0  0  0  0  0  0  0  0  0  0  0
   29.3112  -20.9715   -6.0197 C   0  0  0  0  0  0  0  0  0  0  0  0
   28.4438  -20.0667   -6.5865 C   0  0  0  0  0  0  0  0  0  0  0  0
   25.1626  -21.5823   -8.5700 C   0  0  0  0  0  0  0  0  0  0  0  0
   24.0439  -21.0379   -8.8706 O   0  0  0  0  0  0  0  0  0  0  0  0
   25.1565  -22.3095   -7.3881 O   0  0  0  0  0  0  0  0  0  0  0  0
  2  1  1  1
  3  2  1  0
  4  2  1  0
  4  5  1  6
  6  4  1  0
  7  6  2  0
  8  9  1  0
  9 10  2  0
 11  9  1  0
 12 11  1  6
 12 13  1  0
 13  6  1  0
 14 12  1  0
 14 16  1  0
 15 14  2  0
 17 16  1  0
 17 28  1  0
 17 18  1  1
 19 18  1  0
 20 19  2  0
 21 20  1  0
 22 21  1  0
 22 27  2  0
 23 22  1  0
 24 23  2  0
 24 25  1  0
 25 26  2  0
 26 27  1  0
 27 19  1  0
 28 30  1  0
 29 28  2  0
M  END
$$$$
