VNW.pdb
     RDKit          3D

 30 31  0  0  1  0  0  0  0  0999 V2000
   25.1965  -37.0686  -12.9655 C   0  0  0  0  0  0  0  0  0  0  0  0
   25.8486  -36.4526  -11.7494 C   0  0  1  0  0  0  0  0  0  0  0  0
   27.3322  -36.7697  -11.8524 C   0  0  0  0  0  0  0  0  0  0  0  0
   25.6302  -34.9592  -11.8176 C   0  0  2  0  0  0  0  0  0  0  0  0
   26.0986  -34.4673  -13.0903 N   0  0  0  0  0  0  0  0  0  0  0  0
   26.2976  -34.2865  -10.6978 C   0  0  0  0  0  0  0  0  0  0  0  0
   27.3619  -33.6344  -10.9632 O   0  0  0  0  0  0  0  0  0  0  0  0
   23.6387  -31.8733   -8.1688 N   0  0  0  0  0  0  0  0  0  0  0  0
   25.0052  -31.8631   -7.8310 C   0  0  0  0  0  0  0  0  0  0  0  0
   25.6799  -30.8275   -7.9880 O   0  0  0  0  0  0  0  0  0  0  0  0
   25.6406  -33.0774   -7.2907 C   0  0  0  0  0  0  0  0  0  0  0  0
   26.5514  -33.7120   -8.3182 C   0  0  2  0  0  0  0  0  0  0  0  0
   25.8043  -34.3413   -9.3640 N   0  0  0  0  0  0  0  0  0  0  0  0
   27.5133  -34.6542   -7.6864 C   0  0  0  0  0  0  0  0  0  0  0  0
   27.7387  -35.7266   -8.2795 O   0  0  0  0  0  0  0  0  0  0  0  0
   28.1364  -34.3385   -6.4706 N   0  0  0  0  0  0  0  0  0  0  0  0
   29.1662  -35.0323   -5.7828 C   0  0  1  0  0  0  0  0  0  0  0  0
   30.3944  -35.3837   -6.6345 C   0  0  0  0  0  0  0  0  0  0  0  0
   31.3720  -36.2231   -5.9236 C   0  0  0  0  0  0  0  0  0  0  0  0
   31.5692  -37.5715   -5.9362 C   0  0  0  0  0  0  0  0  0  0  0  0
   32.6081  -37.9117   -5.1192 N   0  0  0  0  0  0  0  0  0  0  0  0
   33.1028  -36.7989   -4.5652 C   0  0  0  0  0  0  0  0  0  0  0  0
   34.1383  -36.5986   -3.6870 C   0  0  0  0  0  0  0  0  0  0  0  0
   34.4089  -35.3031   -3.3015 C   0  0  0  0  0  0  0  0  0  0  0  0
   33.6940  -34.2289   -3.7559 C   0  0  0  0  0  0  0  0  0  0  0  0
   32.6436  -34.4568   -4.6496 C   0  0  0  0  0  0  0  0  0  0  0  0
   32.3489  -35.7387   -5.0524 C   0  0  0  0  0  0  0  0  0  0  0  0
   29.4971  -34.5657   -4.4441 C   0  0  0  0  0  0  0  0  0  0  0  0
   29.5631  -33.3145   -4.1827 O   0  0  0  0  0  0  0  0  0  0  0  0
   29.7619  -35.3997   -3.3669 O   0  0  0  0  0  0  0  0  0  0  0  0
  2  1  1  6
  3  2  1  0
  4  2  1  0
  4  5  1  6
  6  4  1  0
  7  6  2  0
  8  9  1  0
  9 10  2  0
 11  9  1  0
 12 11  1  1
 12 13  1  0
 13  6  1  0
 14 12  1  0
 14 16  1  0
 15 14  2  0
 17 16  1  0
 17 28  1  0
 17 18  1  6
 19 18  1  0
 20 19  2  0
 21 20  1  0
 22 21  1  0
 22 27  2  0
 23 22  1  0
 24 23  2  0
 24 25  1  0
 25 26  2  0
 26 27  1  0
 27 19  1  0
 28 30  1  0
 29 28  2  0
M  END
$$$$
