VNW.pdb
     RDKit          3D

 30 31  0  0  1  0  0  0  0  0999 V2000
   30.1165  -16.9992  -17.7721 C   0  0  0  0  0  0  0  0  0  0  0  0
   28.7341  -17.5198  -17.4532 C   0  0  1  0  0  0  0  0  0  0  0  0
   28.1246  -17.9548  -18.7765 C   0  0  0  0  0  0  0  0  0  0  0  0
   28.8916  -18.7108  -16.5369 C   0  0  2  0  0  0  0  0  0  0  0  0
   29.7261  -19.6975  -17.1780 N   0  0  0  0  0  0  0  0  0  0  0  0
   27.5815  -19.2621  -16.1743 C   0  0  0  0  0  0  0  0  0  0  0  0
   26.7714  -18.4838  -15.5689 O   0  0  0  0  0  0  0  0  0  0  0  0
   22.8601  -22.1226  -16.9620 N   0  0  0  0  0  0  0  0  0  0  0  0
   24.0654  -22.6150  -16.4270 C   0  0  0  0  0  0  0  0  0  0  0  0
   24.0438  -23.4727  -15.5236 O   0  0  0  0  0  0  0  0  0  0  0  0
   25.3556  -22.1169  -16.9346 C   0  0  0  0  0  0  0  0  0  0  0  0
   25.9469  -21.0927  -15.9913 C   0  0  2  0  0  0  0  0  0  0  0  0
   27.2025  -20.6014  -16.4707 N   0  0  0  0  0  0  0  0  0  0  0  0
   26.0575  -21.6259  -14.6073 C   0  0  0  0  0  0  0  0  0  0  0  0
   27.0198  -22.3772  -14.3576 O   0  0  0  0  0  0  0  0  0  0  0  0
   25.1105  -21.2903  -13.6291 N   0  0  0  0  0  0  0  0  0  0  0  0
   25.1931  -21.4189  -12.2179 C   0  0  1  0  0  0  0  0  0  0  0  0
   26.5750  -21.1224  -11.6179 C   0  0  0  0  0  0  0  0  0  0  0  0
   26.5184  -20.7162  -10.2046 C   0  0  0  0  0  0  0  0  0  0  0  0
   25.4994  -20.1965   -9.4639 C   0  0  0  0  0  0  0  0  0  0  0  0
   25.9038  -19.9781   -8.1788 N   0  0  0  0  0  0  0  0  0  0  0  0
   27.1835  -20.3499   -8.0608 C   0  0  0  0  0  0  0  0  0  0  0  0
   28.0430  -20.3378   -6.9909 C   0  0  0  0  0  0  0  0  0  0  0  0
   29.3248  -20.8023   -7.1944 C   0  0  0  0  0  0  0  0  0  0  0  0
   29.7624  -21.2670   -8.4044 C   0  0  0  0  0  0  0  0  0  0  0  0
   28.8696  -21.2697   -9.4800 C   0  0  0  0  0  0  0  0  0  0  0  0
   27.5839  -20.8118   -9.3081 C   0  0  0  0  0  0  0  0  0  0  0  0
   24.0891  -20.8767  -11.4393 C   0  0  0  0  0  0  0  0  0  0  0  0
   23.8832  -21.2613  -10.2360 O   0  0  0  0  0  0  0  0  0  0  0  0
   23.1904  -19.9291  -11.9088 O   0  0  0  0  0  0  0  0  0  0  0  0
  2  1  1  6
  3  2  1  0
  4  2  1  0
  4  5  1  6
  6  4  1  0
  7  6  2  0
  8  9  1  0
  9 10  2  0
 11  9  1  0
 12 11  1  6
 12 13  1  0
 13  6  1  0
 14 12  1  0
 14 16  1  0
 15 14  2  0
 17 16  1  0
 17 28  1  0
 17 18  1  1
 19 18  1  0
 20 19  2  0
 21 20  1  0
 22 21  1  0
 22 27  2  0
 23 22  1  0
 24 23  2  0
 24 25  1  0
 25 26  2  0
 26 27  1  0
 27 19  1  0
 28 30  1  0
 29 28  2  0
M  END
$$$$
