VNW.pdb
     RDKit          3D

 30 31  0  0  1  0  0  0  0  0999 V2000
   28.5111  -17.7929  -15.2661 C   0  0  0  0  0  0  0  0  0  0  0  0
   27.2395  -17.2247  -14.6796 C   0  0  1  0  0  0  0  0  0  0  0  0
   27.1646  -15.7778  -15.1408 C   0  0  0  0  0  0  0  0  0  0  0  0
   26.0806  -18.0115  -15.2458 C   0  0  2  0  0  0  0  0  0  0  0  0
   25.0206  -17.1027  -15.6091 N   0  0  0  0  0  0  0  0  0  0  0  0
   25.6228  -19.0221  -14.2863 C   0  0  0  0  0  0  0  0  0  0  0  0
   24.5342  -18.7820  -13.6650 O   0  0  0  0  0  0  0  0  0  0  0  0
   23.8802  -24.0377  -13.1207 N   0  0  0  0  0  0  0  0  0  0  0  0
   25.1482  -23.5267  -12.7854 C   0  0  0  0  0  0  0  0  0  0  0  0
   25.7017  -23.8747  -11.7249 O   0  0  0  0  0  0  0  0  0  0  0  0
   25.8238  -22.5789  -13.6885 C   0  0  0  0  0  0  0  0  0  0  0  0
   25.8021  -21.1793  -13.1152 C   0  0  2  0  0  0  0  0  0  0  0  0
   26.3395  -20.2262  -14.0376 N   0  0  0  0  0  0  0  0  0  0  0  0
   26.4911  -21.1186  -11.7984 C   0  0  0  0  0  0  0  0  0  0  0  0
   27.7194  -20.9087  -11.8033 O   0  0  0  0  0  0  0  0  0  0  0  0
   25.7772  -21.2924  -10.6041 N   0  0  0  0  0  0  0  0  0  0  0  0
   26.1716  -21.0016   -9.2719 C   0  0  1  0  0  0  0  0  0  0  0  0
   27.0181  -19.7312   -9.1072 C   0  0  0  0  0  0  0  0  0  0  0  0
   27.2766  -19.3852   -7.7004 C   0  0  0  0  0  0  0  0  0  0  0  0
   26.6854  -18.4701   -6.8817 C   0  0  0  0  0  0  0  0  0  0  0  0
   27.2508  -18.5019   -5.6399 N   0  0  0  0  0  0  0  0  0  0  0  0
   28.2124  -19.4320   -5.6280 C   0  0  0  0  0  0  0  0  0  0  0  0
   29.0635  -19.8529   -4.6371 C   0  0  0  0  0  0  0  0  0  0  0  0
   29.9567  -20.8569   -4.9444 C   0  0  0  0  0  0  0  0  0  0  0  0
   30.0230  -21.4384   -6.1809 C   0  0  0  0  0  0  0  0  0  0  0  0
   29.1464  -20.9936   -7.1747 C   0  0  0  0  0  0  0  0  0  0  0  0
   28.2441  -19.9927   -6.8986 C   0  0  0  0  0  0  0  0  0  0  0  0
   25.1664  -21.1732   -8.2330 C   0  0  0  0  0  0  0  0  0  0  0  0
   25.4139  -21.8713   -7.1891 O   0  0  0  0  0  0  0  0  0  0  0  0
   23.8949  -20.6187   -8.2738 O   0  0  0  0  0  0  0  0  0  0  0  0
  2  1  1  6
  3  2  1  0
  4  2  1  0
  4  5  1  1
  6  4  1  0
  7  6  2  0
  8  9  1  0
  9 10  2  0
 11  9  1  0
 12 11  1  6
 12 13  1  0
 13  6  1  0
 14 12  1  0
 14 16  1  0
 15 14  2  0
 17 16  1  0
 17 28  1  0
 17 18  1  6
 19 18  1  0
 20 19  2  0
 21 20  1  0
 22 21  1  0
 22 27  2  0
 23 22  1  0
 24 23  2  0
 24 25  1  0
 25 26  2  0
 26 27  1  0
 27 19  1  0
 28 30  1  0
 29 28  2  0
M  END
$$$$
