VNW.pdb
     RDKit          3D

 30 31  0  0  1  0  0  0  0  0999 V2000
   20.5487  -19.0008  -12.8175 C   0  0  0  0  0  0  0  0  0  0  0  0
   20.8467  -19.4143  -11.3948 C   0  0  1  0  0  0  0  0  0  0  0  0
   19.5311  -19.3228  -10.6379 C   0  0  0  0  0  0  0  0  0  0  0  0
   21.3312  -20.8451  -11.4240 C   0  0  2  0  0  0  0  0  0  0  0  0
   21.4326  -21.3409  -10.0730 N   0  0  0  0  0  0  0  0  0  0  0  0
   22.6104  -20.9443  -12.1350 C   0  0  0  0  0  0  0  0  0  0  0  0
   23.6559  -20.5746  -11.5036 O   0  0  0  0  0  0  0  0  0  0  0  0
   24.3297  -24.5673  -14.2174 N   0  0  0  0  0  0  0  0  0  0  0  0
   24.9131  -23.4615  -14.8641 C   0  0  0  0  0  0  0  0  0  0  0  0
   26.1384  -23.4442  -15.0893 O   0  0  0  0  0  0  0  0  0  0  0  0
   24.0755  -22.3219  -15.2765 C   0  0  0  0  0  0  0  0  0  0  0  0
   23.9596  -21.3066  -14.1611 C   0  0  2  0  0  0  0  0  0  0  0  0
   22.7123  -21.4266  -13.4701 N   0  0  0  0  0  0  0  0  0  0  0  0
   24.1815  -19.9226  -14.6584 C   0  0  0  0  0  0  0  0  0  0  0  0
   23.4541  -19.0233  -14.1947 O   0  0  0  0  0  0  0  0  0  0  0  0
   25.1729  -19.6510  -15.6122 N   0  0  0  0  0  0  0  0  0  0  0  0
   25.9199  -18.4614  -15.8170 C   0  0  1  0  0  0  0  0  0  0  0  0
   26.5614  -17.8709  -14.5532 C   0  0  0  0  0  0  0  0  0  0  0  0
   27.6161  -18.7255  -13.9850 C   0  0  0  0  0  0  0  0  0  0  0  0
   28.8776  -18.9988  -14.4223 C   0  0  0  0  0  0  0  0  0  0  0  0
   29.5098  -19.8485  -13.5614 N   0  0  0  0  0  0  0  0  0  0  0  0
   28.6775  -20.1405  -12.5554 C   0  0  0  0  0  0  0  0  0  0  0  0
   28.8291  -20.9340  -11.4460 C   0  0  0  0  0  0  0  0  0  0  0  0
   27.7645  -21.0268  -10.5753 C   0  0  0  0  0  0  0  0  0  0  0  0
   26.5829  -20.3669  -10.7748 C   0  0  0  0  0  0  0  0  0  0  0  0
   26.4511  -19.5645  -11.9118 C   0  0  0  0  0  0  0  0  0  0  0  0
   27.4958  -19.4524  -12.7997 C   0  0  0  0  0  0  0  0  0  0  0  0
   26.7850  -18.4178  -16.9870 C   0  0  0  0  0  0  0  0  0  0  0  0
   27.1467  -19.4949  -17.5764 O   0  0  0  0  0  0  0  0  0  0  0  0
   27.2803  -17.2511  -17.5521 O   0  0  0  0  0  0  0  0  0  0  0  0
  2  1  1  6
  3  2  1  0
  4  2  1  0
  4  5  1  1
  6  4  1  0
  7  6  2  0
  8  9  1  0
  9 10  2  0
 11  9  1  0
 12 11  1  6
 12 13  1  0
 13  6  1  0
 14 12  1  0
 14 16  1  0
 15 14  2  0
 17 16  1  0
 17 28  1  0
 17 18  1  1
 19 18  1  0
 20 19  2  0
 21 20  1  0
 22 21  1  0
 22 27  2  0
 23 22  1  0
 24 23  2  0
 24 25  1  0
 25 26  2  0
 26 27  1  0
 27 19  1  0
 28 30  1  0
 29 28  2  0
M  END
$$$$
