VNW.pdb
     RDKit          3D

 30 31  0  0  1  0  0  0  0  0999 V2000
   27.1674  -17.3072  -14.6163 C   0  0  0  0  0  0  0  0  0  0  0  0
   27.6386  -17.8794  -15.9332 C   0  0  1  0  0  0  0  0  0  0  0  0
   28.6054  -19.0019  -15.5907 C   0  0  0  0  0  0  0  0  0  0  0  0
   26.4309  -18.4346  -16.6515 C   0  0  2  0  0  0  0  0  0  0  0  0
   25.5802  -17.3451  -17.0643 N   0  0  0  0  0  0  0  0  0  0  0  0
   25.7141  -19.3886  -15.7984 C   0  0  0  0  0  0  0  0  0  0  0  0
   24.7681  -18.9260  -15.0776 O   0  0  0  0  0  0  0  0  0  0  0  0
   26.1452  -25.0305  -15.5711 N   0  0  0  0  0  0  0  0  0  0  0  0
   26.0145  -23.6986  -16.0075 C   0  0  0  0  0  0  0  0  0  0  0  0
   26.8790  -23.1972  -16.7516 O   0  0  0  0  0  0  0  0  0  0  0  0
   24.8547  -22.8944  -15.5852 C   0  0  0  0  0  0  0  0  0  0  0  0
   25.3014  -21.6337  -14.8786 C   0  0  2  0  0  0  0  0  0  0  0  0
   26.0370  -20.7740  -15.7547 N   0  0  0  0  0  0  0  0  0  0  0  0
   26.0674  -21.9439  -13.6420 C   0  0  0  0  0  0  0  0  0  0  0  0
   27.3111  -21.9243  -13.7181 O   0  0  0  0  0  0  0  0  0  0  0  0
   25.4064  -22.2456  -12.4428 N   0  0  0  0  0  0  0  0  0  0  0  0
   25.5600  -21.6571  -11.1602 C   0  0  1  0  0  0  0  0  0  0  0  0
   26.7662  -20.7182  -11.0161 C   0  0  0  0  0  0  0  0  0  0  0  0
   26.9374  -20.1998   -9.6494 C   0  0  0  0  0  0  0  0  0  0  0  0
   26.1479  -19.3816   -8.8982 C   0  0  0  0  0  0  0  0  0  0  0  0
   26.7063  -19.1713   -7.6708 N   0  0  0  0  0  0  0  0  0  0  0  0
   27.8603  -19.8447   -7.6013 C   0  0  0  0  0  0  0  0  0  0  0  0
   28.7879  -19.9658   -6.5972 C   0  0  0  0  0  0  0  0  0  0  0  0
   29.8924  -20.7546   -6.8379 C   0  0  0  0  0  0  0  0  0  0  0  0
   30.0926  -21.4097   -8.0221 C   0  0  0  0  0  0  0  0  0  0  0  0
   29.1347  -21.2717   -9.0306 C   0  0  0  0  0  0  0  0  0  0  0  0
   28.0219  -20.4907   -8.8204 C   0  0  0  0  0  0  0  0  0  0  0  0
   24.3540  -21.1637  -10.5110 C   0  0  0  0  0  0  0  0  0  0  0  0
   23.5327  -20.4088  -11.1385 O   0  0  0  0  0  0  0  0  0  0  0  0
   23.9944  -21.4532   -9.2023 O   0  0  0  0  0  0  0  0  0  0  0  0
  2  1  1  1
  3  2  1  0
  4  2  1  0
  4  5  1  1
  6  4  1  0
  7  6  2  0
  8  9  1  0
  9 10  2  0
 11  9  1  0
 12 11  1  6
 12 13  1  0
 13  6  1  0
 14 12  1  0
 14 16  1  0
 15 14  2  0
 17 16  1  0
 17 28  1  0
 17 18  1  6
 19 18  1  0
 20 19  2  0
 21 20  1  0
 22 21  1  0
 22 27  2  0
 23 22  1  0
 24 23  2  0
 24 25  1  0
 25 26  2  0
 26 27  1  0
 27 19  1  0
 28 30  1  0
 29 28  2  0
M  END
$$$$
