VNW.pdb
     RDKit          3D

 30 31  0  0  1  0  0  0  0  0999 V2000
   12.9295  -12.2547    4.2272 C   0  0  0  0  0  0  0  0  0  0  0  0
   11.4419  -12.5096    4.3025 C   0  0  1  0  0  0  0  0  0  0  0  0
   10.7951  -11.5696    3.2975 C   0  0  0  0  0  0  0  0  0  0  0  0
   11.2008  -13.9460    3.9009 C   0  0  2  0  0  0  0  0  0  0  0  0
    9.7820  -14.1714    3.7682 N   0  0  0  0  0  0  0  0  0  0  0  0
   11.8069  -14.8639    4.8714 C   0  0  0  0  0  0  0  0  0  0  0  0
   11.0534  -15.3056    5.8018 O   0  0  0  0  0  0  0  0  0  0  0  0
   12.6310  -18.5351    7.9902 N   0  0  0  0  0  0  0  0  0  0  0  0
   13.3677  -18.4045    6.7978 C   0  0  0  0  0  0  0  0  0  0  0  0
   14.4151  -19.0595    6.6356 O   0  0  0  0  0  0  0  0  0  0  0  0
   12.9016  -17.4926    5.7389 C   0  0  0  0  0  0  0  0  0  0  0  0
   13.6742  -16.1924    5.7684 C   0  0  2  0  0  0  0  0  0  0  0  0
   13.1716  -15.2616    4.8046 N   0  0  0  0  0  0  0  0  0  0  0  0
   15.1342  -16.4219    5.6015 C   0  0  0  0  0  0  0  0  0  0  0  0
   15.5758  -16.4811    4.4378 O   0  0  0  0  0  0  0  0  0  0  0  0
   15.9722  -16.5649    6.7166 N   0  0  0  0  0  0  0  0  0  0  0  0
   17.3849  -16.6938    6.7675 C   0  0  1  0  0  0  0  0  0  0  0  0
   18.1591  -15.7256    5.8616 C   0  0  0  0  0  0  0  0  0  0  0  0
   19.1045  -14.8722    6.5989 C   0  0  0  0  0  0  0  0  0  0  0  0
   19.7616  -15.0750    7.7754 C   0  0  0  0  0  0  0  0  0  0  0  0
   20.5515  -14.0029    8.0743 N   0  0  0  0  0  0  0  0  0  0  0  0
   20.4243  -13.0903    7.1043 C   0  0  0  0  0  0  0  0  0  0  0  0
   21.0004  -11.8570    6.9297 C   0  0  0  0  0  0  0  0  0  0  0  0
   20.6616  -11.1469    5.7978 C   0  0  0  0  0  0  0  0  0  0  0  0
   19.7868  -11.6204    4.8587 C   0  0  0  0  0  0  0  0  0  0  0  0
   19.2121  -12.8791    5.0576 C   0  0  0  0  0  0  0  0  0  0  0  0
   19.5300  -13.6114    6.1779 C   0  0  0  0  0  0  0  0  0  0  0  0
   17.9852  -16.8713    8.0818 C   0  0  0  0  0  0  0  0  0  0  0  0
   17.6017  -16.1667    9.0792 O   0  0  0  0  0  0  0  0  0  0  0  0
   18.9902  -17.7847    8.3672 O   0  0  0  0  0  0  0  0  0  0  0  0
  2  1  1  6
  3  2  1  0
  4  2  1  0
  4  5  1  1
  6  4  1  0
  7  6  2  0
  8  9  1  0
  9 10  2  0
 11  9  1  0
 12 11  1  6
 12 13  1  0
 13  6  1  0
 14 12  1  0
 14 16  1  0
 15 14  2  0
 17 16  1  0
 17 28  1  0
 17 18  1  1
 19 18  1  0
 20 19  2  0
 21 20  1  0
 22 21  1  0
 22 27  2  0
 23 22  1  0
 24 23  2  0
 24 25  1  0
 25 26  2  0
 26 27  1  0
 27 19  1  0
 28 30  1  0
 29 28  2  0
M  END
$$$$
