KPV.pdb
     RDKit          3D

 24 24  0  0  1  0  0  0  0  0999 V2000
   28.5447  -23.1343  -17.8965 N   0  0  0  0  0  0  0  0  0  0  0  0
   27.7438  -21.9595  -17.6830 C   0  0  1  0  0  0  0  0  0  0  0  0
   26.3309  -22.1548  -18.2589 C   0  0  0  0  0  0  0  0  0  0  0  0
   26.1279  -21.1806  -19.4016 C   0  0  0  0  0  0  0  0  0  0  0  0
   26.6182  -21.7153  -20.7060 C   0  0  0  0  0  0  0  0  0  0  0  0
   26.5356  -20.7328  -21.8308 C   0  0  0  0  0  0  0  0  0  0  0  0
   27.0926  -21.3859  -23.0158 N   0  0  0  0  0  0  0  0  0  0  0  0
   27.6807  -21.5679  -16.2656 C   0  0  0  0  0  0  0  0  0  0  0  0
   27.9854  -22.5094  -15.4441 O   0  0  0  0  0  0  0  0  0  0  0  0
   27.3328  -20.3131  -15.7275 N   0  0  0  0  0  0  0  0  0  0  0  0
   26.7904  -19.1939  -16.4218 C   0  0  0  0  0  0  0  0  0  0  0  0
   27.1455  -17.9997  -15.5587 C   0  0  0  0  0  0  0  0  0  0  0  0
   28.0581  -18.5460  -14.4696 C   0  0  0  0  0  0  0  0  0  0  0  0
   27.4512  -19.9439  -14.3362 C   0  0  1  0  0  0  0  0  0  0  0  0
   26.0937  -19.9015  -13.7557 C   0  0  0  0  0  0  0  0  0  0  0  0
   25.0625  -19.8507  -14.4946 O   0  0  0  0  0  0  0  0  0  0  0  0
   25.2800  -19.7191   -9.5568 C   0  0  0  0  0  0  0  0  0  0  0  0
   25.2489  -21.0449  -10.2942 C   0  0  2  0  0  0  0  0  0  0  0  0
   26.5817  -21.6930  -10.1279 C   0  0  0  0  0  0  0  0  0  0  0  0
   24.9086  -20.7533  -11.7366 C   0  0  2  0  0  0  0  0  0  0  0  0
   25.9412  -19.9178  -12.3408 N   0  0  0  0  0  0  0  0  0  0  0  0
   23.6116  -20.0466  -11.7492 C   0  0  0  0  0  0  0  0  0  0  0  0
   23.5746  -18.7056  -12.0635 O   0  0  0  0  0  0  0  0  0  0  0  0
   22.5585  -20.6444  -11.4809 O   0  0  0  0  0  0  0  0  0  0  0  0
  2  1  1  1
  3  2  1  0
  4  3  1  0
  5  4  1  0
  5  6  1  0
  7  6  1  0
  8  2  1  0
  9  8  2  0
 10 11  1  0
 10  8  1  0
 12 11  1  0
 13 12  1  0
 13 14  1  0
 14 10  1  0
 15 16  2  0
 14 15  1  6
 18 17  1  1
 19 18  1  0
 20 18  1  0
 20 21  1  1
 21 15  1  0
 22 20  1  0
 23 22  1  0
 24 22  2  0
M  END
$$$$
