KPV.pdb
     RDKit          3D

 24 24  0  0  1  0  0  0  0  0999 V2000
   25.2922  -20.9088  -17.1314 N   0  0  0  0  0  0  0  0  0  0  0  0
   26.0302  -20.0782  -16.2188 C   0  0  1  0  0  0  0  0  0  0  0  0
   25.2543  -18.7856  -15.9138 C   0  0  0  0  0  0  0  0  0  0  0  0
   25.0374  -18.0267  -17.2073 C   0  0  0  0  0  0  0  0  0  0  0  0
   23.6071  -17.6597  -17.4249 C   0  0  0  0  0  0  0  0  0  0  0  0
   23.3532  -16.9636  -18.7242 C   0  0  0  0  0  0  0  0  0  0  0  0
   21.9061  -16.7803  -18.8399 N   0  0  0  0  0  0  0  0  0  0  0  0
   26.3847  -20.7806  -14.9749 C   0  0  0  0  0  0  0  0  0  0  0  0
   25.5657  -21.7160  -14.6456 O   0  0  0  0  0  0  0  0  0  0  0  0
   27.4887  -20.5466  -14.1315 N   0  0  0  0  0  0  0  0  0  0  0  0
   28.5151  -19.5733  -14.2993 C   0  0  0  0  0  0  0  0  0  0  0  0
   29.6866  -20.1116  -13.5025 C   0  0  0  0  0  0  0  0  0  0  0  0
   29.2669  -21.5066  -13.0603 C   0  0  0  0  0  0  0  0  0  0  0  0
   27.7648  -21.2605  -12.9067 C   0  0  1  0  0  0  0  0  0  0  0  0
   27.4674  -20.3604  -11.7741 C   0  0  0  0  0  0  0  0  0  0  0  0
   27.5743  -19.1004  -11.8881 O   0  0  0  0  0  0  0  0  0  0  0  0
   24.0516  -19.9402   -8.5147 C   0  0  0  0  0  0  0  0  0  0  0  0
   24.8738  -20.8092   -9.4481 C   0  0  2  0  0  0  0  0  0  0  0  0
   24.9828  -22.1643   -8.8350 C   0  0  0  0  0  0  0  0  0  0  0  0
   26.2123  -20.1344   -9.6338 C   0  0  2  0  0  0  0  0  0  0  0  0
   27.0536  -20.9186  -10.5319 N   0  0  0  0  0  0  0  0  0  0  0  0
   26.8445  -20.0354   -8.3026 C   0  0  0  0  0  0  0  0  0  0  0  0
   26.5463  -18.9637   -7.4897 O   0  0  0  0  0  0  0  0  0  0  0  0
   27.6384  -20.9033   -7.9090 O   0  0  0  0  0  0  0  0  0  0  0  0
  2  1  1  6
  3  2  1  0
  4  3  1  0
  5  4  1  0
  5  6  1  0
  7  6  1  0
  8  2  1  0
  9  8  2  0
 10 11  1  0
 10  8  1  0
 12 11  1  0
 13 12  1  0
 13 14  1  0
 14 10  1  0
 15 16  2  0
 14 15  1  1
 18 17  1  1
 19 18  1  0
 20 18  1  0
 20 21  1  6
 21 15  1  0
 22 20  1  0
 23 22  1  0
 24 22  2  0
M  END
$$$$
