KPV.pdb
     RDKit          3D

 24 24  0  0  1  0  0  0  0  0999 V2000
   23.8503  -20.4832  -17.9126 N   0  0  0  0  0  0  0  0  0  0  0  0
   24.7191  -19.6350  -17.1425 C   0  0  1  0  0  0  0  0  0  0  0  0
   23.9877  -18.3489  -16.7219 C   0  0  0  0  0  0  0  0  0  0  0  0
   22.4935  -18.5773  -16.8274 C   0  0  0  0  0  0  0  0  0  0  0  0
   21.8701  -18.9151  -15.5140 C   0  0  0  0  0  0  0  0  0  0  0  0
   20.3901  -19.1211  -15.5832 C   0  0  0  0  0  0  0  0  0  0  0  0
   19.9428  -19.4911  -14.2401 N   0  0  0  0  0  0  0  0  0  0  0  0
   25.2858  -20.3211  -15.9700 C   0  0  0  0  0  0  0  0  0  0  0  0
   24.6608  -21.3936  -15.6333 O   0  0  0  0  0  0  0  0  0  0  0  0
   26.4029  -19.9421  -15.1998 N   0  0  0  0  0  0  0  0  0  0  0  0
   27.1997  -18.7708  -15.3485 C   0  0  0  0  0  0  0  0  0  0  0  0
   28.5273  -19.1277  -14.7105 C   0  0  0  0  0  0  0  0  0  0  0  0
   28.4318  -20.6113  -14.3832 C   0  0  0  0  0  0  0  0  0  0  0  0
   26.9337  -20.6880  -14.0827 C   0  0  1  0  0  0  0  0  0  0  0  0
   26.5837  -19.9673  -12.8419 C   0  0  0  0  0  0  0  0  0  0  0  0
   26.5363  -18.6990  -12.8077 O   0  0  0  0  0  0  0  0  0  0  0  0
   24.2292  -22.0118  -10.1846 C   0  0  0  0  0  0  0  0  0  0  0  0
   24.2072  -20.5132  -10.4214 C   0  0  2  0  0  0  0  0  0  0  0  0
   23.4090  -20.2559  -11.6546 C   0  0  0  0  0  0  0  0  0  0  0  0
   25.6408  -20.0519  -10.5374 C   0  0  2  0  0  0  0  0  0  0  0  0
   26.2945  -20.7109  -11.6634 N   0  0  0  0  0  0  0  0  0  0  0  0
   26.3217  -20.4073   -9.2758 C   0  0  0  0  0  0  0  0  0  0  0  0
   26.0438  -19.6915   -8.1318 O   0  0  0  0  0  0  0  0  0  0  0  0
   27.1383  -21.3399   -9.2342 O   0  0  0  0  0  0  0  0  0  0  0  0
  2  1  1  1
  3  2  1  0
  4  3  1  0
  5  4  1  0
  5  6  1  0
  7  6  1  0
  8  2  1  0
  9  8  2  0
 10 11  1  0
 10  8  1  0
 12 11  1  0
 13 12  1  0
 13 14  1  0
 14 10  1  0
 15 16  2  0
 14 15  1  1
 18 17  1  6
 19 18  1  0
 20 18  1  0
 20 21  1  6
 21 15  1  0
 22 20  1  0
 23 22  1  0
 24 22  2  0
M  END
$$$$
