KPV.pdb
     RDKit          3D

 24 24  0  0  1  0  0  0  0  0999 V2000
   26.8707  -20.7326  -17.4320 N   0  0  0  0  0  0  0  0  0  0  0  0
   26.3114  -21.5757  -16.4105 C   0  0  1  0  0  0  0  0  0  0  0  0
   27.1947  -22.8150  -16.1869 C   0  0  0  0  0  0  0  0  0  0  0  0
   26.4237  -24.0496  -16.6083 C   0  0  0  0  0  0  0  0  0  0  0  0
   26.9016  -24.6097  -17.9066 C   0  0  0  0  0  0  0  0  0  0  0  0
   28.0858  -23.8933  -18.4740 C   0  0  0  0  0  0  0  0  0  0  0  0
   28.3516  -24.4745  -19.7902 N   0  0  0  0  0  0  0  0  0  0  0  0
   26.0875  -20.8585  -15.1449 C   0  0  0  0  0  0  0  0  0  0  0  0
   27.0672  -20.1074  -14.7838 O   0  0  0  0  0  0  0  0  0  0  0  0
   24.9527  -20.9043  -14.3113 N   0  0  0  0  0  0  0  0  0  0  0  0
   23.8537  -21.8068  -14.3943 C   0  0  0  0  0  0  0  0  0  0  0  0
   22.7153  -21.0882  -13.6982 C   0  0  0  0  0  0  0  0  0  0  0  0
   23.2387  -19.6883  -13.4085 C   0  0  0  0  0  0  0  0  0  0  0  0
   24.7127  -20.0321  -13.1855 C   0  0  1  0  0  0  0  0  0  0  0  0
   24.9146  -20.8134  -11.9485 C   0  0  0  0  0  0  0  0  0  0  0  0
   24.5091  -22.0128  -11.8533 O   0  0  0  0  0  0  0  0  0  0  0  0
   26.7902  -19.0460   -8.5135 C   0  0  0  0  0  0  0  0  0  0  0  0
   27.0315  -20.4908   -8.9092 C   0  0  2  0  0  0  0  0  0  0  0  0
   28.2530  -20.5338   -9.7639 C   0  0  0  0  0  0  0  0  0  0  0  0
   25.7926  -20.9780   -9.6228 C   0  0  2  0  0  0  0  0  0  0  0  0
   25.5764  -20.2081  -10.8434 N   0  0  0  0  0  0  0  0  0  0  0  0
   24.6532  -20.7982   -8.7002 C   0  0  0  0  0  0  0  0  0  0  0  0
   24.5145  -21.6456   -7.6228 O   0  0  0  0  0  0  0  0  0  0  0  0
   23.8222  -19.8958   -8.8836 O   0  0  0  0  0  0  0  0  0  0  0  0
  2  1  1  6
  3  2  1  0
  4  3  1  0
  5  4  1  0
  5  6  1  0
  7  6  1  0
  8  2  1  0
  9  8  2  0
 10 11  1  0
 10  8  1  0
 12 11  1  0
 13 12  1  0
 13 14  1  0
 14 10  1  0
 15 16  2  0
 14 15  1  1
 18 17  1  6
 19 18  1  0
 20 18  1  0
 20 21  1  6
 21 15  1  0
 22 20  1  0
 23 22  1  0
 24 22  2  0
M  END
$$$$
