KPV.pdb
     RDKit          3D

 24 24  0  0  1  0  0  0  0  0999 V2000
   18.4616  -12.6969  -16.2509 N   0  0  0  0  0  0  0  0  0  0  0  0
   19.5399  -11.8720  -16.7243 C   0  0  1  0  0  0  0  0  0  0  0  0
   19.0848  -11.0185  -17.9202 C   0  0  0  0  0  0  0  0  0  0  0  0
   17.9185  -11.7076  -18.5992 C   0  0  0  0  0  0  0  0  0  0  0  0
   18.3547  -12.7785  -19.5430 C   0  0  0  0  0  0  0  0  0  0  0  0
   17.2478  -13.3290  -20.3849 C   0  0  0  0  0  0  0  0  0  0  0  0
   17.8225  -14.3890  -21.2139 N   0  0  0  0  0  0  0  0  0  0  0  0
   20.1110  -11.0247  -15.6649 C   0  0  0  0  0  0  0  0  0  0  0  0
   19.2843  -10.7244  -14.7265 O   0  0  0  0  0  0  0  0  0  0  0  0
   21.4235  -10.5215  -15.5703 N   0  0  0  0  0  0  0  0  0  0  0  0
   22.4887  -10.7019  -16.4987 C   0  0  0  0  0  0  0  0  0  0  0  0
   23.7476  -10.4838  -15.6836 C   0  0  0  0  0  0  0  0  0  0  0  0
   23.2776  -10.3574  -14.2411 C   0  0  0  0  0  0  0  0  0  0  0  0
   21.9216   -9.6962  -14.4948 C   0  0  1  0  0  0  0  0  0  0  0  0
   22.0682   -8.3177  -15.0045 C   0  0  0  0  0  0  0  0  0  0  0  0
   22.4843   -8.0915  -16.1825 O   0  0  0  0  0  0  0  0  0  0  0  0
   19.3997   -5.7424  -13.6402 C   0  0  0  0  0  0  0  0  0  0  0  0
   20.1182   -5.5918  -14.9681 C   0  0  2  0  0  0  0  0  0  0  0  0
   19.4827   -6.5262  -15.9414 C   0  0  0  0  0  0  0  0  0  0  0  0
   21.5794   -5.8903  -14.7290 C   0  0  2  0  0  0  0  0  0  0  0  0
   21.7362   -7.2235  -14.1570 N   0  0  0  0  0  0  0  0  0  0  0  0
   22.0894   -4.8712  -13.7893 C   0  0  0  0  0  0  0  0  0  0  0  0
   22.5132   -3.6538  -14.2758 O   0  0  0  0  0  0  0  0  0  0  0  0
   22.1404   -5.0978  -12.5710 O   0  0  0  0  0  0  0  0  0  0  0  0
  2  1  1  1
  3  2  1  0
  4  3  1  0
  5  4  1  0
  5  6  1  0
  7  6  1  0
  8  2  1  0
  9  8  2  0
 10 11  1  0
 10  8  1  0
 12 11  1  0
 13 12  1  0
 13 14  1  0
 14 10  1  0
 15 16  2  0
 14 15  1  6
 18 17  1  1
 19 18  1  0
 20 18  1  0
 20 21  1  1
 21 15  1  0
 22 20  1  0
 23 22  1  0
 24 22  2  0
M  END
$$$$
