KPV.pdb
     RDKit          3D

 24 24  0  0  1  0  0  0  0  0999 V2000
   28.1301  -20.3042  -17.8643 N   0  0  0  0  0  0  0  0  0  0  0  0
   28.1296  -19.5490  -16.6408 C   0  0  1  0  0  0  0  0  0  0  0  0
   27.1594  -18.3594  -16.7384 C   0  0  0  0  0  0  0  0  0  0  0  0
   27.9197  -17.1454  -17.2326 C   0  0  0  0  0  0  0  0  0  0  0  0
   27.7395  -16.9114  -18.6957 C   0  0  0  0  0  0  0  0  0  0  0  0
   26.4220  -16.2990  -19.0515 C   0  0  0  0  0  0  0  0  0  0  0  0
   26.4352  -16.0552  -20.4942 N   0  0  0  0  0  0  0  0  0  0  0  0
   27.8226  -20.3784  -15.4643 C   0  0  0  0  0  0  0  0  0  0  0  0
   26.9711  -21.3161  -15.6876 O   0  0  0  0  0  0  0  0  0  0  0  0
   28.3430  -20.2601  -14.1604 N   0  0  0  0  0  0  0  0  0  0  0  0
   29.2640  -19.2848  -13.6812 C   0  0  0  0  0  0  0  0  0  0  0  0
   29.9059  -19.9282  -12.4684 C   0  0  0  0  0  0  0  0  0  0  0  0
   29.3939  -21.3618  -12.4536 C   0  0  0  0  0  0  0  0  0  0  0  0
   28.0060  -21.1199  -13.0499 C   0  0  1  0  0  0  0  0  0  0  0  0
   27.1361  -20.3604  -12.1292 C   0  0  0  0  0  0  0  0  0  0  0  0
   27.2904  -19.1121  -11.9561 O   0  0  0  0  0  0  0  0  0  0  0  0
   23.4477  -21.9128  -11.9223 C   0  0  0  0  0  0  0  0  0  0  0  0
   23.7823  -20.4353  -11.8359 C   0  0  2  0  0  0  0  0  0  0  0  0
   24.0607  -19.9471  -13.2172 C   0  0  0  0  0  0  0  0  0  0  0  0
   24.9655  -20.2923  -10.9080 C   0  0  2  0  0  0  0  0  0  0  0  0
   26.1058  -21.0430  -11.4233 N   0  0  0  0  0  0  0  0  0  0  0  0
   24.5600  -20.8248   -9.5913 C   0  0  0  0  0  0  0  0  0  0  0  0
   25.0517  -22.0420   -9.1729 O   0  0  0  0  0  0  0  0  0  0  0  0
   23.7843  -20.1909   -8.8600 O   0  0  0  0  0  0  0  0  0  0  0  0
  2  1  1  6
  3  2  1  0
  4  3  1  0
  5  4  1  0
  5  6  1  0
  7  6  1  0
  8  2  1  0
  9  8  2  0
 10 11  1  0
 10  8  1  0
 12 11  1  0
 13 12  1  0
 13 14  1  0
 14 10  1  0
 15 16  2  0
 14 15  1  1
 18 17  1  6
 19 18  1  0
 20 18  1  0
 20 21  1  6
 21 15  1  0
 22 20  1  0
 23 22  1  0
 24 22  2  0
M  END
$$$$
