KPV.pdb
     RDKit          3D

 24 24  0  0  1  0  0  0  0  0999 V2000
   25.3053  -17.6607  -14.3161 N   0  0  0  0  0  0  0  0  0  0  0  0
   26.2763  -18.5315  -13.7110 C   0  0  1  0  0  0  0  0  0  0  0  0
   27.6944  -17.9585  -13.8741 C   0  0  0  0  0  0  0  0  0  0  0  0
   28.0192  -17.8660  -15.3513 C   0  0  0  0  0  0  0  0  0  0  0  0
   28.4215  -19.1798  -15.9342 C   0  0  0  0  0  0  0  0  0  0  0  0
   28.8285  -19.1036  -17.3715 C   0  0  0  0  0  0  0  0  0  0  0  0
   29.2114  -20.4543  -17.7837 N   0  0  0  0  0  0  0  0  0  0  0  0
   25.9840  -18.8075  -12.2951 C   0  0  0  0  0  0  0  0  0  0  0  0
   25.5913  -17.7806  -11.6276 O   0  0  0  0  0  0  0  0  0  0  0  0
   26.0854  -20.0356  -11.6122 N   0  0  0  0  0  0  0  0  0  0  0  0
   26.6957  -21.2361  -12.0762 C   0  0  0  0  0  0  0  0  0  0  0  0
   26.0419  -22.3361  -11.2641 C   0  0  0  0  0  0  0  0  0  0  0  0
   24.9300  -21.6528  -10.4804 C   0  0  0  0  0  0  0  0  0  0  0  0
   25.5916  -20.2882  -10.2787 C   0  0  1  0  0  0  0  0  0  0  0  0
   26.7512  -20.3680   -9.3675 C   0  0  0  0  0  0  0  0  0  0  0  0
   27.8604  -20.8507   -9.7534 O   0  0  0  0  0  0  0  0  0  0  0  0
   26.4910  -18.6721   -5.4919 C   0  0  0  0  0  0  0  0  0  0  0  0
   27.8060  -18.7344   -6.2465 C   0  0  2  0  0  0  0  0  0  0  0  0
   27.9531  -17.4655   -7.0162 C   0  0  0  0  0  0  0  0  0  0  0  0
   27.7645  -19.9600   -7.1283 C   0  0  2  0  0  0  0  0  0  0  0  0
   26.6204  -19.8944   -8.0317 N   0  0  0  0  0  0  0  0  0  0  0  0
   27.6458  -21.1363   -6.2429 C   0  0  0  0  0  0  0  0  0  0  0  0
   28.6941  -21.4664   -5.4119 O   0  0  0  0  0  0  0  0  0  0  0  0
   26.6165  -21.8284   -6.2387 O   0  0  0  0  0  0  0  0  0  0  0  0
  2  1  1  1
  3  2  1  0
  4  3  1  0
  5  4  1  0
  5  6  1  0
  7  6  1  0
  8  2  1  0
  9  8  2  0
 10 11  1  0
 10  8  1  0
 12 11  1  0
 13 12  1  0
 13 14  1  0
 14 10  1  0
 15 16  2  0
 14 15  1  1
 18 17  1  6
 19 18  1  0
 20 18  1  0
 20 21  1  6
 21 15  1  0
 22 20  1  0
 23 22  1  0
 24 22  2  0
M  END
$$$$
