KPV.pdb
     RDKit          3D

 24 24  0  0  1  0  0  0  0  0999 V2000
   19.7313  -13.0125  -16.9652 N   0  0  0  0  0  0  0  0  0  0  0  0
   19.6888  -11.6666  -17.4690 C   0  0  1  0  0  0  0  0  0  0  0  0
   18.2430  -11.1422  -17.4930 C   0  0  0  0  0  0  0  0  0  0  0  0
   17.2947  -12.3213  -17.5737 C   0  0  0  0  0  0  0  0  0  0  0  0
   16.0732  -12.1342  -16.7367 C   0  0  0  0  0  0  0  0  0  0  0  0
   15.0520  -13.2134  -16.9089 C   0  0  0  0  0  0  0  0  0  0  0  0
   13.9504  -12.9151  -15.9932 N   0  0  0  0  0  0  0  0  0  0  0  0
   20.5634  -10.7530  -16.7162 C   0  0  0  0  0  0  0  0  0  0  0  0
   20.8056  -11.1286  -15.5102 O   0  0  0  0  0  0  0  0  0  0  0  0
   21.1454   -9.5487  -17.1588 N   0  0  0  0  0  0  0  0  0  0  0  0
   20.9006   -8.8689  -18.3864 C   0  0  0  0  0  0  0  0  0  0  0  0
   22.1366   -8.0199  -18.6066 C   0  0  0  0  0  0  0  0  0  0  0  0
   23.1118   -8.4358  -17.5141 C   0  0  0  0  0  0  0  0  0  0  0  0
   22.1020   -8.7646  -16.4130 C   0  0  1  0  0  0  0  0  0  0  0  0
   21.4157   -7.5548  -15.9163 C   0  0  0  0  0  0  0  0  0  0  0  0
   20.4359   -7.0481  -16.5450 O   0  0  0  0  0  0  0  0  0  0  0  0
   21.6900   -6.9267  -11.8855 C   0  0  0  0  0  0  0  0  0  0  0  0
   20.4878   -6.5599  -12.7356 C   0  0  2  0  0  0  0  0  0  0  0  0
   19.6736   -7.7935  -12.9340 C   0  0  0  0  0  0  0  0  0  0  0  0
   21.0080   -5.9797  -14.0295 C   0  0  2  0  0  0  0  0  0  0  0  0
   21.8631   -6.9469  -14.7097 N   0  0  0  0  0  0  0  0  0  0  0  0
   21.7817   -4.7683  -13.6897 C   0  0  0  0  0  0  0  0  0  0  0  0
   21.1221   -3.5718  -13.5112 O   0  0  0  0  0  0  0  0  0  0  0  0
   23.0147   -4.8152  -13.5636 O   0  0  0  0  0  0  0  0  0  0  0  0
  2  1  1  1
  3  2  1  0
  4  3  1  0
  5  4  1  0
  5  6  1  0
  7  6  1  0
  8  2  1  0
  9  8  2  0
 10 11  1  0
 10  8  1  0
 12 11  1  0
 13 12  1  0
 13 14  1  0
 14 10  1  0
 15 16  2  0
 14 15  1  6
 18 17  1  1
 19 18  1  0
 20 18  1  0
 20 21  1  1
 21 15  1  0
 22 20  1  0
 23 22  1  0
 24 22  2  0
M  END
$$$$
