KPV.pdb
     RDKit          3D

 24 24  0  0  1  0  0  0  0  0999 V2000
   24.9036  -22.4904  -13.0261 N   0  0  0  0  0  0  0  0  0  0  0  0
   25.6913  -21.4006  -12.5170 C   0  0  1  0  0  0  0  0  0  0  0  0
   24.8164  -20.1541  -12.3007 C   0  0  0  0  0  0  0  0  0  0  0  0
   24.8589  -19.3015  -13.5526 C   0  0  0  0  0  0  0  0  0  0  0  0
   23.6779  -19.5226  -14.4382 C   0  0  0  0  0  0  0  0  0  0  0  0
   22.3635  -19.3843  -13.7377 C   0  0  0  0  0  0  0  0  0  0  0  0
   21.3172  -19.5541  -14.7463 N   0  0  0  0  0  0  0  0  0  0  0  0
   26.4135  -21.7525  -11.2838 C   0  0  0  0  0  0  0  0  0  0  0  0
   25.7797  -22.5659  -10.5151 O   0  0  0  0  0  0  0  0  0  0  0  0
   27.6837  -21.3083  -10.8661 N   0  0  0  0  0  0  0  0  0  0  0  0
   28.5448  -20.3937  -11.5377 C   0  0  0  0  0  0  0  0  0  0  0  0
   29.9281  -20.7094  -11.0051 C   0  0  0  0  0  0  0  0  0  0  0  0
   29.7571  -21.9596  -10.1535 C   0  0  0  0  0  0  0  0  0  0  0  0
   28.3394  -21.7002   -9.6404 C   0  0  1  0  0  0  0  0  0  0  0  0
   28.2922  -20.5553   -8.7085 C   0  0  0  0  0  0  0  0  0  0  0  0
   28.1439  -19.3674   -9.1313 O   0  0  0  0  0  0  0  0  0  0  0  0
   28.0810  -21.3107   -4.5223 C   0  0  0  0  0  0  0  0  0  0  0  0
   27.2774  -20.2348   -5.2287 C   0  0  2  0  0  0  0  0  0  0  0  0
   25.9938  -20.8444   -5.6812 C   0  0  0  0  0  0  0  0  0  0  0  0
   28.1203  -19.7153   -6.3693 C   0  0  2  0  0  0  0  0  0  0  0  0
   28.4158  -20.7907   -7.3103 N   0  0  0  0  0  0  0  0  0  0  0  0
   29.3727  -19.1902   -5.7884 C   0  0  0  0  0  0  0  0  0  0  0  0
   29.3480  -18.0058   -5.0849 O   0  0  0  0  0  0  0  0  0  0  0  0
   30.4433  -19.8012   -5.9260 O   0  0  0  0  0  0  0  0  0  0  0  0
  2  1  1  1
  3  2  1  0
  4  3  1  0
  5  4  1  0
  5  6  1  0
  7  6  1  0
  8  2  1  0
  9  8  2  0
 10 11  1  0
 10  8  1  0
 12 11  1  0
 13 12  1  0
 13 14  1  0
 14 10  1  0
 15 16  2  0
 14 15  1  1
 18 17  1  6
 19 18  1  0
 20 18  1  0
 20 21  1  6
 21 15  1  0
 22 20  1  0
 23 22  1  0
 24 22  2  0
M  END
$$$$
