KPV.pdb
     RDKit          3D

 24 24  0  0  1  0  0  0  0  0999 V2000
   23.3947  -17.6972  -16.7555 N   0  0  0  0  0  0  0  0  0  0  0  0
   23.8750  -19.0205  -16.4629 C   0  0  1  0  0  0  0  0  0  0  0  0
   25.2814  -19.2287  -17.0499 C   0  0  0  0  0  0  0  0  0  0  0  0
   25.7201  -17.9517  -17.7376 C   0  0  0  0  0  0  0  0  0  0  0  0
   26.2332  -16.9300  -16.7783 C   0  0  0  0  0  0  0  0  0  0  0  0
   26.8480  -15.7368  -17.4384 C   0  0  0  0  0  0  0  0  0  0  0  0
   27.2627  -14.8213  -16.3750 N   0  0  0  0  0  0  0  0  0  0  0  0
   23.8602  -19.3220  -15.0224 C   0  0  0  0  0  0  0  0  0  0  0  0
   23.6228  -18.3042  -14.2728 O   0  0  0  0  0  0  0  0  0  0  0  0
   24.0720  -20.5654  -14.3946 N   0  0  0  0  0  0  0  0  0  0  0  0
   24.4925  -21.7823  -15.0041 C   0  0  0  0  0  0  0  0  0  0  0  0
   24.0116  -22.8679  -14.0622 C   0  0  0  0  0  0  0  0  0  0  0  0
   23.1617  -22.1521  -13.0216 C   0  0  0  0  0  0  0  0  0  0  0  0
   23.9141  -20.8206  -12.9819 C   0  0  1  0  0  0  0  0  0  0  0  0
   25.2589  -20.9658  -12.3888 C   0  0  0  0  0  0  0  0  0  0  0  0
   26.2508  -21.3385  -13.0883 O   0  0  0  0  0  0  0  0  0  0  0  0
   25.8060  -20.3091   -8.2568 C   0  0  0  0  0  0  0  0  0  0  0  0
   26.7689  -19.6612   -9.2342 C   0  0  2  0  0  0  0  0  0  0  0  0
   26.2952  -18.2705   -9.4903 C   0  0  0  0  0  0  0  0  0  0  0  0
   26.7945  -20.5163  -10.4791 C   0  0  2  0  0  0  0  0  0  0  0  0
   25.4440  -20.6822  -11.0064 N   0  0  0  0  0  0  0  0  0  0  0  0
   27.3569  -21.8287  -10.1008 C   0  0  0  0  0  0  0  0  0  0  0  0
   28.7034  -21.9350   -9.8290 O   0  0  0  0  0  0  0  0  0  0  0  0
   26.6333  -22.8332  -10.0252 O   0  0  0  0  0  0  0  0  0  0  0  0
  2  1  1  1
  3  2  1  0
  4  3  1  0
  5  4  1  0
  5  6  1  0
  7  6  1  0
  8  2  1  0
  9  8  2  0
 10 11  1  0
 10  8  1  0
 12 11  1  0
 13 12  1  0
 13 14  1  0
 14 10  1  0
 15 16  2  0
 14 15  1  1
 18 17  1  1
 19 18  1  0
 20 18  1  0
 20 21  1  1
 21 15  1  0
 22 20  1  0
 23 22  1  0
 24 22  2  0
M  END
$$$$
