KPV.pdb
     RDKit          3D

 24 24  0  0  1  0  0  0  0  0999 V2000
   21.5577  -16.9392  -15.2523 N   0  0  0  0  0  0  0  0  0  0  0  0
   22.1279  -15.9062  -16.0739 C   0  0  1  0  0  0  0  0  0  0  0  0
   21.2656  -15.6716  -17.3259 C   0  0  0  0  0  0  0  0  0  0  0  0
   20.7114  -17.0012  -17.7962 C   0  0  0  0  0  0  0  0  0  0  0  0
   19.2456  -17.1326  -17.5477 C   0  0  0  0  0  0  0  0  0  0  0  0
   18.6145  -18.2897  -18.2550 C   0  0  0  0  0  0  0  0  0  0  0  0
   17.2183  -18.3508  -17.8215 N   0  0  0  0  0  0  0  0  0  0  0  0
   22.3345  -14.6481  -15.3386 C   0  0  0  0  0  0  0  0  0  0  0  0
   21.5204  -14.4698  -14.3590 O   0  0  0  0  0  0  0  0  0  0  0  0
   23.2964  -13.6484  -15.5840 N   0  0  0  0  0  0  0  0  0  0  0  0
   24.2671  -13.6184  -16.6260 C   0  0  0  0  0  0  0  0  0  0  0  0
   25.3549  -12.6984  -16.1090 C   0  0  0  0  0  0  0  0  0  0  0  0
   24.9761  -12.3965  -14.6658 C   0  0  0  0  0  0  0  0  0  0  0  0
   23.4537  -12.4387  -14.8107 C   0  0  1  0  0  0  0  0  0  0  0  0
   22.9459  -11.3099  -15.6164 C   0  0  0  0  0  0  0  0  0  0  0  0
   23.1016  -11.2769  -16.8761 O   0  0  0  0  0  0  0  0  0  0  0  0
   19.6406   -9.5000  -14.2262 C   0  0  0  0  0  0  0  0  0  0  0  0
   20.0439   -9.5585  -15.6878 C   0  0  2  0  0  0  0  0  0  0  0  0
   19.6865  -10.9097  -16.2080 C   0  0  0  0  0  0  0  0  0  0  0  0
   21.5246   -9.2688  -15.7611 C   0  0  2  0  0  0  0  0  0  0  0  0
   22.2697  -10.2396  -14.9662 N   0  0  0  0  0  0  0  0  0  0  0  0
   21.7343   -7.9075  -15.2277 C   0  0  0  0  0  0  0  0  0  0  0  0
   22.2401   -7.7494  -13.9558 O   0  0  0  0  0  0  0  0  0  0  0  0
   21.4611   -6.9079  -15.9092 O   0  0  0  0  0  0  0  0  0  0  0  0
  2  1  1  1
  3  2  1  0
  4  3  1  0
  5  4  1  0
  5  6  1  0
  7  6  1  0
  8  2  1  0
  9  8  2  0
 10 11  1  0
 10  8  1  0
 12 11  1  0
 13 12  1  0
 13 14  1  0
 14 10  1  0
 15 16  2  0
 14 15  1  6
 18 17  1  1
 19 18  1  0
 20 18  1  0
 20 21  1  1
 21 15  1  0
 22 20  1  0
 23 22  1  0
 24 22  2  0
M  END
$$$$
