KPV.pdb
     RDKit          3D

 24 24  0  0  1  0  0  0  0  0999 V2000
   23.7438  -21.4957  -18.1936 N   0  0  0  0  0  0  0  0  0  0  0  0
   23.2623  -22.1489  -17.0066 C   0  0  1  0  0  0  0  0  0  0  0  0
   24.0286  -23.4596  -16.7604 C   0  0  0  0  0  0  0  0  0  0  0  0
   23.2302  -24.6107  -17.3380 C   0  0  0  0  0  0  0  0  0  0  0  0
   23.7881  -25.9427  -16.9613 C   0  0  0  0  0  0  0  0  0  0  0  0
   24.5849  -26.5929  -18.0475 C   0  0  0  0  0  0  0  0  0  0  0  0
   25.0002  -27.9053  -17.5514 N   0  0  0  0  0  0  0  0  0  0  0  0
   23.3190  -21.2797  -15.8201 C   0  0  0  0  0  0  0  0  0  0  0  0
   24.2986  -20.4463  -15.8231 O   0  0  0  0  0  0  0  0  0  0  0  0
   22.4448  -21.2625  -14.7154 N   0  0  0  0  0  0  0  0  0  0  0  0
   21.3779  -22.1657  -14.4418 C   0  0  0  0  0  0  0  0  0  0  0  0
   20.4515  -21.3958  -13.5220 C   0  0  0  0  0  0  0  0  0  0  0  0
   21.0096  -19.9801  -13.4797 C   0  0  0  0  0  0  0  0  0  0  0  0
   22.4957  -20.3108  -13.6302 C   0  0  1  0  0  0  0  0  0  0  0  0
   23.0293  -21.0017  -12.4388 C   0  0  0  0  0  0  0  0  0  0  0  0
   22.5438  -22.1069  -12.0455 O   0  0  0  0  0  0  0  0  0  0  0  0
   26.8761  -19.9161  -11.2321 C   0  0  0  0  0  0  0  0  0  0  0  0
   26.3105  -21.3239  -11.2069 C   0  0  2  0  0  0  0  0  0  0  0  0
   26.4710  -21.9065  -12.5704 C   0  0  0  0  0  0  0  0  0  0  0  0
   24.8675  -21.2248  -10.7720 C   0  0  2  0  0  0  0  0  0  0  0  0
   24.1083  -20.4153  -11.7194 N   0  0  0  0  0  0  0  0  0  0  0  0
   24.8520  -20.5926   -9.4371 C   0  0  0  0  0  0  0  0  0  0  0  0
   24.4656  -19.2757   -9.3164 O   0  0  0  0  0  0  0  0  0  0  0  0
   25.1818  -21.2316   -8.4265 O   0  0  0  0  0  0  0  0  0  0  0  0
  2  1  1  6
  3  2  1  0
  4  3  1  0
  5  4  1  0
  5  6  1  0
  7  6  1  0
  8  2  1  0
  9  8  2  0
 10 11  1  0
 10  8  1  0
 12 11  1  0
 13 12  1  0
 13 14  1  0
 14 10  1  0
 15 16  2  0
 14 15  1  1
 18 17  1  6
 19 18  1  0
 20 18  1  0
 20 21  1  6
 21 15  1  0
 22 20  1  0
 23 22  1  0
 24 22  2  0
M  END
$$$$
