KPV.pdb
     RDKit          3D

 24 24  0  0  1  0  0  0  0  0999 V2000
   16.5096  -14.1589  -18.4047 N   0  0  0  0  0  0  0  0  0  0  0  0
   16.6598  -13.5192  -17.1258 C   0  0  1  0  0  0  0  0  0  0  0  0
   17.6472  -14.3000  -16.2418 C   0  0  0  0  0  0  0  0  0  0  0  0
   17.0798  -15.6790  -15.9724 C   0  0  0  0  0  0  0  0  0  0  0  0
   17.9143  -16.4669  -15.0182 C   0  0  0  0  0  0  0  0  0  0  0  0
   17.3919  -17.8432  -14.7532 C   0  0  0  0  0  0  0  0  0  0  0  0
   18.3675  -18.5174  -13.8961 N   0  0  0  0  0  0  0  0  0  0  0  0
   17.0657  -12.1092  -17.2428 C   0  0  0  0  0  0  0  0  0  0  0  0
   17.7141  -11.8345  -18.3191 O   0  0  0  0  0  0  0  0  0  0  0  0
   16.8294  -11.0606  -16.3321 N   0  0  0  0  0  0  0  0  0  0  0  0
   16.2351  -11.1530  -15.0408 C   0  0  0  0  0  0  0  0  0  0  0  0
   15.7071   -9.7600  -14.7623 C   0  0  0  0  0  0  0  0  0  0  0  0
   15.9037   -8.9870  -16.0589 C   0  0  0  0  0  0  0  0  0  0  0  0
   17.1782   -9.6761  -16.5502 C   0  0  1  0  0  0  0  0  0  0  0  0
   18.3408   -9.3560  -15.6973 C   0  0  0  0  0  0  0  0  0  0  0  0
   18.5997  -10.0333  -14.6551 O   0  0  0  0  0  0  0  0  0  0  0  0
   22.8961   -7.7824  -16.2346 C   0  0  0  0  0  0  0  0  0  0  0  0
   21.4691   -7.7814  -16.7504 C   0  0  2  0  0  0  0  0  0  0  0  0
   21.1425   -6.3948  -17.1917 C   0  0  0  0  0  0  0  0  0  0  0  0
   20.5820   -8.2701  -15.6298 C   0  0  2  0  0  0  0  0  0  0  0  0
   19.1853   -8.2669  -16.0525 N   0  0  0  0  0  0  0  0  0  0  0  0
   20.7691   -7.3526  -14.4875 C   0  0  0  0  0  0  0  0  0  0  0  0
   21.8707   -7.5014  -13.6733 O   0  0  0  0  0  0  0  0  0  0  0  0
   19.9486   -6.4525  -14.2532 O   0  0  0  0  0  0  0  0  0  0  0  0
  2  1  1  6
  3  2  1  0
  4  3  1  0
  5  4  1  0
  5  6  1  0
  7  6  1  0
  8  2  1  0
  9  8  2  0
 10 11  1  0
 10  8  1  0
 12 11  1  0
 13 12  1  0
 13 14  1  0
 14 10  1  0
 15 16  2  0
 14 15  1  1
 18 17  1  1
 19 18  1  0
 20 18  1  0
 20 21  1  6
 21 15  1  0
 22 20  1  0
 23 22  1  0
 24 22  2  0
M  END
$$$$
