VRR.pdb
     RDKit          3D

 30 29  0  0  1  0  0  0  0  0999 V2000
   17.4432  -27.6169   -6.5280 C   0  0  0  0  0  0  0  0  0  0  0  0
   17.3566  -26.7615   -7.7853 C   0  0  1  0  0  0  0  0  0  0  0  0
   16.0565  -26.0344   -7.8736 C   0  0  0  0  0  0  0  0  0  0  0  0
   18.5780  -25.8733   -7.9123 C   0  0  2  0  0  0  0  0  0  0  0  0
   18.4815  -24.9385   -6.7791 N   0  0  0  0  0  0  0  0  0  0  0  0
   18.5435  -25.0534   -9.1443 C   0  0  0  0  0  0  0  0  0  0  0  0
   17.9555  -23.9438   -9.1336 O   0  0  0  0  0  0  0  0  0  0  0  0
   23.5837  -26.3245  -15.9209 N   0  0  0  0  0  0  0  0  0  0  0  0
   23.6636  -25.7157  -14.6443 C   0  0  0  0  0  0  0  0  0  0  0  0
   24.7998  -25.5635  -14.0657 N   0  0  0  0  0  0  0  0  0  0  0  0
   22.4663  -25.2716  -14.0054 N   0  0  0  0  0  0  0  0  0  0  0  0
   21.1939  -25.3540  -14.6873 C   0  0  0  0  0  0  0  0  0  0  0  0
   20.0674  -24.6747  -13.8963 C   0  0  0  0  0  0  0  0  0  0  0  0
   20.0911  -25.2291  -12.5131 C   0  0  0  0  0  0  0  0  0  0  0  0
   18.9807  -24.6675  -11.6063 C   0  0  2  0  0  0  0  0  0  0  0  0
   19.1387  -25.4364  -10.3619 N   0  0  0  0  0  0  0  0  0  0  0  0
   17.6326  -24.8804  -12.1916 C   0  0  0  0  0  0  0  0  0  0  0  0
   17.1144  -26.0519  -12.2177 O   0  0  0  0  0  0  0  0  0  0  0  0
   24.9142  -25.1413  -13.1295 N   0  0  0  0  0  0  0  0  0  0  0  0
   13.8138  -17.6176  -14.4911 C   0  0  0  0  0  0  0  0  0  0  0  0
   14.5363  -18.2561  -15.5397 N   0  0  0  0  0  0  0  0  0  0  0  0
   14.7434  -17.6625  -16.6611 N   0  0  0  0  0  0  0  0  0  0  0  0
   15.0531  -19.5874  -15.3668 C   0  0  0  0  0  0  0  0  0  0  0  0
   14.6227  -20.4417  -14.2976 C   0  0  0  0  0  0  0  0  0  0  0  0
   15.2972  -21.8061  -14.3598 C   0  0  0  0  0  0  0  0  0  0  0  0
   14.7492  -22.7514  -13.3279 C   0  0  1  0  0  0  0  0  0  0  0  0
   15.5070  -24.0166  -13.2794 N   0  0  0  0  0  0  0  0  0  0  0  0
   16.8644  -23.8190  -12.7380 C   0  0  0  0  0  0  0  0  0  0  0  0
   15.5551  -24.8142  -14.5191 O   0  0  0  0  0  0  0  0  0  0  0  0
   14.6215  -25.5179  -14.9735 O   0  0  0  0  0  0  0  0  0  0  0  0
  2  4  1  0
  2  1  1  1
  3  2  1  0
  4  6  1  0
  4  5  1  1
  6  7  2  0
  8  9  1  0
  9 11  1  0
 10  9  2  0
 11 12  1  0
 12 13  1  0
 14 13  1  0
 15 14  1  6
 16 15  1  0
 16  6  1  0
 17 18  2  0
 17 15  1  0
 19 20  1  0
 20 22  1  0
 21 20  2  0
 22 23  1  0
 23 24  1  0
 24 25  1  0
 26 25  1  1
 26 27  1  0
 26 28  1  0
 27 17  1  0
 28 30  1  0
 29 28  2  0
M  END
$$$$
