VRR.pdb
     RDKit          3D

 30 29  0  0  1  0  0  0  0  0999 V2000
   21.9058  -21.1247  -19.0463 C   0  0  0  0  0  0  0  0  0  0  0  0
   23.2695  -20.5418  -19.3937 C   0  0  1  0  0  0  0  0  0  0  0  0
   23.2462  -19.8124  -20.6953 C   0  0  0  0  0  0  0  0  0  0  0  0
   23.8154  -19.7322  -18.2347 C   0  0  2  0  0  0  0  0  0  0  0  0
   25.0667  -19.1462  -18.7427 N   0  0  0  0  0  0  0  0  0  0  0  0
   24.1827  -20.5873  -17.0834 C   0  0  0  0  0  0  0  0  0  0  0  0
   23.3056  -21.3011  -16.5374 O   0  0  0  0  0  0  0  0  0  0  0  0
   31.5715  -24.4835  -15.6354 N   0  0  0  0  0  0  0  0  0  0  0  0
   31.1090  -24.2948  -16.9611 C   0  0  0  0  0  0  0  0  0  0  0  0
   31.7920  -24.7314  -17.9570 N   0  0  0  0  0  0  0  0  0  0  0  0
   29.8735  -23.6134  -17.1801 N   0  0  0  0  0  0  0  0  0  0  0  0
   29.0001  -23.2982  -16.0716 C   0  0  0  0  0  0  0  0  0  0  0  0
   27.7243  -22.5758  -16.5263 C   0  0  0  0  0  0  0  0  0  0  0  0
   27.3206  -21.6450  -15.4345 C   0  0  0  0  0  0  0  0  0  0  0  0
   25.7980  -21.4399  -15.3328 C   0  0  2  0  0  0  0  0  0  0  0  0
   25.4799  -20.6619  -16.5404 N   0  0  0  0  0  0  0  0  0  0  0  0
   25.4251  -20.6892  -14.1070 C   0  0  0  0  0  0  0  0  0  0  0  0
   25.0457  -19.4678  -14.1844 O   0  0  0  0  0  0  0  0  0  0  0  0
   31.4677  -24.6880  -18.9373 N   0  0  0  0  0  0  0  0  0  0  0  0
   19.2599  -23.0010   -9.7997 C   0  0  0  0  0  0  0  0  0  0  0  0
   18.7656  -21.7241  -10.1926 N   0  0  0  0  0  0  0  0  0  0  0  0
   17.5350  -21.4019  -10.0064 N   0  0  0  0  0  0  0  0  0  0  0  0
   19.6370  -20.7609  -10.8108 C   0  0  0  0  0  0  0  0  0  0  0  0
   20.6288  -21.1365  -11.7770 C   0  0  0  0  0  0  0  0  0  0  0  0
   22.0410  -20.9256  -11.2464 C   0  0  0  0  0  0  0  0  0  0  0  0
   23.0831  -21.2270  -12.2866 C   0  0  2  0  0  0  0  0  0  0  0  0
   24.4505  -20.9963  -11.7824 N   0  0  0  0  0  0  0  0  0  0  0  0
   25.4665  -21.2748  -12.8144 C   0  0  0  0  0  0  0  0  0  0  0  0
   24.8122  -21.6489  -10.5102 O   0  0  0  0  0  0  0  0  0  0  0  0
   25.1672  -22.8444  -10.3758 O   0  0  0  0  0  0  0  0  0  0  0  0
  2  4  1  0
  2  1  1  1
  3  2  1  0
  4  6  1  0
  4  5  1  6
  6  7  2  0
  8  9  1  0
  9 11  1  0
 10  9  2  0
 11 12  1  0
 12 13  1  0
 14 13  1  0
 15 14  1  1
 16 15  1  0
 16  6  1  0
 17 18  2  0
 17 15  1  0
 19 20  1  0
 20 22  1  0
 21 20  2  0
 22 23  1  0
 23 24  1  0
 24 25  1  0
 26 25  1  6
 26 27  1  0
 26 28  1  0
 27 17  1  0
 28 30  1  0
 29 28  2  0
M  END
$$$$
