VRR.pdb
     RDKit          3D

 30 29  0  0  1  0  0  0  0  0999 V2000
   26.9246  -17.2630  -18.6491 C   0  0  0  0  0  0  0  0  0  0  0  0
   26.6185  -18.0516  -17.3824 C   0  0  1  0  0  0  0  0  0  0  0  0
   25.3022  -18.7494  -17.4673 C   0  0  0  0  0  0  0  0  0  0  0  0
   27.7809  -18.9543  -17.0212 C   0  0  2  0  0  0  0  0  0  0  0  0
   27.9086  -19.8763  -18.1617 N   0  0  0  0  0  0  0  0  0  0  0  0
   27.4899  -19.7865  -15.8320 C   0  0  0  0  0  0  0  0  0  0  0  0
   26.7459  -20.7917  -15.9464 O   0  0  0  0  0  0  0  0  0  0  0  0
   33.5623  -22.0835  -11.1633 N   0  0  0  0  0  0  0  0  0  0  0  0
   32.9634  -23.0120  -12.0499 C   0  0  0  0  0  0  0  0  0  0  0  0
   33.4927  -24.1667  -12.2382 N   0  0  0  0  0  0  0  0  0  0  0  0
   31.7628  -22.6514  -12.7335 N   0  0  0  0  0  0  0  0  0  0  0  0
   31.2817  -21.2880  -12.7071 C   0  0  0  0  0  0  0  0  0  0  0  0
   30.0087  -21.1062  -13.5452 C   0  0  0  0  0  0  0  0  0  0  0  0
   28.9525  -20.5599  -12.6467 C   0  0  0  0  0  0  0  0  0  0  0  0
   27.6113  -20.3045  -13.3585 C   0  0  2  0  0  0  0  0  0  0  0  0
   28.0006  -19.5271  -14.5454 N   0  0  0  0  0  0  0  0  0  0  0  0
   26.6741  -19.5315  -12.5045 C   0  0  0  0  0  0  0  0  0  0  0  0
   26.3005  -18.3558  -12.8505 O   0  0  0  0  0  0  0  0  0  0  0  0
   33.1359  -24.8562  -12.9203 N   0  0  0  0  0  0  0  0  0  0  0  0
   19.4557  -18.6501  -12.8774 C   0  0  0  0  0  0  0  0  0  0  0  0
   20.0427  -19.5127  -13.8474 N   0  0  0  0  0  0  0  0  0  0  0  0
   19.7121  -19.4403  -15.0877 N   0  0  0  0  0  0  0  0  0  0  0  0
   21.0239  -20.4901  -13.4587 C   0  0  0  0  0  0  0  0  0  0  0  0
   21.8565  -20.3198  -12.3028 C   0  0  0  0  0  0  0  0  0  0  0  0
   22.7610  -21.5245  -12.0771 C   0  0  0  0  0  0  0  0  0  0  0  0
   24.2132  -21.1766  -12.2472 C   0  0  2  0  0  0  0  0  0  0  0  0
   24.7285  -20.3849  -11.1137 N   0  0  0  0  0  0  0  0  0  0  0  0
   26.1530  -20.0459  -11.2881 C   0  0  0  0  0  0  0  0  0  0  0  0
   24.4854  -20.9193   -9.7606 O   0  0  0  0  0  0  0  0  0  0  0  0
   23.5582  -20.5702   -8.9914 O   0  0  0  0  0  0  0  0  0  0  0  0
  2  4  1  0
  2  1  1  6
  3  2  1  0
  4  6  1  0
  4  5  1  6
  6  7  2  0
  8  9  1  0
  9 11  1  0
 10  9  2  0
 11 12  1  0
 12 13  1  0
 14 13  1  0
 15 14  1  1
 16 15  1  0
 16  6  1  0
 17 18  2  0
 17 15  1  0
 19 20  1  0
 20 22  1  0
 21 20  2  0
 22 23  1  0
 23 24  1  0
 24 25  1  0
 26 25  1  6
 26 27  1  0
 26 28  1  0
 27 17  1  0
 28 30  1  0
 29 28  2  0
M  END
$$$$
