VRR.pdb
     RDKit          3D

 30 29  0  0  1  0  0  0  0  0999 V2000
   20.1852  -15.1228  -15.3212 C   0  0  0  0  0  0  0  0  0  0  0  0
   20.7039  -14.5055  -16.6134 C   0  0  1  0  0  0  0  0  0  0  0  0
   20.1162  -13.1561  -16.8592 C   0  0  0  0  0  0  0  0  0  0  0  0
   22.2184  -14.5429  -16.6529 C   0  0  2  0  0  0  0  0  0  0  0  0
   22.5692  -14.1059  -18.0142 N   0  0  0  0  0  0  0  0  0  0  0  0
   22.7448  -15.9179  -16.4985 C   0  0  0  0  0  0  0  0  0  0  0  0
   22.3620  -16.8195  -17.2843 O   0  0  0  0  0  0  0  0  0  0  0  0
   27.8750  -20.6759  -12.2091 N   0  0  0  0  0  0  0  0  0  0  0  0
   28.2682  -20.7691  -13.5669 C   0  0  0  0  0  0  0  0  0  0  0  0
   28.2889  -21.9069  -14.1619 N   0  0  0  0  0  0  0  0  0  0  0  0
   28.6418  -19.5835  -14.2694 N   0  0  0  0  0  0  0  0  0  0  0  0
   27.7742  -18.4267  -14.2750 C   0  0  0  0  0  0  0  0  0  0  0  0
   26.3447  -18.7765  -14.7111 C   0  0  0  0  0  0  0  0  0  0  0  0
   25.5789  -17.5015  -14.8080 C   0  0  0  0  0  0  0  0  0  0  0  0
   24.1500  -17.6821  -15.3523 C   0  0  2  0  0  0  0  0  0  0  0  0
   23.6699  -16.3001  -15.5078 N   0  0  0  0  0  0  0  0  0  0  0  0
   23.2917  -18.4363  -14.4038 C   0  0  0  0  0  0  0  0  0  0  0  0
   22.6799  -17.8269  -13.4572 O   0  0  0  0  0  0  0  0  0  0  0  0
   28.5574  -22.0310  -15.1520 N   0  0  0  0  0  0  0  0  0  0  0  0
   15.9211  -20.7371  -12.7335 C   0  0  0  0  0  0  0  0  0  0  0  0
   16.8014  -21.6549  -13.3757 N   0  0  0  0  0  0  0  0  0  0  0  0
   16.4212  -22.8484  -13.6651 N   0  0  0  0  0  0  0  0  0  0  0  0
   18.1434  -21.2648  -13.7163 C   0  0  0  0  0  0  0  0  0  0  0  0
   18.6504  -19.9509  -13.4430 C   0  0  0  0  0  0  0  0  0  0  0  0
   20.0154  -19.7292  -14.0816 C   0  0  0  0  0  0  0  0  0  0  0  0
   21.1257  -19.7918  -13.0706 C   0  0  1  0  0  0  0  0  0  0  0  0
   22.2656  -20.5965  -13.5504 N   0  0  0  0  0  0  0  0  0  0  0  0
   23.1067  -19.8407  -14.4970 C   0  0  0  0  0  0  0  0  0  0  0  0
   21.9591  -21.9362  -14.0858 O   0  0  0  0  0  0  0  0  0  0  0  0
   21.3932  -22.8633  -13.4585 O   0  0  0  0  0  0  0  0  0  0  0  0
  2  4  1  0
  2  1  1  1
  3  2  1  0
  4  6  1  0
  4  5  1  6
  6  7  2  0
  8  9  1  0
  9 11  1  0
 10  9  2  0
 11 12  1  0
 12 13  1  0
 14 13  1  0
 15 14  1  1
 16 15  1  0
 16  6  1  0
 17 18  2  0
 17 15  1  0
 19 20  1  0
 20 22  1  0
 21 20  2  0
 22 23  1  0
 23 24  1  0
 24 25  1  0
 26 25  1  1
 26 27  1  0
 26 28  1  0
 27 17  1  0
 28 30  1  0
 29 28  2  0
M  END
$$$$
