VRR.pdb
     RDKit          3D

 30 29  0  0  1  0  0  0  0  0999 V2000
   16.9481  -16.2441  -18.3221 C   0  0  0  0  0  0  0  0  0  0  0  0
   17.0900  -14.7591  -18.6298 C   0  0  1  0  0  0  0  0  0  0  0  0
   15.7650  -14.1080  -18.8468 C   0  0  0  0  0  0  0  0  0  0  0  0
   17.9566  -14.0784  -17.5894 C   0  0  2  0  0  0  0  0  0  0  0  0
   17.2491  -14.2889  -16.3158 N   0  0  0  0  0  0  0  0  0  0  0  0
   18.0301  -12.6147  -17.7984 C   0  0  0  0  0  0  0  0  0  0  0  0
   18.6875  -12.1595  -18.7667 O   0  0  0  0  0  0  0  0  0  0  0  0
   11.8241   -7.5358  -15.3797 N   0  0  0  0  0  0  0  0  0  0  0  0
   12.7978   -7.2328  -14.3964 C   0  0  0  0  0  0  0  0  0  0  0  0
   12.4817   -6.5492  -13.3563 N   0  0  0  0  0  0  0  0  0  0  0  0
   14.1370   -7.6957  -14.5728 N   0  0  0  0  0  0  0  0  0  0  0  0
   14.5020   -8.4654  -15.7413 C   0  0  0  0  0  0  0  0  0  0  0  0
   15.9602   -8.9419  -15.6891 C   0  0  0  0  0  0  0  0  0  0  0  0
   16.2671   -9.5955  -16.9929 C   0  0  0  0  0  0  0  0  0  0  0  0
   17.6712  -10.2247  -17.0500 C   0  0  2  0  0  0  0  0  0  0  0  0
   17.3987  -11.6682  -16.9684 N   0  0  0  0  0  0  0  0  0  0  0  0
   18.5187   -9.7817  -15.9140 C   0  0  0  0  0  0  0  0  0  0  0  0
   18.3514  -10.2817  -14.7462 O   0  0  0  0  0  0  0  0  0  0  0  0
   13.1350   -6.3511  -12.5806 N   0  0  0  0  0  0  0  0  0  0  0  0
   26.7248  -11.2834  -17.4255 C   0  0  0  0  0  0  0  0  0  0  0  0
   26.6741  -10.9551  -16.0402 N   0  0  0  0  0  0  0  0  0  0  0  0
   27.6710  -11.1928  -15.2641 N   0  0  0  0  0  0  0  0  0  0  0  0
   25.4992  -10.3471  -15.4751 C   0  0  0  0  0  0  0  0  0  0  0  0
   24.2938  -10.1646  -16.2313 C   0  0  0  0  0  0  0  0  0  0  0  0
   23.1823   -9.5600  -15.3831 C   0  0  0  0  0  0  0  0  0  0  0  0
   21.8917   -9.4477  -16.1452 C   0  0  2  0  0  0  0  0  0  0  0  0
   20.8127   -8.8676  -15.3226 N   0  0  0  0  0  0  0  0  0  0  0  0
   19.5379   -8.8045  -16.0611 C   0  0  0  0  0  0  0  0  0  0  0  0
   21.0943   -7.5781  -14.6645 O   0  0  0  0  0  0  0  0  0  0  0  0
   20.7806   -6.4469  -15.1062 O   0  0  0  0  0  0  0  0  0  0  0  0
  2  4  1  0
  2  1  1  1
  3  2  1  0
  4  6  1  0
  4  5  1  1
  6  7  2  0
  8  9  1  0
  9 11  1  0
 10  9  2  0
 11 12  1  0
 12 13  1  0
 14 13  1  0
 15 14  1  1
 16 15  1  0
 16  6  1  0
 17 18  2  0
 17 15  1  0
 19 20  1  0
 20 22  1  0
 21 20  2  0
 22 23  1  0
 23 24  1  0
 24 25  1  0
 26 25  1  1
 26 27  1  0
 26 28  1  0
 27 17  1  0
 28 30  1  0
 29 28  2  0
M  END
$$$$
