VRR.pdb
     RDKit          3D

 30 29  0  0  1  0  0  0  0  0999 V2000
   15.7773  -24.8371  -12.5288 C   0  0  0  0  0  0  0  0  0  0  0  0
   16.7547  -23.8124  -13.0898 C   0  0  1  0  0  0  0  0  0  0  0  0
   16.0863  -22.8623  -14.0265 C   0  0  0  0  0  0  0  0  0  0  0  0
   17.5289  -23.1445  -11.9712 C   0  0  2  0  0  0  0  0  0  0  0  0
   16.5146  -22.4046  -11.2025 N   0  0  0  0  0  0  0  0  0  0  0  0
   18.4905  -22.1417  -12.4823 C   0  0  0  0  0  0  0  0  0  0  0  0
   18.0920  -20.9808  -12.7482 O   0  0  0  0  0  0  0  0  0  0  0  0
   27.1342  -22.3108  -11.5279 N   0  0  0  0  0  0  0  0  0  0  0  0
   27.0462  -21.3108  -12.5275 C   0  0  0  0  0  0  0  0  0  0  0  0
   28.1018  -20.7045  -12.9363 N   0  0  0  0  0  0  0  0  0  0  0  0
   25.7701  -20.9828  -13.0776 N   0  0  0  0  0  0  0  0  0  0  0  0
   24.5907  -21.7276  -12.6967 C   0  0  0  0  0  0  0  0  0  0  0  0
   23.3261  -21.2067  -13.3935 C   0  0  0  0  0  0  0  0  0  0  0  0
   22.1803  -22.0380  -12.9273 C   0  0  0  0  0  0  0  0  0  0  0  0
   20.8103  -21.3642  -13.1264 C   0  0  2  0  0  0  0  0  0  0  0  0
   19.8579  -22.4005  -12.6979 N   0  0  0  0  0  0  0  0  0  0  0  0
   20.5822  -20.9910  -14.5455 C   0  0  0  0  0  0  0  0  0  0  0  0
   20.4362  -21.8974  -15.4393 O   0  0  0  0  0  0  0  0  0  0  0  0
   28.0942  -19.9632  -13.6562 N   0  0  0  0  0  0  0  0  0  0  0  0
   17.7704  -13.4331  -18.6485 C   0  0  0  0  0  0  0  0  0  0  0  0
   18.0053  -14.4108  -19.6577 N   0  0  0  0  0  0  0  0  0  0  0  0
   17.6836  -14.1916  -20.8829 N   0  0  0  0  0  0  0  0  0  0  0  0
   18.6109  -15.6729  -19.3265 C   0  0  0  0  0  0  0  0  0  0  0  0
   18.9402  -16.0323  -17.9772 C   0  0  0  0  0  0  0  0  0  0  0  0
   19.4132  -17.4769  -17.8780 C   0  0  0  0  0  0  0  0  0  0  0  0
   19.7264  -17.8696  -16.4615 C   0  0  1  0  0  0  0  0  0  0  0  0
   20.2044  -19.2624  -16.3668 N   0  0  0  0  0  0  0  0  0  0  0  0
   20.5130  -19.6396  -14.9750 C   0  0  0  0  0  0  0  0  0  0  0  0
   21.3066  -19.6528  -17.2657 O   0  0  0  0  0  0  0  0  0  0  0  0
   21.1777  -20.1082  -18.4272 O   0  0  0  0  0  0  0  0  0  0  0  0
  2  4  1  0
  2  1  1  1
  3  2  1  0
  4  6  1  0
  4  5  1  1
  6  7  2  0
  8  9  1  0
  9 11  1  0
 10  9  2  0
 11 12  1  0
 12 13  1  0
 14 13  1  0
 15 14  1  6
 16 15  1  0
 16  6  1  0
 17 18  2  0
 17 15  1  0
 19 20  1  0
 20 22  1  0
 21 20  2  0
 22 23  1  0
 23 24  1  0
 24 25  1  0
 26 25  1  1
 26 27  1  0
 26 28  1  0
 27 17  1  0
 28 30  1  0
 29 28  2  0
M  END
$$$$
