VRR.pdb
     RDKit          3D

 30 29  0  0  1  0  0  0  0  0999 V2000
   15.9815  -26.3431    2.5060 C   0  0  0  0  0  0  0  0  0  0  0  0
   16.5447  -26.2005    1.0980 C   0  0  1  0  0  0  0  0  0  0  0  0
   17.2836  -24.9159    0.9231 C   0  0  0  0  0  0  0  0  0  0  0  0
   17.3371  -27.4334    0.7123 C   0  0  2  0  0  0  0  0  0  0  0  0
   18.4986  -27.4312    1.6168 N   0  0  0  0  0  0  0  0  0  0  0  0
   17.8708  -27.3426   -0.6656 C   0  0  0  0  0  0  0  0  0  0  0  0
   19.0716  -27.0221   -0.8448 O   0  0  0  0  0  0  0  0  0  0  0  0
   19.2298  -30.3397   -7.3407 N   0  0  0  0  0  0  0  0  0  0  0  0
   19.2958  -31.4728   -6.4929 C   0  0  0  0  0  0  0  0  0  0  0  0
   20.2813  -32.2917   -6.5764 N   0  0  0  0  0  0  0  0  0  0  0  0
   18.2540  -31.6962   -5.5424 N   0  0  0  0  0  0  0  0  0  0  0  0
   17.1619  -30.7574   -5.4127 C   0  0  0  0  0  0  0  0  0  0  0  0
   17.6511  -29.3427   -5.0726 C   0  0  0  0  0  0  0  0  0  0  0  0
   17.3396  -29.0919   -3.6368 C   0  0  0  0  0  0  0  0  0  0  0  0
   17.7003  -27.6701   -3.1686 C   0  0  2  0  0  0  0  0  0  0  0  0
   17.1098  -27.5969   -1.8230 N   0  0  0  0  0  0  0  0  0  0  0  0
   17.1178  -26.6339   -4.0585 C   0  0  0  0  0  0  0  0  0  0  0  0
   15.8474  -26.4902   -4.1422 O   0  0  0  0  0  0  0  0  0  0  0  0
   20.3635  -33.1496   -6.0062 N   0  0  0  0  0  0  0  0  0  0  0  0
   19.8202  -26.1229  -11.7637 C   0  0  0  0  0  0  0  0  0  0  0  0
   20.0014  -26.8102  -10.5291 N   0  0  0  0  0  0  0  0  0  0  0  0
   20.4298  -28.0220  -10.4999 N   0  0  0  0  0  0  0  0  0  0  0  0
   19.7070  -26.1603   -9.2800 C   0  0  0  0  0  0  0  0  0  0  0  0
   19.2955  -24.7876   -9.2107 C   0  0  0  0  0  0  0  0  0  0  0  0
   18.8689  -24.3974   -7.8015 C   0  0  0  0  0  0  0  0  0  0  0  0
   17.8373  -25.3386   -7.2457 C   0  0  2  0  0  0  0  0  0  0  0  0
   17.3652  -24.9169   -5.9128 N   0  0  0  0  0  0  0  0  0  0  0  0
   17.9217  -25.7660   -4.8433 C   0  0  0  0  0  0  0  0  0  0  0  0
   15.9094  -24.7547   -5.7405 O   0  0  0  0  0  0  0  0  0  0  0  0
   15.0465  -25.6460   -5.9254 O   0  0  0  0  0  0  0  0  0  0  0  0
  2  4  1  0
  2  1  1  1
  3  2  1  0
  4  6  1  0
  4  5  1  1
  6  7  2  0
  8  9  1  0
  9 11  1  0
 10  9  2  0
 11 12  1  0
 12 13  1  0
 14 13  1  0
 15 14  1  6
 16 15  1  0
 16  6  1  0
 17 18  2  0
 17 15  1  0
 19 20  1  0
 20 22  1  0
 21 20  2  0
 22 23  1  0
 23 24  1  0
 24 25  1  0
 26 25  1  1
 26 27  1  0
 26 28  1  0
 27 17  1  0
 28 30  1  0
 29 28  2  0
M  END
$$$$
