VRR.pdb
     RDKit          3D

 30 29  0  0  1  0  0  0  0  0999 V2000
   26.5692  -31.4484  -19.0558 C   0  0  0  0  0  0  0  0  0  0  0  0
   26.8437  -30.3509  -18.0359 C   0  0  1  0  0  0  0  0  0  0  0  0
   28.2872  -30.2880  -17.6630 C   0  0  0  0  0  0  0  0  0  0  0  0
   26.2616  -29.0314  -18.5013 C   0  0  2  0  0  0  0  0  0  0  0  0
   26.8999  -28.7781  -19.8035 N   0  0  0  0  0  0  0  0  0  0  0  0
   26.6458  -27.9104  -17.6140 C   0  0  0  0  0  0  0  0  0  0  0  0
   26.2681  -27.9110  -16.4164 O   0  0  0  0  0  0  0  0  0  0  0  0
   34.0473  -24.9149  -17.7146 N   0  0  0  0  0  0  0  0  0  0  0  0
   33.2481  -25.7276  -18.5559 C   0  0  0  0  0  0  0  0  0  0  0  0
   33.7248  -26.1956  -19.6526 N   0  0  0  0  0  0  0  0  0  0  0  0
   31.9048  -26.0223  -18.1721 N   0  0  0  0  0  0  0  0  0  0  0  0
   31.4794  -25.8626  -16.7994 C   0  0  0  0  0  0  0  0  0  0  0  0
   30.0227  -26.2989  -16.5895 C   0  0  0  0  0  0  0  0  0  0  0  0
   29.1559  -25.3538  -17.3489 C   0  0  0  0  0  0  0  0  0  0  0  0
   27.6505  -25.6292  -17.1803 C   0  0  2  0  0  0  0  0  0  0  0  0
   27.4262  -26.8126  -18.0253 N   0  0  0  0  0  0  0  0  0  0  0  0
   26.8267  -24.4843  -17.6448 C   0  0  0  0  0  0  0  0  0  0  0  0
   26.9534  -24.0360  -18.8384 O   0  0  0  0  0  0  0  0  0  0  0  0
   33.1948  -26.8115  -20.2910 N   0  0  0  0  0  0  0  0  0  0  0  0
   19.2193  -20.6001  -17.1006 C   0  0  0  0  0  0  0  0  0  0  0  0
   19.2240  -21.6796  -18.0301 N   0  0  0  0  0  0  0  0  0  0  0  0
   18.3720  -21.7323  -18.9914 N   0  0  0  0  0  0  0  0  0  0  0  0
   20.1873  -22.7415  -17.9132 C   0  0  0  0  0  0  0  0  0  0  0  0
   21.2410  -22.7141  -16.9399 C   0  0  0  0  0  0  0  0  0  0  0  0
   22.6049  -22.5234  -17.5908 C   0  0  0  0  0  0  0  0  0  0  0  0
   23.7270  -22.7003  -16.6067 C   0  0  2  0  0  0  0  0  0  0  0  0
   25.0457  -22.7139  -17.2685 N   0  0  0  0  0  0  0  0  0  0  0  0
   25.8749  -23.8434  -16.8088 C   0  0  0  0  0  0  0  0  0  0  0  0
   25.8196  -21.4586  -17.2412 O   0  0  0  0  0  0  0  0  0  0  0  0
   26.8095  -21.2247  -16.5072 O   0  0  0  0  0  0  0  0  0  0  0  0
  2  4  1  0
  2  1  1  6
  3  2  1  0
  4  6  1  0
  4  5  1  6
  6  7  2  0
  8  9  1  0
  9 11  1  0
 10  9  2  0
 11 12  1  0
 12 13  1  0
 14 13  1  0
 15 14  1  6
 16 15  1  0
 16  6  1  0
 17 18  2  0
 17 15  1  0
 19 20  1  0
 20 22  1  0
 21 20  2  0
 22 23  1  0
 23 24  1  0
 24 25  1  0
 26 25  1  6
 26 27  1  0
 26 28  1  0
 27 17  1  0
 28 30  1  0
 29 28  2  0
M  END
$$$$
