VRR.pdb
     RDKit          3D

 30 29  0  0  1  0  0  0  0  0999 V2000
   30.2223  -20.0079  -11.1972 C   0  0  0  0  0  0  0  0  0  0  0  0
   29.7986  -21.0745  -10.1958 C   0  0  1  0  0  0  0  0  0  0  0  0
   29.5466  -20.4972   -8.8430 C   0  0  0  0  0  0  0  0  0  0  0  0
   28.6517  -21.8982  -10.7460 C   0  0  2  0  0  0  0  0  0  0  0  0
   29.2004  -22.5513  -11.9459 N   0  0  0  0  0  0  0  0  0  0  0  0
   27.5261  -21.0506  -11.2001 C   0  0  0  0  0  0  0  0  0  0  0  0
   26.7824  -20.5012  -10.3503 O   0  0  0  0  0  0  0  0  0  0  0  0
   25.9735  -18.9760  -17.7580 N   0  0  0  0  0  0  0  0  0  0  0  0
   25.5575  -17.6224  -17.7990 C   0  0  0  0  0  0  0  0  0  0  0  0
   24.7885  -17.2060  -18.7393 N   0  0  0  0  0  0  0  0  0  0  0  0
   26.0021  -16.7234  -16.7827 N   0  0  0  0  0  0  0  0  0  0  0  0
   26.8064  -17.1993  -15.6793 C   0  0  0  0  0  0  0  0  0  0  0  0
   25.9758  -17.9788  -14.6505 C   0  0  0  0  0  0  0  0  0  0  0  0
   26.8641  -19.0099  -14.0429 C   0  0  0  0  0  0  0  0  0  0  0  0
   26.1641  -19.8750  -12.9788 C   0  0  2  0  0  0  0  0  0  0  0  0
   27.2195  -20.8074  -12.5529 N   0  0  0  0  0  0  0  0  0  0  0  0
   25.0051  -20.6112  -13.5443 C   0  0  0  0  0  0  0  0  0  0  0  0
   25.1893  -21.6017  -14.3360 O   0  0  0  0  0  0  0  0  0  0  0  0
   24.5069  -16.2184  -18.8542 N   0  0  0  0  0  0  0  0  0  0  0  0
   19.3122  -23.0673   -9.3172 C   0  0  0  0  0  0  0  0  0  0  0  0
   18.9495  -23.9514  -10.3737 N   0  0  0  0  0  0  0  0  0  0  0  0
   18.5823  -25.1596  -10.1325 N   0  0  0  0  0  0  0  0  0  0  0  0
   18.9867  -23.5099  -11.7422 C   0  0  0  0  0  0  0  0  0  0  0  0
   19.2306  -22.1415  -12.0978 C   0  0  0  0  0  0  0  0  0  0  0  0
   20.3122  -22.0202  -13.1636 C   0  0  0  0  0  0  0  0  0  0  0  0
   21.5133  -21.2686  -12.6623 C   0  0  1  0  0  0  0  0  0  0  0  0
   22.5100  -21.0457  -13.7273 N   0  0  0  0  0  0  0  0  0  0  0  0
   23.6623  -20.2644  -13.2410 C   0  0  0  0  0  0  0  0  0  0  0  0
   22.0131  -20.4964  -15.0027 O   0  0  0  0  0  0  0  0  0  0  0  0
   21.9358  -19.2791  -15.2948 O   0  0  0  0  0  0  0  0  0  0  0  0
  2  4  1  0
  2  1  1  6
  3  2  1  0
  4  6  1  0
  4  5  1  6
  6  7  2  0
  8  9  1  0
  9 11  1  0
 10  9  2  0
 11 12  1  0
 12 13  1  0
 14 13  1  0
 15 14  1  6
 16 15  1  0
 16  6  1  0
 17 18  2  0
 17 15  1  0
 19 20  1  0
 20 22  1  0
 21 20  2  0
 22 23  1  0
 23 24  1  0
 24 25  1  0
 26 25  1  1
 26 27  1  0
 26 28  1  0
 27 17  1  0
 28 30  1  0
 29 28  2  0
M  END
$$$$
