VRR.pdb
     RDKit          3D

 30 29  0  0  1  0  0  0  0  0999 V2000
   27.8495  -18.9794  -14.6294 C   0  0  0  0  0  0  0  0  0  0  0  0
   27.8773  -20.0518  -13.5481 C   0  0  1  0  0  0  0  0  0  0  0  0
   29.1667  -20.0497  -12.7970 C   0  0  0  0  0  0  0  0  0  0  0  0
   26.6446  -19.9585  -12.6714 C   0  0  2  0  0  0  0  0  0  0  0  0
   26.7891  -21.0573  -11.7025 N   0  0  0  0  0  0  0  0  0  0  0  0
   25.4012  -20.2215  -13.4306 C   0  0  0  0  0  0  0  0  0  0  0  0
   25.0148  -19.3937  -14.2923 O   0  0  0  0  0  0  0  0  0  0  0  0
   21.3590  -27.5056  -12.4774 N   0  0  0  0  0  0  0  0  0  0  0  0
   20.6199  -26.3719  -12.0586 C   0  0  0  0  0  0  0  0  0  0  0  0
   19.6559  -26.4969  -11.2196 N   0  0  0  0  0  0  0  0  0  0  0  0
   20.9577  -25.0859  -12.5792 N   0  0  0  0  0  0  0  0  0  0  0  0
   21.4883  -24.9495  -13.9174 C   0  0  0  0  0  0  0  0  0  0  0  0
   21.7067  -23.4811  -14.3074 C   0  0  0  0  0  0  0  0  0  0  0  0
   22.9859  -23.0357  -13.6855 C   0  0  0  0  0  0  0  0  0  0  0  0
   23.3129  -21.5538  -13.9454 C   0  0  2  0  0  0  0  0  0  0  0  0
   24.5973  -21.3641  -13.2533 N   0  0  0  0  0  0  0  0  0  0  0  0
   22.2725  -20.6546  -13.3847 C   0  0  0  0  0  0  0  0  0  0  0  0
   22.5302  -19.9194  -12.3675 O   0  0  0  0  0  0  0  0  0  0  0  0
   19.0845  -25.7052  -10.8811 N   0  0  0  0  0  0  0  0  0  0  0  0
   23.7890  -14.2446  -16.2238 C   0  0  0  0  0  0  0  0  0  0  0  0
   23.3802  -14.9472  -17.3937 N   0  0  0  0  0  0  0  0  0  0  0  0
   23.8578  -14.6482  -18.5493 N   0  0  0  0  0  0  0  0  0  0  0  0
   22.4177  -16.0128  -17.3082 C   0  0  0  0  0  0  0  0  0  0  0  0
   21.7523  -16.3453  -16.0814 C   0  0  0  0  0  0  0  0  0  0  0  0
   20.8543  -17.5655  -16.2400 C   0  0  0  0  0  0  0  0  0  0  0  0
   21.4107  -18.7686  -15.5317 C   0  0  1  0  0  0  0  0  0  0  0  0
   20.4525  -19.3307  -14.5605 N   0  0  0  0  0  0  0  0  0  0  0  0
   20.9678  -20.5637  -13.9370 C   0  0  0  0  0  0  0  0  0  0  0  0
   19.0668  -19.5260  -15.0261 O   0  0  0  0  0  0  0  0  0  0  0  0
   18.6966  -20.3475  -15.8987 O   0  0  0  0  0  0  0  0  0  0  0  0
  2  4  1  0
  2  1  1  6
  3  2  1  0
  4  6  1  0
  4  5  1  1
  6  7  2  0
  8  9  1  0
  9 11  1  0
 10  9  2  0
 11 12  1  0
 12 13  1  0
 14 13  1  0
 15 14  1  1
 16 15  1  0
 16  6  1  0
 17 18  2  0
 17 15  1  0
 19 20  1  0
 20 22  1  0
 21 20  2  0
 22 23  1  0
 23 24  1  0
 24 25  1  0
 26 25  1  1
 26 27  1  0
 26 28  1  0
 27 17  1  0
 28 30  1  0
 29 28  2  0
M  END
$$$$
