VRR.pdb
     RDKit          3D

 30 29  0  0  1  0  0  0  0  0999 V2000
   25.7619  -16.9758  -20.8449 C   0  0  0  0  0  0  0  0  0  0  0  0
   25.4508  -18.3937  -20.3836 C   0  0  1  0  0  0  0  0  0  0  0  0
   24.1741  -18.8998  -20.9673 C   0  0  0  0  0  0  0  0  0  0  0  0
   26.6427  -19.3022  -20.6084 C   0  0  2  0  0  0  0  0  0  0  0  0
   26.8761  -19.2625  -22.0614 N   0  0  0  0  0  0  0  0  0  0  0  0
   26.3414  -20.7101  -20.2642 C   0  0  0  0  0  0  0  0  0  0  0  0
   25.8241  -21.4616  -21.1271 O   0  0  0  0  0  0  0  0  0  0  0  0
   31.4485  -24.1135  -14.9296 N   0  0  0  0  0  0  0  0  0  0  0  0
   31.6580  -24.4463  -16.2906 C   0  0  0  0  0  0  0  0  0  0  0  0
   32.7141  -25.0821  -16.6500 N   0  0  0  0  0  0  0  0  0  0  0  0
   30.6816  -24.0675  -17.2611 N   0  0  0  0  0  0  0  0  0  0  0  0
   29.3472  -23.6878  -16.8535 C   0  0  0  0  0  0  0  0  0  0  0  0
   28.4172  -23.4608  -18.0534 C   0  0  0  0  0  0  0  0  0  0  0  0
   27.0852  -23.0569  -17.5205 C   0  0  0  0  0  0  0  0  0  0  0  0
   26.0956  -22.6107  -18.6123 C   0  0  2  0  0  0  0  0  0  0  0  0
   26.5998  -21.2854  -19.0050 N   0  0  0  0  0  0  0  0  0  0  0  0
   24.7083  -22.5152  -18.0912 C   0  0  0  0  0  0  0  0  0  0  0  0
   24.2846  -21.4241  -17.5701 O   0  0  0  0  0  0  0  0  0  0  0  0
   32.8932  -25.3943  -17.6187 N   0  0  0  0  0  0  0  0  0  0  0  0
   18.5521  -22.5097  -13.7234 C   0  0  0  0  0  0  0  0  0  0  0  0
   17.8628  -22.5869  -14.9678 N   0  0  0  0  0  0  0  0  0  0  0  0
   16.6266  -22.9359  -15.0221 N   0  0  0  0  0  0  0  0  0  0  0  0
   18.5384  -22.2749  -16.1988 C   0  0  0  0  0  0  0  0  0  0  0  0
   19.9646  -22.3575  -16.3304 C   0  0  0  0  0  0  0  0  0  0  0  0
   20.4262  -21.9565  -17.7256 C   0  0  0  0  0  0  0  0  0  0  0  0
   21.9168  -22.0718  -17.8791 C   0  0  1  0  0  0  0  0  0  0  0  0
   22.3761  -23.4706  -17.7812 N   0  0  0  0  0  0  0  0  0  0  0  0
   23.7990  -23.6041  -18.1450 C   0  0  0  0  0  0  0  0  0  0  0  0
   21.5665  -24.4895  -18.4752 O   0  0  0  0  0  0  0  0  0  0  0  0
   20.3906  -24.8139  -18.1828 O   0  0  0  0  0  0  0  0  0  0  0  0
  2  4  1  0
  2  1  1  6
  3  2  1  0
  4  6  1  0
  4  5  1  6
  6  7  2  0
  8  9  1  0
  9 11  1  0
 10  9  2  0
 11 12  1  0
 12 13  1  0
 14 13  1  0
 15 14  1  1
 16 15  1  0
 16  6  1  0
 17 18  2  0
 17 15  1  0
 19 20  1  0
 20 22  1  0
 21 20  2  0
 22 23  1  0
 23 24  1  0
 24 25  1  0
 26 25  1  1
 26 27  1  0
 26 28  1  0
 27 17  1  0
 28 30  1  0
 29 28  2  0
M  END
$$$$
