VRR.pdb
     RDKit          3D

 30 29  0  0  1  0  0  0  0  0999 V2000
   18.3085  -27.9273   -8.3991 C   0  0  0  0  0  0  0  0  0  0  0  0
   18.0418  -26.8188   -9.4090 C   0  0  1  0  0  0  0  0  0  0  0  0
   16.6018  -26.4285   -9.4378 C   0  0  0  0  0  0  0  0  0  0  0  0
   18.9975  -25.6618   -9.1971 C   0  0  2  0  0  0  0  0  0  0  0  0
   18.6763  -25.1510   -7.8543 N   0  0  0  0  0  0  0  0  0  0  0  0
   18.7470  -24.5529  -10.1453 C   0  0  0  0  0  0  0  0  0  0  0  0
   17.9438  -23.6398   -9.8321 O   0  0  0  0  0  0  0  0  0  0  0  0
   24.8298  -24.6900  -14.2509 N   0  0  0  0  0  0  0  0  0  0  0  0
   23.5446  -25.2277  -14.5076 C   0  0  0  0  0  0  0  0  0  0  0  0
   23.3849  -26.4942  -14.6472 N   0  0  0  0  0  0  0  0  0  0  0  0
   22.4258  -24.3465  -14.6096 N   0  0  0  0  0  0  0  0  0  0  0  0
   22.4787  -23.0200  -14.0362 C   0  0  0  0  0  0  0  0  0  0  0  0
   21.4256  -22.8212  -12.9373 C   0  0  0  0  0  0  0  0  0  0  0  0
   20.1637  -23.4640  -13.4017 C   0  0  0  0  0  0  0  0  0  0  0  0
   19.0198  -23.3867  -12.3739 C   0  0  2  0  0  0  0  0  0  0  0  0
   19.3606  -24.4430  -11.4081 N   0  0  0  0  0  0  0  0  0  0  0  0
   17.6993  -23.6494  -13.0003 C   0  0  0  0  0  0  0  0  0  0  0  0
   17.0514  -24.7197  -12.7238 O   0  0  0  0  0  0  0  0  0  0  0  0
   24.1623  -27.1749  -14.6317 N   0  0  0  0  0  0  0  0  0  0  0  0
   10.1401  -23.6467  -10.7005 C   0  0  0  0  0  0  0  0  0  0  0  0
    9.9190  -23.6345  -12.1077 N   0  0  0  0  0  0  0  0  0  0  0  0
    8.7367  -23.7649  -12.5957 N   0  0  0  0  0  0  0  0  0  0  0  0
   11.0199  -23.4756  -13.0198 C   0  0  0  0  0  0  0  0  0  0  0  0
   12.3699  -23.3031  -12.5660 C   0  0  0  0  0  0  0  0  0  0  0  0
   13.3474  -23.2019  -13.7299 C   0  0  0  0  0  0  0  0  0  0  0  0
   14.7683  -23.0636  -13.2601 C   0  0  1  0  0  0  0  0  0  0  0  0
   15.7085  -22.8959  -14.3849 N   0  0  0  0  0  0  0  0  0  0  0  0
   17.0986  -22.7459  -13.9159 C   0  0  0  0  0  0  0  0  0  0  0  0
   15.3823  -21.8562  -15.3788 O   0  0  0  0  0  0  0  0  0  0  0  0
   15.7161  -20.6490  -15.3118 O   0  0  0  0  0  0  0  0  0  0  0  0
  2  4  1  0
  2  1  1  1
  3  2  1  0
  4  6  1  0
  4  5  1  1
  6  7  2  0
  8  9  1  0
  9 11  1  0
 10  9  2  0
 11 12  1  0
 12 13  1  0
 14 13  1  0
 15 14  1  6
 16 15  1  0
 16  6  1  0
 17 18  2  0
 17 15  1  0
 19 20  1  0
 20 22  1  0
 21 20  2  0
 22 23  1  0
 23 24  1  0
 24 25  1  0
 26 25  1  6
 26 27  1  0
 26 28  1  0
 27 17  1  0
 28 30  1  0
 29 28  2  0
M  END
$$$$
