VRR.pdb
     RDKit          3D

 30 29  0  0  1  0  0  0  0  0999 V2000
   25.7695  -20.1869   -7.0929 C   0  0  0  0  0  0  0  0  0  0  0  0
   25.5776  -19.6058   -8.4877 C   0  0  1  0  0  0  0  0  0  0  0  0
   26.6856  -18.6782   -8.8600 C   0  0  0  0  0  0  0  0  0  0  0  0
   25.3223  -20.7086   -9.4953 C   0  0  2  0  0  0  0  0  0  0  0  0
   26.5505  -21.5201   -9.4828 N   0  0  0  0  0  0  0  0  0  0  0  0
   25.1745  -20.1817  -10.8708 C   0  0  0  0  0  0  0  0  0  0  0  0
   24.0997  -19.6277  -11.2097 O   0  0  0  0  0  0  0  0  0  0  0  0
   28.6439  -22.2519  -17.6278 N   0  0  0  0  0  0  0  0  0  0  0  0
   28.7877  -20.9498  -18.1670 C   0  0  0  0  0  0  0  0  0  0  0  0
   28.7948  -20.7688  -19.4383 N   0  0  0  0  0  0  0  0  0  0  0  0
   28.9246  -19.8378  -17.2818 N   0  0  0  0  0  0  0  0  0  0  0  0
   28.8060  -20.0164  -15.8517 C   0  0  0  0  0  0  0  0  0  0  0  0
   27.3752  -19.7697  -15.3536 C   0  0  0  0  0  0  0  0  0  0  0  0
   27.3648  -20.0018  -13.8814 C   0  0  0  0  0  0  0  0  0  0  0  0
   25.9854  -19.7815  -13.2338 C   0  0  2  0  0  0  0  0  0  0  0  0
   26.1790  -20.2573  -11.8550 N   0  0  0  0  0  0  0  0  0  0  0  0
   24.9252  -20.5637  -13.9189 C   0  0  0  0  0  0  0  0  0  0  0  0
   25.0480  -21.8302  -14.0694 O   0  0  0  0  0  0  0  0  0  0  0  0
   29.0274  -19.8677  -19.8875 N   0  0  0  0  0  0  0  0  0  0  0  0
   17.7190  -22.3352  -11.0570 C   0  0  0  0  0  0  0  0  0  0  0  0
   17.9625  -21.0951  -11.7145 N   0  0  0  0  0  0  0  0  0  0  0  0
   17.3896  -20.0124  -11.3240 N   0  0  0  0  0  0  0  0  0  0  0  0
   18.8595  -21.0259  -12.8368 C   0  0  0  0  0  0  0  0  0  0  0  0
   19.4497  -22.1977  -13.4173 C   0  0  0  0  0  0  0  0  0  0  0  0
   20.4648  -21.8423  -14.4960 C   0  0  0  0  0  0  0  0  0  0  0  0
   21.6645  -21.1371  -13.9283 C   0  0  1  0  0  0  0  0  0  0  0  0
   22.6249  -20.7474  -14.9786 N   0  0  0  0  0  0  0  0  0  0  0  0
   23.7451  -19.9614  -14.4288 C   0  0  0  0  0  0  0  0  0  0  0  0
   22.0726  -20.0921  -16.1789 O   0  0  0  0  0  0  0  0  0  0  0  0
   22.1471  -18.8686  -16.4448 O   0  0  0  0  0  0  0  0  0  0  0  0
  2  4  1  0
  2  1  1  1
  3  2  1  0
  4  6  1  0
  4  5  1  6
  6  7  2  0
  8  9  1  0
  9 11  1  0
 10  9  2  0
 11 12  1  0
 12 13  1  0
 14 13  1  0
 15 14  1  6
 16 15  1  0
 16  6  1  0
 17 18  2  0
 17 15  1  0
 19 20  1  0
 20 22  1  0
 21 20  2  0
 22 23  1  0
 23 24  1  0
 24 25  1  0
 26 25  1  1
 26 27  1  0
 26 28  1  0
 27 17  1  0
 28 30  1  0
 29 28  2  0
M  END
$$$$
