VRR.pdb
     RDKit          3D

 30 29  0  0  1  0  0  0  0  0999 V2000
   28.6716  -17.4750  -17.2608 C   0  0  0  0  0  0  0  0  0  0  0  0
   27.6714  -18.3080  -16.4698 C   0  0  1  0  0  0  0  0  0  0  0  0
   26.4441  -18.6049  -17.2651 C   0  0  0  0  0  0  0  0  0  0  0  0
   28.3435  -19.5315  -15.8798 C   0  0  2  0  0  0  0  0  0  0  0  0
   28.7226  -20.3493  -17.0437 N   0  0  0  0  0  0  0  0  0  0  0  0
   27.4063  -20.3466  -15.0743 C   0  0  0  0  0  0  0  0  0  0  0  0
   26.6942  -21.2122  -15.6405 O   0  0  0  0  0  0  0  0  0  0  0  0
   23.0159  -20.0385   -9.1538 N   0  0  0  0  0  0  0  0  0  0  0  0
   23.5713  -20.8181   -8.1095 C   0  0  0  0  0  0  0  0  0  0  0  0
   22.8165  -21.3203   -7.2001 N   0  0  0  0  0  0  0  0  0  0  0  0
   24.9812  -21.0410   -8.0775 N   0  0  0  0  0  0  0  0  0  0  0  0
   25.8358  -20.5000   -9.1109 C   0  0  0  0  0  0  0  0  0  0  0  0
   25.4336  -20.9876  -10.5097 C   0  0  0  0  0  0  0  0  0  0  0  0
   26.4484  -20.4759  -11.4738 C   0  0  0  0  0  0  0  0  0  0  0  0
   26.1745  -20.8883  -12.9318 C   0  0  2  0  0  0  0  0  0  0  0  0
   27.2502  -20.2196  -13.6805 N   0  0  0  0  0  0  0  0  0  0  0  0
   24.8417  -20.4239  -13.3934 C   0  0  0  0  0  0  0  0  0  0  0  0
   24.5758  -19.1720  -13.4531 O   0  0  0  0  0  0  0  0  0  0  0  0
   23.1664  -21.9057   -6.4238 N   0  0  0  0  0  0  0  0  0  0  0  0
   22.4896  -19.7603  -19.7393 C   0  0  0  0  0  0  0  0  0  0  0  0
   21.0662  -19.8040  -19.7025 N   0  0  0  0  0  0  0  0  0  0  0  0
   20.3583  -19.0528  -20.4689 N   0  0  0  0  0  0  0  0  0  0  0  0
   20.3847  -20.6944  -18.8013 C   0  0  0  0  0  0  0  0  0  0  0  0
   21.0916  -21.5683  -17.9098 C   0  0  0  0  0  0  0  0  0  0  0  0
   21.2218  -20.9671  -16.5163 C   0  0  0  0  0  0  0  0  0  0  0  0
   22.4917  -21.3950  -15.8359 C   0  0  1  0  0  0  0  0  0  0  0  0
   22.5810  -20.8786  -14.4566 N   0  0  0  0  0  0  0  0  0  0  0  0
   23.8167  -21.3241  -13.7863 C   0  0  0  0  0  0  0  0  0  0  0  0
   21.4115  -21.0967  -13.5848 O   0  0  0  0  0  0  0  0  0  0  0  0
   21.4187  -21.7082  -12.4897 O   0  0  0  0  0  0  0  0  0  0  0  0
  2  4  1  0
  2  1  1  6
  3  2  1  0
  4  6  1  0
  4  5  1  6
  6  7  2  0
  8  9  1  0
  9 11  1  0
 10  9  2  0
 11 12  1  0
 12 13  1  0
 14 13  1  0
 15 14  1  1
 16 15  1  0
 16  6  1  0
 17 18  2  0
 17 15  1  0
 19 20  1  0
 20 22  1  0
 21 20  2  0
 22 23  1  0
 23 24  1  0
 24 25  1  0
 26 25  1  6
 26 27  1  0
 26 28  1  0
 27 17  1  0
 28 30  1  0
 29 28  2  0
M  END
$$$$
