YDN.pdb
     RDKit          3D

 29 29  0  0  1  0  0  0  0  0999 V2000
    5.9579  -10.8216   27.1096 O   0  0  0  0  0  0  0  0  0  0  0  0
    6.3083  -11.7113   26.1027 C   0  0  0  0  0  0  0  0  0  0  0  0
    5.4895  -12.7915   25.8210 C   0  0  0  0  0  0  0  0  0  0  0  0
    5.8148  -13.7013   24.8163 C   0  0  0  0  0  0  0  0  0  0  0  0
    6.9629  -13.5520   24.0726 C   0  0  0  0  0  0  0  0  0  0  0  0
    7.3265  -14.5053   22.9996 C   0  0  0  0  0  0  0  0  0  0  0  0
    7.6403  -15.8831   23.5292 C   0  0  2  0  0  0  0  0  0  0  0  0
    7.6265  -15.9618   24.9572 N   0  0  0  0  0  0  0  0  0  0  0  0
    9.0118  -16.2294   23.0051 C   0  0  0  0  0  0  0  0  0  0  0  0
    9.2102  -16.5613   21.8124 O   0  0  0  0  0  0  0  0  0  0  0  0
    7.7737  -12.4662   24.3651 C   0  0  0  0  0  0  0  0  0  0  0  0
    7.4649  -11.5586   25.3554 C   0  0  0  0  0  0  0  0  0  0  0  0
   10.1026  -16.1801   23.8745 N   0  0  0  0  0  0  0  0  0  0  0  0
   11.3905  -16.9091   23.5935 C   0  0  1  0  0  0  0  0  0  0  0  0
   12.2287  -15.9752   22.7944 C   0  0  0  0  0  0  0  0  0  0  0  0
   12.7542  -16.4834   21.5588 C   0  0  0  0  0  0  0  0  0  0  0  0
   13.4482  -17.4837   21.3797 O   0  0  0  0  0  0  0  0  0  0  0  0
   11.8650  -17.2587   24.9273 C   0  0  0  0  0  0  0  0  0  0  0  0
   13.1099  -17.0889   25.1908 O   0  0  0  0  0  0  0  0  0  0  0  0
   12.4562  -15.7652   20.3622 O   0  0  0  0  0  0  0  0  0  0  0  0
   10.4425  -14.9196   29.8824 N   0  0  0  0  0  0  0  0  0  0  0  0
   11.2010  -15.8297   29.1079 C   0  0  0  0  0  0  0  0  0  0  0  0
   12.1826  -16.4194   29.6874 O   0  0  0  0  0  0  0  0  0  0  0  0
   10.9856  -16.1765   27.7085 C   0  0  0  0  0  0  0  0  0  0  0  0
   11.4940  -17.5499   27.3573 C   0  0  2  0  0  0  0  0  0  0  0  0
   11.0733  -17.7604   25.9540 N   0  0  0  0  0  0  0  0  0  0  0  0
   10.9124  -18.6269   28.1610 C   0  0  0  0  0  0  0  0  0  0  0  0
   10.9873  -18.5819   29.4147 O   0  0  0  0  0  0  0  0  0  0  0  0
   10.2704  -19.7159   27.6184 O   0  0  0  0  0  0  0  0  0  0  0  0
  2 12  2  0
  2  1  1  0
  3  2  1  0
  4  5  1  0
  4  3  2  0
  5 11  2  0
  6  5  1  0
  7  9  1  0
  7  6  1  0
  7  8  1  1
  9 10  2  0
 11 12  1  0
 13 14  1  0
 13  9  1  0
 14 18  1  0
 14 15  1  1
 16 15  1  0
 16 17  2  0
 18 26  1  0
 18 19  2  0
 20 16  1  0
 21 22  1  0
 22 24  1  0
 23 22  2  0
 25 24  1  1
 25 27  1  0
 26 25  1  0
 27 28  2  0
 27 29  1  0
M  END
$$$$
