YDN.pdb
     RDKit          3D

 29 29  0  0  1  0  0  0  0  0999 V2000
    7.4236  -12.0929   27.6155 O   0  0  0  0  0  0  0  0  0  0  0  0
    7.3532  -12.8826   26.4754 C   0  0  0  0  0  0  0  0  0  0  0  0
    6.3584  -13.8384   26.3587 C   0  0  0  0  0  0  0  0  0  0  0  0
    6.2623  -14.6457   25.2265 C   0  0  0  0  0  0  0  0  0  0  0  0
    7.1561  -14.5161   24.1883 C   0  0  0  0  0  0  0  0  0  0  0  0
    7.0711  -15.3618   22.9759 C   0  0  0  0  0  0  0  0  0  0  0  0
    7.0638  -16.8365   23.2964 C   0  0  2  0  0  0  0  0  0  0  0  0
    6.3502  -17.1562   24.4939 N   0  0  0  0  0  0  0  0  0  0  0  0
    8.5106  -17.2412   23.4325 C   0  0  0  0  0  0  0  0  0  0  0  0
    8.8669  -18.2468   24.0912 O   0  0  0  0  0  0  0  0  0  0  0  0
    8.1471  -13.5554   24.3182 C   0  0  0  0  0  0  0  0  0  0  0  0
    8.2545  -12.7500   25.4316 C   0  0  0  0  0  0  0  0  0  0  0  0
    9.4920  -16.4724   22.8049 N   0  0  0  0  0  0  0  0  0  0  0  0
   10.9307  -16.9114   22.7251 C   0  0  1  0  0  0  0  0  0  0  0  0
   11.5603  -16.0754   21.6677 C   0  0  0  0  0  0  0  0  0  0  0  0
   11.3450  -16.4901   20.3102 C   0  0  0  0  0  0  0  0  0  0  0  0
   11.1423  -17.6263   19.8833 O   0  0  0  0  0  0  0  0  0  0  0  0
   11.4038  -16.7281   24.0922 C   0  0  0  0  0  0  0  0  0  0  0  0
   12.6686  -16.7755   24.3066 O   0  0  0  0  0  0  0  0  0  0  0  0
   11.3605  -15.4862   19.2961 O   0  0  0  0  0  0  0  0  0  0  0  0
   11.8676  -15.8873   29.3222 N   0  0  0  0  0  0  0  0  0  0  0  0
   10.8053  -15.2205   28.6660 C   0  0  0  0  0  0  0  0  0  0  0  0
   10.1705  -14.3267   29.3332 O   0  0  0  0  0  0  0  0  0  0  0  0
   10.3496  -15.4384   27.2985 C   0  0  0  0  0  0  0  0  0  0  0  0
   11.2095  -16.4148   26.5400 C   0  0  2  0  0  0  0  0  0  0  0  0
   10.5925  -16.4966   25.1971 N   0  0  0  0  0  0  0  0  0  0  0  0
   11.2224  -17.7655   27.1052 C   0  0  0  0  0  0  0  0  0  0  0  0
   10.1622  -18.2624   27.5618 O   0  0  0  0  0  0  0  0  0  0  0  0
   12.3512  -18.5492   27.1705 O   0  0  0  0  0  0  0  0  0  0  0  0
  2 12  2  0
  2  1  1  0
  3  2  1  0
  4  5  1  0
  4  3  2  0
  5 11  2  0
  6  5  1  0
  7  9  1  0
  7  6  1  0
  7  8  1  1
  9 10  2  0
 11 12  1  0
 13 14  1  0
 13  9  1  0
 14 18  1  0
 14 15  1  6
 16 15  1  0
 16 17  2  0
 18 26  1  0
 18 19  2  0
 20 16  1  0
 21 22  1  0
 22 24  1  0
 23 22  2  0
 25 24  1  1
 25 27  1  0
 26 25  1  0
 27 28  2  0
 27 29  1  0
M  END
$$$$
