YDN.pdb
     RDKit          3D

 29 29  0  0  1  0  0  0  0  0999 V2000
    5.0850  -10.1381   26.6996 O   0  0  0  0  0  0  0  0  0  0  0  0
    5.8581  -11.2379   26.3518 C   0  0  0  0  0  0  0  0  0  0  0  0
    6.0573  -12.2580   27.2663 C   0  0  0  0  0  0  0  0  0  0  0  0
    6.8282  -13.3742   26.9461 C   0  0  0  0  0  0  0  0  0  0  0  0
    7.4156  -13.4956   25.7077 C   0  0  0  0  0  0  0  0  0  0  0  0
    8.2365  -14.6736   25.3459 C   0  0  0  0  0  0  0  0  0  0  0  0
    7.5571  -15.5666   24.3369 C   0  0  2  0  0  0  0  0  0  0  0  0
    6.3410  -16.1469   24.8165 N   0  0  0  0  0  0  0  0  0  0  0  0
    8.5513  -16.6509   24.0028 C   0  0  0  0  0  0  0  0  0  0  0  0
    8.3867  -17.8433   24.3536 O   0  0  0  0  0  0  0  0  0  0  0  0
    7.2080  -12.4671   24.8015 C   0  0  0  0  0  0  0  0  0  0  0  0
    6.4484  -11.3575   25.1041 C   0  0  0  0  0  0  0  0  0  0  0  0
    9.6972  -16.3205   23.2775 N   0  0  0  0  0  0  0  0  0  0  0  0
   10.7629  -17.3333   22.9495 C   0  0  1  0  0  0  0  0  0  0  0  0
   11.6193  -16.7091   21.9054 C   0  0  0  0  0  0  0  0  0  0  0  0
   11.0603  -16.6221   20.5859 C   0  0  0  0  0  0  0  0  0  0  0  0
   11.1434  -15.6937   19.7825 O   0  0  0  0  0  0  0  0  0  0  0  0
   11.3744  -17.5950   24.2471 C   0  0  0  0  0  0  0  0  0  0  0  0
   11.7160  -16.5900   24.9692 O   0  0  0  0  0  0  0  0  0  0  0  0
   10.3045  -17.7341   20.1075 O   0  0  0  0  0  0  0  0  0  0  0  0
   11.5708  -19.8551   29.3605 N   0  0  0  0  0  0  0  0  0  0  0  0
   11.8451  -20.4496   28.1055 C   0  0  0  0  0  0  0  0  0  0  0  0
   12.6332  -21.4624   28.0941 O   0  0  0  0  0  0  0  0  0  0  0  0
   11.3226  -20.0341   26.8096 C   0  0  0  0  0  0  0  0  0  0  0  0
   12.1580  -18.9671   26.1526 C   0  0  2  0  0  0  0  0  0  0  0  0
   11.6165  -18.8562   24.7796 N   0  0  0  0  0  0  0  0  0  0  0  0
   13.5792  -19.3025   26.0431 C   0  0  0  0  0  0  0  0  0  0  0  0
   14.3523  -19.0708   27.0065 O   0  0  0  0  0  0  0  0  0  0  0  0
   14.1397  -19.8717   24.9231 O   0  0  0  0  0  0  0  0  0  0  0  0
  2 12  2  0
  2  1  1  0
  3  2  1  0
  4  5  1  0
  4  3  2  0
  5 11  2  0
  6  5  1  0
  7  9  1  0
  7  6  1  0
  7  8  1  1
  9 10  2  0
 11 12  1  0
 13 14  1  0
 13  9  1  0
 14 18  1  0
 14 15  1  6
 16 15  1  0
 16 17  2  0
 18 26  1  0
 18 19  2  0
 20 16  1  0
 21 22  1  0
 22 24  1  0
 23 22  2  0
 25 24  1  1
 25 27  1  0
 26 25  1  0
 27 28  2  0
 27 29  1  0
M  END
$$$$
