YDN.pdb
     RDKit          3D

 29 29  0  0  1  0  0  0  0  0999 V2000
    6.8102  -12.5501   27.7930 O   0  0  0  0  0  0  0  0  0  0  0  0
    7.0629  -12.9608   26.4908 C   0  0  0  0  0  0  0  0  0  0  0  0
    7.6877  -12.0998   25.6048 C   0  0  0  0  0  0  0  0  0  0  0  0
    7.9545  -12.4838   24.2917 C   0  0  0  0  0  0  0  0  0  0  0  0
    7.6037  -13.7339   23.8360 C   0  0  0  0  0  0  0  0  0  0  0  0
    7.8795  -14.1630   22.4460 C   0  0  0  0  0  0  0  0  0  0  0  0
    7.4317  -15.5786   22.1760 C   0  0  2  0  0  0  0  0  0  0  0  0
    6.2378  -15.9420   22.8747 N   0  0  0  0  0  0  0  0  0  0  0  0
    8.5731  -16.4664   22.6056 C   0  0  0  0  0  0  0  0  0  0  0  0
    8.4183  -17.4171   23.4083 O   0  0  0  0  0  0  0  0  0  0  0  0
    6.9788  -14.5860   24.7334 C   0  0  0  0  0  0  0  0  0  0  0  0
    6.7086  -14.2201   26.0346 C   0  0  0  0  0  0  0  0  0  0  0  0
    9.8494  -16.2256   22.0944 N   0  0  0  0  0  0  0  0  0  0  0  0
   11.0068  -17.1563   22.3457 C   0  0  1  0  0  0  0  0  0  0  0  0
   12.1147  -16.6839   21.4724 C   0  0  0  0  0  0  0  0  0  0  0  0
   12.1426  -17.2046   20.1347 C   0  0  0  0  0  0  0  0  0  0  0  0
   11.6225  -18.2344   19.7067 O   0  0  0  0  0  0  0  0  0  0  0  0
   11.2013  -17.0527   23.7872 C   0  0  0  0  0  0  0  0  0  0  0  0
   11.5014  -15.9045   24.2767 O   0  0  0  0  0  0  0  0  0  0  0  0
   12.8544  -16.4624   19.1453 O   0  0  0  0  0  0  0  0  0  0  0  0
   11.8734  -18.2021   28.9598 N   0  0  0  0  0  0  0  0  0  0  0  0
   10.6207  -18.4281   28.3406 C   0  0  0  0  0  0  0  0  0  0  0  0
    9.6385  -18.7511   29.1009 O   0  0  0  0  0  0  0  0  0  0  0  0
   10.3198  -18.3306   26.9176 C   0  0  0  0  0  0  0  0  0  0  0  0
   11.5042  -17.8990   26.0936 C   0  0  2  0  0  0  0  0  0  0  0  0
   11.0816  -18.1031   24.6899 N   0  0  0  0  0  0  0  0  0  0  0  0
   12.7104  -18.6992   26.3146 C   0  0  0  0  0  0  0  0  0  0  0  0
   13.6837  -18.2042   26.9367 O   0  0  0  0  0  0  0  0  0  0  0  0
   12.8521  -19.9946   25.8737 O   0  0  0  0  0  0  0  0  0  0  0  0
  2 12  2  0
  2  1  1  0
  3  2  1  0
  4  5  1  0
  4  3  2  0
  5 11  2  0
  6  5  1  0
  7  9  1  0
  7  6  1  0
  7  8  1  1
  9 10  2  0
 11 12  1  0
 13 14  1  0
 13  9  1  0
 14 18  1  0
 14 15  1  6
 16 15  1  0
 16 17  2  0
 18 26  1  0
 18 19  2  0
 20 16  1  0
 21 22  1  0
 22 24  1  0
 23 22  2  0
 25 24  1  1
 25 27  1  0
 26 25  1  0
 27 28  2  0
 27 29  1  0
M  END
$$$$
