YDN.pdb
     RDKit          3D

 29 29  0  0  1  0  0  0  0  0999 V2000
    8.5247  -12.5700   17.8737 O   0  0  0  0  0  0  0  0  0  0  0  0
    8.0514  -13.2598   18.9820 C   0  0  0  0  0  0  0  0  0  0  0  0
    7.7997  -14.6183   18.8932 C   0  0  0  0  0  0  0  0  0  0  0  0
    7.3242  -15.3375   19.9884 C   0  0  0  0  0  0  0  0  0  0  0  0
    7.0904  -14.7165   21.1939 C   0  0  0  0  0  0  0  0  0  0  0  0
    6.5875  -15.4616   22.3704 C   0  0  0  0  0  0  0  0  0  0  0  0
    7.4161  -15.2194   23.6082 C   0  0  2  0  0  0  0  0  0  0  0  0
    8.1926  -14.0198   23.5490 N   0  0  0  0  0  0  0  0  0  0  0  0
    8.3235  -16.4169   23.7439 C   0  0  0  0  0  0  0  0  0  0  0  0
    7.8835  -17.5711   23.9590 O   0  0  0  0  0  0  0  0  0  0  0  0
    7.3466  -13.3561   21.2690 C   0  0  0  0  0  0  0  0  0  0  0  0
    7.8168  -12.6320   20.1945 C   0  0  0  0  0  0  0  0  0  0  0  0
    9.7029  -16.2396   23.6265 N   0  0  0  0  0  0  0  0  0  0  0  0
   10.6797  -17.3705   23.8159 C   0  0  1  0  0  0  0  0  0  0  0  0
   11.7660  -17.1494   22.8238 C   0  0  0  0  0  0  0  0  0  0  0  0
   12.8244  -18.1193   22.8056 C   0  0  0  0  0  0  0  0  0  0  0  0
   12.9036  -19.1486   22.1358 O   0  0  0  0  0  0  0  0  0  0  0  0
   11.0314  -17.2647   25.2270 C   0  0  0  0  0  0  0  0  0  0  0  0
   11.9966  -17.9882   25.6663 O   0  0  0  0  0  0  0  0  0  0  0  0
   13.9461  -17.8980   23.6595 O   0  0  0  0  0  0  0  0  0  0  0  0
    9.8844  -14.2100   30.5091 N   0  0  0  0  0  0  0  0  0  0  0  0
   10.5008  -15.1056   29.6027 C   0  0  0  0  0  0  0  0  0  0  0  0
   11.3853  -15.9058   30.0764 O   0  0  0  0  0  0  0  0  0  0  0  0
   10.2362  -15.2218   28.1739 C   0  0  0  0  0  0  0  0  0  0  0  0
   10.8652  -16.4428   27.5561 C   0  0  2  0  0  0  0  0  0  0  0  0
   10.4074  -16.4316   26.1486 N   0  0  0  0  0  0  0  0  0  0  0  0
   10.4310  -17.7071   28.1537 C   0  0  0  0  0  0  0  0  0  0  0  0
   11.2299  -18.3712   28.8609 O   0  0  0  0  0  0  0  0  0  0  0  0
    9.1696  -18.2304   27.9878 O   0  0  0  0  0  0  0  0  0  0  0  0
  2 12  2  0
  2  1  1  0
  3  2  1  0
  4  5  1  0
  4  3  2  0
  5 11  2  0
  6  5  1  0
  7  9  1  0
  7  6  1  0
  7  8  1  6
  9 10  2  0
 11 12  1  0
 13 14  1  0
 13  9  1  0
 14 18  1  0
 14 15  1  6
 16 15  1  0
 16 17  2  0
 18 26  1  0
 18 19  2  0
 20 16  1  0
 21 22  1  0
 22 24  1  0
 23 22  2  0
 25 24  1  1
 25 27  1  0
 26 25  1  0
 27 28  2  0
 27 29  1  0
M  END
$$$$
