YDN.pdb
     RDKit          3D

 29 29  0  0  1  0  0  0  0  0999 V2000
    5.3649  -10.5122   27.4039 O   0  0  0  0  0  0  0  0  0  0  0  0
    6.0875  -11.6171   26.9734 C   0  0  0  0  0  0  0  0  0  0  0  0
    5.9813  -12.0418   25.6600 C   0  0  0  0  0  0  0  0  0  0  0  0
    6.6941  -13.1473   25.1989 C   0  0  0  0  0  0  0  0  0  0  0  0
    7.5270  -13.8512   26.0380 C   0  0  0  0  0  0  0  0  0  0  0  0
    8.2949  -15.0270   25.5686 C   0  0  0  0  0  0  0  0  0  0  0  0
    7.5259  -15.8633   24.5754 C   0  0  2  0  0  0  0  0  0  0  0  0
    6.3900  -16.5216   25.1428 N   0  0  0  0  0  0  0  0  0  0  0  0
    8.5025  -16.8827   24.0436 C   0  0  0  0  0  0  0  0  0  0  0  0
    8.2831  -18.1158   24.1010 O   0  0  0  0  0  0  0  0  0  0  0  0
    7.6241  -13.4153   27.3505 C   0  0  0  0  0  0  0  0  0  0  0  0
    6.9254  -12.3240   27.8206 C   0  0  0  0  0  0  0  0  0  0  0  0
    9.6947  -16.4432   23.4660 N   0  0  0  0  0  0  0  0  0  0  0  0
   10.6596  -17.3847   22.7941 C   0  0  1  0  0  0  0  0  0  0  0  0
   10.9993  -16.7643   21.4852 C   0  0  0  0  0  0  0  0  0  0  0  0
   12.0459  -17.3936   20.7303 C   0  0  0  0  0  0  0  0  0  0  0  0
   12.1623  -18.5819   20.4326 O   0  0  0  0  0  0  0  0  0  0  0  0
   11.7322  -17.5067   23.7744 C   0  0  0  0  0  0  0  0  0  0  0  0
   12.8235  -18.0763   23.4101 O   0  0  0  0  0  0  0  0  0  0  0  0
   13.1057  -16.5700   20.2454 O   0  0  0  0  0  0  0  0  0  0  0  0
   10.5622  -18.2863   28.8160 N   0  0  0  0  0  0  0  0  0  0  0  0
    9.9125  -18.7304   27.6395 C   0  0  0  0  0  0  0  0  0  0  0  0
    8.7436  -19.2437   27.7711 O   0  0  0  0  0  0  0  0  0  0  0  0
   10.4305  -18.6658   26.2784 C   0  0  0  0  0  0  0  0  0  0  0  0
   11.7884  -18.0198   26.1954 C   0  0  2  0  0  0  0  0  0  0  0  0
   11.6763  -17.0473   25.0853 N   0  0  0  0  0  0  0  0  0  0  0  0
   12.8729  -18.9466   25.8652 C   0  0  0  0  0  0  0  0  0  0  0  0
   13.9175  -18.9610   26.5637 O   0  0  0  0  0  0  0  0  0  0  0  0
   12.8216  -19.8286   24.8107 O   0  0  0  0  0  0  0  0  0  0  0  0
  2 12  2  0
  2  1  1  0
  3  2  1  0
  4  5  1  0
  4  3  2  0
  5 11  2  0
  6  5  1  0
  7  9  1  0
  7  6  1  0
  7  8  1  1
  9 10  2  0
 11 12  1  0
 13 14  1  0
 13  9  1  0
 14 18  1  0
 14 15  1  6
 16 15  1  0
 16 17  2  0
 18 26  1  0
 18 19  2  0
 20 16  1  0
 21 22  1  0
 22 24  1  0
 23 22  2  0
 25 24  1  6
 25 27  1  0
 26 25  1  0
 27 28  2  0
 27 29  1  0
M  END
$$$$
