YDN.pdb
     RDKit          3D

 29 29  0  0  1  0  0  0  0  0999 V2000
    6.1479  -12.4211   16.8618 O   0  0  0  0  0  0  0  0  0  0  0  0
    6.6242  -12.9803   18.0403 C   0  0  0  0  0  0  0  0  0  0  0  0
    7.9584  -12.8379   18.3814 C   0  0  0  0  0  0  0  0  0  0  0  0
    8.4655  -13.3878   19.5576 C   0  0  0  0  0  0  0  0  0  0  0  0
    7.6524  -14.0905   20.4169 C   0  0  0  0  0  0  0  0  0  0  0  0
    8.1697  -14.6811   21.6723 C   0  0  0  0  0  0  0  0  0  0  0  0
    8.8461  -16.0120   21.4518 C   0  0  2  0  0  0  0  0  0  0  0  0
    7.9487  -17.0463   21.0391 N   0  0  0  0  0  0  0  0  0  0  0  0
    9.4869  -16.3775   22.7677 C   0  0  0  0  0  0  0  0  0  0  0  0
    8.8147  -16.7215   23.7686 O   0  0  0  0  0  0  0  0  0  0  0  0
    6.3187  -14.2255   20.0633 C   0  0  0  0  0  0  0  0  0  0  0  0
    5.8032  -13.6874   18.9037 C   0  0  0  0  0  0  0  0  0  0  0  0
   10.8773  -16.3329   22.8807 N   0  0  0  0  0  0  0  0  0  0  0  0
   11.6523  -17.3374   23.6928 C   0  0  1  0  0  0  0  0  0  0  0  0
   11.1723  -18.6775   23.2605 C   0  0  0  0  0  0  0  0  0  0  0  0
   11.6099  -19.7982   24.0439 C   0  0  0  0  0  0  0  0  0  0  0  0
   11.9811  -19.8096   25.2171 O   0  0  0  0  0  0  0  0  0  0  0  0
   13.0387  -16.9962   23.3964 C   0  0  0  0  0  0  0  0  0  0  0  0
   13.6185  -17.6066   22.4272 O   0  0  0  0  0  0  0  0  0  0  0  0
   11.6316  -21.0808   23.4186 O   0  0  0  0  0  0  0  0  0  0  0  0
   17.3596  -16.1714   26.2064 N   0  0  0  0  0  0  0  0  0  0  0  0
   16.4788  -17.2735   26.0908 C   0  0  0  0  0  0  0  0  0  0  0  0
   16.6297  -18.2370   26.9250 O   0  0  0  0  0  0  0  0  0  0  0  0
   15.4050  -17.4349   25.1183 C   0  0  0  0  0  0  0  0  0  0  0  0
   15.2561  -16.2480   24.2033 C   0  0  2  0  0  0  0  0  0  0  0  0
   13.7947  -16.0494   24.0780 N   0  0  0  0  0  0  0  0  0  0  0  0
   15.7920  -16.4593   22.8571 C   0  0  0  0  0  0  0  0  0  0  0  0
   15.2176  -17.2562   22.0734 O   0  0  0  0  0  0  0  0  0  0  0  0
   16.9150  -15.8238   22.3799 O   0  0  0  0  0  0  0  0  0  0  0  0
  2 12  2  0
  2  1  1  0
  3  2  1  0
  4  5  1  0
  4  3  2  0
  5 11  2  0
  6  5  1  0
  7  9  1  0
  7  6  1  0
  7  8  1  1
  9 10  2  0
 11 12  1  0
 13 14  1  0
 13  9  1  0
 14 18  1  0
 14 15  1  6
 16 15  1  0
 16 17  2  0
 18 26  1  0
 18 19  2  0
 20 16  1  0
 21 22  1  0
 22 24  1  0
 23 22  2  0
 25 24  1  1
 25 27  1  0
 26 25  1  0
 27 28  2  0
 27 29  1  0
M  END
$$$$
