YDN.pdb
     RDKit          3D

 29 29  0  0  1  0  0  0  0  0999 V2000
    7.7096  -12.0142   18.2182 O   0  0  0  0  0  0  0  0  0  0  0  0
    7.9887  -12.8647   19.2798 C   0  0  0  0  0  0  0  0  0  0  0  0
    6.9548  -13.5069   19.9396 C   0  0  0  0  0  0  0  0  0  0  0  0
    7.2039  -14.3662   21.0084 C   0  0  0  0  0  0  0  0  0  0  0  0
    8.4888  -14.6024   21.4405 C   0  0  0  0  0  0  0  0  0  0  0  0
    8.7761  -15.5128   22.5723 C   0  0  0  0  0  0  0  0  0  0  0  0
    9.4615  -16.7841   22.1347 C   0  0  2  0  0  0  0  0  0  0  0  0
    8.7373  -17.5078   21.1361 N   0  0  0  0  0  0  0  0  0  0  0  0
    9.6114  -17.6263   23.3773 C   0  0  0  0  0  0  0  0  0  0  0  0
    9.4033  -18.8627   23.3790 O   0  0  0  0  0  0  0  0  0  0  0  0
    9.5146  -13.9530   20.7711 C   0  0  0  0  0  0  0  0  0  0  0  0
    9.2835  -13.1007   19.7128 C   0  0  0  0  0  0  0  0  0  0  0  0
    9.9953  -17.0125   24.5706 N   0  0  0  0  0  0  0  0  0  0  0  0
   11.0673  -17.5832   25.4617 C   0  0  1  0  0  0  0  0  0  0  0  0
   12.2287  -17.8730   24.5782 C   0  0  0  0  0  0  0  0  0  0  0  0
   12.7662  -19.2027   24.6419 C   0  0  0  0  0  0  0  0  0  0  0  0
   12.1568  -20.2671   24.7422 O   0  0  0  0  0  0  0  0  0  0  0  0
   11.2383  -16.5455   26.4718 C   0  0  0  0  0  0  0  0  0  0  0  0
   12.4197  -16.3321   26.9266 O   0  0  0  0  0  0  0  0  0  0  0  0
   14.1842  -19.3520   24.5848 O   0  0  0  0  0  0  0  0  0  0  0  0
    9.9356  -13.7285   25.5801 N   0  0  0  0  0  0  0  0  0  0  0  0
    9.2577  -13.3120   26.7509 C   0  0  0  0  0  0  0  0  0  0  0  0
    8.3592  -12.4052   26.6193 O   0  0  0  0  0  0  0  0  0  0  0  0
    9.4691  -13.8078   28.1054 C   0  0  0  0  0  0  0  0  0  0  0  0
   10.4901  -14.9127   28.1752 C   0  0  2  0  0  0  0  0  0  0  0  0
   10.2194  -15.7522   26.9867 N   0  0  0  0  0  0  0  0  0  0  0  0
   10.3678  -15.7666   29.3585 C   0  0  0  0  0  0  0  0  0  0  0  0
   10.6705  -15.3131   30.4908 O   0  0  0  0  0  0  0  0  0  0  0  0
    9.9301  -17.0699   29.3108 O   0  0  0  0  0  0  0  0  0  0  0  0
  2 12  2  0
  2  1  1  0
  3  2  1  0
  4  5  1  0
  4  3  2  0
  5 11  2  0
  6  5  1  0
  7  9  1  0
  7  6  1  0
  7  8  1  6
  9 10  2  0
 11 12  1  0
 13 14  1  0
 13  9  1  0
 14 18  1  0
 14 15  1  6
 16 15  1  0
 16 17  2  0
 18 26  1  0
 18 19  2  0
 20 16  1  0
 21 22  1  0
 22 24  1  0
 23 22  2  0
 25 24  1  1
 25 27  1  0
 26 25  1  0
 27 28  2  0
 27 29  1  0
M  END
$$$$
