YDN.pdb
     RDKit          3D

 29 29  0  0  1  0  0  0  0  0999 V2000
    8.6992  -12.7852   17.4551 O   0  0  0  0  0  0  0  0  0  0  0  0
    8.3227  -13.1444   18.7426 C   0  0  0  0  0  0  0  0  0  0  0  0
    8.9102  -12.5235   19.8316 C   0  0  0  0  0  0  0  0  0  0  0  0
    8.5529  -12.8628   21.1355 C   0  0  0  0  0  0  0  0  0  0  0  0
    7.6027  -13.8277   21.3794 C   0  0  0  0  0  0  0  0  0  0  0  0
    7.2068  -14.2020   22.7561 C   0  0  0  0  0  0  0  0  0  0  0  0
    8.2787  -14.9830   23.4761 C   0  0  2  0  0  0  0  0  0  0  0  0
    9.5523  -14.3321   23.4813 N   0  0  0  0  0  0  0  0  0  0  0  0
    8.3784  -16.3092   22.7641 C   0  0  0  0  0  0  0  0  0  0  0  0
    7.3663  -16.9762   22.4434 O   0  0  0  0  0  0  0  0  0  0  0  0
    7.0226  -14.4415   20.2800 C   0  0  0  0  0  0  0  0  0  0  0  0
    7.3658  -14.1165   18.9852 C   0  0  0  0  0  0  0  0  0  0  0  0
    9.6397  -16.8166   22.4485 N   0  0  0  0  0  0  0  0  0  0  0  0
    9.8974  -17.6138   21.1966 C   0  0  1  0  0  0  0  0  0  0  0  0
    8.8178  -17.2449   20.2418 C   0  0  0  0  0  0  0  0  0  0  0  0
    8.8443  -17.8954   18.9622 C   0  0  0  0  0  0  0  0  0  0  0  0
    9.0134  -17.3895   17.8533 O   0  0  0  0  0  0  0  0  0  0  0  0
   11.2605  -17.2346   20.8435 C   0  0  0  0  0  0  0  0  0  0  0  0
   11.9203  -18.0083   20.0598 O   0  0  0  0  0  0  0  0  0  0  0  0
    8.6541  -19.3094   18.9292 O   0  0  0  0  0  0  0  0  0  0  0  0
   12.9247  -15.5049   18.2728 N   0  0  0  0  0  0  0  0  0  0  0  0
   13.3740  -14.4800   19.1395 C   0  0  0  0  0  0  0  0  0  0  0  0
   13.6098  -13.3308   18.6190 O   0  0  0  0  0  0  0  0  0  0  0  0
   13.5986  -14.5871   20.5759 C   0  0  0  0  0  0  0  0  0  0  0  0
   13.3786  -15.9803   21.1038 C   0  0  2  0  0  0  0  0  0  0  0  0
   11.9134  -16.0887   21.2830 N   0  0  0  0  0  0  0  0  0  0  0  0
   14.0043  -16.2336   22.4032 C   0  0  0  0  0  0  0  0  0  0  0  0
   15.2571  -16.2527   22.5008 O   0  0  0  0  0  0  0  0  0  0  0  0
   13.2904  -16.4577   23.5576 O   0  0  0  0  0  0  0  0  0  0  0  0
  2 12  2  0
  2  1  1  0
  3  2  1  0
  4  5  1  0
  4  3  2  0
  5 11  2  0
  6  5  1  0
  7  9  1  0
  7  6  1  0
  7  8  1  6
  9 10  2  0
 11 12  1  0
 13 14  1  0
 13  9  1  0
 14 18  1  0
 14 15  1  6
 16 15  1  0
 16 17  2  0
 18 26  1  0
 18 19  2  0
 20 16  1  0
 21 22  1  0
 22 24  1  0
 23 22  2  0
 25 24  1  1
 25 27  1  0
 26 25  1  0
 27 28  2  0
 27 29  1  0
M  END
$$$$
