YDN.pdb
     RDKit          3D

 29 29  0  0  1  0  0  0  0  0999 V2000
    6.0295  -11.9087   19.4820 O   0  0  0  0  0  0  0  0  0  0  0  0
    7.1487  -12.6669   19.1643 C   0  0  0  0  0  0  0  0  0  0  0  0
    8.0525  -13.0113   20.1548 C   0  0  0  0  0  0  0  0  0  0  0  0
    9.1848  -13.7713   19.8664 C   0  0  0  0  0  0  0  0  0  0  0  0
    9.4384  -14.2029   18.5846 C   0  0  0  0  0  0  0  0  0  0  0  0
   10.6338  -15.0127   18.2565 C   0  0  0  0  0  0  0  0  0  0  0  0
   11.8299  -14.6508   19.1026 C   0  0  2  0  0  0  0  0  0  0  0  0
   12.1650  -13.2613   19.0517 N   0  0  0  0  0  0  0  0  0  0  0  0
   12.9770  -15.4792   18.5795 C   0  0  0  0  0  0  0  0  0  0  0  0
   12.8937  -16.7211   18.4286 O   0  0  0  0  0  0  0  0  0  0  0  0
    8.5254  -13.8509   17.6025 C   0  0  0  0  0  0  0  0  0  0  0  0
    7.4016  -13.1000   17.8728 C   0  0  0  0  0  0  0  0  0  0  0  0
   14.1764  -14.8457   18.2501 N   0  0  0  0  0  0  0  0  0  0  0  0
   15.3881  -15.6082   17.7819 C   0  0  1  0  0  0  0  0  0  0  0  0
   15.8804  -14.8990   16.5702 C   0  0  0  0  0  0  0  0  0  0  0  0
   15.2221  -15.2114   15.3332 C   0  0  0  0  0  0  0  0  0  0  0  0
   14.7367  -16.2850   14.9780 O   0  0  0  0  0  0  0  0  0  0  0  0
   16.2514  -15.6020   18.9570 C   0  0  0  0  0  0  0  0  0  0  0  0
   16.9764  -14.5642   19.1702 O   0  0  0  0  0  0  0  0  0  0  0  0
   15.0940  -14.1710   14.3650 O   0  0  0  0  0  0  0  0  0  0  0  0
   15.7686  -14.6733   23.8948 N   0  0  0  0  0  0  0  0  0  0  0  0
   16.6320  -15.1687   22.8883 C   0  0  0  0  0  0  0  0  0  0  0  0
   17.5885  -14.4037   22.5051 O   0  0  0  0  0  0  0  0  0  0  0  0
   16.5543  -16.4687   22.2334 C   0  0  0  0  0  0  0  0  0  0  0  0
   17.3602  -16.5370   20.9630 C   0  0  2  0  0  0  0  0  0  0  0  0
   16.3533  -16.6344   19.8825 N   0  0  0  0  0  0  0  0  0  0  0  0
   18.2283  -17.7123   20.8675 C   0  0  0  0  0  0  0  0  0  0  0  0
   19.1615  -17.8692   21.6945 O   0  0  0  0  0  0  0  0  0  0  0  0
   18.0851  -18.6844   19.9046 O   0  0  0  0  0  0  0  0  0  0  0  0
  2 12  2  0
  2  1  1  0
  3  2  1  0
  4  5  1  0
  4  3  2  0
  5 11  2  0
  6  5  1  0
  7  9  1  0
  7  6  1  0
  7  8  1  6
  9 10  2  0
 11 12  1  0
 13 14  1  0
 13  9  1  0
 14 18  1  0
 14 15  1  6
 16 15  1  0
 16 17  2  0
 18 26  1  0
 18 19  2  0
 20 16  1  0
 21 22  1  0
 22 24  1  0
 23 22  2  0
 25 24  1  1
 25 27  1  0
 26 25  1  0
 27 28  2  0
 27 29  1  0
M  END
$$$$
