YDN.pdb
     RDKit          3D

 29 29  0  0  1  0  0  0  0  0999 V2000
    6.1075  -10.9981   28.1797 O   0  0  0  0  0  0  0  0  0  0  0  0
    6.6095  -11.9472   27.2990 C   0  0  0  0  0  0  0  0  0  0  0  0
    7.5682  -12.8485   27.7292 C   0  0  0  0  0  0  0  0  0  0  0  0
    8.0907  -13.8123   26.8684 C   0  0  0  0  0  0  0  0  0  0  0  0
    7.6677  -13.8966   25.5618 C   0  0  0  0  0  0  0  0  0  0  0  0
    8.2078  -14.9137   24.6312 C   0  0  0  0  0  0  0  0  0  0  0  0
    7.1240  -15.7341   23.9755 C   0  0  2  0  0  0  0  0  0  0  0  0
    6.3003  -16.4399   24.9077 N   0  0  0  0  0  0  0  0  0  0  0  0
    7.8307  -16.7096   23.0674 C   0  0  0  0  0  0  0  0  0  0  0  0
    7.8098  -17.9473   23.2663 O   0  0  0  0  0  0  0  0  0  0  0  0
    6.7073  -12.9881   25.1442 C   0  0  0  0  0  0  0  0  0  0  0  0
    6.1817  -12.0297   25.9839 C   0  0  0  0  0  0  0  0  0  0  0  0
    8.5345  -16.2225   21.9649 N   0  0  0  0  0  0  0  0  0  0  0  0
    9.1913  -17.1339   20.9615 C   0  0  1  0  0  0  0  0  0  0  0  0
    9.0074  -16.4884   19.6338 C   0  0  0  0  0  0  0  0  0  0  0  0
    8.2935  -17.2471   18.6458 C   0  0  0  0  0  0  0  0  0  0  0  0
    7.7603  -18.3491   18.7698 O   0  0  0  0  0  0  0  0  0  0  0  0
   10.5545  -17.2467   21.4668 C   0  0  0  0  0  0  0  0  0  0  0  0
   11.3495  -18.0701   20.8855 O   0  0  0  0  0  0  0  0  0  0  0  0
    8.1636  -16.6860   17.3402 O   0  0  0  0  0  0  0  0  0  0  0  0
   15.3528  -16.6693   23.3426 N   0  0  0  0  0  0  0  0  0  0  0  0
   14.5954  -15.5079   23.0577 C   0  0  0  0  0  0  0  0  0  0  0  0
   15.2240  -14.3896   23.0228 O   0  0  0  0  0  0  0  0  0  0  0  0
   13.1632  -15.4423   22.7940 C   0  0  0  0  0  0  0  0  0  0  0  0
   12.4731  -16.7710   22.9568 C   0  0  2  0  0  0  0  0  0  0  0  0
   11.0762  -16.5248   22.5342 N   0  0  0  0  0  0  0  0  0  0  0  0
   12.4393  -17.2628   24.3356 C   0  0  0  0  0  0  0  0  0  0  0  0
   11.4027  -17.1085   25.0292 O   0  0  0  0  0  0  0  0  0  0  0  0
   13.4979  -17.9016   24.9388 O   0  0  0  0  0  0  0  0  0  0  0  0
  2 12  2  0
  2  1  1  0
  3  2  1  0
  4  5  1  0
  4  3  2  0
  5 11  2  0
  6  5  1  0
  7  9  1  0
  7  6  1  0
  7  8  1  1
  9 10  2  0
 11 12  1  0
 13 14  1  0
 13  9  1  0
 14 18  1  0
 14 15  1  6
 16 15  1  0
 16 17  2  0
 18 26  1  0
 18 19  2  0
 20 16  1  0
 21 22  1  0
 22 24  1  0
 23 22  2  0
 25 24  1  1
 25 27  1  0
 26 25  1  0
 27 28  2  0
 27 29  1  0
M  END
$$$$
