YDN.pdb
     RDKit          3D

 29 29  0  0  1  0  0  0  0  0999 V2000
    5.6118  -10.2140   26.8449 O   0  0  0  0  0  0  0  0  0  0  0  0
    6.0068  -11.3922   26.2251 C   0  0  0  0  0  0  0  0  0  0  0  0
    6.9594  -11.3577   25.2211 C   0  0  0  0  0  0  0  0  0  0  0  0
    7.3759  -12.5236   24.5808 C   0  0  0  0  0  0  0  0  0  0  0  0
    6.8509  -13.7470   24.9288 C   0  0  0  0  0  0  0  0  0  0  0  0
    7.2805  -14.9979   24.2632 C   0  0  0  0  0  0  0  0  0  0  0  0
    8.2623  -15.7889   25.0925 C   0  0  2  0  0  0  0  0  0  0  0  0
    9.2994  -14.9883   25.6659 N   0  0  0  0  0  0  0  0  0  0  0  0
    8.8570  -16.8193   24.1649 C   0  0  0  0  0  0  0  0  0  0  0  0
    8.1569  -17.6799   23.5808 O   0  0  0  0  0  0  0  0  0  0  0  0
    5.8980  -13.7673   25.9356 C   0  0  0  0  0  0  0  0  0  0  0  0
    5.4765  -12.6227   26.5776 C   0  0  0  0  0  0  0  0  0  0  0  0
   10.2354  -16.8194   23.9455 N   0  0  0  0  0  0  0  0  0  0  0  0
   10.9470  -17.9743   23.2907 C   0  0  1  0  0  0  0  0  0  0  0  0
   11.4545  -17.4631   21.9890 C   0  0  0  0  0  0  0  0  0  0  0  0
   12.1468  -18.4058   21.1564 C   0  0  0  0  0  0  0  0  0  0  0  0
   12.2336  -19.6255   21.2952 O   0  0  0  0  0  0  0  0  0  0  0  0
   11.9371  -18.3565   24.2906 C   0  0  0  0  0  0  0  0  0  0  0  0
   13.0513  -17.7191   24.3139 O   0  0  0  0  0  0  0  0  0  0  0  0
   12.8349  -17.9043   20.0112 O   0  0  0  0  0  0  0  0  0  0  0  0
   10.2921  -20.4625   27.1044 N   0  0  0  0  0  0  0  0  0  0  0  0
   11.2363  -19.7666   27.8968 C   0  0  0  0  0  0  0  0  0  0  0  0
   10.9207  -19.5333   29.1186 O   0  0  0  0  0  0  0  0  0  0  0  0
   12.5443  -19.2823   27.4728 C   0  0  0  0  0  0  0  0  0  0  0  0
   12.9224  -19.7424   26.0896 C   0  0  2  0  0  0  0  0  0  0  0  0
   11.7736  -19.3607   25.2379 N   0  0  0  0  0  0  0  0  0  0  0  0
   13.1023  -21.1906   25.9688 C   0  0  0  0  0  0  0  0  0  0  0  0
   13.9983  -21.7670   26.6353 O   0  0  0  0  0  0  0  0  0  0  0  0
   12.3322  -21.9845   25.1508 O   0  0  0  0  0  0  0  0  0  0  0  0
  2 12  2  0
  2  1  1  0
  3  2  1  0
  4  5  1  0
  4  3  2  0
  5 11  2  0
  6  5  1  0
  7  9  1  0
  7  6  1  0
  7  8  1  6
  9 10  2  0
 11 12  1  0
 13 14  1  0
 13  9  1  0
 14 18  1  0
 14 15  1  6
 16 15  1  0
 16 17  2  0
 18 26  1  0
 18 19  2  0
 20 16  1  0
 21 22  1  0
 22 24  1  0
 23 22  2  0
 25 24  1  1
 25 27  1  0
 26 25  1  0
 27 28  2  0
 27 29  1  0
M  END
$$$$
