YDN.pdb
     RDKit          3D

 29 29  0  0  1  0  0  0  0  0999 V2000
    5.9563  -12.8907   15.4801 O   0  0  0  0  0  0  0  0  0  0  0  0
    6.5907  -13.4841   16.5635 C   0  0  0  0  0  0  0  0  0  0  0  0
    6.5697  -14.8610   16.7058 C   0  0  0  0  0  0  0  0  0  0  0  0
    7.1974  -15.4851   17.7825 C   0  0  0  0  0  0  0  0  0  0  0  0
    7.8586  -14.7488   18.7386 C   0  0  0  0  0  0  0  0  0  0  0  0
    8.5337  -15.3913   19.8891 C   0  0  0  0  0  0  0  0  0  0  0  0
   10.0120  -15.0914   19.9359 C   0  0  2  0  0  0  0  0  0  0  0  0
   10.6541  -15.1881   18.6615 N   0  0  0  0  0  0  0  0  0  0  0  0
   10.6105  -16.0911   20.8940 C   0  0  0  0  0  0  0  0  0  0  0  0
   10.1846  -16.2371   22.0641 O   0  0  0  0  0  0  0  0  0  0  0  0
    7.8719  -13.3711   18.5839 C   0  0  0  0  0  0  0  0  0  0  0  0
    7.2557  -12.7402   17.5247 C   0  0  0  0  0  0  0  0  0  0  0  0
   11.6768  -16.8846   20.4680 N   0  0  0  0  0  0  0  0  0  0  0  0
   12.3419  -17.8919   21.3692 C   0  0  1  0  0  0  0  0  0  0  0  0
   12.2062  -19.2083   20.6895 C   0  0  0  0  0  0  0  0  0  0  0  0
   10.8708  -19.6344   20.3792 C   0  0  0  0  0  0  0  0  0  0  0  0
   10.3537  -19.7753   19.2715 O   0  0  0  0  0  0  0  0  0  0  0  0
   13.6887  -17.3539   21.5214 C   0  0  0  0  0  0  0  0  0  0  0  0
   14.4694  -17.3791   20.5027 O   0  0  0  0  0  0  0  0  0  0  0  0
   10.0001  -19.9437   21.4668 O   0  0  0  0  0  0  0  0  0  0  0  0
   16.6685  -15.4811   20.0926 N   0  0  0  0  0  0  0  0  0  0  0  0
   15.8957  -14.8931   21.1226 C   0  0  0  0  0  0  0  0  0  0  0  0
   15.0553  -13.9850   20.7819 O   0  0  0  0  0  0  0  0  0  0  0  0
   15.9487  -15.2114   22.5442 C   0  0  0  0  0  0  0  0  0  0  0  0
   15.6710  -16.6631   22.8332 C   0  0  2  0  0  0  0  0  0  0  0  0
   14.2046  -16.8027   22.6888 N   0  0  0  0  0  0  0  0  0  0  0  0
   16.0248  -17.0812   24.1912 C   0  0  0  0  0  0  0  0  0  0  0  0
   15.1196  -17.2777   25.0406 O   0  0  0  0  0  0  0  0  0  0  0  0
   17.3200  -17.2794   24.6102 O   0  0  0  0  0  0  0  0  0  0  0  0
  2 12  2  0
  2  1  1  0
  3  2  1  0
  4  5  1  0
  4  3  2  0
  5 11  2  0
  6  5  1  0
  7  9  1  0
  7  6  1  0
  7  8  1  6
  9 10  2  0
 11 12  1  0
 13 14  1  0
 13  9  1  0
 14 18  1  0
 14 15  1  6
 16 15  1  0
 16 17  2  0
 18 26  1  0
 18 19  2  0
 20 16  1  0
 21 22  1  0
 22 24  1  0
 23 22  2  0
 25 24  1  1
 25 27  1  0
 26 25  1  0
 27 28  2  0
 27 29  1  0
M  END
$$$$
