YDN.pdb
     RDKit          3D

 29 29  0  0  1  0  0  0  0  0999 V2000
    7.0985  -12.7139   17.0606 O   0  0  0  0  0  0  0  0  0  0  0  0
    7.5592  -13.4310   18.1568 C   0  0  0  0  0  0  0  0  0  0  0  0
    8.4331  -14.4886   17.9715 C   0  0  0  0  0  0  0  0  0  0  0  0
    8.9125  -15.2269   19.0523 C   0  0  0  0  0  0  0  0  0  0  0  0
    8.5301  -14.9252   20.3392 C   0  0  0  0  0  0  0  0  0  0  0  0
    9.0288  -15.6948   21.5017 C   0  0  0  0  0  0  0  0  0  0  0  0
    8.6972  -17.1642   21.4102 C   0  0  2  0  0  0  0  0  0  0  0  0
    7.2957  -17.4266   21.2986 N   0  0  0  0  0  0  0  0  0  0  0  0
    9.2431  -17.7943   22.6674 C   0  0  0  0  0  0  0  0  0  0  0  0
    8.6092  -17.7915   23.7491 O   0  0  0  0  0  0  0  0  0  0  0  0
    7.6547  -13.8639   20.5106 C   0  0  0  0  0  0  0  0  0  0  0  0
    7.1725  -13.1250   19.4516 C   0  0  0  0  0  0  0  0  0  0  0  0
   10.4983  -18.4037   22.6309 N   0  0  0  0  0  0  0  0  0  0  0  0
   11.1196  -19.0421   23.8456 C   0  0  1  0  0  0  0  0  0  0  0  0
   10.8244  -20.4967   23.7452 C   0  0  0  0  0  0  0  0  0  0  0  0
    9.5515  -20.9285   24.2498 C   0  0  0  0  0  0  0  0  0  0  0  0
    8.8855  -21.9038   23.9040 O   0  0  0  0  0  0  0  0  0  0  0  0
   12.5166  -18.6353   23.7491 C   0  0  0  0  0  0  0  0  0  0  0  0
   13.3479  -19.1181   24.5999 O   0  0  0  0  0  0  0  0  0  0  0  0
    8.9478  -20.1545   25.2857 O   0  0  0  0  0  0  0  0  0  0  0  0
   16.5600  -14.6174   22.3910 N   0  0  0  0  0  0  0  0  0  0  0  0
   15.9732  -15.7551   21.7866 C   0  0  0  0  0  0  0  0  0  0  0  0
   16.7215  -16.4694   21.0271 O   0  0  0  0  0  0  0  0  0  0  0  0
   14.5967  -16.2109   21.9360 C   0  0  0  0  0  0  0  0  0  0  0  0
   14.4639  -17.3876   22.8665 C   0  0  2  0  0  0  0  0  0  0  0  0
   13.0338  -17.7631   22.7981 N   0  0  0  0  0  0  0  0  0  0  0  0
   14.7763  -17.0834   24.2644 C   0  0  0  0  0  0  0  0  0  0  0  0
   13.9895  -16.3743   24.9408 O   0  0  0  0  0  0  0  0  0  0  0  0
   15.9066  -17.5363   24.9045 O   0  0  0  0  0  0  0  0  0  0  0  0
  2 12  2  0
  2  1  1  0
  3  2  1  0
  4  5  1  0
  4  3  2  0
  5 11  2  0
  6  5  1  0
  7  9  1  0
  7  6  1  0
  7  8  1  1
  9 10  2  0
 11 12  1  0
 13 14  1  0
 13  9  1  0
 14 18  1  0
 14 15  1  6
 16 15  1  0
 16 17  2  0
 18 26  1  0
 18 19  2  0
 20 16  1  0
 21 22  1  0
 22 24  1  0
 23 22  2  0
 25 24  1  6
 25 27  1  0
 26 25  1  0
 27 28  2  0
 27 29  1  0
M  END
$$$$
