YDN.pdb
     RDKit          3D

 29 29  0  0  1  0  0  0  0  0999 V2000
    4.9333  -10.7440   26.0484 O   0  0  0  0  0  0  0  0  0  0  0  0
    5.7522  -11.8537   25.8862 C   0  0  0  0  0  0  0  0  0  0  0  0
    5.6879  -12.8972   26.7938 C   0  0  0  0  0  0  0  0  0  0  0  0
    6.4971  -14.0238   26.6571 C   0  0  0  0  0  0  0  0  0  0  0  0
    7.3865  -14.1324   25.6128 C   0  0  0  0  0  0  0  0  0  0  0  0
    8.2539  -15.3210   25.4475 C   0  0  0  0  0  0  0  0  0  0  0  0
    7.9411  -16.0975   24.1919 C   0  0  2  0  0  0  0  0  0  0  0  0
    6.6869  -16.7830   24.2429 N   0  0  0  0  0  0  0  0  0  0  0  0
    9.0659  -17.0885   24.0230 C   0  0  0  0  0  0  0  0  0  0  0  0
    8.8800  -18.3278   24.0639 O   0  0  0  0  0  0  0  0  0  0  0  0
    7.4407  -13.0806   24.7113 C   0  0  0  0  0  0  0  0  0  0  0  0
    6.6469  -11.9604   24.8337 C   0  0  0  0  0  0  0  0  0  0  0  0
   10.3619  -16.6145   23.8135 N   0  0  0  0  0  0  0  0  0  0  0  0
   11.5640  -17.5221   23.8286 C   0  0  1  0  0  0  0  0  0  0  0  0
   12.5462  -16.9235   22.8850 C   0  0  0  0  0  0  0  0  0  0  0  0
   12.1962  -16.9513   21.4929 C   0  0  0  0  0  0  0  0  0  0  0  0
   11.4842  -17.7626   20.9020 O   0  0  0  0  0  0  0  0  0  0  0  0
   11.9286  -17.5569   25.2400 C   0  0  0  0  0  0  0  0  0  0  0  0
   13.1393  -17.8552   25.5454 O   0  0  0  0  0  0  0  0  0  0  0  0
   12.7212  -15.9240   20.6530 O   0  0  0  0  0  0  0  0  0  0  0  0
   11.8475  -14.5517   26.9261 N   0  0  0  0  0  0  0  0  0  0  0  0
   10.9853  -14.9645   27.9701 C   0  0  0  0  0  0  0  0  0  0  0  0
   10.3119  -14.0527   28.5720 O   0  0  0  0  0  0  0  0  0  0  0  0
   10.7742  -16.3280   28.4406 C   0  0  0  0  0  0  0  0  0  0  0  0
   11.5863  -17.3447   27.6824 C   0  0  2  0  0  0  0  0  0  0  0  0
   11.0680  -17.2846   26.2973 N   0  0  0  0  0  0  0  0  0  0  0  0
   11.4199  -18.7193   28.1589 C   0  0  0  0  0  0  0  0  0  0  0  0
   11.8617  -19.0471   29.2888 O   0  0  0  0  0  0  0  0  0  0  0  0
   10.7931  -19.7036   27.4303 O   0  0  0  0  0  0  0  0  0  0  0  0
  2 12  2  0
  2  1  1  0
  3  2  1  0
  4  5  1  0
  4  3  2  0
  5 11  2  0
  6  5  1  0
  7  9  1  0
  7  6  1  0
  7  8  1  1
  9 10  2  0
 11 12  1  0
 13 14  1  0
 13  9  1  0
 14 18  1  0
 14 15  1  6
 16 15  1  0
 16 17  2  0
 18 26  1  0
 18 19  2  0
 20 16  1  0
 21 22  1  0
 22 24  1  0
 23 22  2  0
 25 24  1  1
 25 27  1  0
 26 25  1  0
 27 28  2  0
 27 29  1  0
M  END
$$$$
