EWY.pdb
     RDKit          3D

 36 38  0  0  1  0  0  0  0  0999 V2000
   28.5776  -22.8234  -16.4049 N   0  0  0  0  0  0  0  0  0  0  0  0
   27.9346  -21.5647  -16.1237 C   0  0  1  0  0  0  0  0  0  0  0  0
   27.0056  -21.2619  -17.2882 C   0  0  0  0  0  0  0  0  0  0  0  0
   27.8377  -20.8248  -18.4542 C   0  0  0  0  0  0  0  0  0  0  0  0
   28.1323  -19.3838  -18.3809 C   0  0  0  0  0  0  0  0  0  0  0  0
   27.4165  -18.6171  -17.7204 O   0  0  0  0  0  0  0  0  0  0  0  0
   27.0861  -21.7298  -14.9122 C   0  0  0  0  0  0  0  0  0  0  0  0
   26.4702  -22.8375  -14.7236 O   0  0  0  0  0  0  0  0  0  0  0  0
   29.2347  -18.8609  -19.0623 O   0  0  0  0  0  0  0  0  0  0  0  0
   26.9816  -20.6584  -14.0017 N   0  0  0  0  0  0  0  0  0  0  0  0
   26.2178  -20.8914  -12.7607 C   0  0  1  0  0  0  0  0  0  0  0  0
   26.7821  -19.9360  -11.7488 C   0  0  0  0  0  0  0  0  0  0  0  0
   27.8452  -20.5921  -10.9677 C   0  0  0  0  0  0  0  0  0  0  0  0
   28.9683  -21.2222  -11.4549 C   0  0  0  0  0  0  0  0  0  0  0  0
   29.6508  -21.6874  -10.3993 N   0  0  0  0  0  0  0  0  0  0  0  0
   29.0268  -21.3903   -9.2588 C   0  0  0  0  0  0  0  0  0  0  0  0
   29.3336  -21.6506   -7.9212 C   0  0  0  0  0  0  0  0  0  0  0  0
   28.4569  -21.1932   -6.9574 C   0  0  0  0  0  0  0  0  0  0  0  0
   27.3162  -20.5030   -7.2953 C   0  0  0  0  0  0  0  0  0  0  0  0
   27.0119  -20.2464   -8.6002 C   0  0  0  0  0  0  0  0  0  0  0  0
   27.8933  -20.7042   -9.5937 C   0  0  0  0  0  0  0  0  0  0  0  0
   24.8195  -20.7629  -13.0963 C   0  0  0  0  0  0  0  0  0  0  0  0
   24.4652  -19.7578  -13.8114 O   0  0  0  0  0  0  0  0  0  0  0  0
   16.2758  -22.7746  -13.8466 O   0  0  0  0  0  0  0  0  0  0  0  0
   17.6394  -22.7527  -13.6331 C   0  0  0  0  0  0  0  0  0  0  0  0
   18.4072  -23.6044  -14.4275 C   0  0  0  0  0  0  0  0  0  0  0  0
   19.7654  -23.6016  -14.2361 C   0  0  0  0  0  0  0  0  0  0  0  0
   20.3691  -22.7841  -13.2881 C   0  0  0  0  0  0  0  0  0  0  0  0
   21.8235  -22.8323  -13.1290 C   0  0  0  0  0  0  0  0  0  0  0  0
   22.4508  -21.4436  -13.0095 C   0  0  2  0  0  0  0  0  0  0  0  0
   23.8338  -21.6748  -12.6879 N   0  0  0  0  0  0  0  0  0  0  0  0
   21.7367  -20.5895  -12.0665 C   0  0  0  0  0  0  0  0  0  0  0  0
   21.9134  -20.7163  -10.6979 O   0  0  0  0  0  0  0  0  0  0  0  0
   19.5808  -21.9555  -12.5210 C   0  0  0  0  0  0  0  0  0  0  0  0
   18.2097  -21.9429  -12.6976 C   0  0  0  0  0  0  0  0  0  0  0  0
   20.9270  -19.6985  -12.4332 O   0  0  0  0  0  0  0  0  0  0  0  0
  2  1  1  6
  3  2  1  0
  4  3  1  0
  5  9  1  0
  5  4  1  0
  6  5  2  0
  7  8  2  0
  7  2  1  0
 10  7  1  0
 11 10  1  0
 11 12  1  1
 13 12  1  0
 13 14  2  0
 15 14  1  0
 16 15  1  0
 17 16  2  0
 18 17  1  0
 19 18  2  0
 19 20  1  0
 20 21  2  0
 21 16  1  0
 21 13  1  0
 22 11  1  0
 23 22  2  0
 24 25  1  0
 25 35  2  0
 26 25  1  0
 26 27  2  0
 27 28  1  0
 28 34  2  0
 28 29  1  0
 30 29  1  1
 30 31  1  0
 31 22  1  0
 32 30  1  0
 33 32  1  0
 35 34  1  0
 36 32  2  0
M  END
$$$$
