EWY.pdb
     RDKit          3D

 36 38  0  0  1  0  0  0  0  0999 V2000
   27.9333  -23.2048  -16.2303 N   0  0  0  0  0  0  0  0  0  0  0  0
   26.5800  -23.3135  -16.7135 C   0  0  1  0  0  0  0  0  0  0  0  0
   26.2786  -24.7937  -16.8839 C   0  0  0  0  0  0  0  0  0  0  0  0
   27.1077  -25.3166  -18.0161 C   0  0  0  0  0  0  0  0  0  0  0  0
   26.9082  -24.5102  -19.2320 C   0  0  0  0  0  0  0  0  0  0  0  0
   25.8005  -24.0246  -19.5032 O   0  0  0  0  0  0  0  0  0  0  0  0
   25.6621  -22.7930  -15.6640 C   0  0  0  0  0  0  0  0  0  0  0  0
   24.9125  -23.6116  -15.0237 O   0  0  0  0  0  0  0  0  0  0  0  0
   27.9781  -24.2812  -20.1014 O   0  0  0  0  0  0  0  0  0  0  0  0
   25.6413  -21.4078  -15.4021 N   0  0  0  0  0  0  0  0  0  0  0  0
   24.8362  -20.9434  -14.2559 C   0  0  1  0  0  0  0  0  0  0  0  0
   25.6343  -19.8445  -13.6152 C   0  0  0  0  0  0  0  0  0  0  0  0
   26.5056  -20.3963  -12.5628 C   0  0  0  0  0  0  0  0  0  0  0  0
   27.8192  -20.7887  -12.6904 C   0  0  0  0  0  0  0  0  0  0  0  0
   28.2157  -21.2404  -11.4923 N   0  0  0  0  0  0  0  0  0  0  0  0
   27.2274  -21.1595  -10.6006 C   0  0  0  0  0  0  0  0  0  0  0  0
   27.1489  -21.4973   -9.2476 C   0  0  0  0  0  0  0  0  0  0  0  0
   25.9499  -21.2819   -8.5974 C   0  0  0  0  0  0  0  0  0  0  0  0
   24.8633  -20.7525   -9.2538 C   0  0  0  0  0  0  0  0  0  0  0  0
   24.9347  -20.4211  -10.5752 C   0  0  0  0  0  0  0  0  0  0  0  0
   26.1473  -20.6333  -11.2521 C   0  0  0  0  0  0  0  0  0  0  0  0
   23.5279  -20.6102  -14.7676 C   0  0  0  0  0  0  0  0  0  0  0  0
   23.4652  -19.9383  -15.8592 O   0  0  0  0  0  0  0  0  0  0  0  0
   18.2096  -24.6031  -10.7164 O   0  0  0  0  0  0  0  0  0  0  0  0
   18.6921  -23.8951  -11.7987 C   0  0  0  0  0  0  0  0  0  0  0  0
   19.9779  -24.2199  -12.2315 C   0  0  0  0  0  0  0  0  0  0  0  0
   20.4811  -23.5316  -13.3059 C   0  0  0  0  0  0  0  0  0  0  0  0
   19.7471  -22.5431  -13.9506 C   0  0  0  0  0  0  0  0  0  0  0  0
   20.3436  -21.8414  -15.0884 C   0  0  0  0  0  0  0  0  0  0  0  0
   21.0640  -20.5571  -14.6784 C   0  0  2  0  0  0  0  0  0  0  0  0
   22.3286  -20.9827  -14.1406 N   0  0  0  0  0  0  0  0  0  0  0  0
   20.2628  -19.7318  -13.7808 C   0  0  0  0  0  0  0  0  0  0  0  0
   20.6875  -19.4385  -12.4948 O   0  0  0  0  0  0  0  0  0  0  0  0
   18.4808  -22.2479  -13.4969 C   0  0  0  0  0  0  0  0  0  0  0  0
   17.9546  -22.9296  -12.4154 C   0  0  0  0  0  0  0  0  0  0  0  0
   19.1520  -19.2434  -14.1147 O   0  0  0  0  0  0  0  0  0  0  0  0
  2  1  1  1
  3  2  1  0
  4  3  1  0
  5  9  1  0
  5  4  1  0
  6  5  2  0
  7  8  2  0
  7  2  1  0
 10  7  1  0
 11 10  1  0
 11 12  1  6
 13 12  1  0
 13 14  2  0
 15 14  1  0
 16 15  1  0
 17 16  2  0
 18 17  1  0
 19 18  2  0
 19 20  1  0
 20 21  2  0
 21 16  1  0
 21 13  1  0
 22 11  1  0
 23 22  2  0
 24 25  1  0
 25 35  2  0
 26 25  1  0
 26 27  2  0
 27 28  1  0
 28 34  2  0
 28 29  1  0
 30 29  1  1
 30 31  1  0
 31 22  1  0
 32 30  1  0
 33 32  1  0
 35 34  1  0
 36 32  2  0
M  END
$$$$
