EWY.pdb
     RDKit          3D

 36 38  0  0  1  0  0  0  0  0999 V2000
   27.1486  -21.6626  -16.9542 N   0  0  0  0  0  0  0  0  0  0  0  0
   26.9157  -20.8160  -15.8116 C   0  0  1  0  0  0  0  0  0  0  0  0
   26.3073  -19.5210  -16.3252 C   0  0  0  0  0  0  0  0  0  0  0  0
   27.3254  -18.8266  -17.1762 C   0  0  0  0  0  0  0  0  0  0  0  0
   28.3001  -18.1002  -16.3450 C   0  0  0  0  0  0  0  0  0  0  0  0
   29.1286  -18.7078  -15.6517 O   0  0  0  0  0  0  0  0  0  0  0  0
   25.8990  -21.4681  -14.9420 C   0  0  0  0  0  0  0  0  0  0  0  0
   24.8854  -22.0379  -15.4802 O   0  0  0  0  0  0  0  0  0  0  0  0
   28.3009  -16.7027  -16.3302 O   0  0  0  0  0  0  0  0  0  0  0  0
   26.0787  -21.4402  -13.5438 N   0  0  0  0  0  0  0  0  0  0  0  0
   25.0302  -22.0590  -12.7099 C   0  0  1  0  0  0  0  0  0  0  0  0
   25.7426  -22.6369  -11.5210 C   0  0  0  0  0  0  0  0  0  0  0  0
   26.1770  -21.5589  -10.6153 C   0  0  0  0  0  0  0  0  0  0  0  0
   25.3749  -20.7157   -9.8796 C   0  0  0  0  0  0  0  0  0  0  0  0
   26.1844  -19.8826   -9.2107 N   0  0  0  0  0  0  0  0  0  0  0  0
   27.4646  -20.1449   -9.4767 C   0  0  0  0  0  0  0  0  0  0  0  0
   28.6567  -19.5671   -9.0339 C   0  0  0  0  0  0  0  0  0  0  0  0
   29.8427  -20.0880   -9.5122 C   0  0  0  0  0  0  0  0  0  0  0  0
   29.8583  -21.1415  -10.3962 C   0  0  0  0  0  0  0  0  0  0  0  0
   28.6969  -21.7093  -10.8319 C   0  0  0  0  0  0  0  0  0  0  0  0
   27.4809  -21.1919  -10.3550 C   0  0  0  0  0  0  0  0  0  0  0  0
   24.0331  -21.0440  -12.4652 C   0  0  0  0  0  0  0  0  0  0  0  0
   24.3630  -20.0455  -11.7296 O   0  0  0  0  0  0  0  0  0  0  0  0
   22.3371  -18.9846  -18.9791 O   0  0  0  0  0  0  0  0  0  0  0  0
   22.4230  -18.9188  -17.6030 C   0  0  0  0  0  0  0  0  0  0  0  0
   21.2693  -19.2477  -16.8912 C   0  0  0  0  0  0  0  0  0  0  0  0
   21.3279  -19.1913  -15.5219 C   0  0  0  0  0  0  0  0  0  0  0  0
   22.4891  -18.8213  -14.8539 C   0  0  0  0  0  0  0  0  0  0  0  0
   22.4847  -18.7754  -13.3908 C   0  0  0  0  0  0  0  0  0  0  0  0
   21.8189  -19.9999  -12.7635 C   0  0  2  0  0  0  0  0  0  0  0  0
   22.7315  -21.0890  -12.9886 N   0  0  0  0  0  0  0  0  0  0  0  0
   20.4674  -20.2184  -13.2681 C   0  0  0  0  0  0  0  0  0  0  0  0
   19.4555  -19.2974  -13.0493 O   0  0  0  0  0  0  0  0  0  0  0  0
   23.6099  -18.5031  -15.5880 C   0  0  0  0  0  0  0  0  0  0  0  0
   23.5724  -18.5533  -16.9691 C   0  0  0  0  0  0  0  0  0  0  0  0
   20.1425  -21.2429  -13.9229 O   0  0  0  0  0  0  0  0  0  0  0  0
  2  1  1  6
  3  2  1  0
  4  3  1  0
  5  9  1  0
  5  4  1  0
  6  5  2  0
  7  8  2  0
  7  2  1  0
 10  7  1  0
 11 10  1  0
 11 12  1  1
 13 12  1  0
 13 14  2  0
 15 14  1  0
 16 15  1  0
 17 16  2  0
 18 17  1  0
 19 18  2  0
 19 20  1  0
 20 21  2  0
 21 16  1  0
 21 13  1  0
 22 11  1  0
 23 22  2  0
 24 25  1  0
 25 35  2  0
 26 25  1  0
 26 27  2  0
 27 28  1  0
 28 34  2  0
 28 29  1  0
 30 29  1  6
 30 31  1  0
 31 22  1  0
 32 30  1  0
 33 32  1  0
 35 34  1  0
 36 32  2  0
M  END
$$$$
