EWY.pdb
     RDKit          3D

 36 38  0  0  1  0  0  0  0  0999 V2000
   28.0873  -22.4165  -16.1551 N   0  0  0  0  0  0  0  0  0  0  0  0
   28.0461  -21.2317  -15.3358 C   0  0  1  0  0  0  0  0  0  0  0  0
   27.2930  -20.1676  -16.1178 C   0  0  0  0  0  0  0  0  0  0  0  0
   28.1978  -19.6400  -17.1882 C   0  0  0  0  0  0  0  0  0  0  0  0
   28.0073  -20.3759  -18.4495 C   0  0  0  0  0  0  0  0  0  0  0  0
   26.9473  -20.2909  -19.0862 O   0  0  0  0  0  0  0  0  0  0  0  0
   27.2490  -21.5309  -14.1152 C   0  0  0  0  0  0  0  0  0  0  0  0
   26.1757  -22.2229  -14.2205 O   0  0  0  0  0  0  0  0  0  0  0  0
   29.0318  -21.1859  -18.9468 O   0  0  0  0  0  0  0  0  0  0  0  0
   27.6974  -21.0420  -12.8711 N   0  0  0  0  0  0  0  0  0  0  0  0
   26.8683  -21.3339  -11.6857 C   0  0  1  0  0  0  0  0  0  0  0  0
   27.7728  -21.1535  -10.5006 C   0  0  0  0  0  0  0  0  0  0  0  0
   26.9814  -20.8216   -9.3029 C   0  0  0  0  0  0  0  0  0  0  0  0
   25.6096  -20.7624   -9.2015 C   0  0  0  0  0  0  0  0  0  0  0  0
   25.3205  -20.4105   -7.9408 N   0  0  0  0  0  0  0  0  0  0  0  0
   26.4331  -20.2403   -7.2256 C   0  0  0  0  0  0  0  0  0  0  0  0
   26.6515  -19.8818   -5.8934 C   0  0  0  0  0  0  0  0  0  0  0  0
   27.9578  -19.7927   -5.4550 C   0  0  0  0  0  0  0  0  0  0  0  0
   29.0154  -20.0471   -6.2968 C   0  0  0  0  0  0  0  0  0  0  0  0
   28.8076  -20.3974   -7.5988 C   0  0  0  0  0  0  0  0  0  0  0  0
   27.4845  -20.4931   -8.0613 C   0  0  0  0  0  0  0  0  0  0  0  0
   25.6997  -20.4905  -11.7709 C   0  0  0  0  0  0  0  0  0  0  0  0
   25.8764  -19.2476  -12.0375 O   0  0  0  0  0  0  0  0  0  0  0  0
   19.6400  -17.7444  -16.7361 O   0  0  0  0  0  0  0  0  0  0  0  0
   20.6025  -18.4049  -15.9995 C   0  0  0  0  0  0  0  0  0  0  0  0
   21.5211  -17.6064  -15.3180 C   0  0  0  0  0  0  0  0  0  0  0  0
   22.4879  -18.2378  -14.5776 C   0  0  0  0  0  0  0  0  0  0  0  0
   22.5615  -19.6234  -14.4998 C   0  0  0  0  0  0  0  0  0  0  0  0
   23.6210  -20.2361  -13.6967 C   0  0  0  0  0  0  0  0  0  0  0  0
   23.2815  -20.2816  -12.2071 C   0  0  2  0  0  0  0  0  0  0  0  0
   24.3887  -20.9552  -11.5826 N   0  0  0  0  0  0  0  0  0  0  0  0
   21.9761  -20.8814  -11.9518 C   0  0  0  0  0  0  0  0  0  0  0  0
   20.8408  -20.1032  -11.7919 O   0  0  0  0  0  0  0  0  0  0  0  0
   21.6383  -20.3813  -15.1853 C   0  0  0  0  0  0  0  0  0  0  0  0
   20.6557  -19.7650  -15.9377 C   0  0  0  0  0  0  0  0  0  0  0  0
   21.8042  -22.1249  -11.8614 O   0  0  0  0  0  0  0  0  0  0  0  0
  2  1  1  6
  3  2  1  0
  4  3  1  0
  5  9  1  0
  5  4  1  0
  6  5  2  0
  7  8  2  0
  7  2  1  0
 10  7  1  0
 11 10  1  0
 11 12  1  1
 13 12  1  0
 13 14  2  0
 15 14  1  0
 16 15  1  0
 17 16  2  0
 18 17  1  0
 19 18  2  0
 19 20  1  0
 20 21  2  0
 21 16  1  0
 21 13  1  0
 22 11  1  0
 23 22  2  0
 24 25  1  0
 25 35  2  0
 26 25  1  0
 26 27  2  0
 27 28  1  0
 28 34  2  0
 28 29  1  0
 30 29  1  6
 30 31  1  0
 31 22  1  0
 32 30  1  0
 33 32  1  0
 35 34  1  0
 36 32  2  0
M  END
$$$$
