EWY.pdb
     RDKit          3D

 36 38  0  0  1  0  0  0  0  0999 V2000
   27.7426  -20.0423  -16.8742 N   0  0  0  0  0  0  0  0  0  0  0  0
   26.7458  -20.3681  -17.8626 C   0  0  1  0  0  0  0  0  0  0  0  0
   26.5430  -21.8741  -17.8203 C   0  0  0  0  0  0  0  0  0  0  0  0
   27.7630  -22.5305  -18.3891 C   0  0  0  0  0  0  0  0  0  0  0  0
   28.6053  -23.0938  -17.3205 C   0  0  0  0  0  0  0  0  0  0  0  0
   28.3008  -22.9574  -16.1268 O   0  0  0  0  0  0  0  0  0  0  0  0
   25.4596  -19.7370  -17.4598 C   0  0  0  0  0  0  0  0  0  0  0  0
   25.2571  -19.4572  -16.2259 O   0  0  0  0  0  0  0  0  0  0  0  0
   29.7688  -23.7962  -17.6457 O   0  0  0  0  0  0  0  0  0  0  0  0
   24.4943  -19.4638  -18.4506 N   0  0  0  0  0  0  0  0  0  0  0  0
   23.2609  -18.7728  -18.0276 C   0  0  1  0  0  0  0  0  0  0  0  0
   22.8499  -17.9211  -19.1940 C   0  0  0  0  0  0  0  0  0  0  0  0
   21.6204  -17.1760  -18.8712 C   0  0  0  0  0  0  0  0  0  0  0  0
   21.5000  -16.0927  -18.0299 C   0  0  0  0  0  0  0  0  0  0  0  0
   20.2062  -15.7424  -18.0182 N   0  0  0  0  0  0  0  0  0  0  0  0
   19.4878  -16.5424  -18.8070 C   0  0  0  0  0  0  0  0  0  0  0  0
   18.1275  -16.5813  -19.1219 C   0  0  0  0  0  0  0  0  0  0  0  0
   17.6952  -17.5597  -19.9951 C   0  0  0  0  0  0  0  0  0  0  0  0
   18.5693  -18.4703  -20.5414 C   0  0  0  0  0  0  0  0  0  0  0  0
   19.8987  -18.4367  -20.2370 C   0  0  0  0  0  0  0  0  0  0  0  0
   20.3558  -17.4474  -19.3504 C   0  0  0  0  0  0  0  0  0  0  0  0
   22.3387  -19.7911  -17.5838 C   0  0  0  0  0  0  0  0  0  0  0  0
   22.5586  -21.0003  -17.9533 O   0  0  0  0  0  0  0  0  0  0  0  0
   18.4129  -25.9432  -13.5348 O   0  0  0  0  0  0  0  0  0  0  0  0
   19.1089  -24.8724  -14.0588 C   0  0  0  0  0  0  0  0  0  0  0  0
   19.3149  -23.7873  -13.2066 C   0  0  0  0  0  0  0  0  0  0  0  0
   20.0046  -22.7103  -13.7023 C   0  0  0  0  0  0  0  0  0  0  0  0
   20.4871  -22.6872  -15.0054 C   0  0  0  0  0  0  0  0  0  0  0  0
   21.2109  -21.5048  -15.4756 C   0  0  0  0  0  0  0  0  0  0  0  0
   20.3548  -20.6031  -16.3646 C   0  0  2  0  0  0  0  0  0  0  0  0
   21.2236  -19.5312  -16.7720 N   0  0  0  0  0  0  0  0  0  0  0  0
   19.1244  -20.1781  -15.7056 C   0  0  0  0  0  0  0  0  0  0  0  0
   17.9198  -20.8231  -15.9360 O   0  0  0  0  0  0  0  0  0  0  0  0
   20.2657  -23.7756  -15.8195 C   0  0  0  0  0  0  0  0  0  0  0  0
   19.5727  -24.8715  -15.3399 C   0  0  0  0  0  0  0  0  0  0  0  0
   19.0824  -19.2124  -14.8996 O   0  0  0  0  0  0  0  0  0  0  0  0
  2  1  1  1
  3  2  1  0
  4  3  1  0
  5  9  1  0
  5  4  1  0
  6  5  2  0
  7  8  2  0
  7  2  1  0
 10  7  1  0
 11 10  1  0
 11 12  1  6
 13 12  1  0
 13 14  2  0
 15 14  1  0
 16 15  1  0
 17 16  2  0
 18 17  1  0
 19 18  2  0
 19 20  1  0
 20 21  2  0
 21 16  1  0
 21 13  1  0
 22 11  1  0
 23 22  2  0
 24 25  1  0
 25 35  2  0
 26 25  1  0
 26 27  2  0
 27 28  1  0
 28 34  2  0
 28 29  1  0
 30 29  1  1
 30 31  1  0
 31 22  1  0
 32 30  1  0
 33 32  1  0
 35 34  1  0
 36 32  2  0
M  END
$$$$
