EWY.pdb
     RDKit          3D

 36 38  0  0  1  0  0  0  0  0999 V2000
   28.4586  -22.1827  -15.2416 N   0  0  0  0  0  0  0  0  0  0  0  0
   28.1242  -20.8925  -14.6936 C   0  0  1  0  0  0  0  0  0  0  0  0
   27.2298  -20.1909  -15.7029 C   0  0  0  0  0  0  0  0  0  0  0  0
   28.0843  -19.7047  -16.8326 C   0  0  0  0  0  0  0  0  0  0  0  0
   27.9625  -20.5886  -18.0041 C   0  0  0  0  0  0  0  0  0  0  0  0
   28.9459  -20.8548  -18.7099 O   0  0  0  0  0  0  0  0  0  0  0  0
   27.3200  -21.0997  -13.4586 C   0  0  0  0  0  0  0  0  0  0  0  0
   26.5212  -22.0992  -13.3902 O   0  0  0  0  0  0  0  0  0  0  0  0
   26.7229  -21.1427  -18.3347 O   0  0  0  0  0  0  0  0  0  0  0  0
   27.4585  -20.1865  -12.3934 N   0  0  0  0  0  0  0  0  0  0  0  0
   26.6233  -20.4045  -11.1965 C   0  0  1  0  0  0  0  0  0  0  0  0
   27.1743  -19.4882  -10.1420 C   0  0  0  0  0  0  0  0  0  0  0  0
   28.1353  -20.2120   -9.2913 C   0  0  0  0  0  0  0  0  0  0  0  0
   29.1197  -21.0826   -9.7020 C   0  0  0  0  0  0  0  0  0  0  0  0
   29.7466  -21.5195   -8.6007 N   0  0  0  0  0  0  0  0  0  0  0  0
   29.2182  -20.9764   -7.5034 C   0  0  0  0  0  0  0  0  0  0  0  0
   29.5186  -21.1125   -6.1461 C   0  0  0  0  0  0  0  0  0  0  0  0
   28.7627  -20.3921   -5.2426 C   0  0  0  0  0  0  0  0  0  0  0  0
   27.7451  -19.5651   -5.6577 C   0  0  0  0  0  0  0  0  0  0  0  0
   27.4475  -19.4287   -6.9821 C   0  0  0  0  0  0  0  0  0  0  0  0
   28.2070  -20.1543   -7.9150 C   0  0  0  0  0  0  0  0  0  0  0  0
   25.2505  -20.2122  -11.6001 C   0  0  0  0  0  0  0  0  0  0  0  0
   24.9406  -19.0984  -12.1574 O   0  0  0  0  0  0  0  0  0  0  0  0
   17.0918  -21.5416  -14.2729 O   0  0  0  0  0  0  0  0  0  0  0  0
   18.4215  -21.6353  -13.9140 C   0  0  0  0  0  0  0  0  0  0  0  0
   18.7052  -22.3730  -12.7646 C   0  0  0  0  0  0  0  0  0  0  0  0
   20.0190  -22.4825  -12.3862 C   0  0  0  0  0  0  0  0  0  0  0  0
   21.0420  -21.8850  -13.1129 C   0  0  0  0  0  0  0  0  0  0  0  0
   22.4235  -22.0349  -12.6528 C   0  0  0  0  0  0  0  0  0  0  0  0
   22.8810  -20.8744  -11.7695 C   0  0  2  0  0  0  0  0  0  0  0  0
   24.2440  -21.1738  -11.4199 N   0  0  0  0  0  0  0  0  0  0  0  0
   21.9912  -20.6545  -10.6343 C   0  0  0  0  0  0  0  0  0  0  0  0
   20.9020  -19.8024  -10.7228 O   0  0  0  0  0  0  0  0  0  0  0  0
   20.7261  -21.1639  -14.2428 C   0  0  0  0  0  0  0  0  0  0  0  0
   19.4081  -21.0409  -14.6418 C   0  0  0  0  0  0  0  0  0  0  0  0
   22.1568  -21.2168   -9.5206 O   0  0  0  0  0  0  0  0  0  0  0  0
  2  1  1  6
  3  2  1  0
  4  3  1  0
  5  9  1  0
  5  4  1  0
  6  5  2  0
  7  8  2  0
  7  2  1  0
 10  7  1  0
 11 10  1  0
 11 12  1  1
 13 12  1  0
 13 14  2  0
 15 14  1  0
 16 15  1  0
 17 16  2  0
 18 17  1  0
 19 18  2  0
 19 20  1  0
 20 21  2  0
 21 16  1  0
 21 13  1  0
 22 11  1  0
 23 22  2  0
 24 25  1  0
 25 35  2  0
 26 25  1  0
 26 27  2  0
 27 28  1  0
 28 34  2  0
 28 29  1  0
 30 29  1  1
 30 31  1  0
 31 22  1  0
 32 30  1  0
 33 32  1  0
 35 34  1  0
 36 32  2  0
M  END
$$$$
