EWY.pdb
     RDKit          3D

 36 38  0  0  1  0  0  0  0  0999 V2000
   20.3492  -14.2697  -16.8016 N   0  0  0  0  0  0  0  0  0  0  0  0
   20.2543  -12.9158  -17.2860 C   0  0  1  0  0  0  0  0  0  0  0  0
   18.7765  -12.5712  -17.3773 C   0  0  0  0  0  0  0  0  0  0  0  0
   18.5138  -11.9748  -18.7257 C   0  0  0  0  0  0  0  0  0  0  0  0
   18.7879  -10.5279  -18.7247 C   0  0  0  0  0  0  0  0  0  0  0  0
   19.7145  -10.0517  -19.3961 O   0  0  0  0  0  0  0  0  0  0  0  0
   20.8580  -12.0094  -16.2716 C   0  0  0  0  0  0  0  0  0  0  0  0
   20.5644  -12.1680  -15.0344 O   0  0  0  0  0  0  0  0  0  0  0  0
   17.9965   -9.6679  -17.9586 O   0  0  0  0  0  0  0  0  0  0  0  0
   21.7394  -10.9962  -16.7009 N   0  0  0  0  0  0  0  0  0  0  0  0
   22.2908  -10.0925  -15.6728 C   0  0  1  0  0  0  0  0  0  0  0  0
   23.7835  -10.2211  -15.7747 C   0  0  0  0  0  0  0  0  0  0  0  0
   24.1962  -11.6036  -15.4760 C   0  0  0  0  0  0  0  0  0  0  0  0
   24.2018  -12.2237  -14.2467 C   0  0  0  0  0  0  0  0  0  0  0  0
   24.6640  -13.4681  -14.4330 N   0  0  0  0  0  0  0  0  0  0  0  0
   24.9560  -13.6817  -15.7165 C   0  0  0  0  0  0  0  0  0  0  0  0
   25.4553  -14.7949  -16.3968 C   0  0  0  0  0  0  0  0  0  0  0  0
   25.6480  -14.6851  -17.7597 C   0  0  0  0  0  0  0  0  0  0  0  0
   25.3601  -13.5208  -18.4330 C   0  0  0  0  0  0  0  0  0  0  0  0
   24.8724  -12.4308  -17.7733 C   0  0  0  0  0  0  0  0  0  0  0  0
   24.6700  -12.5253  -16.3863 C   0  0  0  0  0  0  0  0  0  0  0  0
   21.7135   -8.7896  -15.9039 C   0  0  0  0  0  0  0  0  0  0  0  0
   21.9137   -8.2399  -17.0462 O   0  0  0  0  0  0  0  0  0  0  0  0
   16.7822   -2.4300  -18.1077 O   0  0  0  0  0  0  0  0  0  0  0  0
   17.5022   -3.5493  -17.7416 C   0  0  0  0  0  0  0  0  0  0  0  0
   16.8381   -4.4838  -16.9467 C   0  0  0  0  0  0  0  0  0  0  0  0
   17.5309   -5.6059  -16.5695 C   0  0  0  0  0  0  0  0  0  0  0  0
   18.8483   -5.8177  -16.9582 C   0  0  0  0  0  0  0  0  0  0  0  0
   19.5338   -7.0336  -16.5173 C   0  0  0  0  0  0  0  0  0  0  0  0
   20.3855   -6.8113  -15.2677 C   0  0  2  0  0  0  0  0  0  0  0  0
   20.9466   -8.0981  -14.9531 N   0  0  0  0  0  0  0  0  0  0  0  0
   19.6321   -6.1896  -14.1839 C   0  0  0  0  0  0  0  0  0  0  0  0
   19.3699   -4.8290  -14.1722 O   0  0  0  0  0  0  0  0  0  0  0  0
   19.4734   -4.8745  -17.7431 C   0  0  0  0  0  0  0  0  0  0  0  0
   18.7934   -3.7362  -18.1344 C   0  0  0  0  0  0  0  0  0  0  0  0
   19.1813   -6.8419  -13.2065 O   0  0  0  0  0  0  0  0  0  0  0  0
  2  1  1  1
  3  2  1  0
  4  3  1  0
  5  9  1  0
  5  4  1  0
  6  5  2  0
  7  8  2  0
  7  2  1  0
 10  7  1  0
 11 10  1  0
 11 12  1  6
 13 12  1  0
 13 14  2  0
 15 14  1  0
 16 15  1  0
 17 16  2  0
 18 17  1  0
 19 18  2  0
 19 20  1  0
 20 21  2  0
 21 16  1  0
 21 13  1  0
 22 11  1  0
 23 22  2  0
 24 25  1  0
 25 35  2  0
 26 25  1  0
 26 27  2  0
 27 28  1  0
 28 34  2  0
 28 29  1  0
 30 29  1  6
 30 31  1  0
 31 22  1  0
 32 30  1  0
 33 32  1  0
 35 34  1  0
 36 32  2  0
M  END
$$$$
