EWY.pdb
     RDKit          3D

 36 38  0  0  1  0  0  0  0  0999 V2000
   27.4866  -20.5097  -16.4388 N   0  0  0  0  0  0  0  0  0  0  0  0
   27.3457  -21.9079  -16.1194 C   0  0  1  0  0  0  0  0  0  0  0  0
   28.7441  -22.4677  -15.9149 C   0  0  0  0  0  0  0  0  0  0  0  0
   29.3485  -22.7303  -17.2598 C   0  0  0  0  0  0  0  0  0  0  0  0
   29.7402  -21.4717  -17.9164 C   0  0  0  0  0  0  0  0  0  0  0  0
   29.5086  -21.2781  -19.1186 O   0  0  0  0  0  0  0  0  0  0  0  0
   26.6282  -22.0241  -14.8207 C   0  0  0  0  0  0  0  0  0  0  0  0
   26.4191  -23.1853  -14.3211 O   0  0  0  0  0  0  0  0  0  0  0  0
   30.3834  -20.4718  -17.1820 O   0  0  0  0  0  0  0  0  0  0  0  0
   26.1954  -20.8489  -14.1731 N   0  0  0  0  0  0  0  0  0  0  0  0
   25.4504  -21.0030  -12.9086 C   0  0  1  0  0  0  0  0  0  0  0  0
   25.9976  -19.9554  -11.9823 C   0  0  0  0  0  0  0  0  0  0  0  0
   27.1635  -20.4821  -11.2513 C   0  0  0  0  0  0  0  0  0  0  0  0
   28.3151  -21.0101  -11.7903 C   0  0  0  0  0  0  0  0  0  0  0  0
   29.0991  -21.3775  -10.7670 N   0  0  0  0  0  0  0  0  0  0  0  0
   28.5133  -21.1140   -9.5983 C   0  0  0  0  0  0  0  0  0  0  0  0
   28.9192  -21.3074   -8.2759 C   0  0  0  0  0  0  0  0  0  0  0  0
   28.0563  -20.9142   -7.2721 C   0  0  0  0  0  0  0  0  0  0  0  0
   26.8349  -20.3497   -7.5569 C   0  0  0  0  0  0  0  0  0  0  0  0
   26.4336  -20.1589   -8.8467 C   0  0  0  0  0  0  0  0  0  0  0  0
   27.2995  -20.5529   -9.8805 C   0  0  0  0  0  0  0  0  0  0  0  0
   24.0459  -20.9393  -13.2369 C   0  0  0  0  0  0  0  0  0  0  0  0
   23.6326  -19.9246  -13.9052 O   0  0  0  0  0  0  0  0  0  0  0  0
   15.5790  -23.0130  -14.0669 O   0  0  0  0  0  0  0  0  0  0  0  0
   16.9270  -23.0390  -13.7711 C   0  0  0  0  0  0  0  0  0  0  0  0
   17.8031  -22.9786  -14.8550 C   0  0  0  0  0  0  0  0  0  0  0  0
   19.1484  -23.0021  -14.5886 C   0  0  0  0  0  0  0  0  0  0  0  0
   19.6358  -23.0827  -13.2896 C   0  0  0  0  0  0  0  0  0  0  0  0
   21.0833  -23.1094  -13.0728 C   0  0  0  0  0  0  0  0  0  0  0  0
   21.7094  -21.7151  -13.0940 C   0  0  2  0  0  0  0  0  0  0  0  0
   23.1150  -21.9235  -12.8695 N   0  0  0  0  0  0  0  0  0  0  0  0
   21.0673  -20.8023  -12.1542 C   0  0  0  0  0  0  0  0  0  0  0  0
   21.4334  -20.7632  -10.8183 O   0  0  0  0  0  0  0  0  0  0  0  0
   18.7426  -23.1407  -12.2431 C   0  0  0  0  0  0  0  0  0  0  0  0
   17.3824  -23.1186  -12.4894 C   0  0  0  0  0  0  0  0  0  0  0  0
   20.1537  -20.0063  -12.4945 O   0  0  0  0  0  0  0  0  0  0  0  0
  2  1  1  1
  3  2  1  0
  4  3  1  0
  5  9  1  0
  5  4  1  0
  6  5  2  0
  7  8  2  0
  7  2  1  0
 10  7  1  0
 11 10  1  0
 11 12  1  1
 13 12  1  0
 13 14  2  0
 15 14  1  0
 16 15  1  0
 17 16  2  0
 18 17  1  0
 19 18  2  0
 19 20  1  0
 20 21  2  0
 21 16  1  0
 21 13  1  0
 22 11  1  0
 23 22  2  0
 24 25  1  0
 25 35  2  0
 26 25  1  0
 26 27  2  0
 27 28  1  0
 28 34  2  0
 28 29  1  0
 30 29  1  1
 30 31  1  0
 31 22  1  0
 32 30  1  0
 33 32  1  0
 35 34  1  0
 36 32  2  0
M  END
$$$$
