EWY.pdb
     RDKit          3D

 36 38  0  0  1  0  0  0  0  0999 V2000
   28.3325  -21.6835  -15.4107 N   0  0  0  0  0  0  0  0  0  0  0  0
   27.6391  -20.5740  -14.8066 C   0  0  1  0  0  0  0  0  0  0  0  0
   26.7468  -19.9630  -15.8750 C   0  0  0  0  0  0  0  0  0  0  0  0
   27.4860  -18.8283  -16.5146 C   0  0  0  0  0  0  0  0  0  0  0  0
   27.9652  -19.2009  -17.8563 C   0  0  0  0  0  0  0  0  0  0  0  0
   29.1619  -19.0947  -18.1608 O   0  0  0  0  0  0  0  0  0  0  0  0
   26.7498  -21.1012  -13.7360 C   0  0  0  0  0  0  0  0  0  0  0  0
   26.1819  -22.2387  -13.8955 O   0  0  0  0  0  0  0  0  0  0  0  0
   27.0651  -19.6842  -18.8099 O   0  0  0  0  0  0  0  0  0  0  0  0
   26.5546  -20.3314  -12.5710 N   0  0  0  0  0  0  0  0  0  0  0  0
   25.6711  -20.8869  -11.5277 C   0  0  1  0  0  0  0  0  0  0  0  0
   26.0158  -20.1493  -10.2659 C   0  0  0  0  0  0  0  0  0  0  0  0
   27.2875  -20.6501   -9.7156 C   0  0  0  0  0  0  0  0  0  0  0  0
   28.2313  -21.4150  -10.3635 C   0  0  0  0  0  0  0  0  0  0  0  0
   29.2171  -21.6539   -9.4871 N   0  0  0  0  0  0  0  0  0  0  0  0
   28.9579  -21.0834   -8.3099 C   0  0  0  0  0  0  0  0  0  0  0  0
   29.6641  -21.0450   -7.1054 C   0  0  0  0  0  0  0  0  0  0  0  0
   29.1052  -20.3492   -6.0517 C   0  0  0  0  0  0  0  0  0  0  0  0
   27.8926  -19.7120   -6.1761 C   0  0  0  0  0  0  0  0  0  0  0  0
   27.1988  -19.7466   -7.3502 C   0  0  0  0  0  0  0  0  0  0  0  0
   27.7532  -20.4498   -8.4327 C   0  0  0  0  0  0  0  0  0  0  0  0
   24.3181  -20.7772  -12.0194 C   0  0  0  0  0  0  0  0  0  0  0  0
   23.9169  -19.6247  -12.4167 O   0  0  0  0  0  0  0  0  0  0  0  0
   16.0118  -22.9038  -13.9252 O   0  0  0  0  0  0  0  0  0  0  0  0
   17.3284  -22.9348  -13.5115 C   0  0  0  0  0  0  0  0  0  0  0  0
   18.2964  -22.9263  -14.5159 C   0  0  0  0  0  0  0  0  0  0  0  0
   19.6129  -22.9558  -14.1319 C   0  0  0  0  0  0  0  0  0  0  0  0
   19.9838  -22.9928  -12.7930 C   0  0  0  0  0  0  0  0  0  0  0  0
   21.4063  -23.0286  -12.4492 C   0  0  0  0  0  0  0  0  0  0  0  0
   22.0459  -21.6404  -12.4362 C   0  0  2  0  0  0  0  0  0  0  0  0
   23.4250  -21.8578  -12.0890 N   0  0  0  0  0  0  0  0  0  0  0  0
   21.3349  -20.7081  -11.5679 C   0  0  0  0  0  0  0  0  0  0  0  0
   21.4981  -20.7322  -10.1921 O   0  0  0  0  0  0  0  0  0  0  0  0
   19.0020  -23.0002  -11.8274 C   0  0  0  0  0  0  0  0  0  0  0  0
   17.6690  -22.9710  -12.1928 C   0  0  0  0  0  0  0  0  0  0  0  0
   20.5401  -19.8378  -12.0093 O   0  0  0  0  0  0  0  0  0  0  0  0
  2  1  1  6
  3  2  1  0
  4  3  1  0
  5  9  1  0
  5  4  1  0
  6  5  2  0
  7  8  2  0
  7  2  1  0
 10  7  1  0
 11 10  1  0
 11 12  1  1
 13 12  1  0
 13 14  2  0
 15 14  1  0
 16 15  1  0
 17 16  2  0
 18 17  1  0
 19 18  2  0
 19 20  1  0
 20 21  2  0
 21 16  1  0
 21 13  1  0
 22 11  1  0
 23 22  2  0
 24 25  1  0
 25 35  2  0
 26 25  1  0
 26 27  2  0
 27 28  1  0
 28 34  2  0
 28 29  1  0
 30 29  1  1
 30 31  1  0
 31 22  1  0
 32 30  1  0
 33 32  1  0
 35 34  1  0
 36 32  2  0
M  END
$$$$
