EWY.pdb
     RDKit          3D

 36 38  0  0  1  0  0  0  0  0999 V2000
   28.2643  -21.5440  -14.0779 N   0  0  0  0  0  0  0  0  0  0  0  0
   27.3712  -20.4669  -13.7331 C   0  0  1  0  0  0  0  0  0  0  0  0
   26.4482  -20.2474  -14.9208 C   0  0  0  0  0  0  0  0  0  0  0  0
   26.9152  -19.0333  -15.6630 C   0  0  0  0  0  0  0  0  0  0  0  0
   27.9553  -19.3832  -16.6449 C   0  0  0  0  0  0  0  0  0  0  0  0
   29.0975  -18.9088  -16.5638 O   0  0  0  0  0  0  0  0  0  0  0  0
   26.5247  -20.9050  -12.5900 C   0  0  0  0  0  0  0  0  0  0  0  0
   25.8455  -21.9869  -12.6905 O   0  0  0  0  0  0  0  0  0  0  0  0
   27.6616  -20.2643  -17.6891 O   0  0  0  0  0  0  0  0  0  0  0  0
   26.4919  -20.1141  -11.4233 N   0  0  0  0  0  0  0  0  0  0  0  0
   25.6094  -20.5554  -10.3259 C   0  0  1  0  0  0  0  0  0  0  0  0
   26.1183  -19.8683   -9.0915 C   0  0  0  0  0  0  0  0  0  0  0  0
   27.4425  -20.3994   -8.7233 C   0  0  0  0  0  0  0  0  0  0  0  0
   28.2381  -21.2414   -9.4674 C   0  0  0  0  0  0  0  0  0  0  0  0
   29.3434  -21.4805   -8.7478 N   0  0  0  0  0  0  0  0  0  0  0  0
   29.3014  -20.8374   -7.5804 C   0  0  0  0  0  0  0  0  0  0  0  0
   30.1951  -20.7695   -6.5091 C   0  0  0  0  0  0  0  0  0  0  0  0
   29.8423  -19.9935   -5.4227 C   0  0  0  0  0  0  0  0  0  0  0  0
   28.6511  -19.3067   -5.3888 C   0  0  0  0  0  0  0  0  0  0  0  0
   27.7747  -19.3698   -6.4323 C   0  0  0  0  0  0  0  0  0  0  0  0
   28.1180  -20.1544   -7.5460 C   0  0  0  0  0  0  0  0  0  0  0  0
   24.2539  -20.2763  -10.7373 C   0  0  0  0  0  0  0  0  0  0  0  0
   23.9682  -19.0732  -11.0810 O   0  0  0  0  0  0  0  0  0  0  0  0
   17.9767  -19.4202  -16.1228 O   0  0  0  0  0  0  0  0  0  0  0  0
   19.0572  -19.7628  -15.3351 C   0  0  0  0  0  0  0  0  0  0  0  0
   19.7387  -18.7111  -14.7222 C   0  0  0  0  0  0  0  0  0  0  0  0
   20.8160  -19.0242  -13.9331 C   0  0  0  0  0  0  0  0  0  0  0  0
   21.2255  -20.3385  -13.7418 C   0  0  0  0  0  0  0  0  0  0  0  0
   22.3870  -20.6056  -12.8918 C   0  0  0  0  0  0  0  0  0  0  0  0
   21.9990  -20.9672  -11.4582 C   0  0  2  0  0  0  0  0  0  0  0  0
   23.2395  -21.2451  -10.7847 N   0  0  0  0  0  0  0  0  0  0  0  0
   21.0164  -22.0442  -11.4023 C   0  0  0  0  0  0  0  0  0  0  0  0
   19.6615  -21.7821  -11.2767 O   0  0  0  0  0  0  0  0  0  0  0  0
   20.5298  -21.3523  -14.3620 C   0  0  0  0  0  0  0  0  0  0  0  0
   19.4409  -21.0586  -15.1617 C   0  0  0  0  0  0  0  0  0  0  0  0
   21.3350  -23.2603  -11.4629 O   0  0  0  0  0  0  0  0  0  0  0  0
  2  1  1  6
  3  2  1  0
  4  3  1  0
  5  9  1  0
  5  4  1  0
  6  5  2  0
  7  8  2  0
  7  2  1  0
 10  7  1  0
 11 10  1  0
 11 12  1  1
 13 12  1  0
 13 14  2  0
 15 14  1  0
 16 15  1  0
 17 16  2  0
 18 17  1  0
 19 18  2  0
 19 20  1  0
 20 21  2  0
 21 16  1  0
 21 13  1  0
 22 11  1  0
 23 22  2  0
 24 25  1  0
 25 35  2  0
 26 25  1  0
 26 27  2  0
 27 28  1  0
 28 34  2  0
 28 29  1  0
 30 29  1  6
 30 31  1  0
 31 22  1  0
 32 30  1  0
 33 32  1  0
 35 34  1  0
 36 32  2  0
M  END
$$$$
