EWY.pdb
     RDKit          3D

 36 38  0  0  1  0  0  0  0  0999 V2000
   28.7909  -21.1698  -15.2893 N   0  0  0  0  0  0  0  0  0  0  0  0
   27.8299  -20.2593  -14.7198 C   0  0  1  0  0  0  0  0  0  0  0  0
   26.9783  -19.7288  -15.8618 C   0  0  0  0  0  0  0  0  0  0  0  0
   27.2157  -18.2549  -15.9819 C   0  0  0  0  0  0  0  0  0  0  0  0
   25.9680  -17.5452  -16.3107 C   0  0  0  0  0  0  0  0  0  0  0  0
   24.9915  -18.1498  -16.7766 O   0  0  0  0  0  0  0  0  0  0  0  0
   26.9304  -21.0282  -13.8173 C   0  0  0  0  0  0  0  0  0  0  0  0
   26.5808  -22.2169  -14.1435 O   0  0  0  0  0  0  0  0  0  0  0  0
   25.8715  -16.1674  -16.0975 O   0  0  0  0  0  0  0  0  0  0  0  0
   26.4845  -20.4251  -12.6234 N   0  0  0  0  0  0  0  0  0  0  0  0
   25.6109  -21.2236  -11.7420 C   0  0  1  0  0  0  0  0  0  0  0  0
   25.7760  -20.6413  -10.3677 C   0  0  0  0  0  0  0  0  0  0  0  0
   27.1387  -20.8954   -9.8682 C   0  0  0  0  0  0  0  0  0  0  0  0
   28.1356  -21.6090  -10.4949 C   0  0  0  0  0  0  0  0  0  0  0  0
   29.2005  -21.6002   -9.6810 N   0  0  0  0  0  0  0  0  0  0  0  0
   28.9421  -20.9190   -8.5640 C   0  0  0  0  0  0  0  0  0  0  0  0
   29.7137  -20.6312   -7.4358 C   0  0  0  0  0  0  0  0  0  0  0  0
   29.1334  -19.8822   -6.4313 C   0  0  0  0  0  0  0  0  0  0  0  0
   27.8382  -19.4305   -6.5308 C   0  0  0  0  0  0  0  0  0  0  0  0
   27.0803  -19.7089   -7.6304 C   0  0  0  0  0  0  0  0  0  0  0  0
   27.6551  -20.4696   -8.6622 C   0  0  0  0  0  0  0  0  0  0  0  0
   24.2903  -21.2007  -12.3250 C   0  0  0  0  0  0  0  0  0  0  0  0
   23.8690  -20.0896  -12.8100 O   0  0  0  0  0  0  0  0  0  0  0  0
   18.5664  -18.4793   -9.8762 O   0  0  0  0  0  0  0  0  0  0  0  0
   19.4016  -19.1150  -10.7728 C   0  0  0  0  0  0  0  0  0  0  0  0
   20.1869  -18.2934  -11.5816 C   0  0  0  0  0  0  0  0  0  0  0  0
   21.0264  -18.8998  -12.4809 C   0  0  0  0  0  0  0  0  0  0  0  0
   21.1025  -20.2830  -12.5931 C   0  0  0  0  0  0  0  0  0  0  0  0
   22.0149  -20.8683  -13.5769 C   0  0  0  0  0  0  0  0  0  0  0  0
   22.3271  -22.3372  -13.2923 C   0  0  2  0  0  0  0  0  0  0  0  0
   23.4494  -22.3225  -12.3924 N   0  0  0  0  0  0  0  0  0  0  0  0
   22.5305  -23.1097  -14.5132 C   0  0  0  0  0  0  0  0  0  0  0  0
   23.6886  -23.8413  -14.7223 O   0  0  0  0  0  0  0  0  0  0  0  0
   20.3130  -21.0640  -11.7788 C   0  0  0  0  0  0  0  0  0  0  0  0
   19.4597  -20.4731  -10.8655 C   0  0  0  0  0  0  0  0  0  0  0  0
   21.6788  -23.1574  -15.4386 O   0  0  0  0  0  0  0  0  0  0  0  0
  2  1  1  6
  3  2  1  0
  4  3  1  0
  5  9  1  0
  5  4  1  0
  6  5  2  0
  7  8  2  0
  7  2  1  0
 10  7  1  0
 11 10  1  0
 11 12  1  1
 13 12  1  0
 13 14  2  0
 15 14  1  0
 16 15  1  0
 17 16  2  0
 18 17  1  0
 19 18  2  0
 19 20  1  0
 20 21  2  0
 21 16  1  0
 21 13  1  0
 22 11  1  0
 23 22  2  0
 24 25  1  0
 25 35  2  0
 26 25  1  0
 26 27  2  0
 27 28  1  0
 28 34  2  0
 28 29  1  0
 30 29  1  6
 30 31  1  0
 31 22  1  0
 32 30  1  0
 33 32  1  0
 35 34  1  0
 36 32  2  0
M  END
$$$$
