EWY.pdb
     RDKit          3D

 36 38  0  0  1  0  0  0  0  0999 V2000
   28.5556  -20.4192  -18.4111 N   0  0  0  0  0  0  0  0  0  0  0  0
   27.6772  -21.3496  -17.7481 C   0  0  1  0  0  0  0  0  0  0  0  0
   28.3950  -21.8377  -16.5001 C   0  0  0  0  0  0  0  0  0  0  0  0
   29.4714  -22.7916  -16.9178 C   0  0  0  0  0  0  0  0  0  0  0  0
   28.9014  -24.0932  -17.3044 C   0  0  0  0  0  0  0  0  0  0  0  0
   27.6869  -24.3166  -17.1990 O   0  0  0  0  0  0  0  0  0  0  0  0
   26.4632  -20.6140  -17.3010 C   0  0  0  0  0  0  0  0  0  0  0  0
   26.5936  -19.4666  -16.7458 O   0  0  0  0  0  0  0  0  0  0  0  0
   29.7338  -25.1002  -17.8004 O   0  0  0  0  0  0  0  0  0  0  0  0
   25.1974  -21.2022  -17.5003 N   0  0  0  0  0  0  0  0  0  0  0  0
   24.0223  -20.4871  -16.9659 C   0  0  1  0  0  0  0  0  0  0  0  0
   23.1819  -20.1341  -18.1592 C   0  0  0  0  0  0  0  0  0  0  0  0
   22.0949  -19.2215  -17.7635 C   0  0  0  0  0  0  0  0  0  0  0  0
   22.2119  -17.9046  -17.3792 C   0  0  0  0  0  0  0  0  0  0  0  0
   20.9784  -17.4643  -17.0939 N   0  0  0  0  0  0  0  0  0  0  0  0
   20.0740  -18.4276  -17.2741 C   0  0  0  0  0  0  0  0  0  0  0  0
   18.6868  -18.4599  -17.1141 C   0  0  0  0  0  0  0  0  0  0  0  0
   18.0326  -19.6435  -17.3928 C   0  0  0  0  0  0  0  0  0  0  0  0
   18.7175  -20.7592  -17.8145 C   0  0  0  0  0  0  0  0  0  0  0  0
   20.0724  -20.7331  -17.9721 C   0  0  0  0  0  0  0  0  0  0  0  0
   20.7539  -19.5366  -17.6934 C   0  0  0  0  0  0  0  0  0  0  0  0
   23.4329  -21.3384  -15.9597 C   0  0  0  0  0  0  0  0  0  0  0  0
   23.7979  -22.5683  -15.9273 O   0  0  0  0  0  0  0  0  0  0  0  0
   25.4580  -20.4121   -7.9401 O   0  0  0  0  0  0  0  0  0  0  0  0
   25.1688  -20.4316   -9.2897 C   0  0  0  0  0  0  0  0  0  0  0  0
   23.9547  -19.8621   -9.6741 C   0  0  0  0  0  0  0  0  0  0  0  0
   23.6433  -19.8677  -11.0099 C   0  0  0  0  0  0  0  0  0  0  0  0
   24.4977  -20.4175  -11.9581 C   0  0  0  0  0  0  0  0  0  0  0  0
   24.1042  -20.3969  -13.3680 C   0  0  0  0  0  0  0  0  0  0  0  0
   22.7420  -21.0465  -13.6105 C   0  0  2  0  0  0  0  0  0  0  0  0
   22.4908  -20.8944  -15.0188 N   0  0  0  0  0  0  0  0  0  0  0  0
   21.7038  -20.5040  -12.7406 C   0  0  0  0  0  0  0  0  0  0  0  0
   21.3888  -21.1009  -11.5303 O   0  0  0  0  0  0  0  0  0  0  0  0
   25.6884  -20.9715  -11.5436 C   0  0  0  0  0  0  0  0  0  0  0  0
   26.0217  -20.9764  -10.2019 C   0  0  0  0  0  0  0  0  0  0  0  0
   21.0396  -19.4757  -13.0327 O   0  0  0  0  0  0  0  0  0  0  0  0
  2  1  1  1
  3  2  1  0
  4  3  1  0
  5  9  1  0
  5  4  1  0
  6  5  2  0
  7  8  2  0
  7  2  1  0
 10  7  1  0
 11 10  1  0
 11 12  1  6
 13 12  1  0
 13 14  2  0
 15 14  1  0
 16 15  1  0
 17 16  2  0
 18 17  1  0
 19 18  2  0
 19 20  1  0
 20 21  2  0
 21 16  1  0
 21 13  1  0
 22 11  1  0
 23 22  2  0
 24 25  1  0
 25 35  2  0
 26 25  1  0
 26 27  2  0
 27 28  1  0
 28 34  2  0
 28 29  1  0
 30 29  1  1
 30 31  1  0
 31 22  1  0
 32 30  1  0
 33 32  1  0
 35 34  1  0
 36 32  2  0
M  END
$$$$
