EWY.pdb
     RDKit          3D

 36 38  0  0  1  0  0  0  0  0999 V2000
   27.9942  -20.9029  -19.2676 N   0  0  0  0  0  0  0  0  0  0  0  0
   27.9225  -21.7070  -18.0739 C   0  0  1  0  0  0  0  0  0  0  0  0
   29.3332  -21.8183  -17.5186 C   0  0  0  0  0  0  0  0  0  0  0  0
   30.0901  -22.8086  -18.3489 C   0  0  0  0  0  0  0  0  0  0  0  0
   30.0052  -24.1586  -17.7669 C   0  0  0  0  0  0  0  0  0  0  0  0
   29.7833  -24.3217  -16.5584 O   0  0  0  0  0  0  0  0  0  0  0  0
   27.1059  -20.9794  -17.0645 C   0  0  0  0  0  0  0  0  0  0  0  0
   27.1654  -19.7005  -17.0130 O   0  0  0  0  0  0  0  0  0  0  0  0
   30.1753  -25.2818  -18.5809 O   0  0  0  0  0  0  0  0  0  0  0  0
   26.2864  -21.7198  -16.1882 N   0  0  0  0  0  0  0  0  0  0  0  0
   25.4216  -20.9634  -15.2621 C   0  0  1  0  0  0  0  0  0  0  0  0
   24.0119  -21.3202  -15.6369 C   0  0  0  0  0  0  0  0  0  0  0  0
   23.0633  -20.4083  -14.9738 C   0  0  0  0  0  0  0  0  0  0  0  0
   22.9255  -19.0544  -15.1826 C   0  0  0  0  0  0  0  0  0  0  0  0
   21.9582  -18.6233  -14.3609 N   0  0  0  0  0  0  0  0  0  0  0  0
   21.4663  -19.6276  -13.6344 C   0  0  0  0  0  0  0  0  0  0  0  0
   20.4668  -19.6848  -12.6603 C   0  0  0  0  0  0  0  0  0  0  0  0
   20.1927  -20.9115  -12.0886 C   0  0  0  0  0  0  0  0  0  0  0  0
   20.8772  -22.0450  -12.4606 C   0  0  0  0  0  0  0  0  0  0  0  0
   21.8543  -21.9945  -13.4113 C   0  0  0  0  0  0  0  0  0  0  0  0
   22.1458  -20.7544  -14.0037 C   0  0  0  0  0  0  0  0  0  0  0  0
   25.8594  -21.2804  -13.9233 C   0  0  0  0  0  0  0  0  0  0  0  0
   25.9904  -22.5189  -13.6136 O   0  0  0  0  0  0  0  0  0  0  0  0
   27.9638  -20.1647   -5.4688 O   0  0  0  0  0  0  0  0  0  0  0  0
   27.8247  -20.0409   -6.8365 C   0  0  0  0  0  0  0  0  0  0  0  0
   26.6814  -19.3817   -7.2884 C   0  0  0  0  0  0  0  0  0  0  0  0
   26.5191  -19.2443   -8.6435 C   0  0  0  0  0  0  0  0  0  0  0  0
   27.4528  -19.7392   -9.5461 C   0  0  0  0  0  0  0  0  0  0  0  0
   27.2182  -19.5649  -10.9805 C   0  0  0  0  0  0  0  0  0  0  0  0
   26.3961  -20.7020  -11.5869 C   0  0  2  0  0  0  0  0  0  0  0  0
   26.1510  -20.3122  -12.9498 N   0  0  0  0  0  0  0  0  0  0  0  0
   25.1978  -20.9986  -10.8092 C   0  0  0  0  0  0  0  0  0  0  0  0
   25.1305  -22.1044   -9.9768 O   0  0  0  0  0  0  0  0  0  0  0  0
   28.5702  -20.3848   -9.0653 C   0  0  0  0  0  0  0  0  0  0  0  0
   28.7532  -20.5342   -7.7032 C   0  0  0  0  0  0  0  0  0  0  0  0
   24.1660  -20.2789  -10.8472 O   0  0  0  0  0  0  0  0  0  0  0  0
  2  1  1  6
  3  2  1  0
  4  3  1  0
  5  9  1  0
  5  4  1  0
  6  5  2  0
  7  8  2  0
  7  2  1  0
 10  7  1  0
 11 10  1  0
 11 12  1  1
 13 12  1  0
 13 14  2  0
 15 14  1  0
 16 15  1  0
 17 16  2  0
 18 17  1  0
 19 18  2  0
 19 20  1  0
 20 21  2  0
 21 16  1  0
 21 13  1  0
 22 11  1  0
 23 22  2  0
 24 25  1  0
 25 35  2  0
 26 25  1  0
 26 27  2  0
 27 28  1  0
 28 34  2  0
 28 29  1  0
 30 29  1  1
 30 31  1  0
 31 22  1  0
 32 30  1  0
 33 32  1  0
 35 34  1  0
 36 32  2  0
M  END
$$$$
