EWY.pdb
     RDKit          3D

 36 38  0  0  1  0  0  0  0  0999 V2000
   26.6424  -21.8348  -10.7791 N   0  0  0  0  0  0  0  0  0  0  0  0
   25.4227  -21.0833  -10.6224 C   0  0  1  0  0  0  0  0  0  0  0  0
   25.6961  -19.9845   -9.6082 C   0  0  0  0  0  0  0  0  0  0  0  0
   25.9765  -20.6244   -8.2835 C   0  0  0  0  0  0  0  0  0  0  0  0
   27.2995  -20.2253   -7.7747 C   0  0  0  0  0  0  0  0  0  0  0  0
   28.2989  -20.2430   -8.5076 O   0  0  0  0  0  0  0  0  0  0  0  0
   25.1079  -20.4215  -11.9177 C   0  0  0  0  0  0  0  0  0  0  0  0
   25.1426  -19.1429  -11.9939 O   0  0  0  0  0  0  0  0  0  0  0  0
   27.4426  -19.8173   -6.4458 O   0  0  0  0  0  0  0  0  0  0  0  0
   24.7776  -21.2223  -13.0301 N   0  0  0  0  0  0  0  0  0  0  0  0
   24.4596  -20.5326  -14.2954 C   0  0  1  0  0  0  0  0  0  0  0  0
   25.1651  -21.3074  -15.3710 C   0  0  0  0  0  0  0  0  0  0  0  0
   26.5941  -20.9494  -15.4013 C   0  0  0  0  0  0  0  0  0  0  0  0
   27.6490  -21.6924  -14.9209 C   0  0  0  0  0  0  0  0  0  0  0  0
   28.7653  -20.9840  -15.1416 N   0  0  0  0  0  0  0  0  0  0  0  0
   28.4850  -19.8249  -15.7386 C   0  0  0  0  0  0  0  0  0  0  0  0
   29.2897  -18.7664  -16.1665 C   0  0  0  0  0  0  0  0  0  0  0  0
   28.6709  -17.6862  -16.7638 C   0  0  0  0  0  0  0  0  0  0  0  0
   27.3068  -17.6460  -16.9355 C   0  0  0  0  0  0  0  0  0  0  0  0
   26.5164  -18.6771  -16.5192 C   0  0  0  0  0  0  0  0  0  0  0  0
   27.1297  -19.7844  -15.9097 C   0  0  0  0  0  0  0  0  0  0  0  0
   23.0211  -20.4367  -14.3729 C   0  0  0  0  0  0  0  0  0  0  0  0
   22.3280  -21.2073  -13.6160 O   0  0  0  0  0  0  0  0  0  0  0  0
   15.8027  -16.8449  -12.1962 O   0  0  0  0  0  0  0  0  0  0  0  0
   17.0792  -17.2484  -12.5327 C   0  0  0  0  0  0  0  0  0  0  0  0
   17.2661  -18.6158  -12.7362 C   0  0  0  0  0  0  0  0  0  0  0  0
   18.5252  -19.0434  -13.0724 C   0  0  0  0  0  0  0  0  0  0  0  0
   19.5868  -18.1569  -13.2092 C   0  0  0  0  0  0  0  0  0  0  0  0
   20.9079  -18.6778  -13.5646 C   0  0  0  0  0  0  0  0  0  0  0  0
   20.9620  -19.2279  -14.9897 C   0  0  2  0  0  0  0  0  0  0  0  0
   22.3447  -19.5487  -15.2238 N   0  0  0  0  0  0  0  0  0  0  0  0
   20.3717  -18.3141  -15.9619 C   0  0  0  0  0  0  0  0  0  0  0  0
   21.0353  -17.1702  -16.3759 O   0  0  0  0  0  0  0  0  0  0  0  0
   19.3668  -16.8135  -13.0011 C   0  0  0  0  0  0  0  0  0  0  0  0
   18.1053  -16.3613  -12.6613 C   0  0  0  0  0  0  0  0  0  0  0  0
   19.2390  -18.5056  -16.4760 O   0  0  0  0  0  0  0  0  0  0  0  0
  2  1  1  6
  3  2  1  0
  4  3  1  0
  5  9  1  0
  5  4  1  0
  6  5  2  0
  7  8  2  0
  7  2  1  0
 10  7  1  0
 11 10  1  0
 11 12  1  6
 13 12  1  0
 13 14  2  0
 15 14  1  0
 16 15  1  0
 17 16  2  0
 18 17  1  0
 19 18  2  0
 19 20  1  0
 20 21  2  0
 21 16  1  0
 21 13  1  0
 22 11  1  0
 23 22  2  0
 24 25  1  0
 25 35  2  0
 26 25  1  0
 26 27  2  0
 27 28  1  0
 28 34  2  0
 28 29  1  0
 30 29  1  1
 30 31  1  0
 31 22  1  0
 32 30  1  0
 33 32  1  0
 35 34  1  0
 36 32  2  0
M  END
$$$$
