EWY.pdb
     RDKit          3D

 36 38  0  0  1  0  0  0  0  0999 V2000
   38.4408  -32.0691  -21.1443 N   0  0  0  0  0  0  0  0  0  0  0  0
   37.8005  -30.9925  -20.4319 C   0  0  1  0  0  0  0  0  0  0  0  0
   36.4421  -30.7690  -21.0766 C   0  0  0  0  0  0  0  0  0  0  0  0
   35.7110  -29.7271  -20.2872 C   0  0  0  0  0  0  0  0  0  0  0  0
   35.1972  -28.6636  -21.1667 C   0  0  0  0  0  0  0  0  0  0  0  0
   35.2001  -28.7952  -22.3991 O   0  0  0  0  0  0  0  0  0  0  0  0
   37.5583  -31.4332  -19.0312 C   0  0  0  0  0  0  0  0  0  0  0  0
   37.3129  -32.6686  -18.7955 O   0  0  0  0  0  0  0  0  0  0  0  0
   34.6949  -27.4824  -20.6139 O   0  0  0  0  0  0  0  0  0  0  0  0
   37.6045  -30.4757  -17.9973 N   0  0  0  0  0  0  0  0  0  0  0  0
   37.5777  -30.9719  -16.6078 C   0  0  1  0  0  0  0  0  0  0  0  0
   38.4393  -30.0271  -15.8204 C   0  0  0  0  0  0  0  0  0  0  0  0
   39.8285  -30.5168  -15.7831 C   0  0  0  0  0  0  0  0  0  0  0  0
   40.2491  -31.8142  -15.5950 C   0  0  0  0  0  0  0  0  0  0  0  0
   41.5893  -31.8033  -15.6182 N   0  0  0  0  0  0  0  0  0  0  0  0
   42.0534  -30.5681  -15.8112 C   0  0  0  0  0  0  0  0  0  0  0  0
   43.3477  -30.0525  -15.9108 C   0  0  0  0  0  0  0  0  0  0  0  0
   43.4870  -28.6945  -16.1180 C   0  0  0  0  0  0  0  0  0  0  0  0
   42.3917  -27.8693  -16.2240 C   0  0  0  0  0  0  0  0  0  0  0  0
   41.1255  -28.3678  -16.1272 C   0  0  0  0  0  0  0  0  0  0  0  0
   40.9656  -29.7476  -15.9168 C   0  0  0  0  0  0  0  0  0  0  0  0
   36.1895  -31.0869  -16.2283 C   0  0  0  0  0  0  0  0  0  0  0  0
   35.4745  -30.0212  -16.2427 O   0  0  0  0  0  0  0  0  0  0  0  0
   27.8702  -31.9330  -16.0154 O   0  0  0  0  0  0  0  0  0  0  0  0
   29.2390  -31.9933  -16.1829 C   0  0  0  0  0  0  0  0  0  0  0  0
   29.8820  -30.7934  -16.4877 C   0  0  0  0  0  0  0  0  0  0  0  0
   31.2426  -30.8254  -16.6585 C   0  0  0  0  0  0  0  0  0  0  0  0
   31.9680  -32.0044  -16.5351 C   0  0  0  0  0  0  0  0  0  0  0  0
   33.4178  -31.9725  -16.7351 C   0  0  0  0  0  0  0  0  0  0  0  0
   34.1966  -32.3246  -15.4679 C   0  0  2  0  0  0  0  0  0  0  0  0
   35.5831  -32.2951  -15.8504 N   0  0  0  0  0  0  0  0  0  0  0  0
   33.7518  -33.5799  -14.8720 C   0  0  0  0  0  0  0  0  0  0  0  0
   32.8431  -33.6026  -13.8260 O   0  0  0  0  0  0  0  0  0  0  0  0
   31.3011  -33.1709  -16.2333 C   0  0  0  0  0  0  0  0  0  0  0  0
   29.9299  -33.1609  -16.0572 C   0  0  0  0  0  0  0  0  0  0  0  0
   34.1613  -34.7031  -15.2654 O   0  0  0  0  0  0  0  0  0  0  0  0
  2  1  1  6
  3  2  1  0
  4  3  1  0
  5  9  1  0
  5  4  1  0
  6  5  2  0
  7  8  2  0
  7  2  1  0
 10  7  1  0
 11 10  1  0
 11 12  1  1
 13 12  1  0
 13 14  2  0
 15 14  1  0
 16 15  1  0
 17 16  2  0
 18 17  1  0
 19 18  2  0
 19 20  1  0
 20 21  2  0
 21 16  1  0
 21 13  1  0
 22 11  1  0
 23 22  2  0
 24 25  1  0
 25 35  2  0
 26 25  1  0
 26 27  2  0
 27 28  1  0
 28 34  2  0
 28 29  1  0
 30 29  1  6
 30 31  1  0
 31 22  1  0
 32 30  1  0
 33 32  1  0
 35 34  1  0
 36 32  2  0
M  END
$$$$
