CQN.pdb
     RDKit          3D

 24 23  0  0  1  0  0  0  0  0999 V2000
   25.0710  -12.3871  -17.8109 N   0  0  0  0  0  0  0  0  0  0  0  0
   24.6471  -11.9927  -16.4787 C   0  0  1  0  0  0  0  0  0  0  0  0
   25.8336  -11.5017  -15.6745 C   0  0  0  0  0  0  0  0  0  0  0  0
   26.9170  -12.8943  -15.2368 S   0  0  0  0  0  0  0  0  0  0  0  0
   23.6202  -10.9369  -16.6241 C   0  0  0  0  0  0  0  0  0  0  0  0
   23.7425   -9.9978  -17.4672 O   0  0  0  0  0  0  0  0  0  0  0  0
   17.4765  -11.4542  -15.7282 N   0  0  0  0  0  0  0  0  0  0  0  0
   17.5990  -10.0833  -16.0910 C   0  0  0  0  0  0  0  0  0  0  0  0
   16.5805   -9.4046  -16.2936 O   0  0  0  0  0  0  0  0  0  0  0  0
   18.9573   -9.5176  -16.2127 C   0  0  0  0  0  0  0  0  0  0  0  0
   20.0322  -10.5572  -15.9731 C   0  0  0  0  0  0  0  0  0  0  0  0
   21.3917   -9.9085  -16.0810 C   0  0  2  0  0  0  0  0  0  0  0  0
   22.4246  -10.8930  -15.8353 N   0  0  0  0  0  0  0  0  0  0  0  0
   21.5267   -8.7304  -15.1997 C   0  0  0  0  0  0  0  0  0  0  0  0
   21.7691   -8.9208  -13.9790 O   0  0  0  0  0  0  0  0  0  0  0  0
   21.5053   -3.8712  -13.3488 N   0  0  0  0  0  0  0  0  0  0  0  0
   22.3762   -3.9764  -14.5083 C   0  0  0  0  0  0  0  0  0  0  0  0
   23.1210   -3.0191  -14.7993 O   0  0  0  0  0  0  0  0  0  0  0  0
   22.3721   -5.1955  -15.3187 C   0  0  0  0  0  0  0  0  0  0  0  0
   21.4506   -6.2335  -14.7633 C   0  0  2  0  0  0  0  0  0  0  0  0
   21.3991   -7.3993  -15.6493 N   0  0  0  0  0  0  0  0  0  0  0  0
   20.1001   -5.7460  -14.4689 C   0  0  0  0  0  0  0  0  0  0  0  0
   19.8355   -5.3711  -13.2657 O   0  0  0  0  0  0  0  0  0  0  0  0
   19.0512   -5.6360  -15.3416 O   0  0  0  0  0  0  0  0  0  0  0  0
  2  1  1  6
  2  3  1  0
  4  3  1  0
  5  2  1  0
  6  5  2  0
  7  8  1  0
  8  9  2  0
 10  8  1  0
 10 11  1  0
 12 11  1  1
 12 13  1  0
 13  5  1  0
 14 21  1  0
 14 12  1  0
 15 14  2  0
 16 17  1  0
 17 19  1  0
 18 17  2  0
 20 19  1  6
 20 22  1  0
 20 21  1  0
 22 24  1  0
 23 22  2  0
M  END
$$$$
