CQN.pdb
     RDKit          3D

 24 23  0  0  1  0  0  0  0  0999 V2000
   12.0459  -12.2896  -12.6848 N   0  0  0  0  0  0  0  0  0  0  0  0
   12.3986  -12.0301  -11.2997 C   0  0  1  0  0  0  0  0  0  0  0  0
   12.5716  -13.3348  -10.5491 C   0  0  0  0  0  0  0  0  0  0  0  0
   10.9543  -14.1108  -10.2545 S   0  0  0  0  0  0  0  0  0  0  0  0
   13.6461  -11.2338  -11.2915 C   0  0  0  0  0  0  0  0  0  0  0  0
   14.2120  -10.8901  -10.2103 O   0  0  0  0  0  0  0  0  0  0  0  0
   18.3798  -11.3772  -14.3045 N   0  0  0  0  0  0  0  0  0  0  0  0
   18.6082  -10.0127  -13.9697 C   0  0  0  0  0  0  0  0  0  0  0  0
   19.7691   -9.5836  -13.8851 O   0  0  0  0  0  0  0  0  0  0  0  0
   17.4327   -9.1512  -13.7336 C   0  0  0  0  0  0  0  0  0  0  0  0
   16.1332   -9.9252  -13.8098 C   0  0  0  0  0  0  0  0  0  0  0  0
   15.5058   -9.9902  -12.4377 C   0  0  2  0  0  0  0  0  0  0  0  0
   14.3030  -10.7947  -12.4871 N   0  0  0  0  0  0  0  0  0  0  0  0
   15.2546   -8.6504  -11.8677 C   0  0  0  0  0  0  0  0  0  0  0  0
   14.2813   -7.9851  -12.3093 O   0  0  0  0  0  0  0  0  0  0  0  0
   14.4607   -5.2539   -7.2984 N   0  0  0  0  0  0  0  0  0  0  0  0
   15.6150   -5.5472   -8.1323 C   0  0  0  0  0  0  0  0  0  0  0  0
   16.4857   -4.6695   -8.2975 O   0  0  0  0  0  0  0  0  0  0  0  0
   15.7453   -6.8602   -8.7663 C   0  0  0  0  0  0  0  0  0  0  0  0
   15.7734   -6.7610  -10.2578 C   0  0  2  0  0  0  0  0  0  0  0  0
   16.0458   -8.0718  -10.8531 N   0  0  0  0  0  0  0  0  0  0  0  0
   16.7011   -5.7525  -10.7780 C   0  0  0  0  0  0  0  0  0  0  0  0
   17.8725   -6.1356  -11.1509 O   0  0  0  0  0  0  0  0  0  0  0  0
   16.4699   -4.4109  -10.9216 O   0  0  0  0  0  0  0  0  0  0  0  0
  2  1  1  6
  2  3  1  0
  4  3  1  0
  5  2  1  0
  6  5  2  0
  7  8  1  0
  8  9  2  0
 10  8  1  0
 10 11  1  0
 12 11  1  6
 12 13  1  0
 13  5  1  0
 14 21  1  0
 14 12  1  0
 15 14  2  0
 16 17  1  0
 17 19  1  0
 18 17  2  0
 20 19  1  1
 20 22  1  0
 20 21  1  0
 22 24  1  0
 23 22  2  0
M  END
$$$$
