CQN.pdb
     RDKit          3D

 24 23  0  0  1  0  0  0  0  0999 V2000
   13.2678  -11.2445   -9.1702 N   0  0  0  0  0  0  0  0  0  0  0  0
   14.6556  -10.8452   -9.3278 C   0  0  1  0  0  0  0  0  0  0  0  0
   15.3308  -11.6995  -10.3813 C   0  0  0  0  0  0  0  0  0  0  0  0
   15.5440  -13.3989   -9.7720 S   0  0  0  0  0  0  0  0  0  0  0  0
   14.6753   -9.4132   -9.7009 C   0  0  0  0  0  0  0  0  0  0  0  0
   13.6202   -8.7962  -10.0381 O   0  0  0  0  0  0  0  0  0  0  0  0
   14.8436   -3.2573   -7.2105 N   0  0  0  0  0  0  0  0  0  0  0  0
   14.2677   -4.3601   -7.9022 C   0  0  0  0  0  0  0  0  0  0  0  0
   13.1095   -4.7179   -7.6384 O   0  0  0  0  0  0  0  0  0  0  0  0
   15.0880   -5.0427   -8.9225 C   0  0  0  0  0  0  0  0  0  0  0  0
   15.0539   -6.5488   -8.7681 C   0  0  0  0  0  0  0  0  0  0  0  0
   15.8270   -7.1874   -9.8974 C   0  0  2  0  0  0  0  0  0  0  0  0
   15.8705   -8.6226   -9.7106 N   0  0  0  0  0  0  0  0  0  0  0  0
   17.1763   -6.6072  -10.0569 C   0  0  0  0  0  0  0  0  0  0  0  0
   17.8506   -6.3665   -9.0213 O   0  0  0  0  0  0  0  0  0  0  0  0
   21.7437   -5.0144  -11.7435 N   0  0  0  0  0  0  0  0  0  0  0  0
   21.3801   -6.3381  -12.2224 C   0  0  0  0  0  0  0  0  0  0  0  0
   22.2529   -7.0555  -12.7509 O   0  0  0  0  0  0  0  0  0  0  0  0
   20.0032   -6.8148  -12.0816 C   0  0  0  0  0  0  0  0  0  0  0  0
   19.1128   -5.7810  -11.4704 C   0  0  2  0  0  0  0  0  0  0  0  0
   17.7547   -6.3062  -11.3079 N   0  0  0  0  0  0  0  0  0  0  0  0
   19.0921   -4.5027  -12.1871 C   0  0  0  0  0  0  0  0  0  0  0  0
   18.0584   -4.2202  -12.9012 O   0  0  0  0  0  0  0  0  0  0  0  0
   20.0659   -3.5406  -12.1923 O   0  0  0  0  0  0  0  0  0  0  0  0
  2  1  1  6
  2  3  1  0
  4  3  1  0
  5  2  1  0
  6  5  2  0
  7  8  1  0
  8  9  2  0
 10  8  1  0
 10 11  1  0
 12 11  1  1
 12 13  1  0
 13  5  1  0
 14 21  1  0
 14 12  1  0
 15 14  2  0
 16 17  1  0
 17 19  1  0
 18 17  2  0
 20 19  1  6
 20 22  1  0
 20 21  1  0
 22 24  1  0
 23 22  2  0
M  END
$$$$
