CQN.pdb
     RDKit          3D

 24 23  0  0  1  0  0  0  0  0999 V2000
   20.1148  -12.4594  -16.3258 N   0  0  0  0  0  0  0  0  0  0  0  0
   19.6087  -11.5270  -17.3181 C   0  0  1  0  0  0  0  0  0  0  0  0
   18.3999  -12.1122  -18.0194 C   0  0  0  0  0  0  0  0  0  0  0  0
   18.8152  -13.7241  -18.7501 S   0  0  0  0  0  0  0  0  0  0  0  0
   19.2702  -10.2651  -16.6228 C   0  0  0  0  0  0  0  0  0  0  0  0
   18.7916   -9.2683  -17.2432 O   0  0  0  0  0  0  0  0  0  0  0  0
   17.2642   -9.4672  -10.8680 N   0  0  0  0  0  0  0  0  0  0  0  0
   16.4507   -9.5445  -12.0335 C   0  0  0  0  0  0  0  0  0  0  0  0
   15.2417   -9.8014  -11.9270 O   0  0  0  0  0  0  0  0  0  0  0  0
   17.0922   -9.3113  -13.3428 C   0  0  0  0  0  0  0  0  0  0  0  0
   18.5760   -9.0386  -13.2109 C   0  0  0  0  0  0  0  0  0  0  0  0
   19.1673   -8.8032  -14.5804 C   0  0  2  0  0  0  0  0  0  0  0  0
   19.4541  -10.0729  -15.2147 N   0  0  0  0  0  0  0  0  0  0  0  0
   20.3530   -7.9227  -14.5397 C   0  0  0  0  0  0  0  0  0  0  0  0
   21.4067   -8.3619  -14.0089 O   0  0  0  0  0  0  0  0  0  0  0  0
   23.7900   -4.0931  -15.1649 N   0  0  0  0  0  0  0  0  0  0  0  0
   22.5613   -3.6778  -15.8219 C   0  0  0  0  0  0  0  0  0  0  0  0
   22.4755   -2.5197  -16.2771 O   0  0  0  0  0  0  0  0  0  0  0  0
   21.4432   -4.6149  -15.9431 C   0  0  0  0  0  0  0  0  0  0  0  0
   21.5004   -5.6913  -14.9071 C   0  0  2  0  0  0  0  0  0  0  0  0
   20.3722   -6.6129  -15.0635 N   0  0  0  0  0  0  0  0  0  0  0  0
   21.5803   -5.1986  -13.5290 C   0  0  0  0  0  0  0  0  0  0  0  0
   20.4894   -4.8453  -12.9431 O   0  0  0  0  0  0  0  0  0  0  0  0
   22.7063   -5.0629  -12.7625 O   0  0  0  0  0  0  0  0  0  0  0  0
  2  1  1  1
  2  3  1  0
  4  3  1  0
  5  2  1  0
  6  5  2  0
  7  8  1  0
  8  9  2  0
 10  8  1  0
 10 11  1  0
 12 11  1  1
 12 13  1  0
 13  5  1  0
 14 21  1  0
 14 12  1  0
 15 14  2  0
 16 17  1  0
 17 19  1  0
 18 17  2  0
 20 19  1  6
 20 22  1  0
 20 21  1  0
 22 24  1  0
 23 22  2  0
M  END
$$$$
