CQN.pdb
     RDKit          3D

 24 23  0  0  1  0  0  0  0  0999 V2000
   21.5318  -15.5617  -17.6290 N   0  0  0  0  0  0  0  0  0  0  0  0
   21.9814  -15.9811  -16.3129 C   0  0  1  0  0  0  0  0  0  0  0  0
   20.8915  -16.7657  -15.6115 C   0  0  0  0  0  0  0  0  0  0  0  0
   19.7310  -15.6337  -14.7890 S   0  0  0  0  0  0  0  0  0  0  0  0
   23.2037  -16.7965  -16.4904 C   0  0  0  0  0  0  0  0  0  0  0  0
   23.2866  -17.6895  -17.3866 O   0  0  0  0  0  0  0  0  0  0  0  0
   28.1077  -16.2865  -17.6626 N   0  0  0  0  0  0  0  0  0  0  0  0
   28.6440  -17.3500  -16.8833 C   0  0  0  0  0  0  0  0  0  0  0  0
   29.6464  -17.9629  -17.2815 O   0  0  0  0  0  0  0  0  0  0  0  0
   27.9725  -17.6839  -15.6115 C   0  0  0  0  0  0  0  0  0  0  0  0
   26.7657  -16.8056  -15.3555 C   0  0  0  0  0  0  0  0  0  0  0  0
   25.5183  -17.5162  -15.8244 C   0  0  2  0  0  0  0  0  0  0  0  0
   24.3725  -16.6436  -15.6754 N   0  0  0  0  0  0  0  0  0  0  0  0
   25.3195  -18.8141  -15.1469 C   0  0  0  0  0  0  0  0  0  0  0  0
   26.2234  -19.6849  -15.2446 O   0  0  0  0  0  0  0  0  0  0  0  0
   25.6536  -22.4797  -11.5532 N   0  0  0  0  0  0  0  0  0  0  0  0
   24.8266  -21.2921  -11.4129 C   0  0  0  0  0  0  0  0  0  0  0  0
   23.9927  -21.2366  -10.4870 O   0  0  0  0  0  0  0  0  0  0  0  0
   24.9782  -20.1795  -12.3522 C   0  0  0  0  0  0  0  0  0  0  0  0
   24.0673  -20.3136  -13.5301 C   0  0  2  0  0  0  0  0  0  0  0  0
   24.1704  -19.1346  -14.3939 N   0  0  0  0  0  0  0  0  0  0  0  0
   22.6686  -20.5819  -13.1837 C   0  0  0  0  0  0  0  0  0  0  0  0
   21.8266  -19.6100  -13.2494 O   0  0  0  0  0  0  0  0  0  0  0  0
   22.1286  -21.7754  -12.7864 O   0  0  0  0  0  0  0  0  0  0  0  0
  2  1  1  6
  2  3  1  0
  4  3  1  0
  5  2  1  0
  6  5  2  0
  7  8  1  0
  8  9  2  0
 10  8  1  0
 10 11  1  0
 12 11  1  1
 12 13  1  0
 13  5  1  0
 14 21  1  0
 14 12  1  0
 15 14  2  0
 16 17  1  0
 17 19  1  0
 18 17  2  0
 20 19  1  1
 20 22  1  0
 20 21  1  0
 22 24  1  0
 23 22  2  0
M  END
$$$$
