CQN.pdb
     RDKit          3D

 24 23  0  0  1  0  0  0  0  0999 V2000
   24.2997  -13.0612  -17.9675 N   0  0  0  0  0  0  0  0  0  0  0  0
   23.8853  -12.3788  -16.7539 C   0  0  1  0  0  0  0  0  0  0  0  0
   25.0005  -11.4876  -16.2463 C   0  0  0  0  0  0  0  0  0  0  0  0
   26.3519  -12.4955  -15.5666 S   0  0  0  0  0  0  0  0  0  0  0  0
   22.6693  -11.5956  -17.0673 C   0  0  0  0  0  0  0  0  0  0  0  0
   22.4796  -11.0864  -18.2128 O   0  0  0  0  0  0  0  0  0  0  0  0
   17.7614  -12.9697  -14.2162 N   0  0  0  0  0  0  0  0  0  0  0  0
   18.3009  -13.5851  -15.3808 C   0  0  0  0  0  0  0  0  0  0  0  0
   18.1062  -14.7927  -15.5877 O   0  0  0  0  0  0  0  0  0  0  0  0
   19.0827  -12.7447  -16.3095 C   0  0  0  0  0  0  0  0  0  0  0  0
   19.2257  -11.3224  -15.8094 C   0  0  0  0  0  0  0  0  0  0  0  0
   20.4063  -10.6679  -16.4865 C   0  0  2  0  0  0  0  0  0  0  0  0
   21.6260  -11.3542  -16.1150 N   0  0  0  0  0  0  0  0  0  0  0  0
   20.4805   -9.2176  -16.2146 C   0  0  0  0  0  0  0  0  0  0  0  0
   19.4974   -8.4981  -16.5321 O   0  0  0  0  0  0  0  0  0  0  0  0
   21.9485   -4.5134  -14.6042 N   0  0  0  0  0  0  0  0  0  0  0  0
   22.2865   -5.5152  -13.6062 C   0  0  0  0  0  0  0  0  0  0  0  0
   22.6608   -5.1458  -12.4751 O   0  0  0  0  0  0  0  0  0  0  0  0
   22.1855   -6.9383  -13.9340 C   0  0  0  0  0  0  0  0  0  0  0  0
   21.6548   -7.1582  -15.3143 C   0  0  2  0  0  0  0  0  0  0  0  0
   21.5941   -8.5904  -15.6173 N   0  0  0  0  0  0  0  0  0  0  0  0
   22.3823   -6.4368  -16.3624 C   0  0  0  0  0  0  0  0  0  0  0  0
   23.3355   -7.0485  -16.9750 O   0  0  0  0  0  0  0  0  0  0  0  0
   22.1677   -5.1526  -16.7850 O   0  0  0  0  0  0  0  0  0  0  0  0
  2  1  1  6
  2  3  1  0
  4  3  1  0
  5  2  1  0
  6  5  2  0
  7  8  1  0
  8  9  2  0
 10  8  1  0
 10 11  1  0
 12 11  1  1
 12 13  1  0
 13  5  1  0
 14 21  1  0
 14 12  1  0
 15 14  2  0
 16 17  1  0
 17 19  1  0
 18 17  2  0
 20 19  1  1
 20 22  1  0
 20 21  1  0
 22 24  1  0
 23 22  2  0
M  END
$$$$
