CQN.pdb
     RDKit          3D

 24 23  0  0  1  0  0  0  0  0999 V2000
   13.8298   -8.7659   -7.9947 N   0  0  0  0  0  0  0  0  0  0  0  0
   14.4097   -7.5422   -8.5202 C   0  0  1  0  0  0  0  0  0  0  0  0
   14.9619   -6.6961   -7.3911 C   0  0  0  0  0  0  0  0  0  0  0  0
   13.6292   -6.2237   -6.2487 S   0  0  0  0  0  0  0  0  0  0  0  0
   15.4712   -7.9197   -9.4801 C   0  0  0  0  0  0  0  0  0  0  0  0
   16.3061   -8.8391   -9.2250 O   0  0  0  0  0  0  0  0  0  0  0  0
   16.0775  -10.1400  -15.9474 N   0  0  0  0  0  0  0  0  0  0  0  0
   16.3183  -10.1752  -14.5449 C   0  0  0  0  0  0  0  0  0  0  0  0
   16.1028  -11.2173  -13.9072 O   0  0  0  0  0  0  0  0  0  0  0  0
   16.8234   -8.9480  -13.8978 C   0  0  0  0  0  0  0  0  0  0  0  0
   15.8325   -8.3770  -12.9050 C   0  0  0  0  0  0  0  0  0  0  0  0
   16.5792   -7.7869  -11.7325 C   0  0  2  0  0  0  0  0  0  0  0  0
   15.6368   -7.2853  -10.7543 N   0  0  0  0  0  0  0  0  0  0  0  0
   17.5533   -6.7553  -12.1448 C   0  0  0  0  0  0  0  0  0  0  0  0
   17.1414   -5.5782  -12.3176 O   0  0  0  0  0  0  0  0  0  0  0  0
   23.2536   -5.8611  -14.2969 N   0  0  0  0  0  0  0  0  0  0  0  0
   22.2530   -5.5917  -13.2771 C   0  0  0  0  0  0  0  0  0  0  0  0
   22.2677   -4.4943  -12.6844 O   0  0  0  0  0  0  0  0  0  0  0  0
   21.2438   -6.6026  -12.9567 C   0  0  0  0  0  0  0  0  0  0  0  0
   19.8770   -6.0095  -12.8339 C   0  0  2  0  0  0  0  0  0  0  0  0
   18.9237   -7.0146  -12.3568 N   0  0  0  0  0  0  0  0  0  0  0  0
   19.3856   -5.3680  -14.0566 C   0  0  0  0  0  0  0  0  0  0  0  0
   18.9125   -6.1172  -14.9909 O   0  0  0  0  0  0  0  0  0  0  0  0
   19.3662   -4.0285  -14.3383 O   0  0  0  0  0  0  0  0  0  0  0  0
  2  1  1  1
  2  3  1  0
  4  3  1  0
  5  2  1  0
  6  5  2  0
  7  8  1  0
  8  9  2  0
 10  8  1  0
 10 11  1  0
 12 11  1  6
 12 13  1  0
 13  5  1  0
 14 21  1  0
 14 12  1  0
 15 14  2  0
 16 17  1  0
 17 19  1  0
 18 17  2  0
 20 19  1  6
 20 22  1  0
 20 21  1  0
 22 24  1  0
 23 22  2  0
M  END
$$$$
