CQN.pdb
     RDKit          3D

 24 23  0  0  1  0  0  0  0  0999 V2000
   19.0351  -11.4245  -16.5338 N   0  0  0  0  0  0  0  0  0  0  0  0
   20.3617  -11.9558  -16.7945 C   0  0  1  0  0  0  0  0  0  0  0  0
   20.2675  -13.2134  -17.6343 C   0  0  0  0  0  0  0  0  0  0  0  0
   19.4250  -14.5291  -16.7051 S   0  0  0  0  0  0  0  0  0  0  0  0
   21.1433  -10.9046  -17.4834 C   0  0  0  0  0  0  0  0  0  0  0  0
   22.3536  -11.0827  -17.8168 O   0  0  0  0  0  0  0  0  0  0  0  0
   19.2962   -6.4864  -21.4606 N   0  0  0  0  0  0  0  0  0  0  0  0
   18.6980   -6.5559  -20.1709 C   0  0  0  0  0  0  0  0  0  0  0  0
   17.6672   -5.9079  -19.9324 O   0  0  0  0  0  0  0  0  0  0  0  0
   19.3412   -7.4115  -19.1540 C   0  0  0  0  0  0  0  0  0  0  0  0
   20.6063   -8.0623  -19.6731 C   0  0  0  0  0  0  0  0  0  0  0  0
   21.3937   -8.6256  -18.5141 C   0  0  2  0  0  0  0  0  0  0  0  0
   20.6022   -9.6218  -17.8228 N   0  0  0  0  0  0  0  0  0  0  0  0
   21.8835   -7.5735  -17.5998 C   0  0  0  0  0  0  0  0  0  0  0  0
   22.5210   -6.6045  -18.0893 O   0  0  0  0  0  0  0  0  0  0  0  0
   22.5159   -4.3151  -13.6902 N   0  0  0  0  0  0  0  0  0  0  0  0
   21.7256   -4.0929  -14.8902 C   0  0  0  0  0  0  0  0  0  0  0  0
   21.2940   -2.9479  -15.1318 O   0  0  0  0  0  0  0  0  0  0  0  0
   21.4450   -5.2063  -15.7984 C   0  0  0  0  0  0  0  0  0  0  0  0
   22.0423   -6.4881  -15.3134 C   0  0  2  0  0  0  0  0  0  0  0  0
   21.6770   -7.5925  -16.2044 N   0  0  0  0  0  0  0  0  0  0  0  0
   21.7191   -6.8160  -13.9219 C   0  0  0  0  0  0  0  0  0  0  0  0
   20.7874   -7.6763  -13.6983 O   0  0  0  0  0  0  0  0  0  0  0  0
   22.3030   -6.3052  -12.7941 O   0  0  0  0  0  0  0  0  0  0  0  0
  2  1  1  6
  2  3  1  0
  4  3  1  0
  5  2  1  0
  6  5  2  0
  7  8  1  0
  8  9  2  0
 10  8  1  0
 10 11  1  0
 12 11  1  6
 12 13  1  0
 13  5  1  0
 14 21  1  0
 14 12  1  0
 15 14  2  0
 16 17  1  0
 17 19  1  0
 18 17  2  0
 20 19  1  6
 20 22  1  0
 20 21  1  0
 22 24  1  0
 23 22  2  0
M  END
$$$$
