CQN.pdb
     RDKit          3D

 24 23  0  0  1  0  0  0  0  0999 V2000
   28.1175  -21.9228  -16.5593 N   0  0  0  0  0  0  0  0  0  0  0  0
   27.8610  -20.7812  -15.6985 C   0  0  1  0  0  0  0  0  0  0  0  0
   27.3803  -19.6023  -16.5198 C   0  0  0  0  0  0  0  0  0  0  0  0
   28.7973  -18.6944  -17.2070 S   0  0  0  0  0  0  0  0  0  0  0  0
   26.8508  -21.1877  -14.6961 C   0  0  0  0  0  0  0  0  0  0  0  0
   25.9629  -22.0546  -14.9562 O   0  0  0  0  0  0  0  0  0  0  0  0
   26.6353  -20.1329   -8.4152 N   0  0  0  0  0  0  0  0  0  0  0  0
   25.4050  -20.7992   -8.6769 C   0  0  0  0  0  0  0  0  0  0  0  0
   24.6746  -21.1402   -7.7339 O   0  0  0  0  0  0  0  0  0  0  0  0
   25.0443  -21.0603  -10.0846 C   0  0  0  0  0  0  0  0  0  0  0  0
   26.1570  -20.6800  -11.0389 C   0  0  0  0  0  0  0  0  0  0  0  0
   25.7301  -20.9839  -12.4552 C   0  0  2  0  0  0  0  0  0  0  0  0
   26.7971  -20.6417  -13.3722 N   0  0  0  0  0  0  0  0  0  0  0  0
   24.4569  -20.3260  -12.8146 C   0  0  0  0  0  0  0  0  0  0  0  0
   24.4733  -19.0955  -13.0806 O   0  0  0  0  0  0  0  0  0  0  0  0
   20.5254  -19.9132  -16.8919 N   0  0  0  0  0  0  0  0  0  0  0  0
   20.8067  -19.8073  -15.4694 C   0  0  0  0  0  0  0  0  0  0  0  0
   20.0636  -19.1080  -14.7521 O   0  0  0  0  0  0  0  0  0  0  0  0
   21.9511  -20.5167  -14.8947 C   0  0  0  0  0  0  0  0  0  0  0  0
   21.9918  -20.3989  -13.4049 C   0  0  2  0  0  0  0  0  0  0  0  0
   23.2192  -21.0001  -12.8771 N   0  0  0  0  0  0  0  0  0  0  0  0
   20.8135  -20.9434  -12.7242 C   0  0  0  0  0  0  0  0  0  0  0  0
   20.8314  -22.1811  -12.3694 O   0  0  0  0  0  0  0  0  0  0  0  0
   19.6591  -20.2789  -12.4085 O   0  0  0  0  0  0  0  0  0  0  0  0
  2  1  1  6
  2  3  1  0
  4  3  1  0
  5  2  1  0
  6  5  2  0
  7  8  1  0
  8  9  2  0
 10  8  1  0
 10 11  1  0
 12 11  1  1
 12 13  1  0
 13  5  1  0
 14 21  1  0
 14 12  1  0
 15 14  2  0
 16 17  1  0
 17 19  1  0
 18 17  2  0
 20 19  1  6
 20 22  1  0
 20 21  1  0
 22 24  1  0
 23 22  2  0
M  END
$$$$
