CQN.pdb
     RDKit          3D

 24 23  0  0  1  0  0  0  0  0999 V2000
   24.2359  -12.8911  -18.2613 N   0  0  0  0  0  0  0  0  0  0  0  0
   24.1973  -12.1901  -16.9896 C   0  0  1  0  0  0  0  0  0  0  0  0
   25.5462  -11.5674  -16.6927 C   0  0  0  0  0  0  0  0  0  0  0  0
   26.7309  -12.8469  -16.1790 S   0  0  0  0  0  0  0  0  0  0  0  0
   23.1352  -11.1627  -17.0707 C   0  0  0  0  0  0  0  0  0  0  0  0
   23.0607  -10.3546  -18.0448 O   0  0  0  0  0  0  0  0  0  0  0  0
   17.2675  -11.7940  -15.7106 N   0  0  0  0  0  0  0  0  0  0  0  0
   17.9692  -12.0999  -16.9107 C   0  0  0  0  0  0  0  0  0  0  0  0
   17.4582  -12.8587  -17.7486 O   0  0  0  0  0  0  0  0  0  0  0  0
   19.2988  -11.4898  -17.1105 C   0  0  0  0  0  0  0  0  0  0  0  0
   19.7314  -10.6611  -15.9191 C   0  0  0  0  0  0  0  0  0  0  0  0
   21.0675  -10.0205  -16.2110 C   0  0  2  0  0  0  0  0  0  0  0  0
   22.1223  -11.0023  -16.0697 N   0  0  0  0  0  0  0  0  0  0  0  0
   21.3113   -8.8209  -15.3838 C   0  0  0  0  0  0  0  0  0  0  0  0
   21.8157   -8.9745  -14.2406 O   0  0  0  0  0  0  0  0  0  0  0  0
   21.6706   -3.8744  -13.7763 N   0  0  0  0  0  0  0  0  0  0  0  0
   22.6561   -4.3227  -14.7466 C   0  0  0  0  0  0  0  0  0  0  0  0
   23.6752   -3.6309  -14.9437 O   0  0  0  0  0  0  0  0  0  0  0  0
   22.4464   -5.5728  -15.4789 C   0  0  0  0  0  0  0  0  0  0  0  0
   21.2487   -6.3176  -14.9829 C   0  0  2  0  0  0  0  0  0  0  0  0
   21.0101   -7.5080  -15.8032 N   0  0  0  0  0  0  0  0  0  0  0  0
   20.0327   -5.5057  -14.8813 C   0  0  0  0  0  0  0  0  0  0  0  0
   19.2327   -5.4762  -15.8898 O   0  0  0  0  0  0  0  0  0  0  0  0
   19.6284   -4.7506  -13.8134 O   0  0  0  0  0  0  0  0  0  0  0  0
  2  1  1  6
  2  3  1  0
  4  3  1  0
  5  2  1  0
  6  5  2  0
  7  8  1  0
  8  9  2  0
 10  8  1  0
 10 11  1  0
 12 11  1  1
 12 13  1  0
 13  5  1  0
 14 21  1  0
 14 12  1  0
 15 14  2  0
 16 17  1  0
 17 19  1  0
 18 17  2  0
 20 19  1  6
 20 22  1  0
 20 21  1  0
 22 24  1  0
 23 22  2  0
M  END
$$$$
