CQN.pdb
     RDKit          3D

 24 23  0  0  1  0  0  0  0  0999 V2000
   17.2172  -12.4615  -16.4489 N   0  0  0  0  0  0  0  0  0  0  0  0
   16.6877  -11.2249  -15.9006 C   0  0  1  0  0  0  0  0  0  0  0  0
   16.4896  -11.3570  -14.4043 C   0  0  0  0  0  0  0  0  0  0  0  0
   15.0358  -12.3894  -14.0505 S   0  0  0  0  0  0  0  0  0  0  0  0
   17.6415  -10.1406  -16.2246 C   0  0  0  0  0  0  0  0  0  0  0  0
   18.8922  -10.3431  -16.2712 O   0  0  0  0  0  0  0  0  0  0  0  0
   14.9833   -6.8369  -18.8641 N   0  0  0  0  0  0  0  0  0  0  0  0
   16.0121   -7.2978  -19.7331 C   0  0  0  0  0  0  0  0  0  0  0  0
   15.7277   -7.6809  -20.8783 O   0  0  0  0  0  0  0  0  0  0  0  0
   17.3985   -7.2999  -19.2254 C   0  0  0  0  0  0  0  0  0  0  0  0
   17.4883   -6.7726  -17.8087 C   0  0  0  0  0  0  0  0  0  0  0  0
   18.1825   -7.7912  -16.9363 C   0  0  2  0  0  0  0  0  0  0  0  0
   17.2329   -8.7964  -16.5069 N   0  0  0  0  0  0  0  0  0  0  0  0
   18.8880   -7.1709  -15.7959 C   0  0  0  0  0  0  0  0  0  0  0  0
   18.4097   -7.3238  -14.6414 O   0  0  0  0  0  0  0  0  0  0  0  0
   22.5927   -5.1753  -12.7972 N   0  0  0  0  0  0  0  0  0  0  0  0
   22.0669   -6.5305  -12.7726 C   0  0  0  0  0  0  0  0  0  0  0  0
   22.4027   -7.2973  -11.8479 O   0  0  0  0  0  0  0  0  0  0  0  0
   21.1544   -6.9809  -13.8250 C   0  0  0  0  0  0  0  0  0  0  0  0
   20.8288   -5.8860  -14.7895 C   0  0  2  0  0  0  0  0  0  0  0  0
   20.0714   -6.4142  -15.9271 N   0  0  0  0  0  0  0  0  0  0  0  0
   21.9919   -5.1225  -15.2507 C   0  0  0  0  0  0  0  0  0  0  0  0
   22.6613   -4.4467  -14.3827 O   0  0  0  0  0  0  0  0  0  0  0  0
   22.4707   -5.0356  -16.5302 O   0  0  0  0  0  0  0  0  0  0  0  0
  2  1  1  1
  2  3  1  0
  4  3  1  0
  5  2  1  0
  6  5  2  0
  7  8  1  0
  8  9  2  0
 10  8  1  0
 10 11  1  0
 12 11  1  1
 12 13  1  0
 13  5  1  0
 14 21  1  0
 14 12  1  0
 15 14  2  0
 16 17  1  0
 17 19  1  0
 18 17  2  0
 20 19  1  1
 20 22  1  0
 20 21  1  0
 22 24  1  0
 23 22  2  0
M  END
$$$$
