CQN.pdb
     RDKit          3D

 24 23  0  0  1  0  0  0  0  0999 V2000
   25.5493  -13.8692  -17.5344 N   0  0  0  0  0  0  0  0  0  0  0  0
   25.2120  -13.1393  -16.3245 C   0  0  1  0  0  0  0  0  0  0  0  0
   26.4339  -12.4240  -15.7854 C   0  0  0  0  0  0  0  0  0  0  0  0
   27.6108  -13.6237  -15.0923 S   0  0  0  0  0  0  0  0  0  0  0  0
   24.1315  -12.1844  -16.6579 C   0  0  0  0  0  0  0  0  0  0  0  0
   24.1121  -11.5556  -17.7587 O   0  0  0  0  0  0  0  0  0  0  0  0
   18.0913  -12.4792  -15.8114 N   0  0  0  0  0  0  0  0  0  0  0  0
   18.2268  -11.1461  -16.2914 C   0  0  0  0  0  0  0  0  0  0  0  0
   17.2215  -10.5139  -16.6506 O   0  0  0  0  0  0  0  0  0  0  0  0
   19.5819  -10.5623  -16.3421 C   0  0  0  0  0  0  0  0  0  0  0  0
   20.6481  -11.5585  -15.9371 C   0  0  0  0  0  0  0  0  0  0  0  0
   22.0125  -10.9401  -16.1284 C   0  0  2  0  0  0  0  0  0  0  0  0
   23.0384  -11.8992  -15.7762 N   0  0  0  0  0  0  0  0  0  0  0  0
   22.1645   -9.6687  -15.3913 C   0  0  0  0  0  0  0  0  0  0  0  0
   22.5220   -9.7152  -14.1851 O   0  0  0  0  0  0  0  0  0  0  0  0
   22.6066   -4.7002  -14.0569 N   0  0  0  0  0  0  0  0  0  0  0  0
   22.7597   -4.7839  -15.5003 C   0  0  0  0  0  0  0  0  0  0  0  0
   23.0544   -3.7557  -16.1421 O   0  0  0  0  0  0  0  0  0  0  0  0
   22.5683   -6.0642  -16.1837 C   0  0  0  0  0  0  0  0  0  0  0  0
   22.1177   -7.1374  -15.2454 C   0  0  2  0  0  0  0  0  0  0  0  0
   21.9313   -8.4006  -15.9640 N   0  0  0  0  0  0  0  0  0  0  0  0
   20.9194   -6.7989  -14.4723 C   0  0  0  0  0  0  0  0  0  0  0  0
   19.7677   -7.0478  -14.9917 O   0  0  0  0  0  0  0  0  0  0  0  0
   20.8703   -6.2329  -13.2269 O   0  0  0  0  0  0  0  0  0  0  0  0
  2  1  1  6
  2  3  1  0
  4  3  1  0
  5  2  1  0
  6  5  2  0
  7  8  1  0
  8  9  2  0
 10  8  1  0
 10 11  1  0
 12 11  1  1
 12 13  1  0
 13  5  1  0
 14 21  1  0
 14 12  1  0
 15 14  2  0
 16 17  1  0
 17 19  1  0
 18 17  2  0
 20 19  1  6
 20 22  1  0
 20 21  1  0
 22 24  1  0
 23 22  2  0
M  END
$$$$
