CQN.pdb
     RDKit          3D

 24 23  0  0  1  0  0  0  0  0999 V2000
   18.7889  -10.6303  -17.1519 N   0  0  0  0  0  0  0  0  0  0  0  0
   18.7136  -11.0664  -15.7684 C   0  0  1  0  0  0  0  0  0  0  0  0
   19.6839  -12.2039  -15.5233 C   0  0  0  0  0  0  0  0  0  0  0  0
   19.0646  -13.7345  -16.2839 S   0  0  0  0  0  0  0  0  0  0  0  0
   19.0204   -9.9014  -14.9088 C   0  0  0  0  0  0  0  0  0  0  0  0
   18.9199   -9.9580  -13.6462 O   0  0  0  0  0  0  0  0  0  0  0  0
   22.7229   -6.5810  -13.6277 N   0  0  0  0  0  0  0  0  0  0  0  0
   21.9141   -5.4215  -13.4620 C   0  0  0  0  0  0  0  0  0  0  0  0
   22.2303   -4.5624  -12.6247 O   0  0  0  0  0  0  0  0  0  0  0  0
   20.7121   -5.2884  -14.3090 C   0  0  0  0  0  0  0  0  0  0  0  0
   20.5258   -6.4786  -15.2266 C   0  0  0  0  0  0  0  0  0  0  0  0
   19.6062   -7.4804  -14.5698 C   0  0  2  0  0  0  0  0  0  0  0  0
   19.4486   -8.6361  -15.4278 N   0  0  0  0  0  0  0  0  0  0  0  0
   18.3064   -6.8895  -14.1902 C   0  0  0  0  0  0  0  0  0  0  0  0
   17.5217   -6.5302  -15.1068 O   0  0  0  0  0  0  0  0  0  0  0  0
   16.5915   -5.7469   -9.0158 N   0  0  0  0  0  0  0  0  0  0  0  0
   17.0010   -6.6271  -10.0981 C   0  0  0  0  0  0  0  0  0  0  0  0
   18.1255   -7.1648  -10.0533 O   0  0  0  0  0  0  0  0  0  0  0  0
   16.0972   -6.8734  -11.2230 C   0  0  0  0  0  0  0  0  0  0  0  0
   16.5677   -6.2060  -12.4753 C   0  0  2  0  0  0  0  0  0  0  0  0
   17.8925   -6.7042  -12.8543 N   0  0  0  0  0  0  0  0  0  0  0  0
   16.5616   -4.7415  -12.4174 C   0  0  0  0  0  0  0  0  0  0  0  0
   17.6914   -4.1248  -12.4516 O   0  0  0  0  0  0  0  0  0  0  0  0
   15.4693   -3.9212  -12.3287 O   0  0  0  0  0  0  0  0  0  0  0  0
  2  1  1  6
  2  3  1  0
  4  3  1  0
  5  2  1  0
  6  5  2  0
  7  8  1  0
  8  9  2  0
 10  8  1  0
 10 11  1  0
 12 11  1  6
 12 13  1  0
 13  5  1  0
 14 21  1  0
 14 12  1  0
 15 14  2  0
 16 17  1  0
 17 19  1  0
 18 17  2  0
 20 19  1  1
 20 22  1  0
 20 21  1  0
 22 24  1  0
 23 22  2  0
M  END
$$$$
