CQN.pdb
     RDKit          3D

 24 23  0  0  1  0  0  0  0  0999 V2000
   15.7471  -12.0166  -15.9427 N   0  0  0  0  0  0  0  0  0  0  0  0
   15.7511  -10.5971  -15.6341 C   0  0  1  0  0  0  0  0  0  0  0  0
   14.6851  -10.2811  -14.6049 C   0  0  0  0  0  0  0  0  0  0  0  0
   13.0725  -10.0635  -15.4153 S   0  0  0  0  0  0  0  0  0  0  0  0
   17.1004  -10.2451  -15.1385 C   0  0  0  0  0  0  0  0  0  0  0  0
   17.7403  -11.0023  -14.3481 O   0  0  0  0  0  0  0  0  0  0  0  0
   22.1177   -9.9028  -17.7992 N   0  0  0  0  0  0  0  0  0  0  0  0
   22.5516   -9.2781  -16.5960 C   0  0  0  0  0  0  0  0  0  0  0  0
   23.7618   -9.0880  -16.4005 O   0  0  0  0  0  0  0  0  0  0  0  0
   21.5243   -8.8758  -15.6148 C   0  0  0  0  0  0  0  0  0  0  0  0
   20.1218   -9.1746  -16.1018 C   0  0  0  0  0  0  0  0  0  0  0  0
   19.1242   -8.7567  -15.0478 C   0  0  2  0  0  0  0  0  0  0  0  0
   17.7802   -9.0385  -15.5070 N   0  0  0  0  0  0  0  0  0  0  0  0
   19.2881   -7.3452  -14.6432 C   0  0  0  0  0  0  0  0  0  0  0  0
   19.0364   -6.4471  -15.4888 O   0  0  0  0  0  0  0  0  0  0  0  0
   19.9777   -5.4970   -9.4032 N   0  0  0  0  0  0  0  0  0  0  0  0
   19.4259   -6.1049  -10.6031 C   0  0  0  0  0  0  0  0  0  0  0  0
   19.2912   -7.3440  -10.6513 O   0  0  0  0  0  0  0  0  0  0  0  0
   19.0356   -5.2645  -11.7364 C   0  0  0  0  0  0  0  0  0  0  0  0
   19.8605   -5.5451  -12.9513 C   0  0  2  0  0  0  0  0  0  0  0  0
   19.7122   -6.9446  -13.3587 N   0  0  0  0  0  0  0  0  0  0  0  0
   21.2764   -5.1923  -12.8139 C   0  0  0  0  0  0  0  0  0  0  0  0
   22.1566   -6.1084  -13.0238 O   0  0  0  0  0  0  0  0  0  0  0  0
   21.7965   -3.9710  -12.4795 O   0  0  0  0  0  0  0  0  0  0  0  0
  2  1  1  1
  2  3  1  0
  4  3  1  0
  5  2  1  0
  6  5  2  0
  7  8  1  0
  8  9  2  0
 10  8  1  0
 10 11  1  0
 12 11  1  6
 12 13  1  0
 13  5  1  0
 14 21  1  0
 14 12  1  0
 15 14  2  0
 16 17  1  0
 17 19  1  0
 18 17  2  0
 20 19  1  1
 20 22  1  0
 20 21  1  0
 22 24  1  0
 23 22  2  0
M  END
$$$$
