RKK.pdb
     RDKit          3D

 30 29  0  0  1  0  0  0  0  0999 V2000
   26.6593  -27.5101  -16.2827 N   0  0  0  0  0  0  0  0  0  0  0  0
   26.0312  -27.0385  -17.4604 C   0  0  0  0  0  0  0  0  0  0  0  0
   25.2319  -27.7530  -18.1924 N   0  0  0  0  0  0  0  0  0  0  0  0
   26.2794  -25.7012  -17.8938 N   0  0  0  0  0  0  0  0  0  0  0  0
   27.1250  -24.8021  -17.1067 C   0  0  0  0  0  0  0  0  0  0  0  0
   27.1766  -23.4584  -17.7544 C   0  0  0  0  0  0  0  0  0  0  0  0
   25.8547  -22.7384  -17.8170 C   0  0  0  0  0  0  0  0  0  0  0  0
   25.9317  -21.5191  -16.9184 C   0  0  2  0  0  0  0  0  0  0  0  0
   27.0564  -21.6938  -16.0023 N   0  0  0  0  0  0  0  0  0  0  0  0
   24.7171  -21.3312  -16.1188 C   0  0  0  0  0  0  0  0  0  0  0  0
   24.6048  -21.9693  -15.0489 O   0  0  0  0  0  0  0  0  0  0  0  0
   24.8879  -27.3411  -19.1110 N   0  0  0  0  0  0  0  0  0  0  0  0
   23.6548  -20.4648  -16.4820 C   0  0  2  0  0  0  0  0  0  0  0  0
   22.5337  -20.2318  -15.5665 C   0  0  0  0  0  0  0  0  0  0  0  0
   21.8043  -18.9559  -16.0384 C   0  0  0  0  0  0  0  0  0  0  0  0
   20.6099  -18.6091  -15.2309 C   0  0  0  0  0  0  0  0  0  0  0  0
   19.8751  -17.3758  -15.6644 C   0  0  0  0  0  0  0  0  0  0  0  0
   18.6432  -17.2508  -14.7681 N   0  0  0  0  0  0  0  0  0  0  0  0
   17.8269  -16.1396  -15.2229 C   0  0  0  0  0  0  0  0  0  0  0  0
   21.5416  -21.2979  -15.5794 O   0  0  0  0  0  0  0  0  0  0  0  0
   21.2796  -21.8434  -16.6995 N   0  0  0  0  0  0  0  0  0  0  0  0
   20.8351  -21.8048  -14.4746 C   0  0  1  0  0  0  0  0  0  0  0  0
   19.8227  -22.8831  -14.5935 C   0  0  0  0  0  0  0  0  0  0  0  0
   20.0482  -23.8507  -13.4376 C   0  0  0  0  0  0  0  0  0  0  0  0
   19.0736  -23.6781  -12.3231 C   0  0  0  0  0  0  0  0  0  0  0  0
   19.3297  -24.6103  -11.1539 C   0  0  0  0  0  0  0  0  0  0  0  0
   18.2284  -24.4297  -10.1449 N   0  0  0  0  0  0  0  0  0  0  0  0
   18.4366  -25.3434   -9.0325 C   0  0  0  0  0  0  0  0  0  0  0  0
   18.4777  -22.3470  -14.5512 O   0  0  0  0  0  0  0  0  0  0  0  0
   18.2302  -21.1466  -14.1527 O   0  0  0  0  0  0  0  0  0  0  0  0
  2  1  1  0
  2  4  1  0
  3  2  2  0
  4  5  1  0
  5  6  1  0
  6  7  1  0
  7  8  1  0
  8  9  1  1
 10  8  1  0
 11 10  2  0
 12 10  1  0
 13 19  1  0
 13 12  1  0
 13 14  1  6
 15 14  1  0
 16 15  1  0
 17 16  1  0
 18 17  1  0
 19 21  1  0
 20 19  2  0
 21 22  1  0
 22 28  1  0
 22 23  1  6
 23 24  1  0
 25 24  1  0
 26 25  1  0
 26 27  1  0
 28 29  2  0
 28 30  1  0
M  END
$$$$
