RKK.pdb
     RDKit          3D

 30 29  0  0  1  0  0  0  0  0999 V2000
   22.8269  -21.0188   -9.0379 N   0  0  0  0  0  0  0  0  0  0  0  0
   23.8903  -20.9547   -8.1059 C   0  0  0  0  0  0  0  0  0  0  0  0
   23.7499  -21.1499   -6.8301 N   0  0  0  0  0  0  0  0  0  0  0  0
   25.2061  -20.6540   -8.5708 N   0  0  0  0  0  0  0  0  0  0  0  0
   25.4416  -20.2811   -9.9667 C   0  0  0  0  0  0  0  0  0  0  0  0
   25.2127  -21.4608  -10.8520 C   0  0  0  0  0  0  0  0  0  0  0  0
   26.2042  -21.6056  -11.9769 C   0  0  0  0  0  0  0  0  0  0  0  0
   25.4424  -21.9382  -13.2455 C   0  0  2  0  0  0  0  0  0  0  0  0
   25.4224  -23.3908  -13.4019 N   0  0  0  0  0  0  0  0  0  0  0  0
   26.0609  -21.3590  -14.4421 C   0  0  0  0  0  0  0  0  0  0  0  0
   26.2402  -20.1216  -14.4792 O   0  0  0  0  0  0  0  0  0  0  0  0
   24.6004  -21.0190   -6.2045 N   0  0  0  0  0  0  0  0  0  0  0  0
   26.4735  -22.1170  -15.5673 C   0  0  1  0  0  0  0  0  0  0  0  0
   27.1880  -21.4792  -16.6773 C   0  0  0  0  0  0  0  0  0  0  0  0
   28.1260  -22.5370  -17.2967 C   0  0  0  0  0  0  0  0  0  0  0  0
   29.2206  -22.9748  -16.3971 C   0  0  0  0  0  0  0  0  0  0  0  0
   30.1952  -23.9460  -16.9937 C   0  0  0  0  0  0  0  0  0  0  0  0
   31.2441  -24.2423  -15.9221 N   0  0  0  0  0  0  0  0  0  0  0  0
   32.1073  -25.3175  -16.3768 C   0  0  0  0  0  0  0  0  0  0  0  0
   26.3122  -21.0309  -17.7510 O   0  0  0  0  0  0  0  0  0  0  0  0
   25.3874  -21.8224  -18.1242 N   0  0  0  0  0  0  0  0  0  0  0  0
   26.3702  -19.7996  -18.4272 C   0  0  1  0  0  0  0  0  0  0  0  0
   25.1585  -19.0751  -18.8839 C   0  0  0  0  0  0  0  0  0  0  0  0
   24.3283  -18.7492  -17.6478 C   0  0  0  0  0  0  0  0  0  0  0  0
   23.1061  -17.9512  -17.9498 C   0  0  0  0  0  0  0  0  0  0  0  0
   22.3112  -17.5816  -16.7115 C   0  0  0  0  0  0  0  0  0  0  0  0
   21.1349  -16.7415  -17.1285 N   0  0  0  0  0  0  0  0  0  0  0  0
   20.3811  -16.3450  -15.9494 C   0  0  0  0  0  0  0  0  0  0  0  0
   25.5088  -17.8622  -19.5939 O   0  0  0  0  0  0  0  0  0  0  0  0
   26.5441  -17.1603  -19.2830 O   0  0  0  0  0  0  0  0  0  0  0  0
  2  1  1  0
  2  4  1  0
  3  2  2  0
  4  5  1  0
  5  6  1  0
  6  7  1  0
  7  8  1  0
  8  9  1  6
 10  8  1  0
 11 10  2  0
 12 10  1  0
 13 19  1  0
 13 12  1  0
 13 14  1  6
 15 14  1  0
 16 15  1  0
 17 16  1  0
 18 17  1  0
 19 21  1  0
 20 19  2  0
 21 22  1  0
 22 28  1  0
 22 23  1  6
 23 24  1  0
 25 24  1  0
 26 25  1  0
 26 27  1  0
 28 29  2  0
 28 30  1  0
M  END
$$$$
