RKK.pdb
     RDKit          3D

 30 29  0  0  1  0  0  0  0  0999 V2000
   28.5996  -15.2843  -18.3070 N   0  0  0  0  0  0  0  0  0  0  0  0
   27.2641  -15.3501  -17.8426 C   0  0  0  0  0  0  0  0  0  0  0  0
   26.2232  -15.1824  -18.6002 N   0  0  0  0  0  0  0  0  0  0  0  0
   27.0198  -15.6103  -16.4604 N   0  0  0  0  0  0  0  0  0  0  0  0
   27.8240  -16.5899  -15.7278 C   0  0  0  0  0  0  0  0  0  0  0  0
   27.6754  -17.9369  -16.3531 C   0  0  0  0  0  0  0  0  0  0  0  0
   26.5823  -18.7885  -15.7617 C   0  0  0  0  0  0  0  0  0  0  0  0
   27.2255  -19.8869  -14.9372 C   0  0  2  0  0  0  0  0  0  0  0  0
   27.8099  -20.8653  -15.8516 N   0  0  0  0  0  0  0  0  0  0  0  0
   26.2628  -20.5836  -14.0782 C   0  0  0  0  0  0  0  0  0  0  0  0
   25.6715  -21.5853  -14.5382 O   0  0  0  0  0  0  0  0  0  0  0  0
   26.3768  -14.8571  -19.6014 N   0  0  0  0  0  0  0  0  0  0  0  0
   25.9582  -20.1931  -12.7494 C   0  0  2  0  0  0  0  0  0  0  0  0
   24.8354  -20.8022  -12.0299 C   0  0  0  0  0  0  0  0  0  0  0  0
   24.9367  -20.3653  -10.5529 C   0  0  0  0  0  0  0  0  0  0  0  0
   26.1184  -20.9098   -9.8415 C   0  0  0  0  0  0  0  0  0  0  0  0
   26.2564  -20.4916   -8.4079 C   0  0  0  0  0  0  0  0  0  0  0  0
   27.6070  -21.0134   -7.9178 N   0  0  0  0  0  0  0  0  0  0  0  0
   27.8020  -20.6207   -6.5338 C   0  0  0  0  0  0  0  0  0  0  0  0
   23.5320  -20.3537  -12.5001 O   0  0  0  0  0  0  0  0  0  0  0  0
   23.3342  -19.0982  -12.5745 N   0  0  0  0  0  0  0  0  0  0  0  0
   22.4535  -21.1650  -12.8940 C   0  0  1  0  0  0  0  0  0  0  0  0
   21.1859  -20.6122  -13.4318 C   0  0  0  0  0  0  0  0  0  0  0  0
   21.1129  -20.9888  -14.9070 C   0  0  0  0  0  0  0  0  0  0  0  0
   19.8388  -20.5750  -15.5607 C   0  0  0  0  0  0  0  0  0  0  0  0
   19.7215  -21.0487  -16.9973 C   0  0  0  0  0  0  0  0  0  0  0  0
   18.4576  -20.4851  -17.5875 N   0  0  0  0  0  0  0  0  0  0  0  0
   18.3312  -20.9233  -18.9687 C   0  0  0  0  0  0  0  0  0  0  0  0
   20.0400  -21.1362  -12.7173 O   0  0  0  0  0  0  0  0  0  0  0  0
   20.1092  -22.2047  -11.9999 O   0  0  0  0  0  0  0  0  0  0  0  0
  2  1  1  0
  2  4  1  0
  3  2  2  0
  4  5  1  0
  5  6  1  0
  6  7  1  0
  7  8  1  0
  8  9  1  6
 10  8  1  0
 11 10  2  0
 12 10  1  0
 13 19  1  0
 13 12  1  0
 13 14  1  6
 15 14  1  0
 16 15  1  0
 17 16  1  0
 18 17  1  0
 19 21  1  0
 20 19  2  0
 21 22  1  0
 22 28  1  0
 22 23  1  1
 23 24  1  0
 25 24  1  0
 26 25  1  0
 26 27  1  0
 28 29  2  0
 28 30  1  0
M  END
$$$$
