RKK.pdb
     RDKit          3D

 30 29  0  0  1  0  0  0  0  0999 V2000
   32.0169  -24.4067  -18.3666 N   0  0  0  0  0  0  0  0  0  0  0  0
   31.7038  -25.1567  -17.2077 C   0  0  0  0  0  0  0  0  0  0  0  0
   32.4676  -26.0836  -16.7148 N   0  0  0  0  0  0  0  0  0  0  0  0
   30.4770  -24.9014  -16.5237 N   0  0  0  0  0  0  0  0  0  0  0  0
   29.5623  -23.8571  -16.9883 C   0  0  0  0  0  0  0  0  0  0  0  0
   28.6329  -24.4167  -18.0133 C   0  0  0  0  0  0  0  0  0  0  0  0
   27.1819  -24.0701  -17.8037 C   0  0  0  0  0  0  0  0  0  0  0  0
   26.8635  -24.2184  -16.3283 C   0  0  2  0  0  0  0  0  0  0  0  0
   27.3012  -25.5432  -15.8948 N   0  0  0  0  0  0  0  0  0  0  0  0
   25.4297  -24.0968  -16.0465 C   0  0  0  0  0  0  0  0  0  0  0  0
   24.8089  -23.1247  -16.5303 O   0  0  0  0  0  0  0  0  0  0  0  0
   32.1183  -26.6265  -15.8691 N   0  0  0  0  0  0  0  0  0  0  0  0
   24.6959  -25.0182  -15.2568 C   0  0  2  0  0  0  0  0  0  0  0  0
   23.2594  -24.8315  -15.0311 C   0  0  0  0  0  0  0  0  0  0  0  0
   22.7990  -25.9180  -14.0361 C   0  0  0  0  0  0  0  0  0  0  0  0
   21.6201  -26.6938  -14.4915 C   0  0  0  0  0  0  0  0  0  0  0  0
   21.8884  -28.1269  -14.8425 C   0  0  0  0  0  0  0  0  0  0  0  0
   20.5431  -28.7601  -15.1970 N   0  0  0  0  0  0  0  0  0  0  0  0
   20.7506  -30.1395  -15.5993 C   0  0  0  0  0  0  0  0  0  0  0  0
   22.9286  -23.5515  -14.4202 O   0  0  0  0  0  0  0  0  0  0  0  0
   23.8474  -22.9552  -13.7712 N   0  0  0  0  0  0  0  0  0  0  0  0
   21.6908  -22.8870  -14.4739 C   0  0  1  0  0  0  0  0  0  0  0  0
   21.5479  -21.4316  -14.2230 C   0  0  0  0  0  0  0  0  0  0  0  0
   22.2681  -20.7009  -15.3503 C   0  0  0  0  0  0  0  0  0  0  0  0
   22.1108  -19.2199  -15.2906 C   0  0  0  0  0  0  0  0  0  0  0  0
   22.7556  -18.5016  -16.4612 C   0  0  0  0  0  0  0  0  0  0  0  0
   22.6658  -17.0187  -16.2236 N   0  0  0  0  0  0  0  0  0  0  0  0
   23.2867  -16.3124  -17.3332 C   0  0  0  0  0  0  0  0  0  0  0  0
   20.1537  -21.0417  -14.1753 O   0  0  0  0  0  0  0  0  0  0  0  0
   19.2470  -21.6531  -14.8574 O   0  0  0  0  0  0  0  0  0  0  0  0
  2  1  1  0
  2  4  1  0
  3  2  2  0
  4  5  1  0
  5  6  1  0
  6  7  1  0
  7  8  1  0
  8  9  1  6
 10  8  1  0
 11 10  2  0
 12 10  1  0
 13 19  1  0
 13 12  1  0
 13 14  1  6
 15 14  1  0
 16 15  1  0
 17 16  1  0
 18 17  1  0
 19 21  1  0
 20 19  2  0
 21 22  1  0
 22 28  1  0
 22 23  1  1
 23 24  1  0
 25 24  1  0
 26 25  1  0
 26 27  1  0
 28 29  2  0
 28 30  1  0
M  END
$$$$
