RKK.pdb
     RDKit          3D

 30 29  0  0  1  0  0  0  0  0999 V2000
   24.0091  -17.8147  -19.2683 N   0  0  0  0  0  0  0  0  0  0  0  0
   25.3218  -17.3072  -19.1161 C   0  0  0  0  0  0  0  0  0  0  0  0
   25.6340  -16.0532  -19.2409 N   0  0  0  0  0  0  0  0  0  0  0  0
   26.3857  -18.2090  -18.8117 N   0  0  0  0  0  0  0  0  0  0  0  0
   26.1169  -19.4978  -18.1717 C   0  0  0  0  0  0  0  0  0  0  0  0
   27.3911  -20.2573  -18.0067 C   0  0  0  0  0  0  0  0  0  0  0  0
   27.2227  -21.6687  -17.5073 C   0  0  0  0  0  0  0  0  0  0  0  0
   27.4033  -21.6675  -16.0015 C   0  0  2  0  0  0  0  0  0  0  0  0
   28.2754  -22.7835  -15.6426 N   0  0  0  0  0  0  0  0  0  0  0  0
   26.1360  -21.8293  -15.2821 C   0  0  0  0  0  0  0  0  0  0  0  0
   25.2837  -22.6172  -15.7485 O   0  0  0  0  0  0  0  0  0  0  0  0
   26.6464  -15.7684  -19.0802 N   0  0  0  0  0  0  0  0  0  0  0  0
   25.8127  -21.1465  -14.0820 C   0  0  2  0  0  0  0  0  0  0  0  0
   24.5465  -21.4081  -13.3908 C   0  0  0  0  0  0  0  0  0  0  0  0
   24.7096  -20.9430  -11.9280 C   0  0  0  0  0  0  0  0  0  0  0  0
   23.5091  -21.1649  -11.0861 C   0  0  0  0  0  0  0  0  0  0  0  0
   23.5962  -20.6324   -9.6869 C   0  0  0  0  0  0  0  0  0  0  0  0
   22.3355  -21.0912   -8.9544 N   0  0  0  0  0  0  0  0  0  0  0  0
   22.3832  -20.6312   -7.5782 C   0  0  0  0  0  0  0  0  0  0  0  0
   23.4221  -20.6592  -13.9346 O   0  0  0  0  0  0  0  0  0  0  0  0
   23.5934  -19.4163  -14.1512 N   0  0  0  0  0  0  0  0  0  0  0  0
   22.1509  -21.1647  -14.2589 C   0  0  1  0  0  0  0  0  0  0  0  0
   21.0477  -20.3070  -14.7579 C   0  0  0  0  0  0  0  0  0  0  0  0
   20.5205  -20.9408  -16.0399 C   0  0  0  0  0  0  0  0  0  0  0  0
   19.3204  -20.2497  -16.5912 C   0  0  0  0  0  0  0  0  0  0  0  0
   18.7403  -20.9392  -17.8119 C   0  0  0  0  0  0  0  0  0  0  0  0
   17.6349  -20.0832  -18.3675 N   0  0  0  0  0  0  0  0  0  0  0  0
   16.9932  -20.7785  -19.4722 C   0  0  0  0  0  0  0  0  0  0  0  0
   19.9885  -20.1909  -13.7767 O   0  0  0  0  0  0  0  0  0  0  0  0
   19.0858  -19.2736  -13.8474 O   0  0  0  0  0  0  0  0  0  0  0  0
  2  1  1  0
  2  4  1  0
  3  2  2  0
  4  5  1  0
  5  6  1  0
  6  7  1  0
  7  8  1  0
  8  9  1  6
 10  8  1  0
 11 10  2  0
 12 10  1  0
 13 19  1  0
 13 12  1  0
 13 14  1  1
 15 14  1  0
 16 15  1  0
 17 16  1  0
 18 17  1  0
 19 21  1  0
 20 19  2  0
 21 22  1  0
 22 28  1  0
 22 23  1  1
 23 24  1  0
 25 24  1  0
 26 25  1  0
 26 27  1  0
 28 29  2  0
 28 30  1  0
M  END
$$$$
