RKK.pdb
     RDKit          3D

 30 29  0  0  1  0  0  0  0  0999 V2000
   28.3191  -11.7880  -15.3344 N   0  0  0  0  0  0  0  0  0  0  0  0
   27.0965  -12.3113  -15.8193 C   0  0  0  0  0  0  0  0  0  0  0  0
   27.0009  -13.0984  -16.8473 N   0  0  0  0  0  0  0  0  0  0  0  0
   25.8798  -11.9636  -15.1586 N   0  0  0  0  0  0  0  0  0  0  0  0
   24.9410  -11.0177  -15.7642 C   0  0  0  0  0  0  0  0  0  0  0  0
   23.7726  -10.8129  -14.8583 C   0  0  0  0  0  0  0  0  0  0  0  0
   22.7821   -9.7811  -15.3316 C   0  0  0  0  0  0  0  0  0  0  0  0
   21.3861  -10.3541  -15.1802 C   0  0  2  0  0  0  0  0  0  0  0  0
   21.2595  -11.4989  -16.0792 N   0  0  0  0  0  0  0  0  0  0  0  0
   20.3397   -9.3862  -15.5241 C   0  0  0  0  0  0  0  0  0  0  0  0
   20.4226   -8.7842  -16.6174 O   0  0  0  0  0  0  0  0  0  0  0  0
   26.0355  -13.2746  -17.2580 N   0  0  0  0  0  0  0  0  0  0  0  0
   19.2309   -9.0881  -14.6919 C   0  0  1  0  0  0  0  0  0  0  0  0
   18.1765   -8.1778  -15.1488 C   0  0  0  0  0  0  0  0  0  0  0  0
   16.8823   -8.5471  -14.3931 C   0  0  0  0  0  0  0  0  0  0  0  0
   15.6909   -7.7754  -14.8222 C   0  0  0  0  0  0  0  0  0  0  0  0
   14.4008   -8.1624  -14.1627 C   0  0  0  0  0  0  0  0  0  0  0  0
   13.2898   -7.3745  -14.8564 N   0  0  0  0  0  0  0  0  0  0  0  0
   12.0278   -7.6277  -14.1849 C   0  0  0  0  0  0  0  0  0  0  0  0
   18.4433   -6.7792  -14.8426 O   0  0  0  0  0  0  0  0  0  0  0  0
   18.8313   -6.4996  -13.6626 N   0  0  0  0  0  0  0  0  0  0  0  0
   18.3255   -5.6871  -15.7201 C   0  0  1  0  0  0  0  0  0  0  0  0
   18.6069   -4.2899  -15.3074 C   0  0  0  0  0  0  0  0  0  0  0  0
   19.1081   -3.5424  -16.5376 C   0  0  0  0  0  0  0  0  0  0  0  0
   19.5169   -2.1381  -16.2506 C   0  0  0  0  0  0  0  0  0  0  0  0
   20.1063   -1.4280  -17.4549 C   0  0  0  0  0  0  0  0  0  0  0  0
   20.5621   -0.0586  -17.0299 N   0  0  0  0  0  0  0  0  0  0  0  0
   21.2038    0.6078  -18.1523 C   0  0  0  0  0  0  0  0  0  0  0  0
   17.4211   -3.6513  -14.7741 O   0  0  0  0  0  0  0  0  0  0  0  0
   17.4863   -2.6835  -13.9256 O   0  0  0  0  0  0  0  0  0  0  0  0
  2  1  1  0
  2  4  1  0
  3  2  2  0
  4  5  1  0
  5  6  1  0
  6  7  1  0
  7  8  1  0
  8  9  1  6
 10  8  1  0
 11 10  2  0
 12 10  1  0
 13 19  1  0
 13 12  1  0
 13 14  1  6
 15 14  1  0
 16 15  1  0
 17 16  1  0
 18 17  1  0
 19 21  1  0
 20 19  2  0
 21 22  1  0
 22 28  1  0
 22 23  1  1
 23 24  1  0
 25 24  1  0
 26 25  1  0
 26 27  1  0
 28 29  2  0
 28 30  1  0
M  END
$$$$
