RKK.pdb
     RDKit          3D

 30 29  0  0  1  0  0  0  0  0999 V2000
   22.8382  -21.5347  -16.8542 N   0  0  0  0  0  0  0  0  0  0  0  0
   22.5688  -21.6885  -18.2353 C   0  0  0  0  0  0  0  0  0  0  0  0
   23.2066  -21.0575  -19.1737 N   0  0  0  0  0  0  0  0  0  0  0  0
   21.5344  -22.5818  -18.6475 N   0  0  0  0  0  0  0  0  0  0  0  0
   20.7054  -23.2760  -17.6607 C   0  0  0  0  0  0  0  0  0  0  0  0
   21.5386  -24.2465  -16.8915 C   0  0  0  0  0  0  0  0  0  0  0  0
   20.7971  -25.0019  -15.8196 C   0  0  0  0  0  0  0  0  0  0  0  0
   19.9907  -24.0083  -15.0056 C   0  0  2  0  0  0  0  0  0  0  0  0
   20.9204  -23.1069  -14.3290 N   0  0  0  0  0  0  0  0  0  0  0  0
   19.1610  -24.6575  -13.9858 C   0  0  0  0  0  0  0  0  0  0  0  0
   18.5814  -25.7256  -14.2822 O   0  0  0  0  0  0  0  0  0  0  0  0
   22.8986  -21.2086  -20.1808 N   0  0  0  0  0  0  0  0  0  0  0  0
   18.9736  -24.1498  -12.6750 C   0  0  1  0  0  0  0  0  0  0  0  0
   18.2040  -24.9066  -11.6829 C   0  0  0  0  0  0  0  0  0  0  0  0
   18.6742  -24.4539  -10.2842 C   0  0  0  0  0  0  0  0  0  0  0  0
   18.0675  -25.2168   -9.1666 C   0  0  0  0  0  0  0  0  0  0  0  0
   18.5667  -24.8608   -7.7979 C   0  0  0  0  0  0  0  0  0  0  0  0
   17.8861  -25.8108   -6.8126 N   0  0  0  0  0  0  0  0  0  0  0  0
   18.3919  -25.5610   -5.4748 C   0  0  0  0  0  0  0  0  0  0  0  0
   16.7720  -24.6465  -11.7366 O   0  0  0  0  0  0  0  0  0  0  0  0
   16.3970  -23.4307  -11.7849 N   0  0  0  0  0  0  0  0  0  0  0  0
   15.7417  -25.6030  -11.7484 C   0  0  2  0  0  0  0  0  0  0  0  0
   14.3046  -25.2376  -11.6944 C   0  0  0  0  0  0  0  0  0  0  0  0
   13.5018  -26.5321  -11.7488 C   0  0  0  0  0  0  0  0  0  0  0  0
   12.0274  -26.3154  -11.7182 C   0  0  0  0  0  0  0  0  0  0  0  0
   11.2308  -27.6028  -11.8185 C   0  0  0  0  0  0  0  0  0  0  0  0
    9.7681  -27.2584  -11.8915 N   0  0  0  0  0  0  0  0  0  0  0  0
    9.3147  -26.7940  -10.5898 C   0  0  0  0  0  0  0  0  0  0  0  0
   13.9959  -24.4997  -10.4868 O   0  0  0  0  0  0  0  0  0  0  0  0
   13.2712  -23.4340  -10.5007 O   0  0  0  0  0  0  0  0  0  0  0  0
  2  1  1  0
  2  4  1  0
  3  2  2  0
  4  5  1  0
  5  6  1  0
  6  7  1  0
  7  8  1  0
  8  9  1  1
 10  8  1  0
 11 10  2  0
 12 10  1  0
 13 19  1  0
 13 12  1  0
 13 14  1  6
 15 14  1  0
 16 15  1  0
 17 16  1  0
 18 17  1  0
 19 21  1  0
 20 19  2  0
 21 22  1  0
 22 28  1  0
 22 23  1  1
 23 24  1  0
 25 24  1  0
 26 25  1  0
 26 27  1  0
 28 29  2  0
 28 30  1  0
M  END
$$$$
