RKK.pdb
     RDKit          3D

 30 29  0  0  1  0  0  0  0  0999 V2000
   21.8798  -21.3914   -7.6033 N   0  0  0  0  0  0  0  0  0  0  0  0
   22.0099  -21.5152   -9.0074 C   0  0  0  0  0  0  0  0  0  0  0  0
   21.0404  -21.8615   -9.7983 N   0  0  0  0  0  0  0  0  0  0  0  0
   23.2751  -21.2539   -9.6149 N   0  0  0  0  0  0  0  0  0  0  0  0
   24.2685  -20.4114   -8.9468 C   0  0  0  0  0  0  0  0  0  0  0  0
   25.4071  -20.1392   -9.8725 C   0  0  0  0  0  0  0  0  0  0  0  0
   26.0095  -21.3655  -10.5073 C   0  0  0  0  0  0  0  0  0  0  0  0
   27.2297  -20.9418  -11.3021 C   0  0  2  0  0  0  0  0  0  0  0  0
   28.1230  -20.2025  -10.4132 N   0  0  0  0  0  0  0  0  0  0  0  0
   26.8909  -20.0732  -12.4338 C   0  0  0  0  0  0  0  0  0  0  0  0
   26.6280  -18.8721  -12.2037 O   0  0  0  0  0  0  0  0  0  0  0  0
   21.2638  -22.0282  -10.8250 N   0  0  0  0  0  0  0  0  0  0  0  0
   26.8436  -20.5098  -13.7822 C   0  0  2  0  0  0  0  0  0  0  0  0
   26.4758  -19.5821  -14.8561 C   0  0  0  0  0  0  0  0  0  0  0  0
   27.2488  -20.0060  -16.1231 C   0  0  0  0  0  0  0  0  0  0  0  0
   27.6453  -18.8745  -16.9957 C   0  0  0  0  0  0  0  0  0  0  0  0
   28.3158  -19.2570  -18.2816 C   0  0  0  0  0  0  0  0  0  0  0  0
   28.7453  -17.9591  -18.9653 N   0  0  0  0  0  0  0  0  0  0  0  0
   27.6048  -17.3724  -19.6456 C   0  0  0  0  0  0  0  0  0  0  0  0
   25.0627  -19.6281  -15.2051 O   0  0  0  0  0  0  0  0  0  0  0  0
   24.4576  -20.7390  -15.0611 N   0  0  0  0  0  0  0  0  0  0  0  0
   24.2779  -18.5643  -15.6840 C   0  0  1  0  0  0  0  0  0  0  0  0
   22.8319  -18.7043  -15.9861 C   0  0  0  0  0  0  0  0  0  0  0  0
   22.2850  -17.3078  -16.2582 C   0  0  0  0  0  0  0  0  0  0  0  0
   20.8254  -17.2928  -16.5603 C   0  0  0  0  0  0  0  0  0  0  0  0
   20.2889  -15.9042  -16.8534 C   0  0  0  0  0  0  0  0  0  0  0  0
   18.8108  -16.0055  -17.1152 N   0  0  0  0  0  0  0  0  0  0  0  0
   18.2490  -14.6697  -17.2407 C   0  0  0  0  0  0  0  0  0  0  0  0
   22.6160  -19.5654  -17.1306 O   0  0  0  0  0  0  0  0  0  0  0  0
   23.3999  -19.5559  -18.1535 O   0  0  0  0  0  0  0  0  0  0  0  0
  2  1  1  0
  2  4  1  0
  3  2  2  0
  4  5  1  0
  5  6  1  0
  6  7  1  0
  7  8  1  0
  8  9  1  1
 10  8  1  0
 11 10  2  0
 12 10  1  0
 13 19  1  0
 13 12  1  0
 13 14  1  6
 15 14  1  0
 16 15  1  0
 17 16  1  0
 18 17  1  0
 19 21  1  0
 20 19  2  0
 21 22  1  0
 22 28  1  0
 22 23  1  6
 23 24  1  0
 25 24  1  0
 26 25  1  0
 26 27  1  0
 28 29  2  0
 28 30  1  0
M  END
$$$$
