RKK.pdb
     RDKit          3D

 30 29  0  0  1  0  0  0  0  0999 V2000
   23.0113  -26.4429  -15.8686 N   0  0  0  0  0  0  0  0  0  0  0  0
   22.0184  -27.2044  -15.2066 C   0  0  0  0  0  0  0  0  0  0  0  0
   22.1553  -28.4557  -14.8888 N   0  0  0  0  0  0  0  0  0  0  0  0
   20.7804  -26.5834  -14.8608 N   0  0  0  0  0  0  0  0  0  0  0  0
   20.6720  -25.1265  -14.7677 C   0  0  0  0  0  0  0  0  0  0  0  0
   20.8039  -24.6984  -13.3440 C   0  0  0  0  0  0  0  0  0  0  0  0
   19.8200  -25.3392  -12.4001 C   0  0  0  0  0  0  0  0  0  0  0  0
   18.9983  -24.2429  -11.7496 C   0  0  2  0  0  0  0  0  0  0  0  0
   19.9130  -23.3085  -11.0978 N   0  0  0  0  0  0  0  0  0  0  0  0
   18.0737  -24.7587  -10.7352 C   0  0  0  0  0  0  0  0  0  0  0  0
   17.0063  -25.2872  -11.1172 O   0  0  0  0  0  0  0  0  0  0  0  0
   21.3394  -28.9464  -14.4142 N   0  0  0  0  0  0  0  0  0  0  0  0
   18.3144  -24.6983   -9.3390 C   0  0  1  0  0  0  0  0  0  0  0  0
   17.3517  -25.2641   -8.3891 C   0  0  0  0  0  0  0  0  0  0  0  0
   18.1281  -25.6465   -7.1110 C   0  0  0  0  0  0  0  0  0  0  0  0
   17.2706  -26.1518   -6.0117 C   0  0  0  0  0  0  0  0  0  0  0  0
   17.9886  -26.4961   -4.7409 C   0  0  0  0  0  0  0  0  0  0  0  0
   16.9394  -27.0261   -3.7638 N   0  0  0  0  0  0  0  0  0  0  0  0
   17.5584  -27.2591   -2.4714 C   0  0  0  0  0  0  0  0  0  0  0  0
   16.3216  -24.3217   -7.9748 O   0  0  0  0  0  0  0  0  0  0  0  0
   16.7041  -23.1988   -7.5122 N   0  0  0  0  0  0  0  0  0  0  0  0
   14.9301  -24.5134   -8.0362 C   0  0  1  0  0  0  0  0  0  0  0  0
   13.9581  -23.5251   -7.5069 C   0  0  0  0  0  0  0  0  0  0  0  0
   12.5866  -23.8908   -8.0625 C   0  0  0  0  0  0  0  0  0  0  0  0
   11.5131  -22.9371   -7.6627 C   0  0  0  0  0  0  0  0  0  0  0  0
   10.1298  -23.3710   -8.1101 C   0  0  0  0  0  0  0  0  0  0  0  0
    9.1386  -22.3170   -7.6973 N   0  0  0  0  0  0  0  0  0  0  0  0
    7.8065  -22.7096   -8.1298 C   0  0  0  0  0  0  0  0  0  0  0  0
   13.9372  -23.5335   -6.0586 O   0  0  0  0  0  0  0  0  0  0  0  0
   13.8449  -22.4493   -5.3679 O   0  0  0  0  0  0  0  0  0  0  0  0
  2  1  1  0
  2  4  1  0
  3  2  2  0
  4  5  1  0
  5  6  1  0
  6  7  1  0
  7  8  1  0
  8  9  1  1
 10  8  1  0
 11 10  2  0
 12 10  1  0
 13 19  1  0
 13 12  1  0
 13 14  1  6
 15 14  1  0
 16 15  1  0
 17 16  1  0
 18 17  1  0
 19 21  1  0
 20 19  2  0
 21 22  1  0
 22 28  1  0
 22 23  1  1
 23 24  1  0
 25 24  1  0
 26 25  1  0
 26 27  1  0
 28 29  2  0
 28 30  1  0
M  END
$$$$
