RKK.pdb
     RDKit          3D

 30 29  0  0  1  0  0  0  0  0999 V2000
   19.4240  -19.6893  -17.5954 N   0  0  0  0  0  0  0  0  0  0  0  0
   18.9027  -18.7113  -18.4760 C   0  0  0  0  0  0  0  0  0  0  0  0
   17.6808  -18.2748  -18.4343 N   0  0  0  0  0  0  0  0  0  0  0  0
   19.7503  -18.1592  -19.4833 N   0  0  0  0  0  0  0  0  0  0  0  0
   21.1484  -18.5773  -19.5994 C   0  0  0  0  0  0  0  0  0  0  0  0
   22.0458  -17.4818  -19.1280 C   0  0  0  0  0  0  0  0  0  0  0  0
   22.6147  -17.6838  -17.7477 C   0  0  0  0  0  0  0  0  0  0  0  0
   24.0925  -17.9974  -17.8811 C   0  0  2  0  0  0  0  0  0  0  0  0
   24.3418  -18.4652  -19.2427 N   0  0  0  0  0  0  0  0  0  0  0  0
   24.5325  -19.0428  -16.9519 C   0  0  0  0  0  0  0  0  0  0  0  0
   23.8283  -20.0701  -16.8357 O   0  0  0  0  0  0  0  0  0  0  0  0
   17.3892  -17.5280  -19.1337 N   0  0  0  0  0  0  0  0  0  0  0  0
   25.7146  -18.9646  -16.1725 C   0  0  1  0  0  0  0  0  0  0  0  0
   26.0784  -20.0488  -15.2551 C   0  0  0  0  0  0  0  0  0  0  0  0
   27.5763  -20.3554  -15.4670 C   0  0  0  0  0  0  0  0  0  0  0  0
   27.8529  -21.2511  -16.6161 C   0  0  0  0  0  0  0  0  0  0  0  0
   29.2928  -21.6218  -16.8119 C   0  0  0  0  0  0  0  0  0  0  0  0
   29.3598  -22.5180  -18.0483 N   0  0  0  0  0  0  0  0  0  0  0  0
   30.7412  -22.8840  -18.3041 C   0  0  0  0  0  0  0  0  0  0  0  0
   25.9285  -19.6961  -13.8501 O   0  0  0  0  0  0  0  0  0  0  0  0
   25.6392  -18.4870  -13.5753 N   0  0  0  0  0  0  0  0  0  0  0  0
   26.0624  -20.5566  -12.7463 C   0  0  1  0  0  0  0  0  0  0  0  0
   25.0808  -20.5969  -11.6344 C   0  0  0  0  0  0  0  0  0  0  0  0
   23.7628  -21.1054  -12.2069 C   0  0  0  0  0  0  0  0  0  0  0  0
   22.6989  -21.2795  -11.1776 C   0  0  0  0  0  0  0  0  0  0  0  0
   21.4625  -20.4424  -11.4470 C   0  0  0  0  0  0  0  0  0  0  0  0
   20.4985  -20.6283  -10.3070 N   0  0  0  0  0  0  0  0  0  0  0  0
   19.3336  -19.7827  -10.5156 C   0  0  0  0  0  0  0  0  0  0  0  0
   25.5356  -21.4604  -10.5640 O   0  0  0  0  0  0  0  0  0  0  0  0
   25.5609  -21.0738   -9.3348 O   0  0  0  0  0  0  0  0  0  0  0  0
  2  1  1  0
  2  4  1  0
  3  2  2  0
  4  5  1  0
  5  6  1  0
  6  7  1  0
  7  8  1  0
  8  9  1  6
 10  8  1  0
 11 10  2  0
 12 10  1  0
 13 19  1  0
 13 12  1  0
 13 14  1  1
 15 14  1  0
 16 15  1  0
 17 16  1  0
 18 17  1  0
 19 21  1  0
 20 19  2  0
 21 22  1  0
 22 28  1  0
 22 23  1  1
 23 24  1  0
 25 24  1  0
 26 25  1  0
 26 27  1  0
 28 29  2  0
 28 30  1  0
M  END
$$$$
