FLY.pdb
     RDKit          3D

 32 33  0  0  1  0  0  0  0  0999 V2000
   20.1575   -9.5139  -20.7941 N   0  0  0  0  0  0  0  0  0  0  0  0
   21.3834   -9.0785  -20.1444 C   0  0  1  0  0  0  0  0  0  0  0  0
   21.8589   -7.7646  -20.7262 C   0  0  0  0  0  0  0  0  0  0  0  0
   22.2958   -8.0740  -22.1338 C   0  0  0  0  0  0  0  0  0  0  0  0
   23.4625   -8.7864  -22.3459 C   0  0  0  0  0  0  0  0  0  0  0  0
   23.8951   -9.0910  -23.6167 C   0  0  0  0  0  0  0  0  0  0  0  0
   23.1674   -8.6884  -24.7159 C   0  0  0  0  0  0  0  0  0  0  0  0
   22.0005   -7.9752  -24.4842 C   0  0  0  0  0  0  0  0  0  0  0  0
   21.5624   -7.6670  -23.2027 C   0  0  0  0  0  0  0  0  0  0  0  0
   21.0824   -8.9230  -18.6811 C   0  0  0  0  0  0  0  0  0  0  0  0
   19.9400   -8.5292  -18.2842 O   0  0  0  0  0  0  0  0  0  0  0  0
   23.8743  -10.5249  -13.3258 C   0  0  0  0  0  0  0  0  0  0  0  0
   22.8635   -9.7048  -14.0466 C   0  0  2  0  0  0  0  0  0  0  0  0
   21.4782  -10.0373  -13.4344 C   0  0  0  0  0  0  0  0  0  0  0  0
   22.7340   -9.8023  -15.4975 C   0  0  0  0  0  0  0  0  0  0  0  0
   21.8470   -8.9258  -16.2918 C   0  0  2  0  0  0  0  0  0  0  0  0
   22.0993   -9.2242  -17.7430 N   0  0  0  0  0  0  0  0  0  0  0  0
   22.1435   -7.4945  -16.1137 C   0  0  0  0  0  0  0  0  0  0  0  0
   23.1172   -6.9456  -16.6714 O   0  0  0  0  0  0  0  0  0  0  0  0
   21.5009    1.1500  -14.7179 O   0  0  0  0  0  0  0  0  0  0  0  0
   21.3382   -0.1922  -15.0229 C   0  0  0  0  0  0  0  0  0  0  0  0
   22.2296   -0.8202  -15.8813 C   0  0  0  0  0  0  0  0  0  0  0  0
   22.0746   -2.1487  -16.1877 C   0  0  0  0  0  0  0  0  0  0  0  0
   21.0516   -2.9217  -15.6760 C   0  0  0  0  0  0  0  0  0  0  0  0
   20.8727   -4.3445  -16.0195 C   0  0  0  0  0  0  0  0  0  0  0  0
   21.6435   -5.2204  -15.0983 C   0  0  2  0  0  0  0  0  0  0  0  0
   21.3515   -6.6295  -15.2997 N   0  0  0  0  0  0  0  0  0  0  0  0
   21.5325   -4.9274  -13.6715 C   0  0  0  0  0  0  0  0  0  0  0  0
   22.3021   -4.1023  -13.1200 O   0  0  0  0  0  0  0  0  0  0  0  0
   20.1739   -2.2754  -14.8218 C   0  0  0  0  0  0  0  0  0  0  0  0
   20.3166   -0.9426  -14.5048 C   0  0  0  0  0  0  0  0  0  0  0  0
   20.5868   -5.5414  -12.8955 O   0  0  0  0  0  0  0  0  0  0  0  0
  2  3  1  0
  2  1  1  6
  4  5  2  0
  4  3  1  0
  6  5  1  0
  7  6  2  0
  8  7  1  0
  8  9  2  0
  9  4  1  0
 10  2  1  0
 11 10  2  0
 13 12  1  1
 14 13  1  0
 15 13  1  0
 16 15  1  1
 16 17  1  0
 17 10  1  0
 18 16  1  0
 18 19  2  0
 20 21  1  0
 21 31  2  0
 22 21  1  0
 22 23  2  0
 23 24  1  0
 24 30  2  0
 24 25  1  0
 26 25  1  6
 26 27  1  0
 27 18  1  0
 28 26  1  0
 29 28  2  0
 31 30  1  0
 32 28  1  0
M  END
$$$$
