FLY.pdb
     RDKit          3D

 32 33  0  0  1  0  0  0  0  0999 V2000
   20.6894  -10.2097  -20.1727 N   0  0  0  0  0  0  0  0  0  0  0  0
   21.4451   -9.2830  -19.3454 C   0  0  1  0  0  0  0  0  0  0  0  0
   20.7842   -7.9214  -19.3277 C   0  0  0  0  0  0  0  0  0  0  0  0
   20.9821   -7.3520  -20.7078 C   0  0  0  0  0  0  0  0  0  0  0  0
   19.9220   -7.3304  -21.5963 C   0  0  0  0  0  0  0  0  0  0  0  0
   20.0616   -6.8170  -22.8659 C   0  0  0  0  0  0  0  0  0  0  0  0
   21.2729   -6.3084  -23.2828 C   0  0  0  0  0  0  0  0  0  0  0  0
   22.3244   -6.3383  -22.3787 C   0  0  0  0  0  0  0  0  0  0  0  0
   22.1855   -6.8560  -21.0973 C   0  0  0  0  0  0  0  0  0  0  0  0
   21.4923   -9.8584  -17.9588 C   0  0  0  0  0  0  0  0  0  0  0  0
   20.6101  -10.6834  -17.5602 O   0  0  0  0  0  0  0  0  0  0  0  0
   24.3693  -12.7518  -15.7876 C   0  0  0  0  0  0  0  0  0  0  0  0
   24.7930  -11.3329  -15.9328 C   0  0  2  0  0  0  0  0  0  0  0  0
   26.2223  -11.2158  -15.3432 C   0  0  0  0  0  0  0  0  0  0  0  0
   23.9914  -10.2610  -15.3499 C   0  0  0  0  0  0  0  0  0  0  0  0
   22.5749  -10.0262  -15.7020 C   0  0  2  0  0  0  0  0  0  0  0  0
   22.5432   -9.4644  -17.0955 N   0  0  0  0  0  0  0  0  0  0  0  0
   21.9282   -9.0197  -14.8434 C   0  0  0  0  0  0  0  0  0  0  0  0
   21.8622   -9.1515  -13.6030 O   0  0  0  0  0  0  0  0  0  0  0  0
   25.4613   -3.2030  -17.1139 O   0  0  0  0  0  0  0  0  0  0  0  0
   24.5999   -3.9001  -16.2814 C   0  0  0  0  0  0  0  0  0  0  0  0
   24.8471   -5.2341  -15.9897 C   0  0  0  0  0  0  0  0  0  0  0  0
   23.9985   -5.9304  -15.1664 C   0  0  0  0  0  0  0  0  0  0  0  0
   22.8777   -5.3638  -14.5931 C   0  0  0  0  0  0  0  0  0  0  0  0
   21.9544   -6.1161  -13.7237 C   0  0  0  0  0  0  0  0  0  0  0  0
   20.8599   -6.7387  -14.5139 C   0  0  2  0  0  0  0  0  0  0  0  0
   21.3324   -7.8268  -15.3533 N   0  0  0  0  0  0  0  0  0  0  0  0
   20.0546   -5.8398  -15.3369 C   0  0  0  0  0  0  0  0  0  0  0  0
   19.8959   -6.0560  -16.5638 O   0  0  0  0  0  0  0  0  0  0  0  0
   22.6499   -4.0321  -14.8973 C   0  0  0  0  0  0  0  0  0  0  0  0
   23.4927   -3.3202  -15.7220 C   0  0  0  0  0  0  0  0  0  0  0  0
   19.4491   -4.7382  -14.7954 O   0  0  0  0  0  0  0  0  0  0  0  0
  2  3  1  0
  2  1  1  6
  4  5  2  0
  4  3  1  0
  6  5  1  0
  7  6  2  0
  8  7  1  0
  8  9  2  0
  9  4  1  0
 10  2  1  0
 11 10  2  0
 13 12  1  1
 14 13  1  0
 15 13  1  0
 16 15  1  1
 16 17  1  0
 17 10  1  0
 18 16  1  0
 18 19  2  0
 20 21  1  0
 21 31  2  0
 22 21  1  0
 22 23  2  0
 23 24  1  0
 24 30  2  0
 24 25  1  0
 26 25  1  6
 26 27  1  0
 27 18  1  0
 28 26  1  0
 29 28  2  0
 31 30  1  0
 32 28  1  0
M  END
$$$$
