FLY.pdb
     RDKit          3D

 32 33  0  0  1  0  0  0  0  0999 V2000
   19.0605   -9.2582  -18.3338 N   0  0  0  0  0  0  0  0  0  0  0  0
   20.3770   -8.8660  -17.8572 C   0  0  1  0  0  0  0  0  0  0  0  0
   20.9624   -7.7816  -18.7361 C   0  0  0  0  0  0  0  0  0  0  0  0
   21.3290   -8.4573  -20.0311 C   0  0  0  0  0  0  0  0  0  0  0  0
   20.7441   -8.0347  -21.2114 C   0  0  0  0  0  0  0  0  0  0  0  0
   21.0537   -8.6250  -22.4159 C   0  0  0  0  0  0  0  0  0  0  0  0
   21.9621   -9.6601  -22.4717 C   0  0  0  0  0  0  0  0  0  0  0  0
   22.5384  -10.0705  -21.2785 C   0  0  0  0  0  0  0  0  0  0  0  0
   22.2273   -9.4761  -20.0624 C   0  0  0  0  0  0  0  0  0  0  0  0
   20.2121   -8.3655  -16.4507 C   0  0  0  0  0  0  0  0  0  0  0  0
   19.0877   -7.9436  -16.0317 O   0  0  0  0  0  0  0  0  0  0  0  0
   20.4075   -9.7071  -11.6523 C   0  0  0  0  0  0  0  0  0  0  0  0
   21.5267   -9.7957  -12.6287 C   0  0  2  0  0  0  0  0  0  0  0  0
   22.7292  -10.4430  -11.8944 C   0  0  0  0  0  0  0  0  0  0  0  0
   22.0188   -8.5946  -13.2969 C   0  0  0  0  0  0  0  0  0  0  0  0
   21.1925   -7.7834  -14.2160 C   0  0  2  0  0  0  0  0  0  0  0  0
   21.3376   -8.3712  -15.5915 N   0  0  0  0  0  0  0  0  0  0  0  0
   21.6500   -6.3876  -14.3203 C   0  0  0  0  0  0  0  0  0  0  0  0
   21.6110   -5.6037  -13.3485 O   0  0  0  0  0  0  0  0  0  0  0  0
   26.0291   -7.0048  -20.4385 O   0  0  0  0  0  0  0  0  0  0  0  0
   25.5926   -6.3825  -19.2796 C   0  0  0  0  0  0  0  0  0  0  0  0
   25.4428   -7.1186  -18.1127 C   0  0  0  0  0  0  0  0  0  0  0  0
   25.0109   -6.5091  -16.9617 C   0  0  0  0  0  0  0  0  0  0  0  0
   24.7071   -5.1641  -16.8942 C   0  0  0  0  0  0  0  0  0  0  0  0
   24.2245   -4.5118  -15.6630 C   0  0  0  0  0  0  0  0  0  0  0  0
   22.7389   -4.4913  -15.6130 C   0  0  2  0  0  0  0  0  0  0  0  0
   22.1690   -5.8251  -15.5254 N   0  0  0  0  0  0  0  0  0  0  0  0
   22.0584   -3.7703  -16.6858 C   0  0  0  0  0  0  0  0  0  0  0  0
   22.3101   -2.5608  -16.9116 O   0  0  0  0  0  0  0  0  0  0  0  0
   24.8635   -4.4487  -18.0695 C   0  0  0  0  0  0  0  0  0  0  0  0
   25.2960   -5.0465  -19.2326 C   0  0  0  0  0  0  0  0  0  0  0  0
   21.1293   -4.3913  -17.4761 O   0  0  0  0  0  0  0  0  0  0  0  0
  2  3  1  0
  2  1  1  6
  4  5  2  0
  4  3  1  0
  6  5  1  0
  7  6  2  0
  8  7  1  0
  8  9  2  0
  9  4  1  0
 10  2  1  0
 11 10  2  0
 13 12  1  1
 14 13  1  0
 15 13  1  0
 16 15  1  1
 16 17  1  0
 17 10  1  0
 18 16  1  0
 18 19  2  0
 20 21  1  0
 21 31  2  0
 22 21  1  0
 22 23  2  0
 23 24  1  0
 24 30  2  0
 24 25  1  0
 26 25  1  6
 26 27  1  0
 27 18  1  0
 28 26  1  0
 29 28  2  0
 31 30  1  0
 32 28  1  0
M  END
$$$$
