FLY.pdb
     RDKit          3D

 32 33  0  0  1  0  0  0  0  0999 V2000
   21.7863  -20.7715  -14.8923 N   0  0  0  0  0  0  0  0  0  0  0  0
   22.5988  -20.1836  -13.8393 C   0  0  1  0  0  0  0  0  0  0  0  0
   21.9200  -20.3322  -12.4946 C   0  0  0  0  0  0  0  0  0  0  0  0
   20.6869  -19.4701  -12.5607 C   0  0  0  0  0  0  0  0  0  0  0  0
   20.8072  -18.0963  -12.4510 C   0  0  0  0  0  0  0  0  0  0  0  0
   19.7050  -17.2738  -12.5082 C   0  0  0  0  0  0  0  0  0  0  0  0
   18.4454  -17.8071  -12.6776 C   0  0  0  0  0  0  0  0  0  0  0  0
   18.3439  -19.1862  -12.7857 C   0  0  0  0  0  0  0  0  0  0  0  0
   19.4549  -20.0178  -12.7282 C   0  0  0  0  0  0  0  0  0  0  0  0
   23.9183  -20.9011  -13.8400 C   0  0  0  0  0  0  0  0  0  0  0  0
   24.0113  -22.1038  -14.2435 O   0  0  0  0  0  0  0  0  0  0  0  0
   29.9020  -19.2063  -13.3146 C   0  0  0  0  0  0  0  0  0  0  0  0
   28.8732  -20.2741  -13.4374 C   0  0  2  0  0  0  0  0  0  0  0  0
   29.1656  -21.0476  -14.7491 C   0  0  0  0  0  0  0  0  0  0  0  0
   27.4536  -19.9333  -13.4391 C   0  0  0  0  0  0  0  0  0  0  0  0
   26.3783  -20.9441  -13.3501 C   0  0  2  0  0  0  0  0  0  0  0  0
   25.0665  -20.2115  -13.3807 N   0  0  0  0  0  0  0  0  0  0  0  0
   26.3963  -21.6925  -12.0820 C   0  0  0  0  0  0  0  0  0  0  0  0
   27.1707  -22.6538  -11.8915 O   0  0  0  0  0  0  0  0  0  0  0  0
   28.6586  -19.6149   -4.0654 O   0  0  0  0  0  0  0  0  0  0  0  0
   28.3100  -19.7951   -5.3947 C   0  0  0  0  0  0  0  0  0  0  0  0
   27.2702  -19.0583   -5.9439 C   0  0  0  0  0  0  0  0  0  0  0  0
   26.9195  -19.2316   -7.2591 C   0  0  0  0  0  0  0  0  0  0  0  0
   27.5608  -20.1242   -8.0945 C   0  0  0  0  0  0  0  0  0  0  0  0
   27.1725  -20.3254   -9.5027 C   0  0  0  0  0  0  0  0  0  0  0  0
   26.0067  -21.2413   -9.6128 C   0  0  2  0  0  0  0  0  0  0  0  0
   25.5408  -21.3830  -10.9819 N   0  0  0  0  0  0  0  0  0  0  0  0
   24.8561  -20.9400   -8.7646 C   0  0  0  0  0  0  0  0  0  0  0  0
   24.8059  -21.3452   -7.5769 O   0  0  0  0  0  0  0  0  0  0  0  0
   28.5951  -20.8489   -7.5263 C   0  0  0  0  0  0  0  0  0  0  0  0
   28.9585  -20.6859   -6.2078 C   0  0  0  0  0  0  0  0  0  0  0  0
   23.8016  -20.2072   -9.2382 O   0  0  0  0  0  0  0  0  0  0  0  0
  2  3  1  0
  2  1  1  6
  4  5  2  0
  4  3  1  0
  6  5  1  0
  7  6  2  0
  8  7  1  0
  8  9  2  0
  9  4  1  0
 10  2  1  0
 11 10  2  0
 13 12  1  6
 14 13  1  0
 15 13  1  0
 16 15  1  1
 16 17  1  0
 17 10  1  0
 18 16  1  0
 18 19  2  0
 20 21  1  0
 21 31  2  0
 22 21  1  0
 22 23  2  0
 23 24  1  0
 24 30  2  0
 24 25  1  0
 26 25  1  6
 26 27  1  0
 27 18  1  0
 28 26  1  0
 29 28  2  0
 31 30  1  0
 32 28  1  0
M  END
$$$$
