FLY.pdb
     RDKit          3D

 32 33  0  0  1  0  0  0  0  0999 V2000
   28.7385  -20.5578   -8.4878 N   0  0  0  0  0  0  0  0  0  0  0  0
   27.3040  -20.7798   -8.4025 C   0  0  1  0  0  0  0  0  0  0  0  0
   26.7070  -19.9837   -7.2619 C   0  0  0  0  0  0  0  0  0  0  0  0
   27.7656  -19.9447   -6.1914 C   0  0  0  0  0  0  0  0  0  0  0  0
   27.9588  -21.0493   -5.3812 C   0  0  0  0  0  0  0  0  0  0  0  0
   28.9169  -21.0542   -4.3929 C   0  0  0  0  0  0  0  0  0  0  0  0
   29.7121  -19.9473   -4.1876 C   0  0  0  0  0  0  0  0  0  0  0  0
   29.5044  -18.8492   -5.0092 C   0  0  0  0  0  0  0  0  0  0  0  0
   28.5381  -18.8424   -6.0069 C   0  0  0  0  0  0  0  0  0  0  0  0
   26.7063  -20.3463   -9.7105 C   0  0  0  0  0  0  0  0  0  0  0  0
   26.6689  -19.1184  -10.0401 O   0  0  0  0  0  0  0  0  0  0  0  0
   27.7648  -19.2683  -13.7133 C   0  0  0  0  0  0  0  0  0  0  0  0
   27.7796  -20.6972  -13.2989 C   0  0  2  0  0  0  0  0  0  0  0  0
   28.4471  -21.5025  -14.4436 C   0  0  0  0  0  0  0  0  0  0  0  0
   26.5347  -21.3780  -12.9551 C   0  0  0  0  0  0  0  0  0  0  0  0
   25.6153  -20.9002  -11.9005 C   0  0  2  0  0  0  0  0  0  0  0  0
   26.1809  -21.3346  -10.5777 N   0  0  0  0  0  0  0  0  0  0  0  0
   24.2758  -21.5055  -11.9881 C   0  0  0  0  0  0  0  0  0  0  0  0
   24.0799  -22.7168  -11.7544 O   0  0  0  0  0  0  0  0  0  0  0  0
   15.5286  -22.6162  -12.0676 O   0  0  0  0  0  0  0  0  0  0  0  0
   16.8176  -22.1208  -11.9498 C   0  0  0  0  0  0  0  0  0  0  0  0
   17.5953  -22.4677  -10.8541 C   0  0  0  0  0  0  0  0  0  0  0  0
   18.8723  -21.9809  -10.7309 C   0  0  0  0  0  0  0  0  0  0  0  0
   19.4470  -21.1397  -11.6625 C   0  0  0  0  0  0  0  0  0  0  0  0
   20.8122  -20.6005  -11.5218 C   0  0  0  0  0  0  0  0  0  0  0  0
   21.7723  -21.3376  -12.3849 C   0  0  2  0  0  0  0  0  0  0  0  0
   23.1075  -20.7655  -12.3425 N   0  0  0  0  0  0  0  0  0  0  0  0
   21.3918  -21.5134  -13.7843 C   0  0  0  0  0  0  0  0  0  0  0  0
   21.7266  -20.6725  -14.6549 O   0  0  0  0  0  0  0  0  0  0  0  0
   18.6538  -20.8065  -12.7477 C   0  0  0  0  0  0  0  0  0  0  0  0
   17.3703  -21.2871  -12.8850 C   0  0  0  0  0  0  0  0  0  0  0  0
   20.6617  -22.5988  -14.1871 O   0  0  0  0  0  0  0  0  0  0  0  0
  2  3  1  0
  2  1  1  6
  4  5  2  0
  4  3  1  0
  6  5  1  0
  7  6  2  0
  8  7  1  0
  8  9  2  0
  9  4  1  0
 10  2  1  0
 11 10  2  0
 13 12  1  6
 14 13  1  0
 15 13  1  0
 16 15  1  6
 16 17  1  0
 17 10  1  0
 18 16  1  0
 18 19  2  0
 20 21  1  0
 21 31  2  0
 22 21  1  0
 22 23  2  0
 23 24  1  0
 24 30  2  0
 24 25  1  0
 26 25  1  6
 26 27  1  0
 27 18  1  0
 28 26  1  0
 29 28  2  0
 31 30  1  0
 32 28  1  0
M  END
$$$$
