FLY.pdb
     RDKit          3D

 32 33  0  0  1  0  0  0  0  0999 V2000
   27.8347  -21.9005  -16.7351 N   0  0  0  0  0  0  0  0  0  0  0  0
   27.2324  -20.7567  -16.0693 C   0  0  1  0  0  0  0  0  0  0  0  0
   26.4086  -19.9434  -17.0444 C   0  0  0  0  0  0  0  0  0  0  0  0
   27.4014  -19.2248  -17.9196 C   0  0  0  0  0  0  0  0  0  0  0  0
   28.1121  -18.1534  -17.4090 C   0  0  0  0  0  0  0  0  0  0  0  0
   29.0297  -17.4715  -18.1759 C   0  0  0  0  0  0  0  0  0  0  0  0
   29.2619  -17.8457  -19.4819 C   0  0  0  0  0  0  0  0  0  0  0  0
   28.5403  -18.9219  -19.9769 C   0  0  0  0  0  0  0  0  0  0  0  0
   27.6141  -19.6111  -19.2047 C   0  0  0  0  0  0  0  0  0  0  0  0
   26.3616  -21.2889  -14.9673 C   0  0  0  0  0  0  0  0  0  0  0  0
   25.5456  -22.2416  -15.1777 O   0  0  0  0  0  0  0  0  0  0  0  0
   25.6196  -19.9440   -8.8791 C   0  0  0  0  0  0  0  0  0  0  0  0
   25.1550  -20.6426  -10.1079 C   0  0  2  0  0  0  0  0  0  0  0  0
   24.9958  -22.1436   -9.7528 C   0  0  0  0  0  0  0  0  0  0  0  0
   25.9356  -20.5661  -11.3392 C   0  0  0  0  0  0  0  0  0  0  0  0
   25.4636  -21.1062  -12.6319 C   0  0  2  0  0  0  0  0  0  0  0  0
   26.4645  -20.7083  -13.6800 N   0  0  0  0  0  0  0  0  0  0  0  0
   24.1771  -20.5317  -13.0598 C   0  0  0  0  0  0  0  0  0  0  0  0
   24.0533  -19.3208  -13.3405 O   0  0  0  0  0  0  0  0  0  0  0  0
   23.2965  -18.4134  -19.1488 O   0  0  0  0  0  0  0  0  0  0  0  0
   22.7508  -19.0752  -18.0602 C   0  0  0  0  0  0  0  0  0  0  0  0
   23.1197  -20.3854  -17.7901 C   0  0  0  0  0  0  0  0  0  0  0  0
   22.5833  -21.0468  -16.7141 C   0  0  0  0  0  0  0  0  0  0  0  0
   21.6693  -20.4668  -15.8574 C   0  0  0  0  0  0  0  0  0  0  0  0
   21.0776  -21.1826  -14.7120 C   0  0  0  0  0  0  0  0  0  0  0  0
   21.6712  -20.7252  -13.4281 C   0  0  2  0  0  0  0  0  0  0  0  0
   22.9825  -21.3029  -13.1869 N   0  0  0  0  0  0  0  0  0  0  0  0
   20.8586  -20.9125  -12.2286 C   0  0  0  0  0  0  0  0  0  0  0  0
   21.2760  -21.6054  -11.2678 O   0  0  0  0  0  0  0  0  0  0  0  0
   21.3152  -19.1593  -16.1451 C   0  0  0  0  0  0  0  0  0  0  0  0
   21.8450  -18.4825  -17.2214 C   0  0  0  0  0  0  0  0  0  0  0  0
   19.6214  -20.3380  -12.1163 O   0  0  0  0  0  0  0  0  0  0  0  0
  2  3  1  0
  2  1  1  6
  4  5  2  0
  4  3  1  0
  6  5  1  0
  7  6  2  0
  8  7  1  0
  8  9  2  0
  9  4  1  0
 10  2  1  0
 11 10  2  0
 13 12  1  1
 14 13  1  0
 15 13  1  0
 16 15  1  1
 16 17  1  0
 17 10  1  0
 18 16  1  0
 18 19  2  0
 20 21  1  0
 21 31  2  0
 22 21  1  0
 22 23  2  0
 23 24  1  0
 24 30  2  0
 24 25  1  0
 26 25  1  6
 26 27  1  0
 27 18  1  0
 28 26  1  0
 29 28  2  0
 31 30  1  0
 32 28  1  0
M  END
$$$$
