FLY.pdb
     RDKit          3D

 32 33  0  0  1  0  0  0  0  0999 V2000
   29.2630  -23.1044  -15.5851 N   0  0  0  0  0  0  0  0  0  0  0  0
   28.5842  -22.5903  -16.7638 C   0  0  1  0  0  0  0  0  0  0  0  0
   27.6264  -23.6214  -17.3212 C   0  0  0  0  0  0  0  0  0  0  0  0
   28.4835  -24.7735  -17.7752 C   0  0  0  0  0  0  0  0  0  0  0  0
   28.6909  -25.8463  -16.9268 C   0  0  0  0  0  0  0  0  0  0  0  0
   29.4661  -26.9192  -17.3047 C   0  0  0  0  0  0  0  0  0  0  0  0
   30.0581  -26.9474  -18.5492 C   0  0  0  0  0  0  0  0  0  0  0  0
   29.8391  -25.8633  -19.3863 C   0  0  0  0  0  0  0  0  0  0  0  0
   29.0573  -24.7799  -19.0067 C   0  0  0  0  0  0  0  0  0  0  0  0
   27.8372  -21.3560  -16.3463 C   0  0  0  0  0  0  0  0  0  0  0  0
   27.3051  -21.2690  -15.1943 O   0  0  0  0  0  0  0  0  0  0  0  0
   28.2776  -15.3971  -17.6482 C   0  0  0  0  0  0  0  0  0  0  0  0
   27.4037  -16.4988  -17.1622 C   0  0  2  0  0  0  0  0  0  0  0  0
   27.0370  -16.1810  -15.6895 C   0  0  0  0  0  0  0  0  0  0  0  0
   27.8677  -17.8823  -17.2074 C   0  0  0  0  0  0  0  0  0  0  0  0
   27.0209  -19.0330  -16.8271 C   0  0  2  0  0  0  0  0  0  0  0  0
   27.7340  -20.2819  -17.2632 N   0  0  0  0  0  0  0  0  0  0  0  0
   25.7214  -19.0443  -17.5196 C   0  0  0  0  0  0  0  0  0  0  0  0
   25.6340  -18.9927  -18.7645 O   0  0  0  0  0  0  0  0  0  0  0  0
   20.8626  -22.0536  -12.3749 O   0  0  0  0  0  0  0  0  0  0  0  0
   21.2559  -21.6569  -13.6433 C   0  0  0  0  0  0  0  0  0  0  0  0
   22.6031  -21.6363  -13.9756 C   0  0  0  0  0  0  0  0  0  0  0  0
   22.9998  -21.2446  -15.2295 C   0  0  0  0  0  0  0  0  0  0  0  0
   22.1092  -20.8575  -16.2107 C   0  0  0  0  0  0  0  0  0  0  0  0
   22.5352  -20.4179  -17.5522 C   0  0  0  0  0  0  0  0  0  0  0  0
   23.1815  -19.0802  -17.4989 C   0  0  2  0  0  0  0  0  0  0  0  0
   24.4722  -19.1146  -16.8321 N   0  0  0  0  0  0  0  0  0  0  0  0
   22.3932  -17.9958  -16.9187 C   0  0  0  0  0  0  0  0  0  0  0  0
   21.2590  -17.7070  -17.3740 O   0  0  0  0  0  0  0  0  0  0  0  0
   20.7703  -20.8855  -15.8579 C   0  0  0  0  0  0  0  0  0  0  0  0
   20.3569  -21.2763  -14.6035 C   0  0  0  0  0  0  0  0  0  0  0  0
   22.8663  -17.2650  -15.8624 O   0  0  0  0  0  0  0  0  0  0  0  0
  2  3  1  0
  2  1  1  1
  4  5  2  0
  4  3  1  0
  6  5  1  0
  7  6  2  0
  8  7  1  0
  8  9  2  0
  9  4  1  0
 10  2  1  0
 11 10  2  0
 13 12  1  1
 14 13  1  0
 15 13  1  0
 16 15  1  6
 16 17  1  0
 17 10  1  0
 18 16  1  0
 18 19  2  0
 20 21  1  0
 21 31  2  0
 22 21  1  0
 22 23  2  0
 23 24  1  0
 24 30  2  0
 24 25  1  0
 26 25  1  1
 26 27  1  0
 27 18  1  0
 28 26  1  0
 29 28  2  0
 31 30  1  0
 32 28  1  0
M  END
$$$$
