FLY.pdb
     RDKit          3D

 32 33  0  0  1  0  0  0  0  0999 V2000
   20.7257  -14.0433    8.7669 N   0  0  0  0  0  0  0  0  0  0  0  0
   20.1945  -15.3072    8.2822 C   0  0  1  0  0  0  0  0  0  0  0  0
   20.6512  -15.5697    6.8632 C   0  0  0  0  0  0  0  0  0  0  0  0
   20.0598  -14.4625    6.0310 C   0  0  0  0  0  0  0  0  0  0  0  0
   20.8095  -13.3298    5.7692 C   0  0  0  0  0  0  0  0  0  0  0  0
   20.3059  -12.2966    5.0116 C   0  0  0  0  0  0  0  0  0  0  0  0
   19.0311  -12.3698    4.4927 C   0  0  0  0  0  0  0  0  0  0  0  0
   18.2941  -13.5128    4.7655 C   0  0  0  0  0  0  0  0  0  0  0  0
   18.8005  -14.5562    5.5297 C   0  0  0  0  0  0  0  0  0  0  0  0
   20.6974  -16.3844    9.2001 C   0  0  0  0  0  0  0  0  0  0  0  0
   21.8866  -16.3604    9.6508 O   0  0  0  0  0  0  0  0  0  0  0  0
   20.7268  -17.8964   14.3899 C   0  0  0  0  0  0  0  0  0  0  0  0
   20.8127  -18.5559   13.0589 C   0  0  2  0  0  0  0  0  0  0  0  0
   22.2815  -19.0136   12.8650 C   0  0  0  0  0  0  0  0  0  0  0  0
   20.4174  -17.8354   11.8523 C   0  0  0  0  0  0  0  0  0  0  0  0
   20.3060  -18.4781   10.5256 C   0  0  2  0  0  0  0  0  0  0  0  0
   19.8193  -17.4358    9.5585 N   0  0  0  0  0  0  0  0  0  0  0  0
   19.3079  -19.5603   10.4929 C   0  0  0  0  0  0  0  0  0  0  0  0
   18.0810  -19.3312   10.5408 O   0  0  0  0  0  0  0  0  0  0  0  0
   20.0582  -22.8382    4.0717 O   0  0  0  0  0  0  0  0  0  0  0  0
   19.4873  -22.5598    5.3036 C   0  0  0  0  0  0  0  0  0  0  0  0
   19.7808  -23.3593    6.3993 C   0  0  0  0  0  0  0  0  0  0  0  0
   19.2192  -23.0897    7.6218 C   0  0  0  0  0  0  0  0  0  0  0  0
   18.3518  -22.0365    7.8325 C   0  0  0  0  0  0  0  0  0  0  0  0
   17.7326  -21.7571    9.1412 C   0  0  0  0  0  0  0  0  0  0  0  0
   18.6870  -22.0117   10.2522 C   0  0  2  0  0  0  0  0  0  0  0  0
   19.6581  -20.9415   10.4046 N   0  0  0  0  0  0  0  0  0  0  0  0
   19.4056  -23.2831   10.2185 C   0  0  0  0  0  0  0  0  0  0  0  0
   20.6607  -23.3162   10.2461 O   0  0  0  0  0  0  0  0  0  0  0  0
   18.0728  -21.2518    6.7261 C   0  0  0  0  0  0  0  0  0  0  0  0
   18.6288  -21.5099    5.4927 C   0  0  0  0  0  0  0  0  0  0  0  0
   18.7330  -24.4736   10.1576 O   0  0  0  0  0  0  0  0  0  0  0  0
  2  3  1  0
  2  1  1  1
  4  5  2  0
  4  3  1  0
  6  5  1  0
  7  6  2  0
  8  7  1  0
  8  9  2  0
  9  4  1  0
 10  2  1  0
 11 10  2  0
 13 12  1  1
 14 13  1  0
 15 13  1  0
 16 15  1  1
 16 17  1  0
 17 10  1  0
 18 16  1  0
 18 19  2  0
 20 21  1  0
 21 31  2  0
 22 21  1  0
 22 23  2  0
 23 24  1  0
 24 30  2  0
 24 25  1  0
 26 25  1  6
 26 27  1  0
 27 18  1  0
 28 26  1  0
 29 28  2  0
 31 30  1  0
 32 28  1  0
M  END
$$$$
