FLY.pdb
     RDKit          3D

 32 33  0  0  1  0  0  0  0  0999 V2000
   25.8524  -18.3747  -17.4819 N   0  0  0  0  0  0  0  0  0  0  0  0
   25.1948  -17.9146  -16.2694 C   0  0  1  0  0  0  0  0  0  0  0  0
   23.9331  -17.1481  -16.6036 C   0  0  0  0  0  0  0  0  0  0  0  0
   24.3920  -15.8494  -17.2126 C   0  0  0  0  0  0  0  0  0  0  0  0
   24.8712  -14.8426  -16.3936 C   0  0  0  0  0  0  0  0  0  0  0  0
   25.3017  -13.6420  -16.9113 C   0  0  0  0  0  0  0  0  0  0  0  0
   25.2640  -13.4153  -18.2703 C   0  0  0  0  0  0  0  0  0  0  0  0
   24.7806  -14.4358  -19.0759 C   0  0  0  0  0  0  0  0  0  0  0  0
   24.3457  -15.6478  -18.5554 C   0  0  0  0  0  0  0  0  0  0  0  0
   24.8655  -19.1303  -15.4510 C   0  0  0  0  0  0  0  0  0  0  0  0
   24.6203  -20.2483  -16.0058 O   0  0  0  0  0  0  0  0  0  0  0  0
   25.1395  -20.5319   -9.3569 C   0  0  0  0  0  0  0  0  0  0  0  0
   24.8066  -20.9276  -10.7520 C   0  0  2  0  0  0  0  0  0  0  0  0
   25.6200  -22.2077  -11.0748 C   0  0  0  0  0  0  0  0  0  0  0  0
   25.0122  -19.9910  -11.8528 C   0  0  0  0  0  0  0  0  0  0  0  0
   24.5171  -20.2330  -13.2248 C   0  0  2  0  0  0  0  0  0  0  0  0
   24.8323  -19.0108  -14.0405 N   0  0  0  0  0  0  0  0  0  0  0  0
   23.0552  -20.3977  -13.2878 C   0  0  0  0  0  0  0  0  0  0  0  0
   22.2724  -19.5576  -12.7960 O   0  0  0  0  0  0  0  0  0  0  0  0
   14.9405  -23.3114  -15.2346 O   0  0  0  0  0  0  0  0  0  0  0  0
   16.3016  -23.0503  -15.2336 C   0  0  0  0  0  0  0  0  0  0  0  0
   16.7701  -21.8155  -15.6598 C   0  0  0  0  0  0  0  0  0  0  0  0
   18.1163  -21.5501  -15.6617 C   0  0  0  0  0  0  0  0  0  0  0  0
   19.0620  -22.4684  -15.2515 C   0  0  0  0  0  0  0  0  0  0  0  0
   20.5102  -22.1913  -15.2711 C   0  0  0  0  0  0  0  0  0  0  0  0
   20.9831  -21.7115  -13.9459 C   0  0  2  0  0  0  0  0  0  0  0  0
   22.4227  -21.5168  -13.9087 N   0  0  0  0  0  0  0  0  0  0  0  0
   20.5971  -22.5103  -12.7854 C   0  0  0  0  0  0  0  0  0  0  0  0
   19.5965  -22.2007  -12.0925 O   0  0  0  0  0  0  0  0  0  0  0  0
   18.5729  -23.6936  -14.8303 C   0  0  0  0  0  0  0  0  0  0  0  0
   17.2246  -23.9747  -14.8228 C   0  0  0  0  0  0  0  0  0  0  0  0
   21.3127  -23.6186  -12.4208 O   0  0  0  0  0  0  0  0  0  0  0  0
  2  3  1  0
  2  1  1  6
  4  5  2  0
  4  3  1  0
  6  5  1  0
  7  6  2  0
  8  7  1  0
  8  9  2  0
  9  4  1  0
 10  2  1  0
 11 10  2  0
 13 12  1  1
 14 13  1  0
 15 13  1  0
 16 15  1  1
 16 17  1  0
 17 10  1  0
 18 16  1  0
 18 19  2  0
 20 21  1  0
 21 31  2  0
 22 21  1  0
 22 23  2  0
 23 24  1  0
 24 30  2  0
 24 25  1  0
 26 25  1  6
 26 27  1  0
 27 18  1  0
 28 26  1  0
 29 28  2  0
 31 30  1  0
 32 28  1  0
M  END
$$$$
