FLY.pdb
     RDKit          3D

 32 33  0  0  1  0  0  0  0  0999 V2000
   27.2103  -20.6605  -16.5067 N   0  0  0  0  0  0  0  0  0  0  0  0
   26.8189  -19.7384  -15.4527 C   0  0  1  0  0  0  0  0  0  0  0  0
   26.2621  -18.4597  -16.0409 C   0  0  0  0  0  0  0  0  0  0  0  0
   27.4283  -17.7688  -16.6971 C   0  0  0  0  0  0  0  0  0  0  0  0
   27.3521  -17.4211  -18.0339 C   0  0  0  0  0  0  0  0  0  0  0  0
   28.3955  -16.7871  -18.6699 C   0  0  0  0  0  0  0  0  0  0  0  0
   29.5497  -16.4824  -17.9810 C   0  0  0  0  0  0  0  0  0  0  0  0
   29.6083  -16.8384  -16.6417 C   0  0  0  0  0  0  0  0  0  0  0  0
   28.5567  -17.4782  -15.9984 C   0  0  0  0  0  0  0  0  0  0  0  0
   25.7756  -20.4278  -14.6207 C   0  0  0  0  0  0  0  0  0  0  0  0
   25.0621  -21.3628  -15.1052 O   0  0  0  0  0  0  0  0  0  0  0  0
   26.5143  -22.4657  -10.3988 C   0  0  0  0  0  0  0  0  0  0  0  0
   26.2107  -21.0094  -10.4270 C   0  0  2  0  0  0  0  0  0  0  0  0
   26.2597  -20.4997   -8.9633 C   0  0  0  0  0  0  0  0  0  0  0  0
   24.9645  -20.5274  -11.0152 C   0  0  0  0  0  0  0  0  0  0  0  0
   24.5972  -20.7512  -12.4297 C   0  0  2  0  0  0  0  0  0  0  0  0
   25.5976  -20.0169  -13.2774 N   0  0  0  0  0  0  0  0  0  0  0  0
   23.2807  -20.1907  -12.7775 C   0  0  0  0  0  0  0  0  0  0  0  0
   23.0575  -18.9618  -12.7557 O   0  0  0  0  0  0  0  0  0  0  0  0
   18.1618  -21.2612  -19.3688 O   0  0  0  0  0  0  0  0  0  0  0  0
   18.8838  -20.8311  -18.2667 C   0  0  0  0  0  0  0  0  0  0  0  0
   20.1343  -21.3726  -18.0038 C   0  0  0  0  0  0  0  0  0  0  0  0
   20.8546  -20.9517  -16.9144 C   0  0  0  0  0  0  0  0  0  0  0  0
   20.3938  -19.9908  -16.0368 C   0  0  0  0  0  0  0  0  0  0  0  0
   21.1585  -19.5515  -14.8550 C   0  0  0  0  0  0  0  0  0  0  0  0
   20.9289  -20.4580  -13.6994 C   0  0  2  0  0  0  0  0  0  0  0  0
   22.1674  -20.9967  -13.1632 N   0  0  0  0  0  0  0  0  0  0  0  0
   19.9998  -21.5652  -13.9114 C   0  0  0  0  0  0  0  0  0  0  0  0
   20.4204  -22.7252  -14.1450 O   0  0  0  0  0  0  0  0  0  0  0  0
   19.1443  -19.4640  -16.3177 C   0  0  0  0  0  0  0  0  0  0  0  0
   18.4095  -19.8764  -17.4073 C   0  0  0  0  0  0  0  0  0  0  0  0
   18.6458  -21.3712  -13.8601 O   0  0  0  0  0  0  0  0  0  0  0  0
  2  3  1  0
  2  1  1  6
  4  5  2  0
  4  3  1  0
  6  5  1  0
  7  6  2  0
  8  7  1  0
  8  9  2  0
  9  4  1  0
 10  2  1  0
 11 10  2  0
 13 12  1  1
 14 13  1  0
 15 13  1  0
 16 15  1  1
 16 17  1  0
 17 10  1  0
 18 16  1  0
 18 19  2  0
 20 21  1  0
 21 31  2  0
 22 21  1  0
 22 23  2  0
 23 24  1  0
 24 30  2  0
 24 25  1  0
 26 25  1  6
 26 27  1  0
 27 18  1  0
 28 26  1  0
 29 28  2  0
 31 30  1  0
 32 28  1  0
M  END
$$$$
