FLY.pdb
     RDKit          3D

 32 33  0  0  1  0  0  0  0  0999 V2000
   27.7832  -21.6940  -16.6135 N   0  0  0  0  0  0  0  0  0  0  0  0
   27.0974  -20.7961  -15.6981 C   0  0  1  0  0  0  0  0  0  0  0  0
   25.7518  -20.3875  -16.2582 C   0  0  0  0  0  0  0  0  0  0  0  0
   26.0504  -19.4494  -17.3979 C   0  0  0  0  0  0  0  0  0  0  0  0
   27.3645  -19.1532  -17.7125 C   0  0  0  0  0  0  0  0  0  0  0  0
   27.6791  -18.3022  -18.7477 C   0  0  0  0  0  0  0  0  0  0  0  0
   26.6811  -17.7214  -19.5003 C   0  0  0  0  0  0  0  0  0  0  0  0
   25.3696  -18.0298  -19.1706 C   0  0  0  0  0  0  0  0  0  0  0  0
   25.0502  -18.8882  -18.1265 C   0  0  0  0  0  0  0  0  0  0  0  0
   26.9210  -21.5309  -14.4000 C   0  0  0  0  0  0  0  0  0  0  0  0
   26.6473  -22.7728  -14.3807 O   0  0  0  0  0  0  0  0  0  0  0  0
   30.0331  -22.2910  -11.2877 C   0  0  0  0  0  0  0  0  0  0  0  0
   29.3079  -21.0001  -11.1407 C   0  0  2  0  0  0  0  0  0  0  0  0
   29.9585  -20.2378   -9.9576 C   0  0  0  0  0  0  0  0  0  0  0  0
   27.8637  -20.9862  -10.9272 C   0  0  0  0  0  0  0  0  0  0  0  0
   26.8973  -21.5535  -11.8915 C   0  0  2  0  0  0  0  0  0  0  0  0
   27.0657  -20.8128  -13.1883 N   0  0  0  0  0  0  0  0  0  0  0  0
   25.4958  -21.3516  -11.4873 C   0  0  0  0  0  0  0  0  0  0  0  0
   25.0371  -21.8279  -10.4276 O   0  0  0  0  0  0  0  0  0  0  0  0
   20.3846  -19.0522  -17.4240 O   0  0  0  0  0  0  0  0  0  0  0  0
   20.9355  -19.0407  -16.1523 C   0  0  0  0  0  0  0  0  0  0  0  0
   22.3106  -18.9423  -15.9942 C   0  0  0  0  0  0  0  0  0  0  0  0
   22.8629  -18.9304  -14.7381 C   0  0  0  0  0  0  0  0  0  0  0  0
   22.1069  -19.0132  -13.5860 C   0  0  0  0  0  0  0  0  0  0  0  0
   22.7004  -19.0200  -12.2362 C   0  0  0  0  0  0  0  0  0  0  0  0
   23.1807  -20.3777  -11.8675 C   0  0  2  0  0  0  0  0  0  0  0  0
   24.5601  -20.6041  -12.2644 N   0  0  0  0  0  0  0  0  0  0  0  0
   22.3772  -21.5047  -12.3345 C   0  0  0  0  0  0  0  0  0  0  0  0
   21.1940  -21.6602  -11.9431 O   0  0  0  0  0  0  0  0  0  0  0  0
   20.7373  -19.1106  -13.7666 C   0  0  0  0  0  0  0  0  0  0  0  0
   20.1684  -19.1238  -15.0209 C   0  0  0  0  0  0  0  0  0  0  0  0
   22.8889  -22.4218  -13.2123 O   0  0  0  0  0  0  0  0  0  0  0  0
  2  3  1  0
  2  1  1  6
  4  5  2  0
  4  3  1  0
  6  5  1  0
  7  6  2  0
  8  7  1  0
  8  9  2  0
  9  4  1  0
 10  2  1  0
 11 10  2  0
 13 12  1  1
 14 13  1  0
 15 13  1  0
 16 15  1  1
 16 17  1  0
 17 10  1  0
 18 16  1  0
 18 19  2  0
 20 21  1  0
 21 31  2  0
 22 21  1  0
 22 23  2  0
 23 24  1  0
 24 30  2  0
 24 25  1  0
 26 25  1  6
 26 27  1  0
 27 18  1  0
 28 26  1  0
 29 28  2  0
 31 30  1  0
 32 28  1  0
M  END
$$$$
