FLY.pdb
     RDKit          3D

 32 33  0  0  1  0  0  0  0  0999 V2000
   21.9297  -18.4736  -16.1052 N   0  0  0  0  0  0  0  0  0  0  0  0
   23.2108  -18.9963  -16.5523 C   0  0  1  0  0  0  0  0  0  0  0  0
   24.2028  -17.8724  -16.7619 C   0  0  0  0  0  0  0  0  0  0  0  0
   23.6967  -17.0953  -17.9485 C   0  0  0  0  0  0  0  0  0  0  0  0
   23.0843  -15.8705  -17.7521 C   0  0  0  0  0  0  0  0  0  0  0  0
   22.6099  -15.1287  -18.8102 C   0  0  0  0  0  0  0  0  0  0  0  0
   22.7363  -15.5957  -20.1009 C   0  0  0  0  0  0  0  0  0  0  0  0
   23.3527  -16.8254  -20.2787 C   0  0  0  0  0  0  0  0  0  0  0  0
   23.8320  -17.5752  -19.2123 C   0  0  0  0  0  0  0  0  0  0  0  0
   23.7045  -19.9369  -15.4905 C   0  0  0  0  0  0  0  0  0  0  0  0
   24.8136  -20.5465  -15.6177 O   0  0  0  0  0  0  0  0  0  0  0  0
   23.0597  -20.5481   -9.4262 C   0  0  0  0  0  0  0  0  0  0  0  0
   23.4703  -21.1657  -10.7161 C   0  0  2  0  0  0  0  0  0  0  0  0
   24.9932  -21.4446  -10.6297 C   0  0  0  0  0  0  0  0  0  0  0  0
   23.2248  -20.4717  -11.9768 C   0  0  0  0  0  0  0  0  0  0  0  0
   23.3828  -21.1145  -13.2988 C   0  0  2  0  0  0  0  0  0  0  0  0
   22.9090  -20.1357  -14.3361 N   0  0  0  0  0  0  0  0  0  0  0  0
   22.5440  -22.3141  -13.4588 C   0  0  0  0  0  0  0  0  0  0  0  0
   22.8599  -23.4144  -12.9590 O   0  0  0  0  0  0  0  0  0  0  0  0
   14.7984  -23.2352  -10.0232 O   0  0  0  0  0  0  0  0  0  0  0  0
   16.0186  -22.8910  -10.5831 C   0  0  0  0  0  0  0  0  0  0  0  0
   16.0692  -21.9727  -11.6223 C   0  0  0  0  0  0  0  0  0  0  0  0
   17.2737  -21.6273  -12.1815 C   0  0  0  0  0  0  0  0  0  0  0  0
   18.4762  -22.1563  -11.7575 C   0  0  0  0  0  0  0  0  0  0  0  0
   19.7694  -21.8005  -12.3703 C   0  0  0  0  0  0  0  0  0  0  0  0
   20.0243  -22.6070  -13.5928 C   0  0  2  0  0  0  0  0  0  0  0  0
   21.3172  -22.3160  -14.1889 N   0  0  0  0  0  0  0  0  0  0  0  0
   19.0096  -22.5429  -14.6418 C   0  0  0  0  0  0  0  0  0  0  0  0
   18.2645  -23.5253  -14.8801 O   0  0  0  0  0  0  0  0  0  0  0  0
   18.4029  -23.0703  -10.7197 C   0  0  0  0  0  0  0  0  0  0  0  0
   17.2014  -23.4269  -10.1484 C   0  0  0  0  0  0  0  0  0  0  0  0
   18.8406  -21.4114  -15.3933 O   0  0  0  0  0  0  0  0  0  0  0  0
  2  3  1  0
  2  1  1  1
  4  5  2  0
  4  3  1  0
  6  5  1  0
  7  6  2  0
  8  7  1  0
  8  9  2  0
  9  4  1  0
 10  2  1  0
 11 10  2  0
 13 12  1  1
 14 13  1  0
 15 13  1  0
 16 15  1  1
 16 17  1  0
 17 10  1  0
 18 16  1  0
 18 19  2  0
 20 21  1  0
 21 31  2  0
 22 21  1  0
 22 23  2  0
 23 24  1  0
 24 30  2  0
 24 25  1  0
 26 25  1  1
 26 27  1  0
 27 18  1  0
 28 26  1  0
 29 28  2  0
 31 30  1  0
 32 28  1  0
M  END
$$$$
