FLY.pdb
     RDKit          3D

 32 33  0  0  1  0  0  0  0  0999 V2000
   14.5229  -12.6890    6.2155 N   0  0  0  0  0  0  0  0  0  0  0  0
   15.9481  -12.8136    5.9554 C   0  0  1  0  0  0  0  0  0  0  0  0
   16.7524  -12.3214    7.1394 C   0  0  0  0  0  0  0  0  0  0  0  0
   18.1897  -12.3286    6.6897 C   0  0  0  0  0  0  0  0  0  0  0  0
   19.0393  -13.3260    7.1338 C   0  0  0  0  0  0  0  0  0  0  0  0
   20.3589  -13.3689    6.7446 C   0  0  0  0  0  0  0  0  0  0  0  0
   20.8668  -12.4092    5.8956 C   0  0  0  0  0  0  0  0  0  0  0  0
   20.0005  -11.4170    5.4606 C   0  0  0  0  0  0  0  0  0  0  0  0
   18.6687  -11.3720    5.8522 C   0  0  0  0  0  0  0  0  0  0  0  0
   16.2303  -14.2666    5.7006 C   0  0  0  0  0  0  0  0  0  0  0  0
   15.8314  -15.1643    6.5086 O   0  0  0  0  0  0  0  0  0  0  0  0
   18.4805  -17.4976    0.8296 C   0  0  0  0  0  0  0  0  0  0  0  0
   17.8682  -17.4751    2.1855 C   0  0  2  0  0  0  0  0  0  0  0  0
   16.5728  -18.3248    2.1207 C   0  0  0  0  0  0  0  0  0  0  0  0
   17.5257  -16.2050    2.8186 C   0  0  0  0  0  0  0  0  0  0  0  0
   17.1735  -16.0826    4.2493 C   0  0  2  0  0  0  0  0  0  0  0  0
   16.9533  -14.6240    4.5368 N   0  0  0  0  0  0  0  0  0  0  0  0
   18.2575  -16.5146    5.1473 C   0  0  0  0  0  0  0  0  0  0  0  0
   19.2923  -15.8344    5.3112 O   0  0  0  0  0  0  0  0  0  0  0  0
   23.7700  -18.7801   11.2836 O   0  0  0  0  0  0  0  0  0  0  0  0
   22.7691  -18.3543   10.4247 C   0  0  0  0  0  0  0  0  0  0  0  0
   22.6757  -18.8930    9.1492 C   0  0  0  0  0  0  0  0  0  0  0  0
   21.6874  -18.4761    8.2935 C   0  0  0  0  0  0  0  0  0  0  0  0
   20.7510  -17.5220    8.6377 C   0  0  0  0  0  0  0  0  0  0  0  0
   19.7003  -17.0591    7.7125 C   0  0  0  0  0  0  0  0  0  0  0  0
   19.2604  -18.1541    6.8083 C   0  0  2  0  0  0  0  0  0  0  0  0
   18.2135  -17.7306    5.8939 N   0  0  0  0  0  0  0  0  0  0  0  0
   18.8381  -19.3987    7.4460 C   0  0  0  0  0  0  0  0  0  0  0  0
   17.6854  -19.8609    7.2594 O   0  0  0  0  0  0  0  0  0  0  0  0
   20.8625  -16.9978    9.9147 C   0  0  0  0  0  0  0  0  0  0  0  0
   21.8490  -17.4062   10.7848 C   0  0  0  0  0  0  0  0  0  0  0  0
   19.6855  -20.0971    8.2629 O   0  0  0  0  0  0  0  0  0  0  0  0
  2  3  1  0
  2  1  1  1
  4  5  2  0
  4  3  1  0
  6  5  1  0
  7  6  2  0
  8  7  1  0
  8  9  2  0
  9  4  1  0
 10  2  1  0
 11 10  2  0
 13 12  1  6
 14 13  1  0
 15 13  1  0
 16 15  1  6
 16 17  1  0
 17 10  1  0
 18 16  1  0
 18 19  2  0
 20 21  1  0
 21 31  2  0
 22 21  1  0
 22 23  2  0
 23 24  1  0
 24 30  2  0
 24 25  1  0
 26 25  1  1
 26 27  1  0
 27 18  1  0
 28 26  1  0
 29 28  2  0
 31 30  1  0
 32 28  1  0
M  END
$$$$
