DTH.pdb
     RDKit          3D

 26 26  0  0  1  0  0  0  0  0999 V2000
   10.3362  -17.5923   14.8276 N   0  0  0  0  0  0  0  0  0  0  0  0
    9.0431  -17.0427   15.1382 C   0  0  1  0  0  0  0  0  0  0  0  0
    8.0383  -17.6672   14.1788 C   0  0  0  0  0  0  0  0  0  0  0  0
    8.5816  -17.5881   12.7992 C   0  0  0  0  0  0  0  0  0  0  0  0
    8.8644  -18.6065   12.1217 O   0  0  0  0  0  0  0  0  0  0  0  0
    8.6636  -17.3711   16.5302 C   0  0  0  0  0  0  0  0  0  0  0  0
    7.5477  -16.9959   16.9740 O   0  0  0  0  0  0  0  0  0  0  0  0
    8.7985  -16.3550   12.2024 O   0  0  0  0  0  0  0  0  0  0  0  0
    9.1380  -20.8673   18.3611 C   0  0  0  0  0  0  0  0  0  0  0  0
    9.7559  -19.7523   19.1647 C   0  0  1  0  0  0  0  0  0  0  0  0
   11.1424  -19.7084   18.9940 O   0  0  0  0  0  0  0  0  0  0  0  0
    9.1308  -18.4163   18.7413 C   0  0  2  0  0  0  0  0  0  0  0  0
    9.5285  -18.1005   17.3796 N   0  0  0  0  0  0  0  0  0  0  0  0
    9.6227  -17.3918   19.6952 C   0  0  0  0  0  0  0  0  0  0  0  0
   10.6749  -16.7792   19.4321 O   0  0  0  0  0  0  0  0  0  0  0  0
    8.9524  -17.0689   20.9030 N   0  0  0  0  0  0  0  0  0  0  0  0
    9.4389  -16.0720   21.8362 C   0  0  1  0  0  0  0  0  0  0  0  0
    8.4389  -14.9571   22.0405 C   0  0  0  0  0  0  0  0  0  0  0  0
    8.4047  -14.0355   20.8661 C   0  0  0  0  0  0  0  0  0  0  0  0
    9.2474  -14.2070   19.7849 C   0  0  0  0  0  0  0  0  0  0  0  0
    8.9703  -13.2231   18.9051 N   0  0  0  0  0  0  0  0  0  0  0  0
    7.9866  -12.4621   19.4202 C   0  0  0  0  0  0  0  0  0  0  0  0
    7.6464  -12.9709   20.6266 N   0  0  0  0  0  0  0  0  0  0  0  0
    9.7329  -16.7415   23.1294 C   0  0  0  0  0  0  0  0  0  0  0  0
    9.4603  -18.0952   23.3164 O   0  0  0  0  0  0  0  0  0  0  0  0
   10.2356  -16.1321   24.1089 O   0  0  0  0  0  0  0  0  0  0  0  0
  2  3  1  0
  2  1  1  6
  3  4  1  0
  4  8  1  0
  4  5  2  0
  6  2  1  0
  6  7  2  0
 10  9  1  6
 10 12  1  0
 11 10  1  0
 12 13  1  6
 12 14  1  0
 13  6  1  0
 14 16  1  0
 15 14  2  0
 16 17  1  0
 17 24  1  0
 17 18  1  1
 19 18  1  0
 20 19  2  0
 21 22  1  0
 21 20  1  0
 22 23  2  0
 23 19  1  0
 24 26  2  0
 24 25  1  0
M  END
$$$$
