DTH.pdb
     RDKit          3D

 26 26  0  0  1  0  0  0  0  0999 V2000
    8.6080  -14.8986   13.8864 N   0  0  0  0  0  0  0  0  0  0  0  0
    8.1251  -15.5088   15.0968 C   0  0  1  0  0  0  0  0  0  0  0  0
    8.2761  -17.0165   14.9408 C   0  0  0  0  0  0  0  0  0  0  0  0
    9.2242  -17.2898   13.8312 C   0  0  0  0  0  0  0  0  0  0  0  0
    9.8113  -16.3773   13.1998 O   0  0  0  0  0  0  0  0  0  0  0  0
    8.9206  -15.0525   16.2579 C   0  0  0  0  0  0  0  0  0  0  0  0
   10.0650  -14.5635   16.0724 O   0  0  0  0  0  0  0  0  0  0  0  0
    9.4965  -18.5952   13.4493 O   0  0  0  0  0  0  0  0  0  0  0  0
    7.5352  -12.8304   19.1148 C   0  0  0  0  0  0  0  0  0  0  0  0
    8.2410  -14.0109   19.7306 C   0  0  1  0  0  0  0  0  0  0  0  0
    7.3309  -14.9720   20.1793 O   0  0  0  0  0  0  0  0  0  0  0  0
    9.1918  -14.6283   18.6964 C   0  0  2  0  0  0  0  0  0  0  0  0
    8.4245  -15.1526   17.5790 N   0  0  0  0  0  0  0  0  0  0  0  0
    9.9361  -15.7084   19.3898 C   0  0  0  0  0  0  0  0  0  0  0  0
    9.8847  -16.8657   18.9320 O   0  0  0  0  0  0  0  0  0  0  0  0
   10.7110  -15.4920   20.5582 N   0  0  0  0  0  0  0  0  0  0  0  0
   11.6285  -16.4784   21.0935 C   0  0  1  0  0  0  0  0  0  0  0  0
   12.6177  -16.9501   20.0525 C   0  0  0  0  0  0  0  0  0  0  0  0
   12.2838  -18.3224   19.5676 C   0  0  0  0  0  0  0  0  0  0  0  0
   11.1789  -19.0077   20.0348 C   0  0  0  0  0  0  0  0  0  0  0  0
   11.1582  -20.2021   19.4088 N   0  0  0  0  0  0  0  0  0  0  0  0
   12.2158  -20.2606   18.5779 C   0  0  0  0  0  0  0  0  0  0  0  0
   12.9012  -19.0991   18.6837 N   0  0  0  0  0  0  0  0  0  0  0  0
   12.3450  -15.8772   22.2478 C   0  0  0  0  0  0  0  0  0  0  0  0
   12.7422  -16.6567   23.3324 O   0  0  0  0  0  0  0  0  0  0  0  0
   12.6270  -14.6522   22.3067 O   0  0  0  0  0  0  0  0  0  0  0  0
  2  3  1  0
  2  1  1  6
  3  4  1  0
  4  8  1  0
  4  5  2  0
  6  2  1  0
  6  7  2  0
 10  9  1  6
 10 12  1  0
 11 10  1  0
 12 13  1  6
 12 14  1  0
 13  6  1  0
 14 16  1  0
 15 14  2  0
 16 17  1  0
 17 24  1  0
 17 18  1  6
 19 18  1  0
 20 19  2  0
 21 22  1  0
 21 20  1  0
 22 23  2  0
 23 19  1  0
 24 26  2  0
 24 25  1  0
M  END
$$$$
