DTH.pdb
     RDKit          3D

 26 26  0  0  1  0  0  0  0  0999 V2000
   11.3680  -18.7612   14.5612 N   0  0  0  0  0  0  0  0  0  0  0  0
   11.6331  -17.3744   14.2836 C   0  0  1  0  0  0  0  0  0  0  0  0
   10.6497  -16.9266   13.2100 C   0  0  0  0  0  0  0  0  0  0  0  0
   11.1098  -17.4415   11.8954 C   0  0  0  0  0  0  0  0  0  0  0  0
   11.8215  -18.4692   11.7804 O   0  0  0  0  0  0  0  0  0  0  0  0
   11.4369  -16.5575   15.5017 C   0  0  0  0  0  0  0  0  0  0  0  0
   11.6650  -15.3208   15.4628 O   0  0  0  0  0  0  0  0  0  0  0  0
   10.7578  -16.7853   10.7252 O   0  0  0  0  0  0  0  0  0  0  0  0
    8.3548  -16.5880   17.8541 C   0  0  0  0  0  0  0  0  0  0  0  0
    9.5932  -16.7983   18.6865 C   0  0  1  0  0  0  0  0  0  0  0  0
    9.7495  -18.1419   19.0379 O   0  0  0  0  0  0  0  0  0  0  0  0
   10.8194  -16.3133   17.9014 C   0  0  2  0  0  0  0  0  0  0  0  0
   10.9968  -17.1350   16.7159 N   0  0  0  0  0  0  0  0  0  0  0  0
   11.9845  -16.4279   18.8129 C   0  0  0  0  0  0  0  0  0  0  0  0
   12.7133  -17.4352   18.7357 O   0  0  0  0  0  0  0  0  0  0  0  0
   12.3167  -15.4422   19.7775 N   0  0  0  0  0  0  0  0  0  0  0  0
   13.4084  -15.5924   20.7192 C   0  0  1  0  0  0  0  0  0  0  0  0
   14.1602  -14.2966   20.9203 C   0  0  0  0  0  0  0  0  0  0  0  0
   15.0403  -13.9917   19.7532 C   0  0  0  0  0  0  0  0  0  0  0  0
   15.2054  -14.8888   18.7156 C   0  0  0  0  0  0  0  0  0  0  0  0
   16.0503  -14.3216   17.8306 N   0  0  0  0  0  0  0  0  0  0  0  0
   16.4012  -13.1098   18.3003 C   0  0  0  0  0  0  0  0  0  0  0  0
   15.7741  -12.9173   19.4834 N   0  0  0  0  0  0  0  0  0  0  0  0
   12.8530  -16.0700   22.0117 C   0  0  0  0  0  0  0  0  0  0  0  0
   13.6892  -16.5260   23.0288 O   0  0  0  0  0  0  0  0  0  0  0  0
   11.6181  -16.0879   22.2531 O   0  0  0  0  0  0  0  0  0  0  0  0
  2  3  1  0
  2  1  1  1
  3  4  1  0
  4  8  1  0
  4  5  2  0
  6  2  1  0
  6  7  2  0
 10  9  1  6
 10 12  1  0
 11 10  1  0
 12 13  1  6
 12 14  1  0
 13  6  1  0
 14 16  1  0
 15 14  2  0
 16 17  1  0
 17 24  1  0
 17 18  1  1
 19 18  1  0
 20 19  2  0
 21 22  1  0
 21 20  1  0
 22 23  2  0
 23 19  1  0
 24 26  2  0
 24 25  1  0
M  END
$$$$
