DTH.pdb
     RDKit          3D

 26 26  0  0  1  0  0  0  0  0999 V2000
    9.0988  -15.1264   13.6860 N   0  0  0  0  0  0  0  0  0  0  0  0
    8.9604  -15.8238   14.9370 C   0  0  1  0  0  0  0  0  0  0  0  0
    9.6553  -17.1712   14.7889 C   0  0  0  0  0  0  0  0  0  0  0  0
    8.8058  -18.0581   13.9543 C   0  0  0  0  0  0  0  0  0  0  0  0
    8.5659  -17.8258   12.7441 O   0  0  0  0  0  0  0  0  0  0  0  0
    9.6011  -15.0575   16.0287 C   0  0  0  0  0  0  0  0  0  0  0  0
   10.6937  -14.4708   15.8167 O   0  0  0  0  0  0  0  0  0  0  0  0
    8.2373  -19.1991   14.5010 O   0  0  0  0  0  0  0  0  0  0  0  0
    7.8752  -12.5162   18.5691 C   0  0  0  0  0  0  0  0  0  0  0  0
    8.6104  -13.6086   19.3019 C   0  0  1  0  0  0  0  0  0  0  0  0
    7.7344  -14.6016   19.7492 O   0  0  0  0  0  0  0  0  0  0  0  0
    9.6678  -14.2192   18.3723 C   0  0  2  0  0  0  0  0  0  0  0  0
    9.0129  -14.9673   17.3122 N   0  0  0  0  0  0  0  0  0  0  0  0
   10.5144  -15.1044   19.2096 C   0  0  0  0  0  0  0  0  0  0  0  0
   10.3916  -16.3389   19.0967 O   0  0  0  0  0  0  0  0  0  0  0  0
   11.4659  -14.6159   20.1413 N   0  0  0  0  0  0  0  0  0  0  0  0
   12.3567  -15.4802   20.8901 C   0  0  1  0  0  0  0  0  0  0  0  0
   13.6854  -14.8148   21.1669 C   0  0  0  0  0  0  0  0  0  0  0  0
   14.4622  -14.6073   19.9087 C   0  0  0  0  0  0  0  0  0  0  0  0
   14.6662  -15.6322   19.0051 C   0  0  0  0  0  0  0  0  0  0  0  0
   15.3953  -15.1269   17.9891 N   0  0  0  0  0  0  0  0  0  0  0  0
   15.6385  -13.8289   18.2501 C   0  0  0  0  0  0  0  0  0  0  0  0
   15.0599  -13.5200   19.4332 N   0  0  0  0  0  0  0  0  0  0  0  0
   11.6916  -15.8498   22.1661 C   0  0  0  0  0  0  0  0  0  0  0  0
   12.2605  -16.7845   23.0288 O   0  0  0  0  0  0  0  0  0  0  0  0
   10.5970  -15.3468   22.5300 O   0  0  0  0  0  0  0  0  0  0  0  0
  2  3  1  0
  2  1  1  6
  3  4  1  0
  4  8  1  0
  4  5  2  0
  6  2  1  0
  6  7  2  0
 10  9  1  6
 10 12  1  0
 11 10  1  0
 12 13  1  6
 12 14  1  0
 13  6  1  0
 14 16  1  0
 15 14  2  0
 16 17  1  0
 17 24  1  0
 17 18  1  1
 19 18  1  0
 20 19  2  0
 21 22  1  0
 21 20  1  0
 22 23  2  0
 23 19  1  0
 24 26  2  0
 24 25  1  0
M  END
$$$$
