DTH.pdb
     RDKit          3D

 26 26  0  0  1  0  0  0  0  0999 V2000
   13.5212  -14.0405   16.8165 N   0  0  0  0  0  0  0  0  0  0  0  0
   12.6389  -15.0262   17.3827 C   0  0  1  0  0  0  0  0  0  0  0  0
   13.4863  -16.2327   17.7653 C   0  0  0  0  0  0  0  0  0  0  0  0
   13.9985  -16.8697   16.5256 C   0  0  0  0  0  0  0  0  0  0  0  0
   13.3874  -16.8120   15.4305 O   0  0  0  0  0  0  0  0  0  0  0  0
   11.9732  -14.4900   18.5905 C   0  0  0  0  0  0  0  0  0  0  0  0
   12.6389  -13.8158   19.4183 O   0  0  0  0  0  0  0  0  0  0  0  0
   15.1984  -17.5654   16.5410 O   0  0  0  0  0  0  0  0  0  0  0  0
    8.5791  -12.5150   18.9663 C   0  0  0  0  0  0  0  0  0  0  0  0
    8.5460  -13.7843   19.7778 C   0  0  1  0  0  0  0  0  0  0  0  0
    7.8470  -14.7961   19.1138 O   0  0  0  0  0  0  0  0  0  0  0  0
    9.9832  -14.2389   20.0658 C   0  0  2  0  0  0  0  0  0  0  0  0
   10.5992  -14.7174   18.8395 N   0  0  0  0  0  0  0  0  0  0  0  0
    9.8959  -15.3190   21.0793 C   0  0  0  0  0  0  0  0  0  0  0  0
    9.6602  -16.4824   20.7015 O   0  0  0  0  0  0  0  0  0  0  0  0
   10.0682  -15.0960   22.4696 N   0  0  0  0  0  0  0  0  0  0  0  0
    9.8890  -16.1336   23.4659 C   0  0  1  0  0  0  0  0  0  0  0  0
   10.9057  -16.0261   24.5793 C   0  0  0  0  0  0  0  0  0  0  0  0
   12.2749  -16.3825   24.1017 C   0  0  0  0  0  0  0  0  0  0  0  0
   12.5086  -16.7756   22.7980 C   0  0  0  0  0  0  0  0  0  0  0  0
   13.8297  -17.0240   22.6887 N   0  0  0  0  0  0  0  0  0  0  0  0
   14.4021  -16.7934   23.8851 C   0  0  0  0  0  0  0  0  0  0  0  0
   13.4364  -16.3993   24.7467 N   0  0  0  0  0  0  0  0  0  0  0  0
    8.5128  -16.0265   24.0150 C   0  0  0  0  0  0  0  0  0  0  0  0
    7.6727  -14.9765   23.6496 O   0  0  0  0  0  0  0  0  0  0  0  0
    8.0399  -16.8644   24.8260 O   0  0  0  0  0  0  0  0  0  0  0  0
  2  3  1  0
  2  1  1  1
  3  4  1  0
  4  8  1  0
  4  5  2  0
  6  2  1  0
  6  7  2  0
 10  9  1  6
 10 12  1  0
 11 10  1  0
 12 13  1  6
 12 14  1  0
 13  6  1  0
 14 16  1  0
 15 14  2  0
 16 17  1  0
 17 24  1  0
 17 18  1  1
 19 18  1  0
 20 19  2  0
 21 22  1  0
 21 20  1  0
 22 23  2  0
 23 19  1  0
 24 26  2  0
 24 25  1  0
M  END
$$$$
