DTH.pdb
     RDKit          3D

 26 26  0  0  1  0  0  0  0  0999 V2000
    8.7813  -17.6828   17.8423 N   0  0  0  0  0  0  0  0  0  0  0  0
   10.1173  -17.5190   18.3511 C   0  0  1  0  0  0  0  0  0  0  0  0
   10.9708  -16.9554   17.2224 C   0  0  0  0  0  0  0  0  0  0  0  0
   11.0520  -17.9635   16.1352 C   0  0  0  0  0  0  0  0  0  0  0  0
   11.1759  -19.1929   16.3575 O   0  0  0  0  0  0  0  0  0  0  0  0
   10.1234  -16.5751   19.4906 C   0  0  0  0  0  0  0  0  0  0  0  0
   11.2204  -16.1785   19.9620 O   0  0  0  0  0  0  0  0  0  0  0  0
   10.9919  -17.5668   14.8075 O   0  0  0  0  0  0  0  0  0  0  0  0
    7.4531  -13.5478   20.1998 C   0  0  0  0  0  0  0  0  0  0  0  0
    7.6114  -14.4971   21.3594 C   0  0  1  0  0  0  0  0  0  0  0  0
    6.5606  -15.4171   21.4125 O   0  0  0  0  0  0  0  0  0  0  0  0
    8.9510  -15.2346   21.2309 C   0  0  2  0  0  0  0  0  0  0  0  0
    8.9201  -16.1045   20.0670 N   0  0  0  0  0  0  0  0  0  0  0  0
    9.1317  -16.0154   22.4795 C   0  0  0  0  0  0  0  0  0  0  0  0
    8.6883  -17.1783   22.5328 O   0  0  0  0  0  0  0  0  0  0  0  0
    9.7888  -15.5037   23.6279 N   0  0  0  0  0  0  0  0  0  0  0  0
    9.8760  -16.2299   24.8795 C   0  0  1  0  0  0  0  0  0  0  0  0
   11.3079  -16.4007   25.3323 C   0  0  0  0  0  0  0  0  0  0  0  0
   12.0039  -17.4624   24.5462 C   0  0  0  0  0  0  0  0  0  0  0  0
   11.4312  -18.0253   23.4220 C   0  0  0  0  0  0  0  0  0  0  0  0
   12.3016  -18.9401   22.9481 N   0  0  0  0  0  0  0  0  0  0  0  0
   13.3826  -18.9480   23.7504 C   0  0  0  0  0  0  0  0  0  0  0  0
   13.1887  -18.0353   24.7300 N   0  0  0  0  0  0  0  0  0  0  0  0
    9.0968  -15.4922   25.9070 C   0  0  0  0  0  0  0  0  0  0  0  0
    8.9061  -16.0216   27.1818 O   0  0  0  0  0  0  0  0  0  0  0  0
    8.5760  -14.3684   25.6848 O   0  0  0  0  0  0  0  0  0  0  0  0
  2  3  1  0
  2  1  1  6
  3  4  1  0
  4  8  1  0
  4  5  2  0
  6  2  1  0
  6  7  2  0
 10  9  1  6
 10 12  1  0
 11 10  1  0
 12 13  1  6
 12 14  1  0
 13  6  1  0
 14 16  1  0
 15 14  2  0
 16 17  1  0
 17 24  1  0
 17 18  1  1
 19 18  1  0
 20 19  2  0
 21 22  1  0
 21 20  1  0
 22 23  2  0
 23 19  1  0
 24 26  2  0
 24 25  1  0
M  END
$$$$
