DTH.pdb
     RDKit          3D

 26 26  0  0  1  0  0  0  0  0999 V2000
    9.6327  -17.4794   16.9081 N   0  0  0  0  0  0  0  0  0  0  0  0
    8.6126  -17.3196   17.9103 C   0  0  1  0  0  0  0  0  0  0  0  0
    8.3072  -18.7003   18.4765 C   0  0  0  0  0  0  0  0  0  0  0  0
    7.5074  -19.4588   17.4816 C   0  0  0  0  0  0  0  0  0  0  0  0
    7.8468  -20.5913   17.0593 O   0  0  0  0  0  0  0  0  0  0  0  0
    9.0909  -16.4371   18.9975 C   0  0  0  0  0  0  0  0  0  0  0  0
   10.3271  -16.2993   19.1863 O   0  0  0  0  0  0  0  0  0  0  0  0
    6.3312  -18.9250   16.9760 O   0  0  0  0  0  0  0  0  0  0  0  0
    7.5401  -12.8685   20.2230 C   0  0  0  0  0  0  0  0  0  0  0  0
    7.6360  -13.8881   21.3285 C   0  0  1  0  0  0  0  0  0  0  0  0
    6.4007  -14.4954   21.5708 O   0  0  0  0  0  0  0  0  0  0  0  0
    8.6789  -14.9484   20.9504 C   0  0  2  0  0  0  0  0  0  0  0  0
    8.1882  -15.7403   19.8350 N   0  0  0  0  0  0  0  0  0  0  0  0
    8.8899  -15.7900   22.1540 C   0  0  0  0  0  0  0  0  0  0  0  0
    8.2620  -16.8608   22.2584 O   0  0  0  0  0  0  0  0  0  0  0  0
    9.7773  -15.4374   23.2031 N   0  0  0  0  0  0  0  0  0  0  0  0
    9.9424  -16.2353   24.4020 C   0  0  1  0  0  0  0  0  0  0  0  0
   11.3961  -16.3660   24.7952 C   0  0  0  0  0  0  0  0  0  0  0  0
   12.1332  -17.2676   23.8607 C   0  0  0  0  0  0  0  0  0  0  0  0
   11.4824  -17.9640   22.8606 C   0  0  0  0  0  0  0  0  0  0  0  0
   12.4170  -18.6781   22.2007 N   0  0  0  0  0  0  0  0  0  0  0  0
   13.6124  -18.4354   22.7703 C   0  0  0  0  0  0  0  0  0  0  0  0
   13.4260  -17.5666   23.7903 N   0  0  0  0  0  0  0  0  0  0  0  0
    9.1684  -15.6008   25.5000 C   0  0  0  0  0  0  0  0  0  0  0  0
    9.0374  -16.2231   26.7399 O   0  0  0  0  0  0  0  0  0  0  0  0
    8.5991  -14.4860   25.3711 O   0  0  0  0  0  0  0  0  0  0  0  0
  2  3  1  0
  2  1  1  6
  3  4  1  0
  4  8  1  0
  4  5  2  0
  6  2  1  0
  6  7  2  0
 10  9  1  6
 10 12  1  0
 11 10  1  0
 12 13  1  6
 12 14  1  0
 13  6  1  0
 14 16  1  0
 15 14  2  0
 16 17  1  0
 17 24  1  0
 17 18  1  1
 19 18  1  0
 20 19  2  0
 21 22  1  0
 21 20  1  0
 22 23  2  0
 23 19  1  0
 24 26  2  0
 24 25  1  0
M  END
$$$$
