DTH.pdb
     RDKit          3D

 26 26  0  0  1  0  0  0  0  0999 V2000
   10.6935  -19.0231   17.9450 N   0  0  0  0  0  0  0  0  0  0  0  0
   10.1285  -17.7030   17.8509 C   0  0  1  0  0  0  0  0  0  0  0  0
    9.2806  -17.6574   16.5863 C   0  0  0  0  0  0  0  0  0  0  0  0
   10.1821  -17.5990   15.4079 C   0  0  0  0  0  0  0  0  0  0  0  0
   11.3968  -17.9110   15.4666 O   0  0  0  0  0  0  0  0  0  0  0  0
    9.2744  -17.4221   19.0260 C   0  0  0  0  0  0  0  0  0  0  0  0
    8.5922  -16.3655   19.0590 O   0  0  0  0  0  0  0  0  0  0  0  0
    9.6967  -17.1874   14.1755 O   0  0  0  0  0  0  0  0  0  0  0  0
    6.6822  -19.7783   20.7364 C   0  0  0  0  0  0  0  0  0  0  0  0
    7.6900  -19.3139   21.7560 C   0  0  1  0  0  0  0  0  0  0  0  0
    8.6608  -20.2905   21.9950 O   0  0  0  0  0  0  0  0  0  0  0  0
    8.3535  -18.0220   21.2603 C   0  0  2  0  0  0  0  0  0  0  0  0
    9.2050  -18.3166   20.1200 N   0  0  0  0  0  0  0  0  0  0  0  0
    9.1436  -17.4836   22.3949 C   0  0  0  0  0  0  0  0  0  0  0  0
   10.3869  -17.4851   22.3180 O   0  0  0  0  0  0  0  0  0  0  0  0
    8.5535  -16.9617   23.5746 N   0  0  0  0  0  0  0  0  0  0  0  0
    9.3204  -16.6006   24.7505 C   0  0  1  0  0  0  0  0  0  0  0  0
    8.5582  -15.6559   25.6512 C   0  0  0  0  0  0  0  0  0  0  0  0
    8.1735  -14.4072   24.9283 C   0  0  0  0  0  0  0  0  0  0  0  0
    8.7882  -14.0334   23.7489 C   0  0  0  0  0  0  0  0  0  0  0  0
    8.2212  -12.8747   23.3551 N   0  0  0  0  0  0  0  0  0  0  0  0
    7.2832  -12.5362   24.2594 C   0  0  0  0  0  0  0  0  0  0  0  0
    7.2624  -13.4859   25.2226 N   0  0  0  0  0  0  0  0  0  0  0  0
    9.6676  -17.8437   25.4862 C   0  0  0  0  0  0  0  0  0  0  0  0
   10.5438  -17.8172   26.5693 O   0  0  0  0  0  0  0  0  0  0  0  0
    9.1966  -18.9686   25.1757 O   0  0  0  0  0  0  0  0  0  0  0  0
  2  3  1  0
  2  1  1  1
  3  4  1  0
  4  8  1  0
  4  5  2  0
  6  2  1  0
  6  7  2  0
 10  9  1  6
 10 12  1  0
 11 10  1  0
 12 13  1  6
 12 14  1  0
 13  6  1  0
 14 16  1  0
 15 14  2  0
 16 17  1  0
 17 24  1  0
 17 18  1  1
 19 18  1  0
 20 19  2  0
 21 22  1  0
 21 20  1  0
 22 23  2  0
 23 19  1  0
 24 26  2  0
 24 25  1  0
M  END
$$$$
