DTH.pdb
     RDKit          3D

 26 26  0  0  1  0  0  0  0  0999 V2000
   12.2550  -14.6945   15.0652 N   0  0  0  0  0  0  0  0  0  0  0  0
   11.5783  -15.5150   16.0345 C   0  0  1  0  0  0  0  0  0  0  0  0
   12.4338  -16.7547   16.2614 C   0  0  0  0  0  0  0  0  0  0  0  0
   12.4212  -17.5771   15.0251 C   0  0  0  0  0  0  0  0  0  0  0  0
   11.3837  -18.1359   14.5922 O   0  0  0  0  0  0  0  0  0  0  0  0
   11.4235  -14.7838   17.3115 C   0  0  0  0  0  0  0  0  0  0  0  0
   12.3426  -14.0197   17.7044 O   0  0  0  0  0  0  0  0  0  0  0  0
   13.5854  -17.7571   14.2929 O   0  0  0  0  0  0  0  0  0  0  0  0
    8.3303  -12.7736   18.7136 C   0  0  0  0  0  0  0  0  0  0  0  0
    8.7255  -13.8598   19.6804 C   0  0  1  0  0  0  0  0  0  0  0  0
    7.8792  -14.9673   19.5769 O   0  0  0  0  0  0  0  0  0  0  0  0
   10.1763  -14.2783   19.4064 C   0  0  2  0  0  0  0  0  0  0  0  0
   10.2617  -14.9230   18.1067 N   0  0  0  0  0  0  0  0  0  0  0  0
   10.5661  -15.2095   20.4938 C   0  0  0  0  0  0  0  0  0  0  0  0
   10.6024  -16.4318   20.2564 O   0  0  0  0  0  0  0  0  0  0  0  0
   10.9031  -14.7786   21.8026 N   0  0  0  0  0  0  0  0  0  0  0  0
   11.2089  -15.6947   22.8835 C   0  0  1  0  0  0  0  0  0  0  0  0
   12.4579  -15.2865   23.6307 C   0  0  0  0  0  0  0  0  0  0  0  0
   13.6872  -15.5769   22.8345 C   0  0  0  0  0  0  0  0  0  0  0  0
   13.6169  -16.0718   21.5466 C   0  0  0  0  0  0  0  0  0  0  0  0
   14.8838  -16.2240   21.1097 N   0  0  0  0  0  0  0  0  0  0  0  0
   15.7178  -15.8367   22.0929 C   0  0  0  0  0  0  0  0  0  0  0  0
   14.9710  -15.4407   23.1490 N   0  0  0  0  0  0  0  0  0  0  0  0
   10.0473  -15.7359   23.8086 C   0  0  0  0  0  0  0  0  0  0  0  0
    8.9492  -14.8987   23.6215 O   0  0  0  0  0  0  0  0  0  0  0  0
    9.9937  -16.5162   24.7945 O   0  0  0  0  0  0  0  0  0  0  0  0
  2  3  1  0
  2  1  1  6
  3  4  1  0
  4  8  1  0
  4  5  2  0
  6  2  1  0
  6  7  2  0
 10  9  1  6
 10 12  1  0
 11 10  1  0
 12 13  1  6
 12 14  1  0
 13  6  1  0
 14 16  1  0
 15 14  2  0
 16 17  1  0
 17 24  1  0
 17 18  1  1
 19 18  1  0
 20 19  2  0
 21 22  1  0
 21 20  1  0
 22 23  2  0
 23 19  1  0
 24 26  2  0
 24 25  1  0
M  END
$$$$
