DTH.pdb
     RDKit          3D

 26 26  0  0  1  0  0  0  0  0999 V2000
   10.4659  -17.0338   17.6973 N   0  0  0  0  0  0  0  0  0  0  0  0
   10.3574  -17.5143   19.0493 C   0  0  1  0  0  0  0  0  0  0  0  0
   11.7008  -18.1248   19.4271 C   0  0  0  0  0  0  0  0  0  0  0  0
   11.8765  -19.3948   18.6779 C   0  0  0  0  0  0  0  0  0  0  0  0
   11.1034  -19.7509   17.7551 O   0  0  0  0  0  0  0  0  0  0  0  0
   10.0479  -16.3985   19.9704 C   0  0  0  0  0  0  0  0  0  0  0  0
   10.7224  -15.3381   19.9093 O   0  0  0  0  0  0  0  0  0  0  0  0
   12.9270  -20.2474   18.9831 O   0  0  0  0  0  0  0  0  0  0  0  0
    6.8103  -14.4419   20.6055 C   0  0  0  0  0  0  0  0  0  0  0  0
    7.2320  -15.1180   21.8845 C   0  0  1  0  0  0  0  0  0  0  0  0
    6.5313  -16.3104   22.0861 O   0  0  0  0  0  0  0  0  0  0  0  0
    8.7406  -15.3954   21.8371 C   0  0  2  0  0  0  0  0  0  0  0  0
    9.0069  -16.4940   20.9237 N   0  0  0  0  0  0  0  0  0  0  0  0
    9.1574  -15.7345   23.2201 C   0  0  0  0  0  0  0  0  0  0  0  0
    9.4550  -16.9142   23.4878 O   0  0  0  0  0  0  0  0  0  0  0  0
    9.2361  -14.7781   24.2648 N   0  0  0  0  0  0  0  0  0  0  0  0
    9.6177  -15.1172   25.6215 C   0  0  1  0  0  0  0  0  0  0  0  0
    9.5231  -13.9260   26.5470 C   0  0  0  0  0  0  0  0  0  0  0  0
    9.8266  -14.3083   27.9582 C   0  0  0  0  0  0  0  0  0  0  0  0
   10.1554  -15.6050   28.3034 C   0  0  0  0  0  0  0  0  0  0  0  0
   10.3685  -15.6197   29.6351 N   0  0  0  0  0  0  0  0  0  0  0  0
   10.1790  -14.3729   30.1058 C   0  0  0  0  0  0  0  0  0  0  0  0
    9.8460  -13.5745   29.0658 N   0  0  0  0  0  0  0  0  0  0  0  0
    8.7334  -16.2109   26.0998 C   0  0  0  0  0  0  0  0  0  0  0  0
    9.2419  -17.2723   26.8458 O   0  0  0  0  0  0  0  0  0  0  0  0
    7.4981  -16.2368   25.8608 O   0  0  0  0  0  0  0  0  0  0  0  0
  2  3  1  0
  2  1  1  6
  3  4  1  0
  4  8  1  0
  4  5  2  0
  6  2  1  0
  6  7  2  0
 10  9  1  6
 10 12  1  0
 11 10  1  0
 12 13  1  6
 12 14  1  0
 13  6  1  0
 14 16  1  0
 15 14  2  0
 16 17  1  0
 17 24  1  0
 17 18  1  1
 19 18  1  0
 20 19  2  0
 21 22  1  0
 21 20  1  0
 22 23  2  0
 23 19  1  0
 24 26  2  0
 24 25  1  0
M  END
$$$$
