DTH.pdb
     RDKit          3D

 26 26  0  0  1  0  0  0  0  0999 V2000
    9.5042  -15.1071   14.8606 N   0  0  0  0  0  0  0  0  0  0  0  0
    9.6132  -16.1094   15.8873 C   0  0  1  0  0  0  0  0  0  0  0  0
   10.7740  -17.0223   15.5139 C   0  0  0  0  0  0  0  0  0  0  0  0
   10.4335  -17.7400   14.2594 C   0  0  0  0  0  0  0  0  0  0  0  0
   10.6546  -17.2591   13.1210 O   0  0  0  0  0  0  0  0  0  0  0  0
    9.8856  -15.4785   17.1976 C   0  0  0  0  0  0  0  0  0  0  0  0
   11.0447  -15.0642   17.4580 O   0  0  0  0  0  0  0  0  0  0  0  0
    9.8460  -18.9954   14.3091 O   0  0  0  0  0  0  0  0  0  0  0  0
    7.5418  -12.8958   19.2974 C   0  0  0  0  0  0  0  0  0  0  0  0
    7.9047  -14.1364   20.0721 C   0  0  1  0  0  0  0  0  0  0  0  0
    6.8637  -15.0689   20.0584 O   0  0  0  0  0  0  0  0  0  0  0  0
    9.1740  -14.7553   19.4715 C   0  0  2  0  0  0  0  0  0  0  0  0
    8.8699  -15.3283   18.1710 N   0  0  0  0  0  0  0  0  0  0  0  0
    9.6339  -15.7971   20.4225 C   0  0  0  0  0  0  0  0  0  0  0  0
   10.0555  -16.8797   19.9731 O   0  0  0  0  0  0  0  0  0  0  0  0
    9.6191  -15.6252   21.8306 N   0  0  0  0  0  0  0  0  0  0  0  0
   10.4463  -16.4030   22.7318 C   0  0  1  0  0  0  0  0  0  0  0  0
   11.9174  -16.2466   22.4215 C   0  0  0  0  0  0  0  0  0  0  0  0
   12.4309  -17.4009   21.6255 C   0  0  0  0  0  0  0  0  0  0  0  0
   11.5804  -18.3515   21.0950 C   0  0  0  0  0  0  0  0  0  0  0  0
   12.3458  -19.2485   20.4404 N   0  0  0  0  0  0  0  0  0  0  0  0
   13.6323  -18.8702   20.5584 C   0  0  0  0  0  0  0  0  0  0  0  0
   13.6729  -17.7325   21.2893 N   0  0  0  0  0  0  0  0  0  0  0  0
   10.1656  -15.9662   24.1237 C   0  0  0  0  0  0  0  0  0  0  0  0
   10.6440  -16.6895   25.2144 O   0  0  0  0  0  0  0  0  0  0  0  0
    9.4920  -14.9366   24.3878 O   0  0  0  0  0  0  0  0  0  0  0  0
  2  3  1  0
  2  1  1  6
  3  4  1  0
  4  8  1  0
  4  5  2  0
  6  2  1  0
  6  7  2  0
 10  9  1  6
 10 12  1  0
 11 10  1  0
 12 13  1  6
 12 14  1  0
 13  6  1  0
 14 16  1  0
 15 14  2  0
 16 17  1  0
 17 24  1  0
 17 18  1  6
 19 18  1  0
 20 19  2  0
 21 22  1  0
 21 20  1  0
 22 23  2  0
 23 19  1  0
 24 26  2  0
 24 25  1  0
M  END
$$$$
