DTH.pdb
     RDKit          3D

 26 26  0  0  1  0  0  0  0  0999 V2000
    9.4682  -15.4192   15.2046 N   0  0  0  0  0  0  0  0  0  0  0  0
    9.5667  -16.3611   16.2880 C   0  0  1  0  0  0  0  0  0  0  0  0
   10.7669  -17.2563   16.0082 C   0  0  0  0  0  0  0  0  0  0  0  0
   10.4170  -18.1969   14.9138 C   0  0  0  0  0  0  0  0  0  0  0  0
    9.2555  -18.6434   14.7480 O   0  0  0  0  0  0  0  0  0  0  0  0
    9.7701  -15.6526   17.5710 C   0  0  0  0  0  0  0  0  0  0  0  0
   10.8828  -15.1187   17.8154 O   0  0  0  0  0  0  0  0  0  0  0  0
   11.3882  -18.6212   14.0190 O   0  0  0  0  0  0  0  0  0  0  0  0
    7.2457  -13.1928   19.4744 C   0  0  0  0  0  0  0  0  0  0  0  0
    7.6793  -14.3312   20.3614 C   0  0  1  0  0  0  0  0  0  0  0  0
    6.6965  -15.3221   20.4364 O   0  0  0  0  0  0  0  0  0  0  0  0
    8.9862  -14.9258   19.8198 C   0  0  2  0  0  0  0  0  0  0  0  0
    8.7393  -15.5598   18.5355 N   0  0  0  0  0  0  0  0  0  0  0  0
    9.4564  -15.9122   20.8234 C   0  0  0  0  0  0  0  0  0  0  0  0
    9.9147  -17.0014   20.4293 O   0  0  0  0  0  0  0  0  0  0  0  0
    9.4118  -15.6794   22.2221 N   0  0  0  0  0  0  0  0  0  0  0  0
   10.3492  -16.2746   23.1539 C   0  0  1  0  0  0  0  0  0  0  0  0
   11.7831  -16.0238   22.7469 C   0  0  0  0  0  0  0  0  0  0  0  0
   12.3691  -17.2127   22.0592 C   0  0  0  0  0  0  0  0  0  0  0  0
   11.6185  -18.3431   21.7995 C   0  0  0  0  0  0  0  0  0  0  0  0
   12.4285  -19.2236   21.1769 N   0  0  0  0  0  0  0  0  0  0  0  0
   13.6451  -18.6611   21.0520 C   0  0  0  0  0  0  0  0  0  0  0  0
   13.5971  -17.4244   21.5981 N   0  0  0  0  0  0  0  0  0  0  0  0
   10.0926  -15.7110   24.5043 C   0  0  0  0  0  0  0  0  0  0  0  0
   10.3270  -16.4632   25.6536 O   0  0  0  0  0  0  0  0  0  0  0  0
    9.6569  -14.5435   24.6796 O   0  0  0  0  0  0  0  0  0  0  0  0
  2  3  1  0
  2  1  1  6
  3  4  1  0
  4  8  1  0
  4  5  2  0
  6  2  1  0
  6  7  2  0
 10  9  1  6
 10 12  1  0
 11 10  1  0
 12 13  1  6
 12 14  1  0
 13  6  1  0
 14 16  1  0
 15 14  2  0
 16 17  1  0
 17 24  1  0
 17 18  1  6
 19 18  1  0
 20 19  2  0
 21 22  1  0
 21 20  1  0
 22 23  2  0
 23 19  1  0
 24 26  2  0
 24 25  1  0
M  END
$$$$
