QII.pdb
     RDKit          3D

 26 25  0  0  1  0  0  0  0  0999 V2000
   10.3003  -20.6118   21.2960 N   0  0  0  0  0  0  0  0  0  0  0  0
   11.1862  -20.7602   20.2099 C   0  0  0  0  0  0  0  0  0  0  0  0
   11.0057  -21.6970   19.3910 O   0  0  0  0  0  0  0  0  0  0  0  0
   12.3046  -19.7901   20.0840 C   0  0  0  0  0  0  0  0  0  0  0  0
   12.1907  -18.6877   21.1285 C   0  0  0  0  0  0  0  0  0  0  0  0
   11.7473  -17.4346   20.3816 C   0  0  2  0  0  0  0  0  0  0  0  0
   12.8690  -16.9926   19.5923 N   0  0  0  0  0  0  0  0  0  0  0  0
   11.2935  -16.3782   21.3074 C   0  0  0  0  0  0  0  0  0  0  0  0
   12.0696  -15.4377   21.5744 O   0  0  0  0  0  0  0  0  0  0  0  0
    6.7554  -13.8687   20.6559 C   0  0  0  0  0  0  0  0  0  0  0  0
    8.1572  -14.1656   21.1271 C   0  0  0  0  0  0  0  0  0  0  0  0
    8.1675  -15.0060   22.3577 C   0  0  2  0  0  0  0  0  0  0  0  0
    7.5208  -14.2632   23.5306 C   0  0  0  0  0  0  0  0  0  0  0  0
    9.5390  -15.4209   22.8344 C   0  0  2  0  0  0  0  0  0  0  0  0
   10.0147  -16.4157   21.8860 N   0  0  0  0  0  0  0  0  0  0  0  0
    9.3755  -16.0285   24.1828 C   0  0  0  0  0  0  0  0  0  0  0  0
    9.1578  -17.2665   24.2236 O   0  0  0  0  0  0  0  0  0  0  0  0
   10.5100  -12.6073   28.3803 C   0  0  0  0  0  0  0  0  0  0  0  0
   10.6601  -13.7624   27.4760 C   0  0  0  0  0  0  0  0  0  0  0  0
    9.9234  -15.0043   27.7058 C   0  0  2  0  0  0  0  0  0  0  0  0
   10.3127  -15.6473   29.0562 C   0  0  0  0  0  0  0  0  0  0  0  0
    9.8288  -16.0164   26.6413 C   0  0  2  0  0  0  0  0  0  0  0  0
    9.4513  -15.3042   25.3743 N   0  0  0  0  0  0  0  0  0  0  0  0
    8.9084  -17.1523   26.8006 C   0  0  0  0  0  0  0  0  0  0  0  0
    9.2017  -18.2768   27.2570 O   0  0  0  0  0  0  0  0  0  0  0  0
    7.5493  -17.0241   26.4199 O   0  0  0  0  0  0  0  0  0  0  0  0
  2  1  1  0
  2  4  1  0
  3  2  2  0
  5  4  1  0
  6  5  1  0
  6  7  1  1
  8  6  1  0
  8  9  2  0
 11 10  1  0
 12 11  1  0
 12 14  1  0
 12 13  1  1
 14 15  1  6
 15  8  1  0
 16 14  1  0
 17 16  2  0
 18 19  1  0
 20 19  1  0
 20 22  1  0
 20 21  1  1
 22 23  1  6
 22 24  1  0
 23 16  1  0
 24 26  1  0
 25 24  2  0
M  END
$$$$
