QII.pdb
     RDKit          3D

 26 25  0  0  1  0  0  0  0  0999 V2000
   10.2192  -20.7093   21.3407 N   0  0  0  0  0  0  0  0  0  0  0  0
   11.1409  -20.8409   20.2826 C   0  0  0  0  0  0  0  0  0  0  0  0
   10.9755  -21.7509   19.4309 O   0  0  0  0  0  0  0  0  0  0  0  0
   12.2777  -19.8858   20.2244 C   0  0  0  0  0  0  0  0  0  0  0  0
   12.1477  -18.8170   21.3014 C   0  0  0  0  0  0  0  0  0  0  0  0
   11.7789  -17.5252   20.5801 C   0  0  2  0  0  0  0  0  0  0  0  0
   12.9511  -17.0907   19.8633 N   0  0  0  0  0  0  0  0  0  0  0  0
   11.3104  -16.4886   21.5207 C   0  0  0  0  0  0  0  0  0  0  0  0
   12.1382  -15.6765   21.9827 O   0  0  0  0  0  0  0  0  0  0  0  0
    6.6140  -13.9079   20.7709 C   0  0  0  0  0  0  0  0  0  0  0  0
    8.0272  -14.2661   21.1582 C   0  0  0  0  0  0  0  0  0  0  0  0
    8.0775  -15.0601   22.4183 C   0  0  2  0  0  0  0  0  0  0  0  0
    7.4540  -14.2802   23.5796 C   0  0  0  0  0  0  0  0  0  0  0  0
    9.4649  -15.4447   22.8740 C   0  0  2  0  0  0  0  0  0  0  0  0
    9.9610  -16.4037   21.8994 N   0  0  0  0  0  0  0  0  0  0  0  0
    9.3318  -16.0867   24.2097 C   0  0  0  0  0  0  0  0  0  0  0  0
    9.2170  -17.3389   24.2273 O   0  0  0  0  0  0  0  0  0  0  0  0
   10.3178  -12.6433   28.3619 C   0  0  0  0  0  0  0  0  0  0  0  0
   10.5323  -13.8242   27.5052 C   0  0  0  0  0  0  0  0  0  0  0  0
    9.8093  -15.0727   27.7424 C   0  0  2  0  0  0  0  0  0  0  0  0
   10.2156  -15.7103   29.0905 C   0  0  0  0  0  0  0  0  0  0  0  0
    9.7157  -16.0871   26.6800 C   0  0  2  0  0  0  0  0  0  0  0  0
    9.3287  -15.3790   25.4135 N   0  0  0  0  0  0  0  0  0  0  0  0
    8.8024  -17.2278   26.8451 C   0  0  0  0  0  0  0  0  0  0  0  0
    7.5906  -17.2480   26.5450 O   0  0  0  0  0  0  0  0  0  0  0  0
    9.2791  -18.4464   27.3896 O   0  0  0  0  0  0  0  0  0  0  0  0
  2  1  1  0
  2  4  1  0
  3  2  2  0
  5  4  1  0
  6  5  1  0
  6  7  1  1
  8  6  1  0
  8  9  2  0
 11 10  1  0
 12 11  1  0
 12 14  1  0
 12 13  1  1
 14 15  1  6
 15  8  1  0
 16 14  1  0
 17 16  2  0
 18 19  1  0
 20 19  1  0
 20 22  1  0
 20 21  1  1
 22 23  1  6
 22 24  1  0
 23 16  1  0
 24 26  1  0
 25 24  2  0
M  END
$$$$
