QII.pdb
     RDKit          3D

 26 25  0  0  1  0  0  0  0  0999 V2000
    8.2964  -15.8400   16.7729 N   0  0  0  0  0  0  0  0  0  0  0  0
    8.9753  -16.3729   17.8871 C   0  0  0  0  0  0  0  0  0  0  0  0
   10.0916  -15.8960   18.2145 O   0  0  0  0  0  0  0  0  0  0  0  0
    8.3305  -17.4866   18.6300 C   0  0  0  0  0  0  0  0  0  0  0  0
    7.4517  -16.9554   19.7546 C   0  0  0  0  0  0  0  0  0  0  0  0
    6.8394  -18.1762   20.4323 C   0  0  2  0  0  0  0  0  0  0  0  0
    5.7076  -18.5794   19.6366 N   0  0  0  0  0  0  0  0  0  0  0  0
    6.4408  -17.8866   21.8237 C   0  0  0  0  0  0  0  0  0  0  0  0
    5.2836  -17.4743   22.0450 O   0  0  0  0  0  0  0  0  0  0  0  0
    6.7393  -21.5061   25.4039 C   0  0  0  0  0  0  0  0  0  0  0  0
    6.4042  -20.2586   24.6249 C   0  0  0  0  0  0  0  0  0  0  0  0
    7.2602  -19.1049   25.0211 C   0  0  2  0  0  0  0  0  0  0  0  0
    7.0842  -18.7805   26.5075 C   0  0  0  0  0  0  0  0  0  0  0  0
    6.9802  -17.8195   24.2796 C   0  0  2  0  0  0  0  0  0  0  0  0
    7.3354  -18.0663   22.8910 N   0  0  0  0  0  0  0  0  0  0  0  0
    7.8615  -16.7707   24.8603 C   0  0  0  0  0  0  0  0  0  0  0  0
    9.0576  -16.7572   24.4719 O   0  0  0  0  0  0  0  0  0  0  0  0
    5.7125  -11.9652   26.2183 C   0  0  0  0  0  0  0  0  0  0  0  0
    6.7224  -12.9362   25.7583 C   0  0  0  0  0  0  0  0  0  0  0  0
    7.6066  -13.6145   26.7049 C   0  0  2  0  0  0  0  0  0  0  0  0
    8.4797  -12.6035   27.4824 C   0  0  0  0  0  0  0  0  0  0  0  0
    8.3958  -14.7803   26.2755 C   0  0  2  0  0  0  0  0  0  0  0  0
    7.4309  -15.8251   25.7933 N   0  0  0  0  0  0  0  0  0  0  0  0
    9.3089  -15.4287   27.2288 C   0  0  0  0  0  0  0  0  0  0  0  0
    8.9979  -16.3000   28.0672 O   0  0  0  0  0  0  0  0  0  0  0  0
   10.6816  -15.0767   27.2491 O   0  0  0  0  0  0  0  0  0  0  0  0
  2  1  1  0
  2  4  1  0
  3  2  2  0
  5  4  1  0
  6  5  1  0
  6  7  1  6
  8  6  1  0
  8  9  2  0
 11 10  1  0
 12 11  1  0
 12 14  1  0
 12 13  1  1
 14 15  1  6
 15  8  1  0
 16 14  1  0
 17 16  2  0
 18 19  1  0
 20 19  1  0
 20 22  1  0
 20 21  1  6
 22 23  1  1
 22 24  1  0
 23 16  1  0
 24 26  1  0
 25 24  2  0
M  END
$$$$
