QII.pdb
     RDKit          3D

 26 25  0  0  1  0  0  0  0  0999 V2000
    7.9625  -19.6609   22.5709 N   0  0  0  0  0  0  0  0  0  0  0  0
    8.0572  -19.8792   21.1817 C   0  0  0  0  0  0  0  0  0  0  0  0
    7.1729  -20.5605   20.6034 O   0  0  0  0  0  0  0  0  0  0  0  0
    9.2121  -19.2859   20.4591 C   0  0  0  0  0  0  0  0  0  0  0  0
    9.9990  -18.3482   21.3651 C   0  0  0  0  0  0  0  0  0  0  0  0
    9.4160  -16.9558   21.1496 C   0  0  2  0  0  0  0  0  0  0  0  0
   10.0174  -16.4254   19.9522 N   0  0  0  0  0  0  0  0  0  0  0  0
    9.6614  -16.0751   22.3084 C   0  0  0  0  0  0  0  0  0  0  0  0
   10.7326  -15.4366   22.3631 O   0  0  0  0  0  0  0  0  0  0  0  0
    5.6107  -13.1329   24.4169 C   0  0  0  0  0  0  0  0  0  0  0  0
    6.9620  -13.6173   23.9538 C   0  0  0  0  0  0  0  0  0  0  0  0
    7.5635  -14.5922   24.9070 C   0  0  2  0  0  0  0  0  0  0  0  0
    7.7380  -13.9634   26.2925 C   0  0  0  0  0  0  0  0  0  0  0  0
    8.9254  -15.1118   24.5123 C   0  0  2  0  0  0  0  0  0  0  0  0
    8.7171  -15.9466   23.3396 N   0  0  0  0  0  0  0  0  0  0  0  0
    9.4342  -15.9303   25.6460 C   0  0  0  0  0  0  0  0  0  0  0  0
    9.4013  -17.1792   25.5024 O   0  0  0  0  0  0  0  0  0  0  0  0
   11.0732  -13.9607   30.8815 C   0  0  0  0  0  0  0  0  0  0  0  0
   10.5082  -14.5623   29.6594 C   0  0  0  0  0  0  0  0  0  0  0  0
   11.3210  -15.4087   28.7872 C   0  0  2  0  0  0  0  0  0  0  0  0
   12.4931  -14.6151   28.1667 C   0  0  0  0  0  0  0  0  0  0  0  0
   10.6765  -16.2759   27.7877 C   0  0  2  0  0  0  0  0  0  0  0  0
    9.9339  -15.3874   26.8316 N   0  0  0  0  0  0  0  0  0  0  0  0
    9.7453  -17.3246   28.2303 C   0  0  0  0  0  0  0  0  0  0  0  0
    8.5006  -17.2340   28.2666 O   0  0  0  0  0  0  0  0  0  0  0  0
   10.2425  -18.5774   28.6685 O   0  0  0  0  0  0  0  0  0  0  0  0
  2  1  1  0
  2  4  1  0
  3  2  2  0
  5  4  1  0
  6  5  1  0
  6  7  1  6
  8  6  1  0
  8  9  2  0
 11 10  1  0
 12 11  1  0
 12 14  1  0
 12 13  1  1
 14 15  1  6
 15  8  1  0
 16 14  1  0
 17 16  2  0
 18 19  1  0
 20 19  1  0
 20 22  1  0
 20 21  1  6
 22 23  1  6
 22 24  1  0
 23 16  1  0
 24 26  1  0
 25 24  2  0
M  END
$$$$
