QII.pdb
     RDKit          3D

 26 25  0  0  1  0  0  0  0  0999 V2000
   11.7130  -19.7346   20.5974 N   0  0  0  0  0  0  0  0  0  0  0  0
   10.8461  -19.6676   21.7066 C   0  0  0  0  0  0  0  0  0  0  0  0
   10.8650  -20.5906   22.5601 O   0  0  0  0  0  0  0  0  0  0  0  0
    9.9405  -18.4945   21.8148 C   0  0  0  0  0  0  0  0  0  0  0  0
   10.1512  -17.5338   20.6521 C   0  0  0  0  0  0  0  0  0  0  0  0
    9.2212  -16.3513   20.9000 C   0  0  2  0  0  0  0  0  0  0  0  0
    9.3448  -15.4701   19.7665 N   0  0  0  0  0  0  0  0  0  0  0  0
    9.5473  -15.6540   22.1595 C   0  0  0  0  0  0  0  0  0  0  0  0
   10.6285  -15.0358   22.2427 O   0  0  0  0  0  0  0  0  0  0  0  0
    5.9137  -12.6318   24.3771 C   0  0  0  0  0  0  0  0  0  0  0  0
    7.2220  -13.2527   23.9549 C   0  0  0  0  0  0  0  0  0  0  0  0
    7.6790  -14.2995   24.9121 C   0  0  2  0  0  0  0  0  0  0  0  0
    7.9468  -13.6955   26.2938 C   0  0  0  0  0  0  0  0  0  0  0  0
    8.9502  -15.0126   24.5172 C   0  0  2  0  0  0  0  0  0  0  0  0
    8.6679  -15.6758   23.2539 N   0  0  0  0  0  0  0  0  0  0  0  0
    9.2428  -16.0175   25.5748 C   0  0  0  0  0  0  0  0  0  0  0  0
    9.3713  -17.2115   25.2015 O   0  0  0  0  0  0  0  0  0  0  0  0
   10.9090  -13.0308   29.7965 C   0  0  0  0  0  0  0  0  0  0  0  0
   10.9958  -13.9786   28.6701 C   0  0  0  0  0  0  0  0  0  0  0  0
   10.7612  -15.4086   28.8645 C   0  0  2  0  0  0  0  0  0  0  0  0
   11.8034  -16.0239   29.8257 C   0  0  0  0  0  0  0  0  0  0  0  0
   10.5235  -16.2838   27.7052 C   0  0  2  0  0  0  0  0  0  0  0  0
    9.3775  -15.7020   26.9284 N   0  0  0  0  0  0  0  0  0  0  0  0
   10.2329  -17.7093   27.9204 C   0  0  0  0  0  0  0  0  0  0  0  0
   11.0506  -18.6481   27.8255 O   0  0  0  0  0  0  0  0  0  0  0  0
    8.9230  -18.1223   28.2701 O   0  0  0  0  0  0  0  0  0  0  0  0
  2  1  1  0
  2  4  1  0
  3  2  2  0
  5  4  1  0
  6  5  1  0
  6  7  1  6
  8  6  1  0
  8  9  2  0
 11 10  1  0
 12 11  1  0
 12 14  1  0
 12 13  1  1
 14 15  1  6
 15  8  1  0
 16 14  1  0
 17 16  2  0
 18 19  1  0
 20 19  1  0
 20 22  1  0
 20 21  1  6
 22 23  1  1
 22 24  1  0
 23 16  1  0
 24 26  1  0
 25 24  2  0
M  END
$$$$
