QII.pdb
     RDKit          3D

 26 25  0  0  1  0  0  0  0  0999 V2000
    7.9272  -19.3587   20.4610 N   0  0  0  0  0  0  0  0  0  0  0  0
    7.0656  -18.5164   19.7300 C   0  0  0  0  0  0  0  0  0  0  0  0
    6.3116  -19.0149   18.8561 O   0  0  0  0  0  0  0  0  0  0  0  0
    7.0905  -17.0616   20.0315 C   0  0  0  0  0  0  0  0  0  0  0  0
    7.9555  -16.7721   21.2510 C   0  0  0  0  0  0  0  0  0  0  0  0
    7.8535  -15.2715   21.5016 C   0  0  2  0  0  0  0  0  0  0  0  0
    8.4057  -14.6105   20.3461 N   0  0  0  0  0  0  0  0  0  0  0  0
    8.5597  -14.8741   22.7353 C   0  0  0  0  0  0  0  0  0  0  0  0
    9.8004  -14.7413   22.7025 O   0  0  0  0  0  0  0  0  0  0  0  0
    5.7966  -11.9153   26.3642 C   0  0  0  0  0  0  0  0  0  0  0  0
    6.9702  -12.4157   25.5594 C   0  0  0  0  0  0  0  0  0  0  0  0
    7.4942  -13.7099   26.0800 C   0  0  2  0  0  0  0  0  0  0  0  0
    8.1653  -13.5177   27.4432 C   0  0  0  0  0  0  0  0  0  0  0  0
    8.5233  -14.3802   25.2014 C   0  0  2  0  0  0  0  0  0  0  0  0
    7.8631  -14.6456   23.9329 N   0  0  0  0  0  0  0  0  0  0  0  0
    8.9072  -15.6572   25.8617 C   0  0  0  0  0  0  0  0  0  0  0  0
    7.9956  -16.5089   26.0207 O   0  0  0  0  0  0  0  0  0  0  0  0
   13.0510  -17.9345   23.7900 C   0  0  0  0  0  0  0  0  0  0  0  0
   11.8060  -17.6578   24.5304 C   0  0  0  0  0  0  0  0  0  0  0  0
   11.7589  -17.7403   25.9894 C   0  0  2  0  0  0  0  0  0  0  0  0
   12.2970  -19.0987   26.4935 C   0  0  0  0  0  0  0  0  0  0  0  0
   10.5390  -17.3485   26.7138 C   0  0  2  0  0  0  0  0  0  0  0  0
   10.2010  -15.9447   26.3013 N   0  0  0  0  0  0  0  0  0  0  0  0
   10.5227  -17.3932   28.1837 C   0  0  0  0  0  0  0  0  0  0  0  0
   10.2923  -18.3999   28.8853 O   0  0  0  0  0  0  0  0  0  0  0  0
   10.7847  -16.2191   28.9330 O   0  0  0  0  0  0  0  0  0  0  0  0
  2  1  1  0
  2  4  1  0
  3  2  2  0
  5  4  1  0
  6  5  1  0
  6  7  1  6
  8  6  1  0
  8  9  2  0
 11 10  1  0
 12 11  1  0
 12 14  1  0
 12 13  1  1
 14 15  1  6
 15  8  1  0
 16 14  1  0
 17 16  2  0
 18 19  1  0
 20 19  1  0
 20 22  1  0
 20 21  1  6
 22 23  1  1
 22 24  1  0
 23 16  1  0
 24 26  1  0
 25 24  2  0
M  END
$$$$
