QII.pdb
     RDKit          3D

 26 25  0  0  1  0  0  0  0  0999 V2000
    9.4442  -20.0189   20.3471 N   0  0  0  0  0  0  0  0  0  0  0  0
   10.5371  -20.5064   19.6027 C   0  0  0  0  0  0  0  0  0  0  0  0
   10.3399  -21.3744   18.7148 O   0  0  0  0  0  0  0  0  0  0  0  0
   11.8865  -19.9638   19.9074 C   0  0  0  0  0  0  0  0  0  0  0  0
   11.8137  -18.8988   20.9935 C   0  0  0  0  0  0  0  0  0  0  0  0
   11.5297  -17.5805   20.2819 C   0  0  2  0  0  0  0  0  0  0  0  0
   12.7319  -17.2113   19.5783 N   0  0  0  0  0  0  0  0  0  0  0  0
   11.1171  -16.5260   21.2287 C   0  0  0  0  0  0  0  0  0  0  0  0
   11.9866  -15.7604   21.6934 O   0  0  0  0  0  0  0  0  0  0  0  0
    6.6359  -13.7126   20.3308 C   0  0  0  0  0  0  0  0  0  0  0  0
    8.0175  -14.0842   20.8085 C   0  0  0  0  0  0  0  0  0  0  0  0
    7.9781  -14.8925   22.0599 C   0  0  2  0  0  0  0  0  0  0  0  0
    7.3636  -14.0883   23.2093 C   0  0  0  0  0  0  0  0  0  0  0  0
    9.3239  -15.3644   22.5562 C   0  0  2  0  0  0  0  0  0  0  0  0
    9.7744  -16.3733   21.6104 N   0  0  0  0  0  0  0  0  0  0  0  0
    9.1146  -15.9709   23.8987 C   0  0  0  0  0  0  0  0  0  0  0  0
    8.8412  -17.1981   23.9294 O   0  0  0  0  0  0  0  0  0  0  0  0
   10.6729  -12.7329   28.0469 C   0  0  0  0  0  0  0  0  0  0  0  0
   10.6458  -13.9345   27.1925 C   0  0  0  0  0  0  0  0  0  0  0  0
    9.6863  -15.0116   27.4314 C   0  0  2  0  0  0  0  0  0  0  0  0
    9.9352  -15.6941   28.7956 C   0  0  0  0  0  0  0  0  0  0  0  0
    9.4123  -16.0051   26.3806 C   0  0  2  0  0  0  0  0  0  0  0  0
    9.2059  -15.2567   25.0952 N   0  0  0  0  0  0  0  0  0  0  0  0
    8.2827  -16.9336   26.5376 C   0  0  0  0  0  0  0  0  0  0  0  0
    7.0978  -16.7103   26.2132 O   0  0  0  0  0  0  0  0  0  0  0  0
    8.4910  -18.2166   27.1025 O   0  0  0  0  0  0  0  0  0  0  0  0
  2  1  1  0
  2  4  1  0
  3  2  2  0
  5  4  1  0
  6  5  1  0
  6  7  1  1
  8  6  1  0
  8  9  2  0
 11 10  1  0
 12 11  1  0
 12 14  1  0
 12 13  1  1
 14 15  1  6
 15  8  1  0
 16 14  1  0
 17 16  2  0
 18 19  1  0
 20 19  1  0
 20 22  1  0
 20 21  1  1
 22 23  1  6
 22 24  1  0
 23 16  1  0
 24 26  1  0
 25 24  2  0
M  END
$$$$
