QII.pdb
     RDKit          3D

 26 25  0  0  1  0  0  0  0  0999 V2000
   13.0033  -20.0237   24.1585 N   0  0  0  0  0  0  0  0  0  0  0  0
   11.6385  -19.6726   24.1376 C   0  0  0  0  0  0  0  0  0  0  0  0
   10.8789  -20.0977   25.0448 O   0  0  0  0  0  0  0  0  0  0  0  0
   11.1577  -18.8061   23.0304 C   0  0  0  0  0  0  0  0  0  0  0  0
   12.2845  -18.4912   22.0555 C   0  0  0  0  0  0  0  0  0  0  0  0
   11.6892  -17.5701   20.9963 C   0  0  2  0  0  0  0  0  0  0  0  0
   12.7367  -17.2796   20.0503 N   0  0  0  0  0  0  0  0  0  0  0  0
   11.1451  -16.3334   21.5906 C   0  0  0  0  0  0  0  0  0  0  0  0
   11.9363  -15.5062   22.0886 O   0  0  0  0  0  0  0  0  0  0  0  0
    7.4587  -13.4953   18.9439 C   0  0  0  0  0  0  0  0  0  0  0  0
    8.5890  -13.9627   19.8267 C   0  0  0  0  0  0  0  0  0  0  0  0
    8.1020  -14.4486   21.1487 C   0  0  2  0  0  0  0  0  0  0  0  0
    7.2773  -13.3694   21.8562 C   0  0  0  0  0  0  0  0  0  0  0  0
    9.1873  -14.8458   22.1206 C   0  0  2  0  0  0  0  0  0  0  0  0
    9.7647  -16.0765   21.6037 N   0  0  0  0  0  0  0  0  0  0  0  0
    8.5371  -15.0921   23.4361 C   0  0  0  0  0  0  0  0  0  0  0  0
    8.4032  -16.2928   23.7857 O   0  0  0  0  0  0  0  0  0  0  0  0
    7.0023  -10.7330   26.6732 C   0  0  0  0  0  0  0  0  0  0  0  0
    7.6579  -12.0419   26.4953 C   0  0  0  0  0  0  0  0  0  0  0  0
    6.8820  -13.2402   26.1790 C   0  0  2  0  0  0  0  0  0  0  0  0
    5.9249  -13.6116   27.3344 C   0  0  0  0  0  0  0  0  0  0  0  0
    7.5515  -14.4337   25.6372 C   0  0  2  0  0  0  0  0  0  0  0  0
    8.0807  -14.0760   24.2782 N   0  0  0  0  0  0  0  0  0  0  0  0
    6.7977  -15.6891   25.5014 C   0  0  0  0  0  0  0  0  0  0  0  0
    6.8057  -16.6417   26.3086 O   0  0  0  0  0  0  0  0  0  0  0  0
    5.9665  -15.9000   24.3730 O   0  0  0  0  0  0  0  0  0  0  0  0
  2  1  1  0
  2  4  1  0
  3  2  2  0
  5  4  1  0
  6  5  1  0
  6  7  1  6
  8  6  1  0
  8  9  2  0
 11 10  1  0
 12 11  1  0
 12 14  1  0
 12 13  1  1
 14 15  1  6
 15  8  1  0
 16 14  1  0
 17 16  2  0
 18 19  1  0
 20 19  1  0
 20 22  1  0
 20 21  1  1
 22 23  1  6
 22 24  1  0
 23 16  1  0
 24 26  1  0
 25 24  2  0
M  END
$$$$
