QII.pdb
     RDKit          3D

 26 25  0  0  1  0  0  0  0  0999 V2000
   12.0269  -21.4289   20.8866 N   0  0  0  0  0  0  0  0  0  0  0  0
   13.1702  -20.7964   20.3583 C   0  0  0  0  0  0  0  0  0  0  0  0
   14.0961  -21.4983   19.8779 O   0  0  0  0  0  0  0  0  0  0  0  0
   13.2263  -19.3120   20.3953 C   0  0  0  0  0  0  0  0  0  0  0  0
   11.9607  -18.7335   21.0139 C   0  0  0  0  0  0  0  0  0  0  0  0
   11.7237  -17.3923   20.3285 C   0  0  2  0  0  0  0  0  0  0  0  0
   12.9613  -17.0168   19.6929 N   0  0  0  0  0  0  0  0  0  0  0  0
   11.2776  -16.3607   21.2854 C   0  0  0  0  0  0  0  0  0  0  0  0
   12.1095  -15.5314   21.7077 O   0  0  0  0  0  0  0  0  0  0  0  0
    6.5149  -13.9261   20.6759 C   0  0  0  0  0  0  0  0  0  0  0  0
    7.9487  -14.2437   21.0202 C   0  0  0  0  0  0  0  0  0  0  0  0
    8.0640  -14.9806   22.3104 C   0  0  2  0  0  0  0  0  0  0  0  0
    7.4971  -14.1498   23.4654 C   0  0  0  0  0  0  0  0  0  0  0  0
    9.4734  -15.3438   22.7129 C   0  0  2  0  0  0  0  0  0  0  0  0
    9.9448  -16.2995   21.7229 N   0  0  0  0  0  0  0  0  0  0  0  0
    9.4016  -15.9824   24.0549 C   0  0  0  0  0  0  0  0  0  0  0  0
    9.3908  -17.2396   24.0841 O   0  0  0  0  0  0  0  0  0  0  0  0
   10.4962  -12.5159   28.2147 C   0  0  0  0  0  0  0  0  0  0  0  0
   10.5953  -13.6738   27.3070 C   0  0  0  0  0  0  0  0  0  0  0  0
    9.8529  -14.9060   27.5684 C   0  0  2  0  0  0  0  0  0  0  0  0
   10.2400  -15.5168   28.9344 C   0  0  0  0  0  0  0  0  0  0  0  0
    9.7527  -15.9441   26.5298 C   0  0  2  0  0  0  0  0  0  0  0  0
    9.3471  -15.2664   25.2526 N   0  0  0  0  0  0  0  0  0  0  0  0
    8.8479  -17.0859   26.7307 C   0  0  0  0  0  0  0  0  0  0  0  0
    7.6239  -17.1052   26.4852 O   0  0  0  0  0  0  0  0  0  0  0  0
    9.3488  -18.3067   27.2479 O   0  0  0  0  0  0  0  0  0  0  0  0
  2  1  1  0
  2  4  1  0
  3  2  2  0
  5  4  1  0
  6  5  1  0
  6  7  1  1
  8  6  1  0
  8  9  2  0
 11 10  1  0
 12 11  1  0
 12 14  1  0
 12 13  1  1
 14 15  1  6
 15  8  1  0
 16 14  1  0
 17 16  2  0
 18 19  1  0
 20 19  1  0
 20 22  1  0
 20 21  1  1
 22 23  1  6
 22 24  1  0
 23 16  1  0
 24 26  1  0
 25 24  2  0
M  END
$$$$
