QII.pdb
     RDKit          3D

 26 25  0  0  1  0  0  0  0  0999 V2000
    5.0790  -21.1934   24.9261 N   0  0  0  0  0  0  0  0  0  0  0  0
    6.0473  -21.1252   23.9043 C   0  0  0  0  0  0  0  0  0  0  0  0
    7.0289  -21.9103   23.9321 O   0  0  0  0  0  0  0  0  0  0  0  0
    5.8584  -20.1159   22.8302 C   0  0  0  0  0  0  0  0  0  0  0  0
    6.9714  -19.0768   22.8564 C   0  0  0  0  0  0  0  0  0  0  0  0
    7.0981  -18.5493   21.4314 C   0  0  2  0  0  0  0  0  0  0  0  0
    7.5064  -19.6567   20.6045 N   0  0  0  0  0  0  0  0  0  0  0  0
    8.0596  -17.4326   21.3454 C   0  0  0  0  0  0  0  0  0  0  0  0
    9.2556  -17.6861   21.0935 O   0  0  0  0  0  0  0  0  0  0  0  0
    6.7784  -12.4889   19.2962 C   0  0  0  0  0  0  0  0  0  0  0  0
    7.6513  -13.6578   19.6796 C   0  0  0  0  0  0  0  0  0  0  0  0
    7.8199  -13.7695   21.1560 C   0  0  2  0  0  0  0  0  0  0  0  0
    8.5793  -12.5608   21.7110 C   0  0  0  0  0  0  0  0  0  0  0  0
    8.5824  -14.9876   21.6199 C   0  0  2  0  0  0  0  0  0  0  0  0
    7.6525  -16.1031   21.5408 N   0  0  0  0  0  0  0  0  0  0  0  0
    8.9846  -14.7487   23.0324 C   0  0  0  0  0  0  0  0  0  0  0  0
    9.8489  -13.8572   23.2322 O   0  0  0  0  0  0  0  0  0  0  0  0
    6.8555  -11.9636   27.2434 C   0  0  0  0  0  0  0  0  0  0  0  0
    7.9115  -12.9207   26.8646 C   0  0  0  0  0  0  0  0  0  0  0  0
    7.7514  -13.8078   25.7134 C   0  0  2  0  0  0  0  0  0  0  0  0
    6.2833  -14.2644   25.5552 C   0  0  0  0  0  0  0  0  0  0  0  0
    8.6831  -14.9285   25.5076 C   0  0  2  0  0  0  0  0  0  0  0  0
    8.4587  -15.4520   24.1181 N   0  0  0  0  0  0  0  0  0  0  0  0
    8.6481  -16.0782   26.4239 C   0  0  0  0  0  0  0  0  0  0  0  0
    8.9784  -16.0681   27.6279 O   0  0  0  0  0  0  0  0  0  0  0  0
    8.2087  -17.3432   25.9599 O   0  0  0  0  0  0  0  0  0  0  0  0
  2  1  1  0
  2  4  1  0
  3  2  2  0
  5  4  1  0
  6  5  1  0
  6  7  1  6
  8  6  1  0
  8  9  2  0
 11 10  1  0
 12 11  1  0
 12 14  1  0
 12 13  1  6
 14 15  1  1
 15  8  1  0
 16 14  1  0
 17 16  2  0
 18 19  1  0
 20 19  1  0
 20 22  1  0
 20 21  1  1
 22 23  1  6
 22 24  1  0
 23 16  1  0
 24 26  1  0
 25 24  2  0
M  END
$$$$
