HEM.pdb
     RDKit          3D

 28 28  0  0  1  0  0  0  0  0999 V2000
    9.6933  -15.6701   19.0193 N   0  0  0  0  0  0  0  0  0  0  0  0
    8.6607  -15.0975   19.8637 C   0  0  1  0  0  0  0  0  0  0  0  0
    7.3633  -15.1858   19.0810 C   0  0  0  0  0  0  0  0  0  0  0  0
    7.6111  -14.5178   17.7763 C   0  0  0  0  0  0  0  0  0  0  0  0
    7.8289  -13.1650   17.6084 C   0  0  0  0  0  0  0  0  0  0  0  0
    8.0115  -12.8855   16.3113 N   0  0  0  0  0  0  0  0  0  0  0  0
    7.9118  -14.0437   15.6545 C   0  0  0  0  0  0  0  0  0  0  0  0
    7.6648  -15.0558   16.5448 N   0  0  0  0  0  0  0  0  0  0  0  0
    8.5942  -15.7842   21.1790 C   0  0  0  0  0  0  0  0  0  0  0  0
    7.6140  -15.5602   21.9336 O   0  0  0  0  0  0  0  0  0  0  0  0
    9.6545  -16.6544   21.4993 N   0  0  0  0  0  0  0  0  0  0  0  0
    9.6719  -17.3837   22.7276 C   0  0  1  0  0  0  0  0  0  0  0  0
   10.6101  -18.5448   22.7787 C   0  0  0  0  0  0  0  0  0  0  0  0
   12.0064  -18.2573   22.3614 C   0  0  0  0  0  0  0  0  0  0  0  0
   12.9159  -19.4038   22.3223 C   0  0  0  0  0  0  0  0  0  0  0  0
   13.6790  -19.6221   21.3237 O   0  0  0  0  0  0  0  0  0  0  0  0
    9.9403  -16.4492   23.8700 C   0  0  0  0  0  0  0  0  0  0  0  0
   10.8566  -15.5884   23.8253 O   0  0  0  0  0  0  0  0  0  0  0  0
   12.9593  -20.2942   23.4056 O   0  0  0  0  0  0  0  0  0  0  0  0
    7.1391  -10.6961   26.5192 C   0  0  0  0  0  0  0  0  0  0  0  0
    6.6606  -12.3777   26.8209 S   0  0  0  0  0  0  0  0  0  0  0  0
    7.9669  -13.5661   27.0472 C   0  0  0  0  0  0  0  0  0  0  0  0
    8.1015  -14.5940   25.9734 C   0  0  0  0  0  0  0  0  0  0  0  0
    9.2494  -15.5269   26.1008 C   0  0  2  0  0  0  0  0  0  0  0  0
    9.1494  -16.5299   25.0314 N   0  0  0  0  0  0  0  0  0  0  0  0
    9.2790  -16.2108   27.4304 C   0  0  0  0  0  0  0  0  0  0  0  0
    8.8341  -17.4109   27.5267 O   0  0  0  0  0  0  0  0  0  0  0  0
    9.7496  -15.6573   28.5865 O   0  0  0  0  0  0  0  0  0  0  0  0
  2  9  1  0
  2  1  1  6
  3  2  1  0
  4  8  1  0
  4  3  1  0
  5  4  2  0
  6  5  1  0
  6  7  1  0
  7  8  2  0
  9 11  1  0
 10  9  2  0
 11 12  1  0
 12 13  1  6
 13 14  1  0
 15 14  1  0
 15 19  1  0
 16 15  2  0
 17 18  2  0
 17 12  1  0
 20 21  1  0
 21 22  1  0
 22 23  1  0
 24 23  1  1
 24 26  1  0
 24 25  1  0
 25 17  1  0
 26 28  1  0
 27 26  2  0
M  END
$$$$
