HEM.pdb
     RDKit          3D

 28 28  0  0  1  0  0  0  0  0999 V2000
    7.2893  -16.8723   19.6533 N   0  0  0  0  0  0  0  0  0  0  0  0
    8.1387  -16.0579   20.5034 C   0  0  1  0  0  0  0  0  0  0  0  0
    7.4497  -14.7126   20.6421 C   0  0  0  0  0  0  0  0  0  0  0  0
    7.6914  -13.9815   19.3704 C   0  0  0  0  0  0  0  0  0  0  0  0
    8.4432  -14.4568   18.3148 C   0  0  0  0  0  0  0  0  0  0  0  0
    8.4700  -13.5542   17.3255 N   0  0  0  0  0  0  0  0  0  0  0  0
    7.7450  -12.5127   17.7405 C   0  0  0  0  0  0  0  0  0  0  0  0
    7.2608  -12.7630   18.9978 N   0  0  0  0  0  0  0  0  0  0  0  0
    8.3912  -16.7192   21.8092 C   0  0  0  0  0  0  0  0  0  0  0  0
    7.4137  -17.1484   22.4731 O   0  0  0  0  0  0  0  0  0  0  0  0
    9.7332  -16.8208   22.2245 N   0  0  0  0  0  0  0  0  0  0  0  0
   10.0777  -17.3731   23.4962 C   0  0  1  0  0  0  0  0  0  0  0  0
   11.2680  -18.2754   23.5100 C   0  0  0  0  0  0  0  0  0  0  0  0
   11.1219  -19.5383   22.7419 C   0  0  0  0  0  0  0  0  0  0  0  0
   12.3667  -20.1913   22.3333 C   0  0  0  0  0  0  0  0  0  0  0  0
   13.1994  -20.6440   23.1869 O   0  0  0  0  0  0  0  0  0  0  0  0
   10.2504  -16.2710   24.4992 C   0  0  0  0  0  0  0  0  0  0  0  0
   10.4658  -15.0815   24.1512 O   0  0  0  0  0  0  0  0  0  0  0  0
   12.6642  -20.3294   20.9692 O   0  0  0  0  0  0  0  0  0  0  0  0
    7.3183  -11.5522   25.5498 C   0  0  0  0  0  0  0  0  0  0  0  0
    6.9682  -12.6539   26.8957 S   0  0  0  0  0  0  0  0  0  0  0  0
    8.2964  -13.6978   27.4579 C   0  0  0  0  0  0  0  0  0  0  0  0
    8.7170  -14.7760   26.5154 C   0  0  0  0  0  0  0  0  0  0  0  0
    9.9550  -15.5127   26.8745 C   0  0  2  0  0  0  0  0  0  0  0  0
   10.1716  -16.5662   25.8731 N   0  0  0  0  0  0  0  0  0  0  0  0
    9.8762  -16.1231   28.2374 C   0  0  0  0  0  0  0  0  0  0  0  0
    9.4642  -17.3327   28.3584 O   0  0  0  0  0  0  0  0  0  0  0  0
   10.2117  -15.4909   29.4003 O   0  0  0  0  0  0  0  0  0  0  0  0
  2  9  1  0
  2  1  1  6
  3  2  1  0
  4  8  1  0
  4  3  1  0
  5  4  2  0
  6  5  1  0
  6  7  1  0
  7  8  2  0
  9 11  1  0
 10  9  2  0
 11 12  1  0
 12 13  1  6
 13 14  1  0
 15 14  1  0
 15 19  1  0
 16 15  2  0
 17 18  2  0
 17 12  1  0
 20 21  1  0
 21 22  1  0
 22 23  1  0
 24 23  1  6
 24 26  1  0
 24 25  1  0
 25 17  1  0
 26 28  1  0
 27 26  2  0
M  END
$$$$
