HEM.pdb
     RDKit          3D

 28 28  0  0  1  0  0  0  0  0999 V2000
    7.6384  -17.0904   18.5762 N   0  0  0  0  0  0  0  0  0  0  0  0
    8.3357  -16.1174   19.3974 C   0  0  1  0  0  0  0  0  0  0  0  0
    7.5395  -14.8280   19.3108 C   0  0  0  0  0  0  0  0  0  0  0  0
    7.7366  -14.3020   17.9344 C   0  0  0  0  0  0  0  0  0  0  0  0
    8.3845  -13.1236   17.6225 C   0  0  0  0  0  0  0  0  0  0  0  0
    8.3846  -12.9352   16.2965 N   0  0  0  0  0  0  0  0  0  0  0  0
    7.7448  -13.9789   15.7635 C   0  0  0  0  0  0  0  0  0  0  0  0
    7.3404  -14.8270   16.7611 N   0  0  0  0  0  0  0  0  0  0  0  0
    8.5029  -16.6050   20.7904 C   0  0  0  0  0  0  0  0  0  0  0  0
    7.4793  -16.8884   21.4629 O   0  0  0  0  0  0  0  0  0  0  0  0
    9.8211  -16.7169   21.2737 N   0  0  0  0  0  0  0  0  0  0  0  0
   10.0921  -17.2177   22.5840 C   0  0  1  0  0  0  0  0  0  0  0  0
   11.3273  -18.0467   22.7183 C   0  0  0  0  0  0  0  0  0  0  0  0
   11.5830  -18.5978   24.0738 C   0  0  0  0  0  0  0  0  0  0  0  0
   12.8061  -19.3874   24.2277 C   0  0  0  0  0  0  0  0  0  0  0  0
   13.9532  -18.9133   23.9338 O   0  0  0  0  0  0  0  0  0  0  0  0
   10.1187  -16.0841   23.5661 C   0  0  0  0  0  0  0  0  0  0  0  0
   10.8500  -15.0743   23.3982 O   0  0  0  0  0  0  0  0  0  0  0  0
   12.7287  -20.7024   24.7105 O   0  0  0  0  0  0  0  0  0  0  0  0
    5.8657  -11.2712   27.7834 C   0  0  0  0  0  0  0  0  0  0  0  0
    6.0563  -12.8352   26.9678 S   0  0  0  0  0  0  0  0  0  0  0  0
    7.6996  -13.5160   26.8896 C   0  0  0  0  0  0  0  0  0  0  0  0
    7.9489  -14.4821   25.7796 C   0  0  0  0  0  0  0  0  0  0  0  0
    9.3118  -15.0676   25.7155 C   0  0  2  0  0  0  0  0  0  0  0  0
    9.3054  -16.1423   24.7133 N   0  0  0  0  0  0  0  0  0  0  0  0
    9.7569  -15.6131   27.0349 C   0  0  0  0  0  0  0  0  0  0  0  0
    9.8632  -14.8182   28.0370 O   0  0  0  0  0  0  0  0  0  0  0  0
   10.0713  -16.9196   27.2773 O   0  0  0  0  0  0  0  0  0  0  0  0
  2  9  1  0
  2  1  1  6
  3  2  1  0
  4  8  1  0
  4  3  1  0
  5  4  2  0
  6  5  1  0
  6  7  1  0
  7  8  2  0
  9 11  1  0
 10  9  2  0
 11 12  1  0
 12 13  1  6
 13 14  1  0
 15 14  1  0
 15 19  1  0
 16 15  2  0
 17 18  2  0
 17 12  1  0
 20 21  1  0
 21 22  1  0
 22 23  1  0
 24 23  1  1
 24 26  1  0
 24 25  1  0
 25 17  1  0
 26 28  1  0
 27 26  2  0
M  END
$$$$
