HEM.pdb
     RDKit          3D

 28 28  0  0  1  0  0  0  0  0999 V2000
   10.0828  -15.3468   18.6990 N   0  0  0  0  0  0  0  0  0  0  0  0
    8.7643  -15.3090   19.3051 C   0  0  1  0  0  0  0  0  0  0  0  0
    7.8029  -15.8948   18.2870 C   0  0  0  0  0  0  0  0  0  0  0  0
    7.7617  -14.9408   17.1477 C   0  0  0  0  0  0  0  0  0  0  0  0
    8.5940  -13.8497   16.9984 C   0  0  0  0  0  0  0  0  0  0  0  0
    8.2935  -13.1922   15.8708 N   0  0  0  0  0  0  0  0  0  0  0  0
    7.2811  -13.8523   15.3034 C   0  0  0  0  0  0  0  0  0  0  0  0
    6.9440  -14.9301   16.0798 N   0  0  0  0  0  0  0  0  0  0  0  0
    8.7447  -16.0283   20.6044 C   0  0  0  0  0  0  0  0  0  0  0  0
    7.6548  -16.1428   21.2202 O   0  0  0  0  0  0  0  0  0  0  0  0
    9.9716  -16.5412   21.0688 N   0  0  0  0  0  0  0  0  0  0  0  0
   10.0856  -17.1383   22.3616 C   0  0  1  0  0  0  0  0  0  0  0  0
   11.3414  -17.9072   22.6119 C   0  0  0  0  0  0  0  0  0  0  0  0
   11.5708  -19.0671   21.7128 C   0  0  0  0  0  0  0  0  0  0  0  0
   12.9092  -19.6589   21.7535 C   0  0  0  0  0  0  0  0  0  0  0  0
   13.0962  -20.9093   21.5843 O   0  0  0  0  0  0  0  0  0  0  0  0
    9.8964  -16.0944   23.4223 C   0  0  0  0  0  0  0  0  0  0  0  0
   10.6647  -15.1037   23.5264 O   0  0  0  0  0  0  0  0  0  0  0  0
   14.0248  -18.8400   21.9841 O   0  0  0  0  0  0  0  0  0  0  0  0
    6.1044  -10.7848   26.8513 C   0  0  0  0  0  0  0  0  0  0  0  0
    6.5331  -12.0303   25.6627 S   0  0  0  0  0  0  0  0  0  0  0  0
    6.8309  -13.6738   26.2794 C   0  0  0  0  0  0  0  0  0  0  0  0
    7.2437  -14.6835   25.2606 C   0  0  0  0  0  0  0  0  0  0  0  0
    8.6156  -15.2332   25.4027 C   0  0  2  0  0  0  0  0  0  0  0  0
    8.8308  -16.2180   24.3335 N   0  0  0  0  0  0  0  0  0  0  0  0
    8.8318  -15.8805   26.7334 C   0  0  0  0  0  0  0  0  0  0  0  0
    8.8104  -15.1559   27.7926 O   0  0  0  0  0  0  0  0  0  0  0  0
    9.0581  -17.2127   26.9297 O   0  0  0  0  0  0  0  0  0  0  0  0
  2  9  1  0
  2  1  1  6
  3  2  1  0
  4  8  1  0
  4  3  1  0
  5  4  2  0
  6  5  1  0
  6  7  1  0
  7  8  2  0
  9 11  1  0
 10  9  2  0
 11 12  1  0
 12 13  1  6
 13 14  1  0
 15 14  1  0
 15 19  1  0
 16 15  2  0
 17 18  2  0
 17 12  1  0
 20 21  1  0
 21 22  1  0
 22 23  1  0
 24 23  1  1
 24 26  1  0
 24 25  1  0
 25 17  1  0
 26 28  1  0
 27 26  2  0
M  END
$$$$
