HEM.pdb
     RDKit          3D

 28 28  0  0  1  0  0  0  0  0999 V2000
    7.2057  -16.4537   19.0091 N   0  0  0  0  0  0  0  0  0  0  0  0
    8.3309  -15.8641   19.7116 C   0  0  1  0  0  0  0  0  0  0  0  0
    8.1734  -14.3589   19.5948 C   0  0  0  0  0  0  0  0  0  0  0  0
    8.2638  -14.0363   18.1464 C   0  0  0  0  0  0  0  0  0  0  0  0
    7.3166  -13.3306   17.4320 C   0  0  0  0  0  0  0  0  0  0  0  0
    7.6946  -13.2183   16.1520 N   0  0  0  0  0  0  0  0  0  0  0  0
    8.8692  -13.8441   16.0455 C   0  0  0  0  0  0  0  0  0  0  0  0
    9.2301  -14.3525   17.2659 N   0  0  0  0  0  0  0  0  0  0  0  0
    8.3972  -16.3342   21.1190 C   0  0  0  0  0  0  0  0  0  0  0  0
    7.3727  -16.2389   21.8413 O   0  0  0  0  0  0  0  0  0  0  0  0
    9.6266  -16.8627   21.5584 N   0  0  0  0  0  0  0  0  0  0  0  0
    9.8008  -17.3227   22.8997 C   0  0  1  0  0  0  0  0  0  0  0  0
   10.9746  -18.2169   23.1309 C   0  0  0  0  0  0  0  0  0  0  0  0
   11.1312  -18.7200   24.5197 C   0  0  0  0  0  0  0  0  0  0  0  0
   12.3610  -19.4629   24.8007 C   0  0  0  0  0  0  0  0  0  0  0  0
   13.1585  -19.8182   23.8708 O   0  0  0  0  0  0  0  0  0  0  0  0
    9.8480  -16.1520   23.8365 C   0  0  0  0  0  0  0  0  0  0  0  0
   10.6337  -15.1861   23.6566 O   0  0  0  0  0  0  0  0  0  0  0  0
   12.6829  -19.7996   26.1241 O   0  0  0  0  0  0  0  0  0  0  0  0
    6.0109  -10.8318   25.9620 C   0  0  0  0  0  0  0  0  0  0  0  0
    6.0237  -12.3611   26.8613 S   0  0  0  0  0  0  0  0  0  0  0  0
    7.5671  -13.2452   26.9392 C   0  0  0  0  0  0  0  0  0  0  0  0
    7.7102  -14.3849   25.9862 C   0  0  0  0  0  0  0  0  0  0  0  0
    9.0457  -15.0318   25.9355 C   0  0  2  0  0  0  0  0  0  0  0  0
    8.9922  -16.1238   24.9535 N   0  0  0  0  0  0  0  0  0  0  0  0
    9.4647  -15.5718   27.2656 C   0  0  0  0  0  0  0  0  0  0  0  0
    9.5384  -16.8426   27.4299 O   0  0  0  0  0  0  0  0  0  0  0  0
    9.7845  -14.8127   28.3546 O   0  0  0  0  0  0  0  0  0  0  0  0
  2  9  1  0
  2  1  1  1
  3  2  1  0
  4  8  1  0
  4  3  1  0
  5  4  2  0
  6  5  1  0
  6  7  1  0
  7  8  2  0
  9 11  1  0
 10  9  2  0
 11 12  1  0
 12 13  1  6
 13 14  1  0
 15 14  1  0
 15 19  1  0
 16 15  2  0
 17 18  2  0
 17 12  1  0
 20 21  1  0
 21 22  1  0
 22 23  1  0
 24 23  1  1
 24 26  1  0
 24 25  1  0
 25 17  1  0
 26 28  1  0
 27 26  2  0
M  END
$$$$
