HEM.pdb
     RDKit          3D

 28 28  0  0  1  0  0  0  0  0999 V2000
    7.9088  -17.0212   19.1019 N   0  0  0  0  0  0  0  0  0  0  0  0
    8.4333  -16.0025   19.9932 C   0  0  1  0  0  0  0  0  0  0  0  0
    7.5126  -14.8023   19.8680 C   0  0  0  0  0  0  0  0  0  0  0  0
    7.6914  -14.2751   18.4895 C   0  0  0  0  0  0  0  0  0  0  0  0
    8.4601  -13.1784   18.1550 C   0  0  0  0  0  0  0  0  0  0  0  0
    8.4052  -12.9633   16.8341 N   0  0  0  0  0  0  0  0  0  0  0  0
    7.6112  -13.9094   16.3270 C   0  0  0  0  0  0  0  0  0  0  0  0
    7.1649  -14.7226   17.3356 N   0  0  0  0  0  0  0  0  0  0  0  0
    8.5451  -16.5068   21.3857 C   0  0  0  0  0  0  0  0  0  0  0  0
    7.5021  -16.6157   22.0791 O   0  0  0  0  0  0  0  0  0  0  0  0
    9.8361  -16.8330   21.8450 N   0  0  0  0  0  0  0  0  0  0  0  0
   10.0490  -17.3455   23.1614 C   0  0  1  0  0  0  0  0  0  0  0  0
   11.2485  -18.2192   23.3306 C   0  0  0  0  0  0  0  0  0  0  0  0
   11.4398  -18.7862   24.6900 C   0  0  0  0  0  0  0  0  0  0  0  0
   12.6948  -19.5049   24.9174 C   0  0  0  0  0  0  0  0  0  0  0  0
   12.7482  -20.7794   24.9191 O   0  0  0  0  0  0  0  0  0  0  0  0
   10.0872  -16.2152   24.1470 C   0  0  0  0  0  0  0  0  0  0  0  0
   10.8814  -15.2477   24.0205 O   0  0  0  0  0  0  0  0  0  0  0  0
   13.8778  -18.7848   25.1408 O   0  0  0  0  0  0  0  0  0  0  0  0
    6.4691  -10.7031   26.1893 C   0  0  0  0  0  0  0  0  0  0  0  0
    6.2692  -12.3211   26.8894 S   0  0  0  0  0  0  0  0  0  0  0  0
    7.7415  -13.2966   27.1148 C   0  0  0  0  0  0  0  0  0  0  0  0
    7.9834  -14.3520   26.0875 C   0  0  0  0  0  0  0  0  0  0  0  0
    9.2230  -15.1525   26.2514 C   0  0  2  0  0  0  0  0  0  0  0  0
    9.2131  -16.2281   25.2500 N   0  0  0  0  0  0  0  0  0  0  0  0
    9.3404  -15.7417   27.6208 C   0  0  0  0  0  0  0  0  0  0  0  0
    9.2011  -17.0088   27.7709 O   0  0  0  0  0  0  0  0  0  0  0  0
    9.5887  -15.0324   28.7609 O   0  0  0  0  0  0  0  0  0  0  0  0
  2  9  1  0
  2  1  1  6
  3  2  1  0
  4  8  1  0
  4  3  1  0
  5  4  2  0
  6  5  1  0
  6  7  1  0
  7  8  2  0
  9 11  1  0
 10  9  2  0
 11 12  1  0
 12 13  1  6
 13 14  1  0
 15 14  1  0
 15 19  1  0
 16 15  2  0
 17 18  2  0
 17 12  1  0
 20 21  1  0
 21 22  1  0
 22 23  1  0
 24 23  1  1
 24 26  1  0
 24 25  1  0
 25 17  1  0
 26 28  1  0
 27 26  2  0
M  END
$$$$
