HEM.pdb
     RDKit          3D

 28 28  0  0  1  0  0  0  0  0999 V2000
    9.9003  -15.6815   18.3877 N   0  0  0  0  0  0  0  0  0  0  0  0
    8.6237  -15.3511   18.9949 C   0  0  1  0  0  0  0  0  0  0  0  0
    7.5525  -15.7646   18.0023 C   0  0  0  0  0  0  0  0  0  0  0  0
    7.7757  -14.9522   16.7775 C   0  0  0  0  0  0  0  0  0  0  0  0
    8.6377  -13.8778   16.6865 C   0  0  0  0  0  0  0  0  0  0  0  0
    8.6007  -13.3612   15.4513 N   0  0  0  0  0  0  0  0  0  0  0  0
    7.7260  -14.0940   14.7581 C   0  0  0  0  0  0  0  0  0  0  0  0
    7.2108  -15.0760   15.5632 N   0  0  0  0  0  0  0  0  0  0  0  0
    8.4702  -16.0023   20.3210 C   0  0  0  0  0  0  0  0  0  0  0  0
    7.4008  -15.8358   20.9605 O   0  0  0  0  0  0  0  0  0  0  0  0
    9.5538  -16.7748   20.7823 N   0  0  0  0  0  0  0  0  0  0  0  0
    9.5666  -17.3242   22.1010 C   0  0  1  0  0  0  0  0  0  0  0  0
   10.5883  -18.3845   22.3515 C   0  0  0  0  0  0  0  0  0  0  0  0
   10.5539  -18.9988   23.7034 C   0  0  0  0  0  0  0  0  0  0  0  0
   11.6091  -19.9703   23.9964 C   0  0  0  0  0  0  0  0  0  0  0  0
   11.4793  -21.2079   23.7163 O   0  0  0  0  0  0  0  0  0  0  0  0
    9.7045  -16.2222   23.1095 C   0  0  0  0  0  0  0  0  0  0  0  0
   10.6168  -15.3594   23.0328 O   0  0  0  0  0  0  0  0  0  0  0  0
   12.8001  -19.5420   24.6016 O   0  0  0  0  0  0  0  0  0  0  0  0
    6.3496  -10.6155   27.1774 C   0  0  0  0  0  0  0  0  0  0  0  0
    6.3536  -12.0132   26.0847 S   0  0  0  0  0  0  0  0  0  0  0  0
    7.7507  -13.1130   26.1772 C   0  0  0  0  0  0  0  0  0  0  0  0
    7.7810  -14.2091   25.1646 C   0  0  0  0  0  0  0  0  0  0  0  0
    8.9370  -15.1378   25.2401 C   0  0  2  0  0  0  0  0  0  0  0  0
    8.7915  -16.1426   24.1776 N   0  0  0  0  0  0  0  0  0  0  0  0
    9.0305  -15.8198   26.5676 C   0  0  0  0  0  0  0  0  0  0  0  0
    8.7073  -17.0586   26.6588 O   0  0  0  0  0  0  0  0  0  0  0  0
    9.4396  -15.2259   27.7271 O   0  0  0  0  0  0  0  0  0  0  0  0
  2  9  1  0
  2  1  1  6
  3  2  1  0
  4  8  1  0
  4  3  1  0
  5  4  2  0
  6  5  1  0
  6  7  1  0
  7  8  2  0
  9 11  1  0
 10  9  2  0
 11 12  1  0
 12 13  1  6
 13 14  1  0
 15 14  1  0
 15 19  1  0
 16 15  2  0
 17 18  2  0
 17 12  1  0
 20 21  1  0
 21 22  1  0
 22 23  1  0
 24 23  1  1
 24 26  1  0
 24 25  1  0
 25 17  1  0
 26 28  1  0
 27 26  2  0
M  END
$$$$
