HEM.pdb
     RDKit          3D

 28 28  0  0  1  0  0  0  0  0999 V2000
    8.5906  -16.5538   18.9176 N   0  0  0  0  0  0  0  0  0  0  0  0
    8.6780  -15.7070   20.0933 C   0  0  1  0  0  0  0  0  0  0  0  0
    7.4657  -14.7942   20.0604 C   0  0  0  0  0  0  0  0  0  0  0  0
    7.6036  -13.9532   18.8423 C   0  0  0  0  0  0  0  0  0  0  0  0
    6.8115  -14.0549   17.7163 C   0  0  0  0  0  0  0  0  0  0  0  0
    7.1994  -13.1603   16.7982 N   0  0  0  0  0  0  0  0  0  0  0  0
    8.2276  -12.4928   17.3274 C   0  0  0  0  0  0  0  0  0  0  0  0
    8.4866  -12.9718   18.5849 N   0  0  0  0  0  0  0  0  0  0  0  0
    8.7644  -16.5143   21.3370 C   0  0  0  0  0  0  0  0  0  0  0  0
    7.7061  -16.7966   21.9540 O   0  0  0  0  0  0  0  0  0  0  0  0
   10.0499  -16.9148   21.7504 N   0  0  0  0  0  0  0  0  0  0  0  0
   10.2524  -17.6038   22.9854 C   0  0  1  0  0  0  0  0  0  0  0  0
   11.4213  -18.5327   23.0252 C   0  0  0  0  0  0  0  0  0  0  0  0
   12.2165  -18.6138   21.7733 C   0  0  0  0  0  0  0  0  0  0  0  0
   12.0483  -19.8335   20.9813 C   0  0  0  0  0  0  0  0  0  0  0  0
   11.6514  -19.7981   19.7696 O   0  0  0  0  0  0  0  0  0  0  0  0
   10.3362  -16.6157   24.1110 C   0  0  0  0  0  0  0  0  0  0  0  0
   11.2636  -15.7690   24.1863 O   0  0  0  0  0  0  0  0  0  0  0  0
   12.3277  -21.0813   21.5584 O   0  0  0  0  0  0  0  0  0  0  0  0
    7.1390  -10.9564   26.9011 C   0  0  0  0  0  0  0  0  0  0  0  0
    6.7439  -12.6678   27.1517 S   0  0  0  0  0  0  0  0  0  0  0  0
    8.1071  -13.8042   27.2934 C   0  0  0  0  0  0  0  0  0  0  0  0
    8.2332  -14.8057   26.1939 C   0  0  0  0  0  0  0  0  0  0  0  0
    9.4120  -15.7060   26.2610 C   0  0  2  0  0  0  0  0  0  0  0  0
    9.3534  -16.6282   25.1184 N   0  0  0  0  0  0  0  0  0  0  0  0
    9.4569  -16.4869   27.5356 C   0  0  0  0  0  0  0  0  0  0  0  0
    9.1449  -17.7318   27.5180 O   0  0  0  0  0  0  0  0  0  0  0  0
    9.8094  -15.9801   28.7535 O   0  0  0  0  0  0  0  0  0  0  0  0
  2  9  1  0
  2  1  1  6
  3  2  1  0
  4  8  1  0
  4  3  1  0
  5  4  2  0
  6  5  1  0
  6  7  1  0
  7  8  2  0
  9 11  1  0
 10  9  2  0
 11 12  1  0
 12 13  1  6
 13 14  1  0
 15 14  1  0
 15 19  1  0
 16 15  2  0
 17 18  2  0
 17 12  1  0
 20 21  1  0
 21 22  1  0
 22 23  1  0
 24 23  1  1
 24 26  1  0
 24 25  1  0
 25 17  1  0
 26 28  1  0
 27 26  2  0
M  END
$$$$
