HEM.pdb
     RDKit          3D

 28 28  0  0  1  0  0  0  0  0999 V2000
    8.0045  -17.1287   19.1062 N   0  0  0  0  0  0  0  0  0  0  0  0
    8.5249  -16.1596   20.0535 C   0  0  1  0  0  0  0  0  0  0  0  0
    7.5206  -15.0227   20.1054 C   0  0  0  0  0  0  0  0  0  0  0  0
    7.6973  -14.2459   18.8503 C   0  0  0  0  0  0  0  0  0  0  0  0
    8.4612  -13.1027   18.7278 C   0  0  0  0  0  0  0  0  0  0  0  0
    8.4055  -12.6441   17.4706 N   0  0  0  0  0  0  0  0  0  0  0  0
    7.6157  -13.4818   16.7944 C   0  0  0  0  0  0  0  0  0  0  0  0
    7.1729  -14.4715   17.6324 N   0  0  0  0  0  0  0  0  0  0  0  0
    8.7716  -16.7786   21.3809 C   0  0  0  0  0  0  0  0  0  0  0  0
    7.8103  -17.3091   21.9931 O   0  0  0  0  0  0  0  0  0  0  0  0
   10.0897  -16.7265   21.8746 N   0  0  0  0  0  0  0  0  0  0  0  0
   10.4420  -17.3352   23.1182 C   0  0  1  0  0  0  0  0  0  0  0  0
   11.7334  -18.0855   23.1296 C   0  0  0  0  0  0  0  0  0  0  0  0
   12.1000  -18.7074   24.4278 C   0  0  0  0  0  0  0  0  0  0  0  0
   13.4241  -19.3284   24.4934 C   0  0  0  0  0  0  0  0  0  0  0  0
   13.5728  -20.5952   24.4906 O   0  0  0  0  0  0  0  0  0  0  0  0
   10.4303  -16.3058   24.2094 C   0  0  0  0  0  0  0  0  0  0  0  0
   11.2211  -15.3274   24.2107 O   0  0  0  0  0  0  0  0  0  0  0  0
   14.5686  -18.5199   24.5616 O   0  0  0  0  0  0  0  0  0  0  0  0
    7.0063  -11.0240   26.4526 C   0  0  0  0  0  0  0  0  0  0  0  0
    6.6861  -12.5842   27.2342 S   0  0  0  0  0  0  0  0  0  0  0  0
    8.0653  -13.6931   27.4303 C   0  0  0  0  0  0  0  0  0  0  0  0
    8.2834  -14.6599   26.3143 C   0  0  0  0  0  0  0  0  0  0  0  0
    9.5110  -15.4908   26.3991 C   0  0  2  0  0  0  0  0  0  0  0  0
    9.5115  -16.4294   25.2684 N   0  0  0  0  0  0  0  0  0  0  0  0
    9.5929  -16.2515   27.6840 C   0  0  0  0  0  0  0  0  0  0  0  0
    9.6718  -15.6050   28.7900 O   0  0  0  0  0  0  0  0  0  0  0  0
    9.5924  -17.6128   27.7906 O   0  0  0  0  0  0  0  0  0  0  0  0
  2  9  1  0
  2  1  1  6
  3  2  1  0
  4  8  1  0
  4  3  1  0
  5  4  2  0
  6  5  1  0
  6  7  1  0
  7  8  2  0
  9 11  1  0
 10  9  2  0
 11 12  1  0
 12 13  1  6
 13 14  1  0
 15 14  1  0
 15 19  1  0
 16 15  2  0
 17 18  2  0
 17 12  1  0
 20 21  1  0
 21 22  1  0
 22 23  1  0
 24 23  1  1
 24 26  1  0
 24 25  1  0
 25 17  1  0
 26 28  1  0
 27 26  2  0
M  END
$$$$
