HEM.pdb
     RDKit          3D

 28 28  0  0  1  0  0  0  0  0999 V2000
    7.8394  -17.0951   18.7053 N   0  0  0  0  0  0  0  0  0  0  0  0
    8.5584  -16.2265   19.6195 C   0  0  1  0  0  0  0  0  0  0  0  0
    7.8117  -14.9051   19.6386 C   0  0  0  0  0  0  0  0  0  0  0  0
    7.9845  -14.3031   18.2904 C   0  0  0  0  0  0  0  0  0  0  0  0
    8.7966  -13.2244   18.0033 C   0  0  0  0  0  0  0  0  0  0  0  0
    8.7225  -12.9263   16.6996 N   0  0  0  0  0  0  0  0  0  0  0  0
    7.8736  -13.8021   16.1565 C   0  0  0  0  0  0  0  0  0  0  0  0
    7.4119  -14.6544   17.1251 N   0  0  0  0  0  0  0  0  0  0  0  0
    8.6849  -16.8424   20.9651 C   0  0  0  0  0  0  0  0  0  0  0  0
    7.6627  -17.3328   21.5084 O   0  0  0  0  0  0  0  0  0  0  0  0
    9.9644  -16.8334   21.5538 N   0  0  0  0  0  0  0  0  0  0  0  0
   10.1903  -17.3918   22.8492 C   0  0  1  0  0  0  0  0  0  0  0  0
   11.4235  -18.2225   22.9909 C   0  0  0  0  0  0  0  0  0  0  0  0
   11.6388  -18.8236   24.3320 C   0  0  0  0  0  0  0  0  0  0  0  0
   12.9129  -19.5169   24.5301 C   0  0  0  0  0  0  0  0  0  0  0  0
   14.0304  -18.9103   24.4293 O   0  0  0  0  0  0  0  0  0  0  0  0
   10.1766  -16.3033   23.8814 C   0  0  0  0  0  0  0  0  0  0  0  0
   10.8968  -15.2771   23.7769 O   0  0  0  0  0  0  0  0  0  0  0  0
   12.9191  -20.8853   24.8394 O   0  0  0  0  0  0  0  0  0  0  0  0
    6.0853  -11.1708   27.5280 C   0  0  0  0  0  0  0  0  0  0  0  0
    6.1529  -12.8072   26.8458 S   0  0  0  0  0  0  0  0  0  0  0  0
    7.6853  -13.6971   27.0189 C   0  0  0  0  0  0  0  0  0  0  0  0
    7.9984  -14.6671   25.9286 C   0  0  0  0  0  0  0  0  0  0  0  0
    9.2912  -15.3877   26.0453 C   0  0  2  0  0  0  0  0  0  0  0  0
    9.3370  -16.4242   25.0045 N   0  0  0  0  0  0  0  0  0  0  0  0
    9.4698  -16.0173   27.3899 C   0  0  0  0  0  0  0  0  0  0  0  0
    9.3796  -17.2928   27.5006 O   0  0  0  0  0  0  0  0  0  0  0  0
    9.7267  -15.3375   28.5460 O   0  0  0  0  0  0  0  0  0  0  0  0
  2  9  1  0
  2  1  1  6
  3  2  1  0
  4  8  1  0
  4  3  1  0
  5  4  2  0
  6  5  1  0
  6  7  1  0
  7  8  2  0
  9 11  1  0
 10  9  2  0
 11 12  1  0
 12 13  1  6
 13 14  1  0
 15 14  1  0
 15 19  1  0
 16 15  2  0
 17 18  2  0
 17 12  1  0
 20 21  1  0
 21 22  1  0
 22 23  1  0
 24 23  1  1
 24 26  1  0
 24 25  1  0
 25 17  1  0
 26 28  1  0
 27 26  2  0
M  END
$$$$
