HEM.pdb
     RDKit          3D

 28 28  0  0  1  0  0  0  0  0999 V2000
    7.0244  -16.7309   19.1270 N   0  0  0  0  0  0  0  0  0  0  0  0
    8.2024  -16.2163   19.8013 C   0  0  1  0  0  0  0  0  0  0  0  0
    8.0066  -14.7167   19.9306 C   0  0  0  0  0  0  0  0  0  0  0  0
    8.0600  -14.1637   18.5517 C   0  0  0  0  0  0  0  0  0  0  0  0
    8.2724  -14.9074   17.4082 C   0  0  0  0  0  0  0  0  0  0  0  0
    8.2700  -14.1091   16.3328 N   0  0  0  0  0  0  0  0  0  0  0  0
    8.0592  -12.8687   16.7797 C   0  0  0  0  0  0  0  0  0  0  0  0
    7.9289  -12.8888   18.1437 N   0  0  0  0  0  0  0  0  0  0  0  0
    8.4158  -16.8896   21.1080 C   0  0  0  0  0  0  0  0  0  0  0  0
    7.4250  -17.1026   21.8518 O   0  0  0  0  0  0  0  0  0  0  0  0
    9.7385  -17.2487   21.4327 N   0  0  0  0  0  0  0  0  0  0  0  0
   10.0779  -17.7391   22.7308 C   0  0  1  0  0  0  0  0  0  0  0  0
   11.4303  -18.3608   22.8556 C   0  0  0  0  0  0  0  0  0  0  0  0
   11.6039  -19.2889   24.0022 C   0  0  0  0  0  0  0  0  0  0  0  0
   12.3665  -20.5093   23.7333 C   0  0  0  0  0  0  0  0  0  0  0  0
   13.6216  -20.5786   23.9500 O   0  0  0  0  0  0  0  0  0  0  0  0
    9.9133  -16.6469   23.7460 C   0  0  0  0  0  0  0  0  0  0  0  0
   10.5332  -15.5559   23.6570 O   0  0  0  0  0  0  0  0  0  0  0  0
   11.7115  -21.6403   23.2233 O   0  0  0  0  0  0  0  0  0  0  0  0
    7.1366  -11.3590   27.6839 C   0  0  0  0  0  0  0  0  0  0  0  0
    6.9783  -12.6171   26.4430 S   0  0  0  0  0  0  0  0  0  0  0  0
    7.2233  -14.3033   26.9594 C   0  0  0  0  0  0  0  0  0  0  0  0
    7.5605  -15.2711   25.8743 C   0  0  0  0  0  0  0  0  0  0  0  0
    8.9287  -15.8464   25.9126 C   0  0  2  0  0  0  0  0  0  0  0  0
    9.0421  -16.8387   24.8347 N   0  0  0  0  0  0  0  0  0  0  0  0
    9.2351  -16.4933   27.2257 C   0  0  0  0  0  0  0  0  0  0  0  0
    9.1565  -17.7703   27.3275 O   0  0  0  0  0  0  0  0  0  0  0  0
    9.6007  -15.8284   28.3609 O   0  0  0  0  0  0  0  0  0  0  0  0
  2  9  1  0
  2  1  1  1
  3  2  1  0
  4  8  1  0
  4  3  1  0
  5  4  2  0
  6  5  1  0
  6  7  1  0
  7  8  2  0
  9 11  1  0
 10  9  2  0
 11 12  1  0
 12 13  1  6
 13 14  1  0
 15 14  1  0
 15 19  1  0
 16 15  2  0
 17 18  2  0
 17 12  1  0
 20 21  1  0
 21 22  1  0
 22 23  1  0
 24 23  1  1
 24 26  1  0
 24 25  1  0
 25 17  1  0
 26 28  1  0
 27 26  2  0
M  END
$$$$
