HEM.pdb
     RDKit          3D

 28 28  0  0  1  0  0  0  0  0999 V2000
   10.0792  -16.4170   19.7378 N   0  0  0  0  0  0  0  0  0  0  0  0
    9.1517  -15.6679   20.5660 C   0  0  1  0  0  0  0  0  0  0  0  0
    7.8158  -15.6871   19.8457 C   0  0  0  0  0  0  0  0  0  0  0  0
    7.8563  -14.5824   18.8517 C   0  0  0  0  0  0  0  0  0  0  0  0
    8.9282  -13.7357   18.6526 C   0  0  0  0  0  0  0  0  0  0  0  0
    8.6413  -12.8479   17.6916 N   0  0  0  0  0  0  0  0  0  0  0  0
    7.4010  -13.1207   17.2792 C   0  0  0  0  0  0  0  0  0  0  0  0
    6.9067  -14.1856   17.9858 N   0  0  0  0  0  0  0  0  0  0  0  0
    9.0796  -16.2272   21.9401 C   0  0  0  0  0  0  0  0  0  0  0  0
    8.0679  -15.9816   22.6447 O   0  0  0  0  0  0  0  0  0  0  0  0
   10.1706  -17.0075   22.3700 N   0  0  0  0  0  0  0  0  0  0  0  0
   10.2344  -17.5272   23.6992 C   0  0  1  0  0  0  0  0  0  0  0  0
   11.1963  -18.6501   23.9105 C   0  0  0  0  0  0  0  0  0  0  0  0
   10.9602  -19.8589   23.0803 C   0  0  0  0  0  0  0  0  0  0  0  0
   11.9257  -20.9479   23.2389 C   0  0  0  0  0  0  0  0  0  0  0  0
   11.8922  -21.7344   24.2425 O   0  0  0  0  0  0  0  0  0  0  0  0
   10.5139  -16.4155   24.6669 C   0  0  0  0  0  0  0  0  0  0  0  0
   11.4971  -15.6430   24.5280 O   0  0  0  0  0  0  0  0  0  0  0  0
   12.9198  -21.1427   22.2683 O   0  0  0  0  0  0  0  0  0  0  0  0
    5.9563  -12.4387   26.2622 C   0  0  0  0  0  0  0  0  0  0  0  0
    7.3003  -11.8898   27.2821 S   0  0  0  0  0  0  0  0  0  0  0  0
    8.6831  -12.9958   27.4687 C   0  0  0  0  0  0  0  0  0  0  0  0
    8.6669  -14.2068   26.5965 C   0  0  0  0  0  0  0  0  0  0  0  0
    9.8452  -15.1041   26.7009 C   0  0  2  0  0  0  0  0  0  0  0  0
    9.6571  -16.2228   25.7667 N   0  0  0  0  0  0  0  0  0  0  0  0
   10.0340  -15.6328   28.0869 C   0  0  0  0  0  0  0  0  0  0  0  0
    9.7310  -16.8547   28.3372 O   0  0  0  0  0  0  0  0  0  0  0  0
   10.5128  -14.9115   29.1428 O   0  0  0  0  0  0  0  0  0  0  0  0
  2  9  1  0
  2  1  1  6
  3  2  1  0
  4  8  1  0
  4  3  1  0
  5  4  2  0
  6  5  1  0
  6  7  1  0
  7  8  2  0
  9 11  1  0
 10  9  2  0
 11 12  1  0
 12 13  1  6
 13 14  1  0
 15 14  1  0
 15 19  1  0
 16 15  2  0
 17 18  2  0
 17 12  1  0
 20 21  1  0
 21 22  1  0
 22 23  1  0
 24 23  1  1
 24 26  1  0
 24 25  1  0
 25 17  1  0
 26 28  1  0
 27 26  2  0
M  END
$$$$
