HEM.pdb
     RDKit          3D

 28 28  0  0  1  0  0  0  0  0999 V2000
    7.4498  -16.6882   18.6147 N   0  0  0  0  0  0  0  0  0  0  0  0
    8.4679  -15.9888   19.3773 C   0  0  1  0  0  0  0  0  0  0  0  0
    8.1989  -14.5056   19.1999 C   0  0  0  0  0  0  0  0  0  0  0  0
    8.3435  -14.2211   17.7480 C   0  0  0  0  0  0  0  0  0  0  0  0
    7.3980  -13.5863   16.9678 C   0  0  0  0  0  0  0  0  0  0  0  0
    7.8318  -13.4920   15.7041 N   0  0  0  0  0  0  0  0  0  0  0  0
    9.0402  -14.0591   15.6730 C   0  0  0  0  0  0  0  0  0  0  0  0
    9.3662  -14.5124   16.9245 N   0  0  0  0  0  0  0  0  0  0  0  0
    8.4661  -16.4140   20.8005 C   0  0  0  0  0  0  0  0  0  0  0  0
    7.3739  -16.4561   21.4216 O   0  0  0  0  0  0  0  0  0  0  0  0
    9.7112  -16.7451   21.3695 N   0  0  0  0  0  0  0  0  0  0  0  0
    9.8101  -17.2319   22.7090 C   0  0  1  0  0  0  0  0  0  0  0  0
   10.8931  -18.2300   22.9576 C   0  0  0  0  0  0  0  0  0  0  0  0
   10.7099  -19.5492   22.3001 C   0  0  0  0  0  0  0  0  0  0  0  0
   11.8267  -20.4883   22.4180 C   0  0  0  0  0  0  0  0  0  0  0  0
   11.8874  -21.5514   21.7158 O   0  0  0  0  0  0  0  0  0  0  0  0
    9.9384  -16.0793   23.6606 C   0  0  0  0  0  0  0  0  0  0  0  0
   10.7773  -15.1588   23.4827 O   0  0  0  0  0  0  0  0  0  0  0  0
   12.8647  -20.2240   23.3241 O   0  0  0  0  0  0  0  0  0  0  0  0
    6.0330  -11.0353   28.1355 C   0  0  0  0  0  0  0  0  0  0  0  0
    6.2274  -12.3078   26.9146 S   0  0  0  0  0  0  0  0  0  0  0  0
    7.8002  -13.1398   26.8512 C   0  0  0  0  0  0  0  0  0  0  0  0
    7.9507  -14.1606   25.7728 C   0  0  0  0  0  0  0  0  0  0  0  0
    9.2186  -14.9332   25.7755 C   0  0  2  0  0  0  0  0  0  0  0  0
    9.1004  -16.0166   24.7897 N   0  0  0  0  0  0  0  0  0  0  0  0
    9.5287  -15.5088   27.1204 C   0  0  0  0  0  0  0  0  0  0  0  0
    9.3874  -16.7706   27.3087 O   0  0  0  0  0  0  0  0  0  0  0  0
    9.9604  -14.7920   28.1994 O   0  0  0  0  0  0  0  0  0  0  0  0
  2  9  1  0
  2  1  1  6
  3  2  1  0
  4  8  1  0
  4  3  1  0
  5  4  2  0
  6  5  1  0
  6  7  1  0
  7  8  2  0
  9 11  1  0
 10  9  2  0
 11 12  1  0
 12 13  1  6
 13 14  1  0
 15 14  1  0
 15 19  1  0
 16 15  2  0
 17 18  2  0
 17 12  1  0
 20 21  1  0
 21 22  1  0
 22 23  1  0
 24 23  1  1
 24 26  1  0
 24 25  1  0
 25 17  1  0
 26 28  1  0
 27 26  2  0
M  END
$$$$
