HEM.pdb
     RDKit          3D

 28 28  0  0  1  0  0  0  0  0999 V2000
    7.5221  -17.1572   18.8115 N   0  0  0  0  0  0  0  0  0  0  0  0
    8.4333  -16.3387   19.5906 C   0  0  1  0  0  0  0  0  0  0  0  0
    7.8298  -14.9469   19.6406 C   0  0  0  0  0  0  0  0  0  0  0  0
    7.9442  -14.3877   18.2679 C   0  0  0  0  0  0  0  0  0  0  0  0
    8.5150  -15.0390   17.1929 C   0  0  0  0  0  0  0  0  0  0  0  0
    8.4659  -14.2606   16.1040 N   0  0  0  0  0  0  0  0  0  0  0  0
    7.8714  -13.1241   16.4749 C   0  0  0  0  0  0  0  0  0  0  0  0
    7.5461  -13.1895   17.8045 N   0  0  0  0  0  0  0  0  0  0  0  0
    8.6667  -16.9200   20.9373 C   0  0  0  0  0  0  0  0  0  0  0  0
    7.6764  -17.2545   21.6357 O   0  0  0  0  0  0  0  0  0  0  0  0
   10.0063  -17.0578   21.3499 N   0  0  0  0  0  0  0  0  0  0  0  0
   10.3386  -17.6258   22.6180 C   0  0  1  0  0  0  0  0  0  0  0  0
   11.5983  -18.4274   22.6590 C   0  0  0  0  0  0  0  0  0  0  0  0
   11.9411  -19.0122   23.9806 C   0  0  0  0  0  0  0  0  0  0  0  0
   13.2323  -19.6967   24.0666 C   0  0  0  0  0  0  0  0  0  0  0  0
   13.9660  -19.6186   25.1072 O   0  0  0  0  0  0  0  0  0  0  0  0
   10.3736  -16.5504   23.6633 C   0  0  0  0  0  0  0  0  0  0  0  0
   11.1964  -15.6000   23.6139 O   0  0  0  0  0  0  0  0  0  0  0  0
   13.6870  -20.4625   22.9826 O   0  0  0  0  0  0  0  0  0  0  0  0
    6.7405  -11.4790   28.1802 C   0  0  0  0  0  0  0  0  0  0  0  0
    6.8248  -12.7550   26.9504 S   0  0  0  0  0  0  0  0  0  0  0  0
    8.2302  -13.8466   27.0070 C   0  0  0  0  0  0  0  0  0  0  0  0
    8.3683  -14.7859   25.8553 C   0  0  0  0  0  0  0  0  0  0  0  0
    9.5630  -15.6674   25.8696 C   0  0  2  0  0  0  0  0  0  0  0  0
    9.4635  -16.5972   24.7359 N   0  0  0  0  0  0  0  0  0  0  0  0
    9.6822  -16.4399   27.1444 C   0  0  0  0  0  0  0  0  0  0  0  0
    9.4191  -17.6962   27.1417 O   0  0  0  0  0  0  0  0  0  0  0  0
   10.0557  -15.9140   28.3479 O   0  0  0  0  0  0  0  0  0  0  0  0
  2  9  1  0
  2  1  1  6
  3  2  1  0
  4  8  1  0
  4  3  1  0
  5  4  2  0
  6  5  1  0
  6  7  1  0
  7  8  2  0
  9 11  1  0
 10  9  2  0
 11 12  1  0
 12 13  1  6
 13 14  1  0
 15 14  1  0
 15 19  1  0
 16 15  2  0
 17 18  2  0
 17 12  1  0
 20 21  1  0
 21 22  1  0
 22 23  1  0
 24 23  1  1
 24 26  1  0
 24 25  1  0
 25 17  1  0
 26 28  1  0
 27 26  2  0
M  END
$$$$
