WCY.pdb
     RDKit          3D

 33 35  0  0  1  0  0  0  0  0999 V2000
   25.8688  -20.4662  -17.2094 N   0  0  0  0  0  0  0  0  0  0  0  0
   25.8319  -19.7723  -15.9481 C   0  0  1  0  0  0  0  0  0  0  0  0
   24.4461  -19.3780  -15.5927 C   0  0  0  0  0  0  0  0  0  0  0  0
   23.6773  -18.7504  -16.6840 C   0  0  0  0  0  0  0  0  0  0  0  0
   22.4482  -19.1915  -17.1914 C   0  0  0  0  0  0  0  0  0  0  0  0
   22.0522  -18.3521  -18.1515 N   0  0  0  0  0  0  0  0  0  0  0  0
   22.9457  -17.3706  -18.3199 C   0  0  0  0  0  0  0  0  0  0  0  0
   23.0120  -16.2896  -19.1612 C   0  0  0  0  0  0  0  0  0  0  0  0
   24.0756  -15.3999  -19.1476 C   0  0  0  0  0  0  0  0  0  0  0  0
   25.0641  -15.6678  -18.2364 C   0  0  0  0  0  0  0  0  0  0  0  0
   25.0425  -16.7355  -17.3744 C   0  0  0  0  0  0  0  0  0  0  0  0
   23.9704  -17.6152  -17.4006 C   0  0  0  0  0  0  0  0  0  0  0  0
   26.4631  -20.6645  -14.9400 C   0  0  0  0  0  0  0  0  0  0  0  0
   26.4734  -21.9247  -15.0647 O   0  0  0  0  0  0  0  0  0  0  0  0
   27.0985  -20.1671  -13.7653 N   0  0  0  0  0  0  0  0  0  0  0  0
   27.6986  -21.0092  -12.7487 C   0  0  1  0  0  0  0  0  0  0  0  0
   28.9821  -20.3317  -12.3141 C   0  0  0  0  0  0  0  0  0  0  0  0
   29.6371  -19.4778  -13.7907 S   0  0  0  0  0  0  0  0  0  0  0  0
   26.7981  -21.1982  -11.5835 C   0  0  0  0  0  0  0  0  0  0  0  0
   27.3216  -21.5151  -10.4872 O   0  0  0  0  0  0  0  0  0  0  0  0
   28.2598  -20.4389   -5.2396 O   0  0  0  0  0  0  0  0  0  0  0  0
   27.4151  -20.2660   -6.3504 C   0  0  0  0  0  0  0  0  0  0  0  0
   27.3546  -19.0630   -7.0242 C   0  0  0  0  0  0  0  0  0  0  0  0
   26.5265  -18.9237   -8.0979 C   0  0  0  0  0  0  0  0  0  0  0  0
   25.7245  -19.9594   -8.5534 C   0  0  0  0  0  0  0  0  0  0  0  0
   24.8649  -19.7059   -9.7179 C   0  0  0  0  0  0  0  0  0  0  0  0
   24.5294  -20.9628  -10.5039 C   0  0  2  0  0  0  0  0  0  0  0  0
   25.4093  -21.0400  -11.6546 N   0  0  0  0  0  0  0  0  0  0  0  0
   23.1067  -20.7981  -10.9443 C   0  0  0  0  0  0  0  0  0  0  0  0
   22.8466  -20.6450  -12.1633 O   0  0  0  0  0  0  0  0  0  0  0  0
   25.7978  -21.1528   -7.8691 C   0  0  0  0  0  0  0  0  0  0  0  0
   26.6301  -21.3084   -6.7821 C   0  0  0  0  0  0  0  0  0  0  0  0
   22.0458  -20.8072  -10.0513 O   0  0  0  0  0  0  0  0  0  0  0  0
  2  1  1  6
  3  2  1  0
  4  5  2  0
  4  3  1  0
  6  5  1  0
  7 12  2  0
  7  6  1  0
  8  7  1  0
  9 10  1  0
  9  8  2  0
 10 11  2  0
 11 12  1  0
 12  4  1  0
 13  2  1  0
 14 13  2  0
 15 13  1  0
 16 17  1  1
 16 15  1  0
 17 18  1  0
 19 16  1  0
 20 19  2  0
 22 23  2  0
 22 21  1  0
 24 23  1  0
 25 24  2  0
 27 26  1  1
 26 25  1  0
 27 28  1  0
 28 19  1  0
 29 27  1  0
 29 33  1  0
 30 29  2  0
 31 25  1  0
 31 32  2  0
 32 22  1  0
M  END
$$$$
