WCY.pdb
     RDKit          3D

 33 35  0  0  1  0  0  0  0  0999 V2000
   21.2924  -24.8721  -13.9388 N   0  0  0  0  0  0  0  0  0  0  0  0
   20.5508  -24.7605  -12.7094 C   0  0  1  0  0  0  0  0  0  0  0  0
   19.6968  -23.5468  -12.7060 C   0  0  0  0  0  0  0  0  0  0  0  0
   20.4158  -22.2794  -12.4758 C   0  0  0  0  0  0  0  0  0  0  0  0
   21.3174  -21.6670  -13.3559 C   0  0  0  0  0  0  0  0  0  0  0  0
   21.7399  -20.5227  -12.8125 N   0  0  0  0  0  0  0  0  0  0  0  0
   21.1740  -20.3300  -11.6156 C   0  0  0  0  0  0  0  0  0  0  0  0
   21.2762  -19.3397  -10.6724 C   0  0  0  0  0  0  0  0  0  0  0  0
   20.5750  -19.3755   -9.4765 C   0  0  0  0  0  0  0  0  0  0  0  0
   19.7679  -20.4682   -9.2922 C   0  0  0  0  0  0  0  0  0  0  0  0
   19.6326  -21.4834  -10.2058 C   0  0  0  0  0  0  0  0  0  0  0  0
   20.3405  -21.4312  -11.3974 C   0  0  0  0  0  0  0  0  0  0  0  0
   19.7776  -26.0203  -12.5497 C   0  0  0  0  0  0  0  0  0  0  0  0
   19.4144  -26.7209  -13.5402 O   0  0  0  0  0  0  0  0  0  0  0  0
   19.3907  -26.5272  -11.2752 N   0  0  0  0  0  0  0  0  0  0  0  0
   18.6704  -27.7707  -11.0809 C   0  0  1  0  0  0  0  0  0  0  0  0
   19.5649  -28.8838  -11.5872 C   0  0  0  0  0  0  0  0  0  0  0  0
   21.1099  -28.7818  -10.6173 S   0  0  0  0  0  0  0  0  0  0  0  0
   18.3288  -27.9959   -9.6537 C   0  0  0  0  0  0  0  0  0  0  0  0
   19.1943  -27.7008   -8.7934 O   0  0  0  0  0  0  0  0  0  0  0  0
   20.2297  -23.2746   -6.5479 O   0  0  0  0  0  0  0  0  0  0  0  0
   19.2031  -24.1968   -6.8181 C   0  0  0  0  0  0  0  0  0  0  0  0
   18.6355  -24.2901   -8.0726 C   0  0  0  0  0  0  0  0  0  0  0  0
   17.6417  -25.1933   -8.3061 C   0  0  0  0  0  0  0  0  0  0  0  0
   17.1649  -26.0412   -7.3177 C   0  0  0  0  0  0  0  0  0  0  0  0
   16.0889  -26.9773   -7.6711 C   0  0  0  0  0  0  0  0  0  0  0  0
   16.5753  -28.4012   -7.8849 C   0  0  2  0  0  0  0  0  0  0  0  0
   17.0995  -28.5158   -9.2326 N   0  0  0  0  0  0  0  0  0  0  0  0
   15.3671  -29.2718   -7.7186 C   0  0  0  0  0  0  0  0  0  0  0  0
   14.8739  -29.8490   -8.7190 O   0  0  0  0  0  0  0  0  0  0  0  0
   17.7429  -25.9345   -6.0717 C   0  0  0  0  0  0  0  0  0  0  0  0
   18.7483  -25.0263   -5.8208 C   0  0  0  0  0  0  0  0  0  0  0  0
   14.7584  -29.4725   -6.4889 O   0  0  0  0  0  0  0  0  0  0  0  0
  2  1  1  6
  3  2  1  0
  4  5  2  0
  4  3  1  0
  6  5  1  0
  7 12  2  0
  7  6  1  0
  8  7  1  0
  9 10  1  0
  9  8  2  0
 10 11  2  0
 11 12  1  0
 12  4  1  0
 13  2  1  0
 14 13  2  0
 15 13  1  0
 16 17  1  1
 16 15  1  0
 17 18  1  0
 19 16  1  0
 20 19  2  0
 22 23  2  0
 22 21  1  0
 24 23  1  0
 25 24  2  0
 27 26  1  6
 26 25  1  0
 27 28  1  0
 28 19  1  0
 29 27  1  0
 29 33  1  0
 30 29  2  0
 31 25  1  0
 31 32  2  0
 32 22  1  0
M  END
$$$$
