WCY.pdb
     RDKit          3D

 33 35  0  0  1  0  0  0  0  0999 V2000
   23.5890  -19.1769  -18.7903 N   0  0  0  0  0  0  0  0  0  0  0  0
   24.4049  -18.6837  -17.7110 C   0  0  1  0  0  0  0  0  0  0  0  0
   23.6854  -17.6534  -16.9216 C   0  0  0  0  0  0  0  0  0  0  0  0
   23.8358  -16.2718  -17.4160 C   0  0  0  0  0  0  0  0  0  0  0  0
   22.8745  -15.5345  -18.1195 C   0  0  0  0  0  0  0  0  0  0  0  0
   23.3634  -14.3175  -18.3703 N   0  0  0  0  0  0  0  0  0  0  0  0
   24.6005  -14.1936  -17.8759 C   0  0  0  0  0  0  0  0  0  0  0  0
   25.5169  -13.1733  -17.8723 C   0  0  0  0  0  0  0  0  0  0  0  0
   26.7676  -13.2983  -17.2864 C   0  0  0  0  0  0  0  0  0  0  0  0
   27.0349  -14.5116  -16.7070 C   0  0  0  0  0  0  0  0  0  0  0  0
   26.1511  -15.5613  -16.6849 C   0  0  0  0  0  0  0  0  0  0  0  0
   24.9039  -15.4189  -17.2748 C   0  0  0  0  0  0  0  0  0  0  0  0
   24.8154  -19.8606  -16.9005 C   0  0  0  0  0  0  0  0  0  0  0  0
   24.7188  -21.0467  -17.3337 O   0  0  0  0  0  0  0  0  0  0  0  0
   25.3443  -19.7386  -15.5828 N   0  0  0  0  0  0  0  0  0  0  0  0
   26.2038  -20.7258  -14.9586 C   0  0  1  0  0  0  0  0  0  0  0  0
   27.4662  -20.8038  -15.7926 C   0  0  0  0  0  0  0  0  0  0  0  0
   28.5488  -22.0255  -14.9718 S   0  0  0  0  0  0  0  0  0  0  0  0
   26.5359  -20.3643  -13.5574 C   0  0  0  0  0  0  0  0  0  0  0  0
   27.0872  -19.2542  -13.3565 O   0  0  0  0  0  0  0  0  0  0  0  0
   20.1315  -21.0064  -12.1142 O   0  0  0  0  0  0  0  0  0  0  0  0
   21.4548  -20.6850  -11.7638 C   0  0  0  0  0  0  0  0  0  0  0  0
   22.3896  -20.3524  -12.7231 C   0  0  0  0  0  0  0  0  0  0  0  0
   23.6654  -20.0453  -12.3546 C   0  0  0  0  0  0  0  0  0  0  0  0
   24.0752  -20.0523  -11.0298 C   0  0  0  0  0  0  0  0  0  0  0  0
   25.4737  -19.7085  -10.7379 C   0  0  0  0  0  0  0  0  0  0  0  0
   26.4511  -20.8219  -11.0772 C   0  0  2  0  0  0  0  0  0  0  0  0
   26.2642  -21.1971  -12.4659 N   0  0  0  0  0  0  0  0  0  0  0  0
   26.0943  -21.9638  -10.1750 C   0  0  0  0  0  0  0  0  0  0  0  0
   25.7443  -23.0629  -10.6715 O   0  0  0  0  0  0  0  0  0  0  0  0
   23.1292  -20.3863  -10.0857 C   0  0  0  0  0  0  0  0  0  0  0  0
   21.8357  -20.6991  -10.4432 C   0  0  0  0  0  0  0  0  0  0  0  0
   26.1337  -21.8601   -8.7927 O   0  0  0  0  0  0  0  0  0  0  0  0
  2  1  1  6
  3  2  1  0
  4  5  2  0
  4  3  1  0
  6  5  1  0
  7 12  2  0
  7  6  1  0
  8  7  1  0
  9 10  1  0
  9  8  2  0
 10 11  2  0
 11 12  1  0
 12  4  1  0
 13  2  1  0
 14 13  2  0
 15 13  1  0
 16 17  1  6
 16 15  1  0
 17 18  1  0
 19 16  1  0
 20 19  2  0
 22 23  2  0
 22 21  1  0
 24 23  1  0
 25 24  2  0
 27 26  1  1
 26 25  1  0
 27 28  1  0
 28 19  1  0
 29 27  1  0
 29 33  1  0
 30 29  2  0
 31 25  1  0
 31 32  2  0
 32 22  1  0
M  END
$$$$
