WCY.pdb
     RDKit          3D

 33 35  0  0  1  0  0  0  0  0999 V2000
   28.0354  -22.4019  -18.0785 N   0  0  0  0  0  0  0  0  0  0  0  0
   27.2532  -21.4027  -17.3976 C   0  0  1  0  0  0  0  0  0  0  0  0
   25.8608  -21.3700  -17.9098 C   0  0  0  0  0  0  0  0  0  0  0  0
   25.7090  -20.8140  -19.2677 C   0  0  0  0  0  0  0  0  0  0  0  0
   25.4123  -21.5369  -20.4304 C   0  0  0  0  0  0  0  0  0  0  0  0
   25.3273  -20.6866  -21.4565 N   0  0  0  0  0  0  0  0  0  0  0  0
   25.5505  -19.4314  -21.0505 C   0  0  0  0  0  0  0  0  0  0  0  0
   25.5841  -18.2227  -21.6976 C   0  0  0  0  0  0  0  0  0  0  0  0
   25.8540  -17.0328  -21.0385 C   0  0  0  0  0  0  0  0  0  0  0  0
   26.0872  -17.1380  -19.6917 C   0  0  0  0  0  0  0  0  0  0  0  0
   26.0644  -18.3235  -19.0006 C   0  0  0  0  0  0  0  0  0  0  0  0
   25.7917  -19.5044  -19.6753 C   0  0  0  0  0  0  0  0  0  0  0  0
   27.3347  -21.7004  -15.9432 C   0  0  0  0  0  0  0  0  0  0  0  0
   27.4524  -22.8809  -15.5003 O   0  0  0  0  0  0  0  0  0  0  0  0
   27.2857  -20.6822  -14.9473 N   0  0  0  0  0  0  0  0  0  0  0  0
   27.0162  -20.9314  -13.5444 C   0  0  1  0  0  0  0  0  0  0  0  0
   28.2136  -20.4242  -12.7670 C   0  0  0  0  0  0  0  0  0  0  0  0
   28.4510  -18.6833  -13.2683 S   0  0  0  0  0  0  0  0  0  0  0  0
   25.7804  -20.2468  -13.0877 C   0  0  0  0  0  0  0  0  0  0  0  0
   25.4862  -19.1525  -13.6282 O   0  0  0  0  0  0  0  0  0  0  0  0
   21.4786  -25.3224  -14.7135 O   0  0  0  0  0  0  0  0  0  0  0  0
   21.7938  -24.0352  -14.2435 C   0  0  0  0  0  0  0  0  0  0  0  0
   21.0540  -23.4360  -13.2443 C   0  0  0  0  0  0  0  0  0  0  0  0
   21.3823  -22.1870  -12.8081 C   0  0  0  0  0  0  0  0  0  0  0  0
   22.4498  -21.4758  -13.3351 C   0  0  0  0  0  0  0  0  0  0  0  0
   22.7189  -20.1351  -12.7974 C   0  0  0  0  0  0  0  0  0  0  0  0
   23.7118  -20.1357  -11.6467 C   0  0  2  0  0  0  0  0  0  0  0  0
   24.9409  -20.7630  -12.0938 N   0  0  0  0  0  0  0  0  0  0  0  0
   23.0748  -20.9494  -10.5616 C   0  0  0  0  0  0  0  0  0  0  0  0
   23.6253  -22.0096  -10.1745 O   0  0  0  0  0  0  0  0  0  0  0  0
   23.1773  -22.0891  -14.3314 C   0  0  0  0  0  0  0  0  0  0  0  0
   22.8573  -23.3511  -14.7824 C   0  0  0  0  0  0  0  0  0  0  0  0
   21.8843  -20.5782   -9.9549 O   0  0  0  0  0  0  0  0  0  0  0  0
  2  1  1  6
  3  2  1  0
  4  5  2  0
  4  3  1  0
  6  5  1  0
  7 12  2  0
  7  6  1  0
  8  7  1  0
  9 10  1  0
  9  8  2  0
 10 11  2  0
 11 12  1  0
 12  4  1  0
 13  2  1  0
 14 13  2  0
 15 13  1  0
 16 17  1  1
 16 15  1  0
 17 18  1  0
 19 16  1  0
 20 19  2  0
 22 23  2  0
 22 21  1  0
 24 23  1  0
 25 24  2  0
 27 26  1  6
 26 25  1  0
 27 28  1  0
 28 19  1  0
 29 27  1  0
 29 33  1  0
 30 29  2  0
 31 25  1  0
 31 32  2  0
 32 22  1  0
M  END
$$$$
