WCY.pdb
     RDKit          3D

 33 35  0  0  1  0  0  0  0  0999 V2000
   28.5862  -21.7927  -11.2998 N   0  0  0  0  0  0  0  0  0  0  0  0
   27.3414  -21.3702  -10.7118 C   0  0  1  0  0  0  0  0  0  0  0  0
   27.5567  -20.2897   -9.7176 C   0  0  0  0  0  0  0  0  0  0  0  0
   28.4462  -20.6434   -8.5953 C   0  0  0  0  0  0  0  0  0  0  0  0
   29.6988  -21.2627   -8.6945 C   0  0  0  0  0  0  0  0  0  0  0  0
   30.2134  -21.3931   -7.4692 N   0  0  0  0  0  0  0  0  0  0  0  0
   29.3776  -20.8968   -6.5499 C   0  0  0  0  0  0  0  0  0  0  0  0
   29.4305  -20.7966   -5.1832 C   0  0  0  0  0  0  0  0  0  0  0  0
   28.4051  -20.2345   -4.4377 C   0  0  0  0  0  0  0  0  0  0  0  0
   27.3275  -19.7820   -5.1541 C   0  0  0  0  0  0  0  0  0  0  0  0
   27.2287  -19.8599   -6.5207 C   0  0  0  0  0  0  0  0  0  0  0  0
   28.2641  -20.4242   -7.2511 C   0  0  0  0  0  0  0  0  0  0  0  0
   26.4452  -20.9682  -11.8279 C   0  0  0  0  0  0  0  0  0  0  0  0
   26.8295  -20.2040  -12.7618 O   0  0  0  0  0  0  0  0  0  0  0  0
   25.0945  -21.4119  -11.9258 N   0  0  0  0  0  0  0  0  0  0  0  0
   24.2385  -21.1606  -13.0691 C   0  0  1  0  0  0  0  0  0  0  0  0
   24.8762  -21.8486  -14.2588 C   0  0  0  0  0  0  0  0  0  0  0  0
   23.8351  -21.4436  -15.7046 S   0  0  0  0  0  0  0  0  0  0  0  0
   22.8627  -21.6760  -12.8549 C   0  0  0  0  0  0  0  0  0  0  0  0
   22.7297  -22.7101  -12.1554 O   0  0  0  0  0  0  0  0  0  0  0  0
   15.0475  -22.1003   -9.4620 O   0  0  0  0  0  0  0  0  0  0  0  0
   16.2881  -21.7412  -10.0180 C   0  0  0  0  0  0  0  0  0  0  0  0
   17.4374  -22.4452   -9.7207 C   0  0  0  0  0  0  0  0  0  0  0  0
   18.6266  -22.0747  -10.2742 C   0  0  0  0  0  0  0  0  0  0  0  0
   18.7357  -20.9981  -11.1416 C   0  0  0  0  0  0  0  0  0  0  0  0
   20.0643  -20.6791  -11.6821 C   0  0  0  0  0  0  0  0  0  0  0  0
   20.3615  -21.3752  -13.0002 C   0  0  2  0  0  0  0  0  0  0  0  0
   21.7234  -21.0660  -13.3923 N   0  0  0  0  0  0  0  0  0  0  0  0
   19.3909  -20.8037  -13.9884 C   0  0  0  0  0  0  0  0  0  0  0  0
   19.6702  -19.7367  -14.5889 O   0  0  0  0  0  0  0  0  0  0  0  0
   17.5788  -20.3070  -11.4272 C   0  0  0  0  0  0  0  0  0  0  0  0
   16.3696  -20.6699  -10.8753 C   0  0  0  0  0  0  0  0  0  0  0  0
   18.1772  -21.4103  -14.2751 O   0  0  0  0  0  0  0  0  0  0  0  0
  2  1  1  6
  3  2  1  0
  4  5  2  0
  4  3  1  0
  6  5  1  0
  7 12  2  0
  7  6  1  0
  8  7  1  0
  9 10  1  0
  9  8  2  0
 10 11  2  0
 11 12  1  0
 12  4  1  0
 13  2  1  0
 14 13  2  0
 15 13  1  0
 16 17  1  6
 16 15  1  0
 17 18  1  0
 19 16  1  0
 20 19  2  0
 22 23  2  0
 22 21  1  0
 24 23  1  0
 25 24  2  0
 27 26  1  1
 26 25  1  0
 27 28  1  0
 28 19  1  0
 29 27  1  0
 29 33  1  0
 30 29  2  0
 31 25  1  0
 31 32  2  0
 32 22  1  0
M  END
$$$$
