WCY.pdb
     RDKit          3D

 33 35  0  0  1  0  0  0  0  0999 V2000
   23.9262  -19.5317  -16.5767 N   0  0  0  0  0  0  0  0  0  0  0  0
   23.1533  -19.2481  -15.3952 C   0  0  1  0  0  0  0  0  0  0  0  0
   21.7347  -18.9748  -15.7346 C   0  0  0  0  0  0  0  0  0  0  0  0
   21.5007  -17.7172  -16.4693 C   0  0  0  0  0  0  0  0  0  0  0  0
   21.4630  -17.5660  -17.8615 C   0  0  0  0  0  0  0  0  0  0  0  0
   21.1988  -16.2891  -18.1492 N   0  0  0  0  0  0  0  0  0  0  0  0
   21.0571  -15.5713  -17.0290 C   0  0  0  0  0  0  0  0  0  0  0  0
   20.7933  -14.2480  -16.7838 C   0  0  0  0  0  0  0  0  0  0  0  0
   20.7025  -13.7327  -15.4995 C   0  0  0  0  0  0  0  0  0  0  0  0
   20.8939  -14.6318  -14.4825 C   0  0  0  0  0  0  0  0  0  0  0  0
   21.1598  -15.9639  -14.6777 C   0  0  0  0  0  0  0  0  0  0  0  0
   21.2461  -16.4631  -15.9689 C   0  0  0  0  0  0  0  0  0  0  0  0
   23.3224  -20.4034  -14.4747 C   0  0  0  0  0  0  0  0  0  0  0  0
   23.2996  -21.6020  -14.8828 O   0  0  0  0  0  0  0  0  0  0  0  0
   23.5209  -20.2450  -13.0723 N   0  0  0  0  0  0  0  0  0  0  0  0
   23.3026  -21.2965  -12.0979 C   0  0  1  0  0  0  0  0  0  0  0  0
   24.4958  -21.2889  -11.1642 C   0  0  0  0  0  0  0  0  0  0  0  0
   24.3749  -19.7483  -10.1894 S   0  0  0  0  0  0  0  0  0  0  0  0
   22.0489  -21.0887  -11.3302 C   0  0  0  0  0  0  0  0  0  0  0  0
   22.0880  -20.3041  -10.3508 O   0  0  0  0  0  0  0  0  0  0  0  0
   17.0486  -19.1175  -16.2977 O   0  0  0  0  0  0  0  0  0  0  0  0
   17.5743  -19.3586  -15.0160 C   0  0  0  0  0  0  0  0  0  0  0  0
   16.7984  -19.9060  -14.0145 C   0  0  0  0  0  0  0  0  0  0  0  0
   17.3343  -20.1287  -12.7811 C   0  0  0  0  0  0  0  0  0  0  0  0
   18.6533  -19.8232  -12.4812 C   0  0  0  0  0  0  0  0  0  0  0  0
   19.1337  -20.0997  -11.1203 C   0  0  0  0  0  0  0  0  0  0  0  0
   19.5982  -21.5336  -10.9252 C   0  0  2  0  0  0  0  0  0  0  0  0
   20.8418  -21.7216  -11.6480 N   0  0  0  0  0  0  0  0  0  0  0  0
   18.5189  -22.3928  -11.5100 C   0  0  0  0  0  0  0  0  0  0  0  0
   17.3663  -22.3686  -11.0121 O   0  0  0  0  0  0  0  0  0  0  0  0
   19.4132  -19.2777  -13.4926 C   0  0  0  0  0  0  0  0  0  0  0  0
   18.8852  -19.0469  -14.7442 C   0  0  0  0  0  0  0  0  0  0  0  0
   18.7390  -23.2279  -12.5950 O   0  0  0  0  0  0  0  0  0  0  0  0
  2  1  1  6
  3  2  1  0
  4  5  2  0
  4  3  1  0
  6  5  1  0
  7 12  2  0
  7  6  1  0
  8  7  1  0
  9 10  1  0
  9  8  2  0
 10 11  2  0
 11 12  1  0
 12  4  1  0
 13  2  1  0
 14 13  2  0
 15 13  1  0
 16 17  1  1
 16 15  1  0
 17 18  1  0
 19 16  1  0
 20 19  2  0
 22 23  2  0
 22 21  1  0
 24 23  1  0
 25 24  2  0
 27 26  1  6
 26 25  1  0
 27 28  1  0
 28 19  1  0
 29 27  1  0
 29 33  1  0
 30 29  2  0
 31 25  1  0
 31 32  2  0
 32 22  1  0
M  END
$$$$
