WCY.pdb
     RDKit          3D

 33 35  0  0  1  0  0  0  0  0999 V2000
   21.6556  -36.1766   -8.2889 N   0  0  0  0  0  0  0  0  0  0  0  0
   21.6657  -35.8459   -6.8873 C   0  0  1  0  0  0  0  0  0  0  0  0
   21.0300  -36.9157   -6.0787 C   0  0  0  0  0  0  0  0  0  0  0  0
   19.5820  -37.0883   -6.3016 C   0  0  0  0  0  0  0  0  0  0  0  0
   18.9836  -37.7643   -7.3728 C   0  0  0  0  0  0  0  0  0  0  0  0
   17.6580  -37.7336   -7.2151 N   0  0  0  0  0  0  0  0  0  0  0  0
   17.3296  -37.0745   -6.0980 C   0  0  0  0  0  0  0  0  0  0  0  0
   16.1336  -36.7649   -5.5026 C   0  0  0  0  0  0  0  0  0  0  0  0
   16.0552  -36.0444   -4.3203 C   0  0  0  0  0  0  0  0  0  0  0  0
   17.2535  -35.6572   -3.7786 C   0  0  0  0  0  0  0  0  0  0  0  0
   18.4743  -35.9429   -4.3366 C   0  0  0  0  0  0  0  0  0  0  0  0
   18.5347  -36.6656   -5.5190 C   0  0  0  0  0  0  0  0  0  0  0  0
   23.0805  -35.5893   -6.5092 C   0  0  0  0  0  0  0  0  0  0  0  0
   24.0251  -36.3534   -6.8666 O   0  0  0  0  0  0  0  0  0  0  0  0
   23.4733  -34.4697   -5.7198 N   0  0  0  0  0  0  0  0  0  0  0  0
   24.8213  -34.2544   -5.2305 C   0  0  1  0  0  0  0  0  0  0  0  0
   25.2485  -32.8792   -5.7012 C   0  0  0  0  0  0  0  0  0  0  0  0
   23.8574  -31.7545   -5.3298 S   0  0  0  0  0  0  0  0  0  0  0  0
   24.8925  -34.3350   -3.7496 C   0  0  0  0  0  0  0  0  0  0  0  0
   23.8720  -34.0032   -3.0978 O   0  0  0  0  0  0  0  0  0  0  0  0
   26.7115  -41.0114   -3.8340 O   0  0  0  0  0  0  0  0  0  0  0  0
   26.3412  -39.8133   -3.1978 C   0  0  0  0  0  0  0  0  0  0  0  0
   25.2522  -39.0814   -3.6259 C   0  0  0  0  0  0  0  0  0  0  0  0
   24.9163  -37.9233   -2.9903 C   0  0  0  0  0  0  0  0  0  0  0  0
   25.6357  -37.4369   -1.9091 C   0  0  0  0  0  0  0  0  0  0  0  0
   25.1927  -36.1774   -1.2956 C   0  0  0  0  0  0  0  0  0  0  0  0
   26.0897  -34.9966   -1.6291 C   0  0  2  0  0  0  0  0  0  0  0  0
   26.0334  -34.7596   -3.0591 N   0  0  0  0  0  0  0  0  0  0  0  0
   27.4715  -35.4092   -1.2221 C   0  0  0  0  0  0  0  0  0  0  0  0
   28.3418  -35.6220   -2.1021 O   0  0  0  0  0  0  0  0  0  0  0  0
   26.7193  -38.1801   -1.4952 C   0  0  0  0  0  0  0  0  0  0  0  0
   27.0709  -39.3526   -2.1278 C   0  0  0  0  0  0  0  0  0  0  0  0
   27.8393  -35.5695    0.1054 O   0  0  0  0  0  0  0  0  0  0  0  0
  2  1  1  6
  3  2  1  0
  4  5  2  0
  4  3  1  0
  6  5  1  0
  7 12  2  0
  7  6  1  0
  8  7  1  0
  9 10  1  0
  9  8  2  0
 10 11  2  0
 11 12  1  0
 12  4  1  0
 13  2  1  0
 14 13  2  0
 15 13  1  0
 16 17  1  1
 16 15  1  0
 17 18  1  0
 19 16  1  0
 20 19  2  0
 22 23  2  0
 22 21  1  0
 24 23  1  0
 25 24  2  0
 27 26  1  6
 26 25  1  0
 27 28  1  0
 28 19  1  0
 29 27  1  0
 29 33  1  0
 30 29  2  0
 31 25  1  0
 31 32  2  0
 32 22  1  0
M  END
$$$$
