WCY.pdb
     RDKit          3D

 33 35  0  0  1  0  0  0  0  0999 V2000
   27.0383  -20.3419  -16.5667 N   0  0  0  0  0  0  0  0  0  0  0  0
   27.0883  -19.6201  -15.3216 C   0  0  1  0  0  0  0  0  0  0  0  0
   26.4970  -18.2662  -15.4618 C   0  0  0  0  0  0  0  0  0  0  0  0
   27.1965  -17.3754  -16.4068 C   0  0  0  0  0  0  0  0  0  0  0  0
   26.6128  -16.3580  -17.1727 C   0  0  0  0  0  0  0  0  0  0  0  0
   27.5672  -15.7525  -17.8839 N   0  0  0  0  0  0  0  0  0  0  0  0
   28.7611  -16.3052  -17.6406 C   0  0  0  0  0  0  0  0  0  0  0  0
   30.0266  -16.0613  -18.1094 C   0  0  0  0  0  0  0  0  0  0  0  0
   31.1272  -16.7985  -17.6994 C   0  0  0  0  0  0  0  0  0  0  0  0
   30.8726  -17.7930  -16.7909 C   0  0  0  0  0  0  0  0  0  0  0  0
   29.6252  -18.0747  -16.2929 C   0  0  0  0  0  0  0  0  0  0  0  0
   28.5352  -17.3267  -16.7130 C   0  0  0  0  0  0  0  0  0  0  0  0
   26.3994  -20.4568  -14.3037 C   0  0  0  0  0  0  0  0  0  0  0  0
   25.4304  -21.2174  -14.5972 O   0  0  0  0  0  0  0  0  0  0  0  0
   26.7785  -20.4619  -12.9299 N   0  0  0  0  0  0  0  0  0  0  0  0
   25.9287  -20.9368  -11.8552 C   0  0  1  0  0  0  0  0  0  0  0  0
   26.6717  -20.6844  -10.5592 C   0  0  0  0  0  0  0  0  0  0  0  0
   25.4932  -21.0513   -9.2121 S   0  0  0  0  0  0  0  0  0  0  0  0
   24.6167  -20.2421  -11.8383 C   0  0  0  0  0  0  0  0  0  0  0  0
   24.6207  -18.9906  -11.7376 O   0  0  0  0  0  0  0  0  0  0  0  0
   17.1363  -16.5007  -13.5862 O   0  0  0  0  0  0  0  0  0  0  0  0
   18.3544  -17.1923  -13.4629 C   0  0  0  0  0  0  0  0  0  0  0  0
   18.7101  -18.1822  -14.3564 C   0  0  0  0  0  0  0  0  0  0  0  0
   19.8972  -18.8363  -14.2126 C   0  0  0  0  0  0  0  0  0  0  0  0
   20.7831  -18.5452  -13.1861 C   0  0  0  0  0  0  0  0  0  0  0  0
   22.0359  -19.3100  -13.1178 C   0  0  0  0  0  0  0  0  0  0  0  0
   22.0952  -20.2646  -11.9366 C   0  0  2  0  0  0  0  0  0  0  0  0
   23.3923  -20.9140  -11.9287 N   0  0  0  0  0  0  0  0  0  0  0  0
   21.0092  -21.2697  -12.1725 C   0  0  0  0  0  0  0  0  0  0  0  0
   19.8558  -21.0559  -11.7242 O   0  0  0  0  0  0  0  0  0  0  0  0
   20.4121  -17.5544  -12.3038 C   0  0  0  0  0  0  0  0  0  0  0  0
   19.2153  -16.8847  -12.4364 C   0  0  0  0  0  0  0  0  0  0  0  0
   21.2238  -22.4457  -12.8754 O   0  0  0  0  0  0  0  0  0  0  0  0
  2  1  1  6
  3  2  1  0
  4  5  2  0
  4  3  1  0
  6  5  1  0
  7 12  2  0
  7  6  1  0
  8  7  1  0
  9 10  1  0
  9  8  2  0
 10 11  2  0
 11 12  1  0
 12  4  1  0
 13  2  1  0
 14 13  2  0
 15 13  1  0
 16 17  1  1
 16 15  1  0
 17 18  1  0
 19 16  1  0
 20 19  2  0
 22 23  2  0
 22 21  1  0
 24 23  1  0
 25 24  2  0
 27 26  1  6
 26 25  1  0
 27 28  1  0
 28 19  1  0
 29 27  1  0
 29 33  1  0
 30 29  2  0
 31 25  1  0
 31 32  2  0
 32 22  1  0
M  END
$$$$
