WCY.pdb
     RDKit          3D

 33 35  0  0  1  0  0  0  0  0999 V2000
   26.9396  -18.7373  -12.2988 N   0  0  0  0  0  0  0  0  0  0  0  0
   27.6289  -19.9857  -12.4996 C   0  0  1  0  0  0  0  0  0  0  0  0
   26.9284  -21.1015  -11.8166 C   0  0  0  0  0  0  0  0  0  0  0  0
   26.5780  -20.8474  -10.4064 C   0  0  0  0  0  0  0  0  0  0  0  0
   25.2922  -20.6146   -9.9014 C   0  0  0  0  0  0  0  0  0  0  0  0
   25.3713  -20.4559   -8.5779 N   0  0  0  0  0  0  0  0  0  0  0  0
   26.6383  -20.5681   -8.1628 C   0  0  0  0  0  0  0  0  0  0  0  0
   27.2391  -20.4824   -6.9330 C   0  0  0  0  0  0  0  0  0  0  0  0
   28.6071  -20.6304   -6.7609 C   0  0  0  0  0  0  0  0  0  0  0  0
   29.3282  -20.8689   -7.9021 C   0  0  0  0  0  0  0  0  0  0  0  0
   28.7728  -20.9634   -9.1535 C   0  0  0  0  0  0  0  0  0  0  0  0
   27.4025  -20.8139   -9.3076 C   0  0  0  0  0  0  0  0  0  0  0  0
   27.7537  -20.1846  -13.9677 C   0  0  0  0  0  0  0  0  0  0  0  0
   28.1347  -19.2605  -14.7452 O   0  0  0  0  0  0  0  0  0  0  0  0
   27.4539  -21.4248  -14.6026 N   0  0  0  0  0  0  0  0  0  0  0  0
   27.7203  -21.7065  -15.9999 C   0  0  1  0  0  0  0  0  0  0  0  0
   29.2174  -21.5853  -16.1980 C   0  0  0  0  0  0  0  0  0  0  0  0
   29.9807  -22.8601  -15.1348 S   0  0  0  0  0  0  0  0  0  0  0  0
   27.2593  -23.0631  -16.3892 C   0  0  0  0  0  0  0  0  0  0  0  0
   27.9207  -24.0456  -15.9725 O   0  0  0  0  0  0  0  0  0  0  0  0
   19.3705  -22.8362  -13.3113 O   0  0  0  0  0  0  0  0  0  0  0  0
   20.6260  -22.6979  -13.9292 C   0  0  0  0  0  0  0  0  0  0  0  0
   21.7222  -23.4140  -13.4930 C   0  0  0  0  0  0  0  0  0  0  0  0
   22.9274  -23.2600  -14.1108 C   0  0  0  0  0  0  0  0  0  0  0  0
   23.1052  -22.3968  -15.1816 C   0  0  0  0  0  0  0  0  0  0  0  0
   24.4456  -22.3013  -15.7761 C   0  0  0  0  0  0  0  0  0  0  0  0
   24.7867  -23.4715  -16.6840 C   0  0  2  0  0  0  0  0  0  0  0  0
   26.1340  -23.2899  -17.1898 N   0  0  0  0  0  0  0  0  0  0  0  0
   23.7955  -23.4164  -17.8064 C   0  0  0  0  0  0  0  0  0  0  0  0
   22.8999  -24.2929  -17.8889 O   0  0  0  0  0  0  0  0  0  0  0  0
   22.0005  -21.6902  -15.6038 C   0  0  0  0  0  0  0  0  0  0  0  0
   20.7760  -21.8356  -14.9891 C   0  0  0  0  0  0  0  0  0  0  0  0
   23.8227  -22.4242  -18.7748 O   0  0  0  0  0  0  0  0  0  0  0  0
  2  1  1  6
  3  2  1  0
  4  5  2  0
  4  3  1  0
  6  5  1  0
  7 12  2  0
  7  6  1  0
  8  7  1  0
  9 10  1  0
  9  8  2  0
 10 11  2  0
 11 12  1  0
 12  4  1  0
 13  2  1  0
 14 13  2  0
 15 13  1  0
 16 17  1  1
 16 15  1  0
 17 18  1  0
 19 16  1  0
 20 19  2  0
 22 23  2  0
 22 21  1  0
 24 23  1  0
 25 24  2  0
 27 26  1  1
 26 25  1  0
 27 28  1  0
 28 19  1  0
 29 27  1  0
 29 33  1  0
 30 29  2  0
 31 25  1  0
 31 32  2  0
 32 22  1  0
M  END
$$$$
