KEH.pdb
     RDKit          3D

 29 29  0  0  1  0  0  0  0  0999 V2000
   24.8988  -34.1727  -10.8288 N   0  0  0  0  0  0  0  0  0  0  0  0
   24.3062  -33.6170   -9.6674 C   0  0  1  0  0  0  0  0  0  0  0  0
   22.8264  -33.4327   -9.6830 C   0  0  0  0  0  0  0  0  0  0  0  0
   22.2860  -32.4266  -10.6253 C   0  0  0  0  0  0  0  0  0  0  0  0
   20.8399  -32.1277  -10.4644 C   0  0  0  0  0  0  0  0  0  0  0  0
   20.3268  -31.1457  -11.4695 C   0  0  0  0  0  0  0  0  0  0  0  0
   18.9732  -30.7506  -11.2832 N   0  0  0  0  0  0  0  0  0  0  0  0
   24.7040  -34.4103   -8.4418 C   0  0  0  0  0  0  0  0  0  0  0  0
   24.7342  -35.6421   -8.5715 O   0  0  0  0  0  0  0  0  0  0  0  0
   25.0215  -33.8071   -7.2224 N   0  0  0  0  0  0  0  0  0  0  0  0
   25.3966  -34.4143   -5.9875 C   0  0  1  0  0  0  0  0  0  0  0  0
   26.0450  -33.5260   -4.9713 C   0  0  0  0  0  0  0  0  0  0  0  0
   26.5504  -34.2395   -3.7432 C   0  0  0  0  0  0  0  0  0  0  0  0
   27.2413  -33.2484   -2.8820 C   0  0  0  0  0  0  0  0  0  0  0  0
   27.8624  -33.6320   -1.8807 O   0  0  0  0  0  0  0  0  0  0  0  0
   24.4005  -35.2923   -5.3798 C   0  0  0  0  0  0  0  0  0  0  0  0
   23.1994  -34.8476   -5.2581 O   0  0  0  0  0  0  0  0  0  0  0  0
   27.1873  -31.9168   -3.2001 O   0  0  0  0  0  0  0  0  0  0  0  0
   24.7418  -36.5863   -4.9422 N   0  0  0  0  0  0  0  0  0  0  0  0
   23.7056  -37.3935   -4.2989 C   0  0  1  0  0  0  0  0  0  0  0  0
   24.2653  -38.8191   -4.3070 C   0  0  0  0  0  0  0  0  0  0  0  0
   23.2615  -39.7904   -3.8147 C   0  0  0  0  0  0  0  0  0  0  0  0
   21.9474  -39.4930   -3.4822 C   0  0  0  0  0  0  0  0  0  0  0  0
   21.3386  -40.6179   -3.0793 N   0  0  0  0  0  0  0  0  0  0  0  0
   22.2275  -41.6282   -3.1447 C   0  0  0  0  0  0  0  0  0  0  0  0
   23.3938  -41.1105   -3.5937 N   0  0  0  0  0  0  0  0  0  0  0  0
   23.6119  -36.9211   -2.8904 C   0  0  0  0  0  0  0  0  0  0  0  0
   24.3103  -35.8504   -2.4091 O   0  0  0  0  0  0  0  0  0  0  0  0
   22.8462  -37.5320   -2.0705 O   0  0  0  0  0  0  0  0  0  0  0  0
  2  8  1  0
  2  1  1  6
  3  2  1  0
  4  3  1  0
  4  5  1  0
  6  5  1  0
  7  6  1  0
  8  9  2  0
 10 11  1  0
 10  8  1  0
 11 12  1  1
 13 14  1  0
 13 12  1  0
 14 18  1  0
 15 14  2  0
 16 17  2  0
 16 11  1  0
 19 16  1  0
 20 19  1  0
 20 21  1  1
 22 26  1  0
 22 21  1  0
 23 22  2  0
 24 23  1  0
 24 25  1  0
 25 26  2  0
 27 20  1  0
 27 28  1  0
 29 27  2  0
M  END
$$$$
