KEH.pdb
     RDKit          3D

 29 29  0  0  1  0  0  0  0  0999 V2000
   27.9218  -26.4963  -16.5707 N   0  0  0  0  0  0  0  0  0  0  0  0
   27.2160  -27.7151  -16.4109 C   0  0  1  0  0  0  0  0  0  0  0  0
   25.7746  -27.7193  -16.7935 C   0  0  0  0  0  0  0  0  0  0  0  0
   25.3836  -26.8715  -17.9426 C   0  0  0  0  0  0  0  0  0  0  0  0
   24.2358  -25.9627  -17.6912 C   0  0  0  0  0  0  0  0  0  0  0  0
   23.8878  -25.1138  -18.8727 C   0  0  0  0  0  0  0  0  0  0  0  0
   22.7505  -24.2784  -18.6953 N   0  0  0  0  0  0  0  0  0  0  0  0
   27.9331  -28.8373  -17.1293 C   0  0  0  0  0  0  0  0  0  0  0  0
   28.3041  -28.5990  -18.2871 O   0  0  0  0  0  0  0  0  0  0  0  0
   28.1719  -30.0807  -16.5387 N   0  0  0  0  0  0  0  0  0  0  0  0
   28.8995  -31.1960  -17.0495 C   0  0  1  0  0  0  0  0  0  0  0  0
   29.6452  -32.0264  -16.0513 C   0  0  0  0  0  0  0  0  0  0  0  0
   30.4920  -33.1203  -16.6503 C   0  0  0  0  0  0  0  0  0  0  0  0
   31.7973  -33.1355  -15.9453 C   0  0  0  0  0  0  0  0  0  0  0  0
   32.8163  -32.7426  -16.5309 O   0  0  0  0  0  0  0  0  0  0  0  0
   28.1949  -32.0255  -18.0231 C   0  0  0  0  0  0  0  0  0  0  0  0
   26.9683  -32.3289  -17.7807 O   0  0  0  0  0  0  0  0  0  0  0  0
   31.8664  -33.5838  -14.6524 O   0  0  0  0  0  0  0  0  0  0  0  0
   28.8359  -32.4784  -19.1921 N   0  0  0  0  0  0  0  0  0  0  0  0
   28.0723  -33.3128  -20.1192 C   0  0  1  0  0  0  0  0  0  0  0  0
   28.9784  -33.4572  -21.3455 C   0  0  0  0  0  0  0  0  0  0  0  0
   28.2337  -34.0149  -22.4978 C   0  0  0  0  0  0  0  0  0  0  0  0
   26.8815  -33.8304  -22.7494 C   0  0  0  0  0  0  0  0  0  0  0  0
   26.5597  -34.4791  -23.8781 N   0  0  0  0  0  0  0  0  0  0  0  0
   27.6696  -35.0745  -24.3565 C   0  0  0  0  0  0  0  0  0  0  0  0
   28.6811  -34.7838  -23.5067 N   0  0  0  0  0  0  0  0  0  0  0  0
   27.9249  -34.6443  -19.4702 C   0  0  0  0  0  0  0  0  0  0  0  0
   26.7862  -35.3950  -19.5458 O   0  0  0  0  0  0  0  0  0  0  0  0
   28.8989  -35.1311  -18.8024 O   0  0  0  0  0  0  0  0  0  0  0  0
  2  8  1  0
  2  1  1  6
  3  2  1  0
  4  3  1  0
  4  5  1  0
  6  5  1  0
  7  6  1  0
  8  9  2  0
 10 11  1  0
 10  8  1  0
 11 12  1  1
 13 14  1  0
 13 12  1  0
 14 18  1  0
 15 14  2  0
 16 17  2  0
 16 11  1  0
 19 16  1  0
 20 19  1  0
 20 21  1  6
 22 26  1  0
 22 21  1  0
 23 22  2  0
 24 23  1  0
 24 25  1  0
 25 26  2  0
 27 20  1  0
 27 28  1  0
 29 27  2  0
M  END
$$$$
