KEH.pdb
     RDKit          3D

 29 29  0  0  1  0  0  0  0  0999 V2000
   11.1452   -7.1795   -8.7502 N   0  0  0  0  0  0  0  0  0  0  0  0
   12.4809   -7.6460   -8.6640 C   0  0  1  0  0  0  0  0  0  0  0  0
   12.6957   -9.1159   -8.7948 C   0  0  0  0  0  0  0  0  0  0  0  0
   11.5367   -9.9264   -9.2332 C   0  0  0  0  0  0  0  0  0  0  0  0
   11.7647  -11.3942   -9.2448 C   0  0  0  0  0  0  0  0  0  0  0  0
   10.6025  -12.1658   -9.7848 C   0  0  0  0  0  0  0  0  0  0  0  0
   10.7816  -13.5765   -9.8127 N   0  0  0  0  0  0  0  0  0  0  0  0
   13.3589   -6.9163   -9.6571 C   0  0  0  0  0  0  0  0  0  0  0  0
   12.9190   -6.8197  -10.8112 O   0  0  0  0  0  0  0  0  0  0  0  0
   14.6003   -6.3759   -9.3126 N   0  0  0  0  0  0  0  0  0  0  0  0
   15.5204   -5.6449  -10.1210 C   0  0  1  0  0  0  0  0  0  0  0  0
   16.0418   -4.3614   -9.5531 C   0  0  0  0  0  0  0  0  0  0  0  0
   14.9905   -3.3093   -9.3072 C   0  0  0  0  0  0  0  0  0  0  0  0
   15.6693   -2.0746   -8.8423 C   0  0  0  0  0  0  0  0  0  0  0  0
   15.9647   -1.9496   -7.6453 O   0  0  0  0  0  0  0  0  0  0  0  0
   16.5815   -6.4286  -10.7473 C   0  0  0  0  0  0  0  0  0  0  0  0
   17.5617   -6.8146  -10.0086 O   0  0  0  0  0  0  0  0  0  0  0  0
   15.9641   -1.0821   -9.7396 O   0  0  0  0  0  0  0  0  0  0  0  0
   16.5341   -6.7543  -12.1163 N   0  0  0  0  0  0  0  0  0  0  0  0
   17.5845   -7.6157  -12.6580 C   0  0  1  0  0  0  0  0  0  0  0  0
   16.9256   -8.3318  -13.8408 C   0  0  0  0  0  0  0  0  0  0  0  0
   17.8875   -9.2229  -14.5294 C   0  0  0  0  0  0  0  0  0  0  0  0
   17.9998  -10.5922  -14.3346 C   0  0  0  0  0  0  0  0  0  0  0  0
   18.9731  -11.0631  -15.1279 N   0  0  0  0  0  0  0  0  0  0  0  0
   19.4876  -10.0319  -15.8259 C   0  0  0  0  0  0  0  0  0  0  0  0
   18.8177   -8.9178  -15.4518 N   0  0  0  0  0  0  0  0  0  0  0  0
   18.6500   -6.7136  -13.1745 C   0  0  0  0  0  0  0  0  0  0  0  0
   18.4381   -5.3996  -13.4817 O   0  0  0  0  0  0  0  0  0  0  0  0
   19.8310   -7.1681  -13.3481 O   0  0  0  0  0  0  0  0  0  0  0  0
  2  8  1  0
  2  1  1  6
  3  2  1  0
  4  3  1  0
  4  5  1  0
  6  5  1  0
  7  6  1  0
  8  9  2  0
 10 11  1  0
 10  8  1  0
 11 12  1  1
 13 14  1  0
 13 12  1  0
 14 18  1  0
 15 14  2  0
 16 17  2  0
 16 11  1  0
 19 16  1  0
 20 19  1  0
 20 21  1  6
 22 26  1  0
 22 21  1  0
 23 22  2  0
 24 23  1  0
 24 25  1  0
 25 26  2  0
 27 20  1  0
 27 28  1  0
 29 27  2  0
M  END
$$$$
