KEH.pdb
     RDKit          3D

 29 29  0  0  1  0  0  0  0  0999 V2000
   26.7209  -19.0771  -17.3567 N   0  0  0  0  0  0  0  0  0  0  0  0
   25.8440  -18.2416  -16.6206 C   0  0  1  0  0  0  0  0  0  0  0  0
   25.2510  -17.0785  -17.3415 C   0  0  0  0  0  0  0  0  0  0  0  0
   26.1958  -16.1064  -17.9369 C   0  0  0  0  0  0  0  0  0  0  0  0
   27.4483  -16.6962  -18.4753 C   0  0  0  0  0  0  0  0  0  0  0  0
   28.3107  -15.7001  -19.1836 C   0  0  0  0  0  0  0  0  0  0  0  0
   29.5089  -16.2314  -19.7360 N   0  0  0  0  0  0  0  0  0  0  0  0
   24.7399  -19.0619  -15.9902 C   0  0  0  0  0  0  0  0  0  0  0  0
   23.9689  -19.6369  -16.7713 O   0  0  0  0  0  0  0  0  0  0  0  0
   24.5801  -19.1764  -14.6070 N   0  0  0  0  0  0  0  0  0  0  0  0
   23.6646  -19.9840  -13.8694 C   0  0  1  0  0  0  0  0  0  0  0  0
   24.1569  -20.5431  -12.5706 C   0  0  0  0  0  0  0  0  0  0  0  0
   25.4514  -21.3097  -12.6660 C   0  0  0  0  0  0  0  0  0  0  0  0
   25.8486  -21.7221  -11.2973 C   0  0  0  0  0  0  0  0  0  0  0  0
   25.0782  -22.4135  -10.6162 O   0  0  0  0  0  0  0  0  0  0  0  0
   22.3055  -19.4629  -13.7524 C   0  0  0  0  0  0  0  0  0  0  0  0
   22.1078  -18.4677  -12.9614 O   0  0  0  0  0  0  0  0  0  0  0  0
   27.0639  -21.3353  -10.7967 O   0  0  0  0  0  0  0  0  0  0  0  0
   21.2438  -20.0296  -14.4832 N   0  0  0  0  0  0  0  0  0  0  0  0
   19.9031  -19.4762  -14.2950 C   0  0  1  0  0  0  0  0  0  0  0  0
   19.1646  -19.8010  -15.5969 C   0  0  0  0  0  0  0  0  0  0  0  0
   17.7556  -19.3483  -15.5394 C   0  0  0  0  0  0  0  0  0  0  0  0
   17.1752  -18.6503  -14.4898 C   0  0  0  0  0  0  0  0  0  0  0  0
   15.8902  -18.4103  -14.7887 N   0  0  0  0  0  0  0  0  0  0  0  0
   15.6315  -18.9360  -16.0020 C   0  0  0  0  0  0  0  0  0  0  0  0
   16.7756  -19.5039  -16.4474 N   0  0  0  0  0  0  0  0  0  0  0  0
   19.2786  -20.2437  -13.1830 C   0  0  0  0  0  0  0  0  0  0  0  0
   19.5053  -21.5734  -12.9678 O   0  0  0  0  0  0  0  0  0  0  0  0
   18.4861  -19.6509  -12.3754 O   0  0  0  0  0  0  0  0  0  0  0  0
  2  8  1  0
  2  1  1  6
  3  2  1  0
  4  3  1  0
  4  5  1  0
  6  5  1  0
  7  6  1  0
  8  9  2  0
 10 11  1  0
 10  8  1  0
 11 12  1  1
 13 14  1  0
 13 12  1  0
 14 18  1  0
 15 14  2  0
 16 17  2  0
 16 11  1  0
 19 16  1  0
 20 19  1  0
 20 21  1  6
 22 26  1  0
 22 21  1  0
 23 22  2  0
 24 23  1  0
 24 25  1  0
 25 26  2  0
 27 20  1  0
 27 28  1  0
 29 27  2  0
M  END
$$$$
