KEH.pdb
     RDKit          3D

 29 29  0  0  1  0  0  0  0  0999 V2000
   17.3253  -15.9641  -18.4380 N   0  0  0  0  0  0  0  0  0  0  0  0
   16.7020  -15.4617  -17.2685 C   0  0  1  0  0  0  0  0  0  0  0  0
   16.3539  -16.4502  -16.2074 C   0  0  0  0  0  0  0  0  0  0  0  0
   16.7435  -17.8580  -16.4490 C   0  0  0  0  0  0  0  0  0  0  0  0
   18.1421  -18.1954  -16.0795 C   0  0  0  0  0  0  0  0  0  0  0  0
   18.4811  -19.6338  -16.3111 C   0  0  0  0  0  0  0  0  0  0  0  0
   19.8708  -19.9345  -16.2754 N   0  0  0  0  0  0  0  0  0  0  0  0
   17.5293  -14.3460  -16.6682 C   0  0  0  0  0  0  0  0  0  0  0  0
   17.1502  -13.9103  -15.5721 O   0  0  0  0  0  0  0  0  0  0  0  0
   18.6598  -13.8210  -17.2992 N   0  0  0  0  0  0  0  0  0  0  0  0
   19.5240  -12.7701  -16.8714 C   0  0  1  0  0  0  0  0  0  0  0  0
   20.9652  -12.8840  -17.2614 C   0  0  0  0  0  0  0  0  0  0  0  0
   21.3192  -14.1507  -17.9982 C   0  0  0  0  0  0  0  0  0  0  0  0
   22.3307  -13.8192  -19.0317 C   0  0  0  0  0  0  0  0  0  0  0  0
   22.7177  -12.6489  -19.1594 O   0  0  0  0  0  0  0  0  0  0  0  0
   19.0195  -11.4128  -17.0598 C   0  0  0  0  0  0  0  0  0  0  0  0
   18.5968  -11.0840  -18.2296 O   0  0  0  0  0  0  0  0  0  0  0  0
   22.8292  -14.8092  -19.8371 O   0  0  0  0  0  0  0  0  0  0  0  0
   18.9938  -10.4920  -15.9949 N   0  0  0  0  0  0  0  0  0  0  0  0
   18.5873   -9.1165  -16.2811 C   0  0  1  0  0  0  0  0  0  0  0  0
   17.3646   -8.8812  -15.3892 C   0  0  0  0  0  0  0  0  0  0  0  0
   16.9008   -7.4774  -15.4772 C   0  0  0  0  0  0  0  0  0  0  0  0
   17.4393   -6.5007  -16.3030 C   0  0  0  0  0  0  0  0  0  0  0  0
   16.7656   -5.3566  -16.1151 N   0  0  0  0  0  0  0  0  0  0  0  0
   15.8097   -5.5740  -15.1908 C   0  0  0  0  0  0  0  0  0  0  0  0
   15.9034   -6.8689  -14.8110 N   0  0  0  0  0  0  0  0  0  0  0  0
   19.6973   -8.2398  -15.8173 C   0  0  0  0  0  0  0  0  0  0  0  0
   20.8568   -8.7184  -15.2766 O   0  0  0  0  0  0  0  0  0  0  0  0
   19.5834   -6.9716  -15.9192 O   0  0  0  0  0  0  0  0  0  0  0  0
  2  8  1  0
  2  1  1  6
  3  2  1  0
  4  3  1  0
  4  5  1  0
  6  5  1  0
  7  6  1  0
  8  9  2  0
 10 11  1  0
 10  8  1  0
 11 12  1  6
 13 14  1  0
 13 12  1  0
 14 18  1  0
 15 14  2  0
 16 17  2  0
 16 11  1  0
 19 16  1  0
 20 19  1  0
 20 21  1  1
 22 26  1  0
 22 21  1  0
 23 22  2  0
 24 23  1  0
 24 25  1  0
 25 26  2  0
 27 20  1  0
 27 28  1  0
 29 27  2  0
M  END
$$$$
