KEH.pdb
     RDKit          3D

 29 29  0  0  1  0  0  0  0  0999 V2000
   17.1691  -14.8578  -15.3481 N   0  0  0  0  0  0  0  0  0  0  0  0
   16.8841  -13.6283  -15.9930 C   0  0  1  0  0  0  0  0  0  0  0  0
   15.7712  -12.8098  -15.4311 C   0  0  0  0  0  0  0  0  0  0  0  0
   14.4268  -13.4298  -15.4115 C   0  0  0  0  0  0  0  0  0  0  0  0
   13.7172  -13.3506  -14.1089 C   0  0  0  0  0  0  0  0  0  0  0  0
   12.3505  -13.9577  -14.1456 C   0  0  0  0  0  0  0  0  0  0  0  0
   11.6308  -13.8864  -12.9209 N   0  0  0  0  0  0  0  0  0  0  0  0
   18.1346  -12.7821  -16.0906 C   0  0  0  0  0  0  0  0  0  0  0  0
   18.6953  -12.5060  -15.0208 O   0  0  0  0  0  0  0  0  0  0  0  0
   18.6443  -12.3259  -17.3087 N   0  0  0  0  0  0  0  0  0  0  0  0
   19.8072  -11.5396  -17.5611 C   0  0  1  0  0  0  0  0  0  0  0  0
   20.4278  -11.6732  -18.9172 C   0  0  0  0  0  0  0  0  0  0  0  0
   21.7059  -10.8959  -19.1034 C   0  0  0  0  0  0  0  0  0  0  0  0
   22.2147  -11.1600  -20.4719 C   0  0  0  0  0  0  0  0  0  0  0  0
   21.9376  -12.2288  -21.0345 O   0  0  0  0  0  0  0  0  0  0  0  0
   19.7393  -10.1450  -17.1335 C   0  0  0  0  0  0  0  0  0  0  0  0
   18.6461   -9.5014  -17.3482 O   0  0  0  0  0  0  0  0  0  0  0  0
   22.9869  -10.2206  -21.1030 O   0  0  0  0  0  0  0  0  0  0  0  0
   20.8344   -9.5231  -16.5039 N   0  0  0  0  0  0  0  0  0  0  0  0
   20.6667   -8.1525  -16.0217 C   0  0  1  0  0  0  0  0  0  0  0  0
   21.9223   -7.8796  -15.1881 C   0  0  0  0  0  0  0  0  0  0  0  0
   21.8910   -6.5189  -14.6042 C   0  0  0  0  0  0  0  0  0  0  0  0
   20.7510   -5.8470  -14.1861 C   0  0  0  0  0  0  0  0  0  0  0  0
   21.1077   -4.6443  -13.7122 N   0  0  0  0  0  0  0  0  0  0  0  0
   22.4460   -4.5275  -13.8155 C   0  0  0  0  0  0  0  0  0  0  0  0
   22.9099   -5.6755  -14.3601 N   0  0  0  0  0  0  0  0  0  0  0  0
   20.6862   -7.2737  -17.2231 C   0  0  0  0  0  0  0  0  0  0  0  0
   19.8818   -6.1792  -17.3663 O   0  0  0  0  0  0  0  0  0  0  0  0
   21.4873   -7.5361  -18.1828 O   0  0  0  0  0  0  0  0  0  0  0  0
  2  8  1  0
  2  1  1  1
  3  2  1  0
  4  3  1  0
  4  5  1  0
  6  5  1  0
  7  6  1  0
  8  9  2  0
 10 11  1  0
 10  8  1  0
 11 12  1  6
 13 14  1  0
 13 12  1  0
 14 18  1  0
 15 14  2  0
 16 17  2  0
 16 11  1  0
 19 16  1  0
 20 19  1  0
 20 21  1  1
 22 26  1  0
 22 21  1  0
 23 22  2  0
 24 23  1  0
 24 25  1  0
 25 26  2  0
 27 20  1  0
 27 28  1  0
 29 27  2  0
M  END
$$$$
