KEH.pdb
     RDKit          3D

 29 29  0  0  1  0  0  0  0  0999 V2000
   28.2329  -20.6375  -13.2805 N   0  0  0  0  0  0  0  0  0  0  0  0
   27.1289  -20.6986  -12.3938 C   0  0  1  0  0  0  0  0  0  0  0  0
   27.3208  -20.1237  -11.0311 C   0  0  0  0  0  0  0  0  0  0  0  0
   28.5347  -20.5403  -10.2927 C   0  0  0  0  0  0  0  0  0  0  0  0
   29.4820  -21.3839  -11.0658 C   0  0  0  0  0  0  0  0  0  0  0  0
   30.7290  -21.7137  -10.3082 C   0  0  0  0  0  0  0  0  0  0  0  0
   31.6408  -22.5612  -10.9962 N   0  0  0  0  0  0  0  0  0  0  0  0
   25.9039  -20.0831  -13.0342 C   0  0  0  0  0  0  0  0  0  0  0  0
   24.8910  -20.0113  -12.3243 O   0  0  0  0  0  0  0  0  0  0  0  0
   25.8940  -19.6173  -14.3512 N   0  0  0  0  0  0  0  0  0  0  0  0
   24.8356  -18.9986  -15.0803 C   0  0  1  0  0  0  0  0  0  0  0  0
   25.1754  -18.4681  -16.4386 C   0  0  0  0  0  0  0  0  0  0  0  0
   24.0413  -17.7668  -17.1418 C   0  0  0  0  0  0  0  0  0  0  0  0
   24.5353  -17.2884  -18.4565 C   0  0  0  0  0  0  0  0  0  0  0  0
   25.1544  -18.0635  -19.1991 O   0  0  0  0  0  0  0  0  0  0  0  0
   23.5610  -19.7111  -15.0823 C   0  0  0  0  0  0  0  0  0  0  0  0
   23.5697  -20.9609  -15.3879 O   0  0  0  0  0  0  0  0  0  0  0  0
   24.3036  -15.9935  -18.8394 O   0  0  0  0  0  0  0  0  0  0  0  0
   22.3592  -19.0529  -14.7583 N   0  0  0  0  0  0  0  0  0  0  0  0
   21.1536  -19.8624  -14.5846 C   0  0  1  0  0  0  0  0  0  0  0  0
   20.4213  -19.2170  -13.4043 C   0  0  0  0  0  0  0  0  0  0  0  0
   20.7879  -19.8695  -12.1264 C   0  0  0  0  0  0  0  0  0  0  0  0
   21.6278  -20.9661  -11.9929 C   0  0  0  0  0  0  0  0  0  0  0  0
   21.7286  -21.2774  -10.6924 N   0  0  0  0  0  0  0  0  0  0  0  0
   20.9756  -20.4094   -9.9888 C   0  0  0  0  0  0  0  0  0  0  0  0
   20.4086  -19.5581  -10.8740 N   0  0  0  0  0  0  0  0  0  0  0  0
   20.3374  -19.6792  -15.8159 C   0  0  0  0  0  0  0  0  0  0  0  0
   19.1771  -20.3588  -16.0561 O   0  0  0  0  0  0  0  0  0  0  0  0
   20.7209  -18.8499  -16.7086 O   0  0  0  0  0  0  0  0  0  0  0  0
  2  8  1  0
  2  1  1  6
  3  2  1  0
  4  3  1  0
  4  5  1  0
  6  5  1  0
  7  6  1  0
  8  9  2  0
 10 11  1  0
 10  8  1  0
 11 12  1  6
 13 14  1  0
 13 12  1  0
 14 18  1  0
 15 14  2  0
 16 17  2  0
 16 11  1  0
 19 16  1  0
 20 19  1  0
 20 21  1  1
 22 26  1  0
 22 21  1  0
 23 22  2  0
 24 23  1  0
 24 25  1  0
 25 26  2  0
 27 20  1  0
 27 28  1  0
 29 27  2  0
M  END
$$$$
