KEH.pdb
     RDKit          3D

 29 29  0  0  1  0  0  0  0  0999 V2000
   20.9627  -15.7118  -17.8764 N   0  0  0  0  0  0  0  0  0  0  0  0
   20.2427  -14.9035  -16.9614 C   0  0  1  0  0  0  0  0  0  0  0  0
   20.2787  -15.3069  -15.5261 C   0  0  0  0  0  0  0  0  0  0  0  0
   19.5000  -16.5080  -15.1476 C   0  0  0  0  0  0  0  0  0  0  0  0
   19.6129  -16.9063  -13.7211 C   0  0  0  0  0  0  0  0  0  0  0  0
   18.9184  -18.1950  -13.4134 C   0  0  0  0  0  0  0  0  0  0  0  0
   19.7076  -19.3619  -13.6093 N   0  0  0  0  0  0  0  0  0  0  0  0
   20.6656  -13.4564  -17.0906 C   0  0  0  0  0  0  0  0  0  0  0  0
   21.8631  -13.2545  -17.3360 O   0  0  0  0  0  0  0  0  0  0  0  0
   19.7719  -12.3928  -16.9435 N   0  0  0  0  0  0  0  0  0  0  0  0
   19.9965  -10.9958  -17.1230 C   0  0  1  0  0  0  0  0  0  0  0  0
   18.8861  -10.2115  -17.7506 C   0  0  0  0  0  0  0  0  0  0  0  0
   17.6194  -10.1518  -16.9355 C   0  0  0  0  0  0  0  0  0  0  0  0
   16.6473   -9.2890  -17.6510 C   0  0  0  0  0  0  0  0  0  0  0  0
   15.9121   -9.7807  -18.5189 O   0  0  0  0  0  0  0  0  0  0  0  0
   20.5778  -10.2915  -15.9835 C   0  0  0  0  0  0  0  0  0  0  0  0
   20.1429  -10.5842  -14.8086 O   0  0  0  0  0  0  0  0  0  0  0  0
   16.5699   -7.9553  -17.3469 O   0  0  0  0  0  0  0  0  0  0  0  0
   21.5843   -9.3235  -16.1631 N   0  0  0  0  0  0  0  0  0  0  0  0
   22.1352   -8.6715  -14.9754 C   0  0  1  0  0  0  0  0  0  0  0  0
   23.5608   -8.2799  -15.3755 C   0  0  0  0  0  0  0  0  0  0  0  0
   24.4541   -9.4610  -15.3951 C   0  0  0  0  0  0  0  0  0  0  0  0
   24.0767  -10.7624  -15.0955 C   0  0  0  0  0  0  0  0  0  0  0  0
   25.1460  -11.5619  -15.2205 N   0  0  0  0  0  0  0  0  0  0  0  0
   26.1987  -10.8076  -15.5921 C   0  0  0  0  0  0  0  0  0  0  0  0
   25.7635   -9.5309  -15.6947 N   0  0  0  0  0  0  0  0  0  0  0  0
   21.3378   -7.4329  -14.7618 C   0  0  0  0  0  0  0  0  0  0  0  0
   21.3982   -6.6884  -13.6183 O   0  0  0  0  0  0  0  0  0  0  0  0
   20.5490   -7.0250  -15.6801 O   0  0  0  0  0  0  0  0  0  0  0  0
  2  8  1  0
  2  1  1  6
  3  2  1  0
  4  3  1  0
  4  5  1  0
  6  5  1  0
  7  6  1  0
  8  9  2  0
 10 11  1  0
 10  8  1  0
 11 12  1  1
 13 14  1  0
 13 12  1  0
 14 18  1  0
 15 14  2  0
 16 17  2  0
 16 11  1  0
 19 16  1  0
 20 19  1  0
 20 21  1  6
 22 26  1  0
 22 21  1  0
 23 22  2  0
 24 23  1  0
 24 25  1  0
 25 26  2  0
 27 20  1  0
 27 28  1  0
 29 27  2  0
M  END
$$$$
