KEH.pdb
     RDKit          3D

 29 29  0  0  1  0  0  0  0  0999 V2000
   25.4561  -17.9702  -16.9441 N   0  0  0  0  0  0  0  0  0  0  0  0
   24.4556  -16.9993  -17.2000 C   0  0  1  0  0  0  0  0  0  0  0  0
   24.4636  -16.3555  -18.5451 C   0  0  0  0  0  0  0  0  0  0  0  0
   25.7564  -16.3254  -19.2663 C   0  0  0  0  0  0  0  0  0  0  0  0
   26.2841  -17.6552  -19.6660 C   0  0  0  0  0  0  0  0  0  0  0  0
   27.5323  -17.5705  -20.4861 C   0  0  0  0  0  0  0  0  0  0  0  0
   28.2164  -18.8047  -20.6642 N   0  0  0  0  0  0  0  0  0  0  0  0
   23.0827  -17.5712  -16.9213 C   0  0  0  0  0  0  0  0  0  0  0  0
   22.5294  -18.1541  -17.8642 O   0  0  0  0  0  0  0  0  0  0  0  0
   22.4558  -17.4578  -15.6780 N   0  0  0  0  0  0  0  0  0  0  0  0
   21.1881  -17.9596  -15.2590 C   0  0  1  0  0  0  0  0  0  0  0  0
   21.1547  -18.6993  -13.9576 C   0  0  0  0  0  0  0  0  0  0  0  0
   19.8181  -19.3051  -13.6125 C   0  0  0  0  0  0  0  0  0  0  0  0
   19.9589  -20.0412  -12.3320 C   0  0  0  0  0  0  0  0  0  0  0  0
   19.3094  -19.6792  -11.3407 O   0  0  0  0  0  0  0  0  0  0  0  0
   20.0636  -17.0365  -15.3843 C   0  0  0  0  0  0  0  0  0  0  0  0
   20.1303  -15.9165  -14.7547 O   0  0  0  0  0  0  0  0  0  0  0  0
   20.8059  -21.1154  -12.2551 O   0  0  0  0  0  0  0  0  0  0  0  0
   18.9414  -17.3597  -16.1710 N   0  0  0  0  0  0  0  0  0  0  0  0
   17.8759  -16.3657  -16.2953 C   0  0  1  0  0  0  0  0  0  0  0  0
   16.9920  -16.8866  -17.4325 C   0  0  0  0  0  0  0  0  0  0  0  0
   15.8774  -15.9528  -17.7140 C   0  0  0  0  0  0  0  0  0  0  0  0
   16.0144  -14.6227  -18.0854 C   0  0  0  0  0  0  0  0  0  0  0  0
   14.7939  -14.0942  -18.2570 N   0  0  0  0  0  0  0  0  0  0  0  0
   13.8784  -15.0502  -18.0054 C   0  0  0  0  0  0  0  0  0  0  0  0
   14.5516  -16.1763  -17.6761 N   0  0  0  0  0  0  0  0  0  0  0  0
   17.1018  -16.4109  -15.0247 C   0  0  0  0  0  0  0  0  0  0  0  0
   16.3601  -15.3626  -14.5591 O   0  0  0  0  0  0  0  0  0  0  0  0
   17.1163  -17.4732  -14.3154 O   0  0  0  0  0  0  0  0  0  0  0  0
  2  8  1  0
  2  1  1  6
  3  2  1  0
  4  3  1  0
  4  5  1  0
  6  5  1  0
  7  6  1  0
  8  9  2  0
 10 11  1  0
 10  8  1  0
 11 12  1  1
 13 14  1  0
 13 12  1  0
 14 18  1  0
 15 14  2  0
 16 17  2  0
 16 11  1  0
 19 16  1  0
 20 19  1  0
 20 21  1  6
 22 26  1  0
 22 21  1  0
 23 22  2  0
 24 23  1  0
 24 25  1  0
 25 26  2  0
 27 20  1  0
 27 28  1  0
 29 27  2  0
M  END
$$$$
