KEH.pdb
     RDKit          3D

 29 29  0  0  1  0  0  0  0  0999 V2000
   35.5235   -8.9287  -15.9982 N   0  0  0  0  0  0  0  0  0  0  0  0
   34.4428   -8.0149  -15.9215 C   0  0  1  0  0  0  0  0  0  0  0  0
   34.7827   -6.5631  -15.8951 C   0  0  0  0  0  0  0  0  0  0  0  0
   35.5964   -6.0858  -14.7540 C   0  0  0  0  0  0  0  0  0  0  0  0
   36.0008   -4.6582  -14.8241 C   0  0  0  0  0  0  0  0  0  0  0  0
   36.9028   -4.2465  -13.7039 C   0  0  0  0  0  0  0  0  0  0  0  0
   37.3340   -2.8919  -13.7496 N   0  0  0  0  0  0  0  0  0  0  0  0
   33.4479   -8.2811  -17.0301 C   0  0  0  0  0  0  0  0  0  0  0  0
   33.5266   -7.5480  -18.0258 O   0  0  0  0  0  0  0  0  0  0  0  0
   32.4855   -9.2910  -16.9543 N   0  0  0  0  0  0  0  0  0  0  0  0
   31.5089   -9.6791  -17.9186 C   0  0  1  0  0  0  0  0  0  0  0  0
   31.2710  -11.1485  -18.0805 C   0  0  0  0  0  0  0  0  0  0  0  0
   30.3534  -11.5156  -19.2190 C   0  0  0  0  0  0  0  0  0  0  0  0
   30.2298  -12.9935  -19.2574 C   0  0  0  0  0  0  0  0  0  0  0  0
   29.1779  -13.5318  -18.8841 O   0  0  0  0  0  0  0  0  0  0  0  0
   30.2563   -8.9288  -17.8956 C   0  0  0  0  0  0  0  0  0  0  0  0
   29.6571   -8.7910  -16.7654 O   0  0  0  0  0  0  0  0  0  0  0  0
   31.2793  -13.7520  -19.7050 O   0  0  0  0  0  0  0  0  0  0  0  0
   29.7208   -8.3711  -19.0723 N   0  0  0  0  0  0  0  0  0  0  0  0
   28.4978   -7.5762  -18.9652 C   0  0  1  0  0  0  0  0  0  0  0  0
   28.3781   -6.8667  -20.3173 C   0  0  0  0  0  0  0  0  0  0  0  0
   27.2474   -5.9102  -20.3209 C   0  0  0  0  0  0  0  0  0  0  0  0
   26.6757   -5.3334  -19.1956 C   0  0  0  0  0  0  0  0  0  0  0  0
   25.6816   -4.5215  -19.5840 N   0  0  0  0  0  0  0  0  0  0  0  0
   25.6010   -4.5627  -20.9283 C   0  0  0  0  0  0  0  0  0  0  0  0
   26.5597   -5.4117  -21.3638 N   0  0  0  0  0  0  0  0  0  0  0  0
   27.3736   -8.5420  -18.8272 C   0  0  0  0  0  0  0  0  0  0  0  0
   26.2769   -8.3118  -18.0462 O   0  0  0  0  0  0  0  0  0  0  0  0
   27.4134   -9.6501  -19.4614 O   0  0  0  0  0  0  0  0  0  0  0  0
  2  8  1  0
  2  1  1  6
  3  2  1  0
  4  3  1  0
  4  5  1  0
  6  5  1  0
  7  6  1  0
  8  9  2  0
 10 11  1  0
 10  8  1  0
 11 12  1  1
 13 14  1  0
 13 12  1  0
 14 18  1  0
 15 14  2  0
 16 17  2  0
 16 11  1  0
 19 16  1  0
 20 19  1  0
 20 21  1  6
 22 26  1  0
 22 21  1  0
 23 22  2  0
 24 23  1  0
 24 25  1  0
 25 26  2  0
 27 20  1  0
 27 28  1  0
 29 27  2  0
M  END
$$$$
