KEH.pdb
     RDKit          3D

 29 29  0  0  1  0  0  0  0  0999 V2000
   24.5068  -11.8086  -16.0241 N   0  0  0  0  0  0  0  0  0  0  0  0
   23.3103  -11.3703  -16.6446 C   0  0  1  0  0  0  0  0  0  0  0  0
   22.2132  -12.3707  -16.7848 C   0  0  0  0  0  0  0  0  0  0  0  0
   22.5589  -13.6591  -17.4274 C   0  0  0  0  0  0  0  0  0  0  0  0
   21.4332  -14.6199  -17.5544 C   0  0  0  0  0  0  0  0  0  0  0  0
   21.8260  -15.9017  -18.2182 C   0  0  0  0  0  0  0  0  0  0  0  0
   20.7844  -16.8644  -18.3245 N   0  0  0  0  0  0  0  0  0  0  0  0
   22.7808  -10.1328  -15.9534 C   0  0  0  0  0  0  0  0  0  0  0  0
   22.6637  -10.1999  -14.7218 O   0  0  0  0  0  0  0  0  0  0  0  0
   22.4358   -8.9701  -16.6467 N   0  0  0  0  0  0  0  0  0  0  0  0
   21.8362   -7.7726  -16.1557 C   0  0  1  0  0  0  0  0  0  0  0  0
   22.0168   -6.5406  -16.9872 C   0  0  0  0  0  0  0  0  0  0  0  0
   21.2945   -6.5631  -18.3102 C   0  0  0  0  0  0  0  0  0  0  0  0
   21.5837   -5.2919  -19.0186 C   0  0  0  0  0  0  0  0  0  0  0  0
   22.4171   -4.5035  -18.5502 O   0  0  0  0  0  0  0  0  0  0  0  0
   20.4654   -7.8990  -15.6685 C   0  0  0  0  0  0  0  0  0  0  0  0
   19.7122   -8.7890  -16.2124 O   0  0  0  0  0  0  0  0  0  0  0  0
   20.9272   -4.9993  -20.1851 O   0  0  0  0  0  0  0  0  0  0  0  0
   19.9821   -7.0747  -14.6344 N   0  0  0  0  0  0  0  0  0  0  0  0
   18.6322   -7.3213  -14.1285 C   0  0  1  0  0  0  0  0  0  0  0  0
   18.8293   -8.2857  -12.9551 C   0  0  0  0  0  0  0  0  0  0  0  0
   17.5575   -8.5143  -12.2315 C   0  0  0  0  0  0  0  0  0  0  0  0
   16.3100   -8.0543  -12.6287 C   0  0  0  0  0  0  0  0  0  0  0  0
   15.3965   -8.4539  -11.7320 N   0  0  0  0  0  0  0  0  0  0  0  0
   16.0254   -9.1578  -10.7706 C   0  0  0  0  0  0  0  0  0  0  0  0
   17.3402   -9.1868  -11.0870 N   0  0  0  0  0  0  0  0  0  0  0  0
   18.1305   -6.0216  -13.6042 C   0  0  0  0  0  0  0  0  0  0  0  0
   16.8035   -5.7152  -13.5007 O   0  0  0  0  0  0  0  0  0  0  0  0
   18.9641   -5.1308  -13.2258 O   0  0  0  0  0  0  0  0  0  0  0  0
  2  8  1  0
  2  1  1  1
  3  2  1  0
  4  3  1  0
  4  5  1  0
  6  5  1  0
  7  6  1  0
  8  9  2  0
 10 11  1  0
 10  8  1  0
 11 12  1  6
 13 14  1  0
 13 12  1  0
 14 18  1  0
 15 14  2  0
 16 17  2  0
 16 11  1  0
 19 16  1  0
 20 19  1  0
 20 21  1  1
 22 26  1  0
 22 21  1  0
 23 22  2  0
 24 23  1  0
 24 25  1  0
 25 26  2  0
 27 20  1  0
 27 28  1  0
 29 27  2  0
M  END
$$$$
