KEH.pdb
     RDKit          3D

 29 29  0  0  1  0  0  0  0  0999 V2000
   20.8676  -14.4238  -20.4531 N   0  0  0  0  0  0  0  0  0  0  0  0
   21.3629  -14.6205  -19.1397 C   0  0  1  0  0  0  0  0  0  0  0  0
   20.7910  -13.7610  -18.0634 C   0  0  0  0  0  0  0  0  0  0  0  0
   20.6469  -12.3182  -18.3633 C   0  0  0  0  0  0  0  0  0  0  0  0
   20.1328  -11.4915  -17.2414 C   0  0  0  0  0  0  0  0  0  0  0  0
   20.1301  -10.0264  -17.5434 C   0  0  0  0  0  0  0  0  0  0  0  0
   19.5808   -9.2054  -16.5201 N   0  0  0  0  0  0  0  0  0  0  0  0
   21.2410  -16.0756  -18.7430 C   0  0  0  0  0  0  0  0  0  0  0  0
   20.1911  -16.6471  -19.0687 O   0  0  0  0  0  0  0  0  0  0  0  0
   22.2438  -16.7547  -18.0466 N   0  0  0  0  0  0  0  0  0  0  0  0
   22.2752  -18.1113  -17.6072 C   0  0  1  0  0  0  0  0  0  0  0  0
   23.6251  -18.7480  -17.4873 C   0  0  0  0  0  0  0  0  0  0  0  0
   24.7162  -18.0611  -18.2685 C   0  0  0  0  0  0  0  0  0  0  0  0
   25.9670  -18.8420  -18.1038 C   0  0  0  0  0  0  0  0  0  0  0  0
   26.3077  -19.6484  -18.9808 O   0  0  0  0  0  0  0  0  0  0  0  0
   21.4238  -18.4317  -16.4649 C   0  0  0  0  0  0  0  0  0  0  0  0
   21.5441  -17.7143  -15.4037 O   0  0  0  0  0  0  0  0  0  0  0  0
   26.7356  -18.6658  -16.9833 O   0  0  0  0  0  0  0  0  0  0  0  0
   20.4982  -19.4911  -16.5221 N   0  0  0  0  0  0  0  0  0  0  0  0
   19.4485  -19.5466  -15.5051 C   0  0  1  0  0  0  0  0  0  0  0  0
   18.5365  -18.3587  -15.8256 C   0  0  0  0  0  0  0  0  0  0  0  0
   18.4722  -17.4120  -14.6884 C   0  0  0  0  0  0  0  0  0  0  0  0
   19.1453  -17.5530  -13.4830 C   0  0  0  0  0  0  0  0  0  0  0  0
   18.8493  -16.5068  -12.6981 N   0  0  0  0  0  0  0  0  0  0  0  0
   18.0043  -15.6992  -13.3682 C   0  0  0  0  0  0  0  0  0  0  0  0
   17.7832  -16.2621  -14.5782 N   0  0  0  0  0  0  0  0  0  0  0  0
   18.6953  -20.8089  -15.7400 C   0  0  0  0  0  0  0  0  0  0  0  0
   18.3630  -21.2650  -16.9839 O   0  0  0  0  0  0  0  0  0  0  0  0
   18.3294  -21.5192  -14.7434 O   0  0  0  0  0  0  0  0  0  0  0  0
  2  8  1  0
  2  1  1  6
  3  2  1  0
  4  3  1  0
  4  5  1  0
  6  5  1  0
  7  6  1  0
  8  9  2  0
 10 11  1  0
 10  8  1  0
 11 12  1  1
 13 14  1  0
 13 12  1  0
 14 18  1  0
 15 14  2  0
 16 17  2  0
 16 11  1  0
 19 16  1  0
 20 19  1  0
 20 21  1  6
 22 26  1  0
 22 21  1  0
 23 22  2  0
 24 23  1  0
 24 25  1  0
 25 26  2  0
 27 20  1  0
 27 28  1  0
 29 27  2  0
M  END
$$$$
