KEH.pdb
     RDKit          3D

 29 29  0  0  1  0  0  0  0  0999 V2000
   28.6799  -21.9611  -16.1469 N   0  0  0  0  0  0  0  0  0  0  0  0
   27.7454  -20.9540  -16.4953 C   0  0  1  0  0  0  0  0  0  0  0  0
   27.3555  -20.8581  -17.9316 C   0  0  0  0  0  0  0  0  0  0  0  0
   28.2542  -20.0866  -18.8201 C   0  0  0  0  0  0  0  0  0  0  0  0
   29.7012  -20.3809  -18.6592 C   0  0  0  0  0  0  0  0  0  0  0  0
   30.5762  -19.5102  -19.5042 C   0  0  0  0  0  0  0  0  0  0  0  0
   30.1410  -19.3495  -20.8488 N   0  0  0  0  0  0  0  0  0  0  0  0
   26.5022  -21.0703  -15.6406 C   0  0  0  0  0  0  0  0  0  0  0  0
   25.4336  -21.2342  -16.2458 O   0  0  0  0  0  0  0  0  0  0  0  0
   26.5355  -20.9979  -14.2459 N   0  0  0  0  0  0  0  0  0  0  0  0
   25.4607  -21.0913  -13.3129 C   0  0  1  0  0  0  0  0  0  0  0  0
   25.8213  -21.0116  -11.8618 C   0  0  0  0  0  0  0  0  0  0  0  0
   24.6505  -21.1037  -10.9166 C   0  0  0  0  0  0  0  0  0  0  0  0
   25.1740  -21.1091   -9.5284 C   0  0  0  0  0  0  0  0  0  0  0  0
   26.3858  -20.9451   -9.3282 O   0  0  0  0  0  0  0  0  0  0  0  0
   24.2781  -20.2916  -13.6199 C   0  0  0  0  0  0  0  0  0  0  0  0
   24.3814  -19.0112  -13.5488 O   0  0  0  0  0  0  0  0  0  0  0  0
   24.3138  -21.2957   -8.4784 O   0  0  0  0  0  0  0  0  0  0  0  0
   23.0624  -20.9012  -13.9846 N   0  0  0  0  0  0  0  0  0  0  0  0
   21.9107  -20.0401  -14.2511 C   0  0  1  0  0  0  0  0  0  0  0  0
   21.2034  -20.6973  -15.4401 C   0  0  0  0  0  0  0  0  0  0  0  0
   19.9960  -19.9345  -15.8321 C   0  0  0  0  0  0  0  0  0  0  0  0
   19.6416  -18.6824  -15.3499 C   0  0  0  0  0  0  0  0  0  0  0  0
   18.4922  -18.3059  -15.9291 N   0  0  0  0  0  0  0  0  0  0  0  0
   18.1005  -19.2834  -16.7696 C   0  0  0  0  0  0  0  0  0  0  0  0
   19.0249  -20.2686  -16.7007 N   0  0  0  0  0  0  0  0  0  0  0  0
   21.0275  -20.1294  -13.0562 C   0  0  0  0  0  0  0  0  0  0  0  0
   20.1459  -19.1492  -12.6988 O   0  0  0  0  0  0  0  0  0  0  0  0
   21.0785  -21.1655  -12.3110 O   0  0  0  0  0  0  0  0  0  0  0  0
  2  8  1  0
  2  1  1  6
  3  2  1  0
  4  3  1  0
  4  5  1  0
  6  5  1  0
  7  6  1  0
  8  9  2  0
 10 11  1  0
 10  8  1  0
 11 12  1  1
 13 14  1  0
 13 12  1  0
 14 18  1  0
 15 14  2  0
 16 17  2  0
 16 11  1  0
 19 16  1  0
 20 19  1  0
 20 21  1  6
 22 26  1  0
 22 21  1  0
 23 22  2  0
 24 23  1  0
 24 25  1  0
 25 26  2  0
 27 20  1  0
 27 28  1  0
 29 27  2  0
M  END
$$$$
