AEN.pdb
     RDKit          3D

 23 22  0  0  1  0  0  0  0  0999 V2000
    8.6732  -12.2363   19.9333 C   0  0  0  0  0  0  0  0  0  0  0  0
    7.8380  -13.2467   19.1911 C   0  0  2  0  0  0  0  0  0  0  0  0
    6.4508  -13.1283   19.5660 N   0  0  0  0  0  0  0  0  0  0  0  0
    8.3642  -14.6117   19.4394 C   0  0  0  0  0  0  0  0  0  0  0  0
    7.7908  -15.3853   20.2478 O   0  0  0  0  0  0  0  0  0  0  0  0
    9.5229  -15.0941   18.7825 N   0  0  0  0  0  0  0  0  0  0  0  0
    9.9718  -16.4277   19.0073 C   0  0  1  0  0  0  0  0  0  0  0  0
   10.5916  -16.9687   17.7549 C   0  0  0  0  0  0  0  0  0  0  0  0
   10.8826  -18.4394   17.8185 C   0  0  0  0  0  0  0  0  0  0  0  0
   11.4599  -18.8764   16.5273 C   0  0  0  0  0  0  0  0  0  0  0  0
   11.6392  -18.0587   15.5960 O   0  0  0  0  0  0  0  0  0  0  0  0
   10.9553  -16.5279   20.1204 C   0  0  0  0  0  0  0  0  0  0  0  0
   11.7573  -15.5696   20.2566 O   0  0  0  0  0  0  0  0  0  0  0  0
   11.8103  -20.2003   16.3326 O   0  0  0  0  0  0  0  0  0  0  0  0
   12.3695  -15.6401   23.9568 N   0  0  0  0  0  0  0  0  0  0  0  0
   11.3242  -16.6039   24.2712 C   0  0  0  0  0  0  0  0  0  0  0  0
   10.6496  -16.4417   25.3044 O   0  0  0  0  0  0  0  0  0  0  0  0
   11.0851  -17.7399   23.3735 C   0  0  0  0  0  0  0  0  0  0  0  0
   11.9249  -17.6355   22.1342 C   0  0  2  0  0  0  0  0  0  0  0  0
   10.9976  -17.6395   20.9901 N   0  0  0  0  0  0  0  0  0  0  0  0
   12.9603  -18.6312   21.9807 C   0  0  0  0  0  0  0  0  0  0  0  0
   12.8430  -19.6927   21.3700 O   0  0  0  0  0  0  0  0  0  0  0  0
   14.2187  -18.3917   22.5701 O   0  0  0  0  0  0  0  0  0  0  0  0
  2  4  1  0
  2  1  1  1
  2  3  1  0
  4  5  2  0
  6  7  1  0
  6  4  1  0
  7 12  1  0
  7  8  1  6
  9  8  1  0
 10  9  1  0
 11 10  2  0
 12 13  2  0
 12 20  1  0
 14 10  1  0
 16 15  1  0
 17 16  2  0
 18 16  1  0
 19 18  1  1
 19 21  1  0
 20 19  1  0
 21 22  2  0
 21 23  1  0
M  END
$$$$
