AEN.pdb
     RDKit          3D

 23 22  0  0  1  0  0  0  0  0999 V2000
    7.9629  -12.2912   20.1558 C   0  0  0  0  0  0  0  0  0  0  0  0
    7.9612  -13.3339   19.0686 C   0  0  2  0  0  0  0  0  0  0  0  0
    6.6748  -13.3847   18.4195 N   0  0  0  0  0  0  0  0  0  0  0  0
    8.3480  -14.6498   19.6352 C   0  0  0  0  0  0  0  0  0  0  0  0
    7.4730  -15.4763   19.9984 O   0  0  0  0  0  0  0  0  0  0  0  0
    9.7055  -15.0245   19.7887 N   0  0  0  0  0  0  0  0  0  0  0  0
   10.0412  -16.3315   20.2464 C   0  0  1  0  0  0  0  0  0  0  0  0
   10.8280  -17.0484   19.1917 C   0  0  0  0  0  0  0  0  0  0  0  0
    9.9885  -17.5372   18.0480 C   0  0  0  0  0  0  0  0  0  0  0  0
   10.8404  -18.3102   17.1162 C   0  0  0  0  0  0  0  0  0  0  0  0
   11.9289  -18.7978   17.4976 O   0  0  0  0  0  0  0  0  0  0  0  0
   10.8233  -16.3184   21.5131 C   0  0  0  0  0  0  0  0  0  0  0  0
   11.6946  -15.4202   21.6326 O   0  0  0  0  0  0  0  0  0  0  0  0
   10.4423  -18.5046   15.8057 O   0  0  0  0  0  0  0  0  0  0  0  0
   11.3925  -17.3082   27.0659 N   0  0  0  0  0  0  0  0  0  0  0  0
   11.5933  -18.2500   25.9736 C   0  0  0  0  0  0  0  0  0  0  0  0
   12.4555  -19.1388   26.0986 O   0  0  0  0  0  0  0  0  0  0  0  0
   10.7838  -18.1373   24.7549 C   0  0  0  0  0  0  0  0  0  0  0  0
   11.4196  -17.2023   23.7682 C   0  0  2  0  0  0  0  0  0  0  0  0
   10.6081  -17.2626   22.5407 N   0  0  0  0  0  0  0  0  0  0  0  0
   12.8194  -17.4261   23.4897 C   0  0  0  0  0  0  0  0  0  0  0  0
   13.2634  -18.2328   22.6740 O   0  0  0  0  0  0  0  0  0  0  0  0
   13.7768  -16.6706   24.1976 O   0  0  0  0  0  0  0  0  0  0  0  0
  2  4  1  0
  2  1  1  1
  2  3  1  0
  4  5  2  0
  6  7  1  0
  6  4  1  0
  7 12  1  0
  7  8  1  6
  9  8  1  0
 10  9  1  0
 11 10  2  0
 12 13  2  0
 12 20  1  0
 14 10  1  0
 16 15  1  0
 17 16  2  0
 18 16  1  0
 19 18  1  1
 19 21  1  0
 20 19  1  0
 21 22  2  0
 21 23  1  0
M  END
$$$$
