AEN.pdb
     RDKit          3D

 23 22  0  0  1  0  0  0  0  0999 V2000
    8.0654  -12.5637   20.1339 C   0  0  0  0  0  0  0  0  0  0  0  0
    7.6869  -13.7575   19.2966 C   0  0  2  0  0  0  0  0  0  0  0  0
    6.2530  -13.8918   19.2276 N   0  0  0  0  0  0  0  0  0  0  0  0
    8.3319  -14.9775   19.8421 C   0  0  0  0  0  0  0  0  0  0  0  0
    7.7059  -15.7448   20.6168 O   0  0  0  0  0  0  0  0  0  0  0  0
    9.6662  -15.3238   19.5159 N   0  0  0  0  0  0  0  0  0  0  0  0
   10.2626  -16.4892   20.0787 C   0  0  1  0  0  0  0  0  0  0  0  0
   11.3057  -17.0228   19.1446 C   0  0  0  0  0  0  0  0  0  0  0  0
   11.9416  -18.2952   19.6222 C   0  0  0  0  0  0  0  0  0  0  0  0
   12.7796  -18.8558   18.5382 C   0  0  0  0  0  0  0  0  0  0  0  0
   12.5257  -19.9799   18.0481 O   0  0  0  0  0  0  0  0  0  0  0  0
   10.8823  -16.2378   21.4088 C   0  0  0  0  0  0  0  0  0  0  0  0
   10.8486  -15.0561   21.8361 O   0  0  0  0  0  0  0  0  0  0  0  0
   13.8588  -18.1411   18.0504 O   0  0  0  0  0  0  0  0  0  0  0  0
   10.4794  -15.2282   25.2332 N   0  0  0  0  0  0  0  0  0  0  0  0
    9.4623  -16.1403   24.7292 C   0  0  0  0  0  0  0  0  0  0  0  0
    8.2687  -15.9187   25.0033 O   0  0  0  0  0  0  0  0  0  0  0  0
    9.8570  -17.2949   23.9140 C   0  0  0  0  0  0  0  0  0  0  0  0
   11.3307  -17.2783   23.6311 C   0  0  2  0  0  0  0  0  0  0  0  0
   11.4829  -17.2670   22.1663 N   0  0  0  0  0  0  0  0  0  0  0  0
   12.1073  -18.3354   24.2364 C   0  0  0  0  0  0  0  0  0  0  0  0
   12.6397  -18.2835   25.3442 O   0  0  0  0  0  0  0  0  0  0  0  0
   12.2854  -19.5366   23.5194 O   0  0  0  0  0  0  0  0  0  0  0  0
  2  4  1  0
  2  1  1  1
  2  3  1  0
  4  5  2  0
  6  7  1  0
  6  4  1  0
  7 12  1  0
  7  8  1  6
  9  8  1  0
 10  9  1  0
 11 10  2  0
 12 13  2  0
 12 20  1  0
 14 10  1  0
 16 15  1  0
 17 16  2  0
 18 16  1  0
 19 18  1  6
 19 21  1  0
 20 19  1  0
 21 22  2  0
 21 23  1  0
M  END
$$$$
