AEN.pdb
     RDKit          3D

 23 22  0  0  1  0  0  0  0  0999 V2000
    7.4374  -12.5321   20.5803 C   0  0  0  0  0  0  0  0  0  0  0  0
    8.0246  -13.6493   19.7577 C   0  0  2  0  0  0  0  0  0  0  0  0
    7.1168  -14.0323   18.7050 N   0  0  0  0  0  0  0  0  0  0  0  0
    8.3665  -14.7939   20.6379 C   0  0  0  0  0  0  0  0  0  0  0  0
    7.6014  -15.7875   20.7280 O   0  0  0  0  0  0  0  0  0  0  0  0
    9.5571  -14.8136   21.4053 N   0  0  0  0  0  0  0  0  0  0  0  0
    9.9570  -16.0044   22.0781 C   0  0  1  0  0  0  0  0  0  0  0  0
   11.4485  -16.1376   22.0235 C   0  0  0  0  0  0  0  0  0  0  0  0
   11.9663  -17.3572   22.7278 C   0  0  0  0  0  0  0  0  0  0  0  0
   13.4333  -17.4365   22.5463 C   0  0  0  0  0  0  0  0  0  0  0  0
   14.2124  -17.0355   23.4409 O   0  0  0  0  0  0  0  0  0  0  0  0
    9.5161  -16.0422   23.4995 C   0  0  0  0  0  0  0  0  0  0  0  0
    9.6544  -14.9847   24.1647 O   0  0  0  0  0  0  0  0  0  0  0  0
   13.9645  -17.9576   21.3801 O   0  0  0  0  0  0  0  0  0  0  0  0
    5.9523  -18.2136   23.4211 N   0  0  0  0  0  0  0  0  0  0  0  0
    6.2717  -17.4350   24.6095 C   0  0  0  0  0  0  0  0  0  0  0  0
    5.6999  -16.3433   24.7830 O   0  0  0  0  0  0  0  0  0  0  0  0
    7.2530  -17.9450   25.5739 C   0  0  0  0  0  0  0  0  0  0  0  0
    8.5385  -17.1747   25.4957 C   0  0  2  0  0  0  0  0  0  0  0  0
    8.9666  -17.2029   24.0868 N   0  0  0  0  0  0  0  0  0  0  0  0
    9.5957  -17.6085   26.3796 C   0  0  0  0  0  0  0  0  0  0  0  0
   10.7087  -17.9935   26.0239 O   0  0  0  0  0  0  0  0  0  0  0  0
    9.3583  -17.6000   27.7696 O   0  0  0  0  0  0  0  0  0  0  0  0
  2  4  1  0
  2  1  1  1
  2  3  1  0
  4  5  2  0
  6  7  1  0
  6  4  1  0
  7 12  1  0
  7  8  1  1
  9  8  1  0
 10  9  1  0
 11 10  2  0
 12 13  2  0
 12 20  1  0
 14 10  1  0
 16 15  1  0
 17 16  2  0
 18 16  1  0
 19 18  1  6
 19 21  1  0
 20 19  1  0
 21 22  2  0
 21 23  1  0
M  END
$$$$
