AEN.pdb
     RDKit          3D

 23 22  0  0  1  0  0  0  0  0999 V2000
    7.8105  -12.4592   20.7151 C   0  0  0  0  0  0  0  0  0  0  0  0
    8.0410  -13.8270   20.1272 C   0  0  2  0  0  0  0  0  0  0  0  0
    6.9105  -14.2305   19.3284 N   0  0  0  0  0  0  0  0  0  0  0  0
    8.3269  -14.7976   21.2126 C   0  0  0  0  0  0  0  0  0  0  0  0
    7.3927  -15.3123   21.8782 O   0  0  0  0  0  0  0  0  0  0  0  0
    9.6511  -15.1800   21.5401 N   0  0  0  0  0  0  0  0  0  0  0  0
    9.8876  -16.1333   22.5725 C   0  0  1  0  0  0  0  0  0  0  0  0
   10.8699  -17.1594   22.0955 C   0  0  0  0  0  0  0  0  0  0  0  0
   10.3766  -17.9625   20.9280 C   0  0  0  0  0  0  0  0  0  0  0  0
   11.4073  -18.9565   20.5523 C   0  0  0  0  0  0  0  0  0  0  0  0
   12.4543  -19.0807   21.2279 O   0  0  0  0  0  0  0  0  0  0  0  0
   10.3992  -15.5145   23.8261 C   0  0  0  0  0  0  0  0  0  0  0  0
   10.8040  -14.3269   23.7483 O   0  0  0  0  0  0  0  0  0  0  0  0
   11.2255  -19.7648   19.4445 O   0  0  0  0  0  0  0  0  0  0  0  0
   10.1058  -13.8385   28.4988 N   0  0  0  0  0  0  0  0  0  0  0  0
    9.1103  -13.7109   27.4438 C   0  0  0  0  0  0  0  0  0  0  0  0
    8.1851  -12.8911   27.5880 O   0  0  0  0  0  0  0  0  0  0  0  0
    9.2130  -14.5426   26.2393 C   0  0  0  0  0  0  0  0  0  0  0  0
   10.3918  -15.4678   26.3201 C   0  0  2  0  0  0  0  0  0  0  0  0
   10.4344  -16.2149   25.0517 N   0  0  0  0  0  0  0  0  0  0  0  0
   10.4277  -16.3555   27.4594 C   0  0  0  0  0  0  0  0  0  0  0  0
   10.6085  -16.0101   28.6262 O   0  0  0  0  0  0  0  0  0  0  0  0
   10.2433  -17.7368   27.2439 O   0  0  0  0  0  0  0  0  0  0  0  0
  2  4  1  0
  2  1  1  1
  2  3  1  0
  4  5  2  0
  6  7  1  0
  6  4  1  0
  7 12  1  0
  7  8  1  6
  9  8  1  0
 10  9  1  0
 11 10  2  0
 12 13  2  0
 12 20  1  0
 14 10  1  0
 16 15  1  0
 17 16  2  0
 18 16  1  0
 19 18  1  6
 19 21  1  0
 20 19  1  0
 21 22  2  0
 21 23  1  0
M  END
$$$$
