AEN.pdb
     RDKit          3D

 23 22  0  0  1  0  0  0  0  0999 V2000
    7.1420  -13.9650   18.8735 C   0  0  0  0  0  0  0  0  0  0  0  0
    8.3946  -13.1736   19.1457 C   0  0  2  0  0  0  0  0  0  0  0  0
    8.6397  -12.2337   18.0802 N   0  0  0  0  0  0  0  0  0  0  0  0
    9.5387  -14.0979   19.3431 C   0  0  0  0  0  0  0  0  0  0  0  0
    9.4177  -15.1295   20.0515 O   0  0  0  0  0  0  0  0  0  0  0  0
   10.8014  -13.8578   18.7475 N   0  0  0  0  0  0  0  0  0  0  0  0
   11.8683  -14.7845   18.9304 C   0  0  1  0  0  0  0  0  0  0  0  0
   12.8987  -14.5842   17.8611 C   0  0  0  0  0  0  0  0  0  0  0  0
   14.0595  -15.5295   17.9645 C   0  0  0  0  0  0  0  0  0  0  0  0
   14.9606  -15.3200   16.8088 C   0  0  0  0  0  0  0  0  0  0  0  0
   16.1044  -15.8294   16.7874 O   0  0  0  0  0  0  0  0  0  0  0  0
   12.5194  -14.6622   20.2636 C   0  0  0  0  0  0  0  0  0  0  0  0
   13.2148  -13.6342   20.4631 O   0  0  0  0  0  0  0  0  0  0  0  0
   14.5482  -14.5550   15.7326 O   0  0  0  0  0  0  0  0  0  0  0  0
   12.0711  -18.3104   24.6569 N   0  0  0  0  0  0  0  0  0  0  0  0
   11.9558  -17.4549   23.4841 C   0  0  0  0  0  0  0  0  0  0  0  0
   11.6932  -17.9762   22.3849 O   0  0  0  0  0  0  0  0  0  0  0  0
   12.1490  -16.0063   23.6157 C   0  0  0  0  0  0  0  0  0  0  0  0
   13.0713  -15.4852   22.5528 C   0  0  2  0  0  0  0  0  0  0  0  0
   12.3721  -15.6451   21.2666 N   0  0  0  0  0  0  0  0  0  0  0  0
   14.3924  -16.0688   22.5140 C   0  0  0  0  0  0  0  0  0  0  0  0
   14.8151  -16.8170   21.6338 O   0  0  0  0  0  0  0  0  0  0  0  0
   15.2912  -15.7726   23.5594 O   0  0  0  0  0  0  0  0  0  0  0  0
  2  4  1  0
  2  1  1  6
  2  3  1  0
  4  5  2  0
  6  7  1  0
  6  4  1  0
  7 12  1  0
  7  8  1  6
  9  8  1  0
 10  9  1  0
 11 10  2  0
 12 13  2  0
 12 20  1  0
 14 10  1  0
 16 15  1  0
 17 16  2  0
 18 16  1  0
 19 18  1  1
 19 21  1  0
 20 19  1  0
 21 22  2  0
 21 23  1  0
M  END
$$$$
