AEN.pdb
     RDKit          3D

 23 22  0  0  1  0  0  0  0  0999 V2000
    6.9213  -12.4187   19.0980 C   0  0  0  0  0  0  0  0  0  0  0  0
    8.2731  -12.9947   18.7659 C   0  0  2  0  0  0  0  0  0  0  0  0
    8.4599  -13.0534   17.3375 N   0  0  0  0  0  0  0  0  0  0  0  0
    8.4189  -14.3289   19.3989 C   0  0  0  0  0  0  0  0  0  0  0  0
    8.1593  -14.4947   20.6179 O   0  0  0  0  0  0  0  0  0  0  0  0
    8.8527  -15.4589   18.6630 N   0  0  0  0  0  0  0  0  0  0  0  0
    9.0363  -16.7123   19.3156 C   0  0  1  0  0  0  0  0  0  0  0  0
    9.1776  -17.7976   18.2920 C   0  0  0  0  0  0  0  0  0  0  0  0
    9.2423  -19.1744   18.8851 C   0  0  0  0  0  0  0  0  0  0  0  0
    9.3568  -20.1681   17.7939 C   0  0  0  0  0  0  0  0  0  0  0  0
   10.4682  -20.4299   17.2796 O   0  0  0  0  0  0  0  0  0  0  0  0
   10.2248  -16.7299   20.2118 C   0  0  0  0  0  0  0  0  0  0  0  0
   11.2083  -16.0287   19.8636 O   0  0  0  0  0  0  0  0  0  0  0  0
    8.2318  -20.8235   17.3266 O   0  0  0  0  0  0  0  0  0  0  0  0
   12.4526  -16.2612   24.7663 N   0  0  0  0  0  0  0  0  0  0  0  0
   11.0231  -16.5084   24.8923 C   0  0  0  0  0  0  0  0  0  0  0  0
   10.4874  -16.3759   26.0079 O   0  0  0  0  0  0  0  0  0  0  0  0
   10.2445  -16.9057   23.7137 C   0  0  0  0  0  0  0  0  0  0  0  0
   11.1285  -17.0692   22.5120 C   0  0  2  0  0  0  0  0  0  0  0  0
   10.2609  -17.4924   21.3997 N   0  0  0  0  0  0  0  0  0  0  0  0
   12.2590  -17.9548   22.6688 C   0  0  0  0  0  0  0  0  0  0  0  0
   13.3042  -17.8971   22.0226 O   0  0  0  0  0  0  0  0  0  0  0  0
   12.1843  -18.9788   23.6354 O   0  0  0  0  0  0  0  0  0  0  0  0
  2  4  1  0
  2  1  1  6
  2  3  1  0
  4  5  2  0
  6  7  1  0
  6  4  1  0
  7 12  1  0
  7  8  1  6
  9  8  1  0
 10  9  1  0
 11 10  2  0
 12 13  2  0
 12 20  1  0
 14 10  1  0
 16 15  1  0
 17 16  2  0
 18 16  1  0
 19 18  1  1
 19 21  1  0
 20 19  1  0
 21 22  2  0
 21 23  1  0
M  END
$$$$
