AEN.pdb
     RDKit          3D

 23 22  0  0  1  0  0  0  0  0999 V2000
    6.8710  -12.7286   19.0894 C   0  0  0  0  0  0  0  0  0  0  0  0
    8.2037  -13.2892   18.6661 C   0  0  2  0  0  0  0  0  0  0  0  0
    8.2224  -13.5284   17.2444 N   0  0  0  0  0  0  0  0  0  0  0  0
    8.4977  -14.5214   19.4390 C   0  0  0  0  0  0  0  0  0  0  0  0
    8.4666  -14.5153   20.6959 O   0  0  0  0  0  0  0  0  0  0  0  0
    8.8224  -15.7425   18.7986 N   0  0  0  0  0  0  0  0  0  0  0  0
    8.9391  -16.9420   19.5590 C   0  0  1  0  0  0  0  0  0  0  0  0
    8.9365  -18.1245   18.6386 C   0  0  0  0  0  0  0  0  0  0  0  0
    7.6738  -18.2571   17.8388 C   0  0  0  0  0  0  0  0  0  0  0  0
    7.9088  -19.1871   16.7113 C   0  0  0  0  0  0  0  0  0  0  0  0
    8.4846  -18.7986   15.6694 O   0  0  0  0  0  0  0  0  0  0  0  0
   10.1692  -16.9792   20.3967 C   0  0  0  0  0  0  0  0  0  0  0  0
   11.2467  -16.6539   19.8370 O   0  0  0  0  0  0  0  0  0  0  0  0
    7.4931  -20.5038   16.7952 O   0  0  0  0  0  0  0  0  0  0  0  0
   12.2777  -16.6218   25.9789 N   0  0  0  0  0  0  0  0  0  0  0  0
   12.3866  -16.3915   24.5452 C   0  0  0  0  0  0  0  0  0  0  0  0
   13.5061  -16.1446   24.0606 O   0  0  0  0  0  0  0  0  0  0  0  0
   11.1867  -16.4536   23.7029 C   0  0  0  0  0  0  0  0  0  0  0  0
   11.3935  -17.3720   22.5343 C   0  0  2  0  0  0  0  0  0  0  0  0
   10.1431  -17.3593   21.7563 N   0  0  0  0  0  0  0  0  0  0  0  0
   11.8082  -18.7196   22.8490 C   0  0  0  0  0  0  0  0  0  0  0  0
   11.0576  -19.6382   23.1748 O   0  0  0  0  0  0  0  0  0  0  0  0
   13.1812  -19.0347   22.7854 O   0  0  0  0  0  0  0  0  0  0  0  0
  2  4  1  0
  2  1  1  1
  2  3  1  0
  4  5  2  0
  6  7  1  0
  6  4  1  0
  7 12  1  0
  7  8  1  6
  9  8  1  0
 10  9  1  0
 11 10  2  0
 12 13  2  0
 12 20  1  0
 14 10  1  0
 16 15  1  0
 17 16  2  0
 18 16  1  0
 19 18  1  1
 19 21  1  0
 20 19  1  0
 21 22  2  0
 21 23  1  0
M  END
$$$$
