AEN.pdb
     RDKit          3D

 23 22  0  0  1  0  0  0  0  0999 V2000
    9.3058  -18.2512   18.7379 C   0  0  0  0  0  0  0  0  0  0  0  0
    9.4944  -18.5855   20.1947 C   0  0  2  0  0  0  0  0  0  0  0  0
    8.2845  -19.1438   20.7454 N   0  0  0  0  0  0  0  0  0  0  0  0
    9.9327  -17.3758   20.9341 C   0  0  0  0  0  0  0  0  0  0  0  0
   11.1522  -17.0834   21.0241 O   0  0  0  0  0  0  0  0  0  0  0  0
    9.0044  -16.5100   21.5627 N   0  0  0  0  0  0  0  0  0  0  0  0
    9.4592  -15.3448   22.2453 C   0  0  1  0  0  0  0  0  0  0  0  0
    8.3408  -14.3529   22.3495 C   0  0  0  0  0  0  0  0  0  0  0  0
    6.9793  -14.9835   22.3412 C   0  0  0  0  0  0  0  0  0  0  0  0
    6.6446  -15.3980   20.9600 C   0  0  0  0  0  0  0  0  0  0  0  0
    7.1240  -14.7913   19.9749 O   0  0  0  0  0  0  0  0  0  0  0  0
    9.9787  -15.6385   23.6092 C   0  0  0  0  0  0  0  0  0  0  0  0
   10.3889  -14.6597   24.2829 O   0  0  0  0  0  0  0  0  0  0  0  0
    5.7940  -16.4663   20.7392 O   0  0  0  0  0  0  0  0  0  0  0  0
   10.5412  -19.8532   27.7710 N   0  0  0  0  0  0  0  0  0  0  0  0
   10.2830  -18.4432   27.5150 C   0  0  0  0  0  0  0  0  0  0  0  0
   10.5744  -17.6108   28.3931 O   0  0  0  0  0  0  0  0  0  0  0  0
    9.6895  -18.0302   26.2381 C   0  0  0  0  0  0  0  0  0  0  0  0
   10.6471  -17.1919   25.4429 C   0  0  2  0  0  0  0  0  0  0  0  0
   10.0151  -16.9484   24.1352 N   0  0  0  0  0  0  0  0  0  0  0  0
   11.9841  -17.7190   25.2955 C   0  0  0  0  0  0  0  0  0  0  0  0
   12.4265  -18.2671   24.2869 O   0  0  0  0  0  0  0  0  0  0  0  0
   12.8756  -17.6094   26.3825 O   0  0  0  0  0  0  0  0  0  0  0  0
  2  4  1  0
  2  1  1  6
  2  3  1  0
  4  5  2  0
  6  7  1  0
  6  4  1  0
  7 12  1  0
  7  8  1  1
  9  8  1  0
 10  9  1  0
 11 10  2  0
 12 13  2  0
 12 20  1  0
 14 10  1  0
 16 15  1  0
 17 16  2  0
 18 16  1  0
 19 18  1  1
 19 21  1  0
 20 19  1  0
 21 22  2  0
 21 23  1  0
M  END
$$$$
