AEN.pdb
     RDKit          3D

 23 22  0  0  1  0  0  0  0  0999 V2000
    5.4103  -22.4844   20.9265 C   0  0  0  0  0  0  0  0  0  0  0  0
    5.4271  -21.3528   21.9207 C   0  0  2  0  0  0  0  0  0  0  0  0
    5.3375  -20.0835   21.2427 N   0  0  0  0  0  0  0  0  0  0  0  0
    6.6440  -21.4451   22.7650 C   0  0  0  0  0  0  0  0  0  0  0  0
    6.9377  -22.5154   23.3557 O   0  0  0  0  0  0  0  0  0  0  0  0
    7.5156  -20.3419   22.9383 N   0  0  0  0  0  0  0  0  0  0  0  0
    8.6979  -20.4785   23.7219 C   0  0  1  0  0  0  0  0  0  0  0  0
    9.8331  -19.7683   23.0494 C   0  0  0  0  0  0  0  0  0  0  0  0
   10.8572  -20.6964   22.4650 C   0  0  0  0  0  0  0  0  0  0  0  0
   11.9220  -19.8983   21.8167 C   0  0  0  0  0  0  0  0  0  0  0  0
   12.9003  -19.4789   22.4765 O   0  0  0  0  0  0  0  0  0  0  0  0
    8.5413  -19.9475   25.1039 C   0  0  0  0  0  0  0  0  0  0  0  0
    8.2678  -18.7256   25.2145 O   0  0  0  0  0  0  0  0  0  0  0  0
   11.8494  -19.6045   20.4669 O   0  0  0  0  0  0  0  0  0  0  0  0
    6.4366  -23.1178   27.7082 N   0  0  0  0  0  0  0  0  0  0  0  0
    6.6655  -21.7233   28.0594 C   0  0  0  0  0  0  0  0  0  0  0  0
    5.7119  -20.9257   28.0011 O   0  0  0  0  0  0  0  0  0  0  0  0
    8.0035  -21.2850   28.4724 C   0  0  0  0  0  0  0  0  0  0  0  0
    8.5088  -20.1837   27.5870 C   0  0  2  0  0  0  0  0  0  0  0  0
    8.6895  -20.7648   26.2458 N   0  0  0  0  0  0  0  0  0  0  0  0
    9.7020  -19.5033   28.0348 C   0  0  0  0  0  0  0  0  0  0  0  0
   10.7949  -19.5361   27.4710 O   0  0  0  0  0  0  0  0  0  0  0  0
    9.6358  -18.7312   29.2129 O   0  0  0  0  0  0  0  0  0  0  0  0
  2  4  1  0
  2  1  1  6
  2  3  1  0
  4  5  2  0
  6  7  1  0
  6  4  1  0
  7 12  1  0
  7  8  1  6
  9  8  1  0
 10  9  1  0
 11 10  2  0
 12 13  2  0
 12 20  1  0
 14 10  1  0
 16 15  1  0
 17 16  2  0
 18 16  1  0
 19 18  1  1
 19 21  1  0
 20 19  1  0
 21 22  2  0
 21 23  1  0
M  END
$$$$
