AEN.pdb
     RDKit          3D

 23 22  0  0  1  0  0  0  0  0999 V2000
    7.8970  -12.3962   19.7304 C   0  0  0  0  0  0  0  0  0  0  0  0
    8.0428  -13.4130   18.6284 C   0  0  2  0  0  0  0  0  0  0  0  0
    6.7681  -13.6683   18.0050 N   0  0  0  0  0  0  0  0  0  0  0  0
    8.6538  -14.6530   19.1678 C   0  0  0  0  0  0  0  0  0  0  0  0
    7.9494  -15.5176   19.7485 O   0  0  0  0  0  0  0  0  0  0  0  0
   10.0420  -14.9106   19.0521 N   0  0  0  0  0  0  0  0  0  0  0  0
   10.5806  -16.1519   19.4988 C   0  0  1  0  0  0  0  0  0  0  0  0
   11.5464  -16.6778   18.4809 C   0  0  0  0  0  0  0  0  0  0  0  0
   10.8856  -17.1634   17.2243 C   0  0  0  0  0  0  0  0  0  0  0  0
   11.9094  -17.7594   16.3366 C   0  0  0  0  0  0  0  0  0  0  0  0
   12.6825  -18.6501   16.7574 O   0  0  0  0  0  0  0  0  0  0  0  0
   11.2694  -16.0443   20.8142 C   0  0  0  0  0  0  0  0  0  0  0  0
   12.0231  -15.0521   20.9805 O   0  0  0  0  0  0  0  0  0  0  0  0
   12.0252  -17.3378   15.0242 O   0  0  0  0  0  0  0  0  0  0  0  0
   11.5634  -18.4256   26.3679 N   0  0  0  0  0  0  0  0  0  0  0  0
   11.5084  -17.2483   25.5127 C   0  0  0  0  0  0  0  0  0  0  0  0
   12.0019  -16.1831   25.9258 O   0  0  0  0  0  0  0  0  0  0  0  0
   10.8784  -17.3358   24.1903 C   0  0  0  0  0  0  0  0  0  0  0  0
   11.8032  -16.8406   23.1172 C   0  0  2  0  0  0  0  0  0  0  0  0
   11.0946  -17.0027   21.8364 N   0  0  0  0  0  0  0  0  0  0  0  0
   13.1146  -17.4453   23.0776 C   0  0  0  0  0  0  0  0  0  0  0  0
   13.3620  -18.5852   22.6867 O   0  0  0  0  0  0  0  0  0  0  0  0
   14.2198  -16.6882   23.5180 O   0  0  0  0  0  0  0  0  0  0  0  0
  2  4  1  0
  2  1  1  1
  2  3  1  0
  4  5  2  0
  6  7  1  0
  6  4  1  0
  7 12  1  0
  7  8  1  6
  9  8  1  0
 10  9  1  0
 11 10  2  0
 12 13  2  0
 12 20  1  0
 14 10  1  0
 16 15  1  0
 17 16  2  0
 18 16  1  0
 19 18  1  1
 19 21  1  0
 20 19  1  0
 21 22  2  0
 21 23  1  0
M  END
$$$$
