AEN.pdb
     RDKit          3D

 23 22  0  0  1  0  0  0  0  0999 V2000
    6.9109  -13.0668   19.7850 C   0  0  0  0  0  0  0  0  0  0  0  0
    8.3510  -13.1281   20.2231 C   0  0  2  0  0  0  0  0  0  0  0  0
    9.2073  -13.4283   19.1026 N   0  0  0  0  0  0  0  0  0  0  0  0
    8.5008  -14.1204   21.3162 C   0  0  0  0  0  0  0  0  0  0  0  0
    7.8062  -14.0368   22.3609 O   0  0  0  0  0  0  0  0  0  0  0  0
    9.4236  -15.1916   21.2284 N   0  0  0  0  0  0  0  0  0  0  0  0
    9.5231  -16.1409   22.2864 C   0  0  1  0  0  0  0  0  0  0  0  0
   10.1385  -17.4065   21.7718 C   0  0  0  0  0  0  0  0  0  0  0  0
   10.2667  -18.4768   22.8156 C   0  0  0  0  0  0  0  0  0  0  0  0
   11.0951  -19.5806   22.2801 C   0  0  0  0  0  0  0  0  0  0  0  0
   12.1904  -19.3463   21.7201 O   0  0  0  0  0  0  0  0  0  0  0  0
   10.3242  -15.6427   23.4380 C   0  0  0  0  0  0  0  0  0  0  0  0
   11.0278  -14.6201   23.2395 O   0  0  0  0  0  0  0  0  0  0  0  0
   10.6674  -20.8913   22.3923 O   0  0  0  0  0  0  0  0  0  0  0  0
    9.6548  -13.7273   27.9747 N   0  0  0  0  0  0  0  0  0  0  0  0
    8.7007  -13.7391   26.8746 C   0  0  0  0  0  0  0  0  0  0  0  0
    7.6952  -13.0090   26.9446 O   0  0  0  0  0  0  0  0  0  0  0  0
    8.9377  -14.6031   25.7125 C   0  0  0  0  0  0  0  0  0  0  0  0
   10.1457  -15.4690   25.9201 C   0  0  2  0  0  0  0  0  0  0  0  0
   10.3050  -16.2772   24.6993 N   0  0  0  0  0  0  0  0  0  0  0  0
   10.1412  -16.2947   27.1055 C   0  0  0  0  0  0  0  0  0  0  0  0
    9.4935  -17.3305   27.2498 O   0  0  0  0  0  0  0  0  0  0  0  0
   10.9362  -15.9035   28.2026 O   0  0  0  0  0  0  0  0  0  0  0  0
  2  4  1  0
  2  1  1  6
  2  3  1  0
  4  5  2  0
  6  7  1  0
  6  4  1  0
  7 12  1  0
  7  8  1  6
  9  8  1  0
 10  9  1  0
 11 10  2  0
 12 13  2  0
 12 20  1  0
 14 10  1  0
 16 15  1  0
 17 16  2  0
 18 16  1  0
 19 18  1  6
 19 21  1  0
 20 19  1  0
 21 22  2  0
 21 23  1  0
M  END
$$$$
