DVW.pdb
     RDKit          3D

 30 31  0  0  1  0  0  0  0  0999 V2000
    9.5337  -18.4290   17.9306 N   0  0  0  0  0  0  0  0  0  0  0  0
    9.4019  -18.3085   19.3690 C   0  0  1  0  0  0  0  0  0  0  0  0
   10.5078  -19.0404   20.0942 C   0  0  0  0  0  0  0  0  0  0  0  0
   10.4237  -20.4957   19.8874 C   0  0  0  0  0  0  0  0  0  0  0  0
    9.2936  -21.0702   20.0388 O   0  0  0  0  0  0  0  0  0  0  0  0
    9.3171  -16.8757   19.7718 C   0  0  0  0  0  0  0  0  0  0  0  0
    9.1638  -15.9845   18.8997 O   0  0  0  0  0  0  0  0  0  0  0  0
   11.4834  -21.3070   19.5370 O   0  0  0  0  0  0  0  0  0  0  0  0
    7.2743  -13.4541   21.6114 C   0  0  0  0  0  0  0  0  0  0  0  0
    7.7291  -14.7582   21.0008 C   0  0  1  0  0  0  0  0  0  0  0  0
    7.6756  -14.7669   19.5091 C   0  0  0  0  0  0  0  0  0  0  0  0
    9.0921  -15.1637   21.5268 C   0  0  2  0  0  0  0  0  0  0  0  0
    9.4083  -16.5016   21.1410 N   0  0  0  0  0  0  0  0  0  0  0  0
    9.1791  -14.9623   23.0029 C   0  0  0  0  0  0  0  0  0  0  0  0
    9.2335  -13.7989   23.4894 O   0  0  0  0  0  0  0  0  0  0  0  0
    9.2059  -16.0389   23.9302 N   0  0  0  0  0  0  0  0  0  0  0  0
    9.9402  -16.0259   25.1592 C   0  0  1  0  0  0  0  0  0  0  0  0
    9.0827  -16.1640   26.3937 C   0  0  0  0  0  0  0  0  0  0  0  0
    7.7816  -15.4746   26.2503 C   0  0  0  0  0  0  0  0  0  0  0  0
    6.5715  -16.0387   25.8773 C   0  0  0  0  0  0  0  0  0  0  0  0
    5.6114  -15.0991   25.8607 N   0  0  0  0  0  0  0  0  0  0  0  0
    6.1434  -13.9101   26.2139 C   0  0  0  0  0  0  0  0  0  0  0  0
    5.5833  -12.6564   26.3458 C   0  0  0  0  0  0  0  0  0  0  0  0
    6.3574  -11.5800   26.7278 C   0  0  0  0  0  0  0  0  0  0  0  0
    7.6956  -11.8175   26.9670 C   0  0  0  0  0  0  0  0  0  0  0  0
    8.2718  -13.0681   26.8392 C   0  0  0  0  0  0  0  0  0  0  0  0
    7.4820  -14.1325   26.4561 C   0  0  0  0  0  0  0  0  0  0  0  0
   11.0522  -17.0151   25.1654 C   0  0  0  0  0  0  0  0  0  0  0  0
   11.8716  -16.9657   26.1173 O   0  0  0  0  0  0  0  0  0  0  0  0
   11.2055  -17.9553   24.1875 O   0  0  0  0  0  0  0  0  0  0  0  0
  2  1  1  6
  2  6  1  0
  2  3  1  0
  4  3  1  0
  4  5  2  0
  6  7  2  0
  8  4  1  0
 10 11  1  6
 10 12  1  0
 10  9  1  0
 12 13  1  1
 13  6  1  0
 14 12  1  0
 14 15  2  0
 16 14  1  0
 17 16  1  0
 17 28  1  0
 17 18  1  1
 19 18  1  0
 20 19  2  0
 21 22  1  0
 21 20  1  0
 22 27  2  0
 23 24  2  0
 23 22  1  0
 24 25  1  0
 25 26  2  0
 27 26  1  0
 27 19  1  0
 28 29  2  0
 28 30  1  0
M  END
$$$$
