DVW.pdb
     RDKit          3D

 30 31  0  0  1  0  0  0  0  0999 V2000
    9.5812  -18.8369   19.7089 N   0  0  0  0  0  0  0  0  0  0  0  0
   10.3239  -17.7801   19.0512 C   0  0  1  0  0  0  0  0  0  0  0  0
   10.1760  -17.8457   17.5484 C   0  0  0  0  0  0  0  0  0  0  0  0
   10.7117  -19.1042   17.0035 C   0  0  0  0  0  0  0  0  0  0  0  0
    9.9373  -20.1166   16.9289 O   0  0  0  0  0  0  0  0  0  0  0  0
    9.9384  -16.4473   19.5968 C   0  0  0  0  0  0  0  0  0  0  0  0
    9.7462  -15.4801   18.8185 O   0  0  0  0  0  0  0  0  0  0  0  0
   12.0050  -19.2857   16.5581 O   0  0  0  0  0  0  0  0  0  0  0  0
    7.2383  -13.5389   21.4240 C   0  0  0  0  0  0  0  0  0  0  0  0
    7.9764  -14.6610   20.7338 C   0  0  1  0  0  0  0  0  0  0  0  0
    8.2332  -14.4020   19.2864 C   0  0  0  0  0  0  0  0  0  0  0  0
    9.2428  -15.0263   21.4832 C   0  0  2  0  0  0  0  0  0  0  0  0
    9.7842  -16.2552   20.9976 N   0  0  0  0  0  0  0  0  0  0  0  0
    9.0058  -15.0527   22.9564 C   0  0  0  0  0  0  0  0  0  0  0  0
    8.6568  -14.0055   23.5686 O   0  0  0  0  0  0  0  0  0  0  0  0
    9.1544  -16.2270   23.7428 N   0  0  0  0  0  0  0  0  0  0  0  0
    9.9639  -16.3110   24.9207 C   0  0  1  0  0  0  0  0  0  0  0  0
    9.6743  -15.2436   25.9479 C   0  0  0  0  0  0  0  0  0  0  0  0
    8.2279  -14.9525   26.0587 C   0  0  0  0  0  0  0  0  0  0  0  0
    7.1768  -15.8097   25.7721 C   0  0  0  0  0  0  0  0  0  0  0  0
    6.0050  -15.1919   25.9966 N   0  0  0  0  0  0  0  0  0  0  0  0
    6.2379  -13.9348   26.4289 C   0  0  0  0  0  0  0  0  0  0  0  0
    5.3826  -12.9145   26.7892 C   0  0  0  0  0  0  0  0  0  0  0  0
    5.8807  -11.6968   27.2050 C   0  0  0  0  0  0  0  0  0  0  0  0
    7.2529  -11.5546   27.2415 C   0  0  0  0  0  0  0  0  0  0  0  0
    8.1234  -12.5678   26.8836 C   0  0  0  0  0  0  0  0  0  0  0  0
    7.6069  -13.7785   26.4702 C   0  0  0  0  0  0  0  0  0  0  0  0
    9.9338  -17.6670   25.5335 C   0  0  0  0  0  0  0  0  0  0  0  0
    9.1605  -18.5189   25.0271 O   0  0  0  0  0  0  0  0  0  0  0  0
   10.7053  -18.0060   26.6075 O   0  0  0  0  0  0  0  0  0  0  0  0
  2  1  1  1
  2  6  1  0
  2  3  1  0
  4  3  1  0
  4  5  2  0
  6  7  2  0
  8  4  1  0
 10 11  1  6
 10 12  1  0
 10  9  1  0
 12 13  1  6
 13  6  1  0
 14 12  1  0
 14 15  2  0
 16 14  1  0
 17 16  1  0
 17 28  1  0
 17 18  1  1
 19 18  1  0
 20 19  2  0
 21 22  1  0
 21 20  1  0
 22 27  2  0
 23 24  2  0
 23 22  1  0
 24 25  1  0
 25 26  2  0
 27 26  1  0
 27 19  1  0
 28 29  2  0
 28 30  1  0
M  END
$$$$
