DVW.pdb
     RDKit          3D

 30 31  0  0  1  0  0  0  0  0999 V2000
   11.8124  -17.0253   17.7639 N   0  0  0  0  0  0  0  0  0  0  0  0
   10.8514  -17.6066   18.6800 C   0  0  1  0  0  0  0  0  0  0  0  0
   11.3238  -18.9400   19.2128 C   0  0  0  0  0  0  0  0  0  0  0  0
   11.4717  -19.9341   18.1369 C   0  0  0  0  0  0  0  0  0  0  0  0
   12.6190  -20.4600   17.9441 O   0  0  0  0  0  0  0  0  0  0  0  0
   10.5203  -16.6492   19.7737 C   0  0  0  0  0  0  0  0  0  0  0  0
   11.4405  -16.0827   20.4144 O   0  0  0  0  0  0  0  0  0  0  0  0
   10.4554  -20.3537   17.3031 O   0  0  0  0  0  0  0  0  0  0  0  0
    7.1496  -14.0976   22.3191 C   0  0  0  0  0  0  0  0  0  0  0  0
    7.4917  -14.9259   21.1037 C   0  0  1  0  0  0  0  0  0  0  0  0
    7.3110  -14.1940   19.8153 C   0  0  0  0  0  0  0  0  0  0  0  0
    8.8750  -15.5344   21.2269 C   0  0  2  0  0  0  0  0  0  0  0  0
    9.1660  -16.3666   20.1036 N   0  0  0  0  0  0  0  0  0  0  0  0
    9.0301  -16.2559   22.5240 C   0  0  0  0  0  0  0  0  0  0  0  0
    8.9633  -17.5155   22.5691 O   0  0  0  0  0  0  0  0  0  0  0  0
    9.2565  -15.5884   23.7580 N   0  0  0  0  0  0  0  0  0  0  0  0
    9.5085  -16.2545   25.0001 C   0  0  1  0  0  0  0  0  0  0  0  0
    9.3501  -15.3754   26.2168 C   0  0  0  0  0  0  0  0  0  0  0  0
    7.9763  -14.8415   26.3454 C   0  0  0  0  0  0  0  0  0  0  0  0
    6.7891  -15.5482   26.2313 C   0  0  0  0  0  0  0  0  0  0  0  0
    5.7438  -14.7241   26.4133 N   0  0  0  0  0  0  0  0  0  0  0  0
    6.1955  -13.4741   26.6481 C   0  0  0  0  0  0  0  0  0  0  0  0
    5.5330  -12.2892   26.8923 C   0  0  0  0  0  0  0  0  0  0  0  0
    6.2390  -11.1229   27.1053 C   0  0  0  0  0  0  0  0  0  0  0  0
    7.6161  -11.2013   27.0624 C   0  0  0  0  0  0  0  0  0  0  0  0
    8.2948  -12.3813   26.8188 C   0  0  0  0  0  0  0  0  0  0  0  0
    7.5719  -13.5374   26.6080 C   0  0  0  0  0  0  0  0  0  0  0  0
    8.7215  -17.5100   25.1397 C   0  0  0  0  0  0  0  0  0  0  0  0
    7.6500  -17.6022   24.4889 O   0  0  0  0  0  0  0  0  0  0  0  0
    9.1207  -18.5433   25.9375 O   0  0  0  0  0  0  0  0  0  0  0  0
  2  1  1  6
  2  6  1  0
  2  3  1  0
  4  3  1  0
  4  5  2  0
  6  7  2  0
  8  4  1  0
 10 11  1  6
 10 12  1  0
 10  9  1  0
 12 13  1  6
 13  6  1  0
 14 12  1  0
 14 15  2  0
 16 14  1  0
 17 16  1  0
 17 28  1  0
 17 18  1  1
 19 18  1  0
 20 19  2  0
 21 22  1  0
 21 20  1  0
 22 27  2  0
 23 24  2  0
 23 22  1  0
 24 25  1  0
 25 26  2  0
 27 26  1  0
 27 19  1  0
 28 29  2  0
 28 30  1  0
M  END
$$$$
