DVW.pdb
     RDKit          3D

 30 31  0  0  1  0  0  0  0  0999 V2000
   10.2178  -18.5243   18.1770 N   0  0  0  0  0  0  0  0  0  0  0  0
    9.7033  -17.1838   18.3748 C   0  0  1  0  0  0  0  0  0  0  0  0
    8.8107  -16.7543   17.2331 C   0  0  0  0  0  0  0  0  0  0  0  0
    9.5782  -16.5325   15.9963 C   0  0  0  0  0  0  0  0  0  0  0  0
   10.5652  -17.3018   15.7432 O   0  0  0  0  0  0  0  0  0  0  0  0
    9.0210  -17.0710   19.6954 C   0  0  0  0  0  0  0  0  0  0  0  0
    8.6081  -15.9547   20.0975 O   0  0  0  0  0  0  0  0  0  0  0  0
    9.3159  -15.5443   15.0697 O   0  0  0  0  0  0  0  0  0  0  0  0
    6.6757  -19.2343   23.4188 C   0  0  0  0  0  0  0  0  0  0  0  0
    7.3230  -19.3244   22.0575 C   0  0  1  0  0  0  0  0  0  0  0  0
    6.3594  -19.6332   20.9602 C   0  0  0  0  0  0  0  0  0  0  0  0
    8.1504  -18.0888   21.7613 C   0  0  2  0  0  0  0  0  0  0  0  0
    8.8301  -18.2196   20.5124 N   0  0  0  0  0  0  0  0  0  0  0  0
    9.0825  -17.7850   22.8864 C   0  0  0  0  0  0  0  0  0  0  0  0
   10.1816  -18.3966   22.9916 O   0  0  0  0  0  0  0  0  0  0  0  0
    8.7995  -16.8139   23.8847 N   0  0  0  0  0  0  0  0  0  0  0  0
    9.6645  -16.5139   24.9854 C   0  0  1  0  0  0  0  0  0  0  0  0
    9.5683  -15.0903   25.4776 C   0  0  0  0  0  0  0  0  0  0  0  0
    8.1667  -14.6634   25.6828 C   0  0  0  0  0  0  0  0  0  0  0  0
    7.0482  -15.4774   25.7746 C   0  0  0  0  0  0  0  0  0  0  0  0
    5.9488  -14.7290   25.9647 N   0  0  0  0  0  0  0  0  0  0  0  0
    6.2966  -13.4255   26.0038 C   0  0  0  0  0  0  0  0  0  0  0  0
    5.5472  -12.2800   26.1739 C   0  0  0  0  0  0  0  0  0  0  0  0
    6.1531  -11.0404   26.1752 C   0  0  0  0  0  0  0  0  0  0  0  0
    7.5216  -11.0059   26.0010 C   0  0  0  0  0  0  0  0  0  0  0  0
    8.2866  -12.1450   25.8293 C   0  0  0  0  0  0  0  0  0  0  0  0
    7.6632  -13.3758   25.8307 C   0  0  0  0  0  0  0  0  0  0  0  0
    9.5108  -17.4804   26.1067 C   0  0  0  0  0  0  0  0  0  0  0  0
    8.4523  -18.1567   26.1529 O   0  0  0  0  0  0  0  0  0  0  0  0
   10.4660  -17.6505   27.0670 O   0  0  0  0  0  0  0  0  0  0  0  0
  2  1  1  6
  2  6  1  0
  2  3  1  0
  4  3  1  0
  4  5  2  0
  6  7  2  0
  8  4  1  0
 10 11  1  6
 10 12  1  0
 10  9  1  0
 12 13  1  6
 13  6  1  0
 14 12  1  0
 14 15  2  0
 16 14  1  0
 17 16  1  0
 17 28  1  0
 17 18  1  1
 19 18  1  0
 20 19  2  0
 21 22  1  0
 21 20  1  0
 22 27  2  0
 23 24  2  0
 23 22  1  0
 24 25  1  0
 25 26  2  0
 27 26  1  0
 27 19  1  0
 28 29  2  0
 28 30  1  0
M  END
$$$$
