DVW.pdb
     RDKit          3D

 30 31  0  0  1  0  0  0  0  0999 V2000
    9.3821  -19.5329   18.8132 N   0  0  0  0  0  0  0  0  0  0  0  0
    8.6996  -19.0956   20.0149 C   0  0  1  0  0  0  0  0  0  0  0  0
    8.9041  -20.0645   21.1569 C   0  0  0  0  0  0  0  0  0  0  0  0
    8.6234  -21.4515   20.7504 C   0  0  0  0  0  0  0  0  0  0  0  0
    7.5562  -21.6913   20.0919 O   0  0  0  0  0  0  0  0  0  0  0  0
    9.1056  -17.7073   20.3755 C   0  0  0  0  0  0  0  0  0  0  0  0
   10.2634  -17.3002   20.1073 O   0  0  0  0  0  0  0  0  0  0  0  0
    9.4319  -22.5351   21.0262 O   0  0  0  0  0  0  0  0  0  0  0  0
    7.7844  -13.1648   21.7377 C   0  0  0  0  0  0  0  0  0  0  0  0
    7.3876  -14.5648   21.3343 C   0  0  1  0  0  0  0  0  0  0  0  0
    6.6114  -14.6191   20.0605 C   0  0  0  0  0  0  0  0  0  0  0  0
    8.5887  -15.4899   21.3123 C   0  0  2  0  0  0  0  0  0  0  0  0
    8.1921  -16.8310   21.0241 N   0  0  0  0  0  0  0  0  0  0  0  0
    9.3678  -15.3878   22.5810 C   0  0  0  0  0  0  0  0  0  0  0  0
   10.1852  -14.4424   22.7574 O   0  0  0  0  0  0  0  0  0  0  0  0
    9.2426  -16.3239   23.6429 N   0  0  0  0  0  0  0  0  0  0  0  0
    9.9613  -16.2419   24.8784 C   0  0  1  0  0  0  0  0  0  0  0  0
    9.7364  -14.9590   25.6411 C   0  0  0  0  0  0  0  0  0  0  0  0
    8.3125  -14.7579   25.9888 C   0  0  0  0  0  0  0  0  0  0  0  0
    7.2993  -15.7033   25.9498 C   0  0  0  0  0  0  0  0  0  0  0  0
    6.1386  -15.1501   26.3393 N   0  0  0  0  0  0  0  0  0  0  0  0
    6.3418  -13.8505   26.6414 C   0  0  0  0  0  0  0  0  0  0  0  0
    5.4831  -12.8651   27.0819 C   0  0  0  0  0  0  0  0  0  0  0  0
    5.9470  -11.5882   27.3232 C   0  0  0  0  0  0  0  0  0  0  0  0
    7.2890  -11.3519   27.1054 C   0  0  0  0  0  0  0  0  0  0  0  0
    8.1625  -12.3290   26.6640 C   0  0  0  0  0  0  0  0  0  0  0  0
    7.6804  -13.5999   26.4280 C   0  0  0  0  0  0  0  0  0  0  0  0
    9.7328  -17.4289   25.7468 C   0  0  0  0  0  0  0  0  0  0  0  0
   10.3037  -17.4512   26.8664 O   0  0  0  0  0  0  0  0  0  0  0  0
    8.9377  -18.4730   25.3708 O   0  0  0  0  0  0  0  0  0  0  0  0
  2  1  1  6
  2  6  1  0
  2  3  1  0
  4  3  1  0
  4  5  2  0
  6  7  2  0
  8  4  1  0
 10 11  1  6
 10 12  1  0
 10  9  1  0
 12 13  1  1
 13  6  1  0
 14 12  1  0
 14 15  2  0
 16 14  1  0
 17 16  1  0
 17 28  1  0
 17 18  1  1
 19 18  1  0
 20 19  2  0
 21 22  1  0
 21 20  1  0
 22 27  2  0
 23 24  2  0
 23 22  1  0
 24 25  1  0
 25 26  2  0
 27 26  1  0
 27 19  1  0
 28 29  2  0
 28 30  1  0
M  END
$$$$
