DVW.pdb
     RDKit          3D

 30 31  0  0  1  0  0  0  0  0999 V2000
   12.0912  -16.5866   17.5061 N   0  0  0  0  0  0  0  0  0  0  0  0
   11.0784  -17.2219   18.3256 C   0  0  1  0  0  0  0  0  0  0  0  0
   11.5182  -18.5893   18.7965 C   0  0  0  0  0  0  0  0  0  0  0  0
   11.7662  -19.4999   17.6665 C   0  0  0  0  0  0  0  0  0  0  0  0
   10.7933  -19.7947   16.8941 O   0  0  0  0  0  0  0  0  0  0  0  0
   10.6858  -16.3361   19.4586 C   0  0  0  0  0  0  0  0  0  0  0  0
   11.5655  -15.7187   20.1091 O   0  0  0  0  0  0  0  0  0  0  0  0
   12.9849  -20.0729   17.3657 O   0  0  0  0  0  0  0  0  0  0  0  0
    7.2126  -13.9723   22.0103 C   0  0  0  0  0  0  0  0  0  0  0  0
    7.6106  -14.7548   20.7816 C   0  0  1  0  0  0  0  0  0  0  0  0
    7.5162  -13.9660   19.5179 C   0  0  0  0  0  0  0  0  0  0  0  0
    8.9745  -15.3936   20.9569 C   0  0  2  0  0  0  0  0  0  0  0  0
    9.3179  -16.1798   19.8154 N   0  0  0  0  0  0  0  0  0  0  0  0
    9.0417  -16.1753   22.2263 C   0  0  0  0  0  0  0  0  0  0  0  0
    8.7523  -17.4038   22.2391 O   0  0  0  0  0  0  0  0  0  0  0  0
    9.4252  -15.6014   23.4686 N   0  0  0  0  0  0  0  0  0  0  0  0
    9.5169  -16.3290   24.6983 C   0  0  1  0  0  0  0  0  0  0  0  0
    9.5246  -15.4598   25.9323 C   0  0  0  0  0  0  0  0  0  0  0  0
    8.2395  -14.7528   26.1258 C   0  0  0  0  0  0  0  0  0  0  0  0
    6.9664  -15.2982   26.0664 C   0  0  0  0  0  0  0  0  0  0  0  0
    6.0468  -14.3465   26.2982 N   0  0  0  0  0  0  0  0  0  0  0  0
    6.6678  -13.1677   26.5131 C   0  0  0  0  0  0  0  0  0  0  0  0
    6.1773  -11.9084   26.7896 C   0  0  0  0  0  0  0  0  0  0  0  0
    7.0383  -10.8455   26.9707 C   0  0  0  0  0  0  0  0  0  0  0  0
    8.3900  -11.1020   26.8633 C   0  0  0  0  0  0  0  0  0  0  0  0
    8.8972  -12.3584   26.5868 C   0  0  0  0  0  0  0  0  0  0  0  0
    8.0210  -13.4091   26.4086 C   0  0  0  0  0  0  0  0  0  0  0  0
    8.4870  -17.3984   24.8021 C   0  0  0  0  0  0  0  0  0  0  0  0
    7.3933  -17.2143   24.2105 O   0  0  0  0  0  0  0  0  0  0  0  0
    8.6908  -18.5497   25.5067 O   0  0  0  0  0  0  0  0  0  0  0  0
  2  1  1  1
  2  6  1  0
  2  3  1  0
  4  3  1  0
  4  5  2  0
  6  7  2  0
  8  4  1  0
 10 11  1  6
 10 12  1  0
 10  9  1  0
 12 13  1  6
 13  6  1  0
 14 12  1  0
 14 15  2  0
 16 14  1  0
 17 16  1  0
 17 28  1  0
 17 18  1  1
 19 18  1  0
 20 19  2  0
 21 22  1  0
 21 20  1  0
 22 27  2  0
 23 24  2  0
 23 22  1  0
 24 25  1  0
 25 26  2  0
 27 26  1  0
 27 19  1  0
 28 29  2  0
 28 30  1  0
M  END
$$$$
