DVW.pdb
     RDKit          3D

 30 31  0  0  1  0  0  0  0  0999 V2000
   10.9664  -17.3206   17.5343 N   0  0  0  0  0  0  0  0  0  0  0  0
   11.6442  -17.4700   18.8068 C   0  0  1  0  0  0  0  0  0  0  0  0
   13.1267  -17.2017   18.6845 C   0  0  0  0  0  0  0  0  0  0  0  0
   13.7984  -18.2224   17.8631 C   0  0  0  0  0  0  0  0  0  0  0  0
   14.9088  -17.9259   17.3071 O   0  0  0  0  0  0  0  0  0  0  0  0
   11.0024  -16.6185   19.8485 C   0  0  0  0  0  0  0  0  0  0  0  0
   11.6127  -15.6228   20.3115 O   0  0  0  0  0  0  0  0  0  0  0  0
   13.3200  -19.4971   17.6390 O   0  0  0  0  0  0  0  0  0  0  0  0
    6.9764  -15.0549   22.1265 C   0  0  0  0  0  0  0  0  0  0  0  0
    7.6274  -15.8820   21.0437 C   0  0  1  0  0  0  0  0  0  0  0  0
    7.3809  -15.3597   19.6673 C   0  0  0  0  0  0  0  0  0  0  0  0
    9.1038  -16.0856   21.3226 C   0  0  2  0  0  0  0  0  0  0  0  0
    9.6982  -16.9210   20.3288 N   0  0  0  0  0  0  0  0  0  0  0  0
    9.3221  -16.6035   22.7050 C   0  0  0  0  0  0  0  0  0  0  0  0
    9.5057  -17.8359   22.9066 O   0  0  0  0  0  0  0  0  0  0  0  0
    9.3364  -15.7646   23.8520 N   0  0  0  0  0  0  0  0  0  0  0  0
    9.5246  -16.2340   25.1915 C   0  0  1  0  0  0  0  0  0  0  0  0
    9.4479  -15.1532   26.2423 C   0  0  0  0  0  0  0  0  0  0  0  0
    8.1593  -14.4272   26.2042 C   0  0  0  0  0  0  0  0  0  0  0  0
    6.9115  -14.9510   25.9033 C   0  0  0  0  0  0  0  0  0  0  0  0
    5.9786  -13.9867   25.9735 N   0  0  0  0  0  0  0  0  0  0  0  0
    6.5658  -12.8206   26.3152 C   0  0  0  0  0  0  0  0  0  0  0  0
    6.0506  -11.5564   26.5128 C   0  0  0  0  0  0  0  0  0  0  0  0
    6.8782  -10.5097   26.8641 C   0  0  0  0  0  0  0  0  0  0  0  0
    8.2226  -10.7872   27.0050 C   0  0  0  0  0  0  0  0  0  0  0  0
    8.7543  -12.0488   26.8104 C   0  0  0  0  0  0  0  0  0  0  0  0
    7.9113  -13.0831   26.4595 C   0  0  0  0  0  0  0  0  0  0  0  0
    8.6241  -17.3710   25.5252 C   0  0  0  0  0  0  0  0  0  0  0  0
    7.5604  -17.4859   24.8653 O   0  0  0  0  0  0  0  0  0  0  0  0
    8.9132  -18.2745   26.5069 O   0  0  0  0  0  0  0  0  0  0  0  0
  2  1  1  6
  2  6  1  0
  2  3  1  0
  4  3  1  0
  4  5  2  0
  6  7  2  0
  8  4  1  0
 10 11  1  6
 10 12  1  0
 10  9  1  0
 12 13  1  6
 13  6  1  0
 14 12  1  0
 14 15  2  0
 16 14  1  0
 17 16  1  0
 17 28  1  0
 17 18  1  1
 19 18  1  0
 20 19  2  0
 21 22  1  0
 21 20  1  0
 22 27  2  0
 23 24  2  0
 23 22  1  0
 24 25  1  0
 25 26  2  0
 27 26  1  0
 27 19  1  0
 28 29  2  0
 28 30  1  0
M  END
$$$$
