DVW.pdb
     RDKit          3D

 30 31  0  0  1  0  0  0  0  0999 V2000
    9.5893  -18.1459   17.3083 N   0  0  0  0  0  0  0  0  0  0  0  0
    8.7037  -17.9552   18.4397 C   0  0  1  0  0  0  0  0  0  0  0  0
    8.5680  -19.2167   19.2613 C   0  0  0  0  0  0  0  0  0  0  0  0
    8.1019  -20.3499   18.4450 C   0  0  0  0  0  0  0  0  0  0  0  0
    7.1113  -20.1708   17.6597 O   0  0  0  0  0  0  0  0  0  0  0  0
    9.1434  -16.7925   19.2626 C   0  0  0  0  0  0  0  0  0  0  0  0
   10.3635  -16.6199   19.5073 O   0  0  0  0  0  0  0  0  0  0  0  0
    8.6557  -21.6136   18.4573 O   0  0  0  0  0  0  0  0  0  0  0  0
    8.2983  -12.3845   21.1815 C   0  0  0  0  0  0  0  0  0  0  0  0
    7.7973  -13.5489   20.3608 C   0  0  1  0  0  0  0  0  0  0  0  0
    7.6577  -13.2359   18.9080 C   0  0  0  0  0  0  0  0  0  0  0  0
    8.6354  -14.7894   20.6010 C   0  0  2  0  0  0  0  0  0  0  0  0
    8.1924  -15.8691   19.7783 N   0  0  0  0  0  0  0  0  0  0  0  0
    8.6573  -15.1500   22.0489 C   0  0  0  0  0  0  0  0  0  0  0  0
    7.6110  -15.5602   22.6235 O   0  0  0  0  0  0  0  0  0  0  0  0
    9.8263  -15.0567   22.8516 N   0  0  0  0  0  0  0  0  0  0  0  0
    9.8847  -15.4198   24.2353 C   0  0  1  0  0  0  0  0  0  0  0  0
    8.7187  -16.2549   24.7056 C   0  0  0  0  0  0  0  0  0  0  0  0
    7.6533  -15.4319   25.3190 C   0  0  0  0  0  0  0  0  0  0  0  0
    6.3398  -15.8052   25.5584 C   0  0  0  0  0  0  0  0  0  0  0  0
    5.6706  -14.7913   26.1324 N   0  0  0  0  0  0  0  0  0  0  0  0
    6.5009  -13.7387   26.2874 C   0  0  0  0  0  0  0  0  0  0  0  0
    6.3000  -12.4810   26.8171 C   0  0  0  0  0  0  0  0  0  0  0  0
    7.3322  -11.5665   26.8615 C   0  0  0  0  0  0  0  0  0  0  0  0
    8.5532  -11.9671   26.3584 C   0  0  0  0  0  0  0  0  0  0  0  0
    8.7705  -13.2240   25.8243 C   0  0  0  0  0  0  0  0  0  0  0  0
    7.7263  -14.1250   25.7882 C   0  0  0  0  0  0  0  0  0  0  0  0
   11.1805  -16.0544   24.6004 C   0  0  0  0  0  0  0  0  0  0  0  0
   11.5035  -17.1094   23.9981 O   0  0  0  0  0  0  0  0  0  0  0  0
   12.0118  -15.5352   25.5507 O   0  0  0  0  0  0  0  0  0  0  0  0
  2  1  1  6
  2  6  1  0
  2  3  1  0
  4  3  1  0
  4  5  2  0
  6  7  2  0
  8  4  1  0
 10 11  1  6
 10 12  1  0
 10  9  1  0
 12 13  1  6
 13  6  1  0
 14 12  1  0
 14 15  2  0
 16 14  1  0
 17 16  1  0
 17 28  1  0
 17 18  1  6
 19 18  1  0
 20 19  2  0
 21 22  1  0
 21 20  1  0
 22 27  2  0
 23 24  2  0
 23 22  1  0
 24 25  1  0
 25 26  2  0
 27 26  1  0
 27 19  1  0
 28 29  2  0
 28 30  1  0
M  END
$$$$
