DVW.pdb
     RDKit          3D

 30 31  0  0  1  0  0  0  0  0999 V2000
   12.9958  -14.6665   17.6506 N   0  0  0  0  0  0  0  0  0  0  0  0
   12.2105  -15.6835   18.3215 C   0  0  1  0  0  0  0  0  0  0  0  0
   13.0552  -16.8754   18.7095 C   0  0  0  0  0  0  0  0  0  0  0  0
   13.6975  -17.4919   17.5368 C   0  0  0  0  0  0  0  0  0  0  0  0
   12.9640  -17.8439   16.5529 O   0  0  0  0  0  0  0  0  0  0  0  0
   11.4851  -15.1045   19.4880 C   0  0  0  0  0  0  0  0  0  0  0  0
   12.0976  -14.3862   20.3169 O   0  0  0  0  0  0  0  0  0  0  0  0
   15.0513  -17.7259   17.4087 O   0  0  0  0  0  0  0  0  0  0  0  0
    7.2699  -13.9182   21.6827 C   0  0  0  0  0  0  0  0  0  0  0  0
    8.0484  -14.3194   20.4525 C   0  0  1  0  0  0  0  0  0  0  0  0
    8.0890  -13.2592   19.4025 C   0  0  0  0  0  0  0  0  0  0  0  0
    9.4337  -14.8156   20.8185 C   0  0  2  0  0  0  0  0  0  0  0  0
   10.0980  -15.3566   19.6761 N   0  0  0  0  0  0  0  0  0  0  0  0
    9.3746  -15.7835   21.9528 C   0  0  0  0  0  0  0  0  0  0  0  0
    9.3383  -17.0261   21.7342 O   0  0  0  0  0  0  0  0  0  0  0  0
    9.3554  -15.3786   23.3148 N   0  0  0  0  0  0  0  0  0  0  0  0
    9.3458  -16.2834   24.4244 C   0  0  1  0  0  0  0  0  0  0  0  0
    9.1542  -15.6164   25.7649 C   0  0  0  0  0  0  0  0  0  0  0  0
    7.8502  -14.9244   25.8633 C   0  0  0  0  0  0  0  0  0  0  0  0
    6.5969  -15.4594   25.6089 C   0  0  0  0  0  0  0  0  0  0  0  0
    5.6497  -14.5277   25.8087 N   0  0  0  0  0  0  0  0  0  0  0  0
    6.2327  -13.3727   26.1928 C   0  0  0  0  0  0  0  0  0  0  0  0
    5.7041  -12.1395   26.5131 C   0  0  0  0  0  0  0  0  0  0  0  0
    6.5302  -11.0978   26.8824 C   0  0  0  0  0  0  0  0  0  0  0  0
    7.8869  -11.3482   26.9145 C   0  0  0  0  0  0  0  0  0  0  0  0
    8.4320  -12.5787   26.5963 C   0  0  0  0  0  0  0  0  0  0  0  0
    7.5904  -13.6083   26.2291 C   0  0  0  0  0  0  0  0  0  0  0  0
    8.3786  -17.3990   24.2376 C   0  0  0  0  0  0  0  0  0  0  0  0
    8.5177  -18.4186   24.9594 O   0  0  0  0  0  0  0  0  0  0  0  0
    7.3657  -17.3488   23.3238 O   0  0  0  0  0  0  0  0  0  0  0  0
  2  1  1  1
  2  6  1  0
  2  3  1  0
  4  3  1  0
  4  5  2  0
  6  7  2  0
  8  4  1  0
 10 11  1  6
 10 12  1  0
 10  9  1  0
 12 13  1  6
 13  6  1  0
 14 12  1  0
 14 15  2  0
 16 14  1  0
 17 16  1  0
 17 28  1  0
 17 18  1  1
 19 18  1  0
 20 19  2  0
 21 22  1  0
 21 20  1  0
 22 27  2  0
 23 24  2  0
 23 22  1  0
 24 25  1  0
 25 26  2  0
 27 26  1  0
 27 19  1  0
 28 29  2  0
 28 30  1  0
M  END
$$$$
