DVW.pdb
     RDKit          3D

 30 31  0  0  1  0  0  0  0  0999 V2000
   11.8632  -15.7024   17.5451 N   0  0  0  0  0  0  0  0  0  0  0  0
   11.6653  -16.6333   18.6383 C   0  0  1  0  0  0  0  0  0  0  0  0
   12.9384  -17.3738   18.9784 C   0  0  0  0  0  0  0  0  0  0  0  0
   12.7121  -18.3993   20.0103 C   0  0  0  0  0  0  0  0  0  0  0  0
   11.5207  -18.8120   20.2108 O   0  0  0  0  0  0  0  0  0  0  0  0
   11.0849  -15.9388   19.8229 C   0  0  0  0  0  0  0  0  0  0  0  0
   11.8064  -15.1938   20.5319 O   0  0  0  0  0  0  0  0  0  0  0  0
   13.6978  -18.9629   20.7943 O   0  0  0  0  0  0  0  0  0  0  0  0
    7.2218  -14.0446   22.0694 C   0  0  0  0  0  0  0  0  0  0  0  0
    7.8679  -14.7107   20.8780 C   0  0  1  0  0  0  0  0  0  0  0  0
    8.0337  -13.8014   19.7059 C   0  0  0  0  0  0  0  0  0  0  0  0
    9.1686  -15.3862   21.2665 C   0  0  2  0  0  0  0  0  0  0  0  0
    9.7146  -16.1100   20.1633 N   0  0  0  0  0  0  0  0  0  0  0  0
    8.9880  -16.2431   22.4749 C   0  0  0  0  0  0  0  0  0  0  0  0
    8.8463  -17.4921   22.3600 O   0  0  0  0  0  0  0  0  0  0  0  0
    8.9642  -15.7214   23.7965 N   0  0  0  0  0  0  0  0  0  0  0  0
    8.8700  -16.5242   24.9783 C   0  0  1  0  0  0  0  0  0  0  0  0
    8.7688  -15.7311   26.2585 C   0  0  0  0  0  0  0  0  0  0  0  0
    7.5585  -14.8810   26.2951 C   0  0  0  0  0  0  0  0  0  0  0  0
    6.2381  -15.3017   26.2563 C   0  0  0  0  0  0  0  0  0  0  0  0
    5.4154  -14.2410   26.3127 N   0  0  0  0  0  0  0  0  0  0  0  0
    6.1483  -13.1103   26.3887 C   0  0  0  0  0  0  0  0  0  0  0  0
    5.7827  -11.7825   26.4654 C   0  0  0  0  0  0  0  0  0  0  0  0
    6.7431  -10.7943   26.5346 C   0  0  0  0  0  0  0  0  0  0  0  0
    8.0637  -11.1949   26.5235 C   0  0  0  0  0  0  0  0  0  0  0  0
    8.4462  -12.5216   26.4470 C   0  0  0  0  0  0  0  0  0  0  0  0
    7.4718  -13.4958   26.3783 C   0  0  0  0  0  0  0  0  0  0  0  0
    7.7848  -17.5388   24.8890 C   0  0  0  0  0  0  0  0  0  0  0  0
    6.8528  -17.3259   24.0728 O   0  0  0  0  0  0  0  0  0  0  0  0
    7.7718  -18.6708   25.6519 O   0  0  0  0  0  0  0  0  0  0  0  0
  2  1  1  6
  2  6  1  0
  2  3  1  0
  4  3  1  0
  4  5  2  0
  6  7  2  0
  8  4  1  0
 10 11  1  6
 10 12  1  0
 10  9  1  0
 12 13  1  6
 13  6  1  0
 14 12  1  0
 14 15  2  0
 16 14  1  0
 17 16  1  0
 17 28  1  0
 17 18  1  1
 19 18  1  0
 20 19  2  0
 21 22  1  0
 21 20  1  0
 22 27  2  0
 23 24  2  0
 23 22  1  0
 24 25  1  0
 25 26  2  0
 27 26  1  0
 27 19  1  0
 28 29  2  0
 28 30  1  0
M  END
$$$$
