DVW.pdb
     RDKit          3D

 30 31  0  0  1  0  0  0  0  0999 V2000
   10.1243  -18.9155   18.3666 N   0  0  0  0  0  0  0  0  0  0  0  0
    9.2578  -18.5953   19.4835 C   0  0  1  0  0  0  0  0  0  0  0  0
    9.2553  -19.6944   20.5211 C   0  0  0  0  0  0  0  0  0  0  0  0
    8.9354  -21.0029   19.9266 C   0  0  0  0  0  0  0  0  0  0  0  0
    8.8014  -21.0820   18.6594 O   0  0  0  0  0  0  0  0  0  0  0  0
    9.6183  -17.2716   20.0671 C   0  0  0  0  0  0  0  0  0  0  0  0
   10.8160  -16.8928   20.0762 O   0  0  0  0  0  0  0  0  0  0  0  0
    8.7649  -22.1735   20.6370 O   0  0  0  0  0  0  0  0  0  0  0  0
    8.1910  -12.9248   21.9156 C   0  0  0  0  0  0  0  0  0  0  0  0
    7.7897  -14.2709   21.3612 C   0  0  1  0  0  0  0  0  0  0  0  0
    6.9860  -14.1816   20.1066 C   0  0  0  0  0  0  0  0  0  0  0  0
    8.9929  -15.1805   21.2063 C   0  0  2  0  0  0  0  0  0  0  0  0
    8.6162  -16.4258   20.6178 N   0  0  0  0  0  0  0  0  0  0  0  0
    9.7020  -15.3584   22.5074 C   0  0  0  0  0  0  0  0  0  0  0  0
   10.6855  -14.6262   22.8071 O   0  0  0  0  0  0  0  0  0  0  0  0
    9.3253  -16.3375   23.4660 N   0  0  0  0  0  0  0  0  0  0  0  0
    9.9387  -16.4849   24.7512 C   0  0  1  0  0  0  0  0  0  0  0  0
    9.7850  -15.2833   25.6516 C   0  0  0  0  0  0  0  0  0  0  0  0
    8.3750  -15.0476   26.0330 C   0  0  0  0  0  0  0  0  0  0  0  0
    7.3196  -15.9408   25.9320 C   0  0  0  0  0  0  0  0  0  0  0  0
    6.1890  -15.3695   26.3796 N   0  0  0  0  0  0  0  0  0  0  0  0
    6.4540  -14.1087   26.7817 C   0  0  0  0  0  0  0  0  0  0  0  0
    5.6451  -13.1245   27.3106 C   0  0  0  0  0  0  0  0  0  0  0  0
    6.1688  -11.8930   27.6468 C   0  0  0  0  0  0  0  0  0  0  0  0
    7.5181  -11.7000   27.4309 C   0  0  0  0  0  0  0  0  0  0  0  0
    8.3419  -12.6764   26.9016 C   0  0  0  0  0  0  0  0  0  0  0  0
    7.8004  -13.9016   26.5714 C   0  0  0  0  0  0  0  0  0  0  0  0
    9.5119  -17.7315   25.4432 C   0  0  0  0  0  0  0  0  0  0  0  0
    9.9873  -17.9570   26.5848 O   0  0  0  0  0  0  0  0  0  0  0  0
    8.6373  -18.6193   24.8861 O   0  0  0  0  0  0  0  0  0  0  0  0
  2  1  1  6
  2  6  1  0
  2  3  1  0
  4  3  1  0
  4  5  2  0
  6  7  2  0
  8  4  1  0
 10 11  1  6
 10 12  1  0
 10  9  1  0
 12 13  1  1
 13  6  1  0
 14 12  1  0
 14 15  2  0
 16 14  1  0
 17 16  1  0
 17 28  1  0
 17 18  1  1
 19 18  1  0
 20 19  2  0
 21 22  1  0
 21 20  1  0
 22 27  2  0
 23 24  2  0
 23 22  1  0
 24 25  1  0
 25 26  2  0
 27 26  1  0
 27 19  1  0
 28 29  2  0
 28 30  1  0
M  END
$$$$
