DVW.pdb
     RDKit          3D

 30 31  0  0  1  0  0  0  0  0999 V2000
   10.5089  -17.2225   15.9473 N   0  0  0  0  0  0  0  0  0  0  0  0
    9.5759  -17.3032   17.0536 C   0  0  1  0  0  0  0  0  0  0  0  0
    9.4919  -18.7053   17.6120 C   0  0  0  0  0  0  0  0  0  0  0  0
    9.0126  -19.6647   16.6033 C   0  0  0  0  0  0  0  0  0  0  0  0
    9.8495  -20.4808   16.0899 O   0  0  0  0  0  0  0  0  0  0  0  0
    9.9146  -16.2993   18.1024 C   0  0  0  0  0  0  0  0  0  0  0  0
   11.1164  -16.0528   18.3733 O   0  0  0  0  0  0  0  0  0  0  0  0
    7.7102  -19.7581   16.1572 O   0  0  0  0  0  0  0  0  0  0  0  0
    8.2872  -12.7869   18.6093 C   0  0  0  0  0  0  0  0  0  0  0  0
    8.2863  -13.5422   19.9170 C   0  0  1  0  0  0  0  0  0  0  0  0
    6.9213  -13.9350   20.3758 C   0  0  0  0  0  0  0  0  0  0  0  0
    9.2355  -14.7236   19.8681 C   0  0  2  0  0  0  0  0  0  0  0  0
    8.8872  -15.6117   18.8056 N   0  0  0  0  0  0  0  0  0  0  0  0
    9.2998  -15.4152   21.1889 C   0  0  0  0  0  0  0  0  0  0  0  0
    8.7936  -16.5618   21.3377 O   0  0  0  0  0  0  0  0  0  0  0  0
    9.9181  -14.8420   22.3328 N   0  0  0  0  0  0  0  0  0  0  0  0
    9.3825  -14.9124   23.6588 C   0  0  1  0  0  0  0  0  0  0  0  0
    7.8992  -14.6461   23.7418 C   0  0  0  0  0  0  0  0  0  0  0  0
    7.4234  -14.5651   25.1404 C   0  0  0  0  0  0  0  0  0  0  0  0
    7.0146  -15.6150   25.9481 C   0  0  0  0  0  0  0  0  0  0  0  0
    6.6550  -15.1524   27.1571 N   0  0  0  0  0  0  0  0  0  0  0  0
    6.8105  -13.8121   27.1874 C   0  0  0  0  0  0  0  0  0  0  0  0
    6.5822  -12.8835   28.1814 C   0  0  0  0  0  0  0  0  0  0  0  0
    6.8250  -11.5437   27.9577 C   0  0  0  0  0  0  0  0  0  0  0  0
    7.2991  -11.1871   26.7117 C   0  0  0  0  0  0  0  0  0  0  0  0
    7.5329  -12.1059   25.7050 C   0  0  0  0  0  0  0  0  0  0  0  0
    7.2843  -13.4412   25.9471 C   0  0  0  0  0  0  0  0  0  0  0  0
    9.7384  -16.1832   24.3469 C   0  0  0  0  0  0  0  0  0  0  0  0
    9.0125  -17.1865   24.1313 O   0  0  0  0  0  0  0  0  0  0  0  0
   10.8082  -16.2893   25.1884 O   0  0  0  0  0  0  0  0  0  0  0  0
  2  1  1  6
  2  6  1  0
  2  3  1  0
  4  3  1  0
  4  5  2  0
  6  7  2  0
  8  4  1  0
 10 11  1  6
 10 12  1  0
 10  9  1  0
 12 13  1  6
 13  6  1  0
 14 12  1  0
 14 15  2  0
 16 14  1  0
 17 16  1  0
 17 28  1  0
 17 18  1  6
 19 18  1  0
 20 19  2  0
 21 22  1  0
 21 20  1  0
 22 27  2  0
 23 24  2  0
 23 22  1  0
 24 25  1  0
 25 26  2  0
 27 26  1  0
 27 19  1  0
 28 29  2  0
 28 30  1  0
M  END
$$$$
