DVW.pdb
     RDKit          3D

 30 31  0  0  1  0  0  0  0  0999 V2000
    8.1420  -17.9459   17.6221 N   0  0  0  0  0  0  0  0  0  0  0  0
    9.5280  -17.5463   17.7644 C   0  0  1  0  0  0  0  0  0  0  0  0
   10.1459  -17.1900   16.4317 C   0  0  0  0  0  0  0  0  0  0  0  0
   10.1231  -18.3295   15.4995 C   0  0  0  0  0  0  0  0  0  0  0  0
    9.5809  -19.4206   15.8812 O   0  0  0  0  0  0  0  0  0  0  0  0
    9.6586  -16.4428   18.7580 C   0  0  0  0  0  0  0  0  0  0  0  0
   10.7913  -15.9738   19.0329 O   0  0  0  0  0  0  0  0  0  0  0  0
   10.6482  -18.3177   14.2236 O   0  0  0  0  0  0  0  0  0  0  0  0
    7.7955  -12.7432   21.2949 C   0  0  0  0  0  0  0  0  0  0  0  0
    7.5676  -13.8698   20.3155 C   0  0  1  0  0  0  0  0  0  0  0  0
    7.3503  -13.4044   18.9140 C   0  0  0  0  0  0  0  0  0  0  0  0
    8.6682  -14.9085   20.4093 C   0  0  2  0  0  0  0  0  0  0  0  0
    8.5090  -15.9099   19.4040 N   0  0  0  0  0  0  0  0  0  0  0  0
    8.7429  -15.4884   21.7823 C   0  0  0  0  0  0  0  0  0  0  0  0
    7.8507  -16.2811   22.1930 O   0  0  0  0  0  0  0  0  0  0  0  0
    9.7951  -15.1927   22.6906 N   0  0  0  0  0  0  0  0  0  0  0  0
    9.8452  -15.6562   24.0443 C   0  0  1  0  0  0  0  0  0  0  0  0
    8.5026  -15.7027   24.7324 C   0  0  0  0  0  0  0  0  0  0  0  0
    8.4266  -14.7640   25.8734 C   0  0  0  0  0  0  0  0  0  0  0  0
    9.0664  -14.8804   27.0977 C   0  0  0  0  0  0  0  0  0  0  0  0
    8.7585  -13.8320   27.8794 N   0  0  0  0  0  0  0  0  0  0  0  0
    7.9239  -13.0072   27.2126 C   0  0  0  0  0  0  0  0  0  0  0  0
    7.3292  -11.8157   27.5724 C   0  0  0  0  0  0  0  0  0  0  0  0
    6.4989  -11.1532   26.6918 C   0  0  0  0  0  0  0  0  0  0  0  0
    6.2978  -11.7327   25.4556 C   0  0  0  0  0  0  0  0  0  0  0  0
    6.8866  -12.9263   25.0801 C   0  0  0  0  0  0  0  0  0  0  0  0
    7.7137  -13.5745   25.9740 C   0  0  0  0  0  0  0  0  0  0  0  0
   10.5584  -16.9562   24.1722 C   0  0  0  0  0  0  0  0  0  0  0  0
   10.7169  -17.4234   25.3283 O   0  0  0  0  0  0  0  0  0  0  0  0
   11.0361  -17.6423   23.0929 O   0  0  0  0  0  0  0  0  0  0  0  0
  2  1  1  6
  2  6  1  0
  2  3  1  0
  4  3  1  0
  4  5  2  0
  6  7  2  0
  8  4  1  0
 10 11  1  6
 10 12  1  0
 10  9  1  0
 12 13  1  6
 13  6  1  0
 14 12  1  0
 14 15  2  0
 16 14  1  0
 17 16  1  0
 17 28  1  0
 17 18  1  6
 19 18  1  0
 20 19  2  0
 21 22  1  0
 21 20  1  0
 22 27  2  0
 23 24  2  0
 23 22  1  0
 24 25  1  0
 25 26  2  0
 27 26  1  0
 27 19  1  0
 28 29  2  0
 28 30  1  0
M  END
$$$$
