DVW.pdb
     RDKit          3D

 30 31  0  0  1  0  0  0  0  0999 V2000
   13.4622  -14.0476   18.2894 N   0  0  0  0  0  0  0  0  0  0  0  0
   12.6215  -15.1632   18.6760 C   0  0  1  0  0  0  0  0  0  0  0  0
   13.4406  -16.3841   19.0274 C   0  0  0  0  0  0  0  0  0  0  0  0
   14.2141  -16.8707   17.8731 C   0  0  0  0  0  0  0  0  0  0  0  0
   15.1836  -17.6747   18.0823 O   0  0  0  0  0  0  0  0  0  0  0  0
   11.6976  -14.7695   19.7778 C   0  0  0  0  0  0  0  0  0  0  0  0
   12.1525  -14.2368   20.8207 O   0  0  0  0  0  0  0  0  0  0  0  0
   13.9754  -16.5247   16.5589 O   0  0  0  0  0  0  0  0  0  0  0  0
    7.0981  -13.9911   21.3603 C   0  0  0  0  0  0  0  0  0  0  0  0
    8.0439  -14.2921   20.2222 C   0  0  1  0  0  0  0  0  0  0  0  0
    8.0600  -13.2360   19.1674 C   0  0  0  0  0  0  0  0  0  0  0  0
    9.4350  -14.6097   20.7351 C   0  0  2  0  0  0  0  0  0  0  0  0
   10.2973  -14.9906   19.6626 N   0  0  0  0  0  0  0  0  0  0  0  0
    9.3863  -15.6361   21.8172 C   0  0  0  0  0  0  0  0  0  0  0  0
    9.4759  -16.8644   21.5406 O   0  0  0  0  0  0  0  0  0  0  0  0
    9.2397  -15.3049   23.1914 N   0  0  0  0  0  0  0  0  0  0  0  0
    9.2260  -16.2639   24.2545 C   0  0  1  0  0  0  0  0  0  0  0  0
    9.1496  -15.6568   25.6343 C   0  0  0  0  0  0  0  0  0  0  0  0
    7.8963  -14.8987   25.8426 C   0  0  0  0  0  0  0  0  0  0  0  0
    6.6001  -15.3815   25.7493 C   0  0  0  0  0  0  0  0  0  0  0  0
    5.7228  -14.3977   26.0091 N   0  0  0  0  0  0  0  0  0  0  0  0
    6.3950  -13.2583   26.2763 C   0  0  0  0  0  0  0  0  0  0  0  0
    5.9600  -11.9892   26.5971 C   0  0  0  0  0  0  0  0  0  0  0  0
    6.8669  -10.9754   26.8283 C   0  0  0  0  0  0  0  0  0  0  0  0
    8.2065  -11.2902   26.7243 C   0  0  0  0  0  0  0  0  0  0  0  0
    8.6584  -12.5572   26.4038 C   0  0  0  0  0  0  0  0  0  0  0  0
    7.7367  -13.5582   26.1758 C   0  0  0  0  0  0  0  0  0  0  0  0
    8.1769  -17.3027   24.0670 C   0  0  0  0  0  0  0  0  0  0  0  0
    7.1804  -17.0048   23.3611 O   0  0  0  0  0  0  0  0  0  0  0  0
    8.2629  -18.5444   24.6277 O   0  0  0  0  0  0  0  0  0  0  0  0
  2  1  1  1
  2  6  1  0
  2  3  1  0
  4  3  1  0
  4  5  2  0
  6  7  2  0
  8  4  1  0
 10 11  1  6
 10 12  1  0
 10  9  1  0
 12 13  1  6
 13  6  1  0
 14 12  1  0
 14 15  2  0
 16 14  1  0
 17 16  1  0
 17 28  1  0
 17 18  1  1
 19 18  1  0
 20 19  2  0
 21 22  1  0
 21 20  1  0
 22 27  2  0
 23 24  2  0
 23 22  1  0
 24 25  1  0
 25 26  2  0
 27 26  1  0
 27 19  1  0
 28 29  2  0
 28 30  1  0
M  END
$$$$
