DVW.pdb
     RDKit          3D

 30 31  0  0  1  0  0  0  0  0999 V2000
    8.8304  -17.4863   16.9482 N   0  0  0  0  0  0  0  0  0  0  0  0
    8.7729  -17.9132   18.3321 C   0  0  1  0  0  0  0  0  0  0  0  0
    9.5391  -19.1973   18.5526 C   0  0  0  0  0  0  0  0  0  0  0  0
    9.3575  -19.7112   19.9203 C   0  0  0  0  0  0  0  0  0  0  0  0
    8.4952  -19.1484   20.6751 O   0  0  0  0  0  0  0  0  0  0  0  0
    9.2304  -16.8222   19.2392 C   0  0  0  0  0  0  0  0  0  0  0  0
   10.4426  -16.4936   19.2672 O   0  0  0  0  0  0  0  0  0  0  0  0
   10.0539  -20.7700   20.4659 O   0  0  0  0  0  0  0  0  0  0  0  0
    8.0189  -12.7113   21.5842 C   0  0  0  0  0  0  0  0  0  0  0  0
    7.6052  -13.9396   20.8093 C   0  0  1  0  0  0  0  0  0  0  0  0
    7.0796  -13.6337   19.4461 C   0  0  0  0  0  0  0  0  0  0  0  0
    8.7197  -14.9672   20.7754 C   0  0  2  0  0  0  0  0  0  0  0  0
    8.3054  -16.1434   20.0798 N   0  0  0  0  0  0  0  0  0  0  0  0
    9.2163  -15.2656   22.1507 C   0  0  0  0  0  0  0  0  0  0  0  0
   10.2094  -14.6456   22.6224 O   0  0  0  0  0  0  0  0  0  0  0  0
    8.6189  -16.2409   22.9940 N   0  0  0  0  0  0  0  0  0  0  0  0
    8.9976  -16.4696   24.3557 C   0  0  1  0  0  0  0  0  0  0  0  0
    7.8917  -16.2282   25.3543 C   0  0  0  0  0  0  0  0  0  0  0  0
    8.0984  -14.9836   26.1270 C   0  0  0  0  0  0  0  0  0  0  0  0
    9.1365  -14.7038   27.0021 C   0  0  0  0  0  0  0  0  0  0  0  0
    8.9876  -13.4703   27.5133 N   0  0  0  0  0  0  0  0  0  0  0  0
    7.8716  -12.9072   27.0045 C   0  0  0  0  0  0  0  0  0  0  0  0
    7.2900  -11.6734   27.2099 C   0  0  0  0  0  0  0  0  0  0  0  0
    6.1242  -11.3309   26.5561 C   0  0  0  0  0  0  0  0  0  0  0  0
    5.5801  -12.2684   25.7019 C   0  0  0  0  0  0  0  0  0  0  0  0
    6.1509  -13.5092   25.4854 C   0  0  0  0  0  0  0  0  0  0  0  0
    7.3166  -13.8340   26.1481 C   0  0  0  0  0  0  0  0  0  0  0  0
    9.6167  -17.8083   24.5546 C   0  0  0  0  0  0  0  0  0  0  0  0
    9.6628  -18.5824   23.5653 O   0  0  0  0  0  0  0  0  0  0  0  0
   10.1254  -18.2123   25.7553 O   0  0  0  0  0  0  0  0  0  0  0  0
  2  1  1  6
  2  6  1  0
  2  3  1  0
  4  3  1  0
  4  5  2  0
  6  7  2  0
  8  4  1  0
 10 11  1  6
 10 12  1  0
 10  9  1  0
 12 13  1  1
 13  6  1  0
 14 12  1  0
 14 15  2  0
 16 14  1  0
 17 16  1  0
 17 28  1  0
 17 18  1  1
 19 18  1  0
 20 19  2  0
 21 22  1  0
 21 20  1  0
 22 27  2  0
 23 24  2  0
 23 22  1  0
 24 25  1  0
 25 26  2  0
 27 26  1  0
 27 19  1  0
 28 29  2  0
 28 30  1  0
M  END
$$$$
