PRV.pdb
     RDKit          3D

 26 26  0  0  1  0  0  0  0  0999 V2000
    8.6425  -15.0422   18.9774 N   0  0  0  0  0  0  0  0  0  0  0  0
    8.2569  -14.7368   17.6369 C   0  0  0  0  0  0  0  0  0  0  0  0
    7.5827  -13.4035   17.6339 C   0  0  0  0  0  0  0  0  0  0  0  0
    7.3609  -13.1240   19.0954 C   0  0  0  0  0  0  0  0  0  0  0  0
    8.4290  -13.8954   19.7969 C   0  0  1  0  0  0  0  0  0  0  0  0
    8.0390  -14.2783   21.1992 C   0  0  0  0  0  0  0  0  0  0  0  0
    7.7264  -13.3974   22.0303 O   0  0  0  0  0  0  0  0  0  0  0  0
    5.7664  -19.0476   26.6497 N   0  0  0  0  0  0  0  0  0  0  0  0
    6.9246  -19.9277   26.7906 C   0  0  0  0  0  0  0  0  0  0  0  0
    7.3045  -20.2816   27.9347 N   0  0  0  0  0  0  0  0  0  0  0  0
    7.5988  -20.3676   25.6324 N   0  0  0  0  0  0  0  0  0  0  0  0
    7.6852  -19.7305   24.3600 C   0  0  0  0  0  0  0  0  0  0  0  0
    7.5975  -18.2524   24.3091 C   0  0  0  0  0  0  0  0  0  0  0  0
    7.7484  -17.6930   22.8739 C   0  0  0  0  0  0  0  0  0  0  0  0
    7.6845  -16.2253   22.8139 C   0  0  2  0  0  0  0  0  0  0  0  0
    8.0303  -15.6425   21.5628 N   0  0  0  0  0  0  0  0  0  0  0  0
    8.3050  -15.5341   24.0088 C   0  0  0  0  0  0  0  0  0  0  0  0
    9.5411  -15.3816   24.1463 O   0  0  0  0  0  0  0  0  0  0  0  0
    8.0408  -20.8603   28.2225 C   0  0  0  0  0  0  0  0  0  0  0  0
    7.5444  -12.1401   27.5615 C   0  0  2  0  0  0  0  0  0  0  0  0
    7.0055  -13.1173   26.5425 C   0  0  0  0  0  0  0  0  0  0  0  0
    6.4409  -12.3275   25.3867 C   0  0  1  0  0  0  0  0  0  0  0  0
    8.0555  -14.0498   26.0258 N   0  0  0  0  0  0  0  0  0  0  0  0
    7.5023  -15.0067   25.0662 C   0  0  0  0  0  0  0  0  0  0  0  0
    8.6394  -14.8207   27.1604 O   0  0  0  0  0  0  0  0  0  0  0  0
    9.5682  -14.2239   28.0201 O   0  0  0  0  0  0  0  0  0  0  0  0
  1  2  1  0
  3  2  1  0
  4  5  1  0
  4  3  1  0
  5  1  1  0
  6  7  2  0
  5  6  1  1
  9 11  1  0
  9  8  1  0
 10  9  2  0
 12 11  1  0
 13 12  1  0
 13 14  1  0
 15 14  1  6
 15 16  1  0
 16  6  1  0
 17 18  2  0
 17 15  1  0
 20 19  1  1
 20 21  1  0
 22 20  1  0
 22 23  1  1
 23 17  1  0
 24 22  1  0
 25 24  1  0
 26 24  2  0
M  END
$$$$
