PRV.pdb
     RDKit          3D

 26 26  0  0  1  0  0  0  0  0999 V2000
    8.2228  -14.9003   18.3119 N   0  0  0  0  0  0  0  0  0  0  0  0
    8.1157  -13.9518   17.2500 C   0  0  0  0  0  0  0  0  0  0  0  0
    8.1200  -12.5802   17.8427 C   0  0  0  0  0  0  0  0  0  0  0  0
    7.9432  -12.8380   19.3143 C   0  0  0  0  0  0  0  0  0  0  0  0
    8.4925  -14.2091   19.5293 C   0  0  1  0  0  0  0  0  0  0  0  0
    7.8708  -14.9018   20.7119 C   0  0  0  0  0  0  0  0  0  0  0  0
    6.6372  -14.8335   20.9068 O   0  0  0  0  0  0  0  0  0  0  0  0
    5.4998  -21.4818   25.3294 N   0  0  0  0  0  0  0  0  0  0  0  0
    6.4653  -20.3850   25.3573 C   0  0  0  0  0  0  0  0  0  0  0  0
    6.1727  -19.3101   25.9382 N   0  0  0  0  0  0  0  0  0  0  0  0
    7.7165  -20.5544   24.7286 N   0  0  0  0  0  0  0  0  0  0  0  0
    8.7699  -19.6055   24.5782 C   0  0  0  0  0  0  0  0  0  0  0  0
    8.4092  -18.1765   24.4269 C   0  0  0  0  0  0  0  0  0  0  0  0
    8.7207  -17.6269   23.0140 C   0  0  0  0  0  0  0  0  0  0  0  0
    8.3596  -16.2111   22.8498 C   0  0  2  0  0  0  0  0  0  0  0  0
    8.6971  -15.6288   21.5963 N   0  0  0  0  0  0  0  0  0  0  0  0
    8.7034  -15.3470   24.0438 C   0  0  0  0  0  0  0  0  0  0  0  0
    9.8808  -15.0973   24.3923 O   0  0  0  0  0  0  0  0  0  0  0  0
    6.6557  -18.4609   26.0109 C   0  0  0  0  0  0  0  0  0  0  0  0
    7.2262  -12.0527   27.4851 C   0  0  1  0  0  0  0  0  0  0  0  0
    6.8699  -13.0355   26.3938 C   0  0  0  0  0  0  0  0  0  0  0  0
    6.3770  -12.2541   25.2002 C   0  0  1  0  0  0  0  0  0  0  0  0
    8.0327  -13.8789   25.9747 N   0  0  0  0  0  0  0  0  0  0  0  0
    7.6870  -14.7566   24.8555 C   0  0  0  0  0  0  0  0  0  0  0  0
    8.4637  -14.7359   27.1160 O   0  0  0  0  0  0  0  0  0  0  0  0
    9.4320  -14.2817   28.0182 O   0  0  0  0  0  0  0  0  0  0  0  0
  1  2  1  0
  3  2  1  0
  4  5  1  0
  4  3  1  0
  5  1  1  0
  6  7  2  0
  5  6  1  1
  9 11  1  0
  9  8  1  0
 10  9  2  0
 12 11  1  0
 13 12  1  0
 13 14  1  0
 15 14  1  1
 15 16  1  0
 16  6  1  0
 17 18  2  0
 17 15  1  0
 20 19  1  1
 20 21  1  0
 22 20  1  0
 22 23  1  1
 23 17  1  0
 24 22  1  0
 25 24  1  0
 26 24  2  0
M  END
$$$$
