PRV.pdb
     RDKit          3D

 26 26  0  0  1  0  0  0  0  0999 V2000
    8.5805  -14.7187   19.0734 N   0  0  0  0  0  0  0  0  0  0  0  0
    8.2107  -14.4376   17.7232 C   0  0  0  0  0  0  0  0  0  0  0  0
    7.5566  -13.0948   17.6847 C   0  0  0  0  0  0  0  0  0  0  0  0
    7.3269  -12.7794   19.1376 C   0  0  0  0  0  0  0  0  0  0  0  0
    8.3775  -13.5507   19.8653 C   0  0  1  0  0  0  0  0  0  0  0  0
    7.9702  -13.8963   21.2723 C   0  0  0  0  0  0  0  0  0  0  0  0
    7.6112  -12.9974   22.0644 O   0  0  0  0  0  0  0  0  0  0  0  0
   10.9720  -18.8506   20.0730 N   0  0  0  0  0  0  0  0  0  0  0  0
   11.5813  -19.5478   21.2037 C   0  0  0  0  0  0  0  0  0  0  0  0
   12.7458  -20.0080   21.0996 N   0  0  0  0  0  0  0  0  0  0  0  0
   10.8470  -19.6916   22.3994 N   0  0  0  0  0  0  0  0  0  0  0  0
    9.5669  -19.1551   22.7247 C   0  0  0  0  0  0  0  0  0  0  0  0
    9.3695  -17.6916   22.6048 C   0  0  0  0  0  0  0  0  0  0  0  0
    7.9862  -17.2298   23.1230 C   0  0  0  0  0  0  0  0  0  0  0  0
    7.7678  -15.7826   22.9825 C   0  0  2  0  0  0  0  0  0  0  0  0
    7.9983  -15.2462   21.6850 N   0  0  0  0  0  0  0  0  0  0  0  0
    8.3628  -14.9597   24.1047 C   0  0  0  0  0  0  0  0  0  0  0  0
    9.5541  -14.5715   24.1121 O   0  0  0  0  0  0  0  0  0  0  0  0
   13.2976  -20.5215   21.7254 C   0  0  0  0  0  0  0  0  0  0  0  0
    6.9526  -11.7080   25.8062 C   0  0  2  0  0  0  0  0  0  0  0  0
    7.2654  -12.7555   26.8496 C   0  0  0  0  0  0  0  0  0  0  0  0
    5.9671  -13.3962   27.2763 C   0  0  2  0  0  0  0  0  0  0  0  0
    8.1870  -13.8192   26.3411 N   0  0  0  0  0  0  0  0  0  0  0  0
    7.5860  -14.5720   25.2391 C   0  0  0  0  0  0  0  0  0  0  0  0
    8.4955  -14.7784   27.4399 O   0  0  0  0  0  0  0  0  0  0  0  0
    9.2320  -14.3659   28.5558 O   0  0  0  0  0  0  0  0  0  0  0  0
  1  2  1  0
  3  2  1  0
  4  5  1  0
  4  3  1  0
  5  1  1  0
  6  7  2  0
  5  6  1  1
  9 11  1  0
  9  8  1  0
 10  9  2  0
 12 11  1  0
 13 12  1  0
 13 14  1  0
 15 14  1  6
 15 16  1  0
 16  6  1  0
 17 18  2  0
 17 15  1  0
 20 19  1  1
 20 21  1  0
 22 20  1  0
 22 23  1  1
 23 17  1  0
 24 22  1  0
 25 24  1  0
 26 24  2  0
M  END
$$$$
