PRV.pdb
     RDKit          3D

 26 26  0  0  1  0  0  0  0  0999 V2000
    9.3311  -14.8192   19.4054 N   0  0  0  0  0  0  0  0  0  0  0  0
    9.1207  -14.8341   17.9932 C   0  0  0  0  0  0  0  0  0  0  0  0
    7.9085  -14.0151   17.6898 C   0  0  0  0  0  0  0  0  0  0  0  0
    7.2959  -13.7876   19.0449 C   0  0  0  0  0  0  0  0  0  0  0  0
    8.4395  -13.8788   19.9998 C   0  0  1  0  0  0  0  0  0  0  0  0
    8.0103  -14.3120   21.3757 C   0  0  0  0  0  0  0  0  0  0  0  0
    7.0724  -13.7246   21.9585 O   0  0  0  0  0  0  0  0  0  0  0  0
   12.2682  -18.8118   20.5777 N   0  0  0  0  0  0  0  0  0  0  0  0
   12.9503  -18.9482   21.8630 C   0  0  0  0  0  0  0  0  0  0  0  0
   14.1932  -18.7776   21.9316 N   0  0  0  0  0  0  0  0  0  0  0  0
   12.1962  -19.2699   23.0108 N   0  0  0  0  0  0  0  0  0  0  0  0
   10.8399  -18.9415   23.3024 C   0  0  0  0  0  0  0  0  0  0  0  0
   10.3970  -17.5433   23.0931 C   0  0  0  0  0  0  0  0  0  0  0  0
    8.9176  -17.3186   23.4884 C   0  0  0  0  0  0  0  0  0  0  0  0
    8.4705  -15.9310   23.2969 C   0  0  2  0  0  0  0  0  0  0  0  0
    8.6788  -15.3886   21.9981 N   0  0  0  0  0  0  0  0  0  0  0  0
    8.8593  -14.9991   24.4241 C   0  0  0  0  0  0  0  0  0  0  0  0
    9.8191  -15.2232   25.1979 O   0  0  0  0  0  0  0  0  0  0  0  0
   14.8134  -18.8303   22.6882 C   0  0  0  0  0  0  0  0  0  0  0  0
    6.8938  -11.6656   27.5614 C   0  0  2  0  0  0  0  0  0  0  0  0
    6.8481  -12.4808   26.2897 C   0  0  0  0  0  0  0  0  0  0  0  0
    6.5278  -11.5497   25.1458 C   0  0  1  0  0  0  0  0  0  0  0  0
    8.1424  -13.1747   26.0025 N   0  0  0  0  0  0  0  0  0  0  0  0
    8.1417  -13.7896   24.6742 C   0  0  0  0  0  0  0  0  0  0  0  0
    8.3642  -14.2523   27.0086 O   0  0  0  0  0  0  0  0  0  0  0  0
    7.7374  -15.4952   26.8669 O   0  0  0  0  0  0  0  0  0  0  0  0
  1  2  1  0
  3  2  1  0
  4  5  1  0
  4  3  1  0
  5  1  1  0
  6  7  2  0
  5  6  1  1
  9 11  1  0
  9  8  1  0
 10  9  2  0
 12 11  1  0
 13 12  1  0
 13 14  1  0
 15 14  1  6
 15 16  1  0
 16  6  1  0
 17 18  2  0
 17 15  1  0
 20 19  1  1
 20 21  1  0
 22 20  1  0
 22 23  1  1
 23 17  1  0
 24 22  1  0
 25 24  1  0
 26 24  2  0
M  END
$$$$
