PRV.pdb
     RDKit          3D

 26 26  0  0  1  0  0  0  0  0999 V2000
    8.4141  -20.4546   22.7210 N   0  0  0  0  0  0  0  0  0  0  0  0
    8.7134  -21.5497   21.8549 C   0  0  0  0  0  0  0  0  0  0  0  0
   10.1907  -21.7718   21.8711 C   0  0  0  0  0  0  0  0  0  0  0  0
   10.7173  -20.5490   22.5717 C   0  0  0  0  0  0  0  0  0  0  0  0
    9.5914  -20.0926   23.4389 C   0  0  1  0  0  0  0  0  0  0  0  0
    9.6401  -18.6146   23.7188 C   0  0  0  0  0  0  0  0  0  0  0  0
   10.6381  -18.1109   24.2796 O   0  0  0  0  0  0  0  0  0  0  0  0
    7.7388  -12.5492   18.1848 N   0  0  0  0  0  0  0  0  0  0  0  0
    8.5264  -13.7023   18.6159 C   0  0  0  0  0  0  0  0  0  0  0  0
    9.2238  -14.3298   17.7801 N   0  0  0  0  0  0  0  0  0  0  0  0
    8.4900  -14.0919   19.9710 N   0  0  0  0  0  0  0  0  0  0  0  0
    7.6830  -13.5690   21.0234 C   0  0  0  0  0  0  0  0  0  0  0  0
    7.7827  -14.1978   22.3613 C   0  0  0  0  0  0  0  0  0  0  0  0
    7.7275  -15.7434   22.3018 C   0  0  0  0  0  0  0  0  0  0  0  0
    8.4158  -16.3920   23.4276 C   0  0  2  0  0  0  0  0  0  0  0  0
    8.5465  -17.8060   23.3398 N   0  0  0  0  0  0  0  0  0  0  0  0
    7.9713  -15.8969   24.7869 C   0  0  0  0  0  0  0  0  0  0  0  0
    6.8490  -16.1598   25.2783 O   0  0  0  0  0  0  0  0  0  0  0  0
    9.7956  -15.1195   17.8765 C   0  0  0  0  0  0  0  0  0  0  0  0
    9.0713  -13.4947   29.0426 C   0  0  2  0  0  0  0  0  0  0  0  0
    9.5135  -14.0499   27.7084 C   0  0  0  0  0  0  0  0  0  0  0  0
   10.5219  -15.1432   27.9652 C   0  0  1  0  0  0  0  0  0  0  0  0
    8.3781  -14.6142   26.9135 N   0  0  0  0  0  0  0  0  0  0  0  0
    8.8212  -15.0875   25.6013 C   0  0  0  0  0  0  0  0  0  0  0  0
    7.3473  -13.5589   26.6986 O   0  0  0  0  0  0  0  0  0  0  0  0
    6.3949  -13.2857   27.6866 O   0  0  0  0  0  0  0  0  0  0  0  0
  1  2  1  0
  3  2  1  0
  4  5  1  0
  4  3  1  0
  5  1  1  0
  6  7  2  0
  5  6  1  6
  9 11  1  0
  9  8  1  0
 10  9  2  0
 12 11  1  0
 13 12  1  0
 13 14  1  0
 15 14  1  6
 15 16  1  0
 16  6  1  0
 17 18  2  0
 17 15  1  0
 20 19  1  6
 20 21  1  0
 22 20  1  0
 22 23  1  6
 23 17  1  0
 24 22  1  0
 25 24  1  0
 26 24  2  0
M  END
$$$$
