PRV.pdb
     RDKit          3D

 26 26  0  0  1  0  0  0  0  0999 V2000
    7.9980  -14.8063   18.2369 N   0  0  0  0  0  0  0  0  0  0  0  0
    7.8614  -13.7334   17.3046 C   0  0  0  0  0  0  0  0  0  0  0  0
    7.9717  -12.4444   18.0519 C   0  0  0  0  0  0  0  0  0  0  0  0
    7.8866  -12.8705   19.4923 C   0  0  0  0  0  0  0  0  0  0  0  0
    8.3846  -14.2775   19.5031 C   0  0  1  0  0  0  0  0  0  0  0  0
    7.8155  -15.0832   20.6398 C   0  0  0  0  0  0  0  0  0  0  0  0
    6.5927  -15.3430   20.6792 O   0  0  0  0  0  0  0  0  0  0  0  0
    5.6603  -20.6275   26.1265 N   0  0  0  0  0  0  0  0  0  0  0  0
    7.1054  -20.8153   26.0155 C   0  0  0  0  0  0  0  0  0  0  0  0
    7.7564  -21.2472   26.9995 N   0  0  0  0  0  0  0  0  0  0  0  0
    7.7473  -20.5073   24.7978 N   0  0  0  0  0  0  0  0  0  0  0  0
    8.7975  -19.5732   24.5597 C   0  0  0  0  0  0  0  0  0  0  0  0
    8.4465  -18.1383   24.4456 C   0  0  0  0  0  0  0  0  0  0  0  0
    8.6764  -17.5772   23.0216 C   0  0  0  0  0  0  0  0  0  0  0  0
    8.3427  -16.1505   22.8996 C   0  0  2  0  0  0  0  0  0  0  0  0
    8.6790  -15.5413   21.6586 N   0  0  0  0  0  0  0  0  0  0  0  0
    8.7165  -15.3262   24.1126 C   0  0  0  0  0  0  0  0  0  0  0  0
    9.9019  -15.0697   24.4275 O   0  0  0  0  0  0  0  0  0  0  0  0
    8.7071  -21.4593   27.1044 C   0  0  0  0  0  0  0  0  0  0  0  0
    7.2969  -12.1781   27.7165 C   0  0  2  0  0  0  0  0  0  0  0  0
    6.9444  -13.0688   26.5476 C   0  0  0  0  0  0  0  0  0  0  0  0
    6.5158  -12.1888   25.3987 C   0  0  1  0  0  0  0  0  0  0  0  0
    8.0924  -13.9203   26.1044 N   0  0  0  0  0  0  0  0  0  0  0  0
    7.7215  -14.7842   24.9825 C   0  0  0  0  0  0  0  0  0  0  0  0
    8.5307  -14.7919   27.2316 O   0  0  0  0  0  0  0  0  0  0  0  0
    9.5366  -14.3676   28.1069 O   0  0  0  0  0  0  0  0  0  0  0  0
  1  2  1  0
  3  2  1  0
  4  5  1  0
  4  3  1  0
  5  1  1  0
  6  7  2  0
  5  6  1  1
  9 11  1  0
  9  8  1  0
 10  9  2  0
 12 11  1  0
 13 12  1  0
 13 14  1  0
 15 14  1  1
 15 16  1  0
 16  6  1  0
 17 18  2  0
 17 15  1  0
 20 19  1  1
 20 21  1  0
 22 20  1  0
 22 23  1  1
 23 17  1  0
 24 22  1  0
 25 24  1  0
 26 24  2  0
M  END
$$$$
