PRV.pdb
     RDKit          3D

 26 26  0  0  1  0  0  0  0  0999 V2000
    8.4309  -14.7807   18.9401 N   0  0  0  0  0  0  0  0  0  0  0  0
    8.0233  -14.4041   17.6245 C   0  0  0  0  0  0  0  0  0  0  0  0
    7.7119  -12.9428   17.6291 C   0  0  0  0  0  0  0  0  0  0  0  0
    7.6931  -12.5971   19.0932 C   0  0  0  0  0  0  0  0  0  0  0  0
    8.5859  -13.6070   19.7343 C   0  0  1  0  0  0  0  0  0  0  0  0
    8.2318  -13.8593   21.1751 C   0  0  0  0  0  0  0  0  0  0  0  0
    8.2053  -12.9139   21.9936 O   0  0  0  0  0  0  0  0  0  0  0  0
   11.2977  -19.6370   23.1876 N   0  0  0  0  0  0  0  0  0  0  0  0
   10.1496  -19.8640   22.3122 C   0  0  0  0  0  0  0  0  0  0  0  0
   10.3194  -19.9555   21.0707 N   0  0  0  0  0  0  0  0  0  0  0  0
    8.8637  -19.9778   22.8805 N   0  0  0  0  0  0  0  0  0  0  0  0
    8.2819  -19.1987   23.9230 C   0  0  0  0  0  0  0  0  0  0  0  0
    8.4048  -17.7241   23.8476 C   0  0  0  0  0  0  0  0  0  0  0  0
    7.2864  -17.0729   22.9987 C   0  0  0  0  0  0  0  0  0  0  0  0
    7.4432  -15.6185   22.8506 C   0  0  2  0  0  0  0  0  0  0  0  0
    7.9300  -15.1748   21.5895 N   0  0  0  0  0  0  0  0  0  0  0  0
    8.1019  -14.9477   24.0367 C   0  0  0  0  0  0  0  0  0  0  0  0
    9.3421  -14.9352   24.2149 O   0  0  0  0  0  0  0  0  0  0  0  0
    9.6841  -20.1010   20.3391 C   0  0  0  0  0  0  0  0  0  0  0  0
    6.9294  -11.3415   25.4757 C   0  0  2  0  0  0  0  0  0  0  0  0
    7.1440  -12.3709   26.5611 C   0  0  0  0  0  0  0  0  0  0  0  0
    5.7933  -12.8918   26.9884 C   0  0  2  0  0  0  0  0  0  0  0  0
    7.9861  -13.5214   26.1069 N   0  0  0  0  0  0  0  0  0  0  0  0
    7.3333  -14.2786   25.0378 C   0  0  0  0  0  0  0  0  0  0  0  0
    8.2218  -14.4485   27.2503 O   0  0  0  0  0  0  0  0  0  0  0  0
    9.0969  -14.0936   28.2827 O   0  0  0  0  0  0  0  0  0  0  0  0
  1  2  1  0
  3  2  1  0
  4  5  1  0
  4  3  1  0
  5  1  1  0
  6  7  2  0
  5  6  1  1
  9 11  1  0
  9  8  1  0
 10  9  2  0
 12 11  1  0
 13 12  1  0
 13 14  1  0
 15 14  1  1
 15 16  1  0
 16  6  1  0
 17 18  2  0
 17 15  1  0
 20 19  1  1
 20 21  1  0
 22 20  1  0
 22 23  1  1
 23 17  1  0
 24 22  1  0
 25 24  1  0
 26 24  2  0
M  END
$$$$
