PRV.pdb
     RDKit          3D

 26 26  0  0  1  0  0  0  0  0999 V2000
    8.9478  -14.7375   19.2853 N   0  0  0  0  0  0  0  0  0  0  0  0
    8.5795  -14.5099   17.9246 C   0  0  0  0  0  0  0  0  0  0  0  0
    7.5618  -13.4166   17.8897 C   0  0  0  0  0  0  0  0  0  0  0  0
    7.1772  -13.2548   19.3351 C   0  0  0  0  0  0  0  0  0  0  0  0
    8.3706  -13.7207   20.1010 C   0  0  1  0  0  0  0  0  0  0  0  0
    8.0135  -14.2398   21.4678 C   0  0  0  0  0  0  0  0  0  0  0  0
    7.2848  -13.5656   22.2286 O   0  0  0  0  0  0  0  0  0  0  0  0
   10.8285  -17.9473   19.5550 N   0  0  0  0  0  0  0  0  0  0  0  0
   10.8669  -19.4073   19.6078 C   0  0  0  0  0  0  0  0  0  0  0  0
   11.3240  -20.0556   18.6336 N   0  0  0  0  0  0  0  0  0  0  0  0
   10.3879  -20.0664   20.7592 N   0  0  0  0  0  0  0  0  0  0  0  0
    9.6909  -19.5134   21.8731 C   0  0  0  0  0  0  0  0  0  0  0  0
    9.3505  -18.0718   21.8410 C   0  0  0  0  0  0  0  0  0  0  0  0
    8.6593  -17.5910   23.1398 C   0  0  0  0  0  0  0  0  0  0  0  0
    8.3273  -16.1587   23.1240 C   0  0  2  0  0  0  0  0  0  0  0  0
    8.5106  -15.4958   21.8785 N   0  0  0  0  0  0  0  0  0  0  0  0
    8.8595  -15.3916   24.3151 C   0  0  0  0  0  0  0  0  0  0  0  0
   10.0503  -15.0135   24.4099 O   0  0  0  0  0  0  0  0  0  0  0  0
   11.3723  -21.0190   18.4621 C   0  0  0  0  0  0  0  0  0  0  0  0
    7.9774  -12.3693   28.1138 C   0  0  2  0  0  0  0  0  0  0  0  0
    7.4857  -13.2411   26.9815 C   0  0  0  0  0  0  0  0  0  0  0  0
    7.1053  -12.3440   25.8287 C   0  0  1  0  0  0  0  0  0  0  0  0
    8.5187  -14.2183   26.5152 N   0  0  0  0  0  0  0  0  0  0  0  0
    8.0193  -15.0489   25.4184 C   0  0  0  0  0  0  0  0  0  0  0  0
    8.8958  -15.1199   27.6410 O   0  0  0  0  0  0  0  0  0  0  0  0
    9.7658  -14.6774   28.6436 O   0  0  0  0  0  0  0  0  0  0  0  0
  1  2  1  0
  3  2  1  0
  4  5  1  0
  4  3  1  0
  5  1  1  0
  6  7  2  0
  5  6  1  1
  9 11  1  0
  9  8  1  0
 10  9  2  0
 12 11  1  0
 13 12  1  0
 13 14  1  0
 15 14  1  6
 15 16  1  0
 16  6  1  0
 17 18  2  0
 17 15  1  0
 20 19  1  1
 20 21  1  0
 22 20  1  0
 22 23  1  1
 23 17  1  0
 24 22  1  0
 25 24  1  0
 26 24  2  0
M  END
$$$$
