PRV.pdb
     RDKit          3D

 26 26  0  0  1  0  0  0  0  0999 V2000
    8.6168  -14.9574   18.8578 N   0  0  0  0  0  0  0  0  0  0  0  0
    8.3350  -14.6566   17.4907 C   0  0  0  0  0  0  0  0  0  0  0  0
    7.8479  -13.2465   17.4104 C   0  0  0  0  0  0  0  0  0  0  0  0
    7.6024  -12.8821   18.8492 C   0  0  0  0  0  0  0  0  0  0  0  0
    8.5248  -13.7607   19.6271 C   0  0  1  0  0  0  0  0  0  0  0  0
    8.0259  -14.0323   21.0208 C   0  0  0  0  0  0  0  0  0  0  0  0
    7.8243  -13.0869   21.8146 O   0  0  0  0  0  0  0  0  0  0  0  0
    8.1891  -20.2466   19.7808 N   0  0  0  0  0  0  0  0  0  0  0  0
    9.3491  -20.6641   20.5656 C   0  0  0  0  0  0  0  0  0  0  0  0
   10.2307  -21.3887   20.0399 N   0  0  0  0  0  0  0  0  0  0  0  0
    9.4594  -20.2427   21.9071 N   0  0  0  0  0  0  0  0  0  0  0  0
    8.5313  -19.4834   22.6780 C   0  0  0  0  0  0  0  0  0  0  0  0
    8.6284  -18.0056   22.6349 C   0  0  0  0  0  0  0  0  0  0  0  0
    7.2570  -17.3103   22.8119 C   0  0  0  0  0  0  0  0  0  0  0  0
    7.3264  -15.8479   22.6756 C   0  0  2  0  0  0  0  0  0  0  0  0
    7.7883  -15.3658   21.4192 N   0  0  0  0  0  0  0  0  0  0  0  0
    7.9411  -15.1482   23.8685 C   0  0  0  0  0  0  0  0  0  0  0  0
    9.1780  -15.0614   24.0492 O   0  0  0  0  0  0  0  0  0  0  0  0
   11.0193  -21.8283   20.4202 C   0  0  0  0  0  0  0  0  0  0  0  0
    7.4123  -12.0726   27.7543 C   0  0  2  0  0  0  0  0  0  0  0  0
    6.7933  -12.8456   26.6127 C   0  0  0  0  0  0  0  0  0  0  0  0
    6.3677  -11.8585   25.5530 C   0  0  1  0  0  0  0  0  0  0  0  0
    7.7394  -13.8325   26.0043 N   0  0  0  0  0  0  0  0  0  0  0  0
    7.1316  -14.5360   24.8738 C   0  0  0  0  0  0  0  0  0  0  0  0
    8.1248  -14.8481   27.0254 O   0  0  0  0  0  0  0  0  0  0  0  0
    9.2316  -14.6357   27.8547 O   0  0  0  0  0  0  0  0  0  0  0  0
  1  2  1  0
  3  2  1  0
  4  5  1  0
  4  3  1  0
  5  1  1  0
  6  7  2  0
  5  6  1  1
  9 11  1  0
  9  8  1  0
 10  9  2  0
 12 11  1  0
 13 12  1  0
 13 14  1  0
 15 14  1  1
 15 16  1  0
 16  6  1  0
 17 18  2  0
 17 15  1  0
 20 19  1  1
 20 21  1  0
 22 20  1  0
 22 23  1  1
 23 17  1  0
 24 22  1  0
 25 24  1  0
 26 24  2  0
M  END
$$$$
