PRV.pdb
     RDKit          3D

 26 26  0  0  1  0  0  0  0  0999 V2000
    8.7605  -14.7015   19.1163 N   0  0  0  0  0  0  0  0  0  0  0  0
    8.3546  -14.5300   17.7582 C   0  0  0  0  0  0  0  0  0  0  0  0
    7.5383  -13.2821   17.6654 C   0  0  0  0  0  0  0  0  0  0  0  0
    7.2755  -12.9321   19.1048 C   0  0  0  0  0  0  0  0  0  0  0  0
    8.4161  -13.5331   19.8571 C   0  0  1  0  0  0  0  0  0  0  0  0
    8.0592  -13.8625   21.2816 C   0  0  0  0  0  0  0  0  0  0  0  0
    7.5877  -12.9817   22.0340 O   0  0  0  0  0  0  0  0  0  0  0  0
   13.3363  -20.3612   21.8252 N   0  0  0  0  0  0  0  0  0  0  0  0
   11.9485  -20.0454   22.1571 C   0  0  0  0  0  0  0  0  0  0  0  0
   11.0182  -20.7409   21.6782 N   0  0  0  0  0  0  0  0  0  0  0  0
   11.6768  -18.9593   23.0151 N   0  0  0  0  0  0  0  0  0  0  0  0
   10.4133  -18.4882   23.4776 C   0  0  0  0  0  0  0  0  0  0  0  0
    9.6525  -17.5577   22.6112 C   0  0  0  0  0  0  0  0  0  0  0  0
    8.3009  -17.1310   23.2329 C   0  0  0  0  0  0  0  0  0  0  0  0
    8.0051  -15.7021   23.0527 C   0  0  2  0  0  0  0  0  0  0  0  0
    8.2628  -15.1766   21.7558 N   0  0  0  0  0  0  0  0  0  0  0  0
    8.4993  -14.8251   24.1828 C   0  0  0  0  0  0  0  0  0  0  0  0
    9.6550  -14.3422   24.2200 O   0  0  0  0  0  0  0  0  0  0  0  0
   10.0447  -20.6629   21.7569 C   0  0  0  0  0  0  0  0  0  0  0  0
    6.8481  -11.6338   25.6853 C   0  0  2  0  0  0  0  0  0  0  0  0
    7.1461  -12.6240   26.7875 C   0  0  0  0  0  0  0  0  0  0  0  0
    5.8584  -13.3210   27.1539 C   0  0  2  0  0  0  0  0  0  0  0  0
    8.1556  -13.6516   26.3824 N   0  0  0  0  0  0  0  0  0  0  0  0
    7.6614  -14.4922   25.2908 C   0  0  0  0  0  0  0  0  0  0  0  0
    8.4598  -14.5361   27.5433 O   0  0  0  0  0  0  0  0  0  0  0  0
    9.2210  -14.0610   28.6169 O   0  0  0  0  0  0  0  0  0  0  0  0
  1  2  1  0
  3  2  1  0
  4  5  1  0
  4  3  1  0
  5  1  1  0
  6  7  2  0
  5  6  1  1
  9 11  1  0
  9  8  1  0
 10  9  2  0
 12 11  1  0
 13 12  1  0
 13 14  1  0
 15 14  1  6
 15 16  1  0
 16  6  1  0
 17 18  2  0
 17 15  1  0
 20 19  1  1
 20 21  1  0
 22 20  1  0
 22 23  1  1
 23 17  1  0
 24 22  1  0
 25 24  1  0
 26 24  2  0
M  END
$$$$
