DGE.pdb
     RDKit          3D

 22 21  0  0  1  0  0  0  0  0999 V2000
   24.4165   -1.6825  -17.7518 N   0  0  0  0  0  0  0  0  0  0  0  0
   24.5980   -2.3194  -19.0303 C   0  0  1  0  0  0  0  0  0  0  0  0
   26.0272   -2.0505  -19.4780 C   0  0  0  0  0  0  0  0  0  0  0  0
   26.2001   -0.6195  -19.7782 C   0  0  0  0  0  0  0  0  0  0  0  0
   27.3348   -0.0750  -19.6616 O   0  0  0  0  0  0  0  0  0  0  0  0
   24.3335   -3.7629  -18.9133 C   0  0  0  0  0  0  0  0  0  0  0  0
   24.4332   -4.5194  -19.9094 O   0  0  0  0  0  0  0  0  0  0  0  0
   25.1457    0.1765  -20.1940 O   0  0  0  0  0  0  0  0  0  0  0  0
   23.9629   -4.3263  -17.6791 N   0  0  0  0  0  0  0  0  0  0  0  0
   23.6134   -5.7192  -17.5400 C   0  0  0  0  0  0  0  0  0  0  0  0
   22.4442   -5.8314  -16.6124 C   0  0  0  0  0  0  0  0  0  0  0  0
   22.0447   -4.8712  -15.9009 O   0  0  0  0  0  0  0  0  0  0  0  0
   21.7226   -7.0597  -16.4971 N   0  0  0  0  0  0  0  0  0  0  0  0
   20.6060   -7.2460  -15.5812 C   0  0  1  0  0  0  0  0  0  0  0  0
   19.9714   -8.5530  -15.9511 C   0  0  0  0  0  0  0  0  0  0  0  0
   18.8179   -8.9564  -15.0675 C   0  0  0  0  0  0  0  0  0  0  0  0
   18.3206  -10.2669  -15.5686 C   0  0  0  0  0  0  0  0  0  0  0  0
   17.3988  -10.4238  -16.3857 O   0  0  0  0  0  0  0  0  0  0  0  0
   21.1187   -7.1978  -14.2113 C   0  0  0  0  0  0  0  0  0  0  0  0
   22.2397   -7.6400  -13.8502 O   0  0  0  0  0  0  0  0  0  0  0  0
   18.9493  -11.4087  -15.0725 O   0  0  0  0  0  0  0  0  0  0  0  0
   20.3497   -6.6327  -13.2013 O   0  0  0  0  0  0  0  0  0  0  0  0
  2  1  1  1
  2  3  1  0
  3  4  1  0
  4  8  1  0
  5  4  2  0
  6  9  1  0
  6  2  1  0
  7  6  2  0
 10  9  1  0
 11 13  1  0
 11 10  1  0
 12 11  2  0
 14 13  1  0
 14 15  1  6
 15 16  1  0
 16 17  1  0
 17 18  2  0
 17 21  1  0
 19 14  1  0
 20 19  2  0
 22 19  1  0
M  END
$$$$
