DGE.pdb
     RDKit          3D

 22 21  0  0  1  0  0  0  0  0999 V2000
   18.5858  -13.6157  -17.1689 N   0  0  0  0  0  0  0  0  0  0  0  0
   17.4084  -13.3908  -16.3713 C   0  0  1  0  0  0  0  0  0  0  0  0
   17.2524  -14.5820  -15.4375 C   0  0  0  0  0  0  0  0  0  0  0  0
   16.7795  -15.7547  -16.1919 C   0  0  0  0  0  0  0  0  0  0  0  0
   16.1294  -15.6039  -17.2654 O   0  0  0  0  0  0  0  0  0  0  0  0
   17.5449  -12.1324  -15.6196 C   0  0  0  0  0  0  0  0  0  0  0  0
   16.6321  -11.7353  -14.8559 O   0  0  0  0  0  0  0  0  0  0  0  0
   17.0226  -17.0496  -15.7651 O   0  0  0  0  0  0  0  0  0  0  0  0
   18.7050  -11.3465  -15.7415 N   0  0  0  0  0  0  0  0  0  0  0  0
   18.8454  -10.0699  -15.0842 C   0  0  0  0  0  0  0  0  0  0  0  0
   19.0910   -9.0192  -16.1215 C   0  0  0  0  0  0  0  0  0  0  0  0
   19.8283   -9.2120  -17.1250 O   0  0  0  0  0  0  0  0  0  0  0  0
   18.4847   -7.7299  -16.0083 N   0  0  0  0  0  0  0  0  0  0  0  0
   18.7202   -6.6516  -16.9580 C   0  0  1  0  0  0  0  0  0  0  0  0
   17.7223   -5.5803  -16.6349 C   0  0  0  0  0  0  0  0  0  0  0  0
   16.2859   -5.9794  -16.8618 C   0  0  0  0  0  0  0  0  0  0  0  0
   15.7454   -6.4320  -15.5508 C   0  0  0  0  0  0  0  0  0  0  0  0
   15.7685   -5.7768  -14.4962 O   0  0  0  0  0  0  0  0  0  0  0  0
   20.1148   -6.2246  -16.8363 C   0  0  0  0  0  0  0  0  0  0  0  0
   20.6565   -5.3374  -17.5448 O   0  0  0  0  0  0  0  0  0  0  0  0
   15.1663   -7.7002  -15.5141 O   0  0  0  0  0  0  0  0  0  0  0  0
   20.9402   -6.8110  -15.8848 O   0  0  0  0  0  0  0  0  0  0  0  0
  2  1  1  1
  2  3  1  0
  3  4  1  0
  4  8  1  0
  5  4  2  0
  6  9  1  0
  6  2  1  0
  7  6  2  0
 10  9  1  0
 11 13  1  0
 11 10  1  0
 12 11  2  0
 14 13  1  0
 14 15  1  1
 15 16  1  0
 16 17  1  0
 17 18  2  0
 17 21  1  0
 19 14  1  0
 20 19  2  0
 22 19  1  0
M  END
$$$$
