DGE.pdb
     RDKit          3D

 22 21  0  0  1  0  0  0  0  0999 V2000
   13.9510   -9.1710  -11.2411 N   0  0  0  0  0  0  0  0  0  0  0  0
   14.5890   -9.5278  -10.0006 C   0  0  1  0  0  0  0  0  0  0  0  0
   14.1596  -10.9461   -9.6552 C   0  0  0  0  0  0  0  0  0  0  0  0
   12.6985  -11.0019   -9.4820 C   0  0  0  0  0  0  0  0  0  0  0  0
   12.1378  -10.3340   -8.5670 O   0  0  0  0  0  0  0  0  0  0  0  0
   16.0510   -9.4277  -10.1418 C   0  0  0  0  0  0  0  0  0  0  0  0
   16.8060   -9.5749   -9.1505 O   0  0  0  0  0  0  0  0  0  0  0  0
   11.8909  -11.7744  -10.2999 O   0  0  0  0  0  0  0  0  0  0  0  0
   16.6341   -9.1648  -11.3943 N   0  0  0  0  0  0  0  0  0  0  0  0
   18.0630   -9.1506  -11.5932 C   0  0  0  0  0  0  0  0  0  0  0  0
   18.3441   -8.9506  -13.0496 C   0  0  0  0  0  0  0  0  0  0  0  0
   17.6011   -9.4127  -13.9564 O   0  0  0  0  0  0  0  0  0  0  0  0
   19.4916   -8.2118  -13.4741 N   0  0  0  0  0  0  0  0  0  0  0  0
   19.6042   -7.5998  -14.7905 C   0  0  1  0  0  0  0  0  0  0  0  0
   18.5279   -6.5587  -14.8644 C   0  0  0  0  0  0  0  0  0  0  0  0
   18.5163   -5.7660  -16.1472 C   0  0  0  0  0  0  0  0  0  0  0  0
   17.3692   -4.8208  -16.0670 C   0  0  0  0  0  0  0  0  0  0  0  0
   17.4477   -3.5836  -16.1384 O   0  0  0  0  0  0  0  0  0  0  0  0
   20.9598   -7.0685  -14.9391 C   0  0  0  0  0  0  0  0  0  0  0  0
   21.7298   -6.7933  -13.9833 O   0  0  0  0  0  0  0  0  0  0  0  0
   16.1036   -5.3819  -15.8972 O   0  0  0  0  0  0  0  0  0  0  0  0
   21.4790   -6.8345  -16.2065 O   0  0  0  0  0  0  0  0  0  0  0  0
  2  1  1  6
  2  3  1  0
  3  4  1  0
  4  8  1  0
  5  4  2  0
  6  9  1  0
  6  2  1  0
  7  6  2  0
 10  9  1  0
 11 13  1  0
 11 10  1  0
 12 11  2  0
 14 13  1  0
 14 15  1  1
 15 16  1  0
 16 17  1  0
 17 18  2  0
 17 21  1  0
 19 14  1  0
 20 19  2  0
 22 19  1  0
M  END
$$$$
