DGE.pdb
     RDKit          3D

 22 21  0  0  1  0  0  0  0  0999 V2000
   15.3712  -12.2346  -14.8952 N   0  0  0  0  0  0  0  0  0  0  0  0
   16.7847  -12.3288  -15.1524 C   0  0  1  0  0  0  0  0  0  0  0  0
   16.9884  -13.4080  -16.2055 C   0  0  0  0  0  0  0  0  0  0  0  0
   17.0566  -14.7314  -15.5637 C   0  0  0  0  0  0  0  0  0  0  0  0
   16.7175  -14.8730  -14.3544 O   0  0  0  0  0  0  0  0  0  0  0  0
   17.2989  -11.0273  -15.6096 C   0  0  0  0  0  0  0  0  0  0  0  0
   18.5264  -10.8494  -15.7986 O   0  0  0  0  0  0  0  0  0  0  0  0
   17.4872  -15.8572  -16.2458 O   0  0  0  0  0  0  0  0  0  0  0  0
   16.4226   -9.9527  -15.8451 N   0  0  0  0  0  0  0  0  0  0  0  0
   16.8767   -8.6856  -16.3646 C   0  0  0  0  0  0  0  0  0  0  0  0
   17.3421   -7.8367  -15.2231 C   0  0  0  0  0  0  0  0  0  0  0  0
   17.1116   -8.1284  -14.0191 O   0  0  0  0  0  0  0  0  0  0  0  0
   18.0811   -6.6371  -15.4630 N   0  0  0  0  0  0  0  0  0  0  0  0
   18.6510   -5.8247  -14.3974 C   0  0  1  0  0  0  0  0  0  0  0  0
   20.1382   -5.8720  -14.5812 C   0  0  0  0  0  0  0  0  0  0  0  0
   20.9137   -5.0351  -13.5953 C   0  0  0  0  0  0  0  0  0  0  0  0
   22.3578   -5.2195  -13.9056 C   0  0  0  0  0  0  0  0  0  0  0  0
   23.1661   -4.3079  -14.1455 O   0  0  0  0  0  0  0  0  0  0  0  0
   18.0811   -4.4796  -14.4862 C   0  0  0  0  0  0  0  0  0  0  0  0
   18.1517   -3.6107  -13.5793 O   0  0  0  0  0  0  0  0  0  0  0  0
   22.8335   -6.5304  -13.9263 O   0  0  0  0  0  0  0  0  0  0  0  0
   17.4043   -4.0864  -15.6342 O   0  0  0  0  0  0  0  0  0  0  0  0
  2  1  1  6
  2  3  1  0
  3  4  1  0
  4  8  1  0
  5  4  2  0
  6  9  1  0
  6  2  1  0
  7  6  2  0
 10  9  1  0
 11 13  1  0
 11 10  1  0
 12 11  2  0
 14 13  1  0
 14 15  1  6
 15 16  1  0
 16 17  1  0
 17 18  2  0
 17 21  1  0
 19 14  1  0
 20 19  2  0
 22 19  1  0
M  END
$$$$
