DGE.pdb
     RDKit          3D

 22 21  0  0  1  0  0  0  0  0999 V2000
   25.9950   -9.8558  -17.6935 N   0  0  0  0  0  0  0  0  0  0  0  0
   26.2350  -10.3535  -16.3640 C   0  0  1  0  0  0  0  0  0  0  0  0
   27.5019   -9.6884  -15.8467 C   0  0  0  0  0  0  0  0  0  0  0  0
   28.6378  -10.0179  -16.7237 C   0  0  0  0  0  0  0  0  0  0  0  0
   29.7462   -9.4271  -16.5823 O   0  0  0  0  0  0  0  0  0  0  0  0
   25.0801  -10.0553  -15.5010 C   0  0  0  0  0  0  0  0  0  0  0  0
   25.0765  -10.3876  -14.2911 O   0  0  0  0  0  0  0  0  0  0  0  0
   28.5417  -10.9722  -17.7228 O   0  0  0  0  0  0  0  0  0  0  0  0
   23.9533   -9.3894  -16.0158 N   0  0  0  0  0  0  0  0  0  0  0  0
   22.8193   -9.0423  -15.1942 C   0  0  0  0  0  0  0  0  0  0  0  0
   21.8523   -8.2511  -16.0183 C   0  0  0  0  0  0  0  0  0  0  0  0
   22.1643   -7.7326  -17.1236 O   0  0  0  0  0  0  0  0  0  0  0  0
   20.5098   -8.0503  -15.5710 N   0  0  0  0  0  0  0  0  0  0  0  0
   19.5224   -7.2920  -16.3263 C   0  0  1  0  0  0  0  0  0  0  0  0
   18.1801   -7.7243  -15.8174 C   0  0  0  0  0  0  0  0  0  0  0  0
   17.0152   -6.9944  -16.4375 C   0  0  0  0  0  0  0  0  0  0  0  0
   15.7748   -7.5744  -15.8538 C   0  0  0  0  0  0  0  0  0  0  0  0
   15.7312   -8.4991  -15.0261 O   0  0  0  0  0  0  0  0  0  0  0  0
   19.7980   -5.8659  -16.1464 C   0  0  0  0  0  0  0  0  0  0  0  0
   20.2317   -5.3487  -15.0849 O   0  0  0  0  0  0  0  0  0  0  0  0
   14.5647   -7.0263  -16.2786 O   0  0  0  0  0  0  0  0  0  0  0  0
   19.5815   -4.9792  -17.1939 O   0  0  0  0  0  0  0  0  0  0  0  0
  2  1  1  6
  2  3  1  0
  3  4  1  0
  4  8  1  0
  5  4  2  0
  6  9  1  0
  6  2  1  0
  7  6  2  0
 10  9  1  0
 11 13  1  0
 11 10  1  0
 12 11  2  0
 14 13  1  0
 14 15  1  1
 15 16  1  0
 16 17  1  0
 17 18  2  0
 17 21  1  0
 19 14  1  0
 20 19  2  0
 22 19  1  0
M  END
$$$$
