DGE.pdb
     RDKit          3D

 22 21  0  0  1  0  0  0  0  0999 V2000
   25.8698  -18.3632  -17.2106 N   0  0  0  0  0  0  0  0  0  0  0  0
   27.2272  -18.3440  -17.6902 C   0  0  1  0  0  0  0  0  0  0  0  0
   27.5784  -16.8997  -18.0158 C   0  0  0  0  0  0  0  0  0  0  0  0
   26.8472  -16.4621  -19.2165 C   0  0  0  0  0  0  0  0  0  0  0  0
   26.5725  -17.2877  -20.1333 O   0  0  0  0  0  0  0  0  0  0  0  0
   28.1284  -18.8991  -16.6669 C   0  0  0  0  0  0  0  0  0  0  0  0
   29.3718  -18.9001  -16.8349 O   0  0  0  0  0  0  0  0  0  0  0  0
   26.4365  -15.1507  -19.3892 O   0  0  0  0  0  0  0  0  0  0  0  0
   27.6133  -19.4411  -15.4757 N   0  0  0  0  0  0  0  0  0  0  0  0
   28.4637  -19.9665  -14.4353 C   0  0  0  0  0  0  0  0  0  0  0  0
   27.6210  -20.2844  -13.2399 C   0  0  0  0  0  0  0  0  0  0  0  0
   28.0900  -20.8150  -12.1977 O   0  0  0  0  0  0  0  0  0  0  0  0
   26.2221  -19.9915  -13.2377 N   0  0  0  0  0  0  0  0  0  0  0  0
   25.3158  -20.4355  -12.1880 C   0  0  1  0  0  0  0  0  0  0  0  0
   23.9304  -20.1211  -12.6669 C   0  0  0  0  0  0  0  0  0  0  0  0
   22.8335  -20.5640  -11.7317 C   0  0  0  0  0  0  0  0  0  0  0  0
   21.5392  -20.2174  -12.3801 C   0  0  0  0  0  0  0  0  0  0  0  0
   21.4053  -19.7801  -13.5346 O   0  0  0  0  0  0  0  0  0  0  0  0
   25.5541  -21.8586  -11.9428 C   0  0  0  0  0  0  0  0  0  0  0  0
   25.6715  -22.3791  -10.8037 O   0  0  0  0  0  0  0  0  0  0  0  0
   20.3856  -20.4028  -11.6187 O   0  0  0  0  0  0  0  0  0  0  0  0
   25.6658  -22.7384  -13.0124 O   0  0  0  0  0  0  0  0  0  0  0  0
  2  1  1  1
  2  3  1  0
  3  4  1  0
  4  8  1  0
  5  4  2  0
  6  9  1  0
  6  2  1  0
  7  6  2  0
 10  9  1  0
 11 13  1  0
 11 10  1  0
 12 11  2  0
 14 13  1  0
 14 15  1  6
 15 16  1  0
 16 17  1  0
 17 18  2  0
 17 21  1  0
 19 14  1  0
 20 19  2  0
 22 19  1  0
M  END
$$$$
