DGE.pdb
     RDKit          3D

 22 21  0  0  1  0  0  0  0  0999 V2000
   20.2495  -19.5217  -14.3038 N   0  0  0  0  0  0  0  0  0  0  0  0
   21.1674  -20.6295  -14.2468 C   0  0  1  0  0  0  0  0  0  0  0  0
   22.5116  -20.1387  -14.7638 C   0  0  0  0  0  0  0  0  0  0  0  0
   22.3154  -18.9959  -15.6711 C   0  0  0  0  0  0  0  0  0  0  0  0
   21.1542  -18.6778  -16.0558 O   0  0  0  0  0  0  0  0  0  0  0  0
   21.2709  -21.1241  -12.8640 C   0  0  0  0  0  0  0  0  0  0  0  0
   22.0730  -22.0417  -12.5658 O   0  0  0  0  0  0  0  0  0  0  0  0
   23.3759  -18.2342  -16.1331 O   0  0  0  0  0  0  0  0  0  0  0  0
   20.4710  -20.5767  -11.8449 N   0  0  0  0  0  0  0  0  0  0  0  0
   20.5004  -21.0720  -10.4901 C   0  0  0  0  0  0  0  0  0  0  0  0
   19.5223  -22.1984  -10.3684 C   0  0  0  0  0  0  0  0  0  0  0  0
   18.8548  -22.6295  -11.3463 O   0  0  0  0  0  0  0  0  0  0  0  0
   19.3049  -22.8400   -9.1098 N   0  0  0  0  0  0  0  0  0  0  0  0
   18.3566  -23.9290   -8.9229 C   0  0  1  0  0  0  0  0  0  0  0  0
   18.6805  -24.5464   -7.5957 C   0  0  0  0  0  0  0  0  0  0  0  0
   17.8116  -25.7228   -7.2282 C   0  0  0  0  0  0  0  0  0  0  0  0
   18.2728  -26.2091   -5.8991 C   0  0  0  0  0  0  0  0  0  0  0  0
   19.1997  -25.7190   -5.2338 O   0  0  0  0  0  0  0  0  0  0  0  0
   17.0017  -23.3828   -9.0124 C   0  0  0  0  0  0  0  0  0  0  0  0
   16.6578  -22.2481   -8.5921 O   0  0  0  0  0  0  0  0  0  0  0  0
   17.6011  -27.3083   -5.3646 O   0  0  0  0  0  0  0  0  0  0  0  0
   15.9876  -24.1328   -9.5951 O   0  0  0  0  0  0  0  0  0  0  0  0
  2  1  1  1
  2  3  1  0
  3  4  1  0
  4  8  1  0
  5  4  2  0
  6  9  1  0
  6  2  1  0
  7  6  2  0
 10  9  1  0
 11 13  1  0
 11 10  1  0
 12 11  2  0
 14 13  1  0
 14 15  1  1
 15 16  1  0
 16 17  1  0
 17 18  2  0
 17 21  1  0
 19 14  1  0
 20 19  2  0
 22 19  1  0
M  END
$$$$
