DGE.pdb
     RDKit          3D

 22 21  0  0  1  0  0  0  0  0999 V2000
   18.5435  -13.3211  -15.3661 N   0  0  0  0  0  0  0  0  0  0  0  0
   18.2650  -12.3592  -16.4006 C   0  0  1  0  0  0  0  0  0  0  0  0
   17.0723  -12.8715  -17.1944 C   0  0  0  0  0  0  0  0  0  0  0  0
   17.4311  -14.1151  -17.8962 C   0  0  0  0  0  0  0  0  0  0  0  0
   18.4722  -14.1675  -18.6112 O   0  0  0  0  0  0  0  0  0  0  0  0
   17.9868  -11.0440  -15.8004 C   0  0  0  0  0  0  0  0  0  0  0  0
   16.8860  -10.8078  -15.2466 O   0  0  0  0  0  0  0  0  0  0  0  0
   16.6572  -15.2600  -17.8042 O   0  0  0  0  0  0  0  0  0  0  0  0
   18.9519  -10.0215  -15.8348 N   0  0  0  0  0  0  0  0  0  0  0  0
   18.7502   -8.7472  -15.1891 C   0  0  0  0  0  0  0  0  0  0  0  0
   19.9925   -7.9270  -15.3449 C   0  0  0  0  0  0  0  0  0  0  0  0
   21.0234   -8.3564  -15.9284 O   0  0  0  0  0  0  0  0  0  0  0  0
   20.0556   -6.5970  -14.8253 N   0  0  0  0  0  0  0  0  0  0  0  0
   21.1666   -5.6918  -15.0833 C   0  0  1  0  0  0  0  0  0  0  0  0
   20.5630   -4.3388  -15.3128 C   0  0  0  0  0  0  0  0  0  0  0  0
   21.5678   -3.2466  -15.5804 C   0  0  0  0  0  0  0  0  0  0  0  0
   20.8027   -1.9820  -15.7569 C   0  0  0  0  0  0  0  0  0  0  0  0
   21.1244   -0.8742  -15.2972 O   0  0  0  0  0  0  0  0  0  0  0  0
   22.0848   -5.7505  -13.9451 C   0  0  0  0  0  0  0  0  0  0  0  0
   21.7769   -6.1627  -12.7972 O   0  0  0  0  0  0  0  0  0  0  0  0
   19.6267   -2.0582  -16.5028 O   0  0  0  0  0  0  0  0  0  0  0  0
   23.4016   -5.3323  -14.0927 O   0  0  0  0  0  0  0  0  0  0  0  0
  2  1  1  1
  2  3  1  0
  3  4  1  0
  4  8  1  0
  5  4  2  0
  6  9  1  0
  6  2  1  0
  7  6  2  0
 10  9  1  0
 11 13  1  0
 11 10  1  0
 12 11  2  0
 14 13  1  0
 14 15  1  1
 15 16  1  0
 16 17  1  0
 17 18  2  0
 17 21  1  0
 19 14  1  0
 20 19  2  0
 22 19  1  0
M  END
$$$$
