DGE.pdb
     RDKit          3D

 22 21  0  0  1  0  0  0  0  0999 V2000
   26.6569  -34.4020   -4.8264 N   0  0  0  0  0  0  0  0  0  0  0  0
   25.6584  -33.7093   -4.0542 C   0  0  1  0  0  0  0  0  0  0  0  0
   24.2963  -34.1067   -4.6036 C   0  0  0  0  0  0  0  0  0  0  0  0
   24.0369  -33.3981   -5.8678 C   0  0  0  0  0  0  0  0  0  0  0  0
   24.3960  -33.9041   -6.9690 O   0  0  0  0  0  0  0  0  0  0  0  0
   25.7892  -34.0647   -2.6315 C   0  0  0  0  0  0  0  0  0  0  0  0
   25.0825  -33.5041   -1.7594 O   0  0  0  0  0  0  0  0  0  0  0  0
   23.3995  -32.1690   -5.9037 O   0  0  0  0  0  0  0  0  0  0  0  0
   26.7113  -35.0432   -2.2186 N   0  0  0  0  0  0  0  0  0  0  0  0
   26.8403  -35.4500   -0.8405 C   0  0  0  0  0  0  0  0  0  0  0  0
   27.7378  -34.4819   -0.1351 C   0  0  0  0  0  0  0  0  0  0  0  0
   28.5199  -33.7072   -0.7483 O   0  0  0  0  0  0  0  0  0  0  0  0
   27.7404  -34.3997    1.2918 N   0  0  0  0  0  0  0  0  0  0  0  0
   28.5729  -33.4646    2.0353 C   0  0  1  0  0  0  0  0  0  0  0  0
   27.8783  -33.2304    3.3432 C   0  0  0  0  0  0  0  0  0  0  0  0
   28.6275  -32.3298    4.2928 C   0  0  0  0  0  0  0  0  0  0  0  0
   27.7516  -32.1179    5.4775 C   0  0  0  0  0  0  0  0  0  0  0  0
   26.6051  -32.5739    5.6176 O   0  0  0  0  0  0  0  0  0  0  0  0
   29.9122  -34.0402    2.1654 C   0  0  0  0  0  0  0  0  0  0  0  0
   30.9569  -33.3783    2.3953 O   0  0  0  0  0  0  0  0  0  0  0  0
   28.2713  -31.3401    6.5120 O   0  0  0  0  0  0  0  0  0  0  0  0
   30.0946  -35.4114    2.0340 O   0  0  0  0  0  0  0  0  0  0  0  0
  2  1  1  6
  2  3  1  0
  3  4  1  0
  4  8  1  0
  5  4  2  0
  6  9  1  0
  6  2  1  0
  7  6  2  0
 10  9  1  0
 11 13  1  0
 11 10  1  0
 12 11  2  0
 14 13  1  0
 14 15  1  1
 15 16  1  0
 16 17  1  0
 17 18  2  0
 17 21  1  0
 19 14  1  0
 20 19  2  0
 22 19  1  0
M  END
$$$$
