DGE.pdb
     RDKit          3D

 22 21  0  0  1  0  0  0  0  0999 V2000
   16.5271  -10.8921  -14.2527 N   0  0  0  0  0  0  0  0  0  0  0  0
   17.5878  -11.2897  -15.1414 C   0  0  1  0  0  0  0  0  0  0  0  0
   16.9700  -12.1396  -16.2419 C   0  0  0  0  0  0  0  0  0  0  0  0
   16.5161  -13.4267  -15.6894 C   0  0  0  0  0  0  0  0  0  0  0  0
   15.3959  -13.9064  -16.0252 O   0  0  0  0  0  0  0  0  0  0  0  0
   18.2538  -10.0978  -15.6920 C   0  0  0  0  0  0  0  0  0  0  0  0
   19.2403  -10.2073  -16.4596 O   0  0  0  0  0  0  0  0  0  0  0  0
   17.2836  -14.1535  -14.7945 O   0  0  0  0  0  0  0  0  0  0  0  0
   17.7970   -8.8075  -15.3688 N   0  0  0  0  0  0  0  0  0  0  0  0
   18.4579   -7.6141  -15.8385 C   0  0  0  0  0  0  0  0  0  0  0  0
   19.6595   -7.3612  -14.9827 C   0  0  0  0  0  0  0  0  0  0  0  0
   19.8817   -7.9946  -13.9163 O   0  0  0  0  0  0  0  0  0  0  0  0
   20.6199   -6.3693  -15.3524 N   0  0  0  0  0  0  0  0  0  0  0  0
   21.8619   -6.1511  -14.6244 C   0  0  1  0  0  0  0  0  0  0  0  0
   22.8935   -5.7895  -15.6504 C   0  0  0  0  0  0  0  0  0  0  0  0
   23.3435   -6.9417  -16.5129 C   0  0  0  0  0  0  0  0  0  0  0  0
   24.3040   -6.3933  -17.5091 C   0  0  0  0  0  0  0  0  0  0  0  0
   24.5680   -5.1907  -17.6702 O   0  0  0  0  0  0  0  0  0  0  0  0
   21.6317   -5.1137  -13.6179 C   0  0  0  0  0  0  0  0  0  0  0  0
   22.3887   -4.8846  -12.6397 O   0  0  0  0  0  0  0  0  0  0  0  0
   24.9573   -7.3160  -18.3259 O   0  0  0  0  0  0  0  0  0  0  0  0
   20.5109   -4.2972  -13.7058 O   0  0  0  0  0  0  0  0  0  0  0  0
  2  1  1  1
  2  3  1  0
  3  4  1  0
  4  8  1  0
  5  4  2  0
  6  9  1  0
  6  2  1  0
  7  6  2  0
 10  9  1  0
 11 13  1  0
 11 10  1  0
 12 11  2  0
 14 13  1  0
 14 15  1  6
 15 16  1  0
 16 17  1  0
 17 18  2  0
 17 21  1  0
 19 14  1  0
 20 19  2  0
 22 19  1  0
M  END
$$$$
