DGE.pdb
     RDKit          3D

 22 21  0  0  1  0  0  0  0  0999 V2000
   17.2122  -12.7336  -17.0897 N   0  0  0  0  0  0  0  0  0  0  0  0
   16.7586  -12.9704  -15.7439 C   0  0  1  0  0  0  0  0  0  0  0  0
   17.2898  -14.3297  -15.3132 C   0  0  0  0  0  0  0  0  0  0  0  0
   16.4693  -15.4008  -15.9025 C   0  0  0  0  0  0  0  0  0  0  0  0
   15.2296  -15.2308  -16.0812 O   0  0  0  0  0  0  0  0  0  0  0  0
   17.2404  -11.8989  -14.8567 C   0  0  0  0  0  0  0  0  0  0  0  0
   17.0066  -11.9284  -13.6243 O   0  0  0  0  0  0  0  0  0  0  0  0
   17.0113  -16.6183  -16.2795 O   0  0  0  0  0  0  0  0  0  0  0  0
   17.9753  -10.8166  -15.3730 N   0  0  0  0  0  0  0  0  0  0  0  0
   18.5435   -9.7954  -14.5269 C   0  0  0  0  0  0  0  0  0  0  0  0
   19.3490   -8.8614  -15.3749 C   0  0  0  0  0  0  0  0  0  0  0  0
   19.4913   -9.0203  -16.6168 O   0  0  0  0  0  0  0  0  0  0  0  0
   20.0008   -7.7301  -14.7934 N   0  0  0  0  0  0  0  0  0  0  0  0
   20.6941   -6.7184  -15.5782 C   0  0  1  0  0  0  0  0  0  0  0  0
   20.8596   -5.5292  -14.6803 C   0  0  0  0  0  0  0  0  0  0  0  0
   21.5673   -4.3610  -15.3194 C   0  0  0  0  0  0  0  0  0  0  0  0
   21.6895   -3.3020  -14.2805 C   0  0  0  0  0  0  0  0  0  0  0  0
   21.2864   -3.3907  -13.1093 O   0  0  0  0  0  0  0  0  0  0  0  0
   21.9558   -7.2869  -16.0545 C   0  0  0  0  0  0  0  0  0  0  0  0
   22.6088   -8.1812  -15.4577 O   0  0  0  0  0  0  0  0  0  0  0  0
   22.3104   -2.1137  -14.6647 O   0  0  0  0  0  0  0  0  0  0  0  0
   22.5129   -6.8400  -17.2464 O   0  0  0  0  0  0  0  0  0  0  0  0
  2  1  1  6
  2  3  1  0
  3  4  1  0
  4  8  1  0
  5  4  2  0
  6  9  1  0
  6  2  1  0
  7  6  2  0
 10  9  1  0
 11 13  1  0
 11 10  1  0
 12 11  2  0
 14 13  1  0
 14 15  1  1
 15 16  1  0
 16 17  1  0
 17 18  2  0
 17 21  1  0
 19 14  1  0
 20 19  2  0
 22 19  1  0
M  END
$$$$
