DGE.pdb
     RDKit          3D

 22 21  0  0  1  0  0  0  0  0999 V2000
   13.7764  -10.8126   -9.3370 N   0  0  0  0  0  0  0  0  0  0  0  0
   14.1629   -9.4484   -9.5870 C   0  0  1  0  0  0  0  0  0  0  0  0
   13.5197   -8.5849   -8.5119 C   0  0  0  0  0  0  0  0  0  0  0  0
   12.0541   -8.6195   -8.6482 C   0  0  0  0  0  0  0  0  0  0  0  0
   11.5151   -8.4910   -9.7843 O   0  0  0  0  0  0  0  0  0  0  0  0
   15.6303   -9.3309   -9.5647 C   0  0  0  0  0  0  0  0  0  0  0  0
   16.2889   -9.6700   -8.5520 O   0  0  0  0  0  0  0  0  0  0  0  0
   11.2187   -8.7915   -7.5570 O   0  0  0  0  0  0  0  0  0  0  0  0
   16.3270   -8.8352  -10.6814 N   0  0  0  0  0  0  0  0  0  0  0  0
   17.7626   -8.6934  -10.6953 C   0  0  0  0  0  0  0  0  0  0  0  0
   18.1893   -8.2523  -12.0604 C   0  0  0  0  0  0  0  0  0  0  0  0
   17.3899   -8.1721  -13.0311 O   0  0  0  0  0  0  0  0  0  0  0  0
   19.5499   -7.8987  -12.3182 N   0  0  0  0  0  0  0  0  0  0  0  0
   20.0012   -7.3319  -13.5813 C   0  0  1  0  0  0  0  0  0  0  0  0
   20.9669   -6.2397  -13.2317 C   0  0  0  0  0  0  0  0  0  0  0  0
   21.5338   -5.5063  -14.4212 C   0  0  0  0  0  0  0  0  0  0  0  0
   22.4159   -4.4305  -13.8920 C   0  0  0  0  0  0  0  0  0  0  0  0
   22.9066   -3.5062  -14.5605 O   0  0  0  0  0  0  0  0  0  0  0  0
   20.5814   -8.4057  -14.3890 C   0  0  0  0  0  0  0  0  0  0  0  0
   21.1950   -9.4003  -13.9235 O   0  0  0  0  0  0  0  0  0  0  0  0
   22.7104   -4.4729  -12.5294 O   0  0  0  0  0  0  0  0  0  0  0  0
   20.4727   -8.3695  -15.7737 O   0  0  0  0  0  0  0  0  0  0  0  0
  2  1  1  1
  2  3  1  0
  3  4  1  0
  4  8  1  0
  5  4  2  0
  6  9  1  0
  6  2  1  0
  7  6  2  0
 10  9  1  0
 11 13  1  0
 11 10  1  0
 12 11  2  0
 14 13  1  0
 14 15  1  1
 15 16  1  0
 16 17  1  0
 17 18  2  0
 17 21  1  0
 19 14  1  0
 20 19  2  0
 22 19  1  0
M  END
$$$$
