DGE.pdb
     RDKit          3D

 22 21  0  0  1  0  0  0  0  0999 V2000
   18.9097  -11.0939  -15.5853 N   0  0  0  0  0  0  0  0  0  0  0  0
   17.4826  -10.9153  -15.5175 C   0  0  1  0  0  0  0  0  0  0  0  0
   16.9020  -12.1265  -14.8027 C   0  0  0  0  0  0  0  0  0  0  0  0
   17.0290  -13.3218  -15.6530 C   0  0  0  0  0  0  0  0  0  0  0  0
   16.0241  -14.0544  -15.8792 O   0  0  0  0  0  0  0  0  0  0  0  0
   17.1669   -9.6670  -14.8036 C   0  0  0  0  0  0  0  0  0  0  0  0
   15.9800   -9.2826  -14.6711 O   0  0  0  0  0  0  0  0  0  0  0  0
   18.2333  -13.6876  -16.2309 O   0  0  0  0  0  0  0  0  0  0  0  0
   18.1920   -8.8769  -14.2531 N   0  0  0  0  0  0  0  0  0  0  0  0
   17.9259   -7.6395  -13.5607 C   0  0  0  0  0  0  0  0  0  0  0  0
   19.2293   -7.0217  -13.1613 C   0  0  0  0  0  0  0  0  0  0  0  0
   20.0413   -7.5886  -12.3820 O   0  0  0  0  0  0  0  0  0  0  0  0
   19.6085   -5.7372  -13.6604 N   0  0  0  0  0  0  0  0  0  0  0  0
   20.9947   -5.3189  -13.8148 C   0  0  1  0  0  0  0  0  0  0  0  0
   21.6204   -6.2821  -14.7783 C   0  0  0  0  0  0  0  0  0  0  0  0
   23.0579   -5.9773  -15.1173 C   0  0  0  0  0  0  0  0  0  0  0  0
   23.5494   -7.0880  -15.9778 C   0  0  0  0  0  0  0  0  0  0  0  0
   24.0472   -6.9587  -17.1081 O   0  0  0  0  0  0  0  0  0  0  0  0
   21.0100   -3.9271  -14.2673 C   0  0  0  0  0  0  0  0  0  0  0  0
   21.9880   -3.1453  -14.1456 O   0  0  0  0  0  0  0  0  0  0  0  0
   23.4368   -8.3790  -15.4624 O   0  0  0  0  0  0  0  0  0  0  0  0
   19.8882   -3.3841  -14.8815 O   0  0  0  0  0  0  0  0  0  0  0  0
  2  1  1  1
  2  3  1  0
  3  4  1  0
  4  8  1  0
  5  4  2  0
  6  9  1  0
  6  2  1  0
  7  6  2  0
 10  9  1  0
 11 13  1  0
 11 10  1  0
 12 11  2  0
 14 13  1  0
 14 15  1  6
 15 16  1  0
 16 17  1  0
 17 18  2  0
 17 21  1  0
 19 14  1  0
 20 19  2  0
 22 19  1  0
M  END
$$$$
