DGE.pdb
     RDKit          3D

 22 21  0  0  1  0  0  0  0  0999 V2000
   18.0891  -13.4088  -14.8310 N   0  0  0  0  0  0  0  0  0  0  0  0
   16.9579  -13.1259  -15.6757 C   0  0  1  0  0  0  0  0  0  0  0  0
   15.7029  -13.2845  -14.8302 C   0  0  0  0  0  0  0  0  0  0  0  0
   15.5973  -14.6690  -14.3404 C   0  0  0  0  0  0  0  0  0  0  0  0
   15.4316  -15.6230  -15.1529 O   0  0  0  0  0  0  0  0  0  0  0  0
   17.0691  -11.7637  -16.2231 C   0  0  0  0  0  0  0  0  0  0  0  0
   16.2197  -11.3239  -17.0350 O   0  0  0  0  0  0  0  0  0  0  0  0
   15.6739  -14.9793  -12.9928 O   0  0  0  0  0  0  0  0  0  0  0  0
   18.1326  -10.9241  -15.8461 N   0  0  0  0  0  0  0  0  0  0  0  0
   18.2662   -9.5765  -16.3437 C   0  0  0  0  0  0  0  0  0  0  0  0
   19.4195   -8.9202  -15.6514 C   0  0  0  0  0  0  0  0  0  0  0  0
   20.0379   -9.4613  -14.6961 O   0  0  0  0  0  0  0  0  0  0  0  0
   19.8711   -7.6265  -16.0579 N   0  0  0  0  0  0  0  0  0  0  0  0
   21.0086   -6.9511  -15.4495 C   0  0  1  0  0  0  0  0  0  0  0  0
   21.3718   -5.8252  -16.3704 C   0  0  0  0  0  0  0  0  0  0  0  0
   22.5036   -4.9590  -15.8776 C   0  0  0  0  0  0  0  0  0  0  0  0
   22.6701   -3.8550  -16.8621 C   0  0  0  0  0  0  0  0  0  0  0  0
   22.0588   -3.7496  -17.9378 O   0  0  0  0  0  0  0  0  0  0  0  0
   20.6257   -6.5217  -14.1037 C   0  0  0  0  0  0  0  0  0  0  0  0
   19.4413   -6.3463  -13.7178 O   0  0  0  0  0  0  0  0  0  0  0  0
   23.5930   -2.8601  -16.5401 O   0  0  0  0  0  0  0  0  0  0  0  0
   21.6042   -6.2777  -13.1479 O   0  0  0  0  0  0  0  0  0  0  0  0
  2  1  1  1
  2  3  1  0
  3  4  1  0
  4  8  1  0
  5  4  2  0
  6  9  1  0
  6  2  1  0
  7  6  2  0
 10  9  1  0
 11 13  1  0
 11 10  1  0
 12 11  2  0
 14 13  1  0
 14 15  1  6
 15 16  1  0
 16 17  1  0
 17 18  2  0
 17 21  1  0
 19 14  1  0
 20 19  2  0
 22 19  1  0
M  END
$$$$
