DGE.pdb
     RDKit          3D

 22 21  0  0  1  0  0  0  0  0999 V2000
   22.7602  -32.5528  -14.2222 N   0  0  0  0  0  0  0  0  0  0  0  0
   23.8417  -33.3251  -14.7761 C   0  0  1  0  0  0  0  0  0  0  0  0
   24.3693  -32.5722  -15.9885 C   0  0  0  0  0  0  0  0  0  0  0  0
   23.5957  -32.9404  -17.1858 C   0  0  0  0  0  0  0  0  0  0  0  0
   22.3846  -32.5954  -17.2948 O   0  0  0  0  0  0  0  0  0  0  0  0
   24.8921  -33.5157  -13.7622 C   0  0  0  0  0  0  0  0  0  0  0  0
   26.0752  -33.7636  -14.0984 O   0  0  0  0  0  0  0  0  0  0  0  0
   24.1522  -33.6671  -18.2252 O   0  0  0  0  0  0  0  0  0  0  0  0
   24.5910  -33.4232  -12.3915 N   0  0  0  0  0  0  0  0  0  0  0  0
   25.5910  -33.6033  -11.3673 C   0  0  0  0  0  0  0  0  0  0  0  0
   24.9642  -33.3472  -10.0325 C   0  0  0  0  0  0  0  0  0  0  0  0
   23.8133  -32.8504   -9.9047 O   0  0  0  0  0  0  0  0  0  0  0  0
   25.6645  -33.6637   -8.8275 N   0  0  0  0  0  0  0  0  0  0  0  0
   25.0379  -33.6483   -7.5132 C   0  0  1  0  0  0  0  0  0  0  0  0
   25.2406  -35.0161   -6.9339 C   0  0  0  0  0  0  0  0  0  0  0  0
   24.5029  -35.2598   -5.6414 C   0  0  0  0  0  0  0  0  0  0  0  0
   25.4017  -36.0648   -4.7698 C   0  0  0  0  0  0  0  0  0  0  0  0
   25.4210  -37.3047   -4.7031 O   0  0  0  0  0  0  0  0  0  0  0  0
   25.6404  -32.5714   -6.7263 C   0  0  0  0  0  0  0  0  0  0  0  0
   26.7903  -32.0998   -6.9202 O   0  0  0  0  0  0  0  0  0  0  0  0
   26.2937  -35.3578   -3.9637 O   0  0  0  0  0  0  0  0  0  0  0  0
   24.9311  -31.9958   -5.6793 O   0  0  0  0  0  0  0  0  0  0  0  0
  2  1  1  1
  2  3  1  0
  3  4  1  0
  4  8  1  0
  5  4  2  0
  6  9  1  0
  6  2  1  0
  7  6  2  0
 10  9  1  0
 11 13  1  0
 11 10  1  0
 12 11  2  0
 14 13  1  0
 14 15  1  1
 15 16  1  0
 16 17  1  0
 17 18  2  0
 17 21  1  0
 19 14  1  0
 20 19  2  0
 22 19  1  0
M  END
$$$$
