VVR.pdb
     RDKit          3D

 26 25  0  0  1  0  0  0  0  0999 V2000
    8.5652  -12.2486   20.0642 C   0  0  0  0  0  0  0  0  0  0  0  0
    7.3025  -13.0052   20.3648 C   0  0  1  0  0  0  0  0  0  0  0  0
    6.4895  -13.2726   19.1393 C   0  0  0  0  0  0  0  0  0  0  0  0
    7.6049  -14.2526   21.1673 C   0  0  2  0  0  0  0  0  0  0  0  0
    6.4422  -15.0485   21.4219 N   0  0  0  0  0  0  0  0  0  0  0  0
    8.2918  -13.9330   22.4404 C   0  0  0  0  0  0  0  0  0  0  0  0
    9.5133  -13.5980   22.4324 O   0  0  0  0  0  0  0  0  0  0  0  0
    6.9586  -11.8982   25.7543 C   0  0  0  0  0  0  0  0  0  0  0  0
    7.4614  -13.2727   26.0077 C   0  0  1  0  0  0  0  0  0  0  0  0
    6.3044  -14.2238   26.2227 C   0  0  0  0  0  0  0  0  0  0  0  0
    8.4187  -13.7773   24.9515 C   0  0  2  0  0  0  0  0  0  0  0  0
    7.6564  -13.9773   23.7113 N   0  0  0  0  0  0  0  0  0  0  0  0
    8.9108  -15.1127   25.3731 C   0  0  0  0  0  0  0  0  0  0  0  0
    8.1337  -16.1188   25.2455 O   0  0  0  0  0  0  0  0  0  0  0  0
   16.0496  -16.7346   22.1036 N   0  0  0  0  0  0  0  0  0  0  0  0
   16.0140  -16.5259   23.5030 C   0  0  0  0  0  0  0  0  0  0  0  0
   17.1288  -16.2029   24.0742 N   0  0  0  0  0  0  0  0  0  0  0  0
   14.8061  -16.6673   24.2357 N   0  0  0  0  0  0  0  0  0  0  0  0
   14.0302  -17.8630   24.1545 C   0  0  0  0  0  0  0  0  0  0  0  0
   12.8306  -17.9323   25.0023 C   0  0  0  0  0  0  0  0  0  0  0  0
   11.9574  -16.7727   25.1245 C   0  0  0  0  0  0  0  0  0  0  0  0
   10.7027  -16.8267   25.9224 C   0  0  2  0  0  0  0  0  0  0  0  0
   10.1706  -15.3896   25.9053 N   0  0  0  0  0  0  0  0  0  0  0  0
   10.8250  -17.1623   27.3554 C   0  0  0  0  0  0  0  0  0  0  0  0
   11.2070  -18.3469   27.7064 O   0  0  0  0  0  0  0  0  0  0  0  0
   10.5816  -16.3368   28.4199 O   0  0  0  0  0  0  0  0  0  0  0  0
  2  4  1  0
  2  1  1  6
  3  2  1  0
  4  5  1  1
  6  7  2  0
  6  4  1  0
  9  8  1  6
  9 11  1  0
 10  9  1  0
 11 12  1  6
 12  6  1  0
 13 23  1  0
 13 11  1  0
 14 13  2  0
 16 15  1  0
 17 16  2  0
 18 16  1  0
 19 20  1  0
 19 18  1  0
 20 21  1  0
 22 23  1  0
 22 21  1  1
 24 22  1  0
 25 24  2  0
 26 24  1  0
M  END
$$$$
