VVR.pdb
     RDKit          3D

 26 25  0  0  1  0  0  0  0  0999 V2000
    6.7513  -16.0699   21.6324 C   0  0  0  0  0  0  0  0  0  0  0  0
    7.2623  -15.0479   20.6568 C   0  0  1  0  0  0  0  0  0  0  0  0
    6.6110  -15.1600   19.3161 C   0  0  0  0  0  0  0  0  0  0  0  0
    7.1808  -13.6568   21.2482 C   0  0  2  0  0  0  0  0  0  0  0  0
    7.5800  -12.6345   20.3286 N   0  0  0  0  0  0  0  0  0  0  0  0
    7.9622  -13.5469   22.5021 C   0  0  0  0  0  0  0  0  0  0  0  0
    9.2247  -13.4579   22.4540 O   0  0  0  0  0  0  0  0  0  0  0  0
    7.1151  -11.2988   25.8540 C   0  0  0  0  0  0  0  0  0  0  0  0
    7.3529  -12.7482   26.0752 C   0  0  1  0  0  0  0  0  0  0  0  0
    6.0388  -13.4719   26.2721 C   0  0  0  0  0  0  0  0  0  0  0  0
    8.2012  -13.3982   25.0055 C   0  0  2  0  0  0  0  0  0  0  0  0
    7.3760  -13.5341   23.7971 N   0  0  0  0  0  0  0  0  0  0  0  0
    8.5368  -14.7731   25.4530 C   0  0  0  0  0  0  0  0  0  0  0  0
    7.6295  -15.6712   25.4022 O   0  0  0  0  0  0  0  0  0  0  0  0
   14.4602  -20.0910   23.9880 N   0  0  0  0  0  0  0  0  0  0  0  0
   13.2742  -20.8103   24.2696 C   0  0  0  0  0  0  0  0  0  0  0  0
   13.4063  -21.9279   24.9076 N   0  0  0  0  0  0  0  0  0  0  0  0
   12.0047  -20.3195   23.8658 N   0  0  0  0  0  0  0  0  0  0  0  0
   11.6568  -18.9454   24.0373 C   0  0  0  0  0  0  0  0  0  0  0  0
   11.5922  -18.4467   25.4192 C   0  0  0  0  0  0  0  0  0  0  0  0
   11.2646  -17.0505   25.6748 C   0  0  0  0  0  0  0  0  0  0  0  0
    9.9892  -16.6609   26.3348 C   0  0  2  0  0  0  0  0  0  0  0  0
    9.7764  -15.1972   25.9330 N   0  0  0  0  0  0  0  0  0  0  0  0
    9.9664  -16.6496   27.8114 C   0  0  0  0  0  0  0  0  0  0  0  0
   10.1706  -15.5424   28.4477 O   0  0  0  0  0  0  0  0  0  0  0  0
    9.7369  -17.7139   28.6412 O   0  0  0  0  0  0  0  0  0  0  0  0
  2  4  1  0
  2  1  1  1
  3  2  1  0
  4  5  1  6
  6  7  2  0
  6  4  1  0
  9  8  1  6
  9 11  1  0
 10  9  1  0
 11 12  1  6
 12  6  1  0
 13 23  1  0
 13 11  1  0
 14 13  2  0
 16 15  1  0
 17 16  2  0
 18 16  1  0
 19 20  1  0
 19 18  1  0
 20 21  1  0
 22 23  1  0
 22 21  1  1
 24 22  1  0
 25 24  2  0
 26 24  1  0
M  END
$$$$
