VVR.pdb
     RDKit          3D

 26 25  0  0  1  0  0  0  0  0999 V2000
    6.8306  -19.0150   19.5821 C   0  0  0  0  0  0  0  0  0  0  0  0
    7.6685  -19.1896   18.3472 C   0  0  1  0  0  0  0  0  0  0  0  0
    7.0617  -20.1480   17.3740 C   0  0  0  0  0  0  0  0  0  0  0  0
    8.0048  -17.8464   17.7352 C   0  0  2  0  0  0  0  0  0  0  0  0
    8.8903  -17.9491   16.6148 N   0  0  0  0  0  0  0  0  0  0  0  0
    8.5606  -16.9096   18.7393 C   0  0  0  0  0  0  0  0  0  0  0  0
    9.7047  -17.1244   19.2386 O   0  0  0  0  0  0  0  0  0  0  0  0
    6.2659  -13.7021   20.3193 C   0  0  0  0  0  0  0  0  0  0  0  0
    7.7263  -13.5258   20.1138 C   0  0  1  0  0  0  0  0  0  0  0  0
    8.2753  -12.5099   21.0915 C   0  0  0  0  0  0  0  0  0  0  0  0
    8.5081  -14.8197   20.1450 C   0  0  2  0  0  0  0  0  0  0  0  0
    7.8786  -15.7492   19.1967 N   0  0  0  0  0  0  0  0  0  0  0  0
    8.3594  -15.4178   21.4953 C   0  0  0  0  0  0  0  0  0  0  0  0
    7.2772  -16.0374   21.7737 O   0  0  0  0  0  0  0  0  0  0  0  0
    6.1726  -20.6257   23.1824 N   0  0  0  0  0  0  0  0  0  0  0  0
    6.6131  -20.9592   24.4854 C   0  0  0  0  0  0  0  0  0  0  0  0
    6.1477  -22.0521   24.9977 N   0  0  0  0  0  0  0  0  0  0  0  0
    7.5227  -20.1260   25.1885 N   0  0  0  0  0  0  0  0  0  0  0  0
    7.9360  -18.8688   24.6528 C   0  0  0  0  0  0  0  0  0  0  0  0
    9.1762  -18.8616   23.8628 C   0  0  0  0  0  0  0  0  0  0  0  0
    9.6455  -17.6234   23.2555 C   0  0  0  0  0  0  0  0  0  0  0  0
    9.1734  -16.2963   23.7350 C   0  0  2  0  0  0  0  0  0  0  0  0
    9.3076  -15.3744   22.5180 N   0  0  0  0  0  0  0  0  0  0  0  0
    9.9663  -15.6366   24.7921 C   0  0  0  0  0  0  0  0  0  0  0  0
   11.0357  -14.9812   24.4771 O   0  0  0  0  0  0  0  0  0  0  0  0
    9.6993  -15.6199   26.1346 O   0  0  0  0  0  0  0  0  0  0  0  0
  2  4  1  0
  2  1  1  1
  3  2  1  0
  4  5  1  6
  6  7  2  0
  6  4  1  0
  9  8  1  1
  9 11  1  0
 10  9  1  0
 11 12  1  6
 12  6  1  0
 13 23  1  0
 13 11  1  0
 14 13  2  0
 16 15  1  0
 17 16  2  0
 18 16  1  0
 19 20  1  0
 19 18  1  0
 20 21  1  0
 22 23  1  0
 22 21  1  6
 24 22  1  0
 25 24  2  0
 26 24  1  0
M  END
$$$$
