VVR.pdb
     RDKit          3D

 26 25  0  0  1  0  0  0  0  0999 V2000
    8.7012  -12.2209   17.6743 C   0  0  0  0  0  0  0  0  0  0  0  0
    8.5818  -13.6740   17.3115 C   0  0  1  0  0  0  0  0  0  0  0  0
    9.0326  -13.9544   15.9143 C   0  0  0  0  0  0  0  0  0  0  0  0
    9.2651  -14.5414   18.3471 C   0  0  2  0  0  0  0  0  0  0  0  0
    9.1688  -15.9399   18.0558 N   0  0  0  0  0  0  0  0  0  0  0  0
    8.7572  -14.2695   19.7120 C   0  0  0  0  0  0  0  0  0  0  0  0
    8.9778  -13.1473   20.2563 O   0  0  0  0  0  0  0  0  0  0  0  0
    5.2859  -15.8630   20.9355 C   0  0  0  0  0  0  0  0  0  0  0  0
    6.2744  -15.7865   22.0414 C   0  0  1  0  0  0  0  0  0  0  0  0
    6.7597  -17.1717   22.4089 C   0  0  0  0  0  0  0  0  0  0  0  0
    7.4217  -14.8393   21.7706 C   0  0  2  0  0  0  0  0  0  0  0  0
    8.0160  -15.2095   20.4786 N   0  0  0  0  0  0  0  0  0  0  0  0
    8.4632  -15.0669   22.8033 C   0  0  0  0  0  0  0  0  0  0  0  0
    8.1547  -14.8946   24.0311 O   0  0  0  0  0  0  0  0  0  0  0  0
    9.1217  -14.5681   28.5636 N   0  0  0  0  0  0  0  0  0  0  0  0
   10.3107  -15.1505   29.0636 C   0  0  0  0  0  0  0  0  0  0  0  0
   10.7269  -14.7325   30.2149 N   0  0  0  0  0  0  0  0  0  0  0  0
   11.0065  -16.1455   28.3276 N   0  0  0  0  0  0  0  0  0  0  0  0
   11.1350  -16.0581   26.9084 C   0  0  0  0  0  0  0  0  0  0  0  0
   10.1248  -16.7658   26.1077 C   0  0  0  0  0  0  0  0  0  0  0  0
    9.6883  -16.2129   24.8326 C   0  0  0  0  0  0  0  0  0  0  0  0
   10.6407  -16.0113   23.7073 C   0  0  2  0  0  0  0  0  0  0  0  0
    9.7793  -15.4640   22.5640 N   0  0  0  0  0  0  0  0  0  0  0  0
   11.2883  -17.2133   23.1443 C   0  0  0  0  0  0  0  0  0  0  0  0
   10.6277  -17.9803   22.3393 O   0  0  0  0  0  0  0  0  0  0  0  0
   12.5689  -17.6421   23.3682 O   0  0  0  0  0  0  0  0  0  0  0  0
  2  4  1  0
  2  1  1  1
  3  2  1  0
  4  5  1  6
  6  7  2  0
  6  4  1  0
  9  8  1  6
  9 11  1  0
 10  9  1  0
 11 12  1  6
 12  6  1  0
 13 23  1  0
 13 11  1  0
 14 13  2  0
 16 15  1  0
 17 16  2  0
 18 16  1  0
 19 20  1  0
 19 18  1  0
 20 21  1  0
 22 23  1  0
 22 21  1  1
 24 22  1  0
 25 24  2  0
 26 24  1  0
M  END
$$$$
