VVR.pdb
     RDKit          3D

 26 25  0  0  1  0  0  0  0  0999 V2000
    6.3412  -15.8262   19.7715 C   0  0  0  0  0  0  0  0  0  0  0  0
    7.0336  -15.6263   21.0898 C   0  0  1  0  0  0  0  0  0  0  0  0
    8.1391  -16.6076   21.3107 C   0  0  0  0  0  0  0  0  0  0  0  0
    7.4697  -14.1856   21.2514 C   0  0  2  0  0  0  0  0  0  0  0  0
    8.4234  -13.7768   20.2647 N   0  0  0  0  0  0  0  0  0  0  0  0
    7.9976  -13.9212   22.6100 C   0  0  0  0  0  0  0  0  0  0  0  0
    9.2482  -13.9089   22.8107 O   0  0  0  0  0  0  0  0  0  0  0  0
    7.0653  -12.7138   27.3722 C   0  0  0  0  0  0  0  0  0  0  0  0
    6.7035  -12.7890   25.9336 C   0  0  1  0  0  0  0  0  0  0  0  0
    6.3349  -11.4172   25.4123 C   0  0  0  0  0  0  0  0  0  0  0  0
    7.7532  -13.4567   25.0739 C   0  0  2  0  0  0  0  0  0  0  0  0
    7.1732  -13.6724   23.7411 N   0  0  0  0  0  0  0  0  0  0  0  0
    8.0321  -14.7989   25.6431 C   0  0  0  0  0  0  0  0  0  0  0  0
    7.2005  -15.7427   25.4192 O   0  0  0  0  0  0  0  0  0  0  0  0
   13.6038  -19.4570   24.6870 N   0  0  0  0  0  0  0  0  0  0  0  0
   12.7172  -19.8849   23.6703 C   0  0  0  0  0  0  0  0  0  0  0  0
   13.2361  -20.1465   22.5145 N   0  0  0  0  0  0  0  0  0  0  0  0
   11.3254  -20.0170   23.9177 N   0  0  0  0  0  0  0  0  0  0  0  0
   10.7200  -19.4174   25.0633 C   0  0  0  0  0  0  0  0  0  0  0  0
   11.2674  -18.1244   25.5004 C   0  0  0  0  0  0  0  0  0  0  0  0
   10.4257  -16.9355   25.4869 C   0  0  0  0  0  0  0  0  0  0  0  0
    9.5116  -16.6188   26.6174 C   0  0  2  0  0  0  0  0  0  0  0  0
    9.1414  -15.1454   26.4153 N   0  0  0  0  0  0  0  0  0  0  0  0
   10.0751  -16.6783   27.9813 C   0  0  0  0  0  0  0  0  0  0  0  0
   10.5624  -15.6090   28.5212 O   0  0  0  0  0  0  0  0  0  0  0  0
   10.1462  -17.7749   28.7976 O   0  0  0  0  0  0  0  0  0  0  0  0
  2  4  1  0
  2  1  1  6
  3  2  1  0
  4  5  1  6
  6  7  2  0
  6  4  1  0
  9  8  1  1
  9 11  1  0
 10  9  1  0
 11 12  1  6
 12  6  1  0
 13 23  1  0
 13 11  1  0
 14 13  2  0
 16 15  1  0
 17 16  2  0
 18 16  1  0
 19 20  1  0
 19 18  1  0
 20 21  1  0
 22 23  1  0
 22 21  1  6
 24 22  1  0
 25 24  2  0
 26 24  1  0
M  END
$$$$
