VVR.pdb
     RDKit          3D

 26 25  0  0  1  0  0  0  0  0999 V2000
    5.4961  -21.0188   25.1375 C   0  0  0  0  0  0  0  0  0  0  0  0
    6.2247  -19.7791   24.7020 C   0  0  1  0  0  0  0  0  0  0  0  0
    7.2297  -20.0522   23.6299 C   0  0  0  0  0  0  0  0  0  0  0  0
    5.2453  -18.6829   24.3401 C   0  0  2  0  0  0  0  0  0  0  0  0
    4.3779  -19.0432   23.2595 N   0  0  0  0  0  0  0  0  0  0  0  0
    5.9363  -17.4085   24.0351 C   0  0  0  0  0  0  0  0  0  0  0  0
    6.1386  -17.0719   22.8309 O   0  0  0  0  0  0  0  0  0  0  0  0
    8.0987  -13.2272   25.7342 C   0  0  0  0  0  0  0  0  0  0  0  0
    7.2040  -14.4027   25.8888 C   0  0  1  0  0  0  0  0  0  0  0  0
    5.8235  -13.9589   26.3205 C   0  0  0  0  0  0  0  0  0  0  0  0
    7.1548  -15.2971   24.6706 C   0  0  2  0  0  0  0  0  0  0  0  0
    6.4035  -16.5076   25.0307 N   0  0  0  0  0  0  0  0  0  0  0  0
    8.5399  -15.7289   24.3572 C   0  0  0  0  0  0  0  0  0  0  0  0
    9.0858  -16.6162   25.0968 O   0  0  0  0  0  0  0  0  0  0  0  0
    8.1022  -12.8918   19.3258 N   0  0  0  0  0  0  0  0  0  0  0  0
    8.3848  -13.8636   18.3364 C   0  0  0  0  0  0  0  0  0  0  0  0
    7.8775  -13.6671   17.1627 N   0  0  0  0  0  0  0  0  0  0  0  0
    9.1881  -14.9970   18.6292 N   0  0  0  0  0  0  0  0  0  0  0  0
   10.3954  -14.8709   19.3808 C   0  0  0  0  0  0  0  0  0  0  0  0
   10.2542  -14.5869   20.8168 C   0  0  0  0  0  0  0  0  0  0  0  0
   11.1607  -15.2066   21.7740 C   0  0  0  0  0  0  0  0  0  0  0  0
   10.6499  -15.9455   22.9602 C   0  0  2  0  0  0  0  0  0  0  0  0
    9.3266  -15.2545   23.3069 N   0  0  0  0  0  0  0  0  0  0  0  0
   11.4472  -15.8689   24.2011 C   0  0  0  0  0  0  0  0  0  0  0  0
   12.3966  -16.7224   24.4072 O   0  0  0  0  0  0  0  0  0  0  0  0
   11.3113  -14.9583   25.2142 O   0  0  0  0  0  0  0  0  0  0  0  0
  2  4  1  0
  2  1  1  6
  3  2  1  0
  4  5  1  6
  6  7  2  0
  6  4  1  0
  9  8  1  6
  9 11  1  0
 10  9  1  0
 11 12  1  1
 12  6  1  0
 13 23  1  0
 13 11  1  0
 14 13  2  0
 16 15  1  0
 17 16  2  0
 18 16  1  0
 19 20  1  0
 19 18  1  0
 20 21  1  0
 22 23  1  0
 22 21  1  6
 24 22  1  0
 25 24  2  0
 26 24  1  0
M  END
$$$$
