RVW.pdb
     RDKit          3D

 33 34  0  0  1  0  0  0  0  0999 V2000
   13.4437  -18.5518   14.2330 N   0  0  0  0  0  0  0  0  0  0  0  0
   13.5332  -17.1572   13.9171 C   0  0  0  0  0  0  0  0  0  0  0  0
   14.5578  -16.7713   13.2302 N   0  0  0  0  0  0  0  0  0  0  0  0
   12.5383  -16.2372   14.3409 N   0  0  0  0  0  0  0  0  0  0  0  0
   11.3444  -16.7318   14.9509 C   0  0  0  0  0  0  0  0  0  0  0  0
   11.6260  -17.7447   16.0648 C   0  0  0  0  0  0  0  0  0  0  0  0
   11.4837  -16.9993   17.3646 C   0  0  0  0  0  0  0  0  0  0  0  0
   10.5947  -17.6501   18.3611 C   0  0  2  0  0  0  0  0  0  0  0  0
    9.3663  -18.1652   17.8642 N   0  0  0  0  0  0  0  0  0  0  0  0
   10.3029  -16.6293   19.4237 C   0  0  0  0  0  0  0  0  0  0  0  0
   11.2388  -16.0699   20.0620 O   0  0  0  0  0  0  0  0  0  0  0  0
   14.7465  -15.8002   12.9383 C   0  0  0  0  0  0  0  0  0  0  0  0
    7.2023  -13.7458   22.0392 C   0  0  2  0  0  0  0  0  0  0  0  0
    7.4166  -14.6683   20.8742 C   0  0  0  0  0  0  0  0  0  0  0  0
    7.4445  -13.7751   19.6451 C   0  0  1  0  0  0  0  0  0  0  0  0
    8.6792  -15.4413   20.9262 N   0  0  0  0  0  0  0  0  0  0  0  0
    9.0030  -16.2217   19.7880 C   0  0  0  0  0  0  0  0  0  0  0  0
    8.7588  -16.2248   22.2005 O   0  0  0  0  0  0  0  0  0  0  0  0
    8.4944  -17.4532   22.2408 N   0  0  0  0  0  0  0  0  0  0  0  0
    9.1393  -15.6049   23.4240 C   0  0  2  0  0  0  0  0  0  0  0  0
    9.2397  -16.3606   24.6437 C   0  0  0  0  0  0  0  0  0  0  0  0
    9.1869  -15.5056   25.8706 C   0  0  0  0  0  0  0  0  0  0  0  0
    7.8996  -14.7743   25.9739 C   0  0  0  0  0  0  0  0  0  0  0  0
    6.6174  -15.3066   25.8517 N   0  0  0  0  0  0  0  0  0  0  0  0
    5.7236  -14.3158   26.0083 C   0  0  0  0  0  0  0  0  0  0  0  0
    6.3376  -13.1420   26.2299 C   0  0  0  0  0  0  0  0  0  0  0  0
    5.8954  -11.8499   26.4499 C   0  0  0  0  0  0  0  0  0  0  0  0
    6.7843  -10.8033   26.6552 C   0  0  0  0  0  0  0  0  0  0  0  0
    8.1308  -11.0849   26.6343 C   0  0  0  0  0  0  0  0  0  0  0  0
    8.5606  -12.3912   26.4115 C   0  0  0  0  0  0  0  0  0  0  0  0
    7.6926  -13.4233   26.2092 C   0  0  0  0  0  0  0  0  0  0  0  0
    8.1224  -17.3280   24.6921 O   0  0  0  0  0  0  0  0  0  0  0  0
    8.1489  -18.4551   25.5027 O   0  0  0  0  0  0  0  0  0  0  0  0
  1  2  1  0
  2  3  2  0
  4  2  1  0
  4  5  1  0
  5  6  1  0
  6  7  1  0
  7  8  1  0
  8 10  1  0
  8  9  1  6
 10 11  2  0
 10 16  1  0
 13 12  1  6
 13 15  1  0
 14 13  1  0
 15 17  1  0
 15 16  1  6
 17 18  2  0
 17 19  1  0
 19 20  1  0
 20 21  1  6
 21 22  1  0
 22 30  1  0
 22 23  2  0
 23 24  1  0
 24 25  1  0
 25 26  2  0
 27 26  1  0
 28 27  2  0
 29 30  2  0
 29 28  1  0
 30 25  1  0
 31 20  1  0
 31 32  1  0
 33 31  2  0
M  END
$$$$
