RVW.pdb
     RDKit          3D

 33 34  0  0  1  0  0  0  0  0999 V2000
    7.7059  -15.4459   15.6680 N   0  0  0  0  0  0  0  0  0  0  0  0
    8.8074  -15.6874   14.7842 C   0  0  0  0  0  0  0  0  0  0  0  0
    9.2921  -14.6696   14.1521 N   0  0  0  0  0  0  0  0  0  0  0  0
    9.3442  -16.9902   14.6099 N   0  0  0  0  0  0  0  0  0  0  0  0
    8.8188  -18.0710   15.3830 C   0  0  0  0  0  0  0  0  0  0  0  0
    9.3185  -18.0595   16.8308 C   0  0  0  0  0  0  0  0  0  0  0  0
    8.1038  -18.2337   17.7024 C   0  0  0  0  0  0  0  0  0  0  0  0
    8.3875  -18.2999   19.1591 C   0  0  2  0  0  0  0  0  0  0  0  0
    7.3069  -18.7013   19.9912 N   0  0  0  0  0  0  0  0  0  0  0  0
    8.8479  -16.9336   19.5803 C   0  0  0  0  0  0  0  0  0  0  0  0
    9.9245  -16.4447   19.1353 O   0  0  0  0  0  0  0  0  0  0  0  0
    9.9956  -14.7171   13.3992 C   0  0  0  0  0  0  0  0  0  0  0  0
    6.6411  -13.8930   19.6192 C   0  0  2  0  0  0  0  0  0  0  0  0
    7.6241  -13.7043   20.7383 C   0  0  0  0  0  0  0  0  0  0  0  0
    6.7867  -13.5601   21.9981 C   0  0  2  0  0  0  0  0  0  0  0  0
    8.5682  -14.8307   20.9238 N   0  0  0  0  0  0  0  0  0  0  0  0
    8.1418  -16.1072   20.4789 C   0  0  0  0  0  0  0  0  0  0  0  0
    9.0804  -14.8553   22.3314 O   0  0  0  0  0  0  0  0  0  0  0  0
    9.5796  -13.8364   22.8729 N   0  0  0  0  0  0  0  0  0  0  0  0
    9.0217  -16.0413   23.1161 C   0  0  1  0  0  0  0  0  0  0  0  0
    9.7053  -16.1356   24.3781 C   0  0  0  0  0  0  0  0  0  0  0  0
    8.7931  -16.4670   25.5171 C   0  0  0  0  0  0  0  0  0  0  0  0
    7.7727  -15.4100   25.7273 C   0  0  0  0  0  0  0  0  0  0  0  0
    6.3889  -15.5456   25.6321 N   0  0  0  0  0  0  0  0  0  0  0  0
    5.8212  -14.3563   25.8933 C   0  0  0  0  0  0  0  0  0  0  0  0
    6.7516  -13.4251   26.1598 C   0  0  0  0  0  0  0  0  0  0  0  0
    6.7043  -12.0807   26.4821 C   0  0  0  0  0  0  0  0  0  0  0  0
    7.8612  -11.3479   26.7114 C   0  0  0  0  0  0  0  0  0  0  0  0
    9.0694  -11.9979   26.6092 C   0  0  0  0  0  0  0  0  0  0  0  0
    9.1005  -13.3522   26.2838 C   0  0  0  0  0  0  0  0  0  0  0  0
    7.9680  -14.0772   26.0575 C   0  0  0  0  0  0  0  0  0  0  0  0
   10.7385  -17.1887   24.2769 O   0  0  0  0  0  0  0  0  0  0  0  0
   11.5845  -17.5046   25.3317 O   0  0  0  0  0  0  0  0  0  0  0  0
  1  2  1  0
  2  3  2  0
  4  2  1  0
  4  5  1  0
  5  6  1  0
  6  7  1  0
  7  8  1  0
  8 10  1  0
  8  9  1  1
 10 11  2  0
 10 16  1  0
 13 12  1  6
 13 15  1  0
 14 13  1  0
 15 17  1  0
 15 16  1  6
 17 18  2  0
 17 19  1  0
 19 20  1  0
 20 21  1  1
 21 22  1  0
 22 30  1  0
 22 23  2  0
 23 24  1  0
 24 25  1  0
 25 26  2  0
 27 26  1  0
 28 27  2  0
 29 30  2  0
 29 28  1  0
 30 25  1  0
 31 20  1  0
 31 32  1  0
 33 31  2  0
M  END
$$$$
