RVW.pdb
     RDKit          3D

 33 34  0  0  1  0  0  0  0  0999 V2000
    6.4265  -23.5519   16.6074 N   0  0  0  0  0  0  0  0  0  0  0  0
    6.4773  -22.6957   17.7551 C   0  0  0  0  0  0  0  0  0  0  0  0
    5.8374  -23.0821   18.8095 N   0  0  0  0  0  0  0  0  0  0  0  0
    7.2001  -21.4739   17.7352 N   0  0  0  0  0  0  0  0  0  0  0  0
    7.2555  -20.6760   18.9194 C   0  0  0  0  0  0  0  0  0  0  0  0
    8.6803  -20.5166   19.4583 C   0  0  0  0  0  0  0  0  0  0  0  0
    8.7408  -19.1604   20.1084 C   0  0  0  0  0  0  0  0  0  0  0  0
    8.6825  -18.0147   19.1645 C   0  0  2  0  0  0  0  0  0  0  0  0
    9.4124  -18.1618   17.9534 N   0  0  0  0  0  0  0  0  0  0  0  0
    9.1955  -16.8107   19.9017 C   0  0  0  0  0  0  0  0  0  0  0  0
   10.4228  -16.6912   20.1768 O   0  0  0  0  0  0  0  0  0  0  0  0
    5.7569  -22.5450   19.6864 C   0  0  0  0  0  0  0  0  0  0  0  0
    7.6958  -13.0655   19.2977 C   0  0  2  0  0  0  0  0  0  0  0  0
    8.0469  -13.3294   20.7334 C   0  0  0  0  0  0  0  0  0  0  0  0
    6.7196  -13.4721   21.4595 C   0  0  2  0  0  0  0  0  0  0  0  0
    8.8426  -14.5591   20.9557 N   0  0  0  0  0  0  0  0  0  0  0  0
    8.3785  -15.7463   20.3358 C   0  0  0  0  0  0  0  0  0  0  0  0
    9.1185  -14.7447   22.4164 O   0  0  0  0  0  0  0  0  0  0  0  0
    9.2551  -13.7667   23.1945 N   0  0  0  0  0  0  0  0  0  0  0  0
    9.2379  -16.0443   22.9844 C   0  0  1  0  0  0  0  0  0  0  0  0
    9.4805  -16.2247   24.3906 C   0  0  0  0  0  0  0  0  0  0  0  0
    8.2464  -16.5794   25.1590 C   0  0  0  0  0  0  0  0  0  0  0  0
    7.5009  -15.3697   25.5872 C   0  0  0  0  0  0  0  0  0  0  0  0
    6.2313  -14.9727   25.1714 N   0  0  0  0  0  0  0  0  0  0  0  0
    5.9161  -13.8226   25.7903 C   0  0  0  0  0  0  0  0  0  0  0  0
    6.9084  -13.4235   26.6025 C   0  0  0  0  0  0  0  0  0  0  0  0
    7.0878  -12.3403   27.4439 C   0  0  0  0  0  0  0  0  0  0  0  0
    8.2514  -12.1811   28.1846 C   0  0  0  0  0  0  0  0  0  0  0  0
    9.2330  -13.1370   28.0603 C   0  0  0  0  0  0  0  0  0  0  0  0
    9.0374  -14.2221   27.2088 C   0  0  0  0  0  0  0  0  0  0  0  0
    7.8970  -14.3840   26.4789 C   0  0  0  0  0  0  0  0  0  0  0  0
   10.4731  -17.3072   24.5625 O   0  0  0  0  0  0  0  0  0  0  0  0
   11.0769  -17.5758   25.7837 O   0  0  0  0  0  0  0  0  0  0  0  0
  1  2  1  0
  2  3  2  0
  4  2  1  0
  4  5  1  0
  5  6  1  0
  6  7  1  0
  7  8  1  0
  8 10  1  0
  8  9  1  6
 10 11  2  0
 10 16  1  0
 13 12  1  1
 13 15  1  0
 14 13  1  0
 15 17  1  0
 15 16  1  1
 17 18  2  0
 17 19  1  0
 19 20  1  0
 20 21  1  1
 21 22  1  0
 22 30  1  0
 22 23  2  0
 23 24  1  0
 24 25  1  0
 25 26  2  0
 27 26  1  0
 28 27  2  0
 29 30  2  0
 29 28  1  0
 30 25  1  0
 31 20  1  0
 31 32  1  0
 33 31  2  0
M  END
$$$$
