RVW.pdb
     RDKit          3D

 33 34  0  0  1  0  0  0  0  0999 V2000
    7.2217  -22.1366   16.3908 N   0  0  0  0  0  0  0  0  0  0  0  0
    7.6993  -20.8093   16.1395 C   0  0  0  0  0  0  0  0  0  0  0  0
    8.0434  -20.5248   14.9266 N   0  0  0  0  0  0  0  0  0  0  0  0
    7.7908  -19.8468   17.1792 N   0  0  0  0  0  0  0  0  0  0  0  0
    8.4526  -20.1951   18.3969 C   0  0  0  0  0  0  0  0  0  0  0  0
    9.9781  -20.1194   18.2828 C   0  0  0  0  0  0  0  0  0  0  0  0
   10.4246  -19.0493   19.2425 C   0  0  0  0  0  0  0  0  0  0  0  0
   10.3832  -17.6679   18.6973 C   0  0  2  0  0  0  0  0  0  0  0  0
   11.4843  -17.2803   17.8860 N   0  0  0  0  0  0  0  0  0  0  0  0
   10.2873  -16.7346   19.8703 C   0  0  0  0  0  0  0  0  0  0  0  0
   11.3214  -16.3739   20.5001 O   0  0  0  0  0  0  0  0  0  0  0  0
    7.8746  -21.1242   14.1044 C   0  0  0  0  0  0  0  0  0  0  0  0
    7.4341  -13.6500   20.3593 C   0  0  2  0  0  0  0  0  0  0  0  0
    7.7046  -14.5254   21.5488 C   0  0  0  0  0  0  0  0  0  0  0  0
    6.5262  -15.4816   21.6292 C   0  0  2  0  0  0  0  0  0  0  0  0
    8.9524  -15.3187   21.4573 N   0  0  0  0  0  0  0  0  0  0  0  0
    9.0753  -16.1992   20.3533 C   0  0  0  0  0  0  0  0  0  0  0  0
    9.2382  -15.9935   22.7639 O   0  0  0  0  0  0  0  0  0  0  0  0
    9.3077  -17.2449   22.8622 N   0  0  0  0  0  0  0  0  0  0  0  0
    9.4436  -15.2391   23.9533 C   0  0  2  0  0  0  0  0  0  0  0  0
    9.8012  -15.8794   25.1906 C   0  0  0  0  0  0  0  0  0  0  0  0
    9.5226  -15.0325   26.3924 C   0  0  0  0  0  0  0  0  0  0  0  0
    8.1065  -14.5906   26.4350 C   0  0  0  0  0  0  0  0  0  0  0  0
    6.9717  -15.3888   26.3036 N   0  0  0  0  0  0  0  0  0  0  0  0
    5.8828  -14.6075   26.3984 C   0  0  0  0  0  0  0  0  0  0  0  0
    6.2253  -13.3226   26.5870 C   0  0  0  0  0  0  0  0  0  0  0  0
    5.5112  -12.1483   26.7438 C   0  0  0  0  0  0  0  0  0  0  0  0
    6.1498  -10.9293   26.9279 C   0  0  0  0  0  0  0  0  0  0  0  0
    7.5254  -10.9167   26.9508 C   0  0  0  0  0  0  0  0  0  0  0  0
    8.2304  -12.1077   26.7915 C   0  0  0  0  0  0  0  0  0  0  0  0
    7.6090  -13.3079   26.6104 C   0  0  0  0  0  0  0  0  0  0  0  0
    9.0331  -17.1375   25.3093 O   0  0  0  0  0  0  0  0  0  0  0  0
    9.3903  -18.1465   26.1939 O   0  0  0  0  0  0  0  0  0  0  0  0
  1  2  1  0
  2  3  2  0
  4  2  1  0
  4  5  1  0
  5  6  1  0
  6  7  1  0
  7  8  1  0
  8 10  1  0
  8  9  1  1
 10 11  2  0
 10 16  1  0
 13 12  1  1
 13 15  1  0
 14 13  1  0
 15 17  1  0
 15 16  1  1
 17 18  2  0
 17 19  1  0
 19 20  1  0
 20 21  1  6
 21 22  1  0
 22 30  1  0
 22 23  2  0
 23 24  1  0
 24 25  1  0
 25 26  2  0
 27 26  1  0
 28 27  2  0
 29 30  2  0
 29 28  1  0
 30 25  1  0
 31 20  1  0
 31 32  1  0
 33 31  2  0
M  END
$$$$
