RVW.pdb
     RDKit          3D

 33 34  0  0  1  0  0  0  0  0999 V2000
    5.4698  -20.6085   16.8493 N   0  0  0  0  0  0  0  0  0  0  0  0
    6.0035  -21.9206   17.0644 C   0  0  0  0  0  0  0  0  0  0  0  0
    5.2824  -22.9223   16.6808 N   0  0  0  0  0  0  0  0  0  0  0  0
    7.2715  -22.1128   17.6736 N   0  0  0  0  0  0  0  0  0  0  0  0
    7.9987  -20.9769   18.1457 C   0  0  0  0  0  0  0  0  0  0  0  0
    7.3965  -20.3779   19.4203 C   0  0  0  0  0  0  0  0  0  0  0  0
    8.3327  -19.2849   19.8611 C   0  0  0  0  0  0  0  0  0  0  0  0
    8.5743  -18.2261   18.8473 C   0  0  2  0  0  0  0  0  0  0  0  0
    9.4839  -18.5519   17.8044 N   0  0  0  0  0  0  0  0  0  0  0  0
    9.0853  -17.0205   19.5832 C   0  0  0  0  0  0  0  0  0  0  0  0
   10.3199  -16.8692   19.8046 O   0  0  0  0  0  0  0  0  0  0  0  0
    5.5427  -23.9153   16.7809 C   0  0  0  0  0  0  0  0  0  0  0  0
    6.4525  -13.8943   21.2514 C   0  0  2  0  0  0  0  0  0  0  0  0
    7.7512  -13.6172   20.5507 C   0  0  0  0  0  0  0  0  0  0  0  0
    8.3673  -12.4368   21.2831 C   0  0  1  0  0  0  0  0  0  0  0  0
    8.7141  -14.7428   20.5729 N   0  0  0  0  0  0  0  0  0  0  0  0
    8.2585  -15.9889   20.0741 C   0  0  0  0  0  0  0  0  0  0  0  0
    9.3451  -14.8626   21.9263 O   0  0  0  0  0  0  0  0  0  0  0  0
   10.0916  -13.9643   22.3913 N   0  0  0  0  0  0  0  0  0  0  0  0
    9.1228  -16.0060   22.7443 C   0  0  1  0  0  0  0  0  0  0  0  0
    9.8509  -16.2001   23.9694 C   0  0  0  0  0  0  0  0  0  0  0  0
    9.6485  -15.0925   24.9550 C   0  0  0  0  0  0  0  0  0  0  0  0
    8.2160  -14.9259   25.3055 C   0  0  0  0  0  0  0  0  0  0  0  0
    7.2200  -15.8997   25.2603 N   0  0  0  0  0  0  0  0  0  0  0  0
    6.0601  -15.3473   25.6533 C   0  0  0  0  0  0  0  0  0  0  0  0
    6.2229  -14.0502   25.9613 C   0  0  0  0  0  0  0  0  0  0  0  0
    5.3748  -13.0519   26.4060 C   0  0  0  0  0  0  0  0  0  0  0  0
    5.8337  -11.7641   26.6488 C   0  0  0  0  0  0  0  0  0  0  0  0
    7.1671  -11.5015   26.4342 C   0  0  0  0  0  0  0  0  0  0  0  0
    8.0085  -12.5175   25.9864 C   0  0  0  0  0  0  0  0  0  0  0  0
    7.5638  -13.7840   25.7461 C   0  0  0  0  0  0  0  0  0  0  0  0
    9.4074  -17.4692   24.5853 O   0  0  0  0  0  0  0  0  0  0  0  0
   10.0628  -18.0392   25.6687 O   0  0  0  0  0  0  0  0  0  0  0  0
  1  2  1  0
  2  3  2  0
  4  2  1  0
  4  5  1  0
  5  6  1  0
  6  7  1  0
  7  8  1  0
  8 10  1  0
  8  9  1  6
 10 11  2  0
 10 16  1  0
 13 12  1  6
 13 15  1  0
 14 13  1  0
 15 17  1  0
 15 16  1  6
 17 18  2  0
 17 19  1  0
 19 20  1  0
 20 21  1  1
 21 22  1  0
 22 30  1  0
 22 23  2  0
 23 24  1  0
 24 25  1  0
 25 26  2  0
 27 26  1  0
 28 27  2  0
 29 30  2  0
 29 28  1  0
 30 25  1  0
 31 20  1  0
 31 32  1  0
 33 31  2  0
M  END
$$$$
