RVW.pdb
     RDKit          3D

 33 34  0  0  1  0  0  0  0  0999 V2000
   11.7390  -23.1139   18.1108 N   0  0  0  0  0  0  0  0  0  0  0  0
   10.3221  -23.1580   17.9028 C   0  0  0  0  0  0  0  0  0  0  0  0
    9.8926  -23.8595   16.9059 N   0  0  0  0  0  0  0  0  0  0  0  0
    9.4270  -22.4604   18.7561 N   0  0  0  0  0  0  0  0  0  0  0  0
    9.4828  -21.0335   18.8098 C   0  0  0  0  0  0  0  0  0  0  0  0
   10.7238  -20.5181   19.5448 C   0  0  0  0  0  0  0  0  0  0  0  0
   10.2580  -19.3948   20.4317 C   0  0  0  0  0  0  0  0  0  0  0  0
    9.3640  -18.4097   19.7704 C   0  0  2  0  0  0  0  0  0  0  0  0
    9.4292  -18.3569   18.3512 N   0  0  0  0  0  0  0  0  0  0  0  0
    9.7105  -17.0581   20.3267 C   0  0  0  0  0  0  0  0  0  0  0  0
   10.9138  -16.7210   20.5130 O   0  0  0  0  0  0  0  0  0  0  0  0
    8.9078  -23.9269   16.6066 C   0  0  0  0  0  0  0  0  0  0  0  0
    6.6901  -14.0763   21.6095 C   0  0  2  0  0  0  0  0  0  0  0  0
    7.9917  -13.7458   20.9381 C   0  0  0  0  0  0  0  0  0  0  0  0
    8.4603  -12.4464   21.5716 C   0  0  1  0  0  0  0  0  0  0  0  0
    9.0507  -14.7668   21.1139 N   0  0  0  0  0  0  0  0  0  0  0  0
    8.7546  -16.0824   20.6773 C   0  0  0  0  0  0  0  0  0  0  0  0
    9.5805  -14.7327   22.5147 O   0  0  0  0  0  0  0  0  0  0  0  0
   10.0714  -13.6878   23.0123 N   0  0  0  0  0  0  0  0  0  0  0  0
    9.5487  -15.8899   23.3428 C   0  0  1  0  0  0  0  0  0  0  0  0
   10.0316  -15.8519   24.6971 C   0  0  0  0  0  0  0  0  0  0  0  0
    9.0366  -16.3641   25.6903 C   0  0  0  0  0  0  0  0  0  0  0  0
    7.7931  -15.5539   25.6880 C   0  0  0  0  0  0  0  0  0  0  0  0
    6.5225  -15.9639   25.2886 N   0  0  0  0  0  0  0  0  0  0  0  0
    5.6717  -14.9349   25.4377 C   0  0  0  0  0  0  0  0  0  0  0  0
    6.3038  -13.8513   25.9174 C   0  0  0  0  0  0  0  0  0  0  0  0
    5.9034  -12.5679   26.2431 C   0  0  0  0  0  0  0  0  0  0  0  0
    6.8018  -11.6293   26.7330 C   0  0  0  0  0  0  0  0  0  0  0  0
    8.1146  -12.0103   26.8884 C   0  0  0  0  0  0  0  0  0  0  0  0
    8.5024  -13.3065   26.5560 C   0  0  0  0  0  0  0  0  0  0  0  0
    7.6249  -14.2326   26.0745 C   0  0  0  0  0  0  0  0  0  0  0  0
   11.2557  -16.6770   24.7842 O   0  0  0  0  0  0  0  0  0  0  0  0
   11.7196  -17.4348   23.7171 O   0  0  0  0  0  0  0  0  0  0  0  0
  1  2  1  0
  2  3  2  0
  4  2  1  0
  4  5  1  0
  5  6  1  0
  6  7  1  0
  7  8  1  0
  8 10  1  0
  8  9  1  6
 10 11  2  0
 10 16  1  0
 13 12  1  6
 13 15  1  0
 14 13  1  0
 15 17  1  0
 15 16  1  6
 17 18  2  0
 17 19  1  0
 19 20  1  0
 20 21  1  1
 21 22  1  0
 22 30  1  0
 22 23  2  0
 23 24  1  0
 24 25  1  0
 25 26  2  0
 27 26  1  0
 28 27  2  0
 29 30  2  0
 29 28  1  0
 30 25  1  0
 31 20  1  0
 31 32  1  0
 33 31  2  0
M  END
$$$$
