RVW.pdb
     RDKit          3D

 33 34  0  0  1  0  0  0  0  0999 V2000
    6.2716  -18.7654   17.3400 N   0  0  0  0  0  0  0  0  0  0  0  0
    7.1656  -19.3163   16.3652 C   0  0  0  0  0  0  0  0  0  0  0  0
    6.8288  -19.2016   15.1227 N   0  0  0  0  0  0  0  0  0  0  0  0
    8.3711  -19.9614   16.7480 N   0  0  0  0  0  0  0  0  0  0  0  0
    8.5779  -20.2966   18.1216 C   0  0  0  0  0  0  0  0  0  0  0  0
    9.0246  -19.0964   18.9619 C   0  0  0  0  0  0  0  0  0  0  0  0
   10.4489  -18.8080   18.5698 C   0  0  0  0  0  0  0  0  0  0  0  0
   10.7311  -17.3841   18.2538 C   0  0  2  0  0  0  0  0  0  0  0  0
   12.0331  -17.0970   17.7604 N   0  0  0  0  0  0  0  0  0  0  0  0
   10.5017  -16.5999   19.5142 C   0  0  0  0  0  0  0  0  0  0  0  0
   11.3084  -16.6768   20.4835 O   0  0  0  0  0  0  0  0  0  0  0  0
    7.3712  -19.5640   14.3237 C   0  0  0  0  0  0  0  0  0  0  0  0
    6.6421  -14.8695   21.0343 C   0  0  2  0  0  0  0  0  0  0  0  0
    7.9466  -14.1368   20.9088 C   0  0  0  0  0  0  0  0  0  0  0  0
    8.0188  -13.2201   22.1187 C   0  0  1  0  0  0  0  0  0  0  0  0
    9.1438  -15.0093   20.9041 N   0  0  0  0  0  0  0  0  0  0  0  0
    9.4028  -15.7396   19.7171 C   0  0  0  0  0  0  0  0  0  0  0  0
    9.1626  -15.8754   22.1262 O   0  0  0  0  0  0  0  0  0  0  0  0
    9.0835  -17.1280   22.0521 N   0  0  0  0  0  0  0  0  0  0  0  0
    9.2713  -15.3104   23.4281 C   0  0  2  0  0  0  0  0  0  0  0  0
    9.4504  -16.1403   24.5891 C   0  0  0  0  0  0  0  0  0  0  0  0
    9.3087  -15.3894   25.8756 C   0  0  0  0  0  0  0  0  0  0  0  0
    7.9444  -14.8272   26.0345 C   0  0  0  0  0  0  0  0  0  0  0  0
    6.7367  -15.5200   25.9743 N   0  0  0  0  0  0  0  0  0  0  0  0
    5.7314  -14.6497   26.1669 C   0  0  0  0  0  0  0  0  0  0  0  0
    6.1996  -13.4048   26.3540 C   0  0  0  0  0  0  0  0  0  0  0  0
    5.6061  -12.1774   26.5877 C   0  0  0  0  0  0  0  0  0  0  0  0
    6.3622  -11.0237   26.7465 C   0  0  0  0  0  0  0  0  0  0  0  0
    7.7313  -11.1315   26.6649 C   0  0  0  0  0  0  0  0  0  0  0  0
    8.3142  -12.3746   26.4291 C   0  0  0  0  0  0  0  0  0  0  0  0
    7.5771  -13.5111   26.2723 C   0  0  0  0  0  0  0  0  0  0  0  0
    8.4404  -17.2199   24.5570 O   0  0  0  0  0  0  0  0  0  0  0  0
    8.6305  -18.4357   25.2004 O   0  0  0  0  0  0  0  0  0  0  0  0
  1  2  1  0
  2  3  2  0
  4  2  1  0
  4  5  1  0
  5  6  1  0
  6  7  1  0
  7  8  1  0
  8 10  1  0
  8  9  1  1
 10 11  2  0
 10 16  1  0
 13 12  1  6
 13 15  1  0
 14 13  1  0
 15 17  1  0
 15 16  1  6
 17 18  2  0
 17 19  1  0
 19 20  1  0
 20 21  1  6
 21 22  1  0
 22 30  1  0
 22 23  2  0
 23 24  1  0
 24 25  1  0
 25 26  2  0
 27 26  1  0
 28 27  2  0
 29 30  2  0
 29 28  1  0
 30 25  1  0
 31 20  1  0
 31 32  1  0
 33 31  2  0
M  END
$$$$
