RVW.pdb
     RDKit          3D

 33 34  0  0  1  0  0  0  0  0999 V2000
    8.3290  -11.7987   18.2754 N   0  0  0  0  0  0  0  0  0  0  0  0
    8.4983  -13.2097   18.0928 C   0  0  0  0  0  0  0  0  0  0  0  0
    8.7728  -13.6225   16.8992 N   0  0  0  0  0  0  0  0  0  0  0  0
    8.3698  -14.1167   19.1776 N   0  0  0  0  0  0  0  0  0  0  0  0
    7.1170  -14.7676   19.3988 C   0  0  0  0  0  0  0  0  0  0  0  0
    6.5236  -14.4546   20.7757 C   0  0  0  0  0  0  0  0  0  0  0  0
    7.3874  -15.1645   21.7834 C   0  0  0  0  0  0  0  0  0  0  0  0
    7.4641  -16.6378   21.6091 C   0  0  2  0  0  0  0  0  0  0  0  0
    6.2261  -17.3366   21.6231 N   0  0  0  0  0  0  0  0  0  0  0  0
    8.3368  -17.1665   22.7115 C   0  0  0  0  0  0  0  0  0  0  0  0
    7.8327  -17.6506   23.7640 O   0  0  0  0  0  0  0  0  0  0  0  0
    8.9016  -14.6087   16.6261 C   0  0  0  0  0  0  0  0  0  0  0  0
   12.7544  -18.8017   24.3139 C   0  0  1  0  0  0  0  0  0  0  0  0
   11.9670  -18.0763   23.2612 C   0  0  0  0  0  0  0  0  0  0  0  0
   11.8732  -19.0362   22.0868 C   0  0  1  0  0  0  0  0  0  0  0  0
   10.5955  -17.6960   23.6722 N   0  0  0  0  0  0  0  0  0  0  0  0
    9.7463  -17.1674   22.6679 C   0  0  0  0  0  0  0  0  0  0  0  0
   10.6381  -16.8365   24.8984 O   0  0  0  0  0  0  0  0  0  0  0  0
   11.1038  -15.6690   24.8735 N   0  0  0  0  0  0  0  0  0  0  0  0
   10.1499  -17.3112   26.1483 C   0  0  1  0  0  0  0  0  0  0  0  0
   10.3118  -16.5426   27.3532 C   0  0  0  0  0  0  0  0  0  0  0  0
    9.0255  -16.3173   28.0837 C   0  0  0  0  0  0  0  0  0  0  0  0
    7.9984  -15.7009   27.2074 C   0  0  0  0  0  0  0  0  0  0  0  0
    7.0347  -16.3613   26.4476 N   0  0  0  0  0  0  0  0  0  0  0  0
    6.2997  -15.4455   25.7948 C   0  0  0  0  0  0  0  0  0  0  0  0
    6.7187  -14.2007   26.0756 C   0  0  0  0  0  0  0  0  0  0  0  0
    6.3177  -12.9372   25.6802 C   0  0  0  0  0  0  0  0  0  0  0  0
    6.9543  -11.7945   26.1460 C   0  0  0  0  0  0  0  0  0  0  0  0
    8.0054  -11.9505   27.0199 C   0  0  0  0  0  0  0  0  0  0  0  0
    8.3974  -13.2296   27.4087 C   0  0  0  0  0  0  0  0  0  0  0  0
    7.7762  -14.3555   26.9548 C   0  0  0  0  0  0  0  0  0  0  0  0
   11.2453  -17.2601   28.2480 O   0  0  0  0  0  0  0  0  0  0  0  0
   11.7459  -16.6910   29.4114 O   0  0  0  0  0  0  0  0  0  0  0  0
  1  2  1  0
  2  3  2  0
  4  2  1  0
  4  5  1  0
  5  6  1  0
  6  7  1  0
  7  8  1  0
  8 10  1  0
  8  9  1  1
 10 11  2  0
 10 16  1  0
 13 12  1  6
 13 15  1  0
 14 13  1  0
 15 17  1  0
 15 16  1  6
 17 18  2  0
 17 19  1  0
 19 20  1  0
 20 21  1  1
 21 22  1  0
 22 30  1  0
 22 23  2  0
 23 24  1  0
 24 25  1  0
 25 26  2  0
 27 26  1  0
 28 27  2  0
 29 30  2  0
 29 28  1  0
 30 25  1  0
 31 20  1  0
 31 32  1  0
 33 31  2  0
M  END
$$$$
