RVW.pdb
     RDKit          3D

 33 34  0  0  1  0  0  0  0  0999 V2000
    8.2123  -15.5846   14.5575 N   0  0  0  0  0  0  0  0  0  0  0  0
    9.5306  -15.1004   14.8410 C   0  0  0  0  0  0  0  0  0  0  0  0
   10.4024  -15.1678   13.8892 N   0  0  0  0  0  0  0  0  0  0  0  0
    9.8656  -14.5687   16.1141 N   0  0  0  0  0  0  0  0  0  0  0  0
    8.9768  -14.7768   17.2135 C   0  0  0  0  0  0  0  0  0  0  0  0
    8.4886  -13.4649   17.8352 C   0  0  0  0  0  0  0  0  0  0  0  0
    8.1908  -13.7629   19.2802 C   0  0  0  0  0  0  0  0  0  0  0  0
    7.0663  -14.7081   19.5016 C   0  0  2  0  0  0  0  0  0  0  0  0
    5.7613  -14.1441   19.4921 N   0  0  0  0  0  0  0  0  0  0  0  0
    7.3032  -15.3707   20.8286 C   0  0  0  0  0  0  0  0  0  0  0  0
    6.9201  -14.8284   21.9035 O   0  0  0  0  0  0  0  0  0  0  0  0
   11.4086  -14.9640   13.9889 C   0  0  0  0  0  0  0  0  0  0  0  0
    7.8936  -19.5722   23.3710 C   0  0  1  0  0  0  0  0  0  0  0  0
    7.8865  -18.8360   22.0625 C   0  0  0  0  0  0  0  0  0  0  0  0
    6.5507  -19.1636   21.4162 C   0  0  1  0  0  0  0  0  0  0  0  0
    8.0050  -17.3644   22.1844 N   0  0  0  0  0  0  0  0  0  0  0  0
    7.9521  -16.6132   20.9835 C   0  0  0  0  0  0  0  0  0  0  0  0
    9.1849  -17.0049   23.0345 O   0  0  0  0  0  0  0  0  0  0  0  0
   10.3641  -17.1192   22.6139 N   0  0  0  0  0  0  0  0  0  0  0  0
    9.0160  -16.5168   24.3608 C   0  0  1  0  0  0  0  0  0  0  0  0
   10.1470  -16.2669   25.2136 C   0  0  0  0  0  0  0  0  0  0  0  0
    9.9251  -15.1352   26.1672 C   0  0  0  0  0  0  0  0  0  0  0  0
    8.4851  -14.7986   26.2926 C   0  0  0  0  0  0  0  0  0  0  0  0
    7.4465  -15.6612   26.6382 N   0  0  0  0  0  0  0  0  0  0  0  0
    6.2949  -14.9691   26.6394 C   0  0  0  0  0  0  0  0  0  0  0  0
    6.5039  -13.6834   26.3121 C   0  0  0  0  0  0  0  0  0  0  0  0
    5.6824  -12.5793   26.1717 C   0  0  0  0  0  0  0  0  0  0  0  0
    6.1898  -11.3377   25.8130 C   0  0  0  0  0  0  0  0  0  0  0  0
    7.5445  -11.2302   25.5980 C   0  0  0  0  0  0  0  0  0  0  0  0
    8.3587  -12.3513   25.7434 C   0  0  0  0  0  0  0  0  0  0  0  0
    7.8663  -13.5732   26.0954 C   0  0  0  0  0  0  0  0  0  0  0  0
   10.4311  -17.4924   25.9908 O   0  0  0  0  0  0  0  0  0  0  0  0
   11.6459  -17.7034   26.6294 O   0  0  0  0  0  0  0  0  0  0  0  0
  1  2  1  0
  2  3  2  0
  4  2  1  0
  4  5  1  0
  5  6  1  0
  6  7  1  0
  7  8  1  0
  8 10  1  0
  8  9  1  1
 10 11  2  0
 10 16  1  0
 13 12  1  6
 13 15  1  0
 14 13  1  0
 15 17  1  0
 15 16  1  6
 17 18  2  0
 17 19  1  0
 19 20  1  0
 20 21  1  1
 21 22  1  0
 22 30  1  0
 22 23  2  0
 23 24  1  0
 24 25  1  0
 25 26  2  0
 27 26  1  0
 28 27  2  0
 29 30  2  0
 29 28  1  0
 30 25  1  0
 31 20  1  0
 31 32  1  0
 33 31  2  0
M  END
$$$$
