RVW.pdb
     RDKit          3D

 33 34  0  0  1  0  0  0  0  0999 V2000
   14.0734  -20.8191   17.6911 N   0  0  0  0  0  0  0  0  0  0  0  0
   13.9758  -20.7486   16.2634 C   0  0  0  0  0  0  0  0  0  0  0  0
   14.4561  -21.7406   15.5884 N   0  0  0  0  0  0  0  0  0  0  0  0
   13.3766  -19.6355   15.6169 N   0  0  0  0  0  0  0  0  0  0  0  0
   12.8063  -18.5918   16.4090 C   0  0  0  0  0  0  0  0  0  0  0  0
   12.6110  -19.0001   17.8723 C   0  0  0  0  0  0  0  0  0  0  0  0
   12.1391  -17.7693   18.5989 C   0  0  0  0  0  0  0  0  0  0  0  0
   10.6646  -17.5911   18.6285 C   0  0  2  0  0  0  0  0  0  0  0  0
   10.0663  -17.1114   17.4314 N   0  0  0  0  0  0  0  0  0  0  0  0
   10.3593  -16.6343   19.7454 C   0  0  0  0  0  0  0  0  0  0  0  0
   11.2705  -15.9307   20.2658 O   0  0  0  0  0  0  0  0  0  0  0  0
   14.4901  -21.7985   14.5591 C   0  0  0  0  0  0  0  0  0  0  0  0
    7.2417  -13.8277   22.3446 C   0  0  2  0  0  0  0  0  0  0  0  0
    7.4384  -14.8933   21.3052 C   0  0  0  0  0  0  0  0  0  0  0  0
    7.3065  -14.1875   19.9659 C   0  0  1  0  0  0  0  0  0  0  0  0
    8.7568  -15.5669   21.3573 N   0  0  0  0  0  0  0  0  0  0  0  0
    9.0726  -16.4459   20.2910 C   0  0  0  0  0  0  0  0  0  0  0  0
    8.9686  -16.1952   22.7006 O   0  0  0  0  0  0  0  0  0  0  0  0
    8.5331  -17.3431   22.9714 N   0  0  0  0  0  0  0  0  0  0  0  0
    9.6758  -15.5126   23.7300 C   0  0  2  0  0  0  0  0  0  0  0  0
    9.8247  -16.0869   25.0403 C   0  0  0  0  0  0  0  0  0  0  0  0
    9.5579  -15.1114   26.1432 C   0  0  0  0  0  0  0  0  0  0  0  0
    8.1906  -14.5416   26.0519 C   0  0  0  0  0  0  0  0  0  0  0  0
    7.0015  -15.2374   25.8414 N   0  0  0  0  0  0  0  0  0  0  0  0
    5.9861  -14.3578   25.8224 C   0  0  0  0  0  0  0  0  0  0  0  0
    6.4296  -13.1040   26.0093 C   0  0  0  0  0  0  0  0  0  0  0  0
    5.8173  -11.8654   26.0754 C   0  0  0  0  0  0  0  0  0  0  0  0
    6.5489  -10.7040   26.2852 C   0  0  0  0  0  0  0  0  0  0  0  0
    7.9128  -10.8157   26.4273 C   0  0  0  0  0  0  0  0  0  0  0  0
    8.5147  -12.0701   26.3584 C   0  0  0  0  0  0  0  0  0  0  0  0
    7.8017  -13.2142   26.1526 C   0  0  0  0  0  0  0  0  0  0  0  0
    8.8805  -17.2177   25.1693 O   0  0  0  0  0  0  0  0  0  0  0  0
    9.0488  -18.2235   26.1117 O   0  0  0  0  0  0  0  0  0  0  0  0
  1  2  1  0
  2  3  2  0
  4  2  1  0
  4  5  1  0
  5  6  1  0
  6  7  1  0
  7  8  1  0
  8 10  1  0
  8  9  1  6
 10 11  2  0
 10 16  1  0
 13 12  1  1
 13 15  1  0
 14 13  1  0
 15 17  1  0
 15 16  1  1
 17 18  2  0
 17 19  1  0
 19 20  1  0
 20 21  1  6
 21 22  1  0
 22 30  1  0
 22 23  2  0
 23 24  1  0
 24 25  1  0
 25 26  2  0
 27 26  1  0
 28 27  2  0
 29 30  2  0
 29 28  1  0
 30 25  1  0
 31 20  1  0
 31 32  1  0
 33 31  2  0
M  END
$$$$
