RVW.pdb
     RDKit          3D

 33 34  0  0  1  0  0  0  0  0999 V2000
    7.8327  -22.0965   16.9415 N   0  0  0  0  0  0  0  0  0  0  0  0
    8.8915  -22.3064   15.9993 C   0  0  0  0  0  0  0  0  0  0  0  0
    8.5894  -22.9054   14.8946 N   0  0  0  0  0  0  0  0  0  0  0  0
   10.2171  -21.8746   16.2678 N   0  0  0  0  0  0  0  0  0  0  0  0
   10.4806  -21.1269   17.4567 C   0  0  0  0  0  0  0  0  0  0  0  0
    9.6294  -19.8575   17.5571 C   0  0  0  0  0  0  0  0  0  0  0  0
   10.0588  -19.1551   18.8172 C   0  0  0  0  0  0  0  0  0  0  0  0
    8.9528  -18.5362   19.5923 C   0  0  2  0  0  0  0  0  0  0  0  0
    7.6992  -18.4395   18.9289 N   0  0  0  0  0  0  0  0  0  0  0  0
    9.4067  -17.1589   19.9838 C   0  0  0  0  0  0  0  0  0  0  0  0
   10.5948  -16.7827   19.7762 O   0  0  0  0  0  0  0  0  0  0  0  0
    9.2349  -23.0563   14.1043 C   0  0  0  0  0  0  0  0  0  0  0  0
    6.5867  -14.2791   20.5301 C   0  0  2  0  0  0  0  0  0  0  0  0
    7.9837  -13.8099   20.8176 C   0  0  0  0  0  0  0  0  0  0  0  0
    7.8933  -13.0291   22.1182 C   0  0  2  0  0  0  0  0  0  0  0  0
    8.9750  -14.8977   20.9867 N   0  0  0  0  0  0  0  0  0  0  0  0
    8.5737  -16.2000   20.5964 C   0  0  0  0  0  0  0  0  0  0  0  0
    9.5540  -14.8656   22.3680 O   0  0  0  0  0  0  0  0  0  0  0  0
   10.1795  -13.8648   22.8012 N   0  0  0  0  0  0  0  0  0  0  0  0
    9.4178  -15.9744   23.2499 C   0  0  1  0  0  0  0  0  0  0  0  0
   10.1073  -16.0134   24.5116 C   0  0  0  0  0  0  0  0  0  0  0  0
    9.7384  -14.8815   25.4181 C   0  0  0  0  0  0  0  0  0  0  0  0
    8.2677  -14.7659   25.5797 C   0  0  0  0  0  0  0  0  0  0  0  0
    7.3189  -15.7689   25.3896 N   0  0  0  0  0  0  0  0  0  0  0  0
    6.0999  -15.2600   25.6349 C   0  0  0  0  0  0  0  0  0  0  0  0
    6.1780  -13.9646   25.9807 C   0  0  0  0  0  0  0  0  0  0  0  0
    5.2465  -13.0015   26.3246 C   0  0  0  0  0  0  0  0  0  0  0  0
    5.6269  -11.7050   26.6446 C   0  0  0  0  0  0  0  0  0  0  0  0
    6.9674  -11.3974   26.6110 C   0  0  0  0  0  0  0  0  0  0  0  0
    7.8934  -12.3782   26.2627 C   0  0  0  0  0  0  0  0  0  0  0  0
    7.5261  -13.6531   25.9475 C   0  0  0  0  0  0  0  0  0  0  0  0
    9.7811  -17.2875   25.1877 O   0  0  0  0  0  0  0  0  0  0  0  0
   10.4189  -17.6966   26.3513 O   0  0  0  0  0  0  0  0  0  0  0  0
  1  2  1  0
  2  3  2  0
  4  2  1  0
  4  5  1  0
  5  6  1  0
  6  7  1  0
  7  8  1  0
  8 10  1  0
  8  9  1  6
 10 11  2  0
 10 16  1  0
 13 12  1  6
 13 15  1  0
 14 13  1  0
 15 17  1  0
 15 16  1  6
 17 18  2  0
 17 19  1  0
 19 20  1  0
 20 21  1  1
 21 22  1  0
 22 30  1  0
 22 23  2  0
 23 24  1  0
 24 25  1  0
 25 26  2  0
 27 26  1  0
 28 27  2  0
 29 30  2  0
 29 28  1  0
 30 25  1  0
 31 20  1  0
 31 32  1  0
 33 31  2  0
M  END
$$$$
