RVW.pdb
     RDKit          3D

 33 34  0  0  1  0  0  0  0  0999 V2000
   14.8868  -13.4958   19.3183 N   0  0  0  0  0  0  0  0  0  0  0  0
   14.3322  -14.6320   18.6443 C   0  0  0  0  0  0  0  0  0  0  0  0
   14.7496  -14.8693   17.4443 N   0  0  0  0  0  0  0  0  0  0  0  0
   13.3645  -15.4627   19.2683 N   0  0  0  0  0  0  0  0  0  0  0  0
   11.9781  -15.2410   19.0021 C   0  0  0  0  0  0  0  0  0  0  0  0
   11.4388  -13.9820   19.6877 C   0  0  0  0  0  0  0  0  0  0  0  0
   10.3140  -13.4757   18.8251 C   0  0  0  0  0  0  0  0  0  0  0  0
    9.2644  -14.4811   18.5180 C   0  0  2  0  0  0  0  0  0  0  0  0
    8.2691  -14.0838   17.5839 N   0  0  0  0  0  0  0  0  0  0  0  0
    8.6012  -14.8362   19.8181 C   0  0  0  0  0  0  0  0  0  0  0  0
    8.0388  -13.9518   20.5236 O   0  0  0  0  0  0  0  0  0  0  0  0
   14.4980  -15.6949   16.8796 C   0  0  0  0  0  0  0  0  0  0  0  0
    6.3513  -17.8867   20.3381 C   0  0  2  0  0  0  0  0  0  0  0  0
    7.0609  -17.6333   21.6367 C   0  0  0  0  0  0  0  0  0  0  0  0
    7.8367  -18.9058   21.9339 C   0  0  2  0  0  0  0  0  0  0  0  0
    8.0103  -16.4964   21.6069 N   0  0  0  0  0  0  0  0  0  0  0  0
    8.5514  -16.1433   20.3453 C   0  0  0  0  0  0  0  0  0  0  0  0
    9.0659  -16.6709   22.6554 O   0  0  0  0  0  0  0  0  0  0  0  0
   10.0997  -17.3553   22.4475 N   0  0  0  0  0  0  0  0  0  0  0  0
    8.9387  -16.0647   23.9369 C   0  0  1  0  0  0  0  0  0  0  0  0
    9.9619  -16.2124   24.9370 C   0  0  0  0  0  0  0  0  0  0  0  0
    9.9508  -15.1159   25.9553 C   0  0  0  0  0  0  0  0  0  0  0  0
    8.5722  -14.6441   26.2375 C   0  0  0  0  0  0  0  0  0  0  0  0
    7.4606  -15.4276   26.5421 N   0  0  0  0  0  0  0  0  0  0  0  0
    6.4030  -14.6201   26.7276 C   0  0  0  0  0  0  0  0  0  0  0  0
    6.7445  -13.3316   26.5636 C   0  0  0  0  0  0  0  0  0  0  0  0
    6.0548  -12.1349   26.6398 C   0  0  0  0  0  0  0  0  0  0  0  0
    6.6849  -10.9181   26.4155 C   0  0  0  0  0  0  0  0  0  0  0  0
    8.0267  -10.9309   26.1121 C   0  0  0  0  0  0  0  0  0  0  0  0
    8.7075  -12.1442   26.0390 C   0  0  0  0  0  0  0  0  0  0  0  0
    8.0944  -13.3423   26.2583 C   0  0  0  0  0  0  0  0  0  0  0  0
    9.7615  -17.5037   25.6292 O   0  0  0  0  0  0  0  0  0  0  0  0
   10.7221  -18.0562   26.4659 O   0  0  0  0  0  0  0  0  0  0  0  0
  1  2  1  0
  2  3  2  0
  4  2  1  0
  4  5  1  0
  5  6  1  0
  6  7  1  0
  7  8  1  0
  8 10  1  0
  8  9  1  6
 10 11  2  0
 10 16  1  0
 13 12  1  1
 13 15  1  0
 14 13  1  0
 15 17  1  0
 15 16  1  1
 17 18  2  0
 17 19  1  0
 19 20  1  0
 20 21  1  1
 21 22  1  0
 22 30  1  0
 22 23  2  0
 23 24  1  0
 24 25  1  0
 25 26  2  0
 27 26  1  0
 28 27  2  0
 29 30  2  0
 29 28  1  0
 30 25  1  0
 31 20  1  0
 31 32  1  0
 33 31  2  0
M  END
$$$$
