RVW.pdb
     RDKit          3D

 33 34  0  0  1  0  0  0  0  0999 V2000
    5.3171  -22.2088   18.1542 N   0  0  0  0  0  0  0  0  0  0  0  0
    6.4507  -21.6751   17.4593 C   0  0  0  0  0  0  0  0  0  0  0  0
    6.3919  -21.6444   16.1685 N   0  0  0  0  0  0  0  0  0  0  0  0
    7.5910  -21.1999   18.1590 N   0  0  0  0  0  0  0  0  0  0  0  0
    7.4543  -20.7926   19.5219 C   0  0  0  0  0  0  0  0  0  0  0  0
    8.7834  -20.3531   20.1433 C   0  0  0  0  0  0  0  0  0  0  0  0
    8.6097  -18.9135   20.5471 C   0  0  0  0  0  0  0  0  0  0  0  0
    9.0561  -17.9245   19.5324 C   0  0  2  0  0  0  0  0  0  0  0  0
   10.1787  -18.2975   18.7440 N   0  0  0  0  0  0  0  0  0  0  0  0
    9.3748  -16.6537   20.2670 C   0  0  0  0  0  0  0  0  0  0  0  0
   10.5570  -16.3893   20.6257 O   0  0  0  0  0  0  0  0  0  0  0  0
    5.5716  -21.9133   15.6040 C   0  0  0  0  0  0  0  0  0  0  0  0
    7.5264  -13.0049   19.5766 C   0  0  2  0  0  0  0  0  0  0  0  0
    7.7455  -13.3365   21.0245 C   0  0  0  0  0  0  0  0  0  0  0  0
    6.3809  -13.7303   21.5648 C   0  0  2  0  0  0  0  0  0  0  0  0
    8.6894  -14.4531   21.2634 N   0  0  0  0  0  0  0  0  0  0  0  0
    8.4139  -15.6795   20.6084 C   0  0  0  0  0  0  0  0  0  0  0  0
    8.9290  -14.6280   22.7318 O   0  0  0  0  0  0  0  0  0  0  0  0
    8.9854  -13.6467   23.5156 N   0  0  0  0  0  0  0  0  0  0  0  0
    9.1036  -15.9209   23.3009 C   0  0  1  0  0  0  0  0  0  0  0  0
    9.4880  -16.0847   24.6772 C   0  0  0  0  0  0  0  0  0  0  0  0
    8.3436  -16.4562   25.5667 C   0  0  0  0  0  0  0  0  0  0  0  0
    7.3867  -15.3331   25.7264 C   0  0  0  0  0  0  0  0  0  0  0  0
    6.0316  -15.3295   25.4005 N   0  0  0  0  0  0  0  0  0  0  0  0
    5.5214  -14.1222   25.6958 C   0  0  0  0  0  0  0  0  0  0  0  0
    6.4634  -13.3110   26.2043 C   0  0  0  0  0  0  0  0  0  0  0  0
    6.4666  -12.0043   26.6583 C   0  0  0  0  0  0  0  0  0  0  0  0
    7.6221  -11.4075   27.1444 C   0  0  0  0  0  0  0  0  0  0  0  0
    8.7770  -12.1549   27.1641 C   0  0  0  0  0  0  0  0  0  0  0  0
    8.7577  -13.4695   26.7036 C   0  0  0  0  0  0  0  0  0  0  0  0
    7.6262  -14.0613   26.2250 C   0  0  0  0  0  0  0  0  0  0  0  0
   10.5140  -17.1467   24.7567 O   0  0  0  0  0  0  0  0  0  0  0  0
   11.1504  -17.4787   25.9454 O   0  0  0  0  0  0  0  0  0  0  0  0
  1  2  1  0
  2  3  2  0
  4  2  1  0
  4  5  1  0
  5  6  1  0
  6  7  1  0
  7  8  1  0
  8 10  1  0
  8  9  1  1
 10 11  2  0
 10 16  1  0
 13 12  1  1
 13 15  1  0
 14 13  1  0
 15 17  1  0
 15 16  1  1
 17 18  2  0
 17 19  1  0
 19 20  1  0
 20 21  1  1
 21 22  1  0
 22 30  1  0
 22 23  2  0
 23 24  1  0
 24 25  1  0
 25 26  2  0
 27 26  1  0
 28 27  2  0
 29 30  2  0
 29 28  1  0
 30 25  1  0
 31 20  1  0
 31 32  1  0
 33 31  2  0
M  END
$$$$
