RVW.pdb
     RDKit          3D

 33 34  0  0  1  0  0  0  0  0999 V2000
    9.5035  -14.9280   16.2798 N   0  0  0  0  0  0  0  0  0  0  0  0
    8.2869  -14.3312   15.8144 C   0  0  0  0  0  0  0  0  0  0  0  0
    7.9669  -14.5290   14.5779 N   0  0  0  0  0  0  0  0  0  0  0  0
    7.4671  -13.5550   16.6753 N   0  0  0  0  0  0  0  0  0  0  0  0
    7.0315  -14.1142   17.9161 C   0  0  0  0  0  0  0  0  0  0  0  0
    7.9188  -13.7010   19.0942 C   0  0  0  0  0  0  0  0  0  0  0  0
    7.2132  -14.1619   20.3413 C   0  0  0  0  0  0  0  0  0  0  0  0
    7.1978  -15.6341   20.5396 C   0  0  2  0  0  0  0  0  0  0  0  0
    6.0969  -16.3321   19.9724 N   0  0  0  0  0  0  0  0  0  0  0  0
    7.2214  -15.8789   22.0214 C   0  0  0  0  0  0  0  0  0  0  0  0
    6.5178  -15.1826   22.8064 O   0  0  0  0  0  0  0  0  0  0  0  0
    7.1426  -14.1274   14.1055 C   0  0  0  0  0  0  0  0  0  0  0  0
    6.2236  -18.9745   23.7636 C   0  0  2  0  0  0  0  0  0  0  0  0
    7.5267  -18.5610   24.3841 C   0  0  0  0  0  0  0  0  0  0  0  0
    8.5553  -19.5586   23.8782 C   0  0  2  0  0  0  0  0  0  0  0  0
    7.9740  -17.1957   24.0226 N   0  0  0  0  0  0  0  0  0  0  0  0
    8.0049  -16.8733   22.6426 C   0  0  0  0  0  0  0  0  0  0  0  0
    9.2597  -16.8671   24.7176 O   0  0  0  0  0  0  0  0  0  0  0  0
   10.3723  -16.9881   24.1449 N   0  0  0  0  0  0  0  0  0  0  0  0
    9.2722  -16.4020   26.0627 C   0  0  1  0  0  0  0  0  0  0  0  0
   10.5067  -16.1021   26.7372 C   0  0  0  0  0  0  0  0  0  0  0  0
   10.5838  -14.6880   27.2204 C   0  0  0  0  0  0  0  0  0  0  0  0
    9.2443  -14.1562   27.5747 C   0  0  0  0  0  0  0  0  0  0  0  0
    8.5578  -14.3365   28.7741 N   0  0  0  0  0  0  0  0  0  0  0  0
    7.3791  -13.6965   28.6954 C   0  0  0  0  0  0  0  0  0  0  0  0
    7.2355  -13.0936   27.5039 C   0  0  0  0  0  0  0  0  0  0  0  0
    6.2401  -12.3259   26.9265 C   0  0  0  0  0  0  0  0  0  0  0  0
    6.3679  -11.8196   25.6400 C   0  0  0  0  0  0  0  0  0  0  0  0
    7.5209  -12.1029   24.9450 C   0  0  0  0  0  0  0  0  0  0  0  0
    8.5143  -12.8775   25.5402 C   0  0  0  0  0  0  0  0  0  0  0  0
    8.3947  -13.3774   26.8032 C   0  0  0  0  0  0  0  0  0  0  0  0
   10.6413  -17.0076   27.8985 O   0  0  0  0  0  0  0  0  0  0  0  0
   11.8083  -17.0896   28.6465 O   0  0  0  0  0  0  0  0  0  0  0  0
  1  2  1  0
  2  3  2  0
  4  2  1  0
  4  5  1  0
  5  6  1  0
  6  7  1  0
  7  8  1  0
  8 10  1  0
  8  9  1  1
 10 11  2  0
 10 16  1  0
 13 12  1  1
 13 15  1  0
 14 13  1  0
 15 17  1  0
 15 16  1  1
 17 18  2  0
 17 19  1  0
 19 20  1  0
 20 21  1  1
 21 22  1  0
 22 30  1  0
 22 23  2  0
 23 24  1  0
 24 25  1  0
 25 26  2  0
 27 26  1  0
 28 27  2  0
 29 30  2  0
 29 28  1  0
 30 25  1  0
 31 20  1  0
 31 32  1  0
 33 31  2  0
M  END
$$$$
