RVW.pdb
     RDKit          3D

 33 34  0  0  1  0  0  0  0  0999 V2000
   11.5191  -21.2635   15.4205 N   0  0  0  0  0  0  0  0  0  0  0  0
   12.2914  -22.1188   16.2718 C   0  0  0  0  0  0  0  0  0  0  0  0
   12.6595  -23.2590   15.7870 N   0  0  0  0  0  0  0  0  0  0  0  0
   12.6380  -21.7304   17.5927 N   0  0  0  0  0  0  0  0  0  0  0  0
   12.2994  -20.4183   18.0462 C   0  0  0  0  0  0  0  0  0  0  0  0
   10.7993  -20.2518   18.3064 C   0  0  0  0  0  0  0  0  0  0  0  0
   10.6118  -18.8582   18.8430 C   0  0  0  0  0  0  0  0  0  0  0  0
    9.1968  -18.4569   19.0519 C   0  0  2  0  0  0  0  0  0  0  0  0
    8.3540  -18.5106   17.9082 N   0  0  0  0  0  0  0  0  0  0  0  0
    9.2116  -17.0520   19.5831 C   0  0  0  0  0  0  0  0  0  0  0  0
    9.3975  -16.0679   18.8130 O   0  0  0  0  0  0  0  0  0  0  0  0
   13.2251  -23.9626   16.2860 C   0  0  0  0  0  0  0  0  0  0  0  0
    7.2226  -13.5288   21.9472 C   0  0  2  0  0  0  0  0  0  0  0  0
    7.3947  -14.9394   21.4624 C   0  0  0  0  0  0  0  0  0  0  0  0
    6.8574  -14.9518   20.0410 C   0  0  1  0  0  0  0  0  0  0  0  0
    8.7973  -15.4158   21.4423 N   0  0  0  0  0  0  0  0  0  0  0  0
    9.0258  -16.7220   20.9416 C   0  0  0  0  0  0  0  0  0  0  0  0
    9.4435  -15.1910   22.7750 O   0  0  0  0  0  0  0  0  0  0  0  0
   10.2808  -14.2714   22.9588 N   0  0  0  0  0  0  0  0  0  0  0  0
    9.1328  -16.0154   23.8929 C   0  0  1  0  0  0  0  0  0  0  0  0
    9.8477  -15.8894   25.1346 C   0  0  0  0  0  0  0  0  0  0  0  0
    8.9639  -16.0090   26.3361 C   0  0  0  0  0  0  0  0  0  0  0  0
    7.7759  -15.1256   26.2327 C   0  0  0  0  0  0  0  0  0  0  0  0
    6.4660  -15.5070   25.9480 N   0  0  0  0  0  0  0  0  0  0  0  0
    5.6898  -14.4104   25.9443 C   0  0  0  0  0  0  0  0  0  0  0  0
    6.4095  -13.3084   26.2119 C   0  0  0  0  0  0  0  0  0  0  0  0
    6.1059  -11.9636   26.3249 C   0  0  0  0  0  0  0  0  0  0  0  0
    7.0822  -11.0212   26.6194 C   0  0  0  0  0  0  0  0  0  0  0  0
    8.3732  -11.4616   26.7981 C   0  0  0  0  0  0  0  0  0  0  0  0
    8.6631  -12.8192   26.6810 C   0  0  0  0  0  0  0  0  0  0  0  0
    7.7088  -13.7495   26.3921 C   0  0  0  0  0  0  0  0  0  0  0  0
   10.8765  -16.9499   25.1958 O   0  0  0  0  0  0  0  0  0  0  0  0
   11.8080  -17.0242   26.2229 O   0  0  0  0  0  0  0  0  0  0  0  0
  1  2  1  0
  2  3  2  0
  4  2  1  0
  4  5  1  0
  5  6  1  0
  6  7  1  0
  7  8  1  0
  8 10  1  0
  8  9  1  6
 10 11  2  0
 10 16  1  0
 13 12  1  1
 13 15  1  0
 14 13  1  0
 15 17  1  0
 15 16  1  1
 17 18  2  0
 17 19  1  0
 19 20  1  0
 20 21  1  1
 21 22  1  0
 22 30  1  0
 22 23  2  0
 23 24  1  0
 24 25  1  0
 25 26  2  0
 27 26  1  0
 28 27  2  0
 29 30  2  0
 29 28  1  0
 30 25  1  0
 31 20  1  0
 31 32  1  0
 33 31  2  0
M  END
$$$$
