RVW.pdb
     RDKit          3D

 33 34  0  0  1  0  0  0  0  0999 V2000
   12.1755  -19.5800   22.7675 N   0  0  0  0  0  0  0  0  0  0  0  0
   12.4871  -20.7265   21.9668 C   0  0  0  0  0  0  0  0  0  0  0  0
   13.7298  -21.0727   21.8886 N   0  0  0  0  0  0  0  0  0  0  0  0
   11.4732  -21.4521   21.2875 N   0  0  0  0  0  0  0  0  0  0  0  0
   10.1405  -20.9369   21.2668 C   0  0  0  0  0  0  0  0  0  0  0  0
    9.9329  -19.8792   20.1786 C   0  0  0  0  0  0  0  0  0  0  0  0
    8.5071  -19.4133   20.3037 C   0  0  0  0  0  0  0  0  0  0  0  0
    8.0634  -18.4755   19.2404 C   0  0  2  0  0  0  0  0  0  0  0  0
    8.4443  -18.8079   17.9117 N   0  0  0  0  0  0  0  0  0  0  0  0
    8.6202  -17.1238   19.5853 C   0  0  0  0  0  0  0  0  0  0  0  0
    9.8262  -16.8363   19.3421 O   0  0  0  0  0  0  0  0  0  0  0  0
   14.0846  -21.9086   21.3993 C   0  0  0  0  0  0  0  0  0  0  0  0
    6.1941  -13.8437   21.3087 C   0  0  2  0  0  0  0  0  0  0  0  0
    7.4684  -13.6794   20.5319 C   0  0  0  0  0  0  0  0  0  0  0  0
    8.1645  -12.4725   21.1386 C   0  0  1  0  0  0  0  0  0  0  0  0
    8.3860  -14.8403   20.6032 N   0  0  0  0  0  0  0  0  0  0  0  0
    7.8700  -16.0943   20.1903 C   0  0  0  0  0  0  0  0  0  0  0  0
    9.0418  -14.9046   21.9485 O   0  0  0  0  0  0  0  0  0  0  0  0
    9.7670  -13.9716   22.3776 N   0  0  0  0  0  0  0  0  0  0  0  0
    8.8687  -16.0324   22.7995 C   0  0  1  0  0  0  0  0  0  0  0  0
    9.5899  -16.1502   24.0383 C   0  0  0  0  0  0  0  0  0  0  0  0
    8.7062  -16.4594   25.2056 C   0  0  0  0  0  0  0  0  0  0  0  0
    7.6698  -15.4150   25.4001 C   0  0  0  0  0  0  0  0  0  0  0  0
    6.2943  -15.5512   25.2221 N   0  0  0  0  0  0  0  0  0  0  0  0
    5.7063  -14.3752   25.4982 C   0  0  0  0  0  0  0  0  0  0  0  0
    6.6152  -13.4524   25.8532 C   0  0  0  0  0  0  0  0  0  0  0  0
    6.5426  -12.1221   26.2256 C   0  0  0  0  0  0  0  0  0  0  0  0
    7.6808  -11.3953   26.5483 C   0  0  0  0  0  0  0  0  0  0  0  0
    8.8964  -12.0367   26.4882 C   0  0  0  0  0  0  0  0  0  0  0  0
    8.9531  -13.3767   26.1114 C   0  0  0  0  0  0  0  0  0  0  0  0
    7.8390  -14.0958   25.7934 C   0  0  0  0  0  0  0  0  0  0  0  0
   10.5890  -17.2316   23.9010 O   0  0  0  0  0  0  0  0  0  0  0  0
   11.5240  -17.5104   24.8890 O   0  0  0  0  0  0  0  0  0  0  0  0
  1  2  1  0
  2  3  2  0
  4  2  1  0
  4  5  1  0
  5  6  1  0
  6  7  1  0
  7  8  1  0
  8 10  1  0
  8  9  1  6
 10 11  2  0
 10 16  1  0
 13 12  1  6
 13 15  1  0
 14 13  1  0
 15 17  1  0
 15 16  1  6
 17 18  2  0
 17 19  1  0
 19 20  1  0
 20 21  1  1
 21 22  1  0
 22 30  1  0
 22 23  2  0
 23 24  1  0
 24 25  1  0
 25 26  2  0
 27 26  1  0
 28 27  2  0
 29 30  2  0
 29 28  1  0
 30 25  1  0
 31 20  1  0
 31 32  1  0
 33 31  2  0
M  END
$$$$
