KCG.pdb
     RDKit          3D

 20 19  0  0  1  0  0  0  0  0999 V2000
   20.9428  -20.4146  -13.1735 N   0  0  0  0  0  0  0  0  0  0  0  0
   22.1562  -21.1541  -13.5235 C   0  0  1  0  0  0  0  0  0  0  0  0
   22.2505  -21.1361  -15.0292 C   0  0  0  0  0  0  0  0  0  0  0  0
   21.1006  -21.9388  -15.5987 C   0  0  0  0  0  0  0  0  0  0  0  0
   21.2926  -23.4252  -15.4335 C   0  0  0  0  0  0  0  0  0  0  0  0
   21.3818  -24.0888  -16.7834 C   0  0  0  0  0  0  0  0  0  0  0  0
   21.4380  -25.5144  -16.5839 N   0  0  0  0  0  0  0  0  0  0  0  0
   23.3128  -20.4921  -12.8835 C   0  0  0  0  0  0  0  0  0  0  0  0
   23.3088  -19.2532  -12.6562 O   0  0  0  0  0  0  0  0  0  0  0  0
   24.4581  -21.2179  -12.5053 N   0  0  0  0  0  0  0  0  0  0  0  0
   25.6292  -20.5776  -11.9923 C   0  0  1  0  0  0  0  0  0  0  0  0
   26.1134  -21.1844  -10.6924 C   0  0  0  0  0  0  0  0  0  0  0  0
   25.0106  -20.7503   -9.3192 S   0  0  0  0  0  0  0  0  0  0  0  0
   26.7205  -20.4741  -12.9796 C   0  0  0  0  0  0  0  0  0  0  0  0
   27.3488  -21.5041  -13.3031 O   0  0  0  0  0  0  0  0  0  0  0  0
   27.0530  -19.2387  -13.5508 N   0  0  0  0  0  0  0  0  0  0  0  0
   28.1387  -19.2049  -14.5015 C   0  0  0  0  0  0  0  0  0  0  0  0
   27.6513  -19.1394  -15.9016 C   0  0  0  0  0  0  0  0  0  0  0  0
   26.7320  -18.2176  -16.3511 O   0  0  0  0  0  0  0  0  0  0  0  0
   28.1132  -19.9806  -16.7131 O   0  0  0  0  0  0  0  0  0  0  0  0
  2  8  1  0
  2  1  1  6
  3  2  1  0
  4  3  1  0
  5  4  1  0
  6  5  1  0
  7  6  1  0
  8  9  2  0
 10  8  1  0
 11 10  1  0
 11 12  1  1
 13 12  1  0
 14 11  1  0
 15 14  2  0
 16 14  1  0
 17 16  1  0
 18 17  1  0
 19 18  1  0
 20 18  2  0
M  END
$$$$
