KCG.pdb
     RDKit          3D

 20 19  0  0  1  0  0  0  0  0999 V2000
   20.5199  -13.7315  -16.6905 N   0  0  0  0  0  0  0  0  0  0  0  0
   20.2887  -12.3447  -17.0965 C   0  0  1  0  0  0  0  0  0  0  0  0
   18.8106  -12.2186  -17.3712 C   0  0  0  0  0  0  0  0  0  0  0  0
   18.4474  -13.1415  -18.5147 C   0  0  0  0  0  0  0  0  0  0  0  0
   17.0040  -13.0100  -18.9304 C   0  0  0  0  0  0  0  0  0  0  0  0
   16.7095  -13.9397  -20.0791 C   0  0  0  0  0  0  0  0  0  0  0  0
   15.3101  -13.8294  -20.4030 N   0  0  0  0  0  0  0  0  0  0  0  0
   20.7316  -11.4535  -16.0033 C   0  0  0  0  0  0  0  0  0  0  0  0
   20.4394  -11.7016  -14.8034 O   0  0  0  0  0  0  0  0  0  0  0  0
   21.4936  -10.2981  -16.2603 N   0  0  0  0  0  0  0  0  0  0  0  0
   21.9419   -9.4342  -15.2127 C   0  0  1  0  0  0  0  0  0  0  0  0
   23.4258   -9.5581  -14.9388 C   0  0  0  0  0  0  0  0  0  0  0  0
   23.8329  -11.1986  -14.2805 S   0  0  0  0  0  0  0  0  0  0  0  0
   21.5437   -8.0266  -15.4033 C   0  0  0  0  0  0  0  0  0  0  0  0
   21.6121   -7.5233  -16.5445 O   0  0  0  0  0  0  0  0  0  0  0  0
   21.0934   -7.2584  -14.3215 N   0  0  0  0  0  0  0  0  0  0  0  0
   20.5751   -5.9400  -14.5991 C   0  0  0  0  0  0  0  0  0  0  0  0
   21.6573   -4.9345  -14.7406 C   0  0  0  0  0  0  0  0  0  0  0  0
   22.9993   -5.2415  -14.6998 O   0  0  0  0  0  0  0  0  0  0  0  0
   21.3139   -3.7371  -14.9069 O   0  0  0  0  0  0  0  0  0  0  0  0
  2  8  1  0
  2  1  1  1
  3  2  1  0
  4  3  1  0
  5  4  1  0
  6  5  1  0
  7  6  1  0
  8  9  2  0
 10  8  1  0
 11 10  1  0
 11 12  1  6
 13 12  1  0
 14 11  1  0
 15 14  2  0
 16 14  1  0
 17 16  1  0
 18 17  1  0
 19 18  1  0
 20 18  2  0
M  END
$$$$
