KCG.pdb
     RDKit          3D

 20 19  0  0  1  0  0  0  0  0999 V2000
   21.8895  -12.5951  -16.2864 N   0  0  0  0  0  0  0  0  0  0  0  0
   21.2237  -11.3234  -16.5715 C   0  0  1  0  0  0  0  0  0  0  0  0
   19.9101  -11.3509  -15.8298 C   0  0  0  0  0  0  0  0  0  0  0  0
   19.1264  -12.5678  -16.2725 C   0  0  0  0  0  0  0  0  0  0  0  0
   17.7167  -12.5762  -15.7374 C   0  0  0  0  0  0  0  0  0  0  0  0
   16.9465  -13.7298  -16.3262 C   0  0  0  0  0  0  0  0  0  0  0  0
   15.5965  -13.6744  -15.8265 N   0  0  0  0  0  0  0  0  0  0  0  0
   22.0983  -10.2214  -16.1176 C   0  0  0  0  0  0  0  0  0  0  0  0
   22.7437  -10.3055  -15.0392 O   0  0  0  0  0  0  0  0  0  0  0  0
   22.2428   -9.0405  -16.8702 N   0  0  0  0  0  0  0  0  0  0  0  0
   23.1300   -7.9909  -16.4754 C   0  0  1  0  0  0  0  0  0  0  0  0
   24.3097   -7.8309  -17.4109 C   0  0  0  0  0  0  0  0  0  0  0  0
   25.3301   -9.3303  -17.4365 S   0  0  0  0  0  0  0  0  0  0  0  0
   22.4478   -6.7040  -16.2416 C   0  0  0  0  0  0  0  0  0  0  0  0
   21.7950   -6.1829  -17.1704 O   0  0  0  0  0  0  0  0  0  0  0  0
   22.5272   -6.0690  -14.9951 N   0  0  0  0  0  0  0  0  0  0  0  0
   21.7564   -4.8639  -14.8011 C   0  0  0  0  0  0  0  0  0  0  0  0
   22.0117   -4.2468  -13.4759 C   0  0  0  0  0  0  0  0  0  0  0  0
   21.4852   -3.0376  -13.0790 O   0  0  0  0  0  0  0  0  0  0  0  0
   22.7534   -4.8758  -12.6800 O   0  0  0  0  0  0  0  0  0  0  0  0
  2  8  1  0
  2  1  1  1
  3  2  1  0
  4  3  1  0
  5  4  1  0
  6  5  1  0
  7  6  1  0
  8  9  2  0
 10  8  1  0
 11 10  1  0
 11 12  1  6
 13 12  1  0
 14 11  1  0
 15 14  2  0
 16 14  1  0
 17 16  1  0
 18 17  1  0
 19 18  1  0
 20 18  2  0
M  END
$$$$
