KCG.pdb
     RDKit          3D

 20 19  0  0  1  0  0  0  0  0999 V2000
   28.0504  -21.3753  -14.4597 N   0  0  0  0  0  0  0  0  0  0  0  0
   26.8307  -20.9446  -15.1443 C   0  0  1  0  0  0  0  0  0  0  0  0
   26.7896  -21.6885  -16.4564 C   0  0  0  0  0  0  0  0  0  0  0  0
   28.0387  -21.3561  -17.2439 C   0  0  0  0  0  0  0  0  0  0  0  0
   28.1048  -22.0855  -18.5619 C   0  0  0  0  0  0  0  0  0  0  0  0
   29.4096  -21.7866  -19.2540 C   0  0  0  0  0  0  0  0  0  0  0  0
   29.4858  -22.5946  -20.4442 N   0  0  0  0  0  0  0  0  0  0  0  0
   25.6706  -21.2630  -14.2852 C   0  0  0  0  0  0  0  0  0  0  0  0
   24.7134  -21.9588  -14.7169 O   0  0  0  0  0  0  0  0  0  0  0  0
   25.5915  -20.8027  -12.9573 N   0  0  0  0  0  0  0  0  0  0  0  0
   24.5132  -21.1638  -12.0902 C   0  0  1  0  0  0  0  0  0  0  0  0
   24.8386  -20.9598  -10.6257 C   0  0  0  0  0  0  0  0  0  0  0  0
   26.4015  -21.7686  -10.1858 S   0  0  0  0  0  0  0  0  0  0  0  0
   23.2321  -20.5284  -12.4524 C   0  0  0  0  0  0  0  0  0  0  0  0
   23.1532  -19.2818  -12.4675 O   0  0  0  0  0  0  0  0  0  0  0  0
   22.1139  -21.3080  -12.7764 N   0  0  0  0  0  0  0  0  0  0  0  0
   20.8936  -20.6233  -13.1315 C   0  0  0  0  0  0  0  0  0  0  0  0
   19.8078  -21.5696  -13.4887 C   0  0  0  0  0  0  0  0  0  0  0  0
   18.5151  -21.1839  -13.7662 O   0  0  0  0  0  0  0  0  0  0  0  0
   20.0997  -22.7910  -13.5368 O   0  0  0  0  0  0  0  0  0  0  0  0
  2  8  1  0
  2  1  1  1
  3  2  1  0
  4  3  1  0
  5  4  1  0
  6  5  1  0
  7  6  1  0
  8  9  2  0
 10  8  1  0
 11 10  1  0
 11 12  1  1
 13 12  1  0
 14 11  1  0
 15 14  2  0
 16 14  1  0
 17 16  1  0
 18 17  1  0
 19 18  1  0
 20 18  2  0
M  END
$$$$
