KCG.pdb
     RDKit          3D

 20 19  0  0  1  0  0  0  0  0999 V2000
   17.7752  -11.1633  -15.6610 N   0  0  0  0  0  0  0  0  0  0  0  0
   18.8674  -10.5863  -16.4459 C   0  0  1  0  0  0  0  0  0  0  0  0
   18.2361   -9.9628  -17.6662 C   0  0  0  0  0  0  0  0  0  0  0  0
   17.6285  -11.0594  -18.5142 C   0  0  0  0  0  0  0  0  0  0  0  0
   18.6691  -11.8849  -19.2278 C   0  0  0  0  0  0  0  0  0  0  0  0
   18.0056  -12.8282  -20.1977 C   0  0  0  0  0  0  0  0  0  0  0  0
   19.0343  -13.5484  -20.9037 N   0  0  0  0  0  0  0  0  0  0  0  0
   19.5725   -9.5905  -15.6113 C   0  0  0  0  0  0  0  0  0  0  0  0
   18.9449   -8.8650  -14.7950 O   0  0  0  0  0  0  0  0  0  0  0  0
   20.9667   -9.4157  -15.6965 N   0  0  0  0  0  0  0  0  0  0  0  0
   21.6599   -8.4389  -14.9154 C   0  0  1  0  0  0  0  0  0  0  0  0
   22.9191   -8.9810  -14.2728 C   0  0  0  0  0  0  0  0  0  0  0  0
   22.5354   -9.8900  -12.7507 S   0  0  0  0  0  0  0  0  0  0  0  0
   21.9231   -7.1842  -15.6452 C   0  0  0  0  0  0  0  0  0  0  0  0
   22.4529   -6.2278  -15.0411 O   0  0  0  0  0  0  0  0  0  0  0  0
   21.5854   -7.0606  -16.9994 N   0  0  0  0  0  0  0  0  0  0  0  0
   21.8471   -5.7977  -17.6478 C   0  0  0  0  0  0  0  0  0  0  0  0
   21.4124   -5.7995  -19.0667 C   0  0  0  0  0  0  0  0  0  0  0  0
   20.7970   -6.8688  -19.6788 O   0  0  0  0  0  0  0  0  0  0  0  0
   21.6249   -4.7574  -19.7363 O   0  0  0  0  0  0  0  0  0  0  0  0
  2  8  1  0
  2  1  1  1
  3  2  1  0
  4  3  1  0
  5  4  1  0
  6  5  1  0
  7  6  1  0
  8  9  2  0
 10  8  1  0
 11 10  1  0
 11 12  1  6
 13 12  1  0
 14 11  1  0
 15 14  2  0
 16 14  1  0
 17 16  1  0
 18 17  1  0
 19 18  1  0
 20 18  2  0
M  END
$$$$
