KCG.pdb
     RDKit          3D

 20 19  0  0  1  0  0  0  0  0999 V2000
   21.9045  -11.0871  -16.0175 N   0  0  0  0  0  0  0  0  0  0  0  0
   20.6361  -10.4468  -16.3679 C   0  0  1  0  0  0  0  0  0  0  0  0
   19.5485  -11.4384  -16.0355 C   0  0  0  0  0  0  0  0  0  0  0  0
   19.6039  -12.5746  -17.0340 C   0  0  0  0  0  0  0  0  0  0  0  0
   18.5271  -13.6042  -16.8015 C   0  0  0  0  0  0  0  0  0  0  0  0
   18.5750  -14.6558  -17.8797 C   0  0  0  0  0  0  0  0  0  0  0  0
   17.6385  -15.6960  -17.5390 N   0  0  0  0  0  0  0  0  0  0  0  0
   20.5086   -9.1964  -15.5897 C   0  0  0  0  0  0  0  0  0  0  0  0
   19.6936   -9.1059  -14.6335 O   0  0  0  0  0  0  0  0  0  0  0  0
   21.2899   -8.0635  -15.8863 N   0  0  0  0  0  0  0  0  0  0  0  0
   21.2126   -6.8629  -15.1134 C   0  0  1  0  0  0  0  0  0  0  0  0
   22.5374   -6.4734  -14.4925 C   0  0  0  0  0  0  0  0  0  0  0  0
   22.3132   -5.1958  -13.2246 S   0  0  0  0  0  0  0  0  0  0  0  0
   20.6059   -5.7339  -15.8438 C   0  0  0  0  0  0  0  0  0  0  0  0
   21.1278   -5.3478  -16.9110 O   0  0  0  0  0  0  0  0  0  0  0  0
   19.4583   -5.0983  -15.3516 N   0  0  0  0  0  0  0  0  0  0  0  0
   19.0085   -3.9023  -16.0234 C   0  0  0  0  0  0  0  0  0  0  0  0
   17.8400   -3.2885  -15.3451 C   0  0  0  0  0  0  0  0  0  0  0  0
   17.7782   -3.0497  -13.9901 O   0  0  0  0  0  0  0  0  0  0  0  0
   16.8569   -2.9736  -16.0618 O   0  0  0  0  0  0  0  0  0  0  0  0
  2  8  1  0
  2  1  1  1
  3  2  1  0
  4  3  1  0
  5  4  1  0
  6  5  1  0
  7  6  1  0
  8  9  2  0
 10  8  1  0
 11 10  1  0
 11 12  1  6
 13 12  1  0
 14 11  1  0
 15 14  2  0
 16 14  1  0
 17 16  1  0
 18 17  1  0
 19 18  1  0
 20 18  2  0
M  END
$$$$
