KCG.pdb
     RDKit          3D

 20 19  0  0  1  0  0  0  0  0999 V2000
   23.8445  -14.6254  -17.6874 N   0  0  0  0  0  0  0  0  0  0  0  0
   24.0246  -13.3615  -18.4028 C   0  0  1  0  0  0  0  0  0  0  0  0
   22.7941  -13.1715  -19.2549 C   0  0  0  0  0  0  0  0  0  0  0  0
   22.2561  -14.5318  -19.6435 C   0  0  0  0  0  0  0  0  0  0  0  0
   23.0841  -15.1996  -20.7121 C   0  0  0  0  0  0  0  0  0  0  0  0
   22.4070  -16.4626  -21.1780 C   0  0  0  0  0  0  0  0  0  0  0  0
   23.2719  -17.1161  -22.1267 N   0  0  0  0  0  0  0  0  0  0  0  0
   24.1898  -12.2778  -17.4109 C   0  0  0  0  0  0  0  0  0  0  0  0
   23.3080  -12.0537  -16.5399 O   0  0  0  0  0  0  0  0  0  0  0  0
   25.3344  -11.4583  -17.4020 N   0  0  0  0  0  0  0  0  0  0  0  0
   25.5224  -10.4252  -16.4314 C   0  0  1  0  0  0  0  0  0  0  0  0
   26.9738  -10.2339  -16.0452 C   0  0  0  0  0  0  0  0  0  0  0  0
   27.6926  -11.7790  -15.4237 S   0  0  0  0  0  0  0  0  0  0  0  0
   24.8904   -9.1462  -16.8070 C   0  0  0  0  0  0  0  0  0  0  0  0
   25.1597   -8.6361  -17.9150 O   0  0  0  0  0  0  0  0  0  0  0  0
   23.9984   -8.5067  -15.9362 N   0  0  0  0  0  0  0  0  0  0  0  0
   23.3388   -7.3109  -16.4040 C   0  0  0  0  0  0  0  0  0  0  0  0
   22.3899   -6.7691  -15.3999 C   0  0  0  0  0  0  0  0  0  0  0  0
   21.7757   -5.5413  -15.5096 O   0  0  0  0  0  0  0  0  0  0  0  0
   22.1419   -7.4837  -14.3962 O   0  0  0  0  0  0  0  0  0  0  0  0
  2  8  1  0
  2  1  1  1
  3  2  1  0
  4  3  1  0
  5  4  1  0
  6  5  1  0
  7  6  1  0
  8  9  2  0
 10  8  1  0
 11 10  1  0
 11 12  1  6
 13 12  1  0
 14 11  1  0
 15 14  2  0
 16 14  1  0
 17 16  1  0
 18 17  1  0
 19 18  1  0
 20 18  2  0
M  END
$$$$
