KCG.pdb
     RDKit          3D

 20 19  0  0  1  0  0  0  0  0999 V2000
   27.3749  -21.5818  -16.3606 N   0  0  0  0  0  0  0  0  0  0  0  0
   27.2454  -20.6287  -15.2576 C   0  0  1  0  0  0  0  0  0  0  0  0
   26.7294  -19.3445  -15.8584 C   0  0  0  0  0  0  0  0  0  0  0  0
   27.9009  -18.5582  -16.4064 C   0  0  0  0  0  0  0  0  0  0  0  0
   28.6142  -19.2809  -17.5211 C   0  0  0  0  0  0  0  0  0  0  0  0
   29.7717  -18.4534  -18.0171 C   0  0  0  0  0  0  0  0  0  0  0  0
   30.4273  -19.1803  -19.0741 N   0  0  0  0  0  0  0  0  0  0  0  0
   26.3142  -21.1904  -14.2562 C   0  0  0  0  0  0  0  0  0  0  0  0
   25.3763  -21.9581  -14.5991 O   0  0  0  0  0  0  0  0  0  0  0  0
   26.4396  -20.8901  -12.8866 N   0  0  0  0  0  0  0  0  0  0  0  0
   25.4728  -21.3163  -11.9230 C   0  0  1  0  0  0  0  0  0  0  0  0
   25.9967  -21.2773  -10.5030 C   0  0  0  0  0  0  0  0  0  0  0  0
   25.1075  -20.0444   -9.5132 S   0  0  0  0  0  0  0  0  0  0  0  0
   24.1797  -20.6161  -12.0410 C   0  0  0  0  0  0  0  0  0  0  0  0
   24.1705  -19.3796  -12.2176 O   0  0  0  0  0  0  0  0  0  0  0  0
   22.9734  -21.3238  -11.9570 N   0  0  0  0  0  0  0  0  0  0  0  0
   21.7434  -20.5786  -12.0824 C   0  0  0  0  0  0  0  0  0  0  0  0
   20.5489  -21.4434  -11.9178 C   0  0  0  0  0  0  0  0  0  0  0  0
   19.2557  -20.9699  -11.9016 O   0  0  0  0  0  0  0  0  0  0  0  0
   20.7442  -22.6780  -11.7867 O   0  0  0  0  0  0  0  0  0  0  0  0
  2  8  1  0
  2  1  1  6
  3  2  1  0
  4  3  1  0
  5  4  1  0
  6  5  1  0
  7  6  1  0
  8  9  2  0
 10  8  1  0
 11 10  1  0
 11 12  1  1
 13 12  1  0
 14 11  1  0
 15 14  2  0
 16 14  1  0
 17 16  1  0
 18 17  1  0
 19 18  1  0
 20 18  2  0
M  END
$$$$
