KCG.pdb
     RDKit          3D

 20 19  0  0  1  0  0  0  0  0999 V2000
   23.5549  -13.3941  -17.6573 N   0  0  0  0  0  0  0  0  0  0  0  0
   23.4623  -12.0350  -18.1923 C   0  0  1  0  0  0  0  0  0  0  0  0
   22.0701  -11.8894  -18.7553 C   0  0  0  0  0  0  0  0  0  0  0  0
   21.9332  -12.7993  -19.9571 C   0  0  0  0  0  0  0  0  0  0  0  0
   20.5508  -12.7626  -20.5580 C   0  0  0  0  0  0  0  0  0  0  0  0
   20.4946  -13.6411  -21.7811 C   0  0  0  0  0  0  0  0  0  0  0  0
   19.1536  -13.6009  -22.3057 N   0  0  0  0  0  0  0  0  0  0  0  0
   23.7245  -11.0782  -17.0963 C   0  0  0  0  0  0  0  0  0  0  0  0
   23.1314  -11.1787  -15.9897 O   0  0  0  0  0  0  0  0  0  0  0  0
   24.6433  -10.0224  -17.2470 N   0  0  0  0  0  0  0  0  0  0  0  0
   25.0011   -9.1648  -16.1601 C   0  0  1  0  0  0  0  0  0  0  0  0
   26.4983   -9.0045  -16.0018 C   0  0  0  0  0  0  0  0  0  0  0  0
   27.2774  -10.5760  -15.5392 S   0  0  0  0  0  0  0  0  0  0  0  0
   24.3189   -7.8573  -16.1962 C   0  0  0  0  0  0  0  0  0  0  0  0
   24.1955   -7.2646  -17.2889 O   0  0  0  0  0  0  0  0  0  0  0  0
   23.8134   -7.2822  -15.0229 N   0  0  0  0  0  0  0  0  0  0  0  0
   23.2388   -5.9609  -15.1120 C   0  0  0  0  0  0  0  0  0  0  0  0
   21.7554   -5.9962  -15.0934 C   0  0  0  0  0  0  0  0  0  0  0  0
   20.9850   -5.3568  -14.1476 O   0  0  0  0  0  0  0  0  0  0  0  0
   21.1826   -6.6518  -15.9997 O   0  0  0  0  0  0  0  0  0  0  0  0
  2  8  1  0
  2  1  1  1
  3  2  1  0
  4  3  1  0
  5  4  1  0
  6  5  1  0
  7  6  1  0
  8  9  2  0
 10  8  1  0
 11 10  1  0
 11 12  1  6
 13 12  1  0
 14 11  1  0
 15 14  2  0
 16 14  1  0
 17 16  1  0
 18 17  1  0
 19 18  1  0
 20 18  2  0
M  END
$$$$
