KCG.pdb
     RDKit          3D

 20 19  0  0  1  0  0  0  0  0999 V2000
   22.4528  -12.7546  -18.7722 N   0  0  0  0  0  0  0  0  0  0  0  0
   21.3724  -12.2210  -17.9417 C   0  0  1  0  0  0  0  0  0  0  0  0
   20.7118  -13.4067  -17.2828 C   0  0  0  0  0  0  0  0  0  0  0  0
   20.0680  -14.2621  -18.3526 C   0  0  0  0  0  0  0  0  0  0  0  0
   20.8840  -15.4853  -18.6865 C   0  0  0  0  0  0  0  0  0  0  0  0
   20.1942  -16.2915  -19.7566 C   0  0  0  0  0  0  0  0  0  0  0  0
   21.0376  -17.4092  -20.0952 N   0  0  0  0  0  0  0  0  0  0  0  0
   21.9540  -11.2861  -16.9552 C   0  0  0  0  0  0  0  0  0  0  0  0
   21.3312  -10.9797  -15.9041 O   0  0  0  0  0  0  0  0  0  0  0  0
   23.2210  -10.7050  -17.1520 N   0  0  0  0  0  0  0  0  0  0  0  0
   23.7868   -9.7806  -16.2192 C   0  0  1  0  0  0  0  0  0  0  0  0
   25.2830   -9.9458  -16.0567 C   0  0  0  0  0  0  0  0  0  0  0  0
   25.6901  -11.5840  -15.3928 S   0  0  0  0  0  0  0  0  0  0  0  0
   23.4251   -8.3768  -16.4927 C   0  0  0  0  0  0  0  0  0  0  0  0
   23.7839   -7.8539  -17.5689 O   0  0  0  0  0  0  0  0  0  0  0  0
   22.6883   -7.6339  -15.5609 N   0  0  0  0  0  0  0  0  0  0  0  0
   22.2629   -6.3074  -15.9398 C   0  0  0  0  0  0  0  0  0  0  0  0
   21.4786   -5.6464  -14.8674 C   0  0  0  0  0  0  0  0  0  0  0  0
   21.0980   -4.3232  -14.9003 O   0  0  0  0  0  0  0  0  0  0  0  0
   21.1497   -6.3476  -13.8776 O   0  0  0  0  0  0  0  0  0  0  0  0
  2  8  1  0
  2  1  1  6
  3  2  1  0
  4  3  1  0
  5  4  1  0
  6  5  1  0
  7  6  1  0
  8  9  2  0
 10  8  1  0
 11 10  1  0
 11 12  1  6
 13 12  1  0
 14 11  1  0
 15 14  2  0
 16 14  1  0
 17 16  1  0
 18 17  1  0
 19 18  1  0
 20 18  2  0
M  END
$$$$
