TVC.pdb
     RDKit          3D

 21 20  0  0  1  0  0  0  0  0999 V2000
   19.3078  -13.2186  -17.8826 C   0  0  0  0  0  0  0  0  0  0  0  0
   20.6042  -13.9525  -18.0078 C   0  0  1  0  0  0  0  0  0  0  0  0
   20.3381  -15.2003  -18.5664 O   0  0  0  0  0  0  0  0  0  0  0  0
   21.5583  -13.1614  -18.8748 C   0  0  2  0  0  0  0  0  0  0  0  0
   22.7336  -13.9452  -19.1790 N   0  0  0  0  0  0  0  0  0  0  0  0
   21.9525  -11.8813  -18.2464 C   0  0  0  0  0  0  0  0  0  0  0  0
   22.8768  -11.8202  -17.4038 O   0  0  0  0  0  0  0  0  0  0  0  0
   22.8427   -8.4319  -19.9244 C   0  0  0  0  0  0  0  0  0  0  0  0
   21.6786   -8.2940  -18.9849 C   0  0  2  0  0  0  0  0  0  0  0  0
   21.7749   -6.9291  -18.3369 C   0  0  0  0  0  0  0  0  0  0  0  0
   21.6166   -9.3929  -17.9568 C   0  0  2  0  0  0  0  0  0  0  0  0
   21.2891  -10.6551  -18.5786 N   0  0  0  0  0  0  0  0  0  0  0  0
   20.6602   -9.1133  -16.8698 C   0  0  0  0  0  0  0  0  0  0  0  0
   19.4431   -9.0413  -17.1479 O   0  0  0  0  0  0  0  0  0  0  0  0
   21.0998   -8.9290  -15.5391 N   0  0  0  0  0  0  0  0  0  0  0  0
   20.1476   -8.6732  -14.5034 C   0  0  1  0  0  0  0  0  0  0  0  0
   20.5389   -9.2952  -13.1812 C   0  0  0  0  0  0  0  0  0  0  0  0
   19.2735   -8.7711  -11.9623 S   0  0  0  0  0  0  0  0  0  0  0  0
   20.1044   -7.2045  -14.2857 C   0  0  0  0  0  0  0  0  0  0  0  0
   18.9305   -6.5191  -14.0739 O   0  0  0  0  0  0  0  0  0  0  0  0
   21.1918   -6.5787  -14.2986 O   0  0  0  0  0  0  0  0  0  0  0  0
  2  4  1  0
  2  1  1  6
  3  2  1  0
  4  5  1  1
  6  4  1  0
  7  6  2  0
  9  8  1  6
  9 11  1  0
 10  9  1  0
 11 13  1  0
 11 12  1  6
 12  6  1  0
 13 15  1  0
 14 13  2  0
 15 16  1  0
 16 17  1  1
 16 19  1  0
 17 18  1  0
 19 21  2  0
 19 20  1  0
M  END
$$$$
