TVC.pdb
     RDKit          3D

 21 20  0  0  1  0  0  0  0  0999 V2000
   26.7596  -18.1676  -15.2117 C   0  0  0  0  0  0  0  0  0  0  0  0
   27.3080  -19.3306  -15.9744 C   0  0  1  0  0  0  0  0  0  0  0  0
   28.3347  -18.8621  -16.7906 O   0  0  0  0  0  0  0  0  0  0  0  0
   27.8156  -20.3805  -15.0113 C   0  0  2  0  0  0  0  0  0  0  0  0
   28.4610  -21.4557  -15.7294 N   0  0  0  0  0  0  0  0  0  0  0  0
   26.7366  -20.9203  -14.1548 C   0  0  0  0  0  0  0  0  0  0  0  0
   26.0842  -21.9375  -14.4827 O   0  0  0  0  0  0  0  0  0  0  0  0
   26.8359  -21.1846  -10.1097 C   0  0  0  0  0  0  0  0  0  0  0  0
   25.6135  -20.4750  -10.6189 C   0  0  2  0  0  0  0  0  0  0  0  0
   24.4550  -20.8642   -9.7253 C   0  0  0  0  0  0  0  0  0  0  0  0
   25.3205  -20.7693  -12.0666 C   0  0  2  0  0  0  0  0  0  0  0  0
   26.3939  -20.2973  -12.9104 N   0  0  0  0  0  0  0  0  0  0  0  0
   24.0416  -20.1959  -12.5249 C   0  0  0  0  0  0  0  0  0  0  0  0
   23.8992  -18.9538  -12.4978 O   0  0  0  0  0  0  0  0  0  0  0  0
   22.9932  -21.0240  -12.9866 N   0  0  0  0  0  0  0  0  0  0  0  0
   21.7537  -20.4414  -13.3975 C   0  0  1  0  0  0  0  0  0  0  0  0
   21.2272  -21.0328  -14.6864 C   0  0  0  0  0  0  0  0  0  0  0  0
   22.4721  -20.6597  -15.9796 S   0  0  0  0  0  0  0  0  0  0  0  0
   20.7460  -20.7431  -12.3489 C   0  0  0  0  0  0  0  0  0  0  0  0
   19.5941  -20.0073  -12.1919 O   0  0  0  0  0  0  0  0  0  0  0  0
   20.9698  -21.7117  -11.5835 O   0  0  0  0  0  0  0  0  0  0  0  0
  2  4  1  0
  2  1  1  1
  3  2  1  0
  4  5  1  6
  6  4  1  0
  7  6  2  0
  9  8  1  1
  9 11  1  0
 10  9  1  0
 11 13  1  0
 11 12  1  6
 12  6  1  0
 13 15  1  0
 14 13  2  0
 15 16  1  0
 16 17  1  6
 16 19  1  0
 17 18  1  0
 19 21  2  0
 19 20  1  0
M  END
$$$$
