TVC.pdb
     RDKit          3D

 21 20  0  0  1  0  0  0  0  0999 V2000
   15.3341  -12.6914  -11.3882 C   0  0  0  0  0  0  0  0  0  0  0  0
   13.8459  -12.7043  -11.2461 C   0  0  1  0  0  0  0  0  0  0  0  0
   13.4670  -13.9750  -10.8203 O   0  0  0  0  0  0  0  0  0  0  0  0
   13.4178  -11.6479  -10.2519 C   0  0  2  0  0  0  0  0  0  0  0  0
   11.9904  -11.7070  -10.0343 N   0  0  0  0  0  0  0  0  0  0  0  0
   13.8083  -10.2869  -10.6810 C   0  0  0  0  0  0  0  0  0  0  0  0
   13.3417   -9.7663  -11.7199 O   0  0  0  0  0  0  0  0  0  0  0  0
   15.8265   -5.9269   -9.4635 C   0  0  0  0  0  0  0  0  0  0  0  0
   15.1685   -7.2426   -9.1587 C   0  0  2  0  0  0  0  0  0  0  0  0
   15.8696   -7.8351   -7.9548 C   0  0  0  0  0  0  0  0  0  0  0  0
   15.1773   -8.1916  -10.3283 C   0  0  2  0  0  0  0  0  0  0  0  0
   14.7402   -9.5069   -9.9212 N   0  0  0  0  0  0  0  0  0  0  0  0
   16.4948   -8.2881  -10.9835 C   0  0  0  0  0  0  0  0  0  0  0  0
   17.3435   -9.0734  -10.5071 O   0  0  0  0  0  0  0  0  0  0  0  0
   16.8015   -7.5140  -12.1257 N   0  0  0  0  0  0  0  0  0  0  0  0
   18.0453   -7.7072  -12.8041 C   0  0  1  0  0  0  0  0  0  0  0  0
   17.9667   -8.7660  -13.8816 C   0  0  0  0  0  0  0  0  0  0  0  0
   19.5921   -8.7700  -14.7300 S   0  0  0  0  0  0  0  0  0  0  0  0
   18.3882   -6.4326  -13.4852 C   0  0  0  0  0  0  0  0  0  0  0  0
   19.6676   -6.1262  -13.8879 O   0  0  0  0  0  0  0  0  0  0  0  0
   17.4615   -5.6129  -13.6942 O   0  0  0  0  0  0  0  0  0  0  0  0
  2  4  1  0
  2  1  1  1
  3  2  1  0
  4  5  1  6
  6  4  1  0
  7  6  2  0
  9  8  1  6
  9 11  1  0
 10  9  1  0
 11 13  1  0
 11 12  1  1
 12  6  1  0
 13 15  1  0
 14 13  2  0
 15 16  1  0
 16 17  1  6
 16 19  1  0
 17 18  1  0
 19 21  2  0
 19 20  1  0
M  END
$$$$
