TVC.pdb
     RDKit          3D

 21 20  0  0  1  0  0  0  0  0999 V2000
   24.7152  -23.6442  -17.8695 C   0  0  0  0  0  0  0  0  0  0  0  0
   24.4051  -22.2330  -18.2533 C   0  0  1  0  0  0  0  0  0  0  0  0
   23.4531  -21.7456  -17.3612 O   0  0  0  0  0  0  0  0  0  0  0  0
   25.6678  -21.4014  -18.2086 C   0  0  2  0  0  0  0  0  0  0  0  0
   26.6018  -21.8455  -19.2179 N   0  0  0  0  0  0  0  0  0  0  0  0
   26.3099  -21.4332  -16.8761 C   0  0  0  0  0  0  0  0  0  0  0  0
   27.2029  -22.2654  -16.5967 O   0  0  0  0  0  0  0  0  0  0  0  0
   26.1112  -18.0216  -14.2753 C   0  0  0  0  0  0  0  0  0  0  0  0
   27.1494  -19.1074  -14.2824 C   0  0  2  0  0  0  0  0  0  0  0  0
   28.1964  -18.7304  -15.3089 C   0  0  0  0  0  0  0  0  0  0  0  0
   26.5736  -20.4725  -14.5531 C   0  0  2  0  0  0  0  0  0  0  0  0
   25.9336  -20.5086  -15.8476 N   0  0  0  0  0  0  0  0  0  0  0  0
   25.6211  -20.9130  -13.5171 C   0  0  0  0  0  0  0  0  0  0  0  0
   24.4476  -21.1788  -13.8579 O   0  0  0  0  0  0  0  0  0  0  0  0
   26.0163  -21.0353  -12.1656 N   0  0  0  0  0  0  0  0  0  0  0  0
   25.0645  -21.4427  -11.1792 C   0  0  1  0  0  0  0  0  0  0  0  0
   25.6648  -21.5501   -9.7949 C   0  0  0  0  0  0  0  0  0  0  0  0
   26.2669  -19.8751   -9.3549 S   0  0  0  0  0  0  0  0  0  0  0  0
   24.0154  -20.3937  -11.1071 C   0  0  0  0  0  0  0  0  0  0  0  0
   22.8054  -20.5947  -10.4839 O   0  0  0  0  0  0  0  0  0  0  0  0
   24.2588  -19.2848  -11.6413 O   0  0  0  0  0  0  0  0  0  0  0  0
  2  4  1  0
  2  1  1  1
  3  2  1  0
  4  5  1  6
  6  4  1  0
  7  6  2  0
  9  8  1  6
  9 11  1  0
 10  9  1  0
 11 13  1  0
 11 12  1  6
 12  6  1  0
 13 15  1  0
 14 13  2  0
 15 16  1  0
 16 17  1  1
 16 19  1  0
 17 18  1  0
 19 21  2  0
 19 20  1  0
M  END
$$$$
