TVC.pdb
     RDKit          3D

 21 20  0  0  1  0  0  0  0  0999 V2000
   18.9643  -11.7524  -19.3164 C   0  0  0  0  0  0  0  0  0  0  0  0
   18.3901  -12.8862  -18.5292 C   0  0  1  0  0  0  0  0  0  0  0  0
   18.0229  -13.8874  -19.4251 O   0  0  0  0  0  0  0  0  0  0  0  0
   19.4154  -13.3925  -17.5391 C   0  0  2  0  0  0  0  0  0  0  0  0
   18.9275  -14.5743  -16.8657 N   0  0  0  0  0  0  0  0  0  0  0  0
   19.7879  -12.3615  -16.5455 C   0  0  0  0  0  0  0  0  0  0  0  0
   19.0209  -12.0451  -15.6077 O   0  0  0  0  0  0  0  0  0  0  0  0
   23.2838  -12.0656  -14.6772 C   0  0  0  0  0  0  0  0  0  0  0  0
   22.9185  -10.7791  -15.3617 C   0  0  2  0  0  0  0  0  0  0  0  0
   23.3910   -9.6431  -14.4794 C   0  0  0  0  0  0  0  0  0  0  0  0
   21.4476  -10.6699  -15.6664 C   0  0  2  0  0  0  0  0  0  0  0  0
   21.0473  -11.6810  -16.6173 N   0  0  0  0  0  0  0  0  0  0  0  0
   21.0590   -9.3381  -16.1665 C   0  0  0  0  0  0  0  0  0  0  0  0
   21.5023   -8.9624  -17.2738 O   0  0  0  0  0  0  0  0  0  0  0  0
   20.2045   -8.4972  -15.4178 N   0  0  0  0  0  0  0  0  0  0  0  0
   19.7829   -7.2439  -15.9621 C   0  0  1  0  0  0  0  0  0  0  0  0
   18.3011   -6.9970  -15.7848 C   0  0  0  0  0  0  0  0  0  0  0  0
   17.4373   -8.3961  -16.5962 S   0  0  0  0  0  0  0  0  0  0  0  0
   20.4850   -6.1701  -15.2137 C   0  0  0  0  0  0  0  0  0  0  0  0
   20.4151   -4.8446  -15.5755 O   0  0  0  0  0  0  0  0  0  0  0  0
   21.1652   -6.5026  -14.2132 O   0  0  0  0  0  0  0  0  0  0  0  0
  2  4  1  0
  2  1  1  6
  3  2  1  0
  4  5  1  1
  6  4  1  0
  7  6  2  0
  9  8  1  1
  9 11  1  0
 10  9  1  0
 11 13  1  0
 11 12  1  6
 12  6  1  0
 13 15  1  0
 14 13  2  0
 15 16  1  0
 16 17  1  1
 16 19  1  0
 17 18  1  0
 19 21  2  0
 19 20  1  0
M  END
$$$$
