TVC.pdb
     RDKit          3D

 21 20  0  0  1  0  0  0  0  0999 V2000
   23.8889  -12.6288  -14.8547 C   0  0  0  0  0  0  0  0  0  0  0  0
   23.4421  -11.2843  -15.3317 C   0  0  1  0  0  0  0  0  0  0  0  0
   24.5184  -10.6783  -15.9751 O   0  0  0  0  0  0  0  0  0  0  0  0
   22.2656  -11.4392  -16.2695 C   0  0  2  0  0  0  0  0  0  0  0  0
   22.6508  -12.1864  -17.4450 N   0  0  0  0  0  0  0  0  0  0  0  0
   21.6918  -10.1342  -16.6651 C   0  0  0  0  0  0  0  0  0  0  0  0
   21.9612   -9.6049  -17.7675 O   0  0  0  0  0  0  0  0  0  0  0  0
   18.0020   -9.0104  -15.1491 C   0  0  0  0  0  0  0  0  0  0  0  0
   18.6594   -8.4308  -16.3693 C   0  0  2  0  0  0  0  0  0  0  0  0
   18.3783   -9.3659  -17.5263 C   0  0  0  0  0  0  0  0  0  0  0  0
   20.1367   -8.1991  -16.1897 C   0  0  2  0  0  0  0  0  0  0  0  0
   20.8007   -9.4208  -15.7983 N   0  0  0  0  0  0  0  0  0  0  0  0
   20.4398   -7.1359  -15.2138 C   0  0  0  0  0  0  0  0  0  0  0  0
   20.7287   -7.4643  -14.0423 O   0  0  0  0  0  0  0  0  0  0  0  0
   20.4072   -5.7724  -15.5848 N   0  0  0  0  0  0  0  0  0  0  0  0
   20.6785   -4.7623  -14.6098 C   0  0  1  0  0  0  0  0  0  0  0  0
   22.0861   -4.2169  -14.7072 C   0  0  0  0  0  0  0  0  0  0  0  0
   22.2536   -2.9625  -13.3806 S   0  0  0  0  0  0  0  0  0  0  0  0
   19.7625   -3.6237  -14.8757 C   0  0  0  0  0  0  0  0  0  0  0  0
   19.3085   -2.7876  -13.8818 O   0  0  0  0  0  0  0  0  0  0  0  0
   19.3974   -3.4305  -16.0605 O   0  0  0  0  0  0  0  0  0  0  0  0
  2  4  1  0
  2  1  1  6
  3  2  1  0
  4  5  1  6
  6  4  1  0
  7  6  2  0
  9  8  1  1
  9 11  1  0
 10  9  1  0
 11 13  1  0
 11 12  1  1
 12  6  1  0
 13 15  1  0
 14 13  2  0
 15 16  1  0
 16 17  1  6
 16 19  1  0
 17 18  1  0
 19 21  2  0
 19 20  1  0
M  END
$$$$
