TVC.pdb
     RDKit          3D

 21 20  0  0  1  0  0  0  0  0999 V2000
   18.5563  -11.2197  -19.4671 C   0  0  0  0  0  0  0  0  0  0  0  0
   17.9807  -12.4150  -18.7781 C   0  0  1  0  0  0  0  0  0  0  0  0
   17.4264  -13.2444  -19.7500 O   0  0  0  0  0  0  0  0  0  0  0  0
   19.0657  -13.1323  -18.0060 C   0  0  2  0  0  0  0  0  0  0  0  0
   18.5625  -14.3720  -17.4599 N   0  0  0  0  0  0  0  0  0  0  0  0
   19.6279  -12.2941  -16.9242 C   0  0  0  0  0  0  0  0  0  0  0  0
   19.0163  -12.1153  -15.8463 O   0  0  0  0  0  0  0  0  0  0  0  0
   23.2613  -12.5385  -15.4656 C   0  0  0  0  0  0  0  0  0  0  0  0
   22.9685  -11.1327  -15.9074 C   0  0  2  0  0  0  0  0  0  0  0  0
   23.6416  -10.1968  -14.9261 C   0  0  0  0  0  0  0  0  0  0  0  0
   21.4946  -10.8463  -16.0253 C   0  0  2  0  0  0  0  0  0  0  0  0
   20.9005  -11.6507  -17.0678 N   0  0  0  0  0  0  0  0  0  0  0  0
   21.2011   -9.4221  -16.2706 C   0  0  0  0  0  0  0  0  0  0  0  0
   21.6089   -8.9017  -17.3320 O   0  0  0  0  0  0  0  0  0  0  0  0
   20.4753   -8.6534  -15.3325 N   0  0  0  0  0  0  0  0  0  0  0  0
   20.1597   -7.2890  -15.6214 C   0  0  1  0  0  0  0  0  0  0  0  0
   18.6904   -6.9770  -15.4427 C   0  0  0  0  0  0  0  0  0  0  0  0
   17.7758   -8.1150  -16.5518 S   0  0  0  0  0  0  0  0  0  0  0  0
   20.8953   -6.4419  -14.6480 C   0  0  0  0  0  0  0  0  0  0  0  0
   20.9175   -5.0685  -14.7263 O   0  0  0  0  0  0  0  0  0  0  0  0
   21.5166   -7.0183  -13.7228 O   0  0  0  0  0  0  0  0  0  0  0  0
  2  4  1  0
  2  1  1  6
  3  2  1  0
  4  5  1  1
  6  4  1  0
  7  6  2  0
  9  8  1  1
  9 11  1  0
 10  9  1  0
 11 13  1  0
 11 12  1  6
 12  6  1  0
 13 15  1  0
 14 13  2  0
 15 16  1  0
 16 17  1  1
 16 19  1  0
 17 18  1  0
 19 21  2  0
 19 20  1  0
M  END
$$$$
