TVC.pdb
     RDKit          3D

 21 20  0  0  1  0  0  0  0  0999 V2000
   23.6240  -11.0777  -14.7706 C   0  0  0  0  0  0  0  0  0  0  0  0
   23.7954  -11.6496  -16.1411 C   0  0  1  0  0  0  0  0  0  0  0  0
   24.4680  -12.8630  -16.0181 O   0  0  0  0  0  0  0  0  0  0  0  0
   22.4419  -11.8418  -16.7883 C   0  0  2  0  0  0  0  0  0  0  0  0
   22.5794  -12.5219  -18.0559 N   0  0  0  0  0  0  0  0  0  0  0  0
   21.7265  -10.5605  -16.9766 C   0  0  0  0  0  0  0  0  0  0  0  0
   22.0318   -9.7663  -17.8952 O   0  0  0  0  0  0  0  0  0  0  0  0
   18.0169  -10.0527  -17.6025 C   0  0  0  0  0  0  0  0  0  0  0  0
   18.4056   -9.2900  -16.3679 C   0  0  2  0  0  0  0  0  0  0  0  0
   17.5619   -8.0338  -16.3234 C   0  0  0  0  0  0  0  0  0  0  0  0
   19.8768   -8.9724  -16.3093 C   0  0  2  0  0  0  0  0  0  0  0  0
   20.6508  -10.1759  -16.1110 N   0  0  0  0  0  0  0  0  0  0  0  0
   20.2138   -7.9888  -15.2636 C   0  0  0  0  0  0  0  0  0  0  0  0
   20.1400   -8.3404  -14.0658 O   0  0  0  0  0  0  0  0  0  0  0  0
   20.6127   -6.6746  -15.5978 N   0  0  0  0  0  0  0  0  0  0  0  0
   20.9249   -5.7398  -14.5618 C   0  0  1  0  0  0  0  0  0  0  0  0
   22.3816   -5.3323  -14.5598 C   0  0  0  0  0  0  0  0  0  0  0  0
   22.5691   -4.0684  -13.2449 S   0  0  0  0  0  0  0  0  0  0  0  0
   20.1389   -4.5059  -14.8182 C   0  0  0  0  0  0  0  0  0  0  0  0
   19.6334   -3.7233  -13.8059 O   0  0  0  0  0  0  0  0  0  0  0  0
   19.9370   -4.1782  -16.0124 O   0  0  0  0  0  0  0  0  0  0  0  0
  2  4  1  0
  2  1  1  1
  3  2  1  0
  4  5  1  6
  6  4  1  0
  7  6  2  0
  9  8  1  6
  9 11  1  0
 10  9  1  0
 11 13  1  0
 11 12  1  1
 12  6  1  0
 13 15  1  0
 14 13  2  0
 15 16  1  0
 16 17  1  6
 16 19  1  0
 17 18  1  0
 19 21  2  0
 19 20  1  0
M  END
$$$$
