TVC.pdb
     RDKit          3D

 21 20  0  0  1  0  0  0  0  0999 V2000
   28.2605  -18.8010  -16.7454 C   0  0  0  0  0  0  0  0  0  0  0  0
   27.1621  -19.4719  -15.9850 C   0  0  1  0  0  0  0  0  0  0  0  0
   26.2506  -19.9800  -16.9073 O   0  0  0  0  0  0  0  0  0  0  0  0
   27.7359  -20.5750  -15.1237 C   0  0  2  0  0  0  0  0  0  0  0  0
   28.2997  -21.6191  -15.9485 N   0  0  0  0  0  0  0  0  0  0  0  0
   26.7278  -21.1461  -14.2036 C   0  0  0  0  0  0  0  0  0  0  0  0
   26.2013  -22.2621  -14.4165 O   0  0  0  0  0  0  0  0  0  0  0  0
   26.7817  -21.0189  -10.1504 C   0  0  0  0  0  0  0  0  0  0  0  0
   25.5116  -20.4698  -10.7356 C   0  0  2  0  0  0  0  0  0  0  0  0
   24.3759  -20.8722   -9.8190 C   0  0  0  0  0  0  0  0  0  0  0  0
   25.2695  -20.9239  -12.1511 C   0  0  2  0  0  0  0  0  0  0  0  0
   26.3120  -20.4413  -13.0270 N   0  0  0  0  0  0  0  0  0  0  0  0
   23.9536  -20.5108  -12.6729 C   0  0  0  0  0  0  0  0  0  0  0  0
   23.6983  -19.2891  -12.7519 O   0  0  0  0  0  0  0  0  0  0  0  0
   22.9948  -21.4673  -13.0775 N   0  0  0  0  0  0  0  0  0  0  0  0
   21.7007  -21.0397  -13.5101 C   0  0  1  0  0  0  0  0  0  0  0  0
   20.9277  -22.1327  -14.2144 C   0  0  0  0  0  0  0  0  0  0  0  0
   19.2722  -21.4413  -14.5928 S   0  0  0  0  0  0  0  0  0  0  0  0
   20.9190  -20.6786  -12.2999 C   0  0  0  0  0  0  0  0  0  0  0  0
   20.8318  -21.4997  -11.1995 O   0  0  0  0  0  0  0  0  0  0  0  0
   20.3197  -19.5763  -12.2976 O   0  0  0  0  0  0  0  0  0  0  0  0
  2  4  1  0
  2  1  1  6
  3  2  1  0
  4  5  1  6
  6  4  1  0
  7  6  2  0
  9  8  1  1
  9 11  1  0
 10  9  1  0
 11 13  1  0
 11 12  1  6
 12  6  1  0
 13 15  1  0
 14 13  2  0
 15 16  1  0
 16 17  1  1
 16 19  1  0
 17 18  1  0
 19 21  2  0
 19 20  1  0
M  END
$$$$
