TVC.pdb
     RDKit          3D

 21 20  0  0  1  0  0  0  0  0999 V2000
   17.6198  -10.9246  -18.4896 C   0  0  0  0  0  0  0  0  0  0  0  0
   17.2822  -12.2173  -17.8188 C   0  0  1  0  0  0  0  0  0  0  0  0
   16.6305  -13.0248  -18.7478 O   0  0  0  0  0  0  0  0  0  0  0  0
   18.5463  -12.8784  -17.3163 C   0  0  2  0  0  0  0  0  0  0  0  0
   18.2554  -14.1934  -16.7923 N   0  0  0  0  0  0  0  0  0  0  0  0
   19.2311  -12.0642  -16.2882 C   0  0  0  0  0  0  0  0  0  0  0  0
   18.7694  -11.9437  -15.1305 O   0  0  0  0  0  0  0  0  0  0  0  0
   22.9760  -12.0523  -15.1291 C   0  0  0  0  0  0  0  0  0  0  0  0
   22.5811  -10.6914  -15.6282 C   0  0  2  0  0  0  0  0  0  0  0  0
   23.2824   -9.6669  -14.7618 C   0  0  0  0  0  0  0  0  0  0  0  0
   21.0903  -10.4780  -15.6430 C   0  0  2  0  0  0  0  0  0  0  0  0
   20.4555  -11.3779  -16.5779 N   0  0  0  0  0  0  0  0  0  0  0  0
   20.7090   -9.0884  -15.9563 C   0  0  0  0  0  0  0  0  0  0  0  0
   21.0336   -8.6153  -17.0674 O   0  0  0  0  0  0  0  0  0  0  0  0
   19.9923   -8.3001  -15.0274 N   0  0  0  0  0  0  0  0  0  0  0  0
   19.5913   -6.9733  -15.3789 C   0  0  1  0  0  0  0  0  0  0  0  0
   18.3185   -6.5425  -14.6842 C   0  0  0  0  0  0  0  0  0  0  0  0
   17.0116   -7.7142  -15.2141 S   0  0  0  0  0  0  0  0  0  0  0  0
   20.6585   -6.0460  -14.9237 C   0  0  0  0  0  0  0  0  0  0  0  0
   21.7283   -6.4601  -14.1642 O   0  0  0  0  0  0  0  0  0  0  0  0
   20.5653   -4.8392  -15.2540 O   0  0  0  0  0  0  0  0  0  0  0  0
  2  4  1  0
  2  1  1  6
  3  2  1  0
  4  5  1  1
  6  4  1  0
  7  6  2  0
  9  8  1  1
  9 11  1  0
 10  9  1  0
 11 13  1  0
 11 12  1  6
 12  6  1  0
 13 15  1  0
 14 13  2  0
 15 16  1  0
 16 17  1  1
 16 19  1  0
 17 18  1  0
 19 21  2  0
 19 20  1  0
M  END
$$$$
