TVC.pdb
     RDKit          3D

 21 20  0  0  1  0  0  0  0  0999 V2000
   22.0661  -18.5026  -16.4950 C   0  0  0  0  0  0  0  0  0  0  0  0
   22.7732  -19.0081  -15.2787 C   0  0  1  0  0  0  0  0  0  0  0  0
   21.8335  -19.1353  -14.2586 O   0  0  0  0  0  0  0  0  0  0  0  0
   23.4281  -20.3372  -15.5830 C   0  0  2  0  0  0  0  0  0  0  0  0
   22.4319  -21.3226  -15.9364 N   0  0  0  0  0  0  0  0  0  0  0  0
   24.2464  -20.8278  -14.4523 C   0  0  0  0  0  0  0  0  0  0  0  0
   23.8580  -21.7648  -13.7180 O   0  0  0  0  0  0  0  0  0  0  0  0
   28.2273  -21.5187  -14.4381 C   0  0  0  0  0  0  0  0  0  0  0  0
   27.7958  -20.5622  -13.3629 C   0  0  2  0  0  0  0  0  0  0  0  0
   28.6627  -20.8199  -12.1488 C   0  0  0  0  0  0  0  0  0  0  0  0
   26.3306  -20.6694  -13.0311 C   0  0  2  0  0  0  0  0  0  0  0  0
   25.5218  -20.2475  -14.1513 N   0  0  0  0  0  0  0  0  0  0  0  0
   25.9529  -19.9012  -11.8304 C   0  0  0  0  0  0  0  0  0  0  0  0
   25.8816  -18.6556  -11.9152 O   0  0  0  0  0  0  0  0  0  0  0  0
   25.6756  -20.5496  -10.6054 N   0  0  0  0  0  0  0  0  0  0  0  0
   25.4343  -19.7748   -9.4280 C   0  0  1  0  0  0  0  0  0  0  0  0
   24.2445  -20.2687   -8.6352 C   0  0  0  0  0  0  0  0  0  0  0  0
   24.7277  -21.8867   -7.9208 S   0  0  0  0  0  0  0  0  0  0  0  0
   26.6209  -19.9164   -8.5460 C   0  0  0  0  0  0  0  0  0  0  0  0
   26.8044  -19.1495   -7.4186 O   0  0  0  0  0  0  0  0  0  0  0  0
   27.4816  -20.7751   -8.8561 O   0  0  0  0  0  0  0  0  0  0  0  0
  2  4  1  0
  2  1  1  6
  3  2  1  0
  4  5  1  1
  6  4  1  0
  7  6  2  0
  9  8  1  6
  9 11  1  0
 10  9  1  0
 11 13  1  0
 11 12  1  6
 12  6  1  0
 13 15  1  0
 14 13  2  0
 15 16  1  0
 16 17  1  1
 16 19  1  0
 17 18  1  0
 19 21  2  0
 19 20  1  0
M  END
$$$$
