TVC.pdb
     RDKit          3D

 21 20  0  0  1  0  0  0  0  0999 V2000
   23.6277  -17.5795  -16.9889 C   0  0  0  0  0  0  0  0  0  0  0  0
   23.2440  -18.6095  -15.9755 C   0  0  1  0  0  0  0  0  0  0  0  0
   22.2929  -19.4464  -16.5541 O   0  0  0  0  0  0  0  0  0  0  0  0
   24.4680  -19.3899  -15.5506 C   0  0  2  0  0  0  0  0  0  0  0  0
   25.0703  -20.0453  -16.6890 N   0  0  0  0  0  0  0  0  0  0  0  0
   24.1586  -20.3841  -14.4996 C   0  0  0  0  0  0  0  0  0  0  0  0
   24.0932  -21.6088  -14.7523 O   0  0  0  0  0  0  0  0  0  0  0  0
   25.6689  -20.5208  -10.7791 C   0  0  0  0  0  0  0  0  0  0  0  0
   24.1669  -20.4907  -10.7835 C   0  0  2  0  0  0  0  0  0  0  0  0
   23.6898  -21.3674   -9.6452 C   0  0  0  0  0  0  0  0  0  0  0  0
   23.5721  -20.9180  -12.0996 C   0  0  2  0  0  0  0  0  0  0  0  0
   23.9205  -19.9831  -13.1443 N   0  0  0  0  0  0  0  0  0  0  0  0
   22.1071  -21.0779  -12.0463 C   0  0  0  0  0  0  0  0  0  0  0  0
   21.3937  -20.0509  -12.0292 O   0  0  0  0  0  0  0  0  0  0  0  0
   21.5125  -22.3598  -12.0149 N   0  0  0  0  0  0  0  0  0  0  0  0
   20.0888  -22.4859  -12.0574 C   0  0  1  0  0  0  0  0  0  0  0  0
   19.6342  -23.8991  -12.3479 C   0  0  0  0  0  0  0  0  0  0  0  0
   17.8014  -23.8784  -12.3019 S   0  0  0  0  0  0  0  0  0  0  0  0
   19.5667  -22.1401  -10.7106 C   0  0  0  0  0  0  0  0  0  0  0  0
   18.4100  -21.4188  -10.5249 O   0  0  0  0  0  0  0  0  0  0  0  0
   20.2194  -22.5294   -9.7122 O   0  0  0  0  0  0  0  0  0  0  0  0
  2  4  1  0
  2  1  1  6
  3  2  1  0
  4  5  1  6
  6  4  1  0
  7  6  2  0
  9  8  1  6
  9 11  1  0
 10  9  1  0
 11 13  1  0
 11 12  1  6
 12  6  1  0
 13 15  1  0
 14 13  2  0
 15 16  1  0
 16 17  1  1
 16 19  1  0
 17 18  1  0
 19 21  2  0
 19 20  1  0
M  END
$$$$
