TVC.pdb
     RDKit          3D

 21 20  0  0  1  0  0  0  0  0999 V2000
   22.7903  -17.8120  -17.8814 C   0  0  0  0  0  0  0  0  0  0  0  0
   23.1627  -18.6965  -16.7352 C   0  0  1  0  0  0  0  0  0  0  0  0
   23.2805  -19.9974  -17.2184 O   0  0  0  0  0  0  0  0  0  0  0  0
   24.4635  -18.2234  -16.1254 C   0  0  2  0  0  0  0  0  0  0  0  0
   24.8905  -19.1265  -15.0812 N   0  0  0  0  0  0  0  0  0  0  0  0
   24.3621  -16.8466  -15.5934 C   0  0  0  0  0  0  0  0  0  0  0  0
   23.9184  -16.6169  -14.4452 O   0  0  0  0  0  0  0  0  0  0  0  0
   26.6300  -13.6607  -17.2703 C   0  0  0  0  0  0  0  0  0  0  0  0
   25.9726  -13.6577  -15.9195 C   0  0  2  0  0  0  0  0  0  0  0  0
   26.9381  -14.2922  -14.9411 C   0  0  0  0  0  0  0  0  0  0  0  0
   24.6372  -14.3543  -15.9116 C   0  0  2  0  0  0  0  0  0  0  0  0
   24.7697  -15.7162  -16.3746 N   0  0  0  0  0  0  0  0  0  0  0  0
   23.6168  -13.6552  -16.7145 C   0  0  0  0  0  0  0  0  0  0  0  0
   23.5287  -13.9218  -17.9331 O   0  0  0  0  0  0  0  0  0  0  0  0
   22.7522  -12.7028  -16.1285 N   0  0  0  0  0  0  0  0  0  0  0  0
   21.7027  -12.1204  -16.9057 C   0  0  1  0  0  0  0  0  0  0  0  0
   20.5202  -11.6917  -16.0654 C   0  0  0  0  0  0  0  0  0  0  0  0
   19.9216  -13.1935  -15.2006 S   0  0  0  0  0  0  0  0  0  0  0  0
   22.2423  -10.8899  -17.5388 C   0  0  0  0  0  0  0  0  0  0  0  0
   21.5264  -10.1479  -18.4497 O   0  0  0  0  0  0  0  0  0  0  0  0
   23.3997  -10.5263  -17.2188 O   0  0  0  0  0  0  0  0  0  0  0  0
  2  4  1  0
  2  1  1  6
  3  2  1  0
  4  5  1  1
  6  4  1  0
  7  6  2  0
  9  8  1  6
  9 11  1  0
 10  9  1  0
 11 13  1  0
 11 12  1  6
 12  6  1  0
 13 15  1  0
 14 13  2  0
 15 16  1  0
 16 17  1  1
 16 19  1  0
 17 18  1  0
 19 21  2  0
 19 20  1  0
M  END
$$$$
