TVC.pdb
     RDKit          3D

 21 20  0  0  1  0  0  0  0  0999 V2000
   15.9453  -12.6691  -14.6295 C   0  0  0  0  0  0  0  0  0  0  0  0
   17.1222  -11.8012  -14.9403 C   0  0  1  0  0  0  0  0  0  0  0  0
   18.2690  -12.5867  -14.8527 O   0  0  0  0  0  0  0  0  0  0  0  0
   16.9717  -11.2118  -16.3251 C   0  0  2  0  0  0  0  0  0  0  0  0
   16.9974  -12.2554  -17.3244 N   0  0  0  0  0  0  0  0  0  0  0  0
   18.0145  -10.2042  -16.6190 C   0  0  0  0  0  0  0  0  0  0  0  0
   19.1283  -10.5293  -17.0899 O   0  0  0  0  0  0  0  0  0  0  0  0
   16.7549   -6.3611  -17.4553 C   0  0  0  0  0  0  0  0  0  0  0  0
   18.0959   -6.9090  -17.8534 C   0  0  2  0  0  0  0  0  0  0  0  0
   17.9138   -7.6582  -19.1562 C   0  0  0  0  0  0  0  0  0  0  0  0
   18.7149   -7.7818  -16.7934 C   0  0  2  0  0  0  0  0  0  0  0  0
   17.7901   -8.8098  -16.3751 N   0  0  0  0  0  0  0  0  0  0  0  0
   19.1762   -7.0220  -15.6168 C   0  0  0  0  0  0  0  0  0  0  0  0
   18.3569   -6.7765  -14.7046 O   0  0  0  0  0  0  0  0  0  0  0  0
   20.5136   -6.5764  -15.5131 N   0  0  0  0  0  0  0  0  0  0  0  0
   20.9118   -5.7710  -14.4006 C   0  0  1  0  0  0  0  0  0  0  0  0
   22.3862   -5.8944  -14.0860 C   0  0  0  0  0  0  0  0  0  0  0  0
   22.6874   -4.8817  -12.5875 S   0  0  0  0  0  0  0  0  0  0  0  0
   20.6725   -4.3513  -14.7654 C   0  0  0  0  0  0  0  0  0  0  0  0
   20.1278   -3.4408  -13.8895 O   0  0  0  0  0  0  0  0  0  0  0  0
   20.9856   -3.9837  -15.9235 O   0  0  0  0  0  0  0  0  0  0  0  0
  2  4  1  0
  2  1  1  6
  3  2  1  0
  4  5  1  6
  6  4  1  0
  7  6  2  0
  9  8  1  1
  9 11  1  0
 10  9  1  0
 11 13  1  0
 11 12  1  1
 12  6  1  0
 13 15  1  0
 14 13  2  0
 15 16  1  0
 16 17  1  6
 16 19  1  0
 17 18  1  0
 19 21  2  0
 19 20  1  0
M  END
$$$$
