HLK.pdb
     RDKit          3D

 28 28  0  0  1  0  0  0  0  0999 V2000
   20.4517  -14.8921  -20.3926 N   0  0  0  0  0  0  0  0  0  0  0  0
   19.9389  -14.1199  -19.2821 C   0  0  1  0  0  0  0  0  0  0  0  0
   20.4867  -14.7201  -18.0163 C   0  0  0  0  0  0  0  0  0  0  0  0
   19.9408  -16.0991  -17.9062 C   0  0  0  0  0  0  0  0  0  0  0  0
   19.1449  -16.7700  -18.8109 C   0  0  0  0  0  0  0  0  0  0  0  0
   18.8652  -17.9989  -18.3392 N   0  0  0  0  0  0  0  0  0  0  0  0
   19.4771  -18.1177  -17.1390 C   0  0  0  0  0  0  0  0  0  0  0  0
   20.1253  -16.9676  -16.8823 N   0  0  0  0  0  0  0  0  0  0  0  0
   20.3162  -12.6894  -19.4382 C   0  0  0  0  0  0  0  0  0  0  0  0
   21.2309  -12.3433  -20.2647 O   0  0  0  0  0  0  0  0  0  0  0  0
   19.4219   -8.6127  -22.3741 C   0  0  0  0  0  0  0  0  0  0  0  0
   19.9414   -8.8030  -20.9839 C   0  0  1  0  0  0  0  0  0  0  0  0
   19.6829   -7.5573  -20.1279 C   0  0  0  0  0  0  0  0  0  0  0  0
   19.6157  -10.0464  -20.2808 C   0  0  0  0  0  0  0  0  0  0  0  0
   19.8754  -10.2575  -18.8548 C   0  0  2  0  0  0  0  0  0  0  0  0
   19.6590  -11.7211  -18.6700 N   0  0  0  0  0  0  0  0  0  0  0  0
   19.0742   -9.5933  -17.8416 C   0  0  0  0  0  0  0  0  0  0  0  0
   17.8348   -9.6881  -17.8116 O   0  0  0  0  0  0  0  0  0  0  0  0
   19.6560   -8.7869  -16.8172 N   0  0  0  0  0  0  0  0  0  0  0  0
   18.8638   -8.2157  -15.7848 C   0  0  1  0  0  0  0  0  0  0  0  0
   19.0112   -8.8788  -14.4341 C   0  0  0  0  0  0  0  0  0  0  0  0
   18.1401   -8.2234  -13.3938 C   0  0  0  0  0  0  0  0  0  0  0  0
   18.3501   -8.7920  -12.0138 C   0  0  0  0  0  0  0  0  0  0  0  0
   17.4189   -8.1064  -11.0394 C   0  0  0  0  0  0  0  0  0  0  0  0
   17.6319   -8.5811   -9.6903 N   0  0  0  0  0  0  0  0  0  0  0  0
   19.0815   -6.7454  -15.6531 C   0  0  0  0  0  0  0  0  0  0  0  0
   20.1853   -6.2554  -15.9153 O   0  0  0  0  0  0  0  0  0  0  0  0
   18.0323   -5.9075  -15.2298 O   0  0  0  0  0  0  0  0  0  0  0  0
  2  9  1  0
  2  1  1  6
  3  2  1  0
  4  3  1  0
  4  5  2  0
  6  5  1  0
  7  6  1  0
  8  7  2  0
  8  4  1  0
  9 10  2  0
 12 13  1  1
 12 11  1  0
 14 12  1  0
 15 14  1  6
 16 15  1  0
 16  9  1  0
 17 15  1  0
 18 17  2  0
 19 17  1  0
 20 21  1  1
 20 19  1  0
 22 23  1  0
 22 21  1  0
 23 24  1  0
 24 25  1  0
 26 20  1  0
 26 28  1  0
 27 26  2  0
M  END
$$$$
