HLK.pdb
     RDKit          3D

 28 28  0  0  1  0  0  0  0  0999 V2000
   21.8694  -12.8203  -18.6005 N   0  0  0  0  0  0  0  0  0  0  0  0
   21.0954  -12.6094  -17.3967 C   0  0  1  0  0  0  0  0  0  0  0  0
   21.0808  -13.9034  -16.6301 C   0  0  0  0  0  0  0  0  0  0  0  0
   20.3161  -14.8899  -17.4387 C   0  0  0  0  0  0  0  0  0  0  0  0
   19.0959  -15.4617  -17.1455 C   0  0  0  0  0  0  0  0  0  0  0  0
   18.7452  -16.3051  -18.1337 N   0  0  0  0  0  0  0  0  0  0  0  0
   19.7335  -16.2759  -19.0566 C   0  0  0  0  0  0  0  0  0  0  0  0
   20.6797  -15.4197  -18.6319 N   0  0  0  0  0  0  0  0  0  0  0  0
   21.6764  -11.4910  -16.6063 C   0  0  0  0  0  0  0  0  0  0  0  0
   21.1578  -11.1456  -15.4876 O   0  0  0  0  0  0  0  0  0  0  0  0
   27.1823  -10.7751  -16.4112 C   0  0  0  0  0  0  0  0  0  0  0  0
   25.7330  -10.7614  -16.0395 C   0  0  1  0  0  0  0  0  0  0  0  0
   25.5588  -10.7674  -14.5161 C   0  0  0  0  0  0  0  0  0  0  0  0
   24.8510   -9.7980  -16.7030 C   0  0  0  0  0  0  0  0  0  0  0  0
   23.4261   -9.6630  -16.3919 C   0  0  2  0  0  0  0  0  0  0  0  0
   22.8001  -10.8169  -17.0989 N   0  0  0  0  0  0  0  0  0  0  0  0
   22.6807   -8.4828  -16.7933 C   0  0  0  0  0  0  0  0  0  0  0  0
   22.6113   -8.1162  -17.9795 O   0  0  0  0  0  0  0  0  0  0  0  0
   21.9825   -7.6658  -15.8536 N   0  0  0  0  0  0  0  0  0  0  0  0
   21.3208   -6.4741  -16.2560 C   0  0  1  0  0  0  0  0  0  0  0  0
   19.8177   -6.5920  -16.3673 C   0  0  0  0  0  0  0  0  0  0  0  0
   19.4139   -7.5987  -17.4134 C   0  0  0  0  0  0  0  0  0  0  0  0
   17.9188   -7.7298  -17.5514 C   0  0  0  0  0  0  0  0  0  0  0  0
   17.5984   -8.6501  -18.7076 C   0  0  0  0  0  0  0  0  0  0  0  0
   16.1801   -8.9212  -18.7828 N   0  0  0  0  0  0  0  0  0  0  0  0
   21.6745   -5.3113  -15.3904 C   0  0  0  0  0  0  0  0  0  0  0  0
   21.8714   -5.4747  -14.1814 O   0  0  0  0  0  0  0  0  0  0  0  0
   21.7861   -4.0219  -15.9445 O   0  0  0  0  0  0  0  0  0  0  0  0
  2  9  1  0
  2  1  1  6
  3  2  1  0
  4  3  1  0
  4  5  2  0
  6  5  1  0
  7  6  1  0
  8  7  2  0
  8  4  1  0
  9 10  2  0
 12 13  1  1
 12 11  1  0
 14 12  1  0
 15 14  1  6
 16 15  1  0
 16  9  1  0
 17 15  1  0
 18 17  2  0
 19 17  1  0
 20 21  1  1
 20 19  1  0
 22 23  1  0
 22 21  1  0
 23 24  1  0
 24 25  1  0
 26 20  1  0
 26 28  1  0
 27 26  2  0
M  END
$$$$
