HLK.pdb
     RDKit          3D

 28 28  0  0  1  0  0  0  0  0999 V2000
   14.6706  -20.4528    1.3830 N   0  0  0  0  0  0  0  0  0  0  0  0
   14.3996  -19.2885    2.1975 C   0  0  1  0  0  0  0  0  0  0  0  0
   13.1699  -19.5779    3.0140 C   0  0  0  0  0  0  0  0  0  0  0  0
   12.0177  -19.6376    2.0757 C   0  0  0  0  0  0  0  0  0  0  0  0
   11.3604  -18.5857    1.4729 C   0  0  0  0  0  0  0  0  0  0  0  0
   10.3713  -19.0604    0.6937 N   0  0  0  0  0  0  0  0  0  0  0  0
   10.3922  -20.4089    0.7946 C   0  0  0  0  0  0  0  0  0  0  0  0
   11.3884  -20.7523    1.6304 N   0  0  0  0  0  0  0  0  0  0  0  0
   15.5801  -18.9738    3.0462 C   0  0  0  0  0  0  0  0  0  0  0  0
   16.3889  -19.8989    3.4062 O   0  0  0  0  0  0  0  0  0  0  0  0
   18.5396  -14.6659    1.7381 C   0  0  0  0  0  0  0  0  0  0  0  0
   18.1414  -15.9879    2.3147 C   0  0  1  0  0  0  0  0  0  0  0  0
   19.3120  -16.9775    2.2741 C   0  0  0  0  0  0  0  0  0  0  0  0
   17.4339  -16.0056    3.5974 C   0  0  0  0  0  0  0  0  0  0  0  0
   16.9848  -17.2361    4.2530 C   0  0  2  0  0  0  0  0  0  0  0  0
   15.7994  -17.6512    3.4494 N   0  0  0  0  0  0  0  0  0  0  0  0
   16.5579  -17.2318    5.6413 C   0  0  0  0  0  0  0  0  0  0  0  0
   15.4711  -16.7441    5.9974 O   0  0  0  0  0  0  0  0  0  0  0  0
   17.3583  -17.7838    6.6868 N   0  0  0  0  0  0  0  0  0  0  0  0
   16.9268  -17.7606    8.0407 C   0  0  1  0  0  0  0  0  0  0  0  0
   17.4192  -18.9167    8.8813 C   0  0  0  0  0  0  0  0  0  0  0  0
   17.0427  -20.2448    8.2769 C   0  0  0  0  0  0  0  0  0  0  0  0
   17.5861  -21.4156    9.0551 C   0  0  0  0  0  0  0  0  0  0  0  0
   17.2034  -22.7032    8.3607 C   0  0  0  0  0  0  0  0  0  0  0  0
   17.8421  -23.8421    8.9818 N   0  0  0  0  0  0  0  0  0  0  0  0
   17.2518  -16.4699    8.7154 C   0  0  0  0  0  0  0  0  0  0  0  0
   17.9899  -15.6483    8.1610 O   0  0  0  0  0  0  0  0  0  0  0  0
   16.7205  -16.1799    9.9864 O   0  0  0  0  0  0  0  0  0  0  0  0
  2  9  1  0
  2  1  1  1
  3  2  1  0
  4  3  1  0
  4  5  2  0
  6  5  1  0
  7  6  1  0
  8  7  2  0
  8  4  1  0
  9 10  2  0
 12 13  1  1
 12 11  1  0
 14 12  1  0
 15 14  1  6
 16 15  1  0
 16  9  1  0
 17 15  1  0
 18 17  2  0
 19 17  1  0
 20 21  1  1
 20 19  1  0
 22 23  1  0
 22 21  1  0
 23 24  1  0
 24 25  1  0
 26 20  1  0
 26 28  1  0
 27 26  2  0
M  END
$$$$
