HLK.pdb
     RDKit          3D

 28 28  0  0  1  0  0  0  0  0999 V2000
   26.6473  -23.1379  -15.6119 N   0  0  0  0  0  0  0  0  0  0  0  0
   26.4020  -21.8100  -15.0931 C   0  0  1  0  0  0  0  0  0  0  0  0
   26.0036  -20.9339  -16.2490 C   0  0  0  0  0  0  0  0  0  0  0  0
   27.2145  -20.7273  -17.0874 C   0  0  0  0  0  0  0  0  0  0  0  0
   28.4987  -21.1671  -16.8440 C   0  0  0  0  0  0  0  0  0  0  0  0
   29.3067  -20.7724  -17.8451 N   0  0  0  0  0  0  0  0  0  0  0  0
   28.5471  -20.0833  -18.7268 C   0  0  0  0  0  0  0  0  0  0  0  0
   27.2844  -20.0591  -18.2644 N   0  0  0  0  0  0  0  0  0  0  0  0
   25.3563  -21.8607  -14.0361 C   0  0  0  0  0  0  0  0  0  0  0  0
   24.5345  -22.8410  -13.9791 O   0  0  0  0  0  0  0  0  0  0  0  0
   26.3649  -19.6376   -8.8688 C   0  0  0  0  0  0  0  0  0  0  0  0
   25.7592  -20.5693   -9.8708 C   0  0  1  0  0  0  0  0  0  0  0  0
   25.0697  -21.7486   -9.1743 C   0  0  0  0  0  0  0  0  0  0  0  0
   24.9487  -20.0018  -10.9512 C   0  0  0  0  0  0  0  0  0  0  0  0
   24.2951  -20.8141  -11.9800 C   0  0  2  0  0  0  0  0  0  0  0  0
   25.2788  -20.8222  -13.1005 N   0  0  0  0  0  0  0  0  0  0  0  0
   23.0228  -20.4128  -12.5544 C   0  0  0  0  0  0  0  0  0  0  0  0
   21.9780  -20.3686  -11.8816 O   0  0  0  0  0  0  0  0  0  0  0  0
   22.8879  -20.0462  -13.9276 N   0  0  0  0  0  0  0  0  0  0  0  0
   21.6563  -19.5642  -14.4479 C   0  0  1  0  0  0  0  0  0  0  0  0
   21.7650  -18.8627  -15.7828 C   0  0  0  0  0  0  0  0  0  0  0  0
   20.4765  -18.1777  -16.1585 C   0  0  0  0  0  0  0  0  0  0  0  0
   20.5301  -17.5408  -17.5234 C   0  0  0  0  0  0  0  0  0  0  0  0
   19.2504  -16.7748  -17.7725 C   0  0  0  0  0  0  0  0  0  0  0  0
   19.2806  -16.1094  -19.0559 N   0  0  0  0  0  0  0  0  0  0  0  0
   20.6169  -20.6324  -14.5208 C   0  0  0  0  0  0  0  0  0  0  0  0
   20.9296  -21.7812  -14.8517 O   0  0  0  0  0  0  0  0  0  0  0  0
   19.2748  -20.3389  -14.2134 O   0  0  0  0  0  0  0  0  0  0  0  0
  2  9  1  0
  2  1  1  6
  3  2  1  0
  4  3  1  0
  4  5  2  0
  6  5  1  0
  7  6  1  0
  8  7  2  0
  8  4  1  0
  9 10  2  0
 12 13  1  1
 12 11  1  0
 14 12  1  0
 15 14  1  1
 16 15  1  0
 16  9  1  0
 17 15  1  0
 18 17  2  0
 19 17  1  0
 20 21  1  6
 20 19  1  0
 22 23  1  0
 22 21  1  0
 23 24  1  0
 24 25  1  0
 26 20  1  0
 26 28  1  0
 27 26  2  0
M  END
$$$$
