HLK.pdb
     RDKit          3D

 28 28  0  0  1  0  0  0  0  0999 V2000
   27.9098  -21.4247  -16.5822 N   0  0  0  0  0  0  0  0  0  0  0  0
   27.3778  -20.3606  -15.7592 C   0  0  1  0  0  0  0  0  0  0  0  0
   26.7975  -19.3196  -16.6768 C   0  0  0  0  0  0  0  0  0  0  0  0
   27.9342  -18.6467  -17.3602 C   0  0  0  0  0  0  0  0  0  0  0  0
   28.5325  -18.9959  -18.5527 C   0  0  0  0  0  0  0  0  0  0  0  0
   29.5278  -18.1326  -18.8264 N   0  0  0  0  0  0  0  0  0  0  0  0
   29.5694  -17.2339  -17.8166 C   0  0  0  0  0  0  0  0  0  0  0  0
   28.6049  -17.5490  -16.9338 N   0  0  0  0  0  0  0  0  0  0  0  0
   26.3680  -20.9048  -14.8120 C   0  0  0  0  0  0  0  0  0  0  0  0
   25.5491  -21.8157  -15.1850 O   0  0  0  0  0  0  0  0  0  0  0  0
   24.8581  -22.0356   -9.5342 C   0  0  0  0  0  0  0  0  0  0  0  0
   25.2088  -20.6374   -9.9353 C   0  0  1  0  0  0  0  0  0  0  0  0
   25.9001  -19.8954   -8.7852 C   0  0  0  0  0  0  0  0  0  0  0  0
   25.8759  -20.4268  -11.2225 C   0  0  0  0  0  0  0  0  0  0  0  0
   25.3123  -20.8612  -12.5027 C   0  0  2  0  0  0  0  0  0  0  0  0
   26.3213  -20.4096  -13.5034 N   0  0  0  0  0  0  0  0  0  0  0  0
   24.0276  -20.3634  -12.9625 C   0  0  0  0  0  0  0  0  0  0  0  0
   23.8570  -19.1759  -13.2892 O   0  0  0  0  0  0  0  0  0  0  0  0
   22.8775  -21.2029  -13.0664 N   0  0  0  0  0  0  0  0  0  0  0  0
   21.6121  -20.6815  -13.4491 C   0  0  1  0  0  0  0  0  0  0  0  0
   21.1622  -21.0696  -14.8394 C   0  0  0  0  0  0  0  0  0  0  0  0
   19.8106  -20.4909  -15.1692 C   0  0  0  0  0  0  0  0  0  0  0  0
   19.3522  -20.8354  -16.5631 C   0  0  0  0  0  0  0  0  0  0  0  0
   18.0565  -20.1145  -16.8599 C   0  0  0  0  0  0  0  0  0  0  0  0
   17.6024  -20.3877  -18.2052 N   0  0  0  0  0  0  0  0  0  0  0  0
   20.5431  -21.0101  -12.4612 C   0  0  0  0  0  0  0  0  0  0  0  0
   20.5887  -22.0697  -11.8269 O   0  0  0  0  0  0  0  0  0  0  0  0
   19.4770  -20.1164  -12.2454 O   0  0  0  0  0  0  0  0  0  0  0  0
  2  9  1  0
  2  1  1  6
  3  2  1  0
  4  3  1  0
  4  5  2  0
  6  5  1  0
  7  6  1  0
  8  7  2  0
  8  4  1  0
  9 10  2  0
 12 13  1  1
 12 11  1  0
 14 12  1  0
 15 14  1  1
 16 15  1  0
 16  9  1  0
 17 15  1  0
 18 17  2  0
 19 17  1  0
 20 21  1  6
 20 19  1  0
 22 23  1  0
 22 21  1  0
 23 24  1  0
 24 25  1  0
 26 20  1  0
 26 28  1  0
 27 26  2  0
M  END
$$$$
