HLK.pdb
     RDKit          3D

 28 28  0  0  1  0  0  0  0  0999 V2000
   36.9320  -31.2794  -15.4472 N   0  0  0  0  0  0  0  0  0  0  0  0
   36.0621  -32.3885  -15.7722 C   0  0  1  0  0  0  0  0  0  0  0  0
   34.8670  -32.3142  -14.8619 C   0  0  0  0  0  0  0  0  0  0  0  0
   35.3300  -32.6615  -13.4919 C   0  0  0  0  0  0  0  0  0  0  0  0
   36.5914  -33.0567  -13.0986 C   0  0  0  0  0  0  0  0  0  0  0  0
   36.6001  -33.2780  -11.7713 N   0  0  0  0  0  0  0  0  0  0  0  0
   35.3525  -33.0267  -11.3138 C   0  0  0  0  0  0  0  0  0  0  0  0
   34.5894  -32.6548  -12.3570 N   0  0  0  0  0  0  0  0  0  0  0  0
   35.6817  -32.3342  -17.2094 C   0  0  0  0  0  0  0  0  0  0  0  0
   35.7262  -31.2286  -17.8538 O   0  0  0  0  0  0  0  0  0  0  0  0
   36.6097  -36.5987  -20.8053 C   0  0  0  0  0  0  0  0  0  0  0  0
   36.4009  -35.2129  -20.2812 C   0  0  1  0  0  0  0  0  0  0  0  0
   36.9186  -34.1678  -21.2766 C   0  0  0  0  0  0  0  0  0  0  0  0
   35.0884  -34.8647  -19.7313 C   0  0  0  0  0  0  0  0  0  0  0  0
   34.7469  -33.5246  -19.2485 C   0  0  2  0  0  0  0  0  0  0  0  0
   35.2729  -33.5080  -17.8534 N   0  0  0  0  0  0  0  0  0  0  0  0
   33.3642  -33.0868  -19.1705 C   0  0  0  0  0  0  0  0  0  0  0  0
   32.6325  -33.0252  -20.1739 O   0  0  0  0  0  0  0  0  0  0  0  0
   32.7563  -32.6963  -17.9391 N   0  0  0  0  0  0  0  0  0  0  0  0
   31.3711  -32.3882  -17.8619 C   0  0  1  0  0  0  0  0  0  0  0  0
   30.6959  -32.8271  -16.5823 C   0  0  0  0  0  0  0  0  0  0  0  0
   29.2033  -32.6296  -16.6442 C   0  0  0  0  0  0  0  0  0  0  0  0
   28.5134  -32.9833  -15.3517 C   0  0  0  0  0  0  0  0  0  0  0  0
   27.0257  -32.7536  -15.4955 C   0  0  0  0  0  0  0  0  0  0  0  0
   26.3454  -32.9258  -14.2313 N   0  0  0  0  0  0  0  0  0  0  0  0
   31.0993  -30.9416  -18.1070 C   0  0  0  0  0  0  0  0  0  0  0  0
   30.1156  -30.5988  -18.7717 O   0  0  0  0  0  0  0  0  0  0  0  0
   31.9608  -29.9589  -17.5834 O   0  0  0  0  0  0  0  0  0  0  0  0
  2  9  1  0
  2  1  1  1
  3  2  1  0
  4  3  1  0
  4  5  2  0
  6  5  1  0
  7  6  1  0
  8  7  2  0
  8  4  1  0
  9 10  2  0
 12 13  1  6
 12 11  1  0
 14 12  1  0
 15 14  1  1
 16 15  1  0
 16  9  1  0
 17 15  1  0
 18 17  2  0
 19 17  1  0
 20 21  1  1
 20 19  1  0
 22 23  1  0
 22 21  1  0
 23 24  1  0
 24 25  1  0
 26 20  1  0
 26 28  1  0
 27 26  2  0
M  END
$$$$
