HLK.pdb
     RDKit          3D

 28 28  0  0  1  0  0  0  0  0999 V2000
   21.5529  -14.3026  -18.3008 N   0  0  0  0  0  0  0  0  0  0  0  0
   21.3218  -12.8789  -18.4111 C   0  0  1  0  0  0  0  0  0  0  0  0
   19.8384  -12.6480  -18.3186 C   0  0  0  0  0  0  0  0  0  0  0  0
   19.2052  -13.3678  -19.4556 C   0  0  0  0  0  0  0  0  0  0  0  0
   18.3529  -14.4508  -19.4036 C   0  0  0  0  0  0  0  0  0  0  0  0
   18.0009  -14.8066  -20.6527 N   0  0  0  0  0  0  0  0  0  0  0  0
   18.6226  -13.9580  -21.5026 C   0  0  0  0  0  0  0  0  0  0  0  0
   19.3486  -13.0911  -20.7745 N   0  0  0  0  0  0  0  0  0  0  0  0
   22.0732  -12.1565  -17.3496 C   0  0  0  0  0  0  0  0  0  0  0  0
   22.0447  -12.5670  -16.1371 O   0  0  0  0  0  0  0  0  0  0  0  0
   25.9754  -10.2888  -14.5604 C   0  0  0  0  0  0  0  0  0  0  0  0
   26.0887  -10.2342  -16.0513 C   0  0  1  0  0  0  0  0  0  0  0  0
   27.4324  -10.8058  -16.5192 C   0  0  0  0  0  0  0  0  0  0  0  0
   24.9622  -10.7147  -16.8553 C   0  0  0  0  0  0  0  0  0  0  0  0
   23.5901  -10.2292  -16.6911 C   0  0  2  0  0  0  0  0  0  0  0  0
   22.8148  -11.0191  -17.6903 N   0  0  0  0  0  0  0  0  0  0  0  0
   23.2565   -8.8347  -16.9228 C   0  0  0  0  0  0  0  0  0  0  0  0
   23.1240   -8.3678  -18.0675 O   0  0  0  0  0  0  0  0  0  0  0  0
   23.0622   -7.9094  -15.8531 N   0  0  0  0  0  0  0  0  0  0  0  0
   22.3666   -6.6857  -16.0495 C   0  0  1  0  0  0  0  0  0  0  0  0
   21.0218   -6.8243  -16.7263 C   0  0  0  0  0  0  0  0  0  0  0  0
   20.3795   -5.4829  -16.9689 C   0  0  0  0  0  0  0  0  0  0  0  0
   19.0833   -5.5853  -17.7311 C   0  0  0  0  0  0  0  0  0  0  0  0
   18.5373   -4.1982  -17.9849 C   0  0  0  0  0  0  0  0  0  0  0  0
   17.4412   -4.2321  -18.9273 N   0  0  0  0  0  0  0  0  0  0  0  0
   22.2183   -5.9104  -14.7832 C   0  0  0  0  0  0  0  0  0  0  0  0
   21.9869   -6.4963  -13.7201 O   0  0  0  0  0  0  0  0  0  0  0  0
   22.3408   -4.5079  -14.7912 O   0  0  0  0  0  0  0  0  0  0  0  0
  2  9  1  0
  2  1  1  1
  3  2  1  0
  4  3  1  0
  4  5  2  0
  6  5  1  0
  7  6  1  0
  8  7  2  0
  8  4  1  0
  9 10  2  0
 12 13  1  6
 12 11  1  0
 14 12  1  0
 15 14  1  6
 16 15  1  0
 16  9  1  0
 17 15  1  0
 18 17  2  0
 19 17  1  0
 20 21  1  1
 20 19  1  0
 22 23  1  0
 22 21  1  0
 23 24  1  0
 24 25  1  0
 26 20  1  0
 26 28  1  0
 27 26  2  0
M  END
$$$$
