HLK.pdb
     RDKit          3D

 28 28  0  0  1  0  0  0  0  0999 V2000
   23.7793  -20.3126  -14.4105 N   0  0  0  0  0  0  0  0  0  0  0  0
   22.9399  -19.8103  -13.3449 C   0  0  1  0  0  0  0  0  0  0  0  0
   21.5152  -19.8552  -13.8253 C   0  0  0  0  0  0  0  0  0  0  0  0
   21.4113  -18.9400  -14.9930 C   0  0  0  0  0  0  0  0  0  0  0  0
   21.1990  -19.2731  -16.3143 C   0  0  0  0  0  0  0  0  0  0  0  0
   21.1695  -18.1541  -17.0612 N   0  0  0  0  0  0  0  0  0  0  0  0
   21.3616  -17.1080  -16.2257 C   0  0  0  0  0  0  0  0  0  0  0  0
   21.5070  -17.5882  -14.9779 N   0  0  0  0  0  0  0  0  0  0  0  0
   23.1455  -20.6154  -12.1110 C   0  0  0  0  0  0  0  0  0  0  0  0
   22.9783  -21.8848  -12.1259 O   0  0  0  0  0  0  0  0  0  0  0  0
   26.4103  -21.5848   -7.9943 C   0  0  0  0  0  0  0  0  0  0  0  0
   25.5829  -20.3478   -7.8395 C   0  0  1  0  0  0  0  0  0  0  0  0
   26.3963  -19.2237   -7.1867 C   0  0  0  0  0  0  0  0  0  0  0  0
   24.8007  -19.8827   -8.9876 C   0  0  0  0  0  0  0  0  0  0  0  0
   23.7847  -20.7001   -9.6547 C   0  0  2  0  0  0  0  0  0  0  0  0
   23.5251  -19.9696  -10.9284 N   0  0  0  0  0  0  0  0  0  0  0  0
   22.4880  -20.9298   -9.0421 C   0  0  0  0  0  0  0  0  0  0  0  0
   21.5761  -20.0858   -9.0881 O   0  0  0  0  0  0  0  0  0  0  0  0
   22.1768  -22.1365   -8.3455 N   0  0  0  0  0  0  0  0  0  0  0  0
   20.9027  -22.3402   -7.7496 C   0  0  1  0  0  0  0  0  0  0  0  0
   20.0457  -23.3834   -8.4301 C   0  0  0  0  0  0  0  0  0  0  0  0
   18.7428  -23.5945   -7.7029 C   0  0  0  0  0  0  0  0  0  0  0  0
   17.8800  -24.6502   -8.3452 C   0  0  0  0  0  0  0  0  0  0  0  0
   16.6187  -24.8335   -7.5315 C   0  0  0  0  0  0  0  0  0  0  0  0
   15.7304  -25.7908   -8.1523 N   0  0  0  0  0  0  0  0  0  0  0  0
   21.0024  -22.6400   -6.2912 C   0  0  0  0  0  0  0  0  0  0  0  0
   22.0910  -22.9473   -5.7937 O   0  0  0  0  0  0  0  0  0  0  0  0
   19.8583  -22.5749   -5.4735 O   0  0  0  0  0  0  0  0  0  0  0  0
  2  9  1  0
  2  1  1  6
  3  2  1  0
  4  3  1  0
  4  5  2  0
  6  5  1  0
  7  6  1  0
  8  7  2  0
  8  4  1  0
  9 10  2  0
 12 13  1  6
 12 11  1  0
 14 12  1  0
 15 14  1  1
 16 15  1  0
 16  9  1  0
 17 15  1  0
 18 17  2  0
 19 17  1  0
 20 21  1  6
 20 19  1  0
 22 23  1  0
 22 21  1  0
 23 24  1  0
 24 25  1  0
 26 20  1  0
 26 28  1  0
 27 26  2  0
M  END
$$$$
