HLK.pdb
     RDKit          3D

 28 28  0  0  1  0  0  0  0  0999 V2000
   21.8990  -20.1095  -17.4238 N   0  0  0  0  0  0  0  0  0  0  0  0
   22.4527  -21.4213  -17.1686 C   0  0  1  0  0  0  0  0  0  0  0  0
   23.9258  -21.3617  -17.4665 C   0  0  0  0  0  0  0  0  0  0  0  0
   24.0742  -21.0241  -18.9072 C   0  0  0  0  0  0  0  0  0  0  0  0
   23.8280  -21.8330  -19.9967 C   0  0  0  0  0  0  0  0  0  0  0  0
   24.0843  -21.1528  -21.1292 N   0  0  0  0  0  0  0  0  0  0  0  0
   24.4927  -19.9144  -20.7704 C   0  0  0  0  0  0  0  0  0  0  0  0
   24.4848  -19.8420  -19.4275 N   0  0  0  0  0  0  0  0  0  0  0  0
   22.1763  -21.8271  -15.7642 C   0  0  0  0  0  0  0  0  0  0  0  0
   22.6446  -22.9242  -15.2989 O   0  0  0  0  0  0  0  0  0  0  0  0
   19.9616  -19.0753  -10.8810 C   0  0  0  0  0  0  0  0  0  0  0  0
   21.1720  -19.7683  -11.4229 C   0  0  1  0  0  0  0  0  0  0  0  0
   21.4734  -21.0445  -10.6280 C   0  0  0  0  0  0  0  0  0  0  0  0
   21.2715  -19.9702  -12.8705 C   0  0  0  0  0  0  0  0  0  0  0  0
   21.1377  -21.2800  -13.5124 C   0  0  2  0  0  0  0  0  0  0  0  0
   21.3963  -20.9947  -14.9528 N   0  0  0  0  0  0  0  0  0  0  0  0
   19.8867  -22.0159  -13.4582 C   0  0  0  0  0  0  0  0  0  0  0  0
   18.8319  -21.5632  -13.9363 O   0  0  0  0  0  0  0  0  0  0  0  0
   19.7855  -23.3040  -12.8509 N   0  0  0  0  0  0  0  0  0  0  0  0
   18.5270  -23.9364  -12.6608 C   0  0  1  0  0  0  0  0  0  0  0  0
   18.5725  -25.1982  -11.8292 C   0  0  0  0  0  0  0  0  0  0  0  0
   17.2219  -25.8619  -11.7499 C   0  0  0  0  0  0  0  0  0  0  0  0
   17.2583  -27.1731  -11.0077 C   0  0  0  0  0  0  0  0  0  0  0  0
   15.8547  -27.7228  -10.8871 C   0  0  0  0  0  0  0  0  0  0  0  0
   15.8197  -28.8824  -10.0240 N   0  0  0  0  0  0  0  0  0  0  0  0
   17.5031  -23.0025  -12.1077 C   0  0  0  0  0  0  0  0  0  0  0  0
   17.7792  -22.2780  -11.1454 O   0  0  0  0  0  0  0  0  0  0  0  0
   16.2173  -22.9406  -12.6776 O   0  0  0  0  0  0  0  0  0  0  0  0
  2  9  1  0
  2  1  1  1
  3  2  1  0
  4  3  1  0
  4  5  2  0
  6  5  1  0
  7  6  1  0
  8  7  2  0
  8  4  1  0
  9 10  2  0
 12 13  1  1
 12 11  1  0
 14 12  1  0
 15 14  1  1
 16 15  1  0
 16  9  1  0
 17 15  1  0
 18 17  2  0
 19 17  1  0
 20 21  1  1
 20 19  1  0
 22 23  1  0
 22 21  1  0
 23 24  1  0
 24 25  1  0
 26 20  1  0
 26 28  1  0
 27 26  2  0
M  END
$$$$
