HLK.pdb
     RDKit          3D

 28 28  0  0  1  0  0  0  0  0999 V2000
   19.9462   -6.8241  -18.0739 N   0  0  0  0  0  0  0  0  0  0  0  0
   20.1713   -5.9741  -16.9253 C   0  0  1  0  0  0  0  0  0  0  0  0
   19.5056   -4.6529  -17.1967 C   0  0  0  0  0  0  0  0  0  0  0  0
   20.2670   -3.9879  -18.2876 C   0  0  0  0  0  0  0  0  0  0  0  0
   19.8381   -3.6992  -19.5661 C   0  0  0  0  0  0  0  0  0  0  0  0
   20.8282   -3.0930  -20.2466 N   0  0  0  0  0  0  0  0  0  0  0  0
   21.8871   -2.9926  -19.4113 C   0  0  0  0  0  0  0  0  0  0  0  0
   21.5428   -3.5345  -18.2295 N   0  0  0  0  0  0  0  0  0  0  0  0
   19.6477   -6.6285  -15.6961 C   0  0  0  0  0  0  0  0  0  0  0  0
   18.4821   -7.1584  -15.6863 O   0  0  0  0  0  0  0  0  0  0  0  0
   22.9892  -10.0640  -13.5140 C   0  0  0  0  0  0  0  0  0  0  0  0
   21.6672   -9.4260  -13.8042 C   0  0  1  0  0  0  0  0  0  0  0  0
   20.5493  -10.4750  -13.8380 C   0  0  0  0  0  0  0  0  0  0  0  0
   21.2907   -8.2264  -13.0522 C   0  0  0  0  0  0  0  0  0  0  0  0
   20.0829   -7.4463  -13.3317 C   0  0  2  0  0  0  0  0  0  0  0  0
   20.4445   -6.6595  -14.5456 N   0  0  0  0  0  0  0  0  0  0  0  0
   19.5665   -6.4938  -12.3645 C   0  0  0  0  0  0  0  0  0  0  0  0
   20.2464   -5.5397  -11.9479 O   0  0  0  0  0  0  0  0  0  0  0  0
   18.2474   -6.5919  -11.8272 N   0  0  0  0  0  0  0  0  0  0  0  0
   17.7532   -5.6369  -10.8979 C   0  0  1  0  0  0  0  0  0  0  0  0
   16.3414   -5.1665  -11.1649 C   0  0  0  0  0  0  0  0  0  0  0  0
   16.3211   -3.8137  -11.8284 C   0  0  0  0  0  0  0  0  0  0  0  0
   14.9347   -3.3819  -12.2319 C   0  0  0  0  0  0  0  0  0  0  0  0
   15.0167   -2.0888  -13.0115 C   0  0  0  0  0  0  0  0  0  0  0  0
   13.7189   -1.6992  -13.5162 N   0  0  0  0  0  0  0  0  0  0  0  0
   17.8715   -6.1076   -9.4869 C   0  0  0  0  0  0  0  0  0  0  0  0
   17.4655   -5.3984   -8.5599 O   0  0  0  0  0  0  0  0  0  0  0  0
   18.4457   -7.3611   -9.2026 O   0  0  0  0  0  0  0  0  0  0  0  0
  2  9  1  0
  2  1  1  6
  3  2  1  0
  4  3  1  0
  4  5  2  0
  6  5  1  0
  7  6  1  0
  8  7  2  0
  8  4  1  0
  9 10  2  0
 12 13  1  1
 12 11  1  0
 14 12  1  0
 15 14  1  1
 16 15  1  0
 16  9  1  0
 17 15  1  0
 18 17  2  0
 19 17  1  0
 20 21  1  6
 20 19  1  0
 22 23  1  0
 22 21  1  0
 23 24  1  0
 24 25  1  0
 26 20  1  0
 26 28  1  0
 27 26  2  0
M  END
$$$$
