HLK.pdb
     RDKit          3D

 28 28  0  0  1  0  0  0  0  0999 V2000
   16.3926  -10.6868  -15.2502 N   0  0  0  0  0  0  0  0  0  0  0  0
   16.7093   -9.2757  -15.2186 C   0  0  1  0  0  0  0  0  0  0  0  0
   15.5215   -8.5283  -15.7598 C   0  0  0  0  0  0  0  0  0  0  0  0
   15.4443   -8.8128  -17.2175 C   0  0  0  0  0  0  0  0  0  0  0  0
   16.2462   -8.3128  -18.2220 C   0  0  0  0  0  0  0  0  0  0  0  0
   15.8502   -8.8152  -19.4059 N   0  0  0  0  0  0  0  0  0  0  0  0
   14.8004   -9.6331  -19.1645 C   0  0  0  0  0  0  0  0  0  0  0  0
   14.5595   -9.6280  -17.8413 N   0  0  0  0  0  0  0  0  0  0  0  0
   17.0537   -8.8613  -13.8320 C   0  0  0  0  0  0  0  0  0  0  0  0
   16.4704   -9.3997  -12.8272 O   0  0  0  0  0  0  0  0  0  0  0  0
   20.7976   -7.1045  -10.1064 C   0  0  0  0  0  0  0  0  0  0  0  0
   20.6767   -6.4192  -11.4309 C   0  0  1  0  0  0  0  0  0  0  0  0
   22.0518   -5.9781  -11.9463 C   0  0  0  0  0  0  0  0  0  0  0  0
   19.8615   -7.0502  -12.4718 C   0  0  0  0  0  0  0  0  0  0  0  0
   18.4573   -7.4210  -12.2814 C   0  0  2  0  0  0  0  0  0  0  0  0
   18.0253   -7.8730  -13.6350 N   0  0  0  0  0  0  0  0  0  0  0  0
   17.4773   -6.4424  -11.8437 C   0  0  0  0  0  0  0  0  0  0  0  0
   16.9839   -5.6071  -12.6216 O   0  0  0  0  0  0  0  0  0  0  0  0
   17.0193   -6.3734  -10.4933 N   0  0  0  0  0  0  0  0  0  0  0  0
   16.0472   -5.4187  -10.0888 C   0  0  1  0  0  0  0  0  0  0  0  0
   15.3416   -5.7451   -8.7921 C   0  0  0  0  0  0  0  0  0  0  0  0
   14.3136   -4.7012   -8.4395 C   0  0  0  0  0  0  0  0  0  0  0  0
   13.6286   -4.9767   -7.1255 C   0  0  0  0  0  0  0  0  0  0  0  0
   12.6744   -3.8473   -6.8084 C   0  0  0  0  0  0  0  0  0  0  0  0
   11.9570   -4.0987   -5.5784 N   0  0  0  0  0  0  0  0  0  0  0  0
   16.6045   -4.0359  -10.0275 C   0  0  0  0  0  0  0  0  0  0  0  0
   17.7489   -3.8462   -9.6014 O   0  0  0  0  0  0  0  0  0  0  0  0
   15.8314   -2.9395  -10.4542 O   0  0  0  0  0  0  0  0  0  0  0  0
  2  9  1  0
  2  1  1  1
  3  2  1  0
  4  3  1  0
  4  5  2  0
  6  5  1  0
  7  6  1  0
  8  7  2  0
  8  4  1  0
  9 10  2  0
 12 13  1  6
 12 11  1  0
 14 12  1  0
 15 14  1  6
 16 15  1  0
 16  9  1  0
 17 15  1  0
 18 17  2  0
 19 17  1  0
 20 21  1  1
 20 19  1  0
 22 23  1  0
 22 21  1  0
 23 24  1  0
 24 25  1  0
 26 20  1  0
 26 28  1  0
 27 26  2  0
M  END
$$$$
