HLK.pdb
     RDKit          3D

 28 28  0  0  1  0  0  0  0  0999 V2000
   16.3532  -12.0884  -10.3716 N   0  0  0  0  0  0  0  0  0  0  0  0
   15.8613  -10.8010  -10.8112 C   0  0  1  0  0  0  0  0  0  0  0  0
   14.4621  -10.6414  -10.2829 C   0  0  0  0  0  0  0  0  0  0  0  0
   13.6112  -11.6511  -10.9673 C   0  0  0  0  0  0  0  0  0  0  0  0
   13.1136  -12.8294  -10.4517 C   0  0  0  0  0  0  0  0  0  0  0  0
   12.3880  -13.4612  -11.3924 N   0  0  0  0  0  0  0  0  0  0  0  0
   12.4186  -12.6943  -12.5060 C   0  0  0  0  0  0  0  0  0  0  0  0
   13.1586  -11.6023  -12.2438 N   0  0  0  0  0  0  0  0  0  0  0  0
   16.7693   -9.7204  -10.3410 C   0  0  0  0  0  0  0  0  0  0  0  0
   17.1988   -9.7093   -9.1348 O   0  0  0  0  0  0  0  0  0  0  0  0
   20.3567   -5.5466  -12.1128 C   0  0  0  0  0  0  0  0  0  0  0  0
   20.4374   -6.9676  -11.6513 C   0  0  1  0  0  0  0  0  0  0  0  0
   21.1370   -7.0618  -10.2901 C   0  0  0  0  0  0  0  0  0  0  0  0
   19.2300   -7.7944  -11.7219 C   0  0  0  0  0  0  0  0  0  0  0  0
   18.0675   -7.5986  -10.8526 C   0  0  2  0  0  0  0  0  0  0  0  0
   17.1513   -8.7117  -11.2334 N   0  0  0  0  0  0  0  0  0  0  0  0
   17.2808   -6.3795  -10.9178 C   0  0  0  0  0  0  0  0  0  0  0  0
   16.6885   -6.0292  -11.9534 O   0  0  0  0  0  0  0  0  0  0  0  0
   17.1386   -5.5031   -9.7997 N   0  0  0  0  0  0  0  0  0  0  0  0
   16.3228   -4.3414   -9.8682 C   0  0  1  0  0  0  0  0  0  0  0  0
   15.6438   -3.9679   -8.5700 C   0  0  0  0  0  0  0  0  0  0  0  0
   14.3644   -4.7383   -8.3689 C   0  0  0  0  0  0  0  0  0  0  0  0
   13.6314   -4.3358   -7.1149 C   0  0  0  0  0  0  0  0  0  0  0  0
   12.3741   -5.1648   -6.9784 C   0  0  0  0  0  0  0  0  0  0  0  0
   11.6383   -4.8063   -5.7864 N   0  0  0  0  0  0  0  0  0  0  0  0
   17.0610   -3.1635  -10.4103 C   0  0  0  0  0  0  0  0  0  0  0  0
   18.2928   -3.1106  -10.3265 O   0  0  0  0  0  0  0  0  0  0  0  0
   16.3601   -2.1058  -11.0203 O   0  0  0  0  0  0  0  0  0  0  0  0
  2  9  1  0
  2  1  1  1
  3  2  1  0
  4  3  1  0
  4  5  2  0
  6  5  1  0
  7  6  1  0
  8  7  2  0
  8  4  1  0
  9 10  2  0
 12 13  1  1
 12 11  1  0
 14 12  1  0
 15 14  1  6
 16 15  1  0
 16  9  1  0
 17 15  1  0
 18 17  2  0
 19 17  1  0
 20 21  1  1
 20 19  1  0
 22 23  1  0
 22 21  1  0
 23 24  1  0
 24 25  1  0
 26 20  1  0
 26 28  1  0
 27 26  2  0
M  END
$$$$
