HLK.pdb
     RDKit          3D

 28 28  0  0  1  0  0  0  0  0999 V2000
   27.8012  -21.2914  -16.3753 N   0  0  0  0  0  0  0  0  0  0  0  0
   27.2447  -20.2638  -15.5226 C   0  0  1  0  0  0  0  0  0  0  0  0
   26.5710  -19.2510  -16.4074 C   0  0  0  0  0  0  0  0  0  0  0  0
   27.6407  -18.4987  -17.1156 C   0  0  0  0  0  0  0  0  0  0  0  0
   29.0061  -18.6356  -16.9779 C   0  0  0  0  0  0  0  0  0  0  0  0
   29.6299  -17.7692  -17.7971 N   0  0  0  0  0  0  0  0  0  0  0  0
   28.6720  -17.0795  -18.4574 C   0  0  0  0  0  0  0  0  0  0  0  0
   27.4726  -17.5240  -18.0421 N   0  0  0  0  0  0  0  0  0  0  0  0
   26.3056  -20.8694  -14.5405 C   0  0  0  0  0  0  0  0  0  0  0  0
   25.5755  -21.8690  -14.8682 O   0  0  0  0  0  0  0  0  0  0  0  0
   25.2674  -22.1141   -9.2922 C   0  0  0  0  0  0  0  0  0  0  0  0
   25.2317  -20.6653   -9.6643 C   0  0  1  0  0  0  0  0  0  0  0  0
   25.7792  -19.7948   -8.5269 C   0  0  0  0  0  0  0  0  0  0  0  0
   25.7494  -20.2682  -10.9760 C   0  0  0  0  0  0  0  0  0  0  0  0
   25.2323  -20.7974  -12.2401 C   0  0  2  0  0  0  0  0  0  0  0  0
   26.2273  -20.3340  -13.2495 N   0  0  0  0  0  0  0  0  0  0  0  0
   23.9271  -20.4015  -12.7393 C   0  0  0  0  0  0  0  0  0  0  0  0
   23.7398  -19.3130  -13.3105 O   0  0  0  0  0  0  0  0  0  0  0  0
   22.7747  -21.2335  -12.6044 N   0  0  0  0  0  0  0  0  0  0  0  0
   21.5030  -20.8212  -13.0867 C   0  0  1  0  0  0  0  0  0  0  0  0
   21.1851  -21.2692  -14.4952 C   0  0  0  0  0  0  0  0  0  0  0  0
   19.8586  -20.7303  -14.9650 C   0  0  0  0  0  0  0  0  0  0  0  0
   19.5420  -21.1163  -16.3871 C   0  0  0  0  0  0  0  0  0  0  0  0
   18.2772  -20.4155  -16.8296 C   0  0  0  0  0  0  0  0  0  0  0  0
   18.0292  -20.6246  -18.2387 N   0  0  0  0  0  0  0  0  0  0  0  0
   20.3952  -21.2154  -12.1680 C   0  0  0  0  0  0  0  0  0  0  0  0
   19.2317  -20.8847  -12.4209 O   0  0  0  0  0  0  0  0  0  0  0  0
   20.6678  -21.9659  -11.0085 O   0  0  0  0  0  0  0  0  0  0  0  0
  2  9  1  0
  2  1  1  6
  3  2  1  0
  4  3  1  0
  4  5  2  0
  6  5  1  0
  7  6  1  0
  8  7  2  0
  8  4  1  0
  9 10  2  0
 12 13  1  1
 12 11  1  0
 14 12  1  0
 15 14  1  1
 16 15  1  0
 16  9  1  0
 17 15  1  0
 18 17  2  0
 19 17  1  0
 20 21  1  6
 20 19  1  0
 22 23  1  0
 22 21  1  0
 23 24  1  0
 24 25  1  0
 26 20  1  0
 26 28  1  0
 27 26  2  0
M  END
$$$$
