MCF.pdb
     RDKit          3D

 26 26  0  0  1  0  0  0  0  0999 V2000
   27.4799  -25.2610  -16.4016 C   0  0  0  0  0  0  0  0  0  0  0  0
   29.1114  -24.8698  -17.0621 S   0  0  0  0  0  0  0  0  0  0  0  0
   29.8424  -26.2603  -17.9142 C   0  0  0  0  0  0  0  0  0  0  0  0
   28.8919  -27.3796  -18.1354 C   0  0  0  0  0  0  0  0  0  0  0  0
   29.3564  -28.7272  -17.7044 C   0  0  2  0  0  0  0  0  0  0  0  0
   30.4749  -29.2596  -18.4142 N   0  0  0  0  0  0  0  0  0  0  0  0
   28.2173  -29.6925  -17.7071 C   0  0  0  0  0  0  0  0  0  0  0  0
   27.4799  -29.8182  -18.7419 O   0  0  0  0  0  0  0  0  0  0  0  0
   27.8833  -30.5091  -16.6016 N   0  0  0  0  0  0  0  0  0  0  0  0
   26.7728  -31.4455  -16.6981 C   0  0  1  0  0  0  0  0  0  0  0  0
   27.1180  -32.7084  -15.9121 C   0  0  0  0  0  0  0  0  0  0  0  0
   27.8311  -32.2616  -14.3219 S   0  0  0  0  0  0  0  0  0  0  0  0
   25.6035  -30.8332  -16.0275 C   0  0  0  0  0  0  0  0  0  0  0  0
   25.8665  -29.9852  -15.1331 O   0  0  0  0  0  0  0  0  0  0  0  0
   24.2979  -31.1992  -16.3914 N   0  0  0  0  0  0  0  0  0  0  0  0
   23.1490  -30.5754  -15.7640 C   0  0  1  0  0  0  0  0  0  0  0  0
   22.8837  -29.2052  -16.2649 C   0  0  0  0  0  0  0  0  0  0  0  0
   21.6880  -28.6144  -15.6807 C   0  0  0  0  0  0  0  0  0  0  0  0
   20.4522  -28.8869  -16.2472 C   0  0  0  0  0  0  0  0  0  0  0  0
   19.3206  -28.3337  -15.6753 C   0  0  0  0  0  0  0  0  0  0  0  0
   19.4239  -27.5257  -14.5613 C   0  0  0  0  0  0  0  0  0  0  0  0
   20.6483  -27.2350  -13.9722 C   0  0  0  0  0  0  0  0  0  0  0  0
   21.7705  -27.8059  -14.5695 C   0  0  0  0  0  0  0  0  0  0  0  0
   21.9933  -31.5081  -15.8036 C   0  0  0  0  0  0  0  0  0  0  0  0
   21.0875  -31.6550  -14.7528 O   0  0  0  0  0  0  0  0  0  0  0  0
   21.7508  -32.2343  -16.7981 O   0  0  0  0  0  0  0  0  0  0  0  0
  2  1  1  0
  3  2  1  0
  4  3  1  0
  4  5  1  0
  5  7  1  0
  5  6  1  6
  7  8  2  0
  9  7  1  0
  9 10  1  0
 10 11  1  1
 11 12  1  0
 13 15  1  0
 13 10  1  0
 14 13  2  0
 16 15  1  0
 16 17  1  6
 18 17  1  0
 18 19  2  0
 20 19  1  0
 21 20  2  0
 22 23  2  0
 22 21  1  0
 23 18  1  0
 24 16  1  0
 24 25  1  0
 26 24  2  0
M  END
$$$$
