MCF.pdb
     RDKit          3D

 26 26  0  0  1  0  0  0  0  0999 V2000
   28.7924  -15.3640  -18.6788 C   0  0  0  0  0  0  0  0  0  0  0  0
   29.1383  -16.2170  -17.1284 S   0  0  0  0  0  0  0  0  0  0  0  0
   27.8475  -15.9623  -15.9190 C   0  0  0  0  0  0  0  0  0  0  0  0
   26.8180  -17.0326  -15.9240 C   0  0  0  0  0  0  0  0  0  0  0  0
   27.2060  -18.3104  -16.5831 C   0  0  2  0  0  0  0  0  0  0  0  0
   27.4337  -18.2438  -17.9909 N   0  0  0  0  0  0  0  0  0  0  0  0
   26.2195  -19.3821  -16.2548 C   0  0  0  0  0  0  0  0  0  0  0  0
   25.1383  -19.4918  -16.9250 O   0  0  0  0  0  0  0  0  0  0  0  0
   26.4044  -20.3209  -15.2131 N   0  0  0  0  0  0  0  0  0  0  0  0
   25.4053  -21.3535  -14.9787 C   0  0  1  0  0  0  0  0  0  0  0  0
   26.0806  -22.7217  -15.0418 C   0  0  0  0  0  0  0  0  0  0  0  0
   24.8901  -24.0090  -14.6384 S   0  0  0  0  0  0  0  0  0  0  0  0
   24.9010  -21.1912  -13.5963 C   0  0  0  0  0  0  0  0  0  0  0  0
   25.6634  -21.6055  -12.6824 O   0  0  0  0  0  0  0  0  0  0  0  0
   23.6465  -20.6080  -13.3568 N   0  0  0  0  0  0  0  0  0  0  0  0
   23.0677  -20.6101  -12.0273 C   0  0  1  0  0  0  0  0  0  0  0  0
   23.5512  -19.4941  -11.1792 C   0  0  0  0  0  0  0  0  0  0  0  0
   24.3124  -19.9529  -10.0258 C   0  0  0  0  0  0  0  0  0  0  0  0
   23.6565  -20.1654   -8.8229 C   0  0  0  0  0  0  0  0  0  0  0  0
   24.3857  -20.6166   -7.7373 C   0  0  0  0  0  0  0  0  0  0  0  0
   25.7409  -20.8497   -7.8533 C   0  0  0  0  0  0  0  0  0  0  0  0
   26.4248  -20.6455   -9.0455 C   0  0  0  0  0  0  0  0  0  0  0  0
   25.6649  -20.1911  -10.1217 C   0  0  0  0  0  0  0  0  0  0  0  0
   21.5918  -20.7469  -12.1278 C   0  0  0  0  0  0  0  0  0  0  0  0
   20.7712  -21.0437  -11.0392 O   0  0  0  0  0  0  0  0  0  0  0  0
   20.9765  -20.6014  -13.2121 O   0  0  0  0  0  0  0  0  0  0  0  0
  2  1  1  0
  3  2  1  0
  4  3  1  0
  4  5  1  0
  5  7  1  0
  5  6  1  6
  7  8  2  0
  9  7  1  0
  9 10  1  0
 10 11  1  1
 11 12  1  0
 13 15  1  0
 13 10  1  0
 14 13  2  0
 16 15  1  0
 16 17  1  6
 18 17  1  0
 18 19  2  0
 20 19  1  0
 21 20  2  0
 22 23  2  0
 22 21  1  0
 23 18  1  0
 24 16  1  0
 24 25  1  0
 26 24  2  0
M  END
$$$$
