MCF.pdb
     RDKit          3D

 26 26  0  0  1  0  0  0  0  0999 V2000
   29.0938  -18.0022   -6.0171 C   0  0  0  0  0  0  0  0  0  0  0  0
   27.9205  -19.3311   -5.6876 S   0  0  0  0  0  0  0  0  0  0  0  0
   27.9950  -20.6158   -6.9277 C   0  0  0  0  0  0  0  0  0  0  0  0
   27.3746  -20.2232   -8.2185 C   0  0  0  0  0  0  0  0  0  0  0  0
   27.5030  -21.2043   -9.3313 C   0  0  2  0  0  0  0  0  0  0  0  0
   28.8352  -21.5701   -9.6918 N   0  0  0  0  0  0  0  0  0  0  0  0
   26.7395  -20.7351  -10.5256 C   0  0  0  0  0  0  0  0  0  0  0  0
   27.2376  -19.8554  -11.3057 O   0  0  0  0  0  0  0  0  0  0  0  0
   25.4532  -21.2138  -10.8675 N   0  0  0  0  0  0  0  0  0  0  0  0
   24.8627  -20.8601  -12.1502 C   0  0  1  0  0  0  0  0  0  0  0  0
   25.0222  -22.0356  -13.1117 C   0  0  0  0  0  0  0  0  0  0  0  0
   25.3008  -23.5508  -12.1821 S   0  0  0  0  0  0  0  0  0  0  0  0
   23.4086  -20.6733  -11.9441 C   0  0  0  0  0  0  0  0  0  0  0  0
   22.9091  -21.2942  -10.9678 O   0  0  0  0  0  0  0  0  0  0  0  0
   22.6648  -19.8486  -12.8030 N   0  0  0  0  0  0  0  0  0  0  0  0
   21.2360  -19.6820  -12.6206 C   0  0  1  0  0  0  0  0  0  0  0  0
   20.7121  -18.4352  -13.2285 C   0  0  0  0  0  0  0  0  0  0  0  0
   20.9055  -18.3882  -14.6710 C   0  0  0  0  0  0  0  0  0  0  0  0
   22.0876  -17.8717  -15.1790 C   0  0  0  0  0  0  0  0  0  0  0  0
   22.2683  -17.8461  -16.5503 C   0  0  0  0  0  0  0  0  0  0  0  0
   21.2876  -18.3267  -17.3940 C   0  0  0  0  0  0  0  0  0  0  0  0
   20.0933  -18.8498  -16.9137 C   0  0  0  0  0  0  0  0  0  0  0  0
   19.9390  -18.8629  -15.5288 C   0  0  0  0  0  0  0  0  0  0  0  0
   20.5354  -20.9315  -13.0144 C   0  0  0  0  0  0  0  0  0  0  0  0
   21.1228  -21.9300  -13.7919 O   0  0  0  0  0  0  0  0  0  0  0  0
   19.3539  -21.1761  -12.6685 O   0  0  0  0  0  0  0  0  0  0  0  0
  2  1  1  0
  3  2  1  0
  4  3  1  0
  4  5  1  0
  5  7  1  0
  5  6  1  6
  7  8  2  0
  9  7  1  0
  9 10  1  0
 10 11  1  6
 11 12  1  0
 13 15  1  0
 13 10  1  0
 14 13  2  0
 16 15  1  0
 16 17  1  6
 18 17  1  0
 18 19  2  0
 20 19  1  0
 21 20  2  0
 22 23  2  0
 22 21  1  0
 23 18  1  0
 24 16  1  0
 24 25  1  0
 26 24  2  0
M  END
$$$$
