MCF.pdb
     RDKit          3D

 26 26  0  0  1  0  0  0  0  0999 V2000
   32.6337  -23.7207   -9.5505 C   0  0  0  0  0  0  0  0  0  0  0  0
   33.5631  -23.2892  -11.0340 S   0  0  0  0  0  0  0  0  0  0  0  0
   32.4904  -22.8729  -12.4015 C   0  0  0  0  0  0  0  0  0  0  0  0
   31.4452  -21.8794  -12.0470 C   0  0  0  0  0  0  0  0  0  0  0  0
   30.4789  -21.5331  -13.1259 C   0  0  2  0  0  0  0  0  0  0  0  0
   31.0391  -20.9552  -14.3051 N   0  0  0  0  0  0  0  0  0  0  0  0
   29.3830  -20.6762  -12.5835 C   0  0  0  0  0  0  0  0  0  0  0  0
   29.3822  -19.4173  -12.7965 O   0  0  0  0  0  0  0  0  0  0  0  0
   28.3037  -21.1793  -11.8201 N   0  0  0  0  0  0  0  0  0  0  0  0
   27.2017  -20.3021  -11.4523 C   0  0  1  0  0  0  0  0  0  0  0  0
   26.1942  -20.2624  -12.5992 C   0  0  0  0  0  0  0  0  0  0  0  0
   24.7851  -19.2428  -12.1386 S   0  0  0  0  0  0  0  0  0  0  0  0
   26.5055  -20.9089  -10.2953 C   0  0  0  0  0  0  0  0  0  0  0  0
   26.2721  -22.1443  -10.3822 O   0  0  0  0  0  0  0  0  0  0  0  0
   26.1431  -20.1258   -9.1877 N   0  0  0  0  0  0  0  0  0  0  0  0
   25.4634  -20.7158   -8.0509 C   0  0  1  0  0  0  0  0  0  0  0  0
   25.4759  -19.8472   -6.8491 C   0  0  0  0  0  0  0  0  0  0  0  0
   26.8030  -19.7145   -6.2648 C   0  0  0  0  0  0  0  0  0  0  0  0
   27.4046  -20.8245   -5.6920 C   0  0  0  0  0  0  0  0  0  0  0  0
   28.6720  -20.6919   -5.1536 C   0  0  0  0  0  0  0  0  0  0  0  0
   29.3224  -19.4752   -5.1880 C   0  0  0  0  0  0  0  0  0  0  0  0
   28.7446  -18.3460   -5.7551 C   0  0  0  0  0  0  0  0  0  0  0  0
   27.4680  -18.5093   -6.2894 C   0  0  0  0  0  0  0  0  0  0  0  0
   24.1270  -21.2095   -8.4719 C   0  0  0  0  0  0  0  0  0  0  0  0
   23.3613  -22.0966   -7.7147 O   0  0  0  0  0  0  0  0  0  0  0  0
   23.5899  -20.8561   -9.5499 O   0  0  0  0  0  0  0  0  0  0  0  0
  2  1  1  0
  3  2  1  0
  4  3  1  0
  4  5  1  0
  5  7  1  0
  5  6  1  6
  7  8  2  0
  9  7  1  0
  9 10  1  0
 10 11  1  6
 11 12  1  0
 13 15  1  0
 13 10  1  0
 14 13  2  0
 16 15  1  0
 16 17  1  1
 18 17  1  0
 18 19  2  0
 20 19  1  0
 21 20  2  0
 22 23  2  0
 22 21  1  0
 23 18  1  0
 24 16  1  0
 24 25  1  0
 26 24  2  0
M  END
$$$$
