MCF.pdb
     RDKit          3D

 26 26  0  0  1  0  0  0  0  0999 V2000
   29.0130  -15.6482  -16.1973 C   0  0  0  0  0  0  0  0  0  0  0  0
   29.8364  -17.1988  -16.6080 S   0  0  0  0  0  0  0  0  0  0  0  0
   28.7560  -18.6077  -16.4043 C   0  0  0  0  0  0  0  0  0  0  0  0
   27.8016  -18.4581  -15.2765 C   0  0  0  0  0  0  0  0  0  0  0  0
   26.8926  -19.6119  -15.0313 C   0  0  2  0  0  0  0  0  0  0  0  0
   26.0035  -19.9450  -16.0976 N   0  0  0  0  0  0  0  0  0  0  0  0
   26.1421  -19.4172  -13.7553 C   0  0  0  0  0  0  0  0  0  0  0  0
   25.6484  -18.2762  -13.4642 O   0  0  0  0  0  0  0  0  0  0  0  0
   25.9313  -20.4467  -12.8086 N   0  0  0  0  0  0  0  0  0  0  0  0
   25.1019  -20.1998  -11.6379 C   0  0  1  0  0  0  0  0  0  0  0  0
   23.8867  -21.1232  -11.6863 C   0  0  0  0  0  0  0  0  0  0  0  0
   22.9326  -20.9562  -10.1700 S   0  0  0  0  0  0  0  0  0  0  0  0
   25.8818  -20.5852  -10.4400 C   0  0  0  0  0  0  0  0  0  0  0  0
   26.3148  -21.7686  -10.4251 O   0  0  0  0  0  0  0  0  0  0  0  0
   26.1045  -19.6632   -9.4049 N   0  0  0  0  0  0  0  0  0  0  0  0
   26.7158  -20.0796   -8.1576 C   0  0  1  0  0  0  0  0  0  0  0  0
   27.5681  -19.0308   -7.5475 C   0  0  0  0  0  0  0  0  0  0  0  0
   28.1061  -19.4255   -6.2533 C   0  0  0  0  0  0  0  0  0  0  0  0
   29.1949  -20.2825   -6.2056 C   0  0  0  0  0  0  0  0  0  0  0  0
   29.7086  -20.6390   -4.9716 C   0  0  0  0  0  0  0  0  0  0  0  0
   29.1447  -20.1486   -3.8114 C   0  0  0  0  0  0  0  0  0  0  0  0
   28.0534  -19.2887   -3.8282 C   0  0  0  0  0  0  0  0  0  0  0  0
   27.5574  -18.9469   -5.0848 C   0  0  0  0  0  0  0  0  0  0  0  0
   25.6802  -20.6635   -7.2668 C   0  0  0  0  0  0  0  0  0  0  0  0
   25.8893  -21.8014   -6.4872 O   0  0  0  0  0  0  0  0  0  0  0  0
   24.5338  -20.1650   -7.1536 O   0  0  0  0  0  0  0  0  0  0  0  0
  2  1  1  0
  3  2  1  0
  4  3  1  0
  4  5  1  0
  5  7  1  0
  5  6  1  6
  7  8  2  0
  9  7  1  0
  9 10  1  0
 10 11  1  6
 11 12  1  0
 13 15  1  0
 13 10  1  0
 14 13  2  0
 16 15  1  0
 16 17  1  1
 18 17  1  0
 18 19  2  0
 20 19  1  0
 21 20  2  0
 22 23  2  0
 22 21  1  0
 23 18  1  0
 24 16  1  0
 24 25  1  0
 26 24  2  0
M  END
$$$$
