MCF.pdb
     RDKit          3D

 26 26  0  0  1  0  0  0  0  0999 V2000
   28.4454  -26.9550  -20.5511 C   0  0  0  0  0  0  0  0  0  0  0  0
   29.1693  -27.2659  -22.1729 S   0  0  0  0  0  0  0  0  0  0  0  0
   30.9203  -27.6091  -22.0725 C   0  0  0  0  0  0  0  0  0  0  0  0
   31.2284  -28.9038  -21.4136 C   0  0  0  0  0  0  0  0  0  0  0  0
   32.6714  -29.1984  -21.1929 C   0  0  2  0  0  0  0  0  0  0  0  0
   33.4813  -29.2714  -22.3663 N   0  0  0  0  0  0  0  0  0  0  0  0
   32.8269  -30.4297  -20.3628 C   0  0  0  0  0  0  0  0  0  0  0  0
   32.8103  -31.5834  -20.9096 O   0  0  0  0  0  0  0  0  0  0  0  0
   32.9974  -30.4085  -18.9588 N   0  0  0  0  0  0  0  0  0  0  0  0
   33.2530  -31.6473  -18.2382 C   0  0  1  0  0  0  0  0  0  0  0  0
   34.5246  -31.4862  -17.4084 C   0  0  0  0  0  0  0  0  0  0  0  0
   35.9003  -31.0425  -18.4797 S   0  0  0  0  0  0  0  0  0  0  0  0
   32.1429  -31.8522  -17.2804 C   0  0  0  0  0  0  0  0  0  0  0  0
   31.5743  -30.8058  -16.8681 O   0  0  0  0  0  0  0  0  0  0  0  0
   31.7746  -33.1462  -16.8789 N   0  0  0  0  0  0  0  0  0  0  0  0
   30.5887  -33.3652  -16.0738 C   0  0  1  0  0  0  0  0  0  0  0  0
   29.4360  -32.5332  -16.4956 C   0  0  0  0  0  0  0  0  0  0  0  0
   28.2140  -32.8573  -15.7732 C   0  0  0  0  0  0  0  0  0  0  0  0
   28.0540  -32.4000  -14.4741 C   0  0  0  0  0  0  0  0  0  0  0  0
   26.8828  -32.6998  -13.8019 C   0  0  0  0  0  0  0  0  0  0  0  0
   25.8940  -33.4409  -14.4163 C   0  0  0  0  0  0  0  0  0  0  0  0
   26.0264  -33.9126  -15.7165 C   0  0  0  0  0  0  0  0  0  0  0  0
   27.2162  -33.5954  -16.3690 C   0  0  0  0  0  0  0  0  0  0  0  0
   30.3227  -34.8229  -15.9665 C   0  0  0  0  0  0  0  0  0  0  0  0
   30.8322  -35.7653  -16.8602 O   0  0  0  0  0  0  0  0  0  0  0  0
   29.6140  -35.3103  -15.0525 O   0  0  0  0  0  0  0  0  0  0  0  0
  2  1  1  0
  3  2  1  0
  4  3  1  0
  4  5  1  0
  5  7  1  0
  5  6  1  6
  7  8  2  0
  9  7  1  0
  9 10  1  0
 10 11  1  1
 11 12  1  0
 13 15  1  0
 13 10  1  0
 14 13  2  0
 16 15  1  0
 16 17  1  6
 18 17  1  0
 18 19  2  0
 20 19  1  0
 21 20  2  0
 22 23  2  0
 22 21  1  0
 23 18  1  0
 24 16  1  0
 24 25  1  0
 26 24  2  0
M  END
$$$$
