MCF.pdb
     RDKit          3D

 26 26  0  0  1  0  0  0  0  0999 V2000
   32.3984  -22.6329  -14.8710 C   0  0  0  0  0  0  0  0  0  0  0  0
   32.2000  -24.1549  -15.8170 S   0  0  0  0  0  0  0  0  0  0  0  0
   31.7990  -23.8346  -17.5288 C   0  0  0  0  0  0  0  0  0  0  0  0
   30.5851  -22.9968  -17.7012 C   0  0  0  0  0  0  0  0  0  0  0  0
   29.2993  -23.7320  -17.8555 C   0  0  2  0  0  0  0  0  0  0  0  0
   29.1356  -24.4563  -19.0749 N   0  0  0  0  0  0  0  0  0  0  0  0
   28.1462  -22.8117  -17.6255 C   0  0  0  0  0  0  0  0  0  0  0  0
   27.7962  -21.9775  -18.5267 O   0  0  0  0  0  0  0  0  0  0  0  0
   27.3846  -22.7970  -16.4338 N   0  0  0  0  0  0  0  0  0  0  0  0
   26.3277  -21.8114  -16.2581 C   0  0  1  0  0  0  0  0  0  0  0  0
   25.1044  -22.2459  -17.0622 C   0  0  0  0  0  0  0  0  0  0  0  0
   24.6412  -23.9245  -16.6092 S   0  0  0  0  0  0  0  0  0  0  0  0
   25.9270  -21.8251  -14.8329 C   0  0  0  0  0  0  0  0  0  0  0  0
   25.9502  -22.9513  -14.2678 O   0  0  0  0  0  0  0  0  0  0  0  0
   25.5504  -20.6381  -14.1846 N   0  0  0  0  0  0  0  0  0  0  0  0
   25.1111  -20.6531  -12.8028 C   0  0  1  0  0  0  0  0  0  0  0  0
   25.9666  -19.8346  -11.9102 C   0  0  0  0  0  0  0  0  0  0  0  0
   27.2982  -20.3976  -11.7358 C   0  0  0  0  0  0  0  0  0  0  0  0
   28.3081  -20.0314  -12.6123 C   0  0  0  0  0  0  0  0  0  0  0  0
   29.5735  -20.5594  -12.4286 C   0  0  0  0  0  0  0  0  0  0  0  0
   29.8221  -21.4344  -11.3908 C   0  0  0  0  0  0  0  0  0  0  0  0
   28.8302  -21.8194  -10.4972 C   0  0  0  0  0  0  0  0  0  0  0  0
   27.5659  -21.2719  -10.7066 C   0  0  0  0  0  0  0  0  0  0  0  0
   23.6556  -20.3621  -12.7406 C   0  0  0  0  0  0  0  0  0  0  0  0
   22.9169  -19.8984  -13.8296 O   0  0  0  0  0  0  0  0  0  0  0  0
   22.9844  -20.5171  -11.6914 O   0  0  0  0  0  0  0  0  0  0  0  0
  2  1  1  0
  3  2  1  0
  4  3  1  0
  4  5  1  0
  5  7  1  0
  5  6  1  6
  7  8  2  0
  9  7  1  0
  9 10  1  0
 10 11  1  6
 11 12  1  0
 13 15  1  0
 13 10  1  0
 14 13  2  0
 16 15  1  0
 16 17  1  1
 18 17  1  0
 18 19  2  0
 20 19  1  0
 21 20  2  0
 22 23  2  0
 22 21  1  0
 23 18  1  0
 24 16  1  0
 24 25  1  0
 26 24  2  0
M  END
$$$$
