MCF.pdb
     RDKit          3D

 26 26  0  0  1  0  0  0  0  0999 V2000
   28.8576  -18.2572  -14.0501 C   0  0  0  0  0  0  0  0  0  0  0  0
   29.0810  -18.0619  -15.8285 S   0  0  0  0  0  0  0  0  0  0  0  0
   27.8432  -18.9500  -16.7627 C   0  0  0  0  0  0  0  0  0  0  0  0
   26.9115  -19.7310  -15.9099 C   0  0  0  0  0  0  0  0  0  0  0  0
   27.4590  -20.9839  -15.3200 C   0  0  2  0  0  0  0  0  0  0  0  0
   27.8846  -21.9793  -16.2508 N   0  0  0  0  0  0  0  0  0  0  0  0
   26.4945  -21.5562  -14.3343 C   0  0  0  0  0  0  0  0  0  0  0  0
   25.6763  -22.4705  -14.6877 O   0  0  0  0  0  0  0  0  0  0  0  0
   26.4193  -21.1411  -12.9842 N   0  0  0  0  0  0  0  0  0  0  0  0
   25.2928  -21.5520  -12.1586 C   0  0  1  0  0  0  0  0  0  0  0  0
   25.6561  -21.3547  -10.6887 C   0  0  0  0  0  0  0  0  0  0  0  0
   26.3296  -19.7045  -10.4427 S   0  0  0  0  0  0  0  0  0  0  0  0
   24.1638  -20.6379  -12.4443 C   0  0  0  0  0  0  0  0  0  0  0  0
   24.4778  -19.5005  -12.8872 O   0  0  0  0  0  0  0  0  0  0  0  0
   22.8391  -21.0469  -12.2231 N   0  0  0  0  0  0  0  0  0  0  0  0
   21.7721  -20.6206  -13.1076 C   0  0  1  0  0  0  0  0  0  0  0  0
   22.0568  -20.8920  -14.5373 C   0  0  0  0  0  0  0  0  0  0  0  0
   20.9651  -20.4923  -15.4140 C   0  0  0  0  0  0  0  0  0  0  0  0
   20.2332  -21.4689  -16.0721 C   0  0  0  0  0  0  0  0  0  0  0  0
   19.1878  -21.0798  -16.8903 C   0  0  0  0  0  0  0  0  0  0  0  0
   18.8821  -19.7431  -17.0463 C   0  0  0  0  0  0  0  0  0  0  0  0
   19.5978  -18.7427  -16.3999 C   0  0  0  0  0  0  0  0  0  0  0  0
   20.6448  -19.1640  -15.5825 C   0  0  0  0  0  0  0  0  0  0  0  0
   20.4728  -21.1347  -12.6033 C   0  0  0  0  0  0  0  0  0  0  0  0
   19.3740  -20.3175  -12.3361 O   0  0  0  0  0  0  0  0  0  0  0  0
   20.2736  -22.3541  -12.3823 O   0  0  0  0  0  0  0  0  0  0  0  0
  2  1  1  0
  3  2  1  0
  4  3  1  0
  4  5  1  0
  5  7  1  0
  5  6  1  6
  7  8  2  0
  9  7  1  0
  9 10  1  0
 10 11  1  1
 11 12  1  0
 13 15  1  0
 13 10  1  0
 14 13  2  0
 16 15  1  0
 16 17  1  6
 18 17  1  0
 18 19  2  0
 20 19  1  0
 21 20  2  0
 22 23  2  0
 22 21  1  0
 23 18  1  0
 24 16  1  0
 24 25  1  0
 26 24  2  0
M  END
$$$$
