MCF.pdb
     RDKit          3D

 26 26  0  0  1  0  0  0  0  0999 V2000
   30.0569  -19.6946  -18.2403 C   0  0  0  0  0  0  0  0  0  0  0  0
   28.3081  -19.2614  -18.1705 S   0  0  0  0  0  0  0  0  0  0  0  0
   27.8841  -18.4214  -16.6512 C   0  0  0  0  0  0  0  0  0  0  0  0
   27.0007  -19.2207  -15.7646 C   0  0  0  0  0  0  0  0  0  0  0  0
   27.6385  -20.3763  -15.0751 C   0  0  2  0  0  0  0  0  0  0  0  0
   28.1439  -21.4085  -15.9221 N   0  0  0  0  0  0  0  0  0  0  0  0
   26.7147  -20.9386  -14.0457 C   0  0  0  0  0  0  0  0  0  0  0  0
   25.9153  -21.8881  -14.3452 O   0  0  0  0  0  0  0  0  0  0  0  0
   26.6593  -20.4760  -12.7102 N   0  0  0  0  0  0  0  0  0  0  0  0
   25.6967  -21.0498  -11.7810 C   0  0  1  0  0  0  0  0  0  0  0  0
   25.9523  -20.4815  -10.3868 C   0  0  0  0  0  0  0  0  0  0  0  0
   24.6740  -21.0465   -9.2538 S   0  0  0  0  0  0  0  0  0  0  0  0
   24.3478  -20.5932  -12.1858 C   0  0  0  0  0  0  0  0  0  0  0  0
   24.2134  -19.3497  -12.3406 O   0  0  0  0  0  0  0  0  0  0  0  0
   23.3076  -21.5168  -12.3759 N   0  0  0  0  0  0  0  0  0  0  0  0
   21.9762  -21.0720  -12.7397 C   0  0  1  0  0  0  0  0  0  0  0  0
   21.5653  -21.5105  -14.0953 C   0  0  0  0  0  0  0  0  0  0  0  0
   22.0084  -20.5981  -15.1400 C   0  0  0  0  0  0  0  0  0  0  0  0
   21.3126  -19.4168  -15.3470 C   0  0  0  0  0  0  0  0  0  0  0  0
   21.7509  -18.5493  -16.3314 C   0  0  0  0  0  0  0  0  0  0  0  0
   22.8608  -18.8574  -17.0914 C   0  0  0  0  0  0  0  0  0  0  0  0
   23.5776  -20.0334  -16.9068 C   0  0  0  0  0  0  0  0  0  0  0  0
   23.1133  -20.8878  -15.9086 C   0  0  0  0  0  0  0  0  0  0  0  0
   21.0266  -21.3976  -11.6446 C   0  0  0  0  0  0  0  0  0  0  0  0
   19.6831  -21.0214  -11.6546 O   0  0  0  0  0  0  0  0  0  0  0  0
   21.3734  -22.0422  -10.6250 O   0  0  0  0  0  0  0  0  0  0  0  0
  2  1  1  0
  3  2  1  0
  4  3  1  0
  4  5  1  0
  5  7  1  0
  5  6  1  6
  7  8  2  0
  9  7  1  0
  9 10  1  0
 10 11  1  1
 11 12  1  0
 13 15  1  0
 13 10  1  0
 14 13  2  0
 16 15  1  0
 16 17  1  6
 18 17  1  0
 18 19  2  0
 20 19  1  0
 21 20  2  0
 22 23  2  0
 22 21  1  0
 23 18  1  0
 24 16  1  0
 24 25  1  0
 26 24  2  0
M  END
$$$$
