MCF.pdb
     RDKit          3D

 26 26  0  0  1  0  0  0  0  0999 V2000
   25.5274  -14.8248  -15.9832 C   0  0  0  0  0  0  0  0  0  0  0  0
   26.9568  -14.8845  -14.8858 S   0  0  0  0  0  0  0  0  0  0  0  0
   27.8223  -16.4443  -14.9940 C   0  0  0  0  0  0  0  0  0  0  0  0
   26.9639  -17.6154  -14.6829 C   0  0  0  0  0  0  0  0  0  0  0  0
   27.6304  -18.9462  -14.7304 C   0  0  2  0  0  0  0  0  0  0  0  0
   28.2061  -19.3127  -15.9844 N   0  0  0  0  0  0  0  0  0  0  0  0
   26.7012  -20.0080  -14.2420 C   0  0  0  0  0  0  0  0  0  0  0  0
   26.1312  -20.7972  -15.0682 O   0  0  0  0  0  0  0  0  0  0  0  0
   26.3949  -20.2095  -12.8759 N   0  0  0  0  0  0  0  0  0  0  0  0
   25.4857  -21.2768  -12.4841 C   0  0  1  0  0  0  0  0  0  0  0  0
   25.7200  -21.6141  -11.0133 C   0  0  0  0  0  0  0  0  0  0  0  0
   25.7049  -20.1064  -10.0316 S   0  0  0  0  0  0  0  0  0  0  0  0
   24.1037  -20.7557  -12.5863 C   0  0  0  0  0  0  0  0  0  0  0  0
   23.9205  -19.5948  -12.1313 O   0  0  0  0  0  0  0  0  0  0  0  0
   23.0865  -21.5349  -13.1601 N   0  0  0  0  0  0  0  0  0  0  0  0
   21.7320  -21.0281  -13.2653 C   0  0  1  0  0  0  0  0  0  0  0  0
   21.3161  -20.7622  -14.6636 C   0  0  0  0  0  0  0  0  0  0  0  0
   21.9958  -19.6126  -15.2438 C   0  0  0  0  0  0  0  0  0  0  0  0
   23.0560  -19.8205  -16.1126 C   0  0  0  0  0  0  0  0  0  0  0  0
   23.6850  -18.7222  -16.6709 C   0  0  0  0  0  0  0  0  0  0  0  0
   23.2621  -17.4444  -16.3661 C   0  0  0  0  0  0  0  0  0  0  0  0
   22.2030  -17.2054  -15.4990 C   0  0  0  0  0  0  0  0  0  0  0  0
   21.5886  -18.3303  -14.9520 C   0  0  0  0  0  0  0  0  0  0  0  0
   20.8155  -21.8908  -12.4763 C   0  0  0  0  0  0  0  0  0  0  0  0
   19.5351  -21.4976  -12.0857 O   0  0  0  0  0  0  0  0  0  0  0  0
   21.1351  -23.0463  -12.1047 O   0  0  0  0  0  0  0  0  0  0  0  0
  2  1  1  0
  3  2  1  0
  4  3  1  0
  4  5  1  0
  5  7  1  0
  5  6  1  6
  7  8  2  0
  9  7  1  0
  9 10  1  0
 10 11  1  1
 11 12  1  0
 13 15  1  0
 13 10  1  0
 14 13  2  0
 16 15  1  0
 16 17  1  6
 18 17  1  0
 18 19  2  0
 20 19  1  0
 21 20  2  0
 22 23  2  0
 22 21  1  0
 23 18  1  0
 24 16  1  0
 24 25  1  0
 26 24  2  0
M  END
$$$$
