MCF.pdb
     RDKit          3D

 26 26  0  0  1  0  0  0  0  0999 V2000
   30.5266  -21.2562  -12.0453 C   0  0  0  0  0  0  0  0  0  0  0  0
   30.3708  -21.7083  -13.7838 S   0  0  0  0  0  0  0  0  0  0  0  0
   29.6812  -20.3824  -14.7636 C   0  0  0  0  0  0  0  0  0  0  0  0
   28.6907  -19.5592  -14.0242 C   0  0  0  0  0  0  0  0  0  0  0  0
   27.2664  -19.7360  -14.4213 C   0  0  2  0  0  0  0  0  0  0  0  0
   26.8190  -18.9371  -15.5167 N   0  0  0  0  0  0  0  0  0  0  0  0
   26.3738  -19.5616  -13.2372 C   0  0  0  0  0  0  0  0  0  0  0  0
   26.1123  -18.3938  -12.7920 O   0  0  0  0  0  0  0  0  0  0  0  0
   25.7740  -20.6402  -12.5460 N   0  0  0  0  0  0  0  0  0  0  0  0
   24.9877  -20.3885  -11.3470 C   0  0  1  0  0  0  0  0  0  0  0  0
   23.8030  -21.3515  -11.3186 C   0  0  0  0  0  0  0  0  0  0  0  0
   22.5382  -20.7973  -12.4720 S   0  0  0  0  0  0  0  0  0  0  0  0
   25.8305  -20.7159  -10.1748 C   0  0  0  0  0  0  0  0  0  0  0  0
   26.5646  -21.7333  -10.2944 O   0  0  0  0  0  0  0  0  0  0  0  0
   25.7879  -19.9201   -9.0189 N   0  0  0  0  0  0  0  0  0  0  0  0
   26.5735  -20.2649   -7.8499 C   0  0  1  0  0  0  0  0  0  0  0  0
   27.3673  -19.1279   -7.3248 C   0  0  0  0  0  0  0  0  0  0  0  0
   28.0613  -19.4508   -6.0862 C   0  0  0  0  0  0  0  0  0  0  0  0
   29.3019  -20.0670   -6.1461 C   0  0  0  0  0  0  0  0  0  0  0  0
   29.9603  -20.3553   -4.9642 C   0  0  0  0  0  0  0  0  0  0  0  0
   29.3895  -20.0339   -3.7495 C   0  0  0  0  0  0  0  0  0  0  0  0
   28.1481  -19.4165   -3.6584 C   0  0  0  0  0  0  0  0  0  0  0  0
   27.5083  -19.1381   -4.8648 C   0  0  0  0  0  0  0  0  0  0  0  0
   25.7113  -20.9578   -6.8581 C   0  0  0  0  0  0  0  0  0  0  0  0
   26.2033  -21.8356   -5.8918 O   0  0  0  0  0  0  0  0  0  0  0  0
   24.4670  -20.7967   -6.8219 O   0  0  0  0  0  0  0  0  0  0  0  0
  2  1  1  0
  3  2  1  0
  4  3  1  0
  4  5  1  0
  5  7  1  0
  5  6  1  6
  7  8  2  0
  9  7  1  0
  9 10  1  0
 10 11  1  6
 11 12  1  0
 13 15  1  0
 13 10  1  0
 14 13  2  0
 16 15  1  0
 16 17  1  1
 18 17  1  0
 18 19  2  0
 20 19  1  0
 21 20  2  0
 22 23  2  0
 22 21  1  0
 23 18  1  0
 24 16  1  0
 24 25  1  0
 26 24  2  0
M  END
$$$$
