MCF.pdb
     RDKit          3D

 26 26  0  0  1  0  0  0  0  0999 V2000
   25.1324  -13.8055  -14.1869 C   0  0  0  0  0  0  0  0  0  0  0  0
   26.1590  -14.1894  -15.6186 S   0  0  0  0  0  0  0  0  0  0  0  0
   26.2458  -15.9468  -15.9313 C   0  0  0  0  0  0  0  0  0  0  0  0
   26.6555  -16.7357  -14.7418 C   0  0  0  0  0  0  0  0  0  0  0  0
   26.7650  -18.2077  -14.9390 C   0  0  2  0  0  0  0  0  0  0  0  0
   26.3641  -18.6987  -16.2183 N   0  0  0  0  0  0  0  0  0  0  0  0
   26.0512  -18.9308  -13.8450 C   0  0  0  0  0  0  0  0  0  0  0  0
   24.7775  -18.8868  -13.7657 O   0  0  0  0  0  0  0  0  0  0  0  0
   26.7110  -19.6904  -12.8509 N   0  0  0  0  0  0  0  0  0  0  0  0
   25.9426  -20.5528  -11.9648 C   0  0  1  0  0  0  0  0  0  0  0  0
   25.9624  -21.9764  -12.5169 C   0  0  0  0  0  0  0  0  0  0  0  0
   27.6124  -22.3773  -13.1119 S   0  0  0  0  0  0  0  0  0  0  0  0
   26.6365  -20.5937  -10.6577 C   0  0  0  0  0  0  0  0  0  0  0  0
   27.8903  -20.4735  -10.6985 O   0  0  0  0  0  0  0  0  0  0  0  0
   25.9101  -20.7579   -9.4675 N   0  0  0  0  0  0  0  0  0  0  0  0
   26.5840  -20.7898   -8.1839 C   0  0  1  0  0  0  0  0  0  0  0  0
   27.4577  -19.6138   -7.9549 C   0  0  0  0  0  0  0  0  0  0  0  0
   27.9507  -19.5372   -6.5869 C   0  0  0  0  0  0  0  0  0  0  0  0
   27.4731  -18.5402   -5.7501 C   0  0  0  0  0  0  0  0  0  0  0  0
   27.9358  -18.4856   -4.4476 C   0  0  0  0  0  0  0  0  0  0  0  0
   28.8559  -19.4082   -3.9931 C   0  0  0  0  0  0  0  0  0  0  0  0
   29.3523  -20.4178   -4.8085 C   0  0  0  0  0  0  0  0  0  0  0  0
   28.8685  -20.4484   -6.1151 C   0  0  0  0  0  0  0  0  0  0  0  0
   25.5968  -21.0744   -7.1109 C   0  0  0  0  0  0  0  0  0  0  0  0
   25.9273  -21.6989   -5.9079 O   0  0  0  0  0  0  0  0  0  0  0  0
   24.3844  -20.7671   -7.2156 O   0  0  0  0  0  0  0  0  0  0  0  0
  2  1  1  0
  3  2  1  0
  4  3  1  0
  4  5  1  0
  5  7  1  0
  5  6  1  6
  7  8  2  0
  9  7  1  0
  9 10  1  0
 10 11  1  6
 11 12  1  0
 13 15  1  0
 13 10  1  0
 14 13  2  0
 16 15  1  0
 16 17  1  1
 18 17  1  0
 18 19  2  0
 20 19  1  0
 21 20  2  0
 22 23  2  0
 22 21  1  0
 23 18  1  0
 24 16  1  0
 24 25  1  0
 26 24  2  0
M  END
$$$$
