MCF.pdb
     RDKit          3D

 26 26  0  0  1  0  0  0  0  0999 V2000
   12.6343   -9.2006   -8.0777 C   0  0  0  0  0  0  0  0  0  0  0  0
   14.1708   -9.0995   -9.0156 S   0  0  0  0  0  0  0  0  0  0  0  0
   13.9356   -9.5161  -10.7375 C   0  0  0  0  0  0  0  0  0  0  0  0
   15.1784   -9.4082  -11.5432 C   0  0  0  0  0  0  0  0  0  0  0  0
   15.0221   -9.5847  -13.0136 C   0  0  2  0  0  0  0  0  0  0  0  0
   14.5902  -10.8750  -13.4460 N   0  0  0  0  0  0  0  0  0  0  0  0
   16.2741   -9.1796  -13.7192 C   0  0  0  0  0  0  0  0  0  0  0  0
   17.0788  -10.0646  -14.1659 O   0  0  0  0  0  0  0  0  0  0  0  0
   16.6472   -7.8326  -13.9361 N   0  0  0  0  0  0  0  0  0  0  0  0
   17.7034   -7.5143  -14.8860 C   0  0  1  0  0  0  0  0  0  0  0  0
   17.0714   -7.0069  -16.1802 C   0  0  0  0  0  0  0  0  0  0  0  0
   18.3588   -6.6024  -17.3703 S   0  0  0  0  0  0  0  0  0  0  0  0
   18.4915   -6.3918  -14.3287 C   0  0  0  0  0  0  0  0  0  0  0  0
   17.8705   -5.6191  -13.5504 O   0  0  0  0  0  0  0  0  0  0  0  0
   19.8440   -6.2296  -14.6687 N   0  0  0  0  0  0  0  0  0  0  0  0
   20.6373   -5.1700  -14.0764 C   0  0  1  0  0  0  0  0  0  0  0  0
   22.0053   -5.6045  -13.7044 C   0  0  0  0  0  0  0  0  0  0  0  0
   22.0128   -6.8363  -12.9280 C   0  0  0  0  0  0  0  0  0  0  0  0
   22.4510   -8.0092  -13.5235 C   0  0  0  0  0  0  0  0  0  0  0  0
   22.4693   -9.1710  -12.7728 C   0  0  0  0  0  0  0  0  0  0  0  0
   22.0579   -9.1589  -11.4556 C   0  0  0  0  0  0  0  0  0  0  0  0
   21.6137   -7.9991  -10.8325 C   0  0  0  0  0  0  0  0  0  0  0  0
   21.6063   -6.8444  -11.6127 C   0  0  0  0  0  0  0  0  0  0  0  0
   20.5591   -3.9551  -14.9279 C   0  0  0  0  0  0  0  0  0  0  0  0
   20.8349   -2.6697  -14.4607 O   0  0  0  0  0  0  0  0  0  0  0  0
   20.2369   -4.0045  -16.1399 O   0  0  0  0  0  0  0  0  0  0  0  0
  2  1  1  0
  3  2  1  0
  4  3  1  0
  4  5  1  0
  5  7  1  0
  5  6  1  1
  7  8  2  0
  9  7  1  0
  9 10  1  0
 10 11  1  6
 11 12  1  0
 13 15  1  0
 13 10  1  0
 14 13  2  0
 16 15  1  0
 16 17  1  6
 18 17  1  0
 18 19  2  0
 20 19  1  0
 21 20  2  0
 22 23  2  0
 22 21  1  0
 23 18  1  0
 24 16  1  0
 24 25  1  0
 26 24  2  0
M  END
$$$$
