NLK.pdb
     RDKit          3D

 26 25  0  0  1  0  0  0  0  0999 V2000
    9.0040  -13.0499   18.0853 N   0  0  0  0  0  0  0  0  0  0  0  0
    7.8992  -13.4849   18.8730 C   0  0  0  0  0  0  0  0  0  0  0  0
    6.8917  -13.8721   18.2747 O   0  0  0  0  0  0  0  0  0  0  0  0
    8.0638  -13.4311   20.3299 C   0  0  0  0  0  0  0  0  0  0  0  0
    8.3566  -14.7297   21.0042 C   0  0  2  0  0  0  0  0  0  0  0  0
    7.1506  -15.5447   20.8676 N   0  0  0  0  0  0  0  0  0  0  0  0
    8.7146  -14.5939   22.4346 C   0  0  0  0  0  0  0  0  0  0  0  0
    9.8679  -14.3543   22.8665 O   0  0  0  0  0  0  0  0  0  0  0  0
    5.4415  -12.1363   26.2895 C   0  0  0  0  0  0  0  0  0  0  0  0
    6.6649  -12.7041   25.6398 C   0  0  1  0  0  0  0  0  0  0  0  0
    7.8517  -12.2297   26.4952 C   0  0  0  0  0  0  0  0  0  0  0  0
    6.7558  -14.1842   25.5997 C   0  0  0  0  0  0  0  0  0  0  0  0
    7.9161  -14.7613   24.8367 C   0  0  2  0  0  0  0  0  0  0  0  0
    7.6923  -14.7420   23.4076 N   0  0  0  0  0  0  0  0  0  0  0  0
    8.3951  -16.0563   25.3263 C   0  0  0  0  0  0  0  0  0  0  0  0
    7.5933  -17.0230   25.3829 O   0  0  0  0  0  0  0  0  0  0  0  0
    9.7319  -16.3196   25.7576 N   0  0  0  0  0  0  0  0  0  0  0  0
   10.1789  -17.6832   26.1133 C   0  0  1  0  0  0  0  0  0  0  0  0
   11.2226  -18.1584   25.1691 C   0  0  0  0  0  0  0  0  0  0  0  0
   11.6973  -19.5442   25.4667 C   0  0  0  0  0  0  0  0  0  0  0  0
   12.8018  -19.9515   24.4827 C   0  0  0  0  0  0  0  0  0  0  0  0
   13.2026  -21.3765   24.8325 C   0  0  0  0  0  0  0  0  0  0  0  0
   14.3675  -21.7474   24.0725 N   0  0  0  0  0  0  0  0  0  0  0  0
   10.5265  -17.6938   27.5347 C   0  0  0  0  0  0  0  0  0  0  0  0
   10.4734  -16.6038   28.3898 O   0  0  0  0  0  0  0  0  0  0  0  0
   10.9195  -18.7742   28.0833 O   0  0  0  0  0  0  0  0  0  0  0  0
  2  1  1  0
  2  3  2  0
  4  5  1  0
  4  2  1  0
  5  7  1  0
  5  6  1  1
  7  8  2  0
 10  9  1  1
 10 12  1  0
 10 11  1  0
 13 12  1  1
 13 15  1  0
 14  7  1  0
 14 13  1  0
 15 16  2  0
 17 18  1  0
 17 15  1  0
 18 24  1  0
 18 19  1  6
 20 19  1  0
 21 20  1  0
 22 21  1  0
 23 22  1  0
 24 25  1  0
 26 24  2  0
M  END
$$$$
