NLK.pdb
     RDKit          3D

 26 25  0  0  1  0  0  0  0  0999 V2000
    7.8356  -12.4552   18.0558 N   0  0  0  0  0  0  0  0  0  0  0  0
    8.1009  -13.6362   18.8076 C   0  0  0  0  0  0  0  0  0  0  0  0
    8.0787  -14.7119   18.2032 O   0  0  0  0  0  0  0  0  0  0  0  0
    8.3771  -13.4616   20.2379 C   0  0  0  0  0  0  0  0  0  0  0  0
    8.3321  -14.6999   21.0694 C   0  0  2  0  0  0  0  0  0  0  0  0
    6.9436  -15.1570   21.0510 N   0  0  0  0  0  0  0  0  0  0  0  0
    8.7788  -14.4989   22.4668 C   0  0  0  0  0  0  0  0  0  0  0  0
    9.9617  -14.2698   22.8166 O   0  0  0  0  0  0  0  0  0  0  0  0
    5.4837  -12.0920   26.3929 C   0  0  0  0  0  0  0  0  0  0  0  0
    6.6516  -12.5876   25.5982 C   0  0  1  0  0  0  0  0  0  0  0  0
    7.8754  -11.8245   26.1321 C   0  0  0  0  0  0  0  0  0  0  0  0
    6.9743  -14.0285   25.7408 C   0  0  0  0  0  0  0  0  0  0  0  0
    8.1240  -14.5398   24.9174 C   0  0  2  0  0  0  0  0  0  0  0  0
    7.8134  -14.5661   23.5047 N   0  0  0  0  0  0  0  0  0  0  0  0
    8.7217  -15.7879   25.3980 C   0  0  0  0  0  0  0  0  0  0  0  0
    8.3194  -16.2804   26.4825 O   0  0  0  0  0  0  0  0  0  0  0  0
    9.7517  -16.5110   24.7207 N   0  0  0  0  0  0  0  0  0  0  0  0
   10.2483  -17.8096   25.2233 C   0  0  1  0  0  0  0  0  0  0  0  0
   10.8908  -18.5858   24.1318 C   0  0  0  0  0  0  0  0  0  0  0  0
    9.9250  -19.4285   23.3628 C   0  0  0  0  0  0  0  0  0  0  0  0
   10.6466  -20.1599   22.2232 C   0  0  0  0  0  0  0  0  0  0  0  0
    9.5750  -20.8433   21.3876 C   0  0  0  0  0  0  0  0  0  0  0  0
    9.9006  -20.7144   19.9914 N   0  0  0  0  0  0  0  0  0  0  0  0
   11.0596  -17.5584   26.4149 C   0  0  0  0  0  0  0  0  0  0  0  0
   11.2858  -18.4579   27.4454 O   0  0  0  0  0  0  0  0  0  0  0  0
   11.6288  -16.4291   26.5680 O   0  0  0  0  0  0  0  0  0  0  0  0
  2  1  1  0
  2  3  2  0
  4  5  1  0
  4  2  1  0
  5  7  1  0
  5  6  1  1
  7  8  2  0
 10  9  1  1
 10 12  1  0
 10 11  1  0
 13 12  1  1
 13 15  1  0
 14  7  1  0
 14 13  1  0
 15 16  2  0
 17 18  1  0
 17 15  1  0
 18 24  1  0
 18 19  1  6
 20 19  1  0
 21 20  1  0
 22 21  1  0
 23 22  1  0
 24 25  1  0
 26 24  2  0
M  END
$$$$
