NLK.pdb
     RDKit          3D

 26 25  0  0  1  0  0  0  0  0999 V2000
    7.9757  -17.7383   19.0566 N   0  0  0  0  0  0  0  0  0  0  0  0
    8.7538  -18.4739   19.9968 C   0  0  0  0  0  0  0  0  0  0  0  0
    9.0061  -19.6517   19.7283 O   0  0  0  0  0  0  0  0  0  0  0  0
    9.1845  -17.7580   21.2028 C   0  0  0  0  0  0  0  0  0  0  0  0
    8.5703  -16.4158   21.4221 C   0  0  2  0  0  0  0  0  0  0  0  0
    9.0105  -15.5758   20.3096 N   0  0  0  0  0  0  0  0  0  0  0  0
    8.9479  -15.7880   22.7088 C   0  0  0  0  0  0  0  0  0  0  0  0
   10.0842  -15.8583   23.2361 O   0  0  0  0  0  0  0  0  0  0  0  0
    8.2926  -11.7966   26.5035 C   0  0  0  0  0  0  0  0  0  0  0  0
    7.1777  -12.7869   26.3705 C   0  0  1  0  0  0  0  0  0  0  0  0
    5.8792  -11.9808   26.5412 C   0  0  0  0  0  0  0  0  0  0  0  0
    7.0647  -13.4708   25.0590 C   0  0  0  0  0  0  0  0  0  0  0  0
    8.1867  -14.4029   24.6933 C   0  0  2  0  0  0  0  0  0  0  0  0
    7.9666  -15.0461   23.4163 N   0  0  0  0  0  0  0  0  0  0  0  0
    8.5811  -15.3394   25.7484 C   0  0  0  0  0  0  0  0  0  0  0  0
    7.7901  -16.2602   26.0755 O   0  0  0  0  0  0  0  0  0  0  0  0
    9.8213  -15.2923   26.4568 N   0  0  0  0  0  0  0  0  0  0  0  0
   10.2413  -16.3839   27.3612 C   0  0  1  0  0  0  0  0  0  0  0  0
   11.4753  -17.0398   26.8574 C   0  0  0  0  0  0  0  0  0  0  0  0
   11.9824  -18.1137   27.7651 C   0  0  0  0  0  0  0  0  0  0  0  0
   13.2487  -18.7520   27.1792 C   0  0  0  0  0  0  0  0  0  0  0  0
   13.5959  -19.9393   28.0643 C   0  0  0  0  0  0  0  0  0  0  0  0
   14.8418  -20.5141   27.6290 N   0  0  0  0  0  0  0  0  0  0  0  0
   10.2896  -15.8546   28.7245 C   0  0  0  0  0  0  0  0  0  0  0  0
   10.1822  -16.6014   29.8877 O   0  0  0  0  0  0  0  0  0  0  0  0
   10.4408  -14.6041   28.9143 O   0  0  0  0  0  0  0  0  0  0  0  0
  2  1  1  0
  2  3  2  0
  4  5  1  0
  4  2  1  0
  5  7  1  0
  5  6  1  6
  7  8  2  0
 10  9  1  6
 10 12  1  0
 10 11  1  0
 13 12  1  1
 13 15  1  0
 14  7  1  0
 14 13  1  0
 15 16  2  0
 17 18  1  0
 17 15  1  0
 18 24  1  0
 18 19  1  6
 20 19  1  0
 21 20  1  0
 22 21  1  0
 23 22  1  0
 24 25  1  0
 26 24  2  0
M  END
$$$$
