NLK.pdb
     RDKit          3D

 26 25  0  0  1  0  0  0  0  0999 V2000
    5.1081  -19.7627   21.3658 N   0  0  0  0  0  0  0  0  0  0  0  0
    5.7092  -20.0997   22.6130 C   0  0  0  0  0  0  0  0  0  0  0  0
    5.6321  -21.2747   22.9823 O   0  0  0  0  0  0  0  0  0  0  0  0
    6.3671  -19.0119   23.3454 C   0  0  0  0  0  0  0  0  0  0  0  0
    6.3120  -17.6647   22.7058 C   0  0  2  0  0  0  0  0  0  0  0  0
    6.7024  -17.8562   21.3101 N   0  0  0  0  0  0  0  0  0  0  0  0
    7.1957  -16.6627   23.3442 C   0  0  0  0  0  0  0  0  0  0  0  0
    8.4337  -16.5758   23.1597 O   0  0  0  0  0  0  0  0  0  0  0  0
    8.2012  -11.8733   25.9322 C   0  0  0  0  0  0  0  0  0  0  0  0
    7.2063  -12.7850   26.5804 C   0  0  1  0  0  0  0  0  0  0  0  0
    6.1036  -11.8709   27.1405 C   0  0  0  0  0  0  0  0  0  0  0  0
    6.5221  -13.7484   25.6835 C   0  0  0  0  0  0  0  0  0  0  0  0
    7.3774  -14.8370   25.0962 C   0  0  2  0  0  0  0  0  0  0  0  0
    6.6208  -15.7197   24.2353 N   0  0  0  0  0  0  0  0  0  0  0  0
    8.2148  -15.5535   26.0612 C   0  0  0  0  0  0  0  0  0  0  0  0
    7.6981  -16.4563   26.7673 O   0  0  0  0  0  0  0  0  0  0  0  0
    9.6059  -15.3052   26.2741 N   0  0  0  0  0  0  0  0  0  0  0  0
   10.4743  -16.2864   26.9589 C   0  0  1  0  0  0  0  0  0  0  0  0
   11.6045  -16.6905   26.0837 C   0  0  0  0  0  0  0  0  0  0  0  0
   12.5552  -17.6328   26.7491 C   0  0  0  0  0  0  0  0  0  0  0  0
   13.7063  -17.9873   25.7985 C   0  0  0  0  0  0  0  0  0  0  0  0
   14.6424  -18.9113   26.5624 C   0  0  0  0  0  0  0  0  0  0  0  0
   15.8097  -19.1787   25.7637 N   0  0  0  0  0  0  0  0  0  0  0  0
   10.8232  -15.7481   28.2741 C   0  0  0  0  0  0  0  0  0  0  0  0
   11.4097  -16.4583   29.3105 O   0  0  0  0  0  0  0  0  0  0  0  0
   10.5867  -14.5254   28.5420 O   0  0  0  0  0  0  0  0  0  0  0  0
  2  1  1  0
  2  3  2  0
  4  5  1  0
  4  2  1  0
  5  7  1  0
  5  6  1  6
  7  8  2  0
 10  9  1  6
 10 12  1  0
 10 11  1  0
 13 12  1  1
 13 15  1  0
 14  7  1  0
 14 13  1  0
 15 16  2  0
 17 18  1  0
 17 15  1  0
 18 24  1  0
 18 19  1  6
 20 19  1  0
 21 20  1  0
 22 21  1  0
 23 22  1  0
 24 25  1  0
 26 24  2  0
M  END
$$$$
