NLK.pdb
     RDKit          3D

 26 25  0  0  1  0  0  0  0  0999 V2000
    8.1209  -12.2732   18.6577 N   0  0  0  0  0  0  0  0  0  0  0  0
    7.3858  -13.2571   19.3802 C   0  0  0  0  0  0  0  0  0  0  0  0
    6.5025  -13.8674   18.7718 O   0  0  0  0  0  0  0  0  0  0  0  0
    7.7500  -13.4533   20.7878 C   0  0  0  0  0  0  0  0  0  0  0  0
    8.1450  -14.8394   21.1749 C   0  0  2  0  0  0  0  0  0  0  0  0
    6.9382  -15.6569   21.0629 N   0  0  0  0  0  0  0  0  0  0  0  0
    8.6997  -14.9432   22.5438 C   0  0  0  0  0  0  0  0  0  0  0  0
    9.9170  -14.8531   22.8341 O   0  0  0  0  0  0  0  0  0  0  0  0
    5.8651  -12.4686   26.6508 C   0  0  0  0  0  0  0  0  0  0  0  0
    7.0090  -13.0537   25.8824 C   0  0  1  0  0  0  0  0  0  0  0  0
    8.2835  -12.5415   26.5742 C   0  0  0  0  0  0  0  0  0  0  0  0
    7.1089  -14.5338   25.8857 C   0  0  0  0  0  0  0  0  0  0  0  0
    8.1834  -15.1323   25.0204 C   0  0  2  0  0  0  0  0  0  0  0  0
    7.8057  -15.1610   23.6242 N   0  0  0  0  0  0  0  0  0  0  0  0
    8.7212  -16.4088   25.4970 C   0  0  0  0  0  0  0  0  0  0  0  0
    8.0378  -17.4536   25.3489 O   0  0  0  0  0  0  0  0  0  0  0  0
    9.9902  -16.5705   26.1341 N   0  0  0  0  0  0  0  0  0  0  0  0
   10.4681  -17.8935   26.5890 C   0  0  1  0  0  0  0  0  0  0  0  0
   11.9438  -17.8904   26.7591 C   0  0  0  0  0  0  0  0  0  0  0  0
   12.4741  -19.1737   27.3125 C   0  0  0  0  0  0  0  0  0  0  0  0
   13.9856  -19.0654   27.5534 C   0  0  0  0  0  0  0  0  0  0  0  0
   14.4287  -20.3777   28.1817 C   0  0  0  0  0  0  0  0  0  0  0  0
   15.8648  -20.4031   28.2773 N   0  0  0  0  0  0  0  0  0  0  0  0
    9.6745  -18.2907   27.7525 C   0  0  0  0  0  0  0  0  0  0  0  0
    9.0995  -17.4285   28.6735 O   0  0  0  0  0  0  0  0  0  0  0  0
    9.4651  -19.5254   27.9857 O   0  0  0  0  0  0  0  0  0  0  0  0
  2  1  1  0
  2  3  2  0
  4  5  1  0
  4  2  1  0
  5  7  1  0
  5  6  1  1
  7  8  2  0
 10  9  1  1
 10 12  1  0
 10 11  1  0
 13 12  1  1
 13 15  1  0
 14  7  1  0
 14 13  1  0
 15 16  2  0
 17 18  1  0
 17 15  1  0
 18 24  1  0
 18 19  1  1
 20 19  1  0
 21 20  1  0
 22 21  1  0
 23 22  1  0
 24 25  1  0
 26 24  2  0
M  END
$$$$
