NLK.pdb
     RDKit          3D

 26 25  0  0  1  0  0  0  0  0999 V2000
    9.1493  -20.2396   16.7082 N   0  0  0  0  0  0  0  0  0  0  0  0
    9.8846  -19.1517   16.1547 C   0  0  0  0  0  0  0  0  0  0  0  0
   10.3266  -19.2879   15.0105 O   0  0  0  0  0  0  0  0  0  0  0  0
   10.0484  -17.9651   17.0018 C   0  0  0  0  0  0  0  0  0  0  0  0
    9.4998  -18.0678   18.3858 C   0  0  2  0  0  0  0  0  0  0  0  0
    8.0442  -18.0796   18.2510 N   0  0  0  0  0  0  0  0  0  0  0  0
    9.9151  -16.9612   19.2777 C   0  0  0  0  0  0  0  0  0  0  0  0
   11.1041  -16.6504   19.5305 O   0  0  0  0  0  0  0  0  0  0  0  0
    8.0954  -13.3468   18.6840 C   0  0  0  0  0  0  0  0  0  0  0  0
    8.1646  -13.0382   20.1473 C   0  0  1  0  0  0  0  0  0  0  0  0
    6.9444  -12.1512   20.4462 C   0  0  0  0  0  0  0  0  0  0  0  0
    8.0608  -14.1989   21.0652 C   0  0  0  0  0  0  0  0  0  0  0  0
    9.1527  -15.2281   20.9662 C   0  0  2  0  0  0  0  0  0  0  0  0
    8.9096  -16.1801   19.9044 N   0  0  0  0  0  0  0  0  0  0  0  0
    9.5210  -15.8625   22.2342 C   0  0  0  0  0  0  0  0  0  0  0  0
    8.6250  -16.4059   22.9288 O   0  0  0  0  0  0  0  0  0  0  0  0
   10.8478  -15.9159   22.7625 N   0  0  0  0  0  0  0  0  0  0  0  0
   11.2287  -16.8886   23.8086 C   0  0  1  0  0  0  0  0  0  0  0  0
   11.5507  -18.2087   23.2082 C   0  0  0  0  0  0  0  0  0  0  0  0
   11.9426  -19.2353   24.2216 C   0  0  0  0  0  0  0  0  0  0  0  0
   12.3006  -20.5571   23.5295 C   0  0  0  0  0  0  0  0  0  0  0  0
   12.5185  -21.5867   24.6277 C   0  0  0  0  0  0  0  0  0  0  0  0
   12.9455  -22.8301   24.0415 N   0  0  0  0  0  0  0  0  0  0  0  0
   12.2630  -16.2786   24.6449 C   0  0  0  0  0  0  0  0  0  0  0  0
   13.2438  -15.4009   24.2092 O   0  0  0  0  0  0  0  0  0  0  0  0
   12.3113  -16.5457   25.8895 O   0  0  0  0  0  0  0  0  0  0  0  0
  2  1  1  0
  2  3  2  0
  4  5  1  0
  4  2  1  0
  5  7  1  0
  5  6  1  6
  7  8  2  0
 10  9  1  6
 10 12  1  0
 10 11  1  0
 13 12  1  1
 13 15  1  0
 14  7  1  0
 14 13  1  0
 15 16  2  0
 17 18  1  0
 17 15  1  0
 18 24  1  0
 18 19  1  6
 20 19  1  0
 21 20  1  0
 22 21  1  0
 23 22  1  0
 24 25  1  0
 26 24  2  0
M  END
$$$$
