NLK.pdb
     RDKit          3D

 26 25  0  0  1  0  0  0  0  0999 V2000
    7.2324  -17.7153   19.2639 N   0  0  0  0  0  0  0  0  0  0  0  0
    7.7315  -18.4984   20.3447 C   0  0  0  0  0  0  0  0  0  0  0  0
    7.5442  -19.7173   20.2978 O   0  0  0  0  0  0  0  0  0  0  0  0
    8.4253  -17.7781   21.4181 C   0  0  0  0  0  0  0  0  0  0  0  0
    8.4234  -16.2893   21.3153 C   0  0  2  0  0  0  0  0  0  0  0  0
    9.3344  -15.9517   20.2229 N   0  0  0  0  0  0  0  0  0  0  0  0
    8.8481  -15.6033   22.5569 C   0  0  0  0  0  0  0  0  0  0  0  0
   10.0350  -15.5004   22.9505 O   0  0  0  0  0  0  0  0  0  0  0  0
    8.0859  -11.6588   26.4566 C   0  0  0  0  0  0  0  0  0  0  0  0
    7.1079  -12.7889   26.3705 C   0  0  1  0  0  0  0  0  0  0  0  0
    5.7307  -12.1747   26.6723 C   0  0  0  0  0  0  0  0  0  0  0  0
    6.9818  -13.4439   25.0455 C   0  0  0  0  0  0  0  0  0  0  0  0
    8.1217  -14.3317   24.6284 C   0  0  2  0  0  0  0  0  0  0  0  0
    7.8549  -15.0102   23.3789 N   0  0  0  0  0  0  0  0  0  0  0  0
    8.6219  -15.2276   25.6739 C   0  0  0  0  0  0  0  0  0  0  0  0
    7.8743  -16.1422   26.1044 O   0  0  0  0  0  0  0  0  0  0  0  0
    9.9218  -15.1465   26.2620 N   0  0  0  0  0  0  0  0  0  0  0  0
   10.4289  -16.1946   27.1731 C   0  0  1  0  0  0  0  0  0  0  0  0
   11.7554  -16.6881   26.7217 C   0  0  0  0  0  0  0  0  0  0  0  0
   12.3808  -17.6510   27.6787 C   0  0  0  0  0  0  0  0  0  0  0  0
   12.0895  -19.0946   27.2482 C   0  0  0  0  0  0  0  0  0  0  0  0
   12.6633  -20.0021   28.3256 C   0  0  0  0  0  0  0  0  0  0  0  0
   12.2375  -21.3565   28.0888 N   0  0  0  0  0  0  0  0  0  0  0  0
   10.3496  -15.6866   28.5431 C   0  0  0  0  0  0  0  0  0  0  0  0
   10.2972  -16.4604   29.6923 O   0  0  0  0  0  0  0  0  0  0  0  0
   10.3220  -14.4305   28.7530 O   0  0  0  0  0  0  0  0  0  0  0  0
  2  1  1  0
  2  3  2  0
  4  5  1  0
  4  2  1  0
  5  7  1  0
  5  6  1  6
  7  8  2  0
 10  9  1  6
 10 12  1  0
 10 11  1  0
 13 12  1  1
 13 15  1  0
 14  7  1  0
 14 13  1  0
 15 16  2  0
 17 18  1  0
 17 15  1  0
 18 24  1  0
 18 19  1  6
 20 19  1  0
 21 20  1  0
 22 21  1  0
 23 22  1  0
 24 25  1  0
 26 24  2  0
M  END
$$$$
