NLK.pdb
     RDKit          3D

 26 25  0  0  1  0  0  0  0  0999 V2000
    9.1171  -14.9239   18.0558 N   0  0  0  0  0  0  0  0  0  0  0  0
    8.0991  -15.1130   19.0347 C   0  0  0  0  0  0  0  0  0  0  0  0
    7.0751  -15.7052   18.6832 O   0  0  0  0  0  0  0  0  0  0  0  0
    8.3653  -14.5827   20.3766 C   0  0  0  0  0  0  0  0  0  0  0  0
    8.4503  -15.5904   21.4740 C   0  0  2  0  0  0  0  0  0  0  0  0
    7.1081  -16.1503   21.6226 N   0  0  0  0  0  0  0  0  0  0  0  0
    8.9097  -15.0310   22.7657 C   0  0  0  0  0  0  0  0  0  0  0  0
   10.0626  -14.5882   22.9871 O   0  0  0  0  0  0  0  0  0  0  0  0
    5.4802  -12.2510   26.3034 C   0  0  0  0  0  0  0  0  0  0  0  0
    6.6610  -12.7760   25.5477 C   0  0  1  0  0  0  0  0  0  0  0  0
    7.7988  -11.7722   25.7986 C   0  0  0  0  0  0  0  0  0  0  0  0
    7.1787  -14.0971   25.9807 C   0  0  0  0  0  0  0  0  0  0  0  0
    8.3493  -14.6410   25.2090 C   0  0  2  0  0  0  0  0  0  0  0  0
    7.9940  -14.9822   23.8487 N   0  0  0  0  0  0  0  0  0  0  0  0
    9.1008  -15.6984   25.8895 C   0  0  0  0  0  0  0  0  0  0  0  0
    9.1900  -15.6748   27.1434 O   0  0  0  0  0  0  0  0  0  0  0  0
    9.7595  -16.7820   25.2307 N   0  0  0  0  0  0  0  0  0  0  0  0
   10.4639  -17.8385   25.9878 C   0  0  1  0  0  0  0  0  0  0  0  0
    9.9449  -19.1820   25.6243 C   0  0  0  0  0  0  0  0  0  0  0  0
   10.6364  -20.2939   26.3452 C   0  0  0  0  0  0  0  0  0  0  0  0
   10.3612  -21.6328   25.6481 C   0  0  0  0  0  0  0  0  0  0  0  0
   11.0366  -22.7121   26.4804 C   0  0  0  0  0  0  0  0  0  0  0  0
   10.8731  -23.9882   25.8349 N   0  0  0  0  0  0  0  0  0  0  0  0
   11.9038  -17.6280   25.8340 C   0  0  0  0  0  0  0  0  0  0  0  0
   12.8587  -17.8052   26.8234 O   0  0  0  0  0  0  0  0  0  0  0  0
   12.3728  -17.2469   24.7126 O   0  0  0  0  0  0  0  0  0  0  0  0
  2  1  1  0
  2  3  2  0
  4  5  1  0
  4  2  1  0
  5  7  1  0
  5  6  1  1
  7  8  2  0
 10  9  1  1
 10 12  1  0
 10 11  1  0
 13 12  1  1
 13 15  1  0
 14  7  1  0
 14 13  1  0
 15 16  2  0
 17 18  1  0
 17 15  1  0
 18 24  1  0
 18 19  1  6
 20 19  1  0
 21 20  1  0
 22 21  1  0
 23 22  1  0
 24 25  1  0
 26 24  2  0
M  END
$$$$
