NLK.pdb
     RDKit          3D

 26 25  0  0  1  0  0  0  0  0999 V2000
    7.1059  -16.9978   19.4024 N   0  0  0  0  0  0  0  0  0  0  0  0
    8.4872  -17.2037   19.6852 C   0  0  0  0  0  0  0  0  0  0  0  0
    9.2011  -17.6125   18.7653 O   0  0  0  0  0  0  0  0  0  0  0  0
    8.9337  -16.9089   21.0513 C   0  0  0  0  0  0  0  0  0  0  0  0
    8.4462  -15.6259   21.6370 C   0  0  2  0  0  0  0  0  0  0  0  0
    8.8614  -14.5695   20.7156 N   0  0  0  0  0  0  0  0  0  0  0  0
    8.9728  -15.3487   22.9929 C   0  0  0  0  0  0  0  0  0  0  0  0
   10.1728  -15.4753   23.3369 O   0  0  0  0  0  0  0  0  0  0  0  0
    5.8688  -12.0338   25.8301 C   0  0  0  0  0  0  0  0  0  0  0  0
    7.1475  -12.6901   25.4114 C   0  0  1  0  0  0  0  0  0  0  0  0
    8.2554  -11.6576   25.6792 C   0  0  0  0  0  0  0  0  0  0  0  0
    7.5335  -13.9083   26.1648 C   0  0  0  0  0  0  0  0  0  0  0  0
    8.3453  -14.9280   25.4146 C   0  0  2  0  0  0  0  0  0  0  0  0
    8.0705  -14.9057   23.9945 N   0  0  0  0  0  0  0  0  0  0  0  0
    8.3213  -16.2776   25.9839 C   0  0  0  0  0  0  0  0  0  0  0  0
    7.6010  -17.1557   25.4447 O   0  0  0  0  0  0  0  0  0  0  0  0
    9.0661  -16.6903   27.1315 N   0  0  0  0  0  0  0  0  0  0  0  0
    9.9776  -17.8535   27.0888 C   0  0  1  0  0  0  0  0  0  0  0  0
   10.9359  -17.7306   25.9604 C   0  0  0  0  0  0  0  0  0  0  0  0
   11.9739  -18.8061   25.9512 C   0  0  0  0  0  0  0  0  0  0  0  0
   11.6829  -19.8174   24.8344 C   0  0  0  0  0  0  0  0  0  0  0  0
   12.8269  -20.8198   24.8361 C   0  0  0  0  0  0  0  0  0  0  0  0
   12.5763  -21.8353   23.8472 N   0  0  0  0  0  0  0  0  0  0  0  0
   10.5537  -18.0317   28.4221 C   0  0  0  0  0  0  0  0  0  0  0  0
   11.0387  -17.0202   29.2369 O   0  0  0  0  0  0  0  0  0  0  0  0
   10.6418  -19.1992   28.9240 O   0  0  0  0  0  0  0  0  0  0  0  0
  2  1  1  0
  2  3  2  0
  4  5  1  0
  4  2  1  0
  5  7  1  0
  5  6  1  6
  7  8  2  0
 10  9  1  1
 10 12  1  0
 10 11  1  0
 13 12  1  1
 13 15  1  0
 14  7  1  0
 14 13  1  0
 15 16  2  0
 17 18  1  0
 17 15  1  0
 18 24  1  0
 18 19  1  6
 20 19  1  0
 21 20  1  0
 22 21  1  0
 23 22  1  0
 24 25  1  0
 26 24  2  0
M  END
$$$$
