NLK.pdb
     RDKit          3D

 26 25  0  0  1  0  0  0  0  0999 V2000
   12.1073  -18.2074   14.4089 N   0  0  0  0  0  0  0  0  0  0  0  0
   10.9902  -17.3643   14.6765 C   0  0  0  0  0  0  0  0  0  0  0  0
   10.0286  -17.4329   13.9060 O   0  0  0  0  0  0  0  0  0  0  0  0
   11.0884  -16.4887   15.8495 C   0  0  0  0  0  0  0  0  0  0  0  0
   10.6738  -17.0889   17.1514 C   0  0  2  0  0  0  0  0  0  0  0  0
    9.2519  -17.4038   17.0244 N   0  0  0  0  0  0  0  0  0  0  0  0
   10.8921  -16.2011   18.3161 C   0  0  0  0  0  0  0  0  0  0  0  0
   12.0067  -15.7539   18.6793 O   0  0  0  0  0  0  0  0  0  0  0  0
    6.4129  -13.2675   19.8844 C   0  0  0  0  0  0  0  0  0  0  0  0
    7.8363  -13.6440   19.6137 C   0  0  1  0  0  0  0  0  0  0  0  0
    8.6064  -12.3174   19.5028 C   0  0  0  0  0  0  0  0  0  0  0  0
    8.5184  -14.4250   20.6745 C   0  0  0  0  0  0  0  0  0  0  0  0
    9.8452  -15.0310   20.3088 C   0  0  2  0  0  0  0  0  0  0  0  0
    9.7706  -15.8141   19.0946 N   0  0  0  0  0  0  0  0  0  0  0  0
   10.5288  -15.7276   21.4012 C   0  0  0  0  0  0  0  0  0  0  0  0
   10.3164  -16.9551   21.5711 O   0  0  0  0  0  0  0  0  0  0  0  0
   11.4395  -15.1129   22.3149 N   0  0  0  0  0  0  0  0  0  0  0  0
   12.0952  -15.8821   23.3938 C   0  0  1  0  0  0  0  0  0  0  0  0
   11.1353  -16.8208   24.0296 C   0  0  0  0  0  0  0  0  0  0  0  0
   11.7779  -17.7360   25.0215 C   0  0  0  0  0  0  0  0  0  0  0  0
   10.7250  -18.6488   25.6638 C   0  0  0  0  0  0  0  0  0  0  0  0
   11.4662  -19.5836   26.6074 C   0  0  0  0  0  0  0  0  0  0  0  0
   10.5230  -20.4535   27.2597 N   0  0  0  0  0  0  0  0  0  0  0  0
   13.3249  -16.4656   22.8566 C   0  0  0  0  0  0  0  0  0  0  0  0
   14.5806  -15.8785   22.8869 O   0  0  0  0  0  0  0  0  0  0  0  0
   13.2931  -17.6113   22.3007 O   0  0  0  0  0  0  0  0  0  0  0  0
  2  1  1  0
  2  3  2  0
  4  5  1  0
  4  2  1  0
  5  7  1  0
  5  6  1  6
  7  8  2  0
 10  9  1  1
 10 12  1  0
 10 11  1  0
 13 12  1  1
 13 15  1  0
 14  7  1  0
 14 13  1  0
 15 16  2  0
 17 18  1  0
 17 15  1  0
 18 24  1  0
 18 19  1  6
 20 19  1  0
 21 20  1  0
 22 21  1  0
 23 22  1  0
 24 25  1  0
 26 24  2  0
M  END
$$$$
