NLK.pdb
     RDKit          3D

 26 25  0  0  1  0  0  0  0  0999 V2000
    9.9775  -18.0893   13.8224 N   0  0  0  0  0  0  0  0  0  0  0  0
   10.2765  -19.0796   14.8023 C   0  0  0  0  0  0  0  0  0  0  0  0
   10.0295  -20.2545   14.5171 O   0  0  0  0  0  0  0  0  0  0  0  0
   10.8530  -18.6067   16.0659 C   0  0  0  0  0  0  0  0  0  0  0  0
    9.9176  -18.5356   17.2264 C   0  0  2  0  0  0  0  0  0  0  0  0
    8.5706  -18.4532   16.6641 N   0  0  0  0  0  0  0  0  0  0  0  0
   10.1619  -17.3821   18.1221 C   0  0  0  0  0  0  0  0  0  0  0  0
   11.2754  -17.0784   18.6143 O   0  0  0  0  0  0  0  0  0  0  0  0
    9.0507  -12.4008   20.1743 C   0  0  0  0  0  0  0  0  0  0  0  0
    7.9524  -13.4098   20.3034 C   0  0  1  0  0  0  0  0  0  0  0  0
    6.6466  -12.6444   20.0307 C   0  0  0  0  0  0  0  0  0  0  0  0
    7.9788  -14.5316   19.3331 C   0  0  0  0  0  0  0  0  0  0  0  0
    9.1121  -15.5099   19.4743 C   0  0  2  0  0  0  0  0  0  0  0  0
    9.0692  -16.5434   18.4629 N   0  0  0  0  0  0  0  0  0  0  0  0
    9.3088  -16.0369   20.8270 C   0  0  0  0  0  0  0  0  0  0  0  0
    8.4503  -16.8186   21.3093 O   0  0  0  0  0  0  0  0  0  0  0  0
   10.4230  -15.7281   21.6669 N   0  0  0  0  0  0  0  0  0  0  0  0
   10.6790  -16.4679   22.9210 C   0  0  1  0  0  0  0  0  0  0  0  0
   10.7309  -17.9308   22.6683 C   0  0  0  0  0  0  0  0  0  0  0  0
   11.0519  -18.7273   23.8918 C   0  0  0  0  0  0  0  0  0  0  0  0
   11.1460  -20.2193   23.5461 C   0  0  0  0  0  0  0  0  0  0  0  0
   11.5118  -20.9487   24.8298 C   0  0  0  0  0  0  0  0  0  0  0  0
   11.5245  -22.3677   24.5883 N   0  0  0  0  0  0  0  0  0  0  0  0
   11.8465  -15.8729   23.5722 C   0  0  0  0  0  0  0  0  0  0  0  0
   12.1637  -15.9759   24.9180 O   0  0  0  0  0  0  0  0  0  0  0  0
   12.6749  -15.1892   22.8874 O   0  0  0  0  0  0  0  0  0  0  0  0
  2  1  1  0
  2  3  2  0
  4  5  1  0
  4  2  1  0
  5  7  1  0
  5  6  1  6
  7  8  2  0
 10  9  1  6
 10 12  1  0
 10 11  1  0
 13 12  1  1
 13 15  1  0
 14  7  1  0
 14 13  1  0
 15 16  2  0
 17 18  1  0
 17 15  1  0
 18 24  1  0
 18 19  1  6
 20 19  1  0
 21 20  1  0
 22 21  1  0
 23 22  1  0
 24 25  1  0
 26 24  2  0
M  END
$$$$
