NLK.pdb
     RDKit          3D

 26 25  0  0  1  0  0  0  0  0999 V2000
    8.6906  -17.9641   19.1062 N   0  0  0  0  0  0  0  0  0  0  0  0
    9.7696  -17.0343   19.0685 C   0  0  0  0  0  0  0  0  0  0  0  0
   10.4772  -17.0251   18.0574 O   0  0  0  0  0  0  0  0  0  0  0  0
    9.9393  -16.1701   20.2419 C   0  0  0  0  0  0  0  0  0  0  0  0
    9.0099  -16.4234   21.3816 C   0  0  2  0  0  0  0  0  0  0  0  0
    7.6675  -16.1107   20.8944 N   0  0  0  0  0  0  0  0  0  0  0  0
    9.3092  -15.6187   22.5880 C   0  0  0  0  0  0  0  0  0  0  0  0
   10.4568  -15.4301   23.0588 O   0  0  0  0  0  0  0  0  0  0  0  0
    8.1652  -11.7476   26.4173 C   0  0  0  0  0  0  0  0  0  0  0  0
    7.1719  -12.8515   26.2275 C   0  0  1  0  0  0  0  0  0  0  0  0
    5.7874  -12.2001   26.3824 C   0  0  0  0  0  0  0  0  0  0  0  0
    7.1691  -13.5057   24.8961 C   0  0  0  0  0  0  0  0  0  0  0  0
    8.3361  -14.4038   24.5912 C   0  0  2  0  0  0  0  0  0  0  0  0
    8.2325  -15.0055   23.2797 N   0  0  0  0  0  0  0  0  0  0  0  0
    8.6643  -15.3695   25.6427 C   0  0  0  0  0  0  0  0  0  0  0  0
    7.8049  -16.2238   25.9779 O   0  0  0  0  0  0  0  0  0  0  0  0
    9.9112  -15.4228   26.3387 N   0  0  0  0  0  0  0  0  0  0  0  0
   10.2451  -16.5379   27.2501 C   0  0  1  0  0  0  0  0  0  0  0  0
   11.3178  -17.3875   26.6720 C   0  0  0  0  0  0  0  0  0  0  0  0
   11.6984  -18.5337   27.5527 C   0  0  0  0  0  0  0  0  0  0  0  0
   12.8473  -19.3314   26.9217 C   0  0  0  0  0  0  0  0  0  0  0  0
   13.1183  -20.5158   27.8367 C   0  0  0  0  0  0  0  0  0  0  0  0
   14.1343  -21.3512   27.2518 N   0  0  0  0  0  0  0  0  0  0  0  0
   10.4943  -15.9818   28.5804 C   0  0  0  0  0  0  0  0  0  0  0  0
   10.6488  -14.6370   28.8804 O   0  0  0  0  0  0  0  0  0  0  0  0
   10.5875  -16.7590   29.5854 O   0  0  0  0  0  0  0  0  0  0  0  0
  2  1  1  0
  2  3  2  0
  4  5  1  0
  4  2  1  0
  5  7  1  0
  5  6  1  6
  7  8  2  0
 10  9  1  6
 10 12  1  0
 10 11  1  0
 13 12  1  1
 13 15  1  0
 14  7  1  0
 14 13  1  0
 15 16  2  0
 17 18  1  0
 17 15  1  0
 18 24  1  0
 18 19  1  6
 20 19  1  0
 21 20  1  0
 22 21  1  0
 23 22  1  0
 24 25  1  0
 26 24  2  0
M  END
$$$$
