NLK.pdb
     RDKit          3D

 26 25  0  0  1  0  0  0  0  0999 V2000
    9.7807  -18.2953   19.9064 N   0  0  0  0  0  0  0  0  0  0  0  0
   10.2714  -16.9798   19.6634 C   0  0  0  0  0  0  0  0  0  0  0  0
   10.7446  -16.7465   18.5478 O   0  0  0  0  0  0  0  0  0  0  0  0
   10.1676  -16.0206   20.7687 C   0  0  0  0  0  0  0  0  0  0  0  0
    9.4855  -16.5130   22.0012 C   0  0  2  0  0  0  0  0  0  0  0  0
    8.0774  -16.6883   21.6494 N   0  0  0  0  0  0  0  0  0  0  0  0
    9.6063  -15.5973   23.1585 C   0  0  0  0  0  0  0  0  0  0  0  0
   10.6662  -15.3782   23.7932 O   0  0  0  0  0  0  0  0  0  0  0  0
    7.6940  -11.5521   26.6546 C   0  0  0  0  0  0  0  0  0  0  0  0
    6.8771  -12.7606   26.3181 C   0  0  1  0  0  0  0  0  0  0  0  0
    5.4163  -12.2814   26.2807 C   0  0  0  0  0  0  0  0  0  0  0  0
    7.1387  -13.3779   24.9947 C   0  0  0  0  0  0  0  0  0  0  0  0
    8.2771  -14.3582   24.9286 C   0  0  2  0  0  0  0  0  0  0  0  0
    8.4492  -14.9047   23.6002 N   0  0  0  0  0  0  0  0  0  0  0  0
    8.2721  -15.3828   25.9757 C   0  0  0  0  0  0  0  0  0  0  0  0
    8.3554  -15.0277   27.1788 O   0  0  0  0  0  0  0  0  0  0  0  0
    8.1795  -16.7889   25.7382 N   0  0  0  0  0  0  0  0  0  0  0  0
    8.1669  -17.7650   26.8485 C   0  0  1  0  0  0  0  0  0  0  0  0
    7.4545  -19.0063   26.4504 C   0  0  0  0  0  0  0  0  0  0  0  0
    7.5110  -20.0762   27.4927 C   0  0  0  0  0  0  0  0  0  0  0  0
    6.9065  -21.3788   26.9519 C   0  0  0  0  0  0  0  0  0  0  0  0
    7.0044  -22.4084   28.0672 C   0  0  0  0  0  0  0  0  0  0  0  0
    6.5236  -23.6788   27.5907 N   0  0  0  0  0  0  0  0  0  0  0  0
    9.5383  -17.9228   27.3338 C   0  0  0  0  0  0  0  0  0  0  0  0
    9.9309  -17.9336   28.6634 O   0  0  0  0  0  0  0  0  0  0  0  0
   10.4928  -18.0648   26.5022 O   0  0  0  0  0  0  0  0  0  0  0  0
  2  1  1  0
  2  3  2  0
  4  5  1  0
  4  2  1  0
  5  7  1  0
  5  6  1  6
  7  8  2  0
 10  9  1  6
 10 12  1  0
 10 11  1  0
 13 12  1  6
 13 15  1  0
 14  7  1  0
 14 13  1  0
 15 16  2  0
 17 18  1  0
 17 15  1  0
 18 24  1  0
 18 19  1  6
 20 19  1  0
 21 20  1  0
 22 21  1  0
 23 22  1  0
 24 25  1  0
 26 24  2  0
M  END
$$$$
