NLK.pdb
     RDKit          3D

 26 25  0  0  1  0  0  0  0  0999 V2000
    8.8180  -17.9149   19.1986 N   0  0  0  0  0  0  0  0  0  0  0  0
    9.9373  -17.0334   19.2239 C   0  0  0  0  0  0  0  0  0  0  0  0
   10.6823  -17.0319   18.2401 O   0  0  0  0  0  0  0  0  0  0  0  0
   10.1000  -16.2055   20.4242 C   0  0  0  0  0  0  0  0  0  0  0  0
    9.1439  -16.4724   21.5384 C   0  0  2  0  0  0  0  0  0  0  0  0
    7.8142  -16.1462   21.0259 N   0  0  0  0  0  0  0  0  0  0  0  0
    9.4190  -15.6880   22.7638 C   0  0  0  0  0  0  0  0  0  0  0  0
   10.5626  -15.4449   23.2192 O   0  0  0  0  0  0  0  0  0  0  0  0
    8.0839  -12.0045   26.7349 C   0  0  0  0  0  0  0  0  0  0  0  0
    7.1762  -13.1767   26.5271 C   0  0  1  0  0  0  0  0  0  0  0  0
    5.7489  -12.6427   26.7336 C   0  0  0  0  0  0  0  0  0  0  0  0
    7.1935  -13.7842   25.1738 C   0  0  0  0  0  0  0  0  0  0  0  0
    8.4189  -14.5782   24.8141 C   0  0  2  0  0  0  0  0  0  0  0  0
    8.3218  -15.1620   23.4940 N   0  0  0  0  0  0  0  0  0  0  0  0
    8.8582  -15.5332   25.8344 C   0  0  0  0  0  0  0  0  0  0  0  0
    8.0619  -16.4274   26.2179 O   0  0  0  0  0  0  0  0  0  0  0  0
   10.1490  -15.5331   26.4475 N   0  0  0  0  0  0  0  0  0  0  0  0
   10.5538  -16.5834   27.4060 C   0  0  1  0  0  0  0  0  0  0  0  0
   11.7794  -17.2800   26.9375 C   0  0  0  0  0  0  0  0  0  0  0  0
   11.5180  -18.2460   25.8271 C   0  0  0  0  0  0  0  0  0  0  0  0
   12.8231  -18.9291   25.3975 C   0  0  0  0  0  0  0  0  0  0  0  0
   12.4664  -19.9072   24.2887 C   0  0  0  0  0  0  0  0  0  0  0  0
   13.6575  -20.5800   23.8409 N   0  0  0  0  0  0  0  0  0  0  0  0
   10.6081  -15.9871   28.7411 C   0  0  0  0  0  0  0  0  0  0  0  0
   10.3678  -14.6557   29.0442 O   0  0  0  0  0  0  0  0  0  0  0  0
   10.8987  -16.7116   29.7478 O   0  0  0  0  0  0  0  0  0  0  0  0
  2  1  1  0
  2  3  2  0
  4  5  1  0
  4  2  1  0
  5  7  1  0
  5  6  1  6
  7  8  2  0
 10  9  1  6
 10 12  1  0
 10 11  1  0
 13 12  1  1
 13 15  1  0
 14  7  1  0
 14 13  1  0
 15 16  2  0
 17 18  1  0
 17 15  1  0
 18 24  1  0
 18 19  1  6
 20 19  1  0
 21 20  1  0
 22 21  1  0
 23 22  1  0
 24 25  1  0
 26 24  2  0
M  END
$$$$
