PFI.pdb
     RDKit          3D

 27 28  0  0  1  0  0  0  0  0999 V2000
    9.4189  -18.3370   19.9244 N   0  0  0  0  0  0  0  0  0  0  0  0
    9.1869  -18.6853   18.5556 C   0  0  0  0  0  0  0  0  0  0  0  0
    9.7067  -17.5722   17.7007 C   0  0  0  0  0  0  0  0  0  0  0  0
    9.8339  -16.4241   18.7003 C   0  0  0  0  0  0  0  0  0  0  0  0
   10.2576  -17.1827   19.9357 C   0  0  1  0  0  0  0  0  0  0  0  0
   10.1046  -16.3649   21.1604 C   0  0  0  0  0  0  0  0  0  0  0  0
   11.0052  -15.5419   21.4509 O   0  0  0  0  0  0  0  0  0  0  0  0
    8.9885  -16.4820   22.0017 N   0  0  0  0  0  0  0  0  0  0  0  0
    8.7282  -15.5636   23.0797 C   0  0  1  0  0  0  0  0  0  0  0  0
    7.2488  -15.2902   23.2312 C   0  0  0  0  0  0  0  0  0  0  0  0
    6.9771  -14.2168   24.2193 C   0  0  0  0  0  0  0  0  0  0  0  0
    7.2310  -12.8913   23.9401 C   0  0  0  0  0  0  0  0  0  0  0  0
    6.9682  -11.8893   24.8821 C   0  0  0  0  0  0  0  0  0  0  0  0
    6.4469  -12.2049   26.1167 C   0  0  0  0  0  0  0  0  0  0  0  0
    6.1975  -13.5341   26.3848 C   0  0  0  0  0  0  0  0  0  0  0  0
    6.4533  -14.5256   25.4632 C   0  0  0  0  0  0  0  0  0  0  0  0
    9.3380  -16.0136   24.3573 C   0  0  0  0  0  0  0  0  0  0  0  0
    9.4164  -17.2516   24.5511 O   0  0  0  0  0  0  0  0  0  0  0  0
   10.9662  -13.8528   29.9569 C   0  0  0  0  0  0  0  0  0  0  0  0
   11.1373  -14.8851   28.8899 C   0  0  0  0  0  0  0  0  0  0  0  0
   10.5260  -14.5282   27.5635 C   0  0  2  0  0  0  0  0  0  0  0  0
    9.1808  -13.8738   27.8556 C   0  0  0  0  0  0  0  0  0  0  0  0
   10.4112  -15.6463   26.5917 C   0  0  2  0  0  0  0  0  0  0  0  0
    9.8289  -15.1406   25.3571 N   0  0  0  0  0  0  0  0  0  0  0  0
    9.6635  -16.8119   27.1076 C   0  0  0  0  0  0  0  0  0  0  0  0
    8.3947  -16.8617   26.9746 O   0  0  0  0  0  0  0  0  0  0  0  0
   10.2484  -17.8878   27.7429 O   0  0  0  0  0  0  0  0  0  0  0  0
  1  2  1  0
  2  3  1  0
  4  3  1  0
  5  1  1  0
  5  4  1  0
  5  6  1  1
  7  6  2  0
  8  6  1  0
  9  8  1  0
  9 10  1  1
 10 11  1  0
 11 12  2  0
 12 13  1  0
 14 13  2  0
 15 14  1  0
 16 11  1  0
 16 15  2  0
 17 24  1  0
 17  9  1  0
 18 17  2  0
 20 19  1  0
 21 20  1  0
 21 22  1  1
 23 21  1  0
 23 24  1  6
 25 23  1  0
 26 25  2  0
 27 25  1  0
M  END
$$$$
