PFI.pdb
     RDKit          3D

 27 28  0  0  1  0  0  0  0  0999 V2000
    6.6560  -17.2355   22.6075 N   0  0  0  0  0  0  0  0  0  0  0  0
    5.3987  -17.2871   21.9255 C   0  0  0  0  0  0  0  0  0  0  0  0
    5.6399  -16.9583   20.4855 C   0  0  0  0  0  0  0  0  0  0  0  0
    7.0211  -16.3069   20.5257 C   0  0  0  0  0  0  0  0  0  0  0  0
    7.6759  -17.1213   21.6162 C   0  0  1  0  0  0  0  0  0  0  0  0
    8.9070  -16.4718   22.1209 C   0  0  0  0  0  0  0  0  0  0  0  0
    9.9350  -16.4906   21.4028 O   0  0  0  0  0  0  0  0  0  0  0  0
    8.9586  -15.8394   23.3718 N   0  0  0  0  0  0  0  0  0  0  0  0
   10.1517  -15.2109   23.8761 C   0  0  1  0  0  0  0  0  0  0  0  0
    9.8743  -13.8093   24.3710 C   0  0  0  0  0  0  0  0  0  0  0  0
    8.4257  -13.5691   24.5866 C   0  0  0  0  0  0  0  0  0  0  0  0
    7.8068  -13.8834   25.7772 C   0  0  0  0  0  0  0  0  0  0  0  0
    6.4392  -13.6497   25.9664 C   0  0  0  0  0  0  0  0  0  0  0  0
    5.6753  -13.0975   24.9629 C   0  0  0  0  0  0  0  0  0  0  0  0
    6.3053  -12.7878   23.7763 C   0  0  0  0  0  0  0  0  0  0  0  0
    7.6503  -13.0146   23.5825 C   0  0  0  0  0  0  0  0  0  0  0  0
   10.8238  -16.0368   24.9119 C   0  0  0  0  0  0  0  0  0  0  0  0
   12.0761  -16.1117   24.8626 O   0  0  0  0  0  0  0  0  0  0  0  0
   10.2542  -13.8798   29.1413 C   0  0  0  0  0  0  0  0  0  0  0  0
   10.7656  -14.7927   28.0743 C   0  0  0  0  0  0  0  0  0  0  0  0
   10.4157  -16.2424   28.2638 C   0  0  2  0  0  0  0  0  0  0  0  0
   10.9984  -16.6687   29.6062 C   0  0  0  0  0  0  0  0  0  0  0  0
   10.8232  -17.1475   27.1581 C   0  0  2  0  0  0  0  0  0  0  0  0
   10.1448  -16.7366   25.9374 N   0  0  0  0  0  0  0  0  0  0  0  0
   10.6026  -18.5800   27.4465 C   0  0  0  0  0  0  0  0  0  0  0  0
   11.3263  -19.1712   28.3164 O   0  0  0  0  0  0  0  0  0  0  0  0
    9.6431  -19.3555   26.8292 O   0  0  0  0  0  0  0  0  0  0  0  0
  1  2  1  0
  2  3  1  0
  4  3  1  0
  5  1  1  0
  5  4  1  0
  5  6  1  1
  7  6  2  0
  8  6  1  0
  9  8  1  0
  9 10  1  1
 10 11  1  0
 11 12  2  0
 12 13  1  0
 14 13  2  0
 15 14  1  0
 16 11  1  0
 16 15  2  0
 17 24  1  0
 17  9  1  0
 18 17  2  0
 20 19  1  0
 21 20  1  0
 21 22  1  1
 23 21  1  0
 23 24  1  6
 25 23  1  0
 26 25  2  0
 27 25  1  0
M  END
$$$$
