PFI.pdb
     RDKit          3D

 27 28  0  0  1  0  0  0  0  0999 V2000
    9.6428  -18.0427   19.8151 N   0  0  0  0  0  0  0  0  0  0  0  0
    9.5987  -18.2479   18.3993 C   0  0  0  0  0  0  0  0  0  0  0  0
   10.4018  -17.1650   17.7498 C   0  0  0  0  0  0  0  0  0  0  0  0
   10.5151  -16.1277   18.8655 C   0  0  0  0  0  0  0  0  0  0  0  0
   10.6175  -17.0324   20.0706 C   0  0  1  0  0  0  0  0  0  0  0  0
   10.3741  -16.2953   21.3314 C   0  0  0  0  0  0  0  0  0  0  0  0
   11.2595  -15.5126   21.7513 O   0  0  0  0  0  0  0  0  0  0  0  0
    9.1895  -16.4450   22.0670 N   0  0  0  0  0  0  0  0  0  0  0  0
    8.8885  -15.6462   23.2265 C   0  0  1  0  0  0  0  0  0  0  0  0
    7.4280  -15.2570   23.2690 C   0  0  0  0  0  0  0  0  0  0  0  0
    7.1463  -14.2580   24.3297 C   0  0  0  0  0  0  0  0  0  0  0  0
    7.4864  -12.9303   24.1856 C   0  0  0  0  0  0  0  0  0  0  0  0
    7.2130  -11.9989   25.1947 C   0  0  0  0  0  0  0  0  0  0  0  0
    6.5945  -12.3883   26.3615 C   0  0  0  0  0  0  0  0  0  0  0  0
    6.2594  -13.7190   26.4943 C   0  0  0  0  0  0  0  0  0  0  0  0
    6.5251  -14.6414   25.5061 C   0  0  0  0  0  0  0  0  0  0  0  0
    9.3190  -16.3050   24.4865 C   0  0  0  0  0  0  0  0  0  0  0  0
    9.4664  -17.5515   24.4610 O   0  0  0  0  0  0  0  0  0  0  0  0
   10.2940  -13.0365   28.9294 C   0  0  0  0  0  0  0  0  0  0  0  0
   10.5247  -13.9533   27.7720 C   0  0  0  0  0  0  0  0  0  0  0  0
   10.1330  -15.3845   28.0134 C   0  0  2  0  0  0  0  0  0  0  0  0
   10.9819  -15.8881   29.1748 C   0  0  0  0  0  0  0  0  0  0  0  0
   10.2114  -16.2768   26.8279 C   0  0  2  0  0  0  0  0  0  0  0  0
    9.5686  -15.6196   25.6992 N   0  0  0  0  0  0  0  0  0  0  0  0
    9.6567  -17.6270   27.0584 C   0  0  0  0  0  0  0  0  0  0  0  0
    8.4048  -17.8321   26.9142 O   0  0  0  0  0  0  0  0  0  0  0  0
   10.4107  -18.7211   27.4294 O   0  0  0  0  0  0  0  0  0  0  0  0
  1  2  1  0
  2  3  1  0
  4  3  1  0
  5  1  1  0
  5  4  1  0
  5  6  1  1
  7  6  2  0
  8  6  1  0
  9  8  1  0
  9 10  1  1
 10 11  1  0
 11 12  2  0
 12 13  1  0
 14 13  2  0
 15 14  1  0
 16 11  1  0
 16 15  2  0
 17 24  1  0
 17  9  1  0
 18 17  2  0
 20 19  1  0
 21 20  1  0
 21 22  1  1
 23 21  1  0
 23 24  1  6
 25 23  1  0
 26 25  2  0
 27 25  1  0
M  END
$$$$
