PFI.pdb
     RDKit          3D

 27 28  0  0  1  0  0  0  0  0999 V2000
    9.4917  -17.9776   19.7813 N   0  0  0  0  0  0  0  0  0  0  0  0
    9.3747  -18.1990   18.3721 C   0  0  0  0  0  0  0  0  0  0  0  0
   10.1159  -17.1053   17.6690 C   0  0  0  0  0  0  0  0  0  0  0  0
   10.2663  -16.0539   18.7669 C   0  0  0  0  0  0  0  0  0  0  0  0
   10.4554  -16.9430   19.9731 C   0  0  1  0  0  0  0  0  0  0  0  0
   10.2647  -16.1981   21.2384 C   0  0  0  0  0  0  0  0  0  0  0  0
   11.1372  -15.3663   21.5843 O   0  0  0  0  0  0  0  0  0  0  0  0
    9.1435  -16.3935   22.0581 N   0  0  0  0  0  0  0  0  0  0  0  0
    8.8759  -15.5799   23.2155 C   0  0  1  0  0  0  0  0  0  0  0  0
    7.4087  -15.2302   23.3212 C   0  0  0  0  0  0  0  0  0  0  0  0
    7.1477  -14.2303   24.3864 C   0  0  0  0  0  0  0  0  0  0  0  0
    7.4924  -12.9042   24.2380 C   0  0  0  0  0  0  0  0  0  0  0  0
    7.2386  -11.9720   25.2514 C   0  0  0  0  0  0  0  0  0  0  0  0
    6.6353  -12.3589   26.4270 C   0  0  0  0  0  0  0  0  0  0  0  0
    6.2955  -13.6880   26.5641 C   0  0  0  0  0  0  0  0  0  0  0  0
    6.5418  -14.6111   25.5717 C   0  0  0  0  0  0  0  0  0  0  0  0
    9.3846  -16.2011   24.4654 C   0  0  0  0  0  0  0  0  0  0  0  0
    9.6146  -17.4351   24.4406 O   0  0  0  0  0  0  0  0  0  0  0  0
   10.0533  -12.9258   28.9645 C   0  0  0  0  0  0  0  0  0  0  0  0
   10.3815  -13.8014   27.7987 C   0  0  0  0  0  0  0  0  0  0  0  0
   10.0875  -15.2614   28.0041 C   0  0  2  0  0  0  0  0  0  0  0  0
   10.9319  -15.7230   29.1861 C   0  0  0  0  0  0  0  0  0  0  0  0
   10.2702  -16.1241   26.8082 C   0  0  2  0  0  0  0  0  0  0  0  0
    9.6214  -15.4935   25.6678 N   0  0  0  0  0  0  0  0  0  0  0  0
    9.8056  -17.5141   26.9976 C   0  0  0  0  0  0  0  0  0  0  0  0
   10.5937  -18.3840   27.4998 O   0  0  0  0  0  0  0  0  0  0  0  0
    8.5440  -17.9613   26.6637 O   0  0  0  0  0  0  0  0  0  0  0  0
  1  2  1  0
  2  3  1  0
  4  3  1  0
  5  1  1  0
  5  4  1  0
  5  6  1  1
  7  6  2  0
  8  6  1  0
  9  8  1  0
  9 10  1  1
 10 11  1  0
 11 12  2  0
 12 13  1  0
 14 13  2  0
 15 14  1  0
 16 11  1  0
 16 15  2  0
 17 24  1  0
 17  9  1  0
 18 17  2  0
 20 19  1  0
 21 20  1  0
 21 22  1  1
 23 21  1  0
 23 24  1  6
 25 23  1  0
 26 25  2  0
 27 25  1  0
M  END
$$$$
