PFI.pdb
     RDKit          3D

 27 28  0  0  1  0  0  0  0  0999 V2000
    7.9806  -17.2561   19.9320 N   0  0  0  0  0  0  0  0  0  0  0  0
    7.4650  -17.2480   18.5969 C   0  0  0  0  0  0  0  0  0  0  0  0
    8.0123  -16.0436   17.8971 C   0  0  0  0  0  0  0  0  0  0  0  0
    8.4983  -15.1818   19.0610 C   0  0  0  0  0  0  0  0  0  0  0  0
    8.9912  -16.2516   20.0063 C   0  0  1  0  0  0  0  0  0  0  0  0
    9.1875  -15.7245   21.3760 C   0  0  0  0  0  0  0  0  0  0  0  0
   10.3449  -15.4038   21.7371 O   0  0  0  0  0  0  0  0  0  0  0  0
    8.1238  -15.5739   22.2776 N   0  0  0  0  0  0  0  0  0  0  0  0
    8.2733  -14.9256   23.5545 C   0  0  1  0  0  0  0  0  0  0  0  0
    6.9898  -14.2562   23.9910 C   0  0  0  0  0  0  0  0  0  0  0  0
    7.1403  -13.5510   25.2882 C   0  0  0  0  0  0  0  0  0  0  0  0
    7.7140  -12.3008   25.3728 C   0  0  0  0  0  0  0  0  0  0  0  0
    7.8481  -11.6471   26.6038 C   0  0  0  0  0  0  0  0  0  0  0  0
    7.4078  -12.2400   27.7658 C   0  0  0  0  0  0  0  0  0  0  0  0
    6.8360  -13.4908   27.6687 C   0  0  0  0  0  0  0  0  0  0  0  0
    6.7006  -14.1403   26.4613 C   0  0  0  0  0  0  0  0  0  0  0  0
    8.7921  -15.8512   24.5942 C   0  0  0  0  0  0  0  0  0  0  0  0
    8.1708  -16.9288   24.7648 O   0  0  0  0  0  0  0  0  0  0  0  0
   13.7763  -16.9967   24.1868 C   0  0  0  0  0  0  0  0  0  0  0  0
   12.3127  -16.9632   24.4872 C   0  0  0  0  0  0  0  0  0  0  0  0
   11.9707  -16.7235   25.9314 C   0  0  2  0  0  0  0  0  0  0  0  0
   12.6590  -17.8178   26.7390 C   0  0  0  0  0  0  0  0  0  0  0  0
   10.5199  -16.6242   26.2362 C   0  0  2  0  0  0  0  0  0  0  0  0
    9.9302  -15.5932   25.3946 N   0  0  0  0  0  0  0  0  0  0  0  0
   10.2240  -16.3939   27.6656 C   0  0  0  0  0  0  0  0  0  0  0  0
   10.0607  -15.2031   28.0962 O   0  0  0  0  0  0  0  0  0  0  0  0
   10.1056  -17.3984   28.6037 O   0  0  0  0  0  0  0  0  0  0  0  0
  1  2  1  0
  2  3  1  0
  4  3  1  0
  5  1  1  0
  5  4  1  0
  5  6  1  1
  7  6  2  0
  8  6  1  0
  9  8  1  0
  9 10  1  1
 10 11  1  0
 11 12  2  0
 12 13  1  0
 14 13  2  0
 15 14  1  0
 16 11  1  0
 16 15  2  0
 17 24  1  0
 17  9  1  0
 18 17  2  0
 20 19  1  0
 21 20  1  0
 21 22  1  1
 23 21  1  0
 23 24  1  6
 25 23  1  0
 26 25  2  0
 27 25  1  0
M  END
$$$$
