PFI.pdb
     RDKit          3D

 27 28  0  0  1  0  0  0  0  0999 V2000
    8.4831  -15.9930   19.1412 N   0  0  0  0  0  0  0  0  0  0  0  0
    8.1111  -15.8656   17.7650 C   0  0  0  0  0  0  0  0  0  0  0  0
    8.6145  -14.5460   17.2700 C   0  0  0  0  0  0  0  0  0  0  0  0
    8.8945  -13.7943   18.5700 C   0  0  0  0  0  0  0  0  0  0  0  0
    9.3831  -14.9272   19.4413 C   0  0  1  0  0  0  0  0  0  0  0  0
    9.3859  -14.5545   20.8742 C   0  0  0  0  0  0  0  0  0  0  0  0
   10.1907  -13.6761   21.2660 O   0  0  0  0  0  0  0  0  0  0  0  0
    8.5202  -15.1513   21.8025 N   0  0  0  0  0  0  0  0  0  0  0  0
    8.2769  -14.5942   23.1077 C   0  0  1  0  0  0  0  0  0  0  0  0
    6.8093  -14.2990   23.3207 C   0  0  0  0  0  0  0  0  0  0  0  0
    6.5639  -13.5727   24.5914 C   0  0  0  0  0  0  0  0  0  0  0  0
    6.0209  -14.1987   25.6926 C   0  0  0  0  0  0  0  0  0  0  0  0
    5.7964  -13.5005   26.8853 C   0  0  0  0  0  0  0  0  0  0  0  0
    6.1141  -12.1648   26.9881 C   0  0  0  0  0  0  0  0  0  0  0  0
    6.6561  -11.5493   25.8799 C   0  0  0  0  0  0  0  0  0  0  0  0
    6.8801  -12.2294   24.7030 C   0  0  0  0  0  0  0  0  0  0  0  0
    8.8292  -15.4469   24.1915 C   0  0  0  0  0  0  0  0  0  0  0  0
    8.9779  -16.6682   23.9414 O   0  0  0  0  0  0  0  0  0  0  0  0
   11.4760  -14.7888   29.8028 C   0  0  0  0  0  0  0  0  0  0  0  0
   11.2433  -15.6102   28.5762 C   0  0  0  0  0  0  0  0  0  0  0  0
   10.5044  -14.9029   27.4744 C   0  0  2  0  0  0  0  0  0  0  0  0
    9.4016  -14.0829   28.1337 C   0  0  0  0  0  0  0  0  0  0  0  0
    9.9872  -15.7761   26.3892 C   0  0  2  0  0  0  0  0  0  0  0  0
    9.1924  -14.9705   25.4736 N   0  0  0  0  0  0  0  0  0  0  0  0
    9.2324  -16.9499   26.8754 C   0  0  0  0  0  0  0  0  0  0  0  0
    7.9561  -16.9227   26.8891 O   0  0  0  0  0  0  0  0  0  0  0  0
    9.8182  -18.1130   27.3306 O   0  0  0  0  0  0  0  0  0  0  0  0
  1  2  1  0
  2  3  1  0
  4  3  1  0
  5  1  1  0
  5  4  1  0
  5  6  1  1
  7  6  2  0
  8  6  1  0
  9  8  1  0
  9 10  1  1
 10 11  1  0
 11 12  2  0
 12 13  1  0
 14 13  2  0
 15 14  1  0
 16 11  1  0
 16 15  2  0
 17 24  1  0
 17  9  1  0
 18 17  2  0
 20 19  1  0
 21 20  1  0
 21 22  1  1
 23 21  1  0
 23 24  1  6
 25 23  1  0
 26 25  2  0
 27 25  1  0
M  END
$$$$
