PFI.pdb
     RDKit          3D

 27 28  0  0  1  0  0  0  0  0999 V2000
    8.0618  -17.5275   20.0709 N   0  0  0  0  0  0  0  0  0  0  0  0
    7.6950  -17.6989   18.6980 C   0  0  0  0  0  0  0  0  0  0  0  0
    8.4413  -16.6842   17.8898 C   0  0  0  0  0  0  0  0  0  0  0  0
    8.8915  -15.6852   18.9541 C   0  0  0  0  0  0  0  0  0  0  0  0
    9.1619  -16.6197   20.1094 C   0  0  1  0  0  0  0  0  0  0  0  0
    9.2676  -15.8884   21.3925 C   0  0  0  0  0  0  0  0  0  0  0  0
   10.2933  -15.2003   21.6102 O   0  0  0  0  0  0  0  0  0  0  0  0
    8.2607  -15.9417   22.3674 N   0  0  0  0  0  0  0  0  0  0  0  0
    8.3381  -15.2103   23.6052 C   0  0  1  0  0  0  0  0  0  0  0  0
    6.9880  -14.6654   24.0135 C   0  0  0  0  0  0  0  0  0  0  0  0
    7.0736  -13.8076   25.2215 C   0  0  0  0  0  0  0  0  0  0  0  0
    7.0103  -14.3353   26.4930 C   0  0  0  0  0  0  0  0  0  0  0  0
    7.0938  -13.5133   27.6235 C   0  0  0  0  0  0  0  0  0  0  0  0
    7.2420  -12.1509   27.4922 C   0  0  0  0  0  0  0  0  0  0  0  0
    7.3037  -11.6344   26.2154 C   0  0  0  0  0  0  0  0  0  0  0  0
    7.2223  -12.4365   25.0983 C   0  0  0  0  0  0  0  0  0  0  0  0
    8.9586  -16.0123   24.6907 C   0  0  0  0  0  0  0  0  0  0  0  0
    8.5124  -17.1713   24.8749 O   0  0  0  0  0  0  0  0  0  0  0  0
   14.2492  -15.5017   25.1093 C   0  0  0  0  0  0  0  0  0  0  0  0
   12.8470  -16.0180   25.0846 C   0  0  0  0  0  0  0  0  0  0  0  0
   12.1667  -16.0596   26.4246 C   0  0  2  0  0  0  0  0  0  0  0  0
   13.0042  -16.9647   27.3205 C   0  0  0  0  0  0  0  0  0  0  0  0
   10.7348  -16.4558   26.4018 C   0  0  2  0  0  0  0  0  0  0  0  0
   10.0092  -15.5529   25.5201 N   0  0  0  0  0  0  0  0  0  0  0  0
   10.1126  -16.5248   27.7404 C   0  0  0  0  0  0  0  0  0  0  0  0
   10.0375  -17.6448   28.3486 O   0  0  0  0  0  0  0  0  0  0  0  0
    9.5889  -15.4370   28.4081 O   0  0  0  0  0  0  0  0  0  0  0  0
  1  2  1  0
  2  3  1  0
  4  3  1  0
  5  1  1  0
  5  4  1  0
  5  6  1  1
  7  6  2  0
  8  6  1  0
  9  8  1  0
  9 10  1  1
 10 11  1  0
 11 12  2  0
 12 13  1  0
 14 13  2  0
 15 14  1  0
 16 11  1  0
 16 15  2  0
 17 24  1  0
 17  9  1  0
 18 17  2  0
 20 19  1  0
 21 20  1  0
 21 22  1  1
 23 21  1  0
 23 24  1  6
 25 23  1  0
 26 25  2  0
 27 25  1  0
M  END
$$$$
