PFI.pdb
     RDKit          3D

 27 28  0  0  1  0  0  0  0  0999 V2000
    8.3358  -16.0569   19.2224 N   0  0  0  0  0  0  0  0  0  0  0  0
    7.8911  -15.9307   17.8678 C   0  0  0  0  0  0  0  0  0  0  0  0
    8.2810  -14.5714   17.3778 C   0  0  0  0  0  0  0  0  0  0  0  0
    8.5715  -13.8255   18.6789 C   0  0  0  0  0  0  0  0  0  0  0  0
    9.1757  -14.9380   19.5027 C   0  0  1  0  0  0  0  0  0  0  0  0
    9.2216  -14.5915   20.9416 C   0  0  0  0  0  0  0  0  0  0  0  0
    9.9152  -13.6110   21.3025 O   0  0  0  0  0  0  0  0  0  0  0  0
    8.5166  -15.3230   21.9085 N   0  0  0  0  0  0  0  0  0  0  0  0
    8.2964  -14.8342   23.2448 C   0  0  1  0  0  0  0  0  0  0  0  0
    6.8246  -14.6328   23.5269 C   0  0  0  0  0  0  0  0  0  0  0  0
    6.5957  -13.7654   24.7092 C   0  0  0  0  0  0  0  0  0  0  0  0
    6.0537  -14.2575   25.8768 C   0  0  0  0  0  0  0  0  0  0  0  0
    5.8447  -13.4271   26.9847 C   0  0  0  0  0  0  0  0  0  0  0  0
    6.1774  -12.0921   26.9349 C   0  0  0  0  0  0  0  0  0  0  0  0
    6.7184  -11.6112   25.7615 C   0  0  0  0  0  0  0  0  0  0  0  0
    6.9270  -12.4218   24.6672 C   0  0  0  0  0  0  0  0  0  0  0  0
    8.9396  -15.6970   24.2689 C   0  0  0  0  0  0  0  0  0  0  0  0
    9.1954  -16.8820   23.9424 O   0  0  0  0  0  0  0  0  0  0  0  0
   10.3411  -13.3093   29.1146 C   0  0  0  0  0  0  0  0  0  0  0  0
   10.4293  -14.0019   27.7932 C   0  0  0  0  0  0  0  0  0  0  0  0
   10.0763  -15.4630   27.8223 C   0  0  2  0  0  0  0  0  0  0  0  0
   11.0696  -16.1419   28.7580 C   0  0  0  0  0  0  0  0  0  0  0  0
   10.0037  -16.1290   26.4961 C   0  0  2  0  0  0  0  0  0  0  0  0
    9.2760  -15.2682   25.5748 N   0  0  0  0  0  0  0  0  0  0  0  0
    9.4258  -17.4884   26.5409 C   0  0  0  0  0  0  0  0  0  0  0  0
    8.1583  -17.6401   26.5271 O   0  0  0  0  0  0  0  0  0  0  0  0
   10.1736  -18.6463   26.5979 O   0  0  0  0  0  0  0  0  0  0  0  0
  1  2  1  0
  2  3  1  0
  4  3  1  0
  5  1  1  0
  5  4  1  0
  5  6  1  1
  7  6  2  0
  8  6  1  0
  9  8  1  0
  9 10  1  1
 10 11  1  0
 11 12  2  0
 12 13  1  0
 14 13  2  0
 15 14  1  0
 16 11  1  0
 16 15  2  0
 17 24  1  0
 17  9  1  0
 18 17  2  0
 20 19  1  0
 21 20  1  0
 21 22  1  1
 23 21  1  0
 23 24  1  6
 25 23  1  0
 26 25  2  0
 27 25  1  0
M  END
$$$$
