PFI.pdb
     RDKit          3D

 27 28  0  0  1  0  0  0  0  0999 V2000
    9.0721  -17.8785   19.8666 N   0  0  0  0  0  0  0  0  0  0  0  0
    8.9133  -18.1234   18.4654 C   0  0  0  0  0  0  0  0  0  0  0  0
    9.6897  -17.0814   17.7229 C   0  0  0  0  0  0  0  0  0  0  0  0
    9.9142  -16.0156   18.7941 C   0  0  0  0  0  0  0  0  0  0  0  0
   10.0878  -16.8874   20.0151 C   0  0  1  0  0  0  0  0  0  0  0  0
    9.9608  -16.1079   21.2675 C   0  0  0  0  0  0  0  0  0  0  0  0
   10.9265  -15.3966   21.6341 O   0  0  0  0  0  0  0  0  0  0  0  0
    8.7992  -16.1407   22.0528 N   0  0  0  0  0  0  0  0  0  0  0  0
    8.5897  -15.2541   23.1678 C   0  0  1  0  0  0  0  0  0  0  0  0
    7.1481  -14.8071   23.2587 C   0  0  0  0  0  0  0  0  0  0  0  0
    6.9229  -13.8725   24.3892 C   0  0  0  0  0  0  0  0  0  0  0  0
    7.3108  -12.5515   24.3278 C   0  0  0  0  0  0  0  0  0  0  0  0
    7.0904  -11.6810   25.4022 C   0  0  0  0  0  0  0  0  0  0  0  0
    6.4775  -12.1254   26.5521 C   0  0  0  0  0  0  0  0  0  0  0  0
    6.0943  -13.4488   26.6022 C   0  0  0  0  0  0  0  0  0  0  0  0
    6.3076  -14.3114   25.5493 C   0  0  0  0  0  0  0  0  0  0  0  0
    9.0649  -15.8420   24.4466 C   0  0  0  0  0  0  0  0  0  0  0  0
    9.0491  -17.0937   24.5437 O   0  0  0  0  0  0  0  0  0  0  0  0
   10.9194  -14.3791   30.1610 C   0  0  0  0  0  0  0  0  0  0  0  0
   11.2161  -15.1651   28.9251 C   0  0  0  0  0  0  0  0  0  0  0  0
   10.5292  -14.6701   27.6828 C   0  0  2  0  0  0  0  0  0  0  0  0
    9.2920  -13.9029   28.1345 C   0  0  0  0  0  0  0  0  0  0  0  0
   10.2105  -15.7108   26.6714 C   0  0  2  0  0  0  0  0  0  0  0  0
    9.5276  -15.0844   25.5487 N   0  0  0  0  0  0  0  0  0  0  0  0
    9.4389  -16.8505   27.2094 C   0  0  0  0  0  0  0  0  0  0  0  0
    9.9811  -17.6436   28.0503 O   0  0  0  0  0  0  0  0  0  0  0  0
    8.1340  -17.1346   26.8635 O   0  0  0  0  0  0  0  0  0  0  0  0
  1  2  1  0
  2  3  1  0
  4  3  1  0
  5  1  1  0
  5  4  1  0
  5  6  1  1
  7  6  2  0
  8  6  1  0
  9  8  1  0
  9 10  1  1
 10 11  1  0
 11 12  2  0
 12 13  1  0
 14 13  2  0
 15 14  1  0
 16 11  1  0
 16 15  2  0
 17 24  1  0
 17  9  1  0
 18 17  2  0
 20 19  1  0
 21 20  1  0
 21 22  1  1
 23 21  1  0
 23 24  1  6
 25 23  1  0
 26 25  2  0
 27 25  1  0
M  END
$$$$
