PFI.pdb
     RDKit          3D

 27 28  0  0  1  0  0  0  0  0999 V2000
    7.0125  -15.0637   20.6163 N   0  0  0  0  0  0  0  0  0  0  0  0
    6.1863  -14.4434   19.6258 C   0  0  0  0  0  0  0  0  0  0  0  0
    6.9024  -13.2307   19.1196 C   0  0  0  0  0  0  0  0  0  0  0  0
    7.9566  -12.9984   20.2005 C   0  0  0  0  0  0  0  0  0  0  0  0
    8.2875  -14.4248   20.5708 C   0  0  1  0  0  0  0  0  0  0  0  0
    9.0224  -14.5014   21.8539 C   0  0  0  0  0  0  0  0  0  0  0  0
   10.2106  -14.1020   21.8916 O   0  0  0  0  0  0  0  0  0  0  0  0
    8.4331  -15.0047   23.0229 N   0  0  0  0  0  0  0  0  0  0  0  0
    9.1149  -15.0233   24.2909 C   0  0  1  0  0  0  0  0  0  0  0  0
    8.1728  -14.7141   25.4325 C   0  0  0  0  0  0  0  0  0  0  0  0
    8.8844  -14.6032   26.7301 C   0  0  0  0  0  0  0  0  0  0  0  0
    9.1378  -15.7066   27.5161 C   0  0  0  0  0  0  0  0  0  0  0  0
    9.8116  -15.5865   28.7376 C   0  0  0  0  0  0  0  0  0  0  0  0
   10.2400  -14.3573   29.1859 C   0  0  0  0  0  0  0  0  0  0  0  0
    9.9804  -13.2608   28.3914 C   0  0  0  0  0  0  0  0  0  0  0  0
    9.3181  -13.3708   27.1884 C   0  0  0  0  0  0  0  0  0  0  0  0
    9.8488  -16.2957   24.5127 C   0  0  0  0  0  0  0  0  0  0  0  0
    9.1881  -17.3604   24.4340 O   0  0  0  0  0  0  0  0  0  0  0  0
   14.2823  -17.4285   21.9956 C   0  0  0  0  0  0  0  0  0  0  0  0
   13.0168  -17.3308   22.7845 C   0  0  0  0  0  0  0  0  0  0  0  0
   13.1505  -17.6907   24.2380 C   0  0  2  0  0  0  0  0  0  0  0  0
   13.8351  -19.0512   24.2980 C   0  0  0  0  0  0  0  0  0  0  0  0
   11.8892  -17.6579   25.0227 C   0  0  2  0  0  0  0  0  0  0  0  0
   11.2310  -16.3779   24.8049 N   0  0  0  0  0  0  0  0  0  0  0  0
   12.0737  -17.9360   26.4623 C   0  0  0  0  0  0  0  0  0  0  0  0
   12.2851  -16.9725   27.2730 O   0  0  0  0  0  0  0  0  0  0  0  0
   12.0336  -19.1977   27.0188 O   0  0  0  0  0  0  0  0  0  0  0  0
  1  2  1  0
  2  3  1  0
  4  3  1  0
  5  1  1  0
  5  4  1  0
  5  6  1  1
  7  6  2  0
  8  6  1  0
  9  8  1  0
  9 10  1  1
 10 11  1  0
 11 12  2  0
 12 13  1  0
 14 13  2  0
 15 14  1  0
 16 11  1  0
 16 15  2  0
 17 24  1  0
 17  9  1  0
 18 17  2  0
 20 19  1  0
 21 20  1  0
 21 22  1  6
 23 21  1  0
 23 24  1  1
 25 23  1  0
 26 25  2  0
 27 25  1  0
M  END
$$$$
