PFI.pdb
     RDKit          3D

 27 28  0  0  1  0  0  0  0  0999 V2000
    9.3397  -18.0028   19.8359 N   0  0  0  0  0  0  0  0  0  0  0  0
    9.2282  -18.2478   18.4302 C   0  0  0  0  0  0  0  0  0  0  0  0
    9.9232  -17.1349   17.7103 C   0  0  0  0  0  0  0  0  0  0  0  0
   10.0339  -16.0635   18.7935 C   0  0  0  0  0  0  0  0  0  0  0  0
   10.2616  -16.9279   20.0109 C   0  0  1  0  0  0  0  0  0  0  0  0
   10.0442  -16.1741   21.2667 C   0  0  0  0  0  0  0  0  0  0  0  0
   10.8390  -15.2489   21.5584 O   0  0  0  0  0  0  0  0  0  0  0  0
    8.9817  -16.4619   22.1358 N   0  0  0  0  0  0  0  0  0  0  0  0
    8.6910  -15.6641   23.2986 C   0  0  1  0  0  0  0  0  0  0  0  0
    7.2215  -15.3177   23.3812 C   0  0  0  0  0  0  0  0  0  0  0  0
    6.9265  -14.3974   24.5075 C   0  0  0  0  0  0  0  0  0  0  0  0
    6.2169  -14.8090   25.6149 C   0  0  0  0  0  0  0  0  0  0  0  0
    5.9475  -13.9295   26.6706 C   0  0  0  0  0  0  0  0  0  0  0  0
    6.3870  -12.6255   26.6283 C   0  0  0  0  0  0  0  0  0  0  0  0
    7.0955  -12.2252   25.5153 C   0  0  0  0  0  0  0  0  0  0  0  0
    7.3646  -13.0845   24.4727 C   0  0  0  0  0  0  0  0  0  0  0  0
    9.1770  -16.3010   24.5495 C   0  0  0  0  0  0  0  0  0  0  0  0
    9.1635  -17.5556   24.5975 O   0  0  0  0  0  0  0  0  0  0  0  0
   10.9307  -13.3844   29.2882 C   0  0  0  0  0  0  0  0  0  0  0  0
   10.1849  -14.3199   28.3927 C   0  0  0  0  0  0  0  0  0  0  0  0
   11.0520  -15.2450   27.5848 C   0  0  2  0  0  0  0  0  0  0  0  0
   11.9636  -14.3694   26.7332 C   0  0  0  0  0  0  0  0  0  0  0  0
   10.3253  -16.2580   26.7764 C   0  0  2  0  0  0  0  0  0  0  0  0
    9.6475  -15.5866   25.6768 N   0  0  0  0  0  0  0  0  0  0  0  0
    9.3918  -17.0918   27.5620 C   0  0  0  0  0  0  0  0  0  0  0  0
    9.8457  -17.8835   28.4550 O   0  0  0  0  0  0  0  0  0  0  0  0
    8.0217  -17.0816   27.4018 O   0  0  0  0  0  0  0  0  0  0  0  0
  1  2  1  0
  2  3  1  0
  4  3  1  0
  5  1  1  0
  5  4  1  0
  5  6  1  1
  7  6  2  0
  8  6  1  0
  9  8  1  0
  9 10  1  1
 10 11  1  0
 11 12  2  0
 12 13  1  0
 14 13  2  0
 15 14  1  0
 16 11  1  0
 16 15  2  0
 17 24  1  0
 17  9  1  0
 18 17  2  0
 20 19  1  0
 21 20  1  0
 21 22  1  6
 23 21  1  0
 23 24  1  6
 25 23  1  0
 26 25  2  0
 27 25  1  0
M  END
$$$$
