PFI.pdb
     RDKit          3D

 27 28  0  0  1  0  0  0  0  0999 V2000
    9.0305  -17.8324   19.8519 N   0  0  0  0  0  0  0  0  0  0  0  0
    8.8909  -18.0106   18.4386 C   0  0  0  0  0  0  0  0  0  0  0  0
    9.6636  -16.9251   17.7570 C   0  0  0  0  0  0  0  0  0  0  0  0
    9.8631  -15.9103   18.8813 C   0  0  0  0  0  0  0  0  0  0  0  0
   10.0327  -16.8384   20.0606 C   0  0  1  0  0  0  0  0  0  0  0  0
    9.8821  -16.1222   21.3477 C   0  0  0  0  0  0  0  0  0  0  0  0
   10.7682  -15.3024   21.6875 O   0  0  0  0  0  0  0  0  0  0  0  0
    8.7839  -16.3318   22.1947 N   0  0  0  0  0  0  0  0  0  0  0  0
    8.5586  -15.5501   23.3827 C   0  0  1  0  0  0  0  0  0  0  0  0
    7.1147  -15.1157   23.4959 C   0  0  0  0  0  0  0  0  0  0  0  0
    6.8930  -14.2077   24.6487 C   0  0  0  0  0  0  0  0  0  0  0  0
    7.3263  -12.8995   24.6367 C   0  0  0  0  0  0  0  0  0  0  0  0
    7.1086  -12.0542   25.7315 C   0  0  0  0  0  0  0  0  0  0  0  0
    6.4529  -12.5112   26.8526 C   0  0  0  0  0  0  0  0  0  0  0  0
    6.0246  -13.8217   26.8533 C   0  0  0  0  0  0  0  0  0  0  0  0
    6.2349  -14.6595   25.7800 C   0  0  0  0  0  0  0  0  0  0  0  0
    9.0199  -16.2506   24.6088 C   0  0  0  0  0  0  0  0  0  0  0  0
    8.8136  -17.4872   24.6753 O   0  0  0  0  0  0  0  0  0  0  0  0
   11.1443  -13.6150   29.3420 C   0  0  0  0  0  0  0  0  0  0  0  0
   10.3090  -14.4283   28.4070 C   0  0  0  0  0  0  0  0  0  0  0  0
   11.0641  -15.4731   27.6334 C   0  0  2  0  0  0  0  0  0  0  0  0
   12.1229  -14.7424   26.8159 C   0  0  0  0  0  0  0  0  0  0  0  0
   10.2305  -16.3769   26.7992 C   0  0  2  0  0  0  0  0  0  0  0  0
    9.6692  -15.6145   25.6934 N   0  0  0  0  0  0  0  0  0  0  0  0
    9.1803  -17.0894   27.5563 C   0  0  0  0  0  0  0  0  0  0  0  0
    7.9517  -16.8017   27.3619 O   0  0  0  0  0  0  0  0  0  0  0  0
    9.4311  -18.0753   28.4881 O   0  0  0  0  0  0  0  0  0  0  0  0
  1  2  1  0
  2  3  1  0
  4  3  1  0
  5  1  1  0
  5  4  1  0
  5  6  1  1
  7  6  2  0
  8  6  1  0
  9  8  1  0
  9 10  1  1
 10 11  1  0
 11 12  2  0
 12 13  1  0
 14 13  2  0
 15 14  1  0
 16 11  1  0
 16 15  2  0
 17 24  1  0
 17  9  1  0
 18 17  2  0
 20 19  1  0
 21 20  1  0
 21 22  1  6
 23 21  1  0
 23 24  1  6
 25 23  1  0
 26 25  2  0
 27 25  1  0
M  END
$$$$
