PFI.pdb
     RDKit          3D

 27 28  0  0  1  0  0  0  0  0999 V2000
    9.2224  -17.9369   19.8739 N   0  0  0  0  0  0  0  0  0  0  0  0
    9.0922  -18.1512   18.4647 C   0  0  0  0  0  0  0  0  0  0  0  0
    9.8867  -17.0960   17.7611 C   0  0  0  0  0  0  0  0  0  0  0  0
   10.0916  -16.0541   18.8593 C   0  0  0  0  0  0  0  0  0  0  0  0
   10.2374  -16.9524   20.0647 C   0  0  1  0  0  0  0  0  0  0  0  0
   10.0864  -16.1995   21.3307 C   0  0  0  0  0  0  0  0  0  0  0  0
   10.9882  -15.3936   21.6627 O   0  0  0  0  0  0  0  0  0  0  0  0
    8.9711  -16.3593   22.1659 N   0  0  0  0  0  0  0  0  0  0  0  0
    8.7420  -15.5334   23.3229 C   0  0  1  0  0  0  0  0  0  0  0  0
    7.3047  -15.0701   23.3985 C   0  0  0  0  0  0  0  0  0  0  0  0
    7.0783  -14.1324   24.5264 C   0  0  0  0  0  0  0  0  0  0  0  0
    6.3999  -14.5145   25.6635 C   0  0  0  0  0  0  0  0  0  0  0  0
    6.1951  -13.6189   26.7202 C   0  0  0  0  0  0  0  0  0  0  0  0
    6.6689  -12.3281   26.6491 C   0  0  0  0  0  0  0  0  0  0  0  0
    7.3456  -11.9573   25.5065 C   0  0  0  0  0  0  0  0  0  0  0  0
    7.5511  -12.8327   24.4627 C   0  0  0  0  0  0  0  0  0  0  0  0
    9.1721  -16.1991   24.5793 C   0  0  0  0  0  0  0  0  0  0  0  0
    9.0613  -17.4486   24.6337 O   0  0  0  0  0  0  0  0  0  0  0  0
   10.1493  -14.0092   29.8842 C   0  0  0  0  0  0  0  0  0  0  0  0
    9.7783  -14.4473   28.5044 C   0  0  0  0  0  0  0  0  0  0  0  0
   10.8347  -15.2438   27.7903 C   0  0  2  0  0  0  0  0  0  0  0  0
   11.8020  -14.2431   27.1689 C   0  0  0  0  0  0  0  0  0  0  0  0
   10.3305  -16.2311   26.8010 C   0  0  2  0  0  0  0  0  0  0  0  0
    9.6919  -15.5171   25.7050 N   0  0  0  0  0  0  0  0  0  0  0  0
    9.4330  -17.2524   27.3803 C   0  0  0  0  0  0  0  0  0  0  0  0
    8.1921  -17.2505   27.0803 O   0  0  0  0  0  0  0  0  0  0  0  0
    9.8444  -18.2420   28.2489 O   0  0  0  0  0  0  0  0  0  0  0  0
  1  2  1  0
  2  3  1  0
  4  3  1  0
  5  1  1  0
  5  4  1  0
  5  6  1  1
  7  6  2  0
  8  6  1  0
  9  8  1  0
  9 10  1  1
 10 11  1  0
 11 12  2  0
 12 13  1  0
 14 13  2  0
 15 14  1  0
 16 11  1  0
 16 15  2  0
 17 24  1  0
 17  9  1  0
 18 17  2  0
 20 19  1  0
 21 20  1  0
 21 22  1  6
 23 21  1  0
 23 24  1  6
 25 23  1  0
 26 25  2  0
 27 25  1  0
M  END
$$$$
