CWA.pdb
     RDKit          3D

 26 27  0  0  1  0  0  0  0  0999 V2000
    7.3625  -14.6185   20.0812 N   0  0  0  0  0  0  0  0  0  0  0  0
    7.4223  -15.6014   21.1287 C   0  0  1  0  0  0  0  0  0  0  0  0
    7.7027  -16.9731   20.5445 C   0  0  0  0  0  0  0  0  0  0  0  0
    9.4694  -17.0876   20.1996 S   0  0  0  0  0  0  0  0  0  0  0  0
    8.4393  -15.2484   22.1589 C   0  0  0  0  0  0  0  0  0  0  0  0
    9.1763  -14.2566   21.9306 O   0  0  0  0  0  0  0  0  0  0  0  0
    8.5885  -15.9850   23.3540 N   0  0  0  0  0  0  0  0  0  0  0  0
    9.5611  -15.5996   24.4100 C   0  0  1  0  0  0  0  0  0  0  0  0
    8.8336  -15.8201   25.6806 C   0  0  0  0  0  0  0  0  0  0  0  0
    7.5785  -15.1254   25.9114 C   0  0  0  0  0  0  0  0  0  0  0  0
    6.2767  -15.5934   25.8980 C   0  0  0  0  0  0  0  0  0  0  0  0
    5.4665  -14.5571   26.1529 N   0  0  0  0  0  0  0  0  0  0  0  0
    6.1638  -13.4360   26.3333 C   0  0  0  0  0  0  0  0  0  0  0  0
    5.8114  -12.1168   26.6366 C   0  0  0  0  0  0  0  0  0  0  0  0
    6.7555  -11.1241   26.7970 C   0  0  0  0  0  0  0  0  0  0  0  0
    8.0746  -11.4606   26.6501 C   0  0  0  0  0  0  0  0  0  0  0  0
    8.4175  -12.7569   26.3516 C   0  0  0  0  0  0  0  0  0  0  0  0
    7.4751  -13.7665   26.1876 C   0  0  0  0  0  0  0  0  0  0  0  0
   10.7495  -16.4195   24.2302 C   0  0  0  0  0  0  0  0  0  0  0  0
   11.6506  -16.4365   25.1048 O   0  0  0  0  0  0  0  0  0  0  0  0
   11.8716  -19.1534   21.8419 C   0  0  0  0  0  0  0  0  0  0  0  0
   12.1426  -18.0743   22.9034 C   0  0  2  0  0  0  0  0  0  0  0  0
   10.9826  -17.2543   23.0883 N   0  0  0  0  0  0  0  0  0  0  0  0
   13.3478  -17.3733   22.4637 C   0  0  0  0  0  0  0  0  0  0  0  0
   14.5337  -18.1258   22.3931 O   0  0  0  0  0  0  0  0  0  0  0  0
   13.3478  -16.1685   22.1614 O   0  0  0  0  0  0  0  0  0  0  0  0
  2  5  1  0
  2  1  1  6
  3  2  1  0
  4  3  1  0
  5  6  2  0
  7  8  1  0
  7  5  1  0
  8  9  1  1
 10  9  1  0
 11 10  2  0
 12 13  1  0
 12 11  1  0
 13 18  2  0
 14 13  1  0
 14 15  2  0
 15 16  1  0
 16 17  2  0
 18 10  1  0
 18 17  1  0
 19 20  2  0
 19  8  1  0
 22 21  1  6
 22 23  1  0
 23 19  1  0
 24 22  1  0
 24 25  1  0
 26 24  2  0
M  END
$$$$
