CWA.pdb
     RDKit          3D

 26 27  0  0  1  0  0  0  0  0999 V2000
    6.6195  -16.0147   21.0929 N   0  0  0  0  0  0  0  0  0  0  0  0
    8.0466  -16.1694   21.0137 C   0  0  1  0  0  0  0  0  0  0  0  0
    8.5801  -15.4801   19.7720 C   0  0  0  0  0  0  0  0  0  0  0  0
    7.9176  -16.3317   18.3267 S   0  0  0  0  0  0  0  0  0  0  0  0
    8.7258  -15.6551   22.2361 C   0  0  0  0  0  0  0  0  0  0  0  0
    8.9483  -14.4200   22.3001 O   0  0  0  0  0  0  0  0  0  0  0  0
    9.1144  -16.5034   23.2956 N   0  0  0  0  0  0  0  0  0  0  0  0
    9.8298  -15.9991   24.4972 C   0  0  1  0  0  0  0  0  0  0  0  0
    8.9015  -16.2666   25.6192 C   0  0  0  0  0  0  0  0  0  0  0  0
    7.6589  -15.5190   25.7080 C   0  0  0  0  0  0  0  0  0  0  0  0
    6.3521  -15.9187   25.4921 C   0  0  0  0  0  0  0  0  0  0  0  0
    5.5615  -14.8539   25.6828 N   0  0  0  0  0  0  0  0  0  0  0  0
    6.2761  -13.7785   26.0122 C   0  0  0  0  0  0  0  0  0  0  0  0
    5.9441  -12.4570   26.3279 C   0  0  0  0  0  0  0  0  0  0  0  0
    6.8999  -11.5215   26.6654 C   0  0  0  0  0  0  0  0  0  0  0  0
    8.2101  -11.9186   26.6859 C   0  0  0  0  0  0  0  0  0  0  0  0
    8.5331  -13.2170   26.3747 C   0  0  0  0  0  0  0  0  0  0  0  0
    7.5787  -14.1693   26.0331 C   0  0  0  0  0  0  0  0  0  0  0  0
   11.1043  -16.6969   24.5722 C   0  0  0  0  0  0  0  0  0  0  0  0
   11.8887  -16.4904   25.5310 O   0  0  0  0  0  0  0  0  0  0  0  0
   12.7606  -19.6572   22.9153 C   0  0  0  0  0  0  0  0  0  0  0  0
   12.8332  -18.2964   23.6279 C   0  0  2  0  0  0  0  0  0  0  0  0
   11.5546  -17.6509   23.6015 N   0  0  0  0  0  0  0  0  0  0  0  0
   13.9233  -17.5649   22.9846 C   0  0  0  0  0  0  0  0  0  0  0  0
   13.5690  -16.4572   22.1939 O   0  0  0  0  0  0  0  0  0  0  0  0
   15.1152  -17.8891   23.1162 O   0  0  0  0  0  0  0  0  0  0  0  0
  2  5  1  0
  2  1  1  1
  3  2  1  0
  4  3  1  0
  5  6  2  0
  7  8  1  0
  7  5  1  0
  8  9  1  1
 10  9  1  0
 11 10  2  0
 12 13  1  0
 12 11  1  0
 13 18  2  0
 14 13  1  0
 14 15  2  0
 15 16  1  0
 16 17  2  0
 18 10  1  0
 18 17  1  0
 19 20  2  0
 19  8  1  0
 22 21  1  6
 22 23  1  0
 23 19  1  0
 24 22  1  0
 24 25  1  0
 26 24  2  0
M  END
$$$$
