CWA.pdb
     RDKit          3D

 26 27  0  0  1  0  0  0  0  0999 V2000
    6.4237  -14.5332   20.0848 N   0  0  0  0  0  0  0  0  0  0  0  0
    7.3049  -15.6191   20.4185 C   0  0  1  0  0  0  0  0  0  0  0  0
    8.1617  -15.9854   19.2213 C   0  0  0  0  0  0  0  0  0  0  0  0
    8.5665  -17.7393   19.3344 S   0  0  0  0  0  0  0  0  0  0  0  0
    8.1562  -15.2959   21.5979 C   0  0  0  0  0  0  0  0  0  0  0  0
    8.6538  -14.1435   21.6560 O   0  0  0  0  0  0  0  0  0  0  0  0
    8.4090  -16.2321   22.6240 N   0  0  0  0  0  0  0  0  0  0  0  0
    9.3081  -15.9337   23.7695 C   0  0  1  0  0  0  0  0  0  0  0  0
    8.5072  -16.2760   24.9669 C   0  0  0  0  0  0  0  0  0  0  0  0
    7.4041  -15.4138   25.3550 C   0  0  0  0  0  0  0  0  0  0  0  0
    6.0430  -15.6585   25.3943 C   0  0  0  0  0  0  0  0  0  0  0  0
    5.4371  -14.5365   25.8056 N   0  0  0  0  0  0  0  0  0  0  0  0
    6.3242  -13.5699   26.0388 C   0  0  0  0  0  0  0  0  0  0  0  0
    6.2196  -12.2504   26.4910 C   0  0  0  0  0  0  0  0  0  0  0  0
    7.3265  -11.4481   26.6739 C   0  0  0  0  0  0  0  0  0  0  0  0
    8.5584  -11.9783   26.3981 C   0  0  0  0  0  0  0  0  0  0  0  0
    8.6579  -13.2743   25.9536 C   0  0  0  0  0  0  0  0  0  0  0  0
    7.5495  -14.0932   25.7654 C   0  0  0  0  0  0  0  0  0  0  0  0
   10.5185  -16.7213   23.5921 C   0  0  0  0  0  0  0  0  0  0  0  0
   10.4552  -17.9701   23.4757 O   0  0  0  0  0  0  0  0  0  0  0  0
   14.1837  -16.0436   22.8723 C   0  0  0  0  0  0  0  0  0  0  0  0
   13.0400  -16.9285   23.3957 C   0  0  2  0  0  0  0  0  0  0  0  0
   11.8370  -16.1620   23.5276 N   0  0  0  0  0  0  0  0  0  0  0  0
   13.5375  -17.5396   24.6270 C   0  0  0  0  0  0  0  0  0  0  0  0
   14.6683  -18.3684   24.5163 O   0  0  0  0  0  0  0  0  0  0  0  0
   13.0018  -17.3499   25.7315 O   0  0  0  0  0  0  0  0  0  0  0  0
  2  5  1  0
  2  1  1  6
  3  2  1  0
  4  3  1  0
  5  6  2  0
  7  8  1  0
  7  5  1  0
  8  9  1  1
 10  9  1  0
 11 10  2  0
 12 13  1  0
 12 11  1  0
 13 18  2  0
 14 13  1  0
 14 15  2  0
 15 16  1  0
 16 17  2  0
 18 10  1  0
 18 17  1  0
 19 20  2  0
 19  8  1  0
 22 21  1  1
 22 23  1  0
 23 19  1  0
 24 22  1  0
 24 25  1  0
 26 24  2  0
M  END
$$$$
