CWA.pdb
     RDKit          3D

 26 27  0  0  1  0  0  0  0  0999 V2000
   10.3771  -16.1395   19.3632 N   0  0  0  0  0  0  0  0  0  0  0  0
    9.6206  -16.9586   20.2707 C   0  0  1  0  0  0  0  0  0  0  0  0
    9.8539  -18.4271   19.9697 C   0  0  0  0  0  0  0  0  0  0  0  0
   11.4369  -18.9048   20.6902 S   0  0  0  0  0  0  0  0  0  0  0  0
    9.9467  -16.6528   21.6921 C   0  0  0  0  0  0  0  0  0  0  0  0
   11.0667  -16.1361   21.9323 O   0  0  0  0  0  0  0  0  0  0  0  0
    9.0480  -16.9241   22.7466 N   0  0  0  0  0  0  0  0  0  0  0  0
    9.3578  -16.5905   24.1617 C   0  0  1  0  0  0  0  0  0  0  0  0
    8.0394  -16.3007   24.7701 C   0  0  0  0  0  0  0  0  0  0  0  0
    7.4150  -15.0103   24.5334 C   0  0  0  0  0  0  0  0  0  0  0  0
    6.7981  -14.5043   23.4032 C   0  0  0  0  0  0  0  0  0  0  0  0
    6.3968  -13.2562   23.6800 N   0  0  0  0  0  0  0  0  0  0  0  0
    6.7152  -12.9156   24.9283 C   0  0  0  0  0  0  0  0  0  0  0  0
    6.5112  -11.7659   25.6983 C   0  0  0  0  0  0  0  0  0  0  0  0
    6.9311  -11.6774   27.0092 C   0  0  0  0  0  0  0  0  0  0  0  0
    7.5665  -12.7600   27.5560 C   0  0  0  0  0  0  0  0  0  0  0  0
    7.7660  -13.8875   26.7969 C   0  0  0  0  0  0  0  0  0  0  0  0
    7.3472  -13.9889   25.4745 C   0  0  0  0  0  0  0  0  0  0  0  0
   10.0642  -17.7262   24.7342 C   0  0  0  0  0  0  0  0  0  0  0  0
    9.5631  -18.8769   24.6900 O   0  0  0  0  0  0  0  0  0  0  0  0
   12.7934  -19.5097   24.7713 C   0  0  0  0  0  0  0  0  0  0  0  0
   12.0722  -18.7521   25.8984 C   0  0  2  0  0  0  0  0  0  0  0  0
   11.3482  -17.6366   25.3656 N   0  0  0  0  0  0  0  0  0  0  0  0
   13.1015  -18.4244   26.8835 C   0  0  0  0  0  0  0  0  0  0  0  0
   13.3492  -17.0600   27.1177 O   0  0  0  0  0  0  0  0  0  0  0  0
   13.7407  -19.2948   27.4974 O   0  0  0  0  0  0  0  0  0  0  0  0
  2  5  1  0
  2  1  1  6
  3  2  1  0
  4  3  1  0
  5  6  2  0
  7  8  1  0
  7  5  1  0
  8  9  1  1
 10  9  1  0
 11 10  2  0
 12 13  1  0
 12 11  1  0
 13 18  2  0
 14 13  1  0
 14 15  2  0
 15 16  1  0
 16 17  2  0
 18 10  1  0
 18 17  1  0
 19 20  2  0
 19  8  1  0
 22 21  1  6
 22 23  1  0
 23 19  1  0
 24 22  1  0
 24 25  1  0
 26 24  2  0
M  END
$$$$
