CWA.pdb
     RDKit          3D

 26 27  0  0  1  0  0  0  0  0999 V2000
    7.3432  -14.3519   20.0358 N   0  0  0  0  0  0  0  0  0  0  0  0
    7.6250  -15.5218   20.8224 C   0  0  1  0  0  0  0  0  0  0  0  0
    8.2380  -16.6029   19.9524 C   0  0  0  0  0  0  0  0  0  0  0  0
    7.7389  -18.2060   20.6112 S   0  0  0  0  0  0  0  0  0  0  0  0
    8.5117  -15.2086   21.9783 C   0  0  0  0  0  0  0  0  0  0  0  0
    9.2688  -14.2111   21.8753 O   0  0  0  0  0  0  0  0  0  0  0  0
    8.5189  -15.9882   23.1554 N   0  0  0  0  0  0  0  0  0  0  0  0
    9.4244  -15.6962   24.2976 C   0  0  1  0  0  0  0  0  0  0  0  0
    8.5872  -15.9172   25.4986 C   0  0  0  0  0  0  0  0  0  0  0  0
    7.4000  -15.1037   25.6977 C   0  0  0  0  0  0  0  0  0  0  0  0
    6.0594  -15.4400   25.6367 C   0  0  0  0  0  0  0  0  0  0  0  0
    5.3477  -14.3309   25.8784 N   0  0  0  0  0  0  0  0  0  0  0  0
    6.1460  -13.2862   26.0951 C   0  0  0  0  0  0  0  0  0  0  0  0
    5.9159  -11.9414   26.4035 C   0  0  0  0  0  0  0  0  0  0  0  0
    6.9477  -11.0488   26.6065 C   0  0  0  0  0  0  0  0  0  0  0  0
    8.2311  -11.5131   26.4978 C   0  0  0  0  0  0  0  0  0  0  0  0
    8.4540  -12.8343   26.1942 C   0  0  0  0  0  0  0  0  0  0  0  0
    7.4223  -13.7438   25.9874 C   0  0  0  0  0  0  0  0  0  0  0  0
   10.5762  -16.5771   24.1788 C   0  0  0  0  0  0  0  0  0  0  0  0
   10.8899  -17.3469   25.1201 O   0  0  0  0  0  0  0  0  0  0  0  0
   11.9568  -19.0262   23.0096 C   0  0  0  0  0  0  0  0  0  0  0  0
   12.4798  -17.5900   22.8409 C   0  0  2  0  0  0  0  0  0  0  0  0
   11.4155  -16.6477   23.0187 N   0  0  0  0  0  0  0  0  0  0  0  0
   13.1428  -17.5554   21.5384 C   0  0  0  0  0  0  0  0  0  0  0  0
   14.2860  -18.3595   21.3829 O   0  0  0  0  0  0  0  0  0  0  0  0
   12.7329  -16.8551   20.5979 O   0  0  0  0  0  0  0  0  0  0  0  0
  2  5  1  0
  2  1  1  6
  3  2  1  0
  4  3  1  0
  5  6  2  0
  7  8  1  0
  7  5  1  0
  8  9  1  1
 10  9  1  0
 11 10  2  0
 12 13  1  0
 12 11  1  0
 13 18  2  0
 14 13  1  0
 14 15  2  0
 15 16  1  0
 16 17  2  0
 18 10  1  0
 18 17  1  0
 19 20  2  0
 19  8  1  0
 22 21  1  6
 22 23  1  0
 23 19  1  0
 24 22  1  0
 24 25  1  0
 26 24  2  0
M  END
$$$$
