CWA.pdb
     RDKit          3D

 26 27  0  0  1  0  0  0  0  0999 V2000
   11.6297  -16.6428   19.4121 N   0  0  0  0  0  0  0  0  0  0  0  0
   11.3635  -17.2827   20.6717 C   0  0  1  0  0  0  0  0  0  0  0  0
   12.5824  -18.0593   21.1328 C   0  0  0  0  0  0  0  0  0  0  0  0
   12.4934  -19.7172   20.4280 S   0  0  0  0  0  0  0  0  0  0  0  0
   10.9388  -16.3018   21.7098 C   0  0  0  0  0  0  0  0  0  0  0  0
   11.6711  -15.2972   21.8930 O   0  0  0  0  0  0  0  0  0  0  0  0
    9.7624  -16.4726   22.4715 N   0  0  0  0  0  0  0  0  0  0  0  0
    9.3533  -15.5119   23.5296 C   0  0  1  0  0  0  0  0  0  0  0  0
    7.9337  -15.8379   23.7958 C   0  0  0  0  0  0  0  0  0  0  0  0
    7.2172  -15.1068   24.8268 C   0  0  0  0  0  0  0  0  0  0  0  0
    6.5053  -15.5629   25.9218 C   0  0  0  0  0  0  0  0  0  0  0  0
    6.0125  -14.4948   26.5635 N   0  0  0  0  0  0  0  0  0  0  0  0
    6.3618  -13.3639   25.9512 C   0  0  0  0  0  0  0  0  0  0  0  0
    6.1306  -12.0101   26.2162 C   0  0  0  0  0  0  0  0  0  0  0  0
    6.6388  -11.0090   25.4149 C   0  0  0  0  0  0  0  0  0  0  0  0
    7.3907  -11.3724   24.3299 C   0  0  0  0  0  0  0  0  0  0  0  0
    7.6155  -12.7028   24.0719 C   0  0  0  0  0  0  0  0  0  0  0  0
    7.1087  -13.7212   24.8722 C   0  0  0  0  0  0  0  0  0  0  0  0
   10.2505  -15.6979   24.6598 C   0  0  0  0  0  0  0  0  0  0  0  0
   11.4603  -15.3722   24.5737 O   0  0  0  0  0  0  0  0  0  0  0  0
   10.5816  -14.6251   27.5988 C   0  0  0  0  0  0  0  0  0  0  0  0
   10.5830  -16.0941   27.1441 C   0  0  2  0  0  0  0  0  0  0  0  0
    9.8461  -16.2392   25.9242 N   0  0  0  0  0  0  0  0  0  0  0  0
   10.0816  -16.8656   28.2801 C   0  0  0  0  0  0  0  0  0  0  0  0
   10.8575  -16.8517   29.4531 O   0  0  0  0  0  0  0  0  0  0  0  0
    9.0217  -17.5116   28.2341 O   0  0  0  0  0  0  0  0  0  0  0  0
  2  5  1  0
  2  1  1  6
  3  2  1  0
  4  3  1  0
  5  6  2  0
  7  8  1  0
  7  5  1  0
  8  9  1  1
 10  9  1  0
 11 10  2  0
 12 13  1  0
 12 11  1  0
 13 18  2  0
 14 13  1  0
 14 15  2  0
 15 16  1  0
 16 17  2  0
 18 10  1  0
 18 17  1  0
 19 20  2  0
 19  8  1  0
 22 21  1  1
 22 23  1  0
 23 19  1  0
 24 22  1  0
 24 25  1  0
 26 24  2  0
M  END
$$$$
