CWA.pdb
     RDKit          3D

 26 27  0  0  1  0  0  0  0  0999 V2000
    7.1488  -14.9395   19.6007 N   0  0  0  0  0  0  0  0  0  0  0  0
    7.2707  -15.9653   20.6007 C   0  0  1  0  0  0  0  0  0  0  0  0
    7.6255  -17.2899   19.9519 C   0  0  0  0  0  0  0  0  0  0  0  0
    9.3368  -17.2007   19.3894 S   0  0  0  0  0  0  0  0  0  0  0  0
    8.2720  -15.6031   21.6431 C   0  0  0  0  0  0  0  0  0  0  0  0
    8.9920  -14.5954   21.4307 O   0  0  0  0  0  0  0  0  0  0  0  0
    8.4247  -16.3482   22.8325 N   0  0  0  0  0  0  0  0  0  0  0  0
    9.4328  -15.9976   23.8672 C   0  0  1  0  0  0  0  0  0  0  0  0
    8.7262  -16.1948   25.1533 C   0  0  0  0  0  0  0  0  0  0  0  0
    7.5788  -15.3616   25.4695 C   0  0  0  0  0  0  0  0  0  0  0  0
    6.2307  -15.6689   25.5165 C   0  0  0  0  0  0  0  0  0  0  0  0
    5.5671  -14.5510   25.8406 N   0  0  0  0  0  0  0  0  0  0  0  0
    6.4041  -13.5280   26.0094 C   0  0  0  0  0  0  0  0  0  0  0  0
    6.2312  -12.1859   26.3636 C   0  0  0  0  0  0  0  0  0  0  0  0
    7.2962  -11.3194   26.4958 C   0  0  0  0  0  0  0  0  0  0  0  0
    8.5551  -11.8075   26.2684 C   0  0  0  0  0  0  0  0  0  0  0  0
    8.7217  -13.1259   25.9201 C   0  0  0  0  0  0  0  0  0  0  0  0
    7.6561  -14.0093   25.7838 C   0  0  0  0  0  0  0  0  0  0  0  0
   10.5884  -16.8571   23.6608 C   0  0  0  0  0  0  0  0  0  0  0  0
   10.4527  -18.1041   23.6001 O   0  0  0  0  0  0  0  0  0  0  0  0
   14.2377  -16.3935   22.7171 C   0  0  0  0  0  0  0  0  0  0  0  0
   13.0767  -17.2095   23.3096 C   0  0  2  0  0  0  0  0  0  0  0  0
   11.9293  -16.3745   23.5053 N   0  0  0  0  0  0  0  0  0  0  0  0
   13.6077  -17.8456   24.5140 C   0  0  0  0  0  0  0  0  0  0  0  0
   12.9751  -17.5353   25.7312 O   0  0  0  0  0  0  0  0  0  0  0  0
   14.5726  -18.6272   24.4874 O   0  0  0  0  0  0  0  0  0  0  0  0
  2  5  1  0
  2  1  1  6
  3  2  1  0
  4  3  1  0
  5  6  2  0
  7  8  1  0
  7  5  1  0
  8  9  1  1
 10  9  1  0
 11 10  2  0
 12 13  1  0
 12 11  1  0
 13 18  2  0
 14 13  1  0
 14 15  2  0
 15 16  1  0
 16 17  2  0
 18 10  1  0
 18 17  1  0
 19 20  2  0
 19  8  1  0
 22 21  1  1
 22 23  1  0
 23 19  1  0
 24 22  1  0
 24 25  1  0
 26 24  2  0
M  END
$$$$
