CWA.pdb
     RDKit          3D

 26 27  0  0  1  0  0  0  0  0999 V2000
    8.0996  -12.7763   17.7468 N   0  0  0  0  0  0  0  0  0  0  0  0
    7.6107  -13.9331   18.4466 C   0  0  1  0  0  0  0  0  0  0  0  0
    8.0062  -15.1980   17.7082 C   0  0  0  0  0  0  0  0  0  0  0  0
    9.8036  -15.3398   17.7572 S   0  0  0  0  0  0  0  0  0  0  0  0
    8.0950  -13.9709   19.8553 C   0  0  0  0  0  0  0  0  0  0  0  0
    9.1211  -13.3015   20.1343 O   0  0  0  0  0  0  0  0  0  0  0  0
    7.4428  -14.7230   20.8564 N   0  0  0  0  0  0  0  0  0  0  0  0
    7.9002  -14.7306   22.2708 C   0  0  1  0  0  0  0  0  0  0  0  0
    6.6498  -14.7235   23.0636 C   0  0  0  0  0  0  0  0  0  0  0  0
    6.7266  -14.7722   24.5137 C   0  0  0  0  0  0  0  0  0  0  0  0
    6.7169  -15.8521   25.3783 C   0  0  0  0  0  0  0  0  0  0  0  0
    6.7919  -15.3761   26.6286 N   0  0  0  0  0  0  0  0  0  0  0  0
    6.8508  -14.0449   26.6324 C   0  0  0  0  0  0  0  0  0  0  0  0
    6.9565  -13.0850   27.6443 C   0  0  0  0  0  0  0  0  0  0  0  0
    7.0243  -11.7349   27.3700 C   0  0  0  0  0  0  0  0  0  0  0  0
    6.9850  -11.3418   26.0590 C   0  0  0  0  0  0  0  0  0  0  0  0
    6.8805  -12.2868   25.0675 C   0  0  0  0  0  0  0  0  0  0  0  0
    6.8115  -13.6507   25.3313 C   0  0  0  0  0  0  0  0  0  0  0  0
    8.7385  -15.9057   22.4529 C   0  0  0  0  0  0  0  0  0  0  0  0
    8.3826  -17.0199   21.9957 O   0  0  0  0  0  0  0  0  0  0  0  0
   12.2776  -16.7605   23.0453 C   0  0  0  0  0  0  0  0  0  0  0  0
   10.8048  -17.0532   23.3766 C   0  0  2  0  0  0  0  0  0  0  0  0
    9.9993  -15.8934   23.1351 N   0  0  0  0  0  0  0  0  0  0  0  0
   10.7949  -17.5540   24.7501 C   0  0  0  0  0  0  0  0  0  0  0  0
   11.5411  -18.7174   25.0104 O   0  0  0  0  0  0  0  0  0  0  0  0
   10.1634  -16.9941   25.6614 O   0  0  0  0  0  0  0  0  0  0  0  0
  2  5  1  0
  2  1  1  6
  3  2  1  0
  4  3  1  0
  5  6  2  0
  7  8  1  0
  7  5  1  0
  8  9  1  1
 10  9  1  0
 11 10  2  0
 12 13  1  0
 12 11  1  0
 13 18  2  0
 14 13  1  0
 14 15  2  0
 15 16  1  0
 16 17  2  0
 18 10  1  0
 18 17  1  0
 19 20  2  0
 19  8  1  0
 22 21  1  1
 22 23  1  0
 23 19  1  0
 24 22  1  0
 24 25  1  0
 26 24  2  0
M  END
$$$$
