CWA.pdb
     RDKit          3D

 26 27  0  0  1  0  0  0  0  0999 V2000
    8.8769  -18.7889   18.3665 N   0  0  0  0  0  0  0  0  0  0  0  0
    8.1884  -18.7515   19.6281 C   0  0  1  0  0  0  0  0  0  0  0  0
    8.2546  -20.1094   20.3015 C   0  0  0  0  0  0  0  0  0  0  0  0
    9.9656  -20.4161   20.7829 S   0  0  0  0  0  0  0  0  0  0  0  0
    8.7332  -17.6916   20.5225 C   0  0  0  0  0  0  0  0  0  0  0  0
    9.8433  -17.1884   20.2166 O   0  0  0  0  0  0  0  0  0  0  0  0
    8.0470  -17.2525   21.6756 N   0  0  0  0  0  0  0  0  0  0  0  0
    8.5845  -16.1894   22.5647 C   0  0  1  0  0  0  0  0  0  0  0  0
    7.4025  -15.3704   22.9176 C   0  0  0  0  0  0  0  0  0  0  0  0
    7.5977  -14.0454   23.4809 C   0  0  0  0  0  0  0  0  0  0  0  0
    8.2483  -12.9376   22.9675 C   0  0  0  0  0  0  0  0  0  0  0  0
    8.1696  -11.9581   23.8784 N   0  0  0  0  0  0  0  0  0  0  0  0
    7.5035  -12.3611   24.9599 C   0  0  0  0  0  0  0  0  0  0  0  0
    7.1350  -11.7371   26.1563 C   0  0  0  0  0  0  0  0  0  0  0  0
    6.4065  -12.3892   27.1292 C   0  0  0  0  0  0  0  0  0  0  0  0
    6.0423  -13.6887   26.8979 C   0  0  0  0  0  0  0  0  0  0  0  0
    6.4063  -14.2990   25.7223 C   0  0  0  0  0  0  0  0  0  0  0  0
    7.1405  -13.6522   24.7338 C   0  0  0  0  0  0  0  0  0  0  0  0
    9.2363  -16.8463   23.6874 C   0  0  0  0  0  0  0  0  0  0  0  0
    8.6826  -17.8110   24.2706 O   0  0  0  0  0  0  0  0  0  0  0  0
   12.7278  -16.8427   25.1717 C   0  0  0  0  0  0  0  0  0  0  0  0
   11.2292  -17.1838   25.2216 C   0  0  2  0  0  0  0  0  0  0  0  0
   10.5214  -16.4711   24.2002 N   0  0  0  0  0  0  0  0  0  0  0  0
   10.8018  -16.9119   26.5930 C   0  0  0  0  0  0  0  0  0  0  0  0
    9.7929  -15.9479   26.7677 O   0  0  0  0  0  0  0  0  0  0  0  0
   11.2934  -17.4936   27.5743 O   0  0  0  0  0  0  0  0  0  0  0  0
  2  5  1  0
  2  1  1  6
  3  2  1  0
  4  3  1  0
  5  6  2  0
  7  8  1  0
  7  5  1  0
  8  9  1  1
 10  9  1  0
 11 10  2  0
 12 13  1  0
 12 11  1  0
 13 18  2  0
 14 13  1  0
 14 15  2  0
 15 16  1  0
 16 17  2  0
 18 10  1  0
 18 17  1  0
 19 20  2  0
 19  8  1  0
 22 21  1  1
 22 23  1  0
 23 19  1  0
 24 22  1  0
 24 25  1  0
 26 24  2  0
M  END
$$$$
