CWA.pdb
     RDKit          3D

 26 27  0  0  1  0  0  0  0  0999 V2000
   11.2048  -16.3116   18.7141 N   0  0  0  0  0  0  0  0  0  0  0  0
   10.2821  -16.9204   19.6333 C   0  0  1  0  0  0  0  0  0  0  0  0
   10.6841  -18.3579   19.9042 C   0  0  0  0  0  0  0  0  0  0  0  0
   12.2140  -18.3441   20.8594 S   0  0  0  0  0  0  0  0  0  0  0  0
   10.1829  -16.1513   20.9057 C   0  0  0  0  0  0  0  0  0  0  0  0
   11.0468  -15.2633   21.1158 O   0  0  0  0  0  0  0  0  0  0  0  0
    9.1661  -16.3928   21.8549 N   0  0  0  0  0  0  0  0  0  0  0  0
    9.0306  -15.5886   23.0978 C   0  0  1  0  0  0  0  0  0  0  0  0
    7.5706  -15.4045   23.2614 C   0  0  0  0  0  0  0  0  0  0  0  0
    7.0532  -14.9115   24.5264 C   0  0  0  0  0  0  0  0  0  0  0  0
    6.3992  -15.5745   25.5495 C   0  0  0  0  0  0  0  0  0  0  0  0
    6.1071  -14.6753   26.4989 N   0  0  0  0  0  0  0  0  0  0  0  0
    6.5332  -13.4601   26.1563 C   0  0  0  0  0  0  0  0  0  0  0  0
    6.4985  -12.2109   26.7846 C   0  0  0  0  0  0  0  0  0  0  0  0
    7.0473  -11.0846   26.2078 C   0  0  0  0  0  0  0  0  0  0  0  0
    7.6401  -11.2139   24.9804 C   0  0  0  0  0  0  0  0  0  0  0  0
    7.6720  -12.4419   24.3655 C   0  0  0  0  0  0  0  0  0  0  0  0
    7.1224  -13.5847   24.9368 C   0  0  0  0  0  0  0  0  0  0  0  0
    9.6825  -16.3262   24.1690 C   0  0  0  0  0  0  0  0  0  0  0  0
    9.7938  -15.8225   25.3141 O   0  0  0  0  0  0  0  0  0  0  0  0
   11.0243  -19.8607   24.6537 C   0  0  0  0  0  0  0  0  0  0  0  0
   10.8489  -18.3912   25.0718 C   0  0  2  0  0  0  0  0  0  0  0  0
   10.2254  -17.6447   24.0200 N   0  0  0  0  0  0  0  0  0  0  0  0
   12.1757  -17.9279   25.4741 C   0  0  0  0  0  0  0  0  0  0  0  0
   12.7183  -16.8463   24.7575 O   0  0  0  0  0  0  0  0  0  0  0  0
   12.8132  -18.4507   26.4032 O   0  0  0  0  0  0  0  0  0  0  0  0
  2  5  1  0
  2  1  1  6
  3  2  1  0
  4  3  1  0
  5  6  2  0
  7  8  1  0
  7  5  1  0
  8  9  1  1
 10  9  1  0
 11 10  2  0
 12 13  1  0
 12 11  1  0
 13 18  2  0
 14 13  1  0
 14 15  2  0
 15 16  1  0
 16 17  2  0
 18 10  1  0
 18 17  1  0
 19 20  2  0
 19  8  1  0
 22 21  1  6
 22 23  1  0
 23 19  1  0
 24 22  1  0
 24 25  1  0
 26 24  2  0
M  END
$$$$
