CWA.pdb
     RDKit          3D

 26 27  0  0  1  0  0  0  0  0999 V2000
    6.5850  -15.0121   19.9056 N   0  0  0  0  0  0  0  0  0  0  0  0
    7.0012  -16.0452   20.8147 C   0  0  1  0  0  0  0  0  0  0  0  0
    7.5642  -17.2249   20.0448 C   0  0  0  0  0  0  0  0  0  0  0  0
    9.0678  -16.6849   19.2077 S   0  0  0  0  0  0  0  0  0  0  0  0
    7.9922  -15.5407   21.8065 C   0  0  0  0  0  0  0  0  0  0  0  0
    8.6173  -14.4893   21.5188 O   0  0  0  0  0  0  0  0  0  0  0  0
    8.2371  -16.2013   23.0299 N   0  0  0  0  0  0  0  0  0  0  0  0
    9.3012  -15.7639   23.9713 C   0  0  1  0  0  0  0  0  0  0  0  0
    8.6805  -15.8803   25.3105 C   0  0  0  0  0  0  0  0  0  0  0  0
    7.4815  -15.1155   25.6077 C   0  0  0  0  0  0  0  0  0  0  0  0
    6.1502  -15.4917   25.5983 C   0  0  0  0  0  0  0  0  0  0  0  0
    5.4192  -14.4183   25.9282 N   0  0  0  0  0  0  0  0  0  0  0  0
    6.1962  -13.3596   26.1540 C   0  0  0  0  0  0  0  0  0  0  0  0
    5.9424  -12.0386   26.5374 C   0  0  0  0  0  0  0  0  0  0  0  0
    6.9562  -11.1235   26.7306 C   0  0  0  0  0  0  0  0  0  0  0  0
    8.2456  -11.5408   26.5354 C   0  0  0  0  0  0  0  0  0  0  0  0
    8.4917  -12.8386   26.1582 C   0  0  0  0  0  0  0  0  0  0  0  0
    7.4782  -13.7704   25.9605 C   0  0  0  0  0  0  0  0  0  0  0  0
   10.4577  -16.6189   23.7517 C   0  0  0  0  0  0  0  0  0  0  0  0
   10.3493  -17.8681   23.8204 O   0  0  0  0  0  0  0  0  0  0  0  0
   13.9919  -16.2151   22.4398 C   0  0  0  0  0  0  0  0  0  0  0  0
   12.9241  -16.9578   23.2601 C   0  0  2  0  0  0  0  0  0  0  0  0
   11.7690  -16.1299   23.4407 N   0  0  0  0  0  0  0  0  0  0  0  0
   13.5901  -17.3890   24.4879 C   0  0  0  0  0  0  0  0  0  0  0  0
   13.0941  -16.8723   25.6982 O   0  0  0  0  0  0  0  0  0  0  0  0
   14.5521  -18.1748   24.4862 O   0  0  0  0  0  0  0  0  0  0  0  0
  2  5  1  0
  2  1  1  6
  3  2  1  0
  4  3  1  0
  5  6  2  0
  7  8  1  0
  7  5  1  0
  8  9  1  1
 10  9  1  0
 11 10  2  0
 12 13  1  0
 12 11  1  0
 13 18  2  0
 14 13  1  0
 14 15  2  0
 15 16  1  0
 16 17  2  0
 18 10  1  0
 18 17  1  0
 19 20  2  0
 19  8  1  0
 22 21  1  6
 22 23  1  0
 23 19  1  0
 24 22  1  0
 24 25  1  0
 26 24  2  0
M  END
$$$$
