YCW.pdb
     RDKit          3D

 33 35  0  0  1  0  0  0  0  0999 V2000
    7.0192  -25.5478   22.3946 O   0  0  0  0  0  0  0  0  0  0  0  0
    7.3942  -24.1998   22.3328 C   0  0  0  0  0  0  0  0  0  0  0  0
    6.4976  -23.2156   21.9723 C   0  0  0  0  0  0  0  0  0  0  0  0
    6.8751  -21.8899   21.9140 C   0  0  0  0  0  0  0  0  0  0  0  0
    8.1700  -21.4886   22.2145 C   0  0  0  0  0  0  0  0  0  0  0  0
    8.5795  -20.0599   22.1527 C   0  0  0  0  0  0  0  0  0  0  0  0
    7.9323  -19.4448   20.9452 C   0  0  2  0  0  0  0  0  0  0  0  0
    8.1131  -20.2568   19.7594 N   0  0  0  0  0  0  0  0  0  0  0  0
    8.3289  -18.0461   20.7199 C   0  0  0  0  0  0  0  0  0  0  0  0
    9.3782  -17.8439   20.0558 O   0  0  0  0  0  0  0  0  0  0  0  0
    9.0546  -22.4841   22.5731 C   0  0  0  0  0  0  0  0  0  0  0  0
    8.6821  -23.8100   22.6328 C   0  0  0  0  0  0  0  0  0  0  0  0
    7.5923  -16.9343   21.2103 N   0  0  0  0  0  0  0  0  0  0  0  0
    8.1434  -15.6250   21.1121 C   0  0  1  0  0  0  0  0  0  0  0  0
    6.9802  -14.6364   21.1944 C   0  0  0  0  0  0  0  0  0  0  0  0
    7.6135  -12.9668   20.9364 S   0  0  0  0  0  0  0  0  0  0  0  0
    9.1655  -15.3318   22.1412 C   0  0  0  0  0  0  0  0  0  0  0  0
   10.0759  -14.5050   21.8824 O   0  0  0  0  0  0  0  0  0  0  0  0
    9.1725  -15.9426   23.4217 N   0  0  0  0  0  0  0  0  0  0  0  0
   10.2338  -15.8203   24.3758 C   0  0  1  0  0  0  0  0  0  0  0  0
    9.9864  -14.7075   25.3769 C   0  0  0  0  0  0  0  0  0  0  0  0
    8.5332  -14.4770   25.5630 C   0  0  0  0  0  0  0  0  0  0  0  0
    7.4935  -15.3949   25.6176 C   0  0  0  0  0  0  0  0  0  0  0  0
    6.3355  -14.7388   25.7986 N   0  0  0  0  0  0  0  0  0  0  0  0
    6.5607  -13.4138   25.8674 C   0  0  0  0  0  0  0  0  0  0  0  0
    5.7309  -12.3387   26.0405 C   0  0  0  0  0  0  0  0  0  0  0  0
    6.2671  -11.0709   26.0693 C   0  0  0  0  0  0  0  0  0  0  0  0
    7.6289  -10.8618   25.9267 C   0  0  0  0  0  0  0  0  0  0  0  0
    8.4228  -11.9704   25.7554 C   0  0  0  0  0  0  0  0  0  0  0  0
    7.9162  -13.2478   25.7225 C   0  0  0  0  0  0  0  0  0  0  0  0
   10.3357  -17.0813   25.1414 C   0  0  0  0  0  0  0  0  0  0  0  0
   11.3889  -17.4102   25.9769 O   0  0  0  0  0  0  0  0  0  0  0  0
    9.4146  -17.9260   25.0413 O   0  0  0  0  0  0  0  0  0  0  0  0
  2 12  2  0
  2  1  1  0
  3  2  1  0
  4  5  1  0
  4  3  2  0
  5 11  2  0
  6  5  1  0
  7  6  1  0
  7  8  1  6
  9 13  1  0
  9  7  1  0
 10  9  2  0
 11 12  1  0
 14 13  1  0
 14 15  1  1
 16 15  1  0
 17 14  1  0
 17 18  2  0
 19 17  1  0
 20 19  1  0
 20 21  1  1
 22 21  1  0
 22 30  1  0
 23 24  1  0
 23 22  2  0
 24 25  1  0
 25 30  2  0
 25 26  1  0
 26 27  2  0
 27 28  1  0
 29 28  2  0
 30 29  1  0
 31 20  1  0
 32 31  1  0
 33 31  2  0
M  END
$$$$
