YCW.pdb
     RDKit          3D

 33 35  0  0  1  0  0  0  0  0999 V2000
    5.8342  -12.9595   19.3745 O   0  0  0  0  0  0  0  0  0  0  0  0
    7.0830  -13.5898   19.4413 C   0  0  0  0  0  0  0  0  0  0  0  0
    7.3747  -14.6998   18.6760 C   0  0  0  0  0  0  0  0  0  0  0  0
    8.6075  -15.3148   18.7479 C   0  0  0  0  0  0  0  0  0  0  0  0
    9.6063  -14.8457   19.5908 C   0  0  0  0  0  0  0  0  0  0  0  0
   10.9364  -15.5069   19.6698 C   0  0  0  0  0  0  0  0  0  0  0  0
   10.7108  -16.9815   19.8424 C   0  0  2  0  0  0  0  0  0  0  0  0
    9.9985  -17.5567   18.7200 N   0  0  0  0  0  0  0  0  0  0  0  0
   10.0849  -17.3291   21.1277 C   0  0  0  0  0  0  0  0  0  0  0  0
    9.0031  -17.9701   21.0878 O   0  0  0  0  0  0  0  0  0  0  0  0
    9.2995  -13.7355   20.3493 C   0  0  0  0  0  0  0  0  0  0  0  0
    8.0691  -13.1175   20.2810 C   0  0  0  0  0  0  0  0  0  0  0  0
   10.6387  -16.9791   22.3887 N   0  0  0  0  0  0  0  0  0  0  0  0
   10.0393  -17.4714   23.5828 C   0  0  1  0  0  0  0  0  0  0  0  0
   10.2180  -18.9897   23.5869 C   0  0  0  0  0  0  0  0  0  0  0  0
   11.9739  -19.3706   23.7508 S   0  0  0  0  0  0  0  0  0  0  0  0
   10.5891  -16.8669   24.8166 C   0  0  0  0  0  0  0  0  0  0  0  0
   11.8267  -16.6654   24.9013 O   0  0  0  0  0  0  0  0  0  0  0  0
    9.7825  -16.4979   25.9239 N   0  0  0  0  0  0  0  0  0  0  0  0
   10.2894  -16.0436   27.1842 C   0  0  1  0  0  0  0  0  0  0  0  0
    9.4529  -14.9238   27.7745 C   0  0  0  0  0  0  0  0  0  0  0  0
    8.1952  -14.7435   27.0095 C   0  0  0  0  0  0  0  0  0  0  0  0
    7.2690  -15.6913   26.5970 C   0  0  0  0  0  0  0  0  0  0  0  0
    6.2792  -15.0781   25.9274 N   0  0  0  0  0  0  0  0  0  0  0  0
    6.5080  -13.7529   25.8756 C   0  0  0  0  0  0  0  0  0  0  0  0
    5.8138  -12.7119   25.3199 C   0  0  0  0  0  0  0  0  0  0  0  0
    6.3113  -11.4331   25.4332 C   0  0  0  0  0  0  0  0  0  0  0  0
    7.4996  -11.1792   26.0978 C   0  0  0  0  0  0  0  0  0  0  0  0
    8.1618  -12.2547   26.6395 C   0  0  0  0  0  0  0  0  0  0  0  0
    7.6898  -13.5421   26.5425 C   0  0  0  0  0  0  0  0  0  0  0  0
   10.2558  -17.1667   28.1455 C   0  0  0  0  0  0  0  0  0  0  0  0
    9.6442  -18.3854   27.9089 O   0  0  0  0  0  0  0  0  0  0  0  0
   10.8142  -17.0265   29.2594 O   0  0  0  0  0  0  0  0  0  0  0  0
  2 12  2  0
  2  1  1  0
  3  2  1  0
  4  5  1  0
  4  3  2  0
  5 11  2  0
  6  5  1  0
  7  6  1  0
  7  8  1  6
  9 13  1  0
  9  7  1  0
 10  9  2  0
 11 12  1  0
 14 13  1  0
 14 15  1  1
 16 15  1  0
 17 14  1  0
 17 18  2  0
 19 17  1  0
 20 19  1  0
 20 21  1  1
 22 21  1  0
 22 30  1  0
 23 24  1  0
 23 22  2  0
 24 25  1  0
 25 30  2  0
 25 26  1  0
 26 27  2  0
 27 28  1  0
 29 28  2  0
 30 29  1  0
 31 20  1  0
 32 31  1  0
 33 31  2  0
M  END
$$$$
