YCW.pdb
     RDKit          3D

 33 35  0  0  1  0  0  0  0  0999 V2000
    7.5623  -12.0587   16.7311 O   0  0  0  0  0  0  0  0  0  0  0  0
    7.6036  -12.8045   17.9157 C   0  0  0  0  0  0  0  0  0  0  0  0
    8.7473  -12.8802   18.6831 C   0  0  0  0  0  0  0  0  0  0  0  0
    8.7795  -13.6172   19.8488 C   0  0  0  0  0  0  0  0  0  0  0  0
    7.6661  -14.3134   20.3002 C   0  0  0  0  0  0  0  0  0  0  0  0
    7.6982  -15.1084   21.5570 C   0  0  0  0  0  0  0  0  0  0  0  0
    8.4545  -16.3766   21.2832 C   0  0  2  0  0  0  0  0  0  0  0  0
    7.7480  -17.2417   20.3610 N   0  0  0  0  0  0  0  0  0  0  0  0
    8.8601  -17.0890   22.5048 C   0  0  0  0  0  0  0  0  0  0  0  0
    8.0659  -17.9521   22.9599 O   0  0  0  0  0  0  0  0  0  0  0  0
    6.5305  -14.2279   19.5222 C   0  0  0  0  0  0  0  0  0  0  0  0
    6.4934  -13.4928   18.3566 C   0  0  0  0  0  0  0  0  0  0  0  0
   10.0870  -16.8494   23.1806 N   0  0  0  0  0  0  0  0  0  0  0  0
   10.3356  -17.4773   24.4341 C   0  0  1  0  0  0  0  0  0  0  0  0
   11.5177  -18.4269   24.2388 C   0  0  0  0  0  0  0  0  0  0  0  0
   12.7962  -17.5799   23.2885 S   0  0  0  0  0  0  0  0  0  0  0  0
   10.5947  -16.5237   25.5355 C   0  0  0  0  0  0  0  0  0  0  0  0
   11.3612  -15.5485   25.3340 O   0  0  0  0  0  0  0  0  0  0  0  0
   10.0159  -16.6535   26.8243 N   0  0  0  0  0  0  0  0  0  0  0  0
   10.4430  -15.9304   27.9847 C   0  0  1  0  0  0  0  0  0  0  0  0
    9.3621  -15.0129   28.5250 C   0  0  0  0  0  0  0  0  0  0  0  0
    8.2751  -14.8342   27.5321 C   0  0  0  0  0  0  0  0  0  0  0  0
    7.4065  -15.7742   26.9951 C   0  0  0  0  0  0  0  0  0  0  0  0
    6.5810  -15.1663   26.1271 N   0  0  0  0  0  0  0  0  0  0  0  0
    6.8646  -13.8524   26.0624 C   0  0  0  0  0  0  0  0  0  0  0  0
    6.3242  -12.8203   25.3431 C   0  0  0  0  0  0  0  0  0  0  0  0
    6.8395  -11.5523   25.4923 C   0  0  0  0  0  0  0  0  0  0  0  0
    7.8931  -11.3003   26.3553 C   0  0  0  0  0  0  0  0  0  0  0  0
    8.4033  -12.3666   27.0563 C   0  0  0  0  0  0  0  0  0  0  0  0
    7.9097  -13.6431   26.9281 C   0  0  0  0  0  0  0  0  0  0  0  0
   10.7710  -16.8960   29.0555 C   0  0  0  0  0  0  0  0  0  0  0  0
   10.5627  -18.2617   28.9727 O   0  0  0  0  0  0  0  0  0  0  0  0
   11.2740  -16.4693   30.1218 O   0  0  0  0  0  0  0  0  0  0  0  0
  2 12  2  0
  2  1  1  0
  3  2  1  0
  4  5  1  0
  4  3  2  0
  5 11  2  0
  6  5  1  0
  7  6  1  0
  7  8  1  6
  9 13  1  0
  9  7  1  0
 10  9  2  0
 11 12  1  0
 14 13  1  0
 14 15  1  6
 16 15  1  0
 17 14  1  0
 17 18  2  0
 19 17  1  0
 20 19  1  0
 20 21  1  1
 22 21  1  0
 22 30  1  0
 23 24  1  0
 23 22  2  0
 24 25  1  0
 25 30  2  0
 25 26  1  0
 26 27  2  0
 27 28  1  0
 29 28  2  0
 30 29  1  0
 31 20  1  0
 32 31  1  0
 33 31  2  0
M  END
$$$$
