YCW.pdb
     RDKit          3D

 33 35  0  0  1  0  0  0  0  0999 V2000
    5.8378  -23.9910   27.7773 O   0  0  0  0  0  0  0  0  0  0  0  0
    6.1454  -22.8697   26.9967 C   0  0  0  0  0  0  0  0  0  0  0  0
    5.2108  -22.2896   26.1644 C   0  0  0  0  0  0  0  0  0  0  0  0
    5.5220  -21.1850   25.3987 C   0  0  0  0  0  0  0  0  0  0  0  0
    6.7855  -20.6099   25.4315 C   0  0  0  0  0  0  0  0  0  0  0  0
    7.1234  -19.4187   24.6071 C   0  0  0  0  0  0  0  0  0  0  0  0
    7.0225  -19.8126   23.1615 C   0  0  2  0  0  0  0  0  0  0  0  0
    7.5837  -21.1252   22.9160 N   0  0  0  0  0  0  0  0  0  0  0  0
    7.5666  -18.8011   22.2422 C   0  0  0  0  0  0  0  0  0  0  0  0
    8.7519  -18.9560   21.8500 O   0  0  0  0  0  0  0  0  0  0  0  0
    7.7086  -21.2012   26.2683 C   0  0  0  0  0  0  0  0  0  0  0  0
    7.4025  -22.3049   27.0353 C   0  0  0  0  0  0  0  0  0  0  0  0
    6.8255  -17.6776   21.7862 N   0  0  0  0  0  0  0  0  0  0  0  0
    7.4799  -16.4250   21.6121 C   0  0  1  0  0  0  0  0  0  0  0  0
    6.5124  -15.5085   20.8629 C   0  0  0  0  0  0  0  0  0  0  0  0
    7.2413  -13.8624   20.7439 S   0  0  0  0  0  0  0  0  0  0  0  0
    7.9260  -15.8063   22.8801 C   0  0  0  0  0  0  0  0  0  0  0  0
    7.1125  -15.7068   23.8328 O   0  0  0  0  0  0  0  0  0  0  0  0
    9.2410  -15.3126   23.0801 N   0  0  0  0  0  0  0  0  0  0  0  0
    9.8606  -15.1436   24.3604 C   0  0  1  0  0  0  0  0  0  0  0  0
    9.0081  -15.6865   25.4920 C   0  0  0  0  0  0  0  0  0  0  0  0
    7.7857  -14.8666   25.6735 C   0  0  0  0  0  0  0  0  0  0  0  0
    6.4542  -15.2582   25.6900 C   0  0  0  0  0  0  0  0  0  0  0  0
    5.6794  -14.1780   25.8824 N   0  0  0  0  0  0  0  0  0  0  0  0
    6.4431  -13.0757   25.9956 C   0  0  0  0  0  0  0  0  0  0  0  0
    6.1431  -11.7550   26.1962 C   0  0  0  0  0  0  0  0  0  0  0  0
    7.1650  -10.8353   26.2701 C   0  0  0  0  0  0  0  0  0  0  0  0
    8.4899  -11.2196   26.1455 C   0  0  0  0  0  0  0  0  0  0  0  0
    8.7431  -12.5554   25.9452 C   0  0  0  0  0  0  0  0  0  0  0  0
    7.7440  -13.4963   25.8672 C   0  0  0  0  0  0  0  0  0  0  0  0
   11.1356  -15.8925   24.3767 C   0  0  0  0  0  0  0  0  0  0  0  0
   11.5878  -16.6964   23.3449 O   0  0  0  0  0  0  0  0  0  0  0  0
   11.8742  -15.8076   25.3863 O   0  0  0  0  0  0  0  0  0  0  0  0
  2 12  2  0
  2  1  1  0
  3  2  1  0
  4  5  1  0
  4  3  2  0
  5 11  2  0
  6  5  1  0
  7  6  1  0
  7  8  1  1
  9 13  1  0
  9  7  1  0
 10  9  2  0
 11 12  1  0
 14 13  1  0
 14 15  1  1
 16 15  1  0
 17 14  1  0
 17 18  2  0
 19 17  1  0
 20 19  1  0
 20 21  1  1
 22 21  1  0
 22 30  1  0
 23 24  1  0
 23 22  2  0
 24 25  1  0
 25 30  2  0
 25 26  1  0
 26 27  2  0
 27 28  1  0
 29 28  2  0
 30 29  1  0
 31 20  1  0
 32 31  1  0
 33 31  2  0
M  END
$$$$
