YCW.pdb
     RDKit          3D

 33 35  0  0  1  0  0  0  0  0999 V2000
    9.6614  -19.7641   27.3125 O   0  0  0  0  0  0  0  0  0  0  0  0
    8.5782  -19.4199   26.4941 C   0  0  0  0  0  0  0  0  0  0  0  0
    7.7384  -20.3778   25.9652 C   0  0  0  0  0  0  0  0  0  0  0  0
    6.6736  -20.0302   25.1598 C   0  0  0  0  0  0  0  0  0  0  0  0
    6.4006  -18.7052   24.8468 C   0  0  0  0  0  0  0  0  0  0  0  0
    5.2529  -18.3277   23.9791 C   0  0  0  0  0  0  0  0  0  0  0  0
    5.5971  -18.7046   22.5667 C   0  0  2  0  0  0  0  0  0  0  0  0
    5.9834  -20.0961   22.4549 N   0  0  0  0  0  0  0  0  0  0  0  0
    6.5859  -17.8078   21.9483 C   0  0  0  0  0  0  0  0  0  0  0  0
    7.5935  -18.3401   21.4152 O   0  0  0  0  0  0  0  0  0  0  0  0
    7.2491  -17.7593   25.3831 C   0  0  0  0  0  0  0  0  0  0  0  0
    8.3144  -18.1017   26.1883 C   0  0  0  0  0  0  0  0  0  0  0  0
    6.4550  -16.3930   21.9272 N   0  0  0  0  0  0  0  0  0  0  0  0
    7.5109  -15.5952   21.4018 C   0  0  1  0  0  0  0  0  0  0  0  0
    6.9007  -14.2604   20.9739 C   0  0  0  0  0  0  0  0  0  0  0  0
    8.1030  -13.3631   19.9717 S   0  0  0  0  0  0  0  0  0  0  0  0
    8.6291  -15.3904   22.3492 C   0  0  0  0  0  0  0  0  0  0  0  0
    9.0620  -14.2268   22.5437 O   0  0  0  0  0  0  0  0  0  0  0  0
    9.2467  -16.4523   23.0591 N   0  0  0  0  0  0  0  0  0  0  0  0
   10.4392  -16.3225   23.8419 C   0  0  1  0  0  0  0  0  0  0  0  0
   10.2136  -16.6691   25.3017 C   0  0  0  0  0  0  0  0  0  0  0  0
    9.2067  -15.7661   25.9102 C   0  0  0  0  0  0  0  0  0  0  0  0
    7.8639  -15.6036   25.5991 C   0  0  0  0  0  0  0  0  0  0  0  0
    7.3336  -14.6720   26.4085 N   0  0  0  0  0  0  0  0  0  0  0  0
    8.2722  -14.2035   27.2515 C   0  0  0  0  0  0  0  0  0  0  0  0
    8.2401  -13.2654   28.2481 C   0  0  0  0  0  0  0  0  0  0  0  0
    9.3897  -12.9940   28.9556 C   0  0  0  0  0  0  0  0  0  0  0  0
   10.5773  -13.6509   28.6792 C   0  0  0  0  0  0  0  0  0  0  0  0
   10.5619  -14.5843   27.6705 C   0  0  0  0  0  0  0  0  0  0  0  0
    9.4301  -14.8763   26.9472 C   0  0  0  0  0  0  0  0  0  0  0  0
   11.4563  -17.2618   23.3225 C   0  0  0  0  0  0  0  0  0  0  0  0
   12.7615  -17.3364   23.7767 O   0  0  0  0  0  0  0  0  0  0  0  0
   11.1353  -18.0552   22.4063 O   0  0  0  0  0  0  0  0  0  0  0  0
  2 12  2  0
  2  1  1  0
  3  2  1  0
  4  5  1  0
  4  3  2  0
  5 11  2  0
  6  5  1  0
  7  6  1  0
  7  8  1  1
  9 13  1  0
  9  7  1  0
 10  9  2  0
 11 12  1  0
 14 13  1  0
 14 15  1  1
 16 15  1  0
 17 14  1  0
 17 18  2  0
 19 17  1  0
 20 19  1  0
 20 21  1  1
 22 21  1  0
 22 30  1  0
 23 24  1  0
 23 22  2  0
 24 25  1  0
 25 30  2  0
 25 26  1  0
 26 27  2  0
 27 28  1  0
 29 28  2  0
 30 29  1  0
 31 20  1  0
 32 31  1  0
 33 31  2  0
M  END
$$$$
