YCW.pdb
     RDKit          3D

 33 35  0  0  1  0  0  0  0  0999 V2000
   15.1810  -19.3320   14.6038 O   0  0  0  0  0  0  0  0  0  0  0  0
   14.3552  -18.7233   15.5571 C   0  0  0  0  0  0  0  0  0  0  0  0
   14.1126  -19.3079   16.7826 C   0  0  0  0  0  0  0  0  0  0  0  0
   13.2977  -18.7015   17.7161 C   0  0  0  0  0  0  0  0  0  0  0  0
   12.6874  -17.4799   17.4646 C   0  0  0  0  0  0  0  0  0  0  0  0
   11.8086  -16.8238   18.4696 C   0  0  0  0  0  0  0  0  0  0  0  0
   10.5801  -17.6718   18.6340 C   0  0  2  0  0  0  0  0  0  0  0  0
    9.7803  -17.7085   17.4269 N   0  0  0  0  0  0  0  0  0  0  0  0
    9.7784  -17.3142   19.8145 C   0  0  0  0  0  0  0  0  0  0  0  0
    9.2546  -16.1704   19.8311 O   0  0  0  0  0  0  0  0  0  0  0  0
   12.9396  -16.9082   16.2351 C   0  0  0  0  0  0  0  0  0  0  0  0
   13.7531  -17.5102   15.2991 C   0  0  0  0  0  0  0  0  0  0  0  0
    9.5735  -18.1879   20.9163 N   0  0  0  0  0  0  0  0  0  0  0  0
    8.7650  -17.7657   22.0098 C   0  0  1  0  0  0  0  0  0  0  0  0
    7.6805  -18.8250   22.2070 C   0  0  0  0  0  0  0  0  0  0  0  0
    6.6979  -18.3919   23.6569 S   0  0  0  0  0  0  0  0  0  0  0  0
    9.5252  -17.5426   23.2596 C   0  0  0  0  0  0  0  0  0  0  0  0
   10.3901  -18.3846   23.6093 O   0  0  0  0  0  0  0  0  0  0  0  0
    9.3269  -16.4134   24.0954 N   0  0  0  0  0  0  0  0  0  0  0  0
    9.9729  -16.2120   25.3578 C   0  0  1  0  0  0  0  0  0  0  0  0
    9.5718  -14.9024   26.0106 C   0  0  0  0  0  0  0  0  0  0  0  0
    8.1044  -14.7013   25.9348 C   0  0  0  0  0  0  0  0  0  0  0  0
    7.0886  -15.6414   25.8309 C   0  0  0  0  0  0  0  0  0  0  0  0
    5.9046  -15.0082   25.7905 N   0  0  0  0  0  0  0  0  0  0  0  0
    6.0895  -13.6772   25.8635 C   0  0  0  0  0  0  0  0  0  0  0  0
    5.2222  -12.6179   25.8617 C   0  0  0  0  0  0  0  0  0  0  0  0
    5.7213  -11.3378   25.9509 C   0  0  0  0  0  0  0  0  0  0  0  0
    7.0828  -11.1007   26.0424 C   0  0  0  0  0  0  0  0  0  0  0  0
    7.9152  -12.1943   26.0405 C   0  0  0  0  0  0  0  0  0  0  0  0
    7.4461  -13.4834   25.9527 C   0  0  0  0  0  0  0  0  0  0  0  0
    9.5731  -17.2985   26.2778 C   0  0  0  0  0  0  0  0  0  0  0  0
   10.1928  -17.5745   27.4841 O   0  0  0  0  0  0  0  0  0  0  0  0
    8.6075  -18.0336   25.9625 O   0  0  0  0  0  0  0  0  0  0  0  0
  2 12  2  0
  2  1  1  0
  3  2  1  0
  4  5  1  0
  4  3  2  0
  5 11  2  0
  6  5  1  0
  7  6  1  0
  7  8  1  6
  9 13  1  0
  9  7  1  0
 10  9  2  0
 11 12  1  0
 14 13  1  0
 14 15  1  1
 16 15  1  0
 17 14  1  0
 17 18  2  0
 19 17  1  0
 20 19  1  0
 20 21  1  1
 22 21  1  0
 22 30  1  0
 23 24  1  0
 23 22  2  0
 24 25  1  0
 25 30  2  0
 25 26  1  0
 26 27  2  0
 27 28  1  0
 29 28  2  0
 30 29  1  0
 31 20  1  0
 32 31  1  0
 33 31  2  0
M  END
$$$$
