YCW.pdb
     RDKit          3D

 33 35  0  0  1  0  0  0  0  0999 V2000
    7.9961  -11.8733   17.0439 O   0  0  0  0  0  0  0  0  0  0  0  0
    7.9296  -12.6331   18.2185 C   0  0  0  0  0  0  0  0  0  0  0  0
    9.0406  -12.8411   19.0090 C   0  0  0  0  0  0  0  0  0  0  0  0
    8.9665  -13.5909   20.1647 C   0  0  0  0  0  0  0  0  0  0  0  0
    7.7743  -14.1675   20.5823 C   0  0  0  0  0  0  0  0  0  0  0  0
    7.6917  -14.9760   21.8282 C   0  0  0  0  0  0  0  0  0  0  0  0
    8.1447  -16.3710   21.5056 C   0  0  2  0  0  0  0  0  0  0  0  0
    7.1976  -17.0672   20.6591 N   0  0  0  0  0  0  0  0  0  0  0  0
    8.5009  -17.1584   22.6961 C   0  0  0  0  0  0  0  0  0  0  0  0
    7.5634  -17.7268   23.3134 O   0  0  0  0  0  0  0  0  0  0  0  0
    6.6727  -13.9505   19.7815 C   0  0  0  0  0  0  0  0  0  0  0  0
    6.7417  -13.2021   18.6258 C   0  0  0  0  0  0  0  0  0  0  0  0
    9.8326  -17.3025   23.1704 N   0  0  0  0  0  0  0  0  0  0  0  0
   10.0670  -17.8937   24.4444 C   0  0  1  0  0  0  0  0  0  0  0  0
   11.1258  -18.9796   24.2522 C   0  0  0  0  0  0  0  0  0  0  0  0
   11.4738  -19.7449   25.8486 S   0  0  0  0  0  0  0  0  0  0  0  0
   10.4810  -16.9238   25.4825 C   0  0  0  0  0  0  0  0  0  0  0  0
   11.3202  -16.0350   25.1908 O   0  0  0  0  0  0  0  0  0  0  0  0
    9.9741  -16.9443   26.8075 N   0  0  0  0  0  0  0  0  0  0  0  0
   10.5444  -16.2264   27.9080 C   0  0  1  0  0  0  0  0  0  0  0  0
    9.6301  -15.1285   28.4186 C   0  0  0  0  0  0  0  0  0  0  0  0
    8.4231  -15.0062   27.5658 C   0  0  0  0  0  0  0  0  0  0  0  0
    7.5720  -15.9955   27.0931 C   0  0  0  0  0  0  0  0  0  0  0  0
    6.6056  -15.4285   26.3523 N   0  0  0  0  0  0  0  0  0  0  0  0
    6.7775  -14.0945   26.3108 C   0  0  0  0  0  0  0  0  0  0  0  0
    6.0784  -13.0867   25.7027 C   0  0  0  0  0  0  0  0  0  0  0  0
    6.5085  -11.7866   25.8450 C   0  0  0  0  0  0  0  0  0  0  0  0
    7.6341  -11.4782   26.5909 C   0  0  0  0  0  0  0  0  0  0  0  0
    8.3040  -12.5220   27.1830 C   0  0  0  0  0  0  0  0  0  0  0  0
    7.8984  -13.8295   27.0587 C   0  0  0  0  0  0  0  0  0  0  0  0
   10.7657  -17.1660   29.0282 C   0  0  0  0  0  0  0  0  0  0  0  0
   11.4589  -16.8589   30.1860 O   0  0  0  0  0  0  0  0  0  0  0  0
   10.3015  -18.3277   28.9441 O   0  0  0  0  0  0  0  0  0  0  0  0
  2 12  2  0
  2  1  1  0
  3  2  1  0
  4  5  1  0
  4  3  2  0
  5 11  2  0
  6  5  1  0
  7  6  1  0
  7  8  1  1
  9 13  1  0
  9  7  1  0
 10  9  2  0
 11 12  1  0
 14 13  1  0
 14 15  1  6
 16 15  1  0
 17 14  1  0
 17 18  2  0
 19 17  1  0
 20 19  1  0
 20 21  1  1
 22 21  1  0
 22 30  1  0
 23 24  1  0
 23 22  2  0
 24 25  1  0
 25 30  2  0
 25 26  1  0
 26 27  2  0
 27 28  1  0
 29 28  2  0
 30 29  1  0
 31 20  1  0
 32 31  1  0
 33 31  2  0
M  END
$$$$
