EWH.pdb
     RDKit          3D

 34 36  0  0  1  0  0  0  0  0999 V2000
   22.3342  -14.2865  -18.0112 N   0  0  0  0  0  0  0  0  0  0  0  0
   21.3105  -13.2275  -18.1514 C   0  0  1  0  0  0  0  0  0  0  0  0
   20.0890  -13.7346  -17.3656 C   0  0  0  0  0  0  0  0  0  0  0  0
   19.7485  -15.1061  -17.9639 C   0  0  0  0  0  0  0  0  0  0  0  0
   18.3592  -15.4247  -17.6447 C   0  0  0  0  0  0  0  0  0  0  0  0
   17.6429  -14.6271  -17.0143 O   0  0  0  0  0  0  0  0  0  0  0  0
   21.8646  -12.0096  -17.5680 C   0  0  0  0  0  0  0  0  0  0  0  0
   22.1542  -11.9763  -16.3227 O   0  0  0  0  0  0  0  0  0  0  0  0
   17.8310  -16.6322  -18.0508 O   0  0  0  0  0  0  0  0  0  0  0  0
   22.1317  -10.8093  -18.2530 N   0  0  0  0  0  0  0  0  0  0  0  0
   22.6063   -9.5799  -17.6085 C   0  0  1  0  0  0  0  0  0  0  0  0
   23.8474   -9.2306  -18.3224 C   0  0  0  0  0  0  0  0  0  0  0  0
   25.0149  -10.0708  -18.1686 C   0  0  0  0  0  0  0  0  0  0  0  0
   25.7125  -10.8833  -19.0103 C   0  0  0  0  0  0  0  0  0  0  0  0
   26.7525  -11.4481  -18.3663 N   0  0  0  0  0  0  0  0  0  0  0  0
   26.7416  -11.0132  -17.1131 C   0  0  0  0  0  0  0  0  0  0  0  0
   27.5735  -11.2601  -16.0214 C   0  0  0  0  0  0  0  0  0  0  0  0
   27.3642  -10.6763  -14.7908 C   0  0  0  0  0  0  0  0  0  0  0  0
   26.2884   -9.8057  -14.6130 C   0  0  0  0  0  0  0  0  0  0  0  0
   25.4864   -9.5765  -15.6926 C   0  0  0  0  0  0  0  0  0  0  0  0
   25.6956  -10.1672  -16.9433 C   0  0  0  0  0  0  0  0  0  0  0  0
   21.5140   -8.5846  -17.6634 C   0  0  0  0  0  0  0  0  0  0  0  0
   20.8339   -8.4967  -18.7300 O   0  0  0  0  0  0  0  0  0  0  0  0
   21.2224   -7.7472  -16.5679 N   0  0  0  0  0  0  0  0  0  0  0  0
   20.2307   -6.6671  -16.6160 C   0  0  1  0  0  0  0  0  0  0  0  0
   18.9924   -7.0433  -15.8925 C   0  0  0  0  0  0  0  0  0  0  0  0
   18.0112   -5.9798  -15.6858 C   0  0  0  0  0  0  0  0  0  0  0  0
   18.1647   -4.9195  -14.8100 C   0  0  0  0  0  0  0  0  0  0  0  0
   17.0669   -4.1499  -14.8674 N   0  0  0  0  0  0  0  0  0  0  0  0
   16.2285   -4.7172  -15.7710 C   0  0  0  0  0  0  0  0  0  0  0  0
   16.8227   -5.8167  -16.2472 N   0  0  0  0  0  0  0  0  0  0  0  0
   20.8974   -5.4348  -16.1693 C   0  0  0  0  0  0  0  0  0  0  0  0
   20.4710   -4.1609  -16.5616 O   0  0  0  0  0  0  0  0  0  0  0  0
   21.8823   -5.4750  -15.4090 O   0  0  0  0  0  0  0  0  0  0  0  0
  2  1  1  1
  2  3  1  0
  3  4  1  0
  5  4  1  0
  5  9  1  0
  6  5  2  0
  7  2  1  0
  8  7  2  0
 10  7  1  0
 11 12  1  6
 11 10  1  0
 12 13  1  0
 13 14  2  0
 13 21  1  0
 14 15  1  0
 15 16  1  0
 16 17  2  0
 18 17  1  0
 19 18  2  0
 20 21  2  0
 20 19  1  0
 21 16  1  0
 22 23  2  0
 22 11  1  0
 24 22  1  0
 25 32  1  0
 25 24  1  0
 25 26  1  1
 27 28  2  0
 27 26  1  0
 29 28  1  0
 30 31  2  0
 30 29  1  0
 31 27  1  0
 32 33  1  0
 34 32  2  0
M  END
$$$$
