EWH.pdb
     RDKit          3D

 34 36  0  0  1  0  0  0  0  0999 V2000
   22.0184  -22.0706  -13.5060 N   0  0  0  0  0  0  0  0  0  0  0  0
   22.0058  -20.5935  -13.4233 C   0  0  1  0  0  0  0  0  0  0  0  0
   21.0457  -20.2579  -12.2690 C   0  0  0  0  0  0  0  0  0  0  0  0
   19.7393  -20.9985  -12.5849 C   0  0  0  0  0  0  0  0  0  0  0  0
   19.7030  -22.2361  -11.8097 C   0  0  0  0  0  0  0  0  0  0  0  0
   19.9236  -23.3378  -12.3429 O   0  0  0  0  0  0  0  0  0  0  0  0
   23.3711  -20.1641  -13.1367 C   0  0  0  0  0  0  0  0  0  0  0  0
   23.6129  -18.9306  -12.9003 O   0  0  0  0  0  0  0  0  0  0  0  0
   19.4199  -22.1821  -10.4611 O   0  0  0  0  0  0  0  0  0  0  0  0
   24.5076  -20.9930  -13.0862 N   0  0  0  0  0  0  0  0  0  0  0  0
   25.8682  -20.5121  -12.8225 C   0  0  1  0  0  0  0  0  0  0  0  0
   26.3976  -21.4167  -11.7865 C   0  0  0  0  0  0  0  0  0  0  0  0
   26.2237  -21.0765  -10.3912 C   0  0  0  0  0  0  0  0  0  0  0  0
   25.1449  -20.7589   -9.6229 C   0  0  0  0  0  0  0  0  0  0  0  0
   25.5230  -20.5314   -8.3499 N   0  0  0  0  0  0  0  0  0  0  0  0
   26.8373  -20.6970   -8.2786 C   0  0  0  0  0  0  0  0  0  0  0  0
   27.7450  -20.5976   -7.2246 C   0  0  0  0  0  0  0  0  0  0  0  0
   29.0937  -20.8259   -7.3919 C   0  0  0  0  0  0  0  0  0  0  0  0
   29.5852  -21.1697   -8.6517 C   0  0  0  0  0  0  0  0  0  0  0  0
   28.6818  -21.2624   -9.6698 C   0  0  0  0  0  0  0  0  0  0  0  0
   27.3121  -21.0313   -9.5039 C   0  0  0  0  0  0  0  0  0  0  0  0
   26.5998  -20.4846  -14.1074 C   0  0  0  0  0  0  0  0  0  0  0  0
   26.3933  -21.4212  -14.9368 O   0  0  0  0  0  0  0  0  0  0  0  0
   27.5067  -19.4518  -14.4188 N   0  0  0  0  0  0  0  0  0  0  0  0
   28.1104  -19.2767  -15.7444 C   0  0  1  0  0  0  0  0  0  0  0  0
   28.9304  -18.0427  -15.8015 C   0  0  0  0  0  0  0  0  0  0  0  0
   29.6473  -17.7954  -17.0511 C   0  0  0  0  0  0  0  0  0  0  0  0
   30.6925  -18.5653  -17.5305 C   0  0  0  0  0  0  0  0  0  0  0  0
   31.1190  -18.0401  -18.6894 N   0  0  0  0  0  0  0  0  0  0  0  0
   30.3507  -16.9502  -18.9406 C   0  0  0  0  0  0  0  0  0  0  0  0
   29.4740  -16.8273  -17.9382 N   0  0  0  0  0  0  0  0  0  0  0  0
   28.7967  -20.5315  -16.0867 C   0  0  0  0  0  0  0  0  0  0  0  0
   28.7724  -21.0782  -17.3747 O   0  0  0  0  0  0  0  0  0  0  0  0
   29.4404  -21.1672  -15.2316 O   0  0  0  0  0  0  0  0  0  0  0  0
  2  1  1  1
  2  3  1  0
  3  4  1  0
  5  4  1  0
  5  9  1  0
  6  5  2  0
  7  2  1  0
  8  7  2  0
 10  7  1  0
 11 12  1  1
 11 10  1  0
 12 13  1  0
 13 14  2  0
 13 21  1  0
 14 15  1  0
 15 16  1  0
 16 17  2  0
 18 17  1  0
 19 18  2  0
 20 21  2  0
 20 19  1  0
 21 16  1  0
 22 23  2  0
 22 11  1  0
 24 22  1  0
 25 32  1  0
 25 24  1  0
 25 26  1  1
 27 28  2  0
 27 26  1  0
 29 28  1  0
 30 31  2  0
 30 29  1  0
 31 27  1  0
 32 33  1  0
 34 32  2  0
M  END
$$$$
