EWH.pdb
     RDKit          3D

 34 36  0  0  1  0  0  0  0  0999 V2000
   14.4742  -19.8103  -17.3573 N   0  0  0  0  0  0  0  0  0  0  0  0
   14.3983  -19.4241  -15.9312 C   0  0  1  0  0  0  0  0  0  0  0  0
   15.1201  -18.0688  -15.8369 C   0  0  0  0  0  0  0  0  0  0  0  0
   15.9949  -18.1491  -14.5787 C   0  0  0  0  0  0  0  0  0  0  0  0
   17.3731  -18.4160  -14.9825 C   0  0  0  0  0  0  0  0  0  0  0  0
   17.9371  -19.4838  -14.6850 O   0  0  0  0  0  0  0  0  0  0  0  0
   12.9841  -19.3117  -15.5876 C   0  0  0  0  0  0  0  0  0  0  0  0
   12.2317  -18.5140  -16.2459 O   0  0  0  0  0  0  0  0  0  0  0  0
   18.0618  -17.4669  -15.7082 O   0  0  0  0  0  0  0  0  0  0  0  0
   12.3206  -20.0166  -14.5658 N   0  0  0  0  0  0  0  0  0  0  0  0
   10.8730  -19.9645  -14.3337 C   0  0  1  0  0  0  0  0  0  0  0  0
   10.2695  -20.4753  -15.5774 C   0  0  0  0  0  0  0  0  0  0  0  0
    9.4596  -19.5921  -16.3879 C   0  0  0  0  0  0  0  0  0  0  0  0
    9.7001  -18.4199  -17.0385 C   0  0  0  0  0  0  0  0  0  0  0  0
    8.5900  -17.9969  -17.6741 N   0  0  0  0  0  0  0  0  0  0  0  0
    7.6270  -18.8803  -17.4457 C   0  0  0  0  0  0  0  0  0  0  0  0
    6.2959  -18.9520  -17.8550 C   0  0  0  0  0  0  0  0  0  0  0  0
    5.4694  -19.9924  -17.4896 C   0  0  0  0  0  0  0  0  0  0  0  0
    5.9646  -21.0178  -16.6832 C   0  0  0  0  0  0  0  0  0  0  0  0
    7.2691  -20.9302  -16.2935 C   0  0  0  0  0  0  0  0  0  0  0  0
    8.1111  -19.8757  -16.6624 C   0  0  0  0  0  0  0  0  0  0  0  0
   10.5807  -20.7260  -13.1003 C   0  0  0  0  0  0  0  0  0  0  0  0
   10.9623  -21.9335  -13.0345 O   0  0  0  0  0  0  0  0  0  0  0  0
    9.8968  -20.1408  -12.0158 N   0  0  0  0  0  0  0  0  0  0  0  0
    9.4579  -20.8923  -10.8347 C   0  0  1  0  0  0  0  0  0  0  0  0
    8.6401  -22.0675  -11.2203 C   0  0  0  0  0  0  0  0  0  0  0  0
    7.2345  -21.8094  -11.5270 C   0  0  0  0  0  0  0  0  0  0  0  0
    6.1950  -21.9041  -10.6185 C   0  0  0  0  0  0  0  0  0  0  0  0
    5.0451  -21.6150  -11.2469 N   0  0  0  0  0  0  0  0  0  0  0  0
    5.3545  -21.3395  -12.5390 C   0  0  0  0  0  0  0  0  0  0  0  0
    6.6787  -21.4643  -12.6787 N   0  0  0  0  0  0  0  0  0  0  0  0
   10.6493  -21.1673  -10.0178 C   0  0  0  0  0  0  0  0  0  0  0  0
   11.6198  -22.1046  -10.3896 O   0  0  0  0  0  0  0  0  0  0  0  0
   10.8482  -20.5654   -8.9464 O   0  0  0  0  0  0  0  0  0  0  0  0
  2  1  1  6
  2  3  1  0
  3  4  1  0
  5  4  1  0
  5  9  1  0
  6  5  2  0
  7  2  1  0
  8  7  2  0
 10  7  1  0
 11 12  1  6
 11 10  1  0
 12 13  1  0
 13 14  2  0
 13 21  1  0
 14 15  1  0
 15 16  1  0
 16 17  2  0
 18 17  1  0
 19 18  2  0
 20 21  2  0
 20 19  1  0
 21 16  1  0
 22 23  2  0
 22 11  1  0
 24 22  1  0
 25 32  1  0
 25 24  1  0
 25 26  1  6
 27 28  2  0
 27 26  1  0
 29 28  1  0
 30 31  2  0
 30 29  1  0
 31 27  1  0
 32 33  1  0
 34 32  2  0
M  END
$$$$
