EWH.pdb
     RDKit          3D

 34 36  0  0  1  0  0  0  0  0999 V2000
   21.4815  -18.4322  -17.2218 N   0  0  0  0  0  0  0  0  0  0  0  0
   21.2465  -17.8033  -18.5402 C   0  0  1  0  0  0  0  0  0  0  0  0
   19.7180  -17.6859  -18.6692 C   0  0  0  0  0  0  0  0  0  0  0  0
   19.1629  -19.0753  -18.3283 C   0  0  0  0  0  0  0  0  0  0  0  0
   18.6298  -19.0462  -16.9686 C   0  0  0  0  0  0  0  0  0  0  0  0
   18.8717  -18.0980  -16.2010 O   0  0  0  0  0  0  0  0  0  0  0  0
   21.8920  -16.4943  -18.5170 C   0  0  0  0  0  0  0  0  0  0  0  0
   21.6393  -15.6780  -17.5654 O   0  0  0  0  0  0  0  0  0  0  0  0
   17.8424  -20.0891  -16.5276 O   0  0  0  0  0  0  0  0  0  0  0  0
   22.8072  -16.0042  -19.4675 N   0  0  0  0  0  0  0  0  0  0  0  0
   23.5332  -14.7363  -19.3361 C   0  0  1  0  0  0  0  0  0  0  0  0
   24.9502  -15.1206  -19.2079 C   0  0  0  0  0  0  0  0  0  0  0  0
   25.5117  -15.3323  -17.8916 C   0  0  0  0  0  0  0  0  0  0  0  0
   25.3857  -16.3149  -16.9568 C   0  0  0  0  0  0  0  0  0  0  0  0
   26.1440  -16.0393  -15.8778 N   0  0  0  0  0  0  0  0  0  0  0  0
   26.7639  -14.8872  -16.0977 C   0  0  0  0  0  0  0  0  0  0  0  0
   27.6620  -14.1389  -15.3376 C   0  0  0  0  0  0  0  0  0  0  0  0
   28.1907  -12.9479  -15.7861 C   0  0  0  0  0  0  0  0  0  0  0  0
   27.8264  -12.4593  -17.0413 C   0  0  0  0  0  0  0  0  0  0  0  0
   26.9471  -13.2058  -17.7700 C   0  0  0  0  0  0  0  0  0  0  0  0
   26.4083  -14.4151  -17.3181 C   0  0  0  0  0  0  0  0  0  0  0  0
   23.1845  -13.8881  -20.4962 C   0  0  0  0  0  0  0  0  0  0  0  0
   23.0224  -14.4474  -21.6226 O   0  0  0  0  0  0  0  0  0  0  0  0
   23.0321  -12.4926  -20.3713 N   0  0  0  0  0  0  0  0  0  0  0  0
   22.6399  -11.6183  -21.4823 C   0  0  1  0  0  0  0  0  0  0  0  0
   21.3975  -12.1010  -22.1318 C   0  0  0  0  0  0  0  0  0  0  0  0
   20.8527  -11.2623  -23.1977 C   0  0  0  0  0  0  0  0  0  0  0  0
   21.3583  -10.0300  -23.5730 C   0  0  0  0  0  0  0  0  0  0  0  0
   20.6043   -9.5393  -24.5686 N   0  0  0  0  0  0  0  0  0  0  0  0
   19.6327  -10.4523  -24.8210 C   0  0  0  0  0  0  0  0  0  0  0  0
   19.8068  -11.4785  -23.9812 N   0  0  0  0  0  0  0  0  0  0  0  0
   22.6150  -10.2394  -20.9720 C   0  0  0  0  0  0  0  0  0  0  0  0
   22.6389   -9.1221  -21.8144 O   0  0  0  0  0  0  0  0  0  0  0  0
   22.5675  -10.0059  -19.7501 O   0  0  0  0  0  0  0  0  0  0  0  0
  2  1  1  1
  2  3  1  0
  3  4  1  0
  5  4  1  0
  5  9  1  0
  6  5  2  0
  7  2  1  0
  8  7  2  0
 10  7  1  0
 11 12  1  6
 11 10  1  0
 12 13  1  0
 13 14  2  0
 13 21  1  0
 14 15  1  0
 15 16  1  0
 16 17  2  0
 18 17  1  0
 19 18  2  0
 20 21  2  0
 20 19  1  0
 21 16  1  0
 22 23  2  0
 22 11  1  0
 24 22  1  0
 25 32  1  0
 25 24  1  0
 25 26  1  1
 27 28  2  0
 27 26  1  0
 29 28  1  0
 30 31  2  0
 30 29  1  0
 31 27  1  0
 32 33  1  0
 34 32  2  0
M  END
$$$$
