EWH.pdb
     RDKit          3D

 34 36  0  0  1  0  0  0  0  0999 V2000
   31.9621  -30.8495  -16.6807 N   0  0  0  0  0  0  0  0  0  0  0  0
   31.8095  -32.2592  -17.1028 C   0  0  1  0  0  0  0  0  0  0  0  0
   33.2341  -32.8401  -17.1067 C   0  0  0  0  0  0  0  0  0  0  0  0
   33.8368  -32.4564  -18.4648 C   0  0  0  0  0  0  0  0  0  0  0  0
   35.1766  -31.9165  -18.2472 C   0  0  0  0  0  0  0  0  0  0  0  0
   36.1185  -32.6495  -17.8974 O   0  0  0  0  0  0  0  0  0  0  0  0
   30.9574  -32.9168  -16.1168 C   0  0  0  0  0  0  0  0  0  0  0  0
   30.9196  -32.4780  -14.9161 O   0  0  0  0  0  0  0  0  0  0  0  0
   35.4020  -30.5688  -18.4340 O   0  0  0  0  0  0  0  0  0  0  0  0
   30.1303  -34.0321  -16.3479 N   0  0  0  0  0  0  0  0  0  0  0  0
   29.2218  -34.6062  -15.3495 C   0  0  1  0  0  0  0  0  0  0  0  0
   27.8833  -34.5236  -15.9608 C   0  0  0  0  0  0  0  0  0  0  0  0
   27.2469  -33.2324  -16.1037 C   0  0  0  0  0  0  0  0  0  0  0  0
   27.4052  -32.1906  -16.9667 C   0  0  0  0  0  0  0  0  0  0  0  0
   26.5395  -31.2004  -16.6746 N   0  0  0  0  0  0  0  0  0  0  0  0
   25.8175  -31.5843  -15.6300 C   0  0  0  0  0  0  0  0  0  0  0  0
   24.7868  -30.9707  -14.9187 C   0  0  0  0  0  0  0  0  0  0  0  0
   24.1688  -31.5794  -13.8479 C   0  0  0  0  0  0  0  0  0  0  0  0
   24.5750  -32.8530  -13.4482 C   0  0  0  0  0  0  0  0  0  0  0  0
   25.5843  -33.4368  -14.1566 C   0  0  0  0  0  0  0  0  0  0  0  0
   26.2140  -32.8221  -15.2440 C   0  0  0  0  0  0  0  0  0  0  0  0
   29.7090  -35.9616  -15.0147 C   0  0  0  0  0  0  0  0  0  0  0  0
   30.3223  -36.6180  -15.9095 O   0  0  0  0  0  0  0  0  0  0  0  0
   29.5059  -36.5250  -13.7389 N   0  0  0  0  0  0  0  0  0  0  0  0
   29.9907  -37.8554  -13.3548 C   0  0  1  0  0  0  0  0  0  0  0  0
   31.1838  -37.7595  -12.4798 C   0  0  0  0  0  0  0  0  0  0  0  0
   31.7786  -39.0236  -12.0500 C   0  0  0  0  0  0  0  0  0  0  0  0
   31.6075  -40.2381  -12.6909 C   0  0  0  0  0  0  0  0  0  0  0  0
   32.2811  -41.1813  -12.0149 N   0  0  0  0  0  0  0  0  0  0  0  0
   32.8729  -40.5694  -10.9581 C   0  0  0  0  0  0  0  0  0  0  0  0
   32.5531  -39.2717  -11.0046 N   0  0  0  0  0  0  0  0  0  0  0  0
   28.8457  -38.6043  -12.8155 C   0  0  0  0  0  0  0  0  0  0  0  0
   28.7639  -40.0004  -12.8691 O   0  0  0  0  0  0  0  0  0  0  0  0
   27.8885  -38.0177  -12.2776 O   0  0  0  0  0  0  0  0  0  0  0  0
  2  1  1  1
  2  3  1  0
  3  4  1  0
  5  4  1  0
  5  9  1  0
  6  5  2  0
  7  2  1  0
  8  7  2  0
 10  7  1  0
 11 12  1  6
 11 10  1  0
 12 13  1  0
 13 14  2  0
 13 21  1  0
 14 15  1  0
 15 16  1  0
 16 17  2  0
 18 17  1  0
 19 18  2  0
 20 21  2  0
 20 19  1  0
 21 16  1  0
 22 23  2  0
 22 11  1  0
 24 22  1  0
 25 32  1  0
 25 24  1  0
 25 26  1  1
 27 28  2  0
 27 26  1  0
 29 28  1  0
 30 31  2  0
 30 29  1  0
 31 27  1  0
 32 33  1  0
 34 32  2  0
M  END
$$$$
