EWH.pdb
     RDKit          3D

 34 36  0  0  1  0  0  0  0  0999 V2000
   28.7864  -22.9470  -16.9141 N   0  0  0  0  0  0  0  0  0  0  0  0
   28.2549  -21.6751  -16.3769 C   0  0  1  0  0  0  0  0  0  0  0  0
   27.2268  -21.1921  -17.4145 C   0  0  0  0  0  0  0  0  0  0  0  0
   27.8045  -19.8977  -18.0023 C   0  0  0  0  0  0  0  0  0  0  0  0
   26.9000  -18.7951  -17.6863 C   0  0  0  0  0  0  0  0  0  0  0  0
   27.2700  -17.8385  -16.9829 O   0  0  0  0  0  0  0  0  0  0  0  0
   27.6304  -21.9750  -15.0920 C   0  0  0  0  0  0  0  0  0  0  0  0
   28.2174  -22.7566  -14.2673 O   0  0  0  0  0  0  0  0  0  0  0  0
   25.6117  -18.8141  -18.1781 O   0  0  0  0  0  0  0  0  0  0  0  0
   26.3965  -21.4765  -14.6335 N   0  0  0  0  0  0  0  0  0  0  0  0
   25.8585  -21.7152  -13.2898 C   0  0  1  0  0  0  0  0  0  0  0  0
   26.8784  -21.1794  -12.3707 C   0  0  0  0  0  0  0  0  0  0  0  0
   26.5032  -20.8367  -11.0162 C   0  0  0  0  0  0  0  0  0  0  0  0
   25.3317  -20.4762  -10.4222 C   0  0  0  0  0  0  0  0  0  0  0  0
   25.5158  -20.2691   -9.1037 N   0  0  0  0  0  0  0  0  0  0  0  0
   26.7948  -20.4906   -8.8302 C   0  0  0  0  0  0  0  0  0  0  0  0
   27.5303  -20.4332   -7.6468 C   0  0  0  0  0  0  0  0  0  0  0  0
   28.8779  -20.7181   -7.6042 C   0  0  0  0  0  0  0  0  0  0  0  0
   29.5454  -21.0782   -8.7754 C   0  0  0  0  0  0  0  0  0  0  0  0
   28.8088  -21.1292   -9.9227 C   0  0  0  0  0  0  0  0  0  0  0  0
   27.4407  -20.8407   -9.9698 C   0  0  0  0  0  0  0  0  0  0  0  0
   24.5180  -21.0951  -13.2178 C   0  0  0  0  0  0  0  0  0  0  0  0
   24.4104  -19.8621  -13.4936 O   0  0  0  0  0  0  0  0  0  0  0  0
   23.3783  -21.8402  -12.8540 N   0  0  0  0  0  0  0  0  0  0  0  0
   22.0038  -21.3756  -13.0717 C   0  0  1  0  0  0  0  0  0  0  0  0
   21.0516  -22.5118  -13.0988 C   0  0  0  0  0  0  0  0  0  0  0  0
   19.6509  -22.1807  -13.3537 C   0  0  0  0  0  0  0  0  0  0  0  0
   19.1121  -21.9240  -14.6022 C   0  0  0  0  0  0  0  0  0  0  0  0
   17.8080  -21.6416  -14.4595 N   0  0  0  0  0  0  0  0  0  0  0  0
   17.5251  -21.7199  -13.1346 C   0  0  0  0  0  0  0  0  0  0  0  0
   18.6527  -22.0458  -12.4936 N   0  0  0  0  0  0  0  0  0  0  0  0
   21.7319  -20.3210  -12.0836 C   0  0  0  0  0  0  0  0  0  0  0  0
   20.9801  -19.1797  -12.3848 O   0  0  0  0  0  0  0  0  0  0  0  0
   22.1638  -20.4034  -10.9189 O   0  0  0  0  0  0  0  0  0  0  0  0
  2  1  1  6
  2  3  1  0
  3  4  1  0
  5  4  1  0
  5  9  1  0
  6  5  2  0
  7  2  1  0
  8  7  2  0
 10  7  1  0
 11 12  1  1
 11 10  1  0
 12 13  1  0
 13 14  2  0
 13 21  1  0
 14 15  1  0
 15 16  1  0
 16 17  2  0
 18 17  1  0
 19 18  2  0
 20 21  2  0
 20 19  1  0
 21 16  1  0
 22 23  2  0
 22 11  1  0
 24 22  1  0
 25 32  1  0
 25 24  1  0
 25 26  1  1
 27 28  2  0
 27 26  1  0
 29 28  1  0
 30 31  2  0
 30 29  1  0
 31 27  1  0
 32 33  1  0
 34 32  2  0
M  END
$$$$
