EWH.pdb
     RDKit          3D

 34 36  0  0  1  0  0  0  0  0999 V2000
   28.7261  -20.1052  -15.6800 N   0  0  0  0  0  0  0  0  0  0  0  0
   28.0946  -21.4170  -15.9430 C   0  0  1  0  0  0  0  0  0  0  0  0
   29.2616  -22.3919  -16.1765 C   0  0  0  0  0  0  0  0  0  0  0  0
   28.8075  -23.3218  -17.3096 C   0  0  0  0  0  0  0  0  0  0  0  0
   29.7006  -23.1402  -18.4512 C   0  0  0  0  0  0  0  0  0  0  0  0
   29.2793  -22.7029  -19.5366 O   0  0  0  0  0  0  0  0  0  0  0  0
   27.3203  -21.7705  -14.7571 C   0  0  0  0  0  0  0  0  0  0  0  0
   26.4374  -22.6932  -14.8265 O   0  0  0  0  0  0  0  0  0  0  0  0
   31.0364  -23.4583  -18.3231 O   0  0  0  0  0  0  0  0  0  0  0  0
   27.4415  -21.1848  -13.4829 N   0  0  0  0  0  0  0  0  0  0  0  0
   26.5243  -21.4408  -12.3670 C   0  0  1  0  0  0  0  0  0  0  0  0
   27.3019  -21.1256  -11.1553 C   0  0  0  0  0  0  0  0  0  0  0  0
   26.6057  -20.7744   -9.9368 C   0  0  0  0  0  0  0  0  0  0  0  0
   25.2934  -20.6083   -9.6120 C   0  0  0  0  0  0  0  0  0  0  0  0
   25.1671  -20.2846   -8.3103 N   0  0  0  0  0  0  0  0  0  0  0  0
   26.3828  -20.2375   -7.7814 C   0  0  0  0  0  0  0  0  0  0  0  0
   26.8414  -19.9631   -6.4934 C   0  0  0  0  0  0  0  0  0  0  0  0
   28.1811  -19.9799   -6.1709 C   0  0  0  0  0  0  0  0  0  0  0  0
   29.1247  -20.2801   -7.1539 C   0  0  0  0  0  0  0  0  0  0  0  0
   28.6566  -20.5462   -8.4074 C   0  0  0  0  0  0  0  0  0  0  0  0
   27.2975  -20.5301   -8.7386 C   0  0  0  0  0  0  0  0  0  0  0  0
   25.3005  -20.6411  -12.5891 C   0  0  0  0  0  0  0  0  0  0  0  0
   25.4240  -19.3936  -12.7805 O   0  0  0  0  0  0  0  0  0  0  0  0
   24.0216  -21.2334  -12.5915 N   0  0  0  0  0  0  0  0  0  0  0  0
   22.7773  -20.4728  -12.7511 C   0  0  1  0  0  0  0  0  0  0  0  0
   22.4064  -20.3451  -14.1810 C   0  0  0  0  0  0  0  0  0  0  0  0
   21.1719  -19.6178  -14.4703 C   0  0  0  0  0  0  0  0  0  0  0  0
   21.0990  -18.2692  -14.7719 C   0  0  0  0  0  0  0  0  0  0  0  0
   19.8126  -17.9388  -14.9633 N   0  0  0  0  0  0  0  0  0  0  0  0
   19.0799  -19.0671  -14.7857 C   0  0  0  0  0  0  0  0  0  0  0  0
   19.9240  -20.0614  -14.4900 N   0  0  0  0  0  0  0  0  0  0  0  0
   21.7708  -21.0818  -11.8688 C   0  0  0  0  0  0  0  0  0  0  0  0
   21.5600  -22.4638  -11.8047 O   0  0  0  0  0  0  0  0  0  0  0  0
   21.0557  -20.3816  -11.1283 O   0  0  0  0  0  0  0  0  0  0  0  0
  2  1  1  1
  2  3  1  0
  3  4  1  0
  5  4  1  0
  5  9  1  0
  6  5  2  0
  7  2  1  0
  8  7  2  0
 10  7  1  0
 11 12  1  1
 11 10  1  0
 12 13  1  0
 13 14  2  0
 13 21  1  0
 14 15  1  0
 15 16  1  0
 16 17  2  0
 18 17  1  0
 19 18  2  0
 20 21  2  0
 20 19  1  0
 21 16  1  0
 22 23  2  0
 22 11  1  0
 24 22  1  0
 25 32  1  0
 25 24  1  0
 25 26  1  6
 27 28  2  0
 27 26  1  0
 29 28  1  0
 30 31  2  0
 30 29  1  0
 31 27  1  0
 32 33  1  0
 34 32  2  0
M  END
$$$$
