EWH.pdb
     RDKit          3D

 34 36  0  0  1  0  0  0  0  0999 V2000
   40.2607  -31.9399    1.2187 N   0  0  0  0  0  0  0  0  0  0  0  0
   38.8034  -31.6987    1.1344 C   0  0  1  0  0  0  0  0  0  0  0  0
   38.1510  -33.0822    1.2987 C   0  0  0  0  0  0  0  0  0  0  0  0
   38.3153  -33.7841   -0.0560 C   0  0  0  0  0  0  0  0  0  0  0  0
   37.5367  -35.0199   -0.0409 C   0  0  0  0  0  0  0  0  0  0  0  0
   36.8964  -35.3667    0.9673 O   0  0  0  0  0  0  0  0  0  0  0  0
   38.4496  -30.7978    2.2271 C   0  0  0  0  0  0  0  0  0  0  0  0
   39.0335  -30.9121    3.3592 O   0  0  0  0  0  0  0  0  0  0  0  0
   37.5099  -35.8170   -1.1661 O   0  0  0  0  0  0  0  0  0  0  0  0
   37.4938  -29.7658    2.1743 N   0  0  0  0  0  0  0  0  0  0  0  0
   37.1476  -28.9035    3.3094 C   0  0  1  0  0  0  0  0  0  0  0  0
   36.9332  -27.5690    2.7221 C   0  0  0  0  0  0  0  0  0  0  0  0
   36.6450  -26.4491    3.5913 C   0  0  0  0  0  0  0  0  0  0  0  0
   35.5110  -25.9754    4.1785 C   0  0  0  0  0  0  0  0  0  0  0  0
   35.7843  -24.8840    4.9197 N   0  0  0  0  0  0  0  0  0  0  0  0
   37.0846  -24.6398    4.8230 C   0  0  0  0  0  0  0  0  0  0  0  0
   37.9038  -23.6569    5.3774 C   0  0  0  0  0  0  0  0  0  0  0  0
   39.2593  -23.6063    5.1339 C   0  0  0  0  0  0  0  0  0  0  0  0
   39.8490  -24.5633    4.3073 C   0  0  0  0  0  0  0  0  0  0  0  0
   39.0313  -25.5167    3.7748 C   0  0  0  0  0  0  0  0  0  0  0  0
   37.6550  -25.5713    4.0196 C   0  0  0  0  0  0  0  0  0  0  0  0
   35.9921  -29.5082    4.0065 C   0  0  0  0  0  0  0  0  0  0  0  0
   35.0609  -30.0073    3.3052 O   0  0  0  0  0  0  0  0  0  0  0  0
   35.9114  -29.5381    5.4132 N   0  0  0  0  0  0  0  0  0  0  0  0
   34.8282  -30.2007    6.1482 C   0  0  1  0  0  0  0  0  0  0  0  0
   35.3642  -31.1580    7.1455 C   0  0  0  0  0  0  0  0  0  0  0  0
   35.5671  -32.5306    6.6859 C   0  0  0  0  0  0  0  0  0  0  0  0
   35.2970  -32.9861    5.4074 C   0  0  0  0  0  0  0  0  0  0  0  0
   35.5858  -34.2951    5.3457 N   0  0  0  0  0  0  0  0  0  0  0  0
   36.0349  -34.6631    6.5722 C   0  0  0  0  0  0  0  0  0  0  0  0
   36.0128  -33.5813    7.3581 N   0  0  0  0  0  0  0  0  0  0  0  0
   33.9383  -29.1506    6.6657 C   0  0  0  0  0  0  0  0  0  0  0  0
   32.7179  -28.8294    6.0607 O   0  0  0  0  0  0  0  0  0  0  0  0
   34.2376  -28.4960    7.6814 O   0  0  0  0  0  0  0  0  0  0  0  0
  2  1  1  1
  2  3  1  0
  3  4  1  0
  5  4  1  0
  5  9  1  0
  6  5  2  0
  7  2  1  0
  8  7  2  0
 10  7  1  0
 11 12  1  6
 11 10  1  0
 12 13  1  0
 13 14  2  0
 13 21  1  0
 14 15  1  0
 15 16  1  0
 16 17  2  0
 18 17  1  0
 19 18  2  0
 20 21  2  0
 20 19  1  0
 21 16  1  0
 22 23  2  0
 22 11  1  0
 24 22  1  0
 25 32  1  0
 25 24  1  0
 25 26  1  1
 27 28  2  0
 27 26  1  0
 29 28  1  0
 30 31  2  0
 30 29  1  0
 31 27  1  0
 32 33  1  0
 34 32  2  0
M  END
$$$$
