EWH.pdb
     RDKit          3D

 34 36  0  0  1  0  0  0  0  0999 V2000
   29.0487  -20.9750  -11.8399 N   0  0  0  0  0  0  0  0  0  0  0  0
   27.7173  -20.4981  -12.2744 C   0  0  1  0  0  0  0  0  0  0  0  0
   27.5570  -20.9982  -13.7205 C   0  0  0  0  0  0  0  0  0  0  0  0
   27.6044  -19.7437  -14.6029 C   0  0  0  0  0  0  0  0  0  0  0  0
   28.9498  -19.6103  -15.1559 C   0  0  0  0  0  0  0  0  0  0  0  0
   29.7707  -18.8124  -14.6699 O   0  0  0  0  0  0  0  0  0  0  0  0
   26.7302  -21.0957  -11.3803 C   0  0  0  0  0  0  0  0  0  0  0  0
   26.3510  -22.3026  -11.5682 O   0  0  0  0  0  0  0  0  0  0  0  0
   29.3175  -20.3843  -16.2364 O   0  0  0  0  0  0  0  0  0  0  0  0
   26.1195  -20.4655  -10.2798 N   0  0  0  0  0  0  0  0  0  0  0  0
   25.0283  -21.0524   -9.4944 C   0  0  1  0  0  0  0  0  0  0  0  0
   25.3884  -20.7927   -8.0891 C   0  0  0  0  0  0  0  0  0  0  0  0
   26.5680  -20.0097   -7.7919 C   0  0  0  0  0  0  0  0  0  0  0  0
   27.2447  -19.0308   -8.4545 C   0  0  0  0  0  0  0  0  0  0  0  0
   28.2974  -18.6097   -7.7267 N   0  0  0  0  0  0  0  0  0  0  0  0
   28.3156  -19.3031   -6.5959 C   0  0  0  0  0  0  0  0  0  0  0  0
   29.1633  -19.2806   -5.4889 C   0  0  0  0  0  0  0  0  0  0  0  0
   28.9767  -20.1085   -4.4031 C   0  0  0  0  0  0  0  0  0  0  0  0
   27.9081  -21.0057   -4.3939 C   0  0  0  0  0  0  0  0  0  0  0  0
   27.0898  -21.0124   -5.4855 C   0  0  0  0  0  0  0  0  0  0  0  0
   27.2760  -20.1736   -6.5894 C   0  0  0  0  0  0  0  0  0  0  0  0
   23.7572  -20.4628   -9.9669 C   0  0  0  0  0  0  0  0  0  0  0  0
   23.7206  -19.2157  -10.1939 O   0  0  0  0  0  0  0  0  0  0  0  0
   22.6062  -21.2515  -10.1657 N   0  0  0  0  0  0  0  0  0  0  0  0
   21.3225  -20.7094  -10.6246 C   0  0  1  0  0  0  0  0  0  0  0  0
   21.0188  -21.1481  -12.0080 C   0  0  0  0  0  0  0  0  0  0  0  0
   21.9152  -20.6628  -13.0557 C   0  0  0  0  0  0  0  0  0  0  0  0
   22.1979  -19.3308  -13.3022 C   0  0  0  0  0  0  0  0  0  0  0  0
   23.0424  -19.2543  -14.3422 N   0  0  0  0  0  0  0  0  0  0  0  0
   23.2918  -20.5248  -14.7484 C   0  0  0  0  0  0  0  0  0  0  0  0
   22.6002  -21.3513  -13.9563 N   0  0  0  0  0  0  0  0  0  0  0  0
   20.3156  -21.0325   -9.6027 C   0  0  0  0  0  0  0  0  0  0  0  0
   20.5897  -21.8596   -8.5076 O   0  0  0  0  0  0  0  0  0  0  0  0
   19.1603  -20.5734   -9.6694 O   0  0  0  0  0  0  0  0  0  0  0  0
  2  1  1  1
  2  3  1  0
  3  4  1  0
  5  4  1  0
  5  9  1  0
  6  5  2  0
  7  2  1  0
  8  7  2  0
 10  7  1  0
 11 12  1  1
 11 10  1  0
 12 13  1  0
 13 14  2  0
 13 21  1  0
 14 15  1  0
 15 16  1  0
 16 17  2  0
 18 17  1  0
 19 18  2  0
 20 21  2  0
 20 19  1  0
 21 16  1  0
 22 23  2  0
 22 11  1  0
 24 22  1  0
 25 32  1  0
 25 24  1  0
 25 26  1  6
 27 28  2  0
 27 26  1  0
 29 28  1  0
 30 31  2  0
 30 29  1  0
 31 27  1  0
 32 33  1  0
 34 32  2  0
M  END
$$$$
