EWH.pdb
     RDKit          3D

 34 36  0  0  1  0  0  0  0  0999 V2000
   28.1673  -21.4662  -16.1896 N   0  0  0  0  0  0  0  0  0  0  0  0
   27.2637  -20.3647  -15.7907 C   0  0  1  0  0  0  0  0  0  0  0  0
   26.2839  -20.1956  -16.9646 C   0  0  0  0  0  0  0  0  0  0  0  0
   27.0665  -19.4553  -18.0574 C   0  0  0  0  0  0  0  0  0  0  0  0
   27.2326  -20.3482  -19.2014 C   0  0  0  0  0  0  0  0  0  0  0  0
   26.7832  -21.5078  -19.1852 O   0  0  0  0  0  0  0  0  0  0  0  0
   26.5820  -20.7843  -14.5700 C   0  0  0  0  0  0  0  0  0  0  0  0
   26.0805  -21.9583  -14.4938 O   0  0  0  0  0  0  0  0  0  0  0  0
   27.8992  -19.8971  -20.3212 O   0  0  0  0  0  0  0  0  0  0  0  0
   26.4064  -20.0073  -13.4095 N   0  0  0  0  0  0  0  0  0  0  0  0
   25.7014  -20.4670  -12.2080 C   0  0  1  0  0  0  0  0  0  0  0  0
   26.3308  -19.7355  -11.0941 C   0  0  0  0  0  0  0  0  0  0  0  0
   27.3653  -20.3811  -10.3158 C   0  0  0  0  0  0  0  0  0  0  0  0
   28.3679  -21.2532  -10.6145 C   0  0  0  0  0  0  0  0  0  0  0  0
   29.0799  -21.5496   -9.5098 N   0  0  0  0  0  0  0  0  0  0  0  0
   28.5531  -20.8803   -8.4927 C   0  0  0  0  0  0  0  0  0  0  0  0
   28.8848  -20.8042   -7.1404 C   0  0  0  0  0  0  0  0  0  0  0  0
   28.1806  -20.0185   -6.2539 C   0  0  0  0  0  0  0  0  0  0  0  0
   27.0962  -19.2667   -6.7074 C   0  0  0  0  0  0  0  0  0  0  0  0
   26.7876  -19.3541   -8.0335 C   0  0  0  0  0  0  0  0  0  0  0  0
   27.5000  -20.1505   -8.9364 C   0  0  0  0  0  0  0  0  0  0  0  0
   24.2549  -20.2372  -12.4113 C   0  0  0  0  0  0  0  0  0  0  0  0
   23.8751  -19.0844  -12.7783 O   0  0  0  0  0  0  0  0  0  0  0  0
   23.3086  -21.2615  -12.2073 N   0  0  0  0  0  0  0  0  0  0  0  0
   21.8749  -21.1048  -12.4765 C   0  0  1  0  0  0  0  0  0  0  0  0
   21.4129  -22.0715  -13.5014 C   0  0  0  0  0  0  0  0  0  0  0  0
   20.0179  -21.9560  -13.9224 C   0  0  0  0  0  0  0  0  0  0  0  0
   19.2538  -22.9940  -14.4259 C   0  0  0  0  0  0  0  0  0  0  0  0
   18.0315  -22.5260  -14.7216 N   0  0  0  0  0  0  0  0  0  0  0  0
   18.0225  -21.2060  -14.4073 C   0  0  0  0  0  0  0  0  0  0  0  0
   19.2309  -20.8907  -13.9288 N   0  0  0  0  0  0  0  0  0  0  0  0
   21.1757  -21.1422  -11.1834 C   0  0  0  0  0  0  0  0  0  0  0  0
   20.0538  -20.3520  -10.9086 O   0  0  0  0  0  0  0  0  0  0  0  0
   21.5574  -21.8928  -10.2666 O   0  0  0  0  0  0  0  0  0  0  0  0
  2  1  1  6
  2  3  1  0
  3  4  1  0
  5  4  1  0
  5  9  1  0
  6  5  2  0
  7  2  1  0
  8  7  2  0
 10  7  1  0
 11 12  1  1
 11 10  1  0
 12 13  1  0
 13 14  2  0
 13 21  1  0
 14 15  1  0
 15 16  1  0
 16 17  2  0
 18 17  1  0
 19 18  2  0
 20 21  2  0
 20 19  1  0
 21 16  1  0
 22 23  2  0
 22 11  1  0
 24 22  1  0
 25 32  1  0
 25 24  1  0
 25 26  1  6
 27 28  2  0
 27 26  1  0
 29 28  1  0
 30 31  2  0
 30 29  1  0
 31 27  1  0
 32 33  1  0
 34 32  2  0
M  END
$$$$
