EWH.pdb
     RDKit          3D

 34 36  0  0  1  0  0  0  0  0999 V2000
   28.1110  -21.7229  -15.2313 N   0  0  0  0  0  0  0  0  0  0  0  0
   27.4396  -20.5524  -14.6245 C   0  0  1  0  0  0  0  0  0  0  0  0
   26.6846  -19.8716  -15.7792 C   0  0  0  0  0  0  0  0  0  0  0  0
   27.7547  -19.4967  -16.8132 C   0  0  0  0  0  0  0  0  0  0  0  0
   28.4211  -18.2729  -16.3753 C   0  0  0  0  0  0  0  0  0  0  0  0
   27.7838  -17.2198  -16.1969 O   0  0  0  0  0  0  0  0  0  0  0  0
   26.5281  -21.0577  -13.6025 C   0  0  0  0  0  0  0  0  0  0  0  0
   25.8793  -22.1404  -13.8088 O   0  0  0  0  0  0  0  0  0  0  0  0
   29.7823  -18.2851  -16.1542 O   0  0  0  0  0  0  0  0  0  0  0  0
   26.2702  -20.4616  -12.3537 N   0  0  0  0  0  0  0  0  0  0  0  0
   25.2174  -20.9013  -11.4316 C   0  0  1  0  0  0  0  0  0  0  0  0
   25.6959  -20.5108  -10.0935 C   0  0  0  0  0  0  0  0  0  0  0  0
   27.0259  -20.8963   -9.6751 C   0  0  0  0  0  0  0  0  0  0  0  0
   28.0048  -21.6660  -10.2270 C   0  0  0  0  0  0  0  0  0  0  0  0
   29.0853  -21.7029   -9.4231 N   0  0  0  0  0  0  0  0  0  0  0  0
   28.8227  -20.9655   -8.3520 C   0  0  0  0  0  0  0  0  0  0  0  0
   29.5697  -20.6499   -7.2176 C   0  0  0  0  0  0  0  0  0  0  0  0
   29.0791  -19.8403   -6.2161 C   0  0  0  0  0  0  0  0  0  0  0  0
   27.7932  -19.3095   -6.3243 C   0  0  0  0  0  0  0  0  0  0  0  0
   27.0784  -19.6293   -7.4415 C   0  0  0  0  0  0  0  0  0  0  0  0
   27.5730  -20.4506   -8.4601 C   0  0  0  0  0  0  0  0  0  0  0  0
   23.9415  -20.2994  -11.8750 C   0  0  0  0  0  0  0  0  0  0  0  0
   23.9869  -19.2560  -12.5941 O   0  0  0  0  0  0  0  0  0  0  0  0
   22.6979  -20.8577  -11.5171 N   0  0  0  0  0  0  0  0  0  0  0  0
   21.5521  -20.9347  -12.4301 C   0  0  1  0  0  0  0  0  0  0  0  0
   21.8630  -21.7750  -13.6114 C   0  0  0  0  0  0  0  0  0  0  0  0
   22.1989  -21.0653  -14.8443 C   0  0  0  0  0  0  0  0  0  0  0  0
   22.1543  -19.6915  -15.0049 C   0  0  0  0  0  0  0  0  0  0  0  0
   22.5094  -19.3926  -16.2639 N   0  0  0  0  0  0  0  0  0  0  0  0
   22.7768  -20.5651  -16.8925 C   0  0  0  0  0  0  0  0  0  0  0  0
   22.5815  -21.5545  -16.0142 N   0  0  0  0  0  0  0  0  0  0  0  0
   20.3805  -21.3344  -11.6363 C   0  0  0  0  0  0  0  0  0  0  0  0
   20.4005  -22.4219  -10.7557 O   0  0  0  0  0  0  0  0  0  0  0  0
   19.3066  -20.7096  -11.7141 O   0  0  0  0  0  0  0  0  0  0  0  0
  2  1  1  6
  2  3  1  0
  3  4  1  0
  5  4  1  0
  5  9  1  0
  6  5  2  0
  7  2  1  0
  8  7  2  0
 10  7  1  0
 11 12  1  1
 11 10  1  0
 12 13  1  0
 13 14  2  0
 13 21  1  0
 14 15  1  0
 15 16  1  0
 16 17  2  0
 18 17  1  0
 19 18  2  0
 20 21  2  0
 20 19  1  0
 21 16  1  0
 22 23  2  0
 22 11  1  0
 24 22  1  0
 25 32  1  0
 25 24  1  0
 25 26  1  6
 27 28  2  0
 27 26  1  0
 29 28  1  0
 30 31  2  0
 30 29  1  0
 31 27  1  0
 32 33  1  0
 34 32  2  0
M  END
$$$$
