EWH.pdb
     RDKit          3D

 34 36  0  0  1  0  0  0  0  0999 V2000
   26.8493  -19.4148  -14.4722 N   0  0  0  0  0  0  0  0  0  0  0  0
   25.7183  -20.2639  -14.9065 C   0  0  1  0  0  0  0  0  0  0  0  0
   26.3314  -21.3022  -15.8620 C   0  0  0  0  0  0  0  0  0  0  0  0
   26.6680  -20.5368  -17.1487 C   0  0  0  0  0  0  0  0  0  0  0  0
   28.1131  -20.3320  -17.2077 C   0  0  0  0  0  0  0  0  0  0  0  0
   28.8988  -21.1125  -16.6417 O   0  0  0  0  0  0  0  0  0  0  0  0
   25.1613  -20.8884  -13.7105 C   0  0  0  0  0  0  0  0  0  0  0  0
   24.7470  -22.0974  -13.7592 O   0  0  0  0  0  0  0  0  0  0  0  0
   28.6163  -19.2537  -17.9049 O   0  0  0  0  0  0  0  0  0  0  0  0
   25.0228  -20.2833  -12.4472 N   0  0  0  0  0  0  0  0  0  0  0  0
   24.4124  -20.9347  -11.2831 C   0  0  1  0  0  0  0  0  0  0  0  0
   25.1314  -20.3863  -10.1195 C   0  0  0  0  0  0  0  0  0  0  0  0
   26.5095  -20.7643   -9.8942 C   0  0  0  0  0  0  0  0  0  0  0  0
   27.4232  -21.4779  -10.6093 C   0  0  0  0  0  0  0  0  0  0  0  0
   28.5968  -21.5360   -9.9502 N   0  0  0  0  0  0  0  0  0  0  0  0
   28.4595  -20.8680   -8.8122 C   0  0  0  0  0  0  0  0  0  0  0  0
   29.3383  -20.6012   -7.7629 C   0  0  0  0  0  0  0  0  0  0  0  0
   28.9649  -19.8625   -6.6611 C   0  0  0  0  0  0  0  0  0  0  0  0
   27.6674  -19.3563   -6.5759 C   0  0  0  0  0  0  0  0  0  0  0  0
   26.8228  -19.6276   -7.6123 C   0  0  0  0  0  0  0  0  0  0  0  0
   27.1981  -20.3770   -8.7324 C   0  0  0  0  0  0  0  0  0  0  0  0
   22.9555  -20.6860  -11.3326 C   0  0  0  0  0  0  0  0  0  0  0  0
   22.5530  -19.4864  -11.4167 O   0  0  0  0  0  0  0  0  0  0  0  0
   22.0241  -21.7427  -11.2885 N   0  0  0  0  0  0  0  0  0  0  0  0
   20.5723  -21.5464  -11.3688 C   0  0  1  0  0  0  0  0  0  0  0  0
   20.0330  -22.0522  -12.6540 C   0  0  0  0  0  0  0  0  0  0  0  0
   20.3607  -21.2750  -13.8478 C   0  0  0  0  0  0  0  0  0  0  0  0
   20.5248  -19.9012  -13.8784 C   0  0  0  0  0  0  0  0  0  0  0  0
   20.8021  -19.5278  -15.1371 N   0  0  0  0  0  0  0  0  0  0  0  0
   20.8143  -20.6539  -15.8942 C   0  0  0  0  0  0  0  0  0  0  0  0
   20.5455  -21.6897  -15.0921 N   0  0  0  0  0  0  0  0  0  0  0  0
   19.9816  -22.1118  -10.1466 C   0  0  0  0  0  0  0  0  0  0  0  0
   18.7035  -21.7639   -9.6950 O   0  0  0  0  0  0  0  0  0  0  0  0
   20.6031  -22.9390   -9.4543 O   0  0  0  0  0  0  0  0  0  0  0  0
  2  1  1  1
  2  3  1  0
  3  4  1  0
  5  4  1  0
  5  9  1  0
  6  5  2  0
  7  2  1  0
  8  7  2  0
 10  7  1  0
 11 12  1  1
 11 10  1  0
 12 13  1  0
 13 14  2  0
 13 21  1  0
 14 15  1  0
 15 16  1  0
 16 17  2  0
 18 17  1  0
 19 18  2  0
 20 21  2  0
 20 19  1  0
 21 16  1  0
 22 23  2  0
 22 11  1  0
 24 22  1  0
 25 32  1  0
 25 24  1  0
 25 26  1  6
 27 28  2  0
 27 26  1  0
 29 28  1  0
 30 31  2  0
 30 29  1  0
 31 27  1  0
 32 33  1  0
 34 32  2  0
M  END
$$$$
