CQY.pdb
     RDKit          3D

 28 28  0  0  1  0  0  0  0  0999 V2000
   -3.7433  -25.4865   23.8169 N   0  0  0  0  0  0  0  0  0  0  0  0
   -5.1892  -25.4496   23.7261 C   0  0  1  0  0  0  0  0  0  0  0  0
   -5.6822  -26.4795   22.7180 C   0  0  0  0  0  0  0  0  0  0  0  0
   -5.0595  -26.0730   21.0705 S   0  0  0  0  0  0  0  0  0  0  0  0
   -5.7697  -25.7507   25.0495 C   0  0  0  0  0  0  0  0  0  0  0  0
   -7.0152  -25.7715   25.1704 O   0  0  0  0  0  0  0  0  0  0  0  0
   -4.5048  -30.3454   28.2460 N   0  0  0  0  0  0  0  0  0  0  0  0
   -4.9290  -29.5992   29.3792 C   0  0  0  0  0  0  0  0  0  0  0  0
   -5.0432  -30.1768   30.4784 O   0  0  0  0  0  0  0  0  0  0  0  0
   -5.2434  -28.1223   29.2754 C   0  0  0  0  0  0  0  0  0  0  0  0
   -5.0383  -27.7274   27.8557 C   0  0  0  0  0  0  0  0  0  0  0  0
   -5.4643  -26.3367   27.4794 C   0  0  2  0  0  0  0  0  0  0  0  0
   -4.9314  -26.0077   26.1472 N   0  0  0  0  0  0  0  0  0  0  0  0
   -5.0244  -25.2664   28.3651 C   0  0  0  0  0  0  0  0  0  0  0  0
   -3.8173  -24.9488   28.4636 O   0  0  0  0  0  0  0  0  0  0  0  0
   -6.1238  -19.3489   34.9524 O   0  0  0  0  0  0  0  0  0  0  0  0
   -6.2694  -20.1761   33.8457 C   0  0  0  0  0  0  0  0  0  0  0  0
   -6.5999  -21.4862   34.0715 C   0  0  0  0  0  0  0  0  0  0  0  0
   -6.7513  -22.3332   32.9848 C   0  0  0  0  0  0  0  0  0  0  0  0
   -6.5824  -21.9086   31.6900 C   0  0  0  0  0  0  0  0  0  0  0  0
   -6.7520  -22.8511   30.5856 C   0  0  0  0  0  0  0  0  0  0  0  0
   -5.5230  -23.6273   30.2062 C   0  0  2  0  0  0  0  0  0  0  0  0
   -5.9591  -24.5456   29.1429 N   0  0  0  0  0  0  0  0  0  0  0  0
   -4.9919  -24.3620   31.3583 C   0  0  0  0  0  0  0  0  0  0  0  0
   -5.4885  -25.4561   31.6786 O   0  0  0  0  0  0  0  0  0  0  0  0
   -6.2513  -20.5929   31.4776 C   0  0  0  0  0  0  0  0  0  0  0  0
   -6.0937  -19.7211   32.5605 C   0  0  0  0  0  0  0  0  0  0  0  0
   -3.9423  -23.8567   32.0982 O   0  0  0  0  0  0  0  0  0  0  0  0
  2  1  1  1
  2  5  1  0
  3  2  1  0
  4  3  1  0
  5  6  2  0
  8  7  1  0
  8 10  1  0
  9  8  2  0
 11 10  1  0
 12 11  1  1
 12 14  1  0
 13  5  1  0
 13 12  1  0
 14 15  2  0
 16 17  1  0
 17 18  2  0
 18 19  1  0
 20 21  1  0
 20 19  2  0
 22 21  1  1
 22 24  1  0
 23 22  1  0
 23 14  1  0
 24 25  2  0
 24 28  1  0
 26 20  1  0
 27 26  2  0
 27 17  1  0
M  END
$$$$
