CQY.pdb
     RDKit          3D

 28 28  0  0  1  0  0  0  0  0999 V2000
    8.1561  -14.1744   17.2037 N   0  0  0  0  0  0  0  0  0  0  0  0
    8.4627  -13.8086   18.5720 C   0  0  1  0  0  0  0  0  0  0  0  0
    7.6065  -12.6269   19.0081 C   0  0  0  0  0  0  0  0  0  0  0  0
    7.8852  -12.2799   20.7599 S   0  0  0  0  0  0  0  0  0  0  0  0
    8.1899  -14.9576   19.4578 C   0  0  0  0  0  0  0  0  0  0  0  0
    7.2565  -15.7373   19.1630 O   0  0  0  0  0  0  0  0  0  0  0  0
   10.6568  -19.8808   20.1896 N   0  0  0  0  0  0  0  0  0  0  0  0
   11.4243  -18.7008   19.9907 C   0  0  0  0  0  0  0  0  0  0  0  0
   12.5871  -18.7997   19.5513 O   0  0  0  0  0  0  0  0  0  0  0  0
   10.8573  -17.3322   20.3015 C   0  0  0  0  0  0  0  0  0  0  0  0
    9.4645  -17.5323   20.7849 C   0  0  0  0  0  0  0  0  0  0  0  0
    8.8135  -16.3567   21.4565 C   0  0  2  0  0  0  0  0  0  0  0  0
    8.9693  -15.1635   20.6085 N   0  0  0  0  0  0  0  0  0  0  0  0
    9.3377  -15.9916   22.7662 C   0  0  0  0  0  0  0  0  0  0  0  0
   10.3456  -15.2591   22.8903 O   0  0  0  0  0  0  0  0  0  0  0  0
    6.3568  -10.7008   26.7917 O   0  0  0  0  0  0  0  0  0  0  0  0
    6.7421  -12.0286   26.6546 C   0  0  0  0  0  0  0  0  0  0  0  0
    8.0429  -12.2794   26.3061 C   0  0  0  0  0  0  0  0  0  0  0  0
    8.4536  -13.5954   26.1625 C   0  0  0  0  0  0  0  0  0  0  0  0
    7.6054  -14.6577   26.3564 C   0  0  0  0  0  0  0  0  0  0  0  0
    8.0970  -16.0237   26.1861 C   0  0  0  0  0  0  0  0  0  0  0  0
    9.2813  -16.1735   25.2740 C   0  0  2  0  0  0  0  0  0  0  0  0
    8.7132  -16.4553   23.9466 N   0  0  0  0  0  0  0  0  0  0  0  0
   10.1519  -17.2645   25.7220 C   0  0  0  0  0  0  0  0  0  0  0  0
   10.0504  -18.3910   25.2054 O   0  0  0  0  0  0  0  0  0  0  0  0
    6.3041  -14.3923   26.7055 C   0  0  0  0  0  0  0  0  0  0  0  0
    5.8689  -13.0711   26.8556 C   0  0  0  0  0  0  0  0  0  0  0  0
   11.0894  -17.0610   26.7141 O   0  0  0  0  0  0  0  0  0  0  0  0
  2  1  1  6
  2  5  1  0
  3  2  1  0
  4  3  1  0
  5  6  2  0
  8  7  1  0
  8 10  1  0
  9  8  2  0
 11 10  1  0
 12 11  1  6
 12 14  1  0
 13  5  1  0
 13 12  1  0
 14 15  2  0
 16 17  1  0
 17 18  2  0
 18 19  1  0
 20 21  1  0
 20 19  2  0
 22 21  1  1
 22 24  1  0
 23 22  1  0
 23 14  1  0
 24 25  2  0
 24 28  1  0
 26 20  1  0
 27 26  2  0
 27 17  1  0
M  END
$$$$
