CQY.pdb
     RDKit          3D

 28 28  0  0  1  0  0  0  0  0999 V2000
    6.8768  -14.8449   18.3344 N   0  0  0  0  0  0  0  0  0  0  0  0
    8.1902  -14.5767   18.8851 C   0  0  1  0  0  0  0  0  0  0  0  0
    8.2138  -13.2085   19.5539 C   0  0  0  0  0  0  0  0  0  0  0  0
    8.0324  -11.9123   18.3073 S   0  0  0  0  0  0  0  0  0  0  0  0
    8.5213  -15.6107   19.8852 C   0  0  0  0  0  0  0  0  0  0  0  0
    7.6116  -16.0445   20.6271 O   0  0  0  0  0  0  0  0  0  0  0  0
   12.9382  -19.6569   19.0228 N   0  0  0  0  0  0  0  0  0  0  0  0
   12.7637  -19.9109   20.4106 C   0  0  0  0  0  0  0  0  0  0  0  0
   13.4061  -20.8373   20.9437 O   0  0  0  0  0  0  0  0  0  0  0  0
   11.8161  -19.0802   21.2490 C   0  0  0  0  0  0  0  0  0  0  0  0
   11.2180  -18.0551   20.3518 C   0  0  0  0  0  0  0  0  0  0  0  0
   10.2125  -17.1271   20.9721 C   0  0  2  0  0  0  0  0  0  0  0  0
    9.8364  -16.0926   19.9947 N   0  0  0  0  0  0  0  0  0  0  0  0
   10.6452  -16.4143   22.1671 C   0  0  0  0  0  0  0  0  0  0  0  0
   11.5119  -15.5121   22.1170 O   0  0  0  0  0  0  0  0  0  0  0  0
   10.6802  -14.3169   30.8266 O   0  0  0  0  0  0  0  0  0  0  0  0
   10.3968  -14.8296   29.5668 C   0  0  0  0  0  0  0  0  0  0  0  0
   10.0346  -13.9431   28.5873 C   0  0  0  0  0  0  0  0  0  0  0  0
    9.7464  -14.4282   27.3213 C   0  0  0  0  0  0  0  0  0  0  0  0
    9.8102  -15.7644   27.0117 C   0  0  0  0  0  0  0  0  0  0  0  0
    9.4905  -16.2154   25.6585 C   0  0  0  0  0  0  0  0  0  0  0  0
   10.6122  -16.1160   24.6642 C   0  0  2  0  0  0  0  0  0  0  0  0
   10.0889  -16.7216   23.4298 N   0  0  0  0  0  0  0  0  0  0  0  0
   11.8006  -16.8282   25.1433 C   0  0  0  0  0  0  0  0  0  0  0  0
   12.7562  -16.1903   25.6188 O   0  0  0  0  0  0  0  0  0  0  0  0
   10.1746  -16.6424   28.0027 C   0  0  0  0  0  0  0  0  0  0  0  0
   10.4697  -16.1736   29.2875 C   0  0  0  0  0  0  0  0  0  0  0  0
   11.8769  -18.2044   25.0758 O   0  0  0  0  0  0  0  0  0  0  0  0
  2  1  1  1
  2  5  1  0
  3  2  1  0
  4  3  1  0
  5  6  2  0
  8  7  1  0
  8 10  1  0
  9  8  2  0
 11 10  1  0
 12 11  1  6
 12 14  1  0
 13  5  1  0
 13 12  1  0
 14 15  2  0
 16 17  1  0
 17 18  2  0
 18 19  1  0
 20 21  1  0
 20 19  2  0
 22 21  1  1
 22 24  1  0
 23 22  1  0
 23 14  1  0
 24 25  2  0
 24 28  1  0
 26 20  1  0
 27 26  2  0
 27 17  1  0
M  END
$$$$
