CQY.pdb
     RDKit          3D

 28 28  0  0  1  0  0  0  0  0999 V2000
   10.0991  -18.7082   18.2262 N   0  0  0  0  0  0  0  0  0  0  0  0
   11.3554  -18.4479   18.9002 C   0  0  1  0  0  0  0  0  0  0  0  0
   12.4429  -18.1229   17.8846 C   0  0  0  0  0  0  0  0  0  0  0  0
   11.9958  -16.6350   16.9609 S   0  0  0  0  0  0  0  0  0  0  0  0
   11.1902  -17.3024   19.8165 C   0  0  0  0  0  0  0  0  0  0  0  0
   12.1946  -16.8656   20.4220 O   0  0  0  0  0  0  0  0  0  0  0  0
    6.4256  -13.2185   19.7178 N   0  0  0  0  0  0  0  0  0  0  0  0
    7.4207  -13.3951   18.7180 C   0  0  0  0  0  0  0  0  0  0  0  0
    7.2595  -12.8653   17.6007 O   0  0  0  0  0  0  0  0  0  0  0  0
    8.6670  -14.2115   18.9846 C   0  0  0  0  0  0  0  0  0  0  0  0
    8.5510  -14.7537   20.3652 C   0  0  0  0  0  0  0  0  0  0  0  0
    9.7187  -15.5522   20.8712 C   0  0  2  0  0  0  0  0  0  0  0  0
    9.9248  -16.7200   19.9990 N   0  0  0  0  0  0  0  0  0  0  0  0
    9.6020  -16.0763   22.2258 C   0  0  0  0  0  0  0  0  0  0  0  0
    9.2045  -17.2427   22.4476 O   0  0  0  0  0  0  0  0  0  0  0  0
   10.5297  -15.7160   31.1168 O   0  0  0  0  0  0  0  0  0  0  0  0
   10.4821  -15.4875   29.7473 C   0  0  0  0  0  0  0  0  0  0  0  0
    9.7601  -14.4093   29.3082 C   0  0  0  0  0  0  0  0  0  0  0  0
    9.6962  -14.1585   27.9465 C   0  0  0  0  0  0  0  0  0  0  0  0
   10.3294  -14.9504   27.0205 C   0  0  0  0  0  0  0  0  0  0  0  0
   10.2213  -14.6366   25.5970 C   0  0  0  0  0  0  0  0  0  0  0  0
    9.8053  -15.7792   24.7149 C   0  0  2  0  0  0  0  0  0  0  0  0
    9.9427  -15.2753   23.3397 N   0  0  0  0  0  0  0  0  0  0  0  0
    8.4245  -16.1825   24.9977 C   0  0  0  0  0  0  0  0  0  0  0  0
    7.4796  -15.5796   24.4592 O   0  0  0  0  0  0  0  0  0  0  0  0
   11.0499  -16.0279   27.4741 C   0  0  0  0  0  0  0  0  0  0  0  0
   11.1273  -16.2989   28.8445 C   0  0  0  0  0  0  0  0  0  0  0  0
    8.1536  -17.2278   25.8570 O   0  0  0  0  0  0  0  0  0  0  0  0
  2  1  1  6
  2  5  1  0
  3  2  1  0
  4  3  1  0
  5  6  2  0
  8  7  1  0
  8 10  1  0
  9  8  2  0
 11 10  1  0
 12 11  1  6
 12 14  1  0
 13  5  1  0
 13 12  1  0
 14 15  2  0
 16 17  1  0
 17 18  2  0
 18 19  1  0
 20 21  1  0
 20 19  2  0
 22 21  1  1
 22 24  1  0
 23 22  1  0
 23 14  1  0
 24 25  2  0
 24 28  1  0
 26 20  1  0
 27 26  2  0
 27 17  1  0
M  END
$$$$
