CQY.pdb
     RDKit          3D

 28 28  0  0  1  0  0  0  0  0999 V2000
    7.3144  -15.0621   17.6317 N   0  0  0  0  0  0  0  0  0  0  0  0
    8.2622  -14.5869   18.6196 C   0  0  1  0  0  0  0  0  0  0  0  0
    7.7658  -13.2916   19.2485 C   0  0  0  0  0  0  0  0  0  0  0  0
    7.8805  -11.9436   18.0498 S   0  0  0  0  0  0  0  0  0  0  0  0
    8.4219  -15.6074   19.6742 C   0  0  0  0  0  0  0  0  0  0  0  0
    7.4075  -16.2172   20.0810 O   0  0  0  0  0  0  0  0  0  0  0  0
   12.1535  -19.9262   19.2171 N   0  0  0  0  0  0  0  0  0  0  0  0
   12.0510  -20.0744   20.6272 C   0  0  0  0  0  0  0  0  0  0  0  0
   12.6712  -21.0001   21.1871 O   0  0  0  0  0  0  0  0  0  0  0  0
   11.2058  -19.1325   21.4576 C   0  0  0  0  0  0  0  0  0  0  0  0
   10.7716  -18.0260   20.5627 C   0  0  0  0  0  0  0  0  0  0  0  0
    9.9171  -16.9583   21.1844 C   0  0  2  0  0  0  0  0  0  0  0  0
    9.6932  -15.8820   20.2054 N   0  0  0  0  0  0  0  0  0  0  0  0
   10.4559  -16.3142   22.3753 C   0  0  0  0  0  0  0  0  0  0  0  0
   11.5346  -15.6792   22.3484 O   0  0  0  0  0  0  0  0  0  0  0  0
   10.8810  -14.8885   31.1805 O   0  0  0  0  0  0  0  0  0  0  0  0
   10.4858  -15.1159   29.8681 C   0  0  0  0  0  0  0  0  0  0  0  0
   10.3912  -16.4169   29.4499 C   0  0  0  0  0  0  0  0  0  0  0  0
    9.9990  -16.6718   28.1451 C   0  0  0  0  0  0  0  0  0  0  0  0
    9.7018  -15.6690   27.2554 C   0  0  0  0  0  0  0  0  0  0  0  0
    9.2975  -16.0013   25.8906 C   0  0  0  0  0  0  0  0  0  0  0  0
   10.3882  -15.9306   24.8600 C   0  0  2  0  0  0  0  0  0  0  0  0
    9.7657  -16.3851   23.6070 N   0  0  0  0  0  0  0  0  0  0  0  0
   11.5175  -16.7874   25.2338 C   0  0  0  0  0  0  0  0  0  0  0  0
   12.5837  -16.2757   25.6179 O   0  0  0  0  0  0  0  0  0  0  0  0
    9.8007  -14.3692   27.6875 C   0  0  0  0  0  0  0  0  0  0  0  0
   10.1947  -14.0900   29.0006 C   0  0  0  0  0  0  0  0  0  0  0  0
   11.4163  -18.1621   25.1668 O   0  0  0  0  0  0  0  0  0  0  0  0
  2  1  1  6
  2  5  1  0
  3  2  1  0
  4  3  1  0
  5  6  2  0
  8  7  1  0
  8 10  1  0
  9  8  2  0
 11 10  1  0
 12 11  1  6
 12 14  1  0
 13  5  1  0
 13 12  1  0
 14 15  2  0
 16 17  1  0
 17 18  2  0
 18 19  1  0
 20 21  1  0
 20 19  2  0
 22 21  1  1
 22 24  1  0
 23 22  1  0
 23 14  1  0
 24 25  2  0
 24 28  1  0
 26 20  1  0
 27 26  2  0
 27 17  1  0
M  END
$$$$
