CQY.pdb
     RDKit          3D

 28 28  0  0  1  0  0  0  0  0999 V2000
    6.4006  -14.7086   20.4126 N   0  0  0  0  0  0  0  0  0  0  0  0
    7.7919  -14.5540   20.7876 C   0  0  1  0  0  0  0  0  0  0  0  0
    8.0292  -13.1714   21.3811 C   0  0  0  0  0  0  0  0  0  0  0  0
    6.9043  -12.8977   22.7692 S   0  0  0  0  0  0  0  0  0  0  0  0
    8.1446  -15.5786   21.7901 C   0  0  0  0  0  0  0  0  0  0  0  0
    7.2237  -16.2033   22.3628 O   0  0  0  0  0  0  0  0  0  0  0  0
   12.6186  -20.4225   21.3395 N   0  0  0  0  0  0  0  0  0  0  0  0
   12.7835  -19.3703   22.2810 C   0  0  0  0  0  0  0  0  0  0  0  0
   13.9177  -18.8809   22.4521 O   0  0  0  0  0  0  0  0  0  0  0  0
   11.6118  -18.8357   23.0762 C   0  0  0  0  0  0  0  0  0  0  0  0
   11.0757  -17.6623   22.3351 C   0  0  0  0  0  0  0  0  0  0  0  0
    9.8992  -16.9611   22.9525 C   0  0  2  0  0  0  0  0  0  0  0  0
    9.4921  -15.8404   22.0891 N   0  0  0  0  0  0  0  0  0  0  0  0
   10.1107  -16.3930   24.2776 C   0  0  0  0  0  0  0  0  0  0  0  0
   10.7782  -15.3472   24.4458 O   0  0  0  0  0  0  0  0  0  0  0  0
    6.2380  -11.2446   25.6541 O   0  0  0  0  0  0  0  0  0  0  0  0
    6.7328  -12.4829   26.0439 C   0  0  0  0  0  0  0  0  0  0  0  0
    7.9372  -12.5085   26.6962 C   0  0  0  0  0  0  0  0  0  0  0  0
    8.4537  -13.7310   27.0962 C   0  0  0  0  0  0  0  0  0  0  0  0
    7.8037  -14.9178   26.8631 C   0  0  0  0  0  0  0  0  0  0  0  0
    8.4018  -16.1759   27.3060 C   0  0  0  0  0  0  0  0  0  0  0  0
    9.7757  -16.4605   26.7693 C   0  0  2  0  0  0  0  0  0  0  0  0
    9.5579  -17.0109   25.4225 N   0  0  0  0  0  0  0  0  0  0  0  0
   10.4843  -17.4161   27.6259 C   0  0  0  0  0  0  0  0  0  0  0  0
   10.7140  -18.5666   27.2137 O   0  0  0  0  0  0  0  0  0  0  0  0
    6.5972  -14.8779   26.2084 C   0  0  0  0  0  0  0  0  0  0  0  0
    6.0579  -13.6545   25.7961 C   0  0  0  0  0  0  0  0  0  0  0  0
   10.9045  -17.0577   28.8906 O   0  0  0  0  0  0  0  0  0  0  0  0
  2  1  1  1
  2  5  1  0
  3  2  1  0
  4  3  1  0
  5  6  2  0
  8  7  1  0
  8 10  1  0
  9  8  2  0
 11 10  1  0
 12 11  1  6
 12 14  1  0
 13  5  1  0
 13 12  1  0
 14 15  2  0
 16 17  1  0
 17 18  2  0
 18 19  1  0
 20 21  1  0
 20 19  2  0
 22 21  1  1
 22 24  1  0
 23 22  1  0
 23 14  1  0
 24 25  2  0
 24 28  1  0
 26 20  1  0
 27 26  2  0
 27 17  1  0
M  END
$$$$
