CQY.pdb
     RDKit          3D

 28 28  0  0  1  0  0  0  0  0999 V2000
    4.6719  -19.3830   20.9915 N   0  0  0  0  0  0  0  0  0  0  0  0
    4.7255  -18.0313   21.5112 C   0  0  1  0  0  0  0  0  0  0  0  0
    4.1468  -17.9827   22.9193 C   0  0  0  0  0  0  0  0  0  0  0  0
    4.7842  -19.3655   23.8933 S   0  0  0  0  0  0  0  0  0  0  0  0
    6.1297  -17.5774   21.5486 C   0  0  0  0  0  0  0  0  0  0  0  0
    7.0407  -18.4353   21.5325 O   0  0  0  0  0  0  0  0  0  0  0  0
    7.7596  -12.5807   18.7158 N   0  0  0  0  0  0  0  0  0  0  0  0
    9.0503  -12.9922   19.1467 C   0  0  0  0  0  0  0  0  0  0  0  0
   10.0580  -12.4847   18.6157 O   0  0  0  0  0  0  0  0  0  0  0  0
    9.2222  -14.0311   20.2339 C   0  0  0  0  0  0  0  0  0  0  0  0
    7.8678  -14.5506   20.5643 C   0  0  0  0  0  0  0  0  0  0  0  0
    7.8089  -15.7010   21.5287 C   0  0  2  0  0  0  0  0  0  0  0  0
    6.4279  -16.2056   21.6013 N   0  0  0  0  0  0  0  0  0  0  0  0
    8.2052  -15.4122   22.9009 C   0  0  0  0  0  0  0  0  0  0  0  0
    7.8558  -14.3575   23.4781 O   0  0  0  0  0  0  0  0  0  0  0  0
    6.3309  -10.7542   26.8134 O   0  0  0  0  0  0  0  0  0  0  0  0
    6.7369  -12.0607   26.5716 C   0  0  0  0  0  0  0  0  0  0  0  0
    8.0687  -12.2783   26.3360 C   0  0  0  0  0  0  0  0  0  0  0  0
    8.5006  -13.5726   26.0919 C   0  0  0  0  0  0  0  0  0  0  0  0
    7.6436  -14.6453   26.0773 C   0  0  0  0  0  0  0  0  0  0  0  0
    8.1591  -15.9867   25.8097 C   0  0  0  0  0  0  0  0  0  0  0  0
    9.4276  -16.0414   25.0069 C   0  0  2  0  0  0  0  0  0  0  0  0
    9.0002  -16.3270   23.6285 N   0  0  0  0  0  0  0  0  0  0  0  0
   10.3224  -17.0864   25.5132 C   0  0  0  0  0  0  0  0  0  0  0  0
   10.7948  -16.9963   26.6599 O   0  0  0  0  0  0  0  0  0  0  0  0
    6.3111  -14.4133   26.3151 C   0  0  0  0  0  0  0  0  0  0  0  0
    5.8542  -13.1145   26.5637 C   0  0  0  0  0  0  0  0  0  0  0  0
   10.6512  -18.1765   24.7335 O   0  0  0  0  0  0  0  0  0  0  0  0
  2  1  1  1
  2  5  1  0
  3  2  1  0
  4  3  1  0
  5  6  2  0
  8  7  1  0
  8 10  1  0
  9  8  2  0
 11 10  1  0
 12 11  1  6
 12 14  1  0
 13  5  1  0
 13 12  1  0
 14 15  2  0
 16 17  1  0
 17 18  2  0
 18 19  1  0
 20 21  1  0
 20 19  2  0
 22 21  1  1
 22 24  1  0
 23 22  1  0
 23 14  1  0
 24 25  2  0
 24 28  1  0
 26 20  1  0
 27 26  2  0
 27 17  1  0
M  END
$$$$
