CQY.pdb
     RDKit          3D

 28 28  0  0  1  0  0  0  0  0999 V2000
    7.5133  -14.7611   18.3804 N   0  0  0  0  0  0  0  0  0  0  0  0
    8.3326  -14.3836   19.5146 C   0  0  1  0  0  0  0  0  0  0  0  0
    7.6914  -13.2256   20.2681 C   0  0  0  0  0  0  0  0  0  0  0  0
    7.7004  -11.7415   19.2363 S   0  0  0  0  0  0  0  0  0  0  0  0
    8.4688  -15.5377   20.4248 C   0  0  0  0  0  0  0  0  0  0  0  0
    7.4665  -16.2547   20.6427 O   0  0  0  0  0  0  0  0  0  0  0  0
   10.1240  -20.4056   21.8244 N   0  0  0  0  0  0  0  0  0  0  0  0
    9.9967  -19.7785   20.5550 C   0  0  0  0  0  0  0  0  0  0  0  0
    9.1738  -20.2305   19.7343 O   0  0  0  0  0  0  0  0  0  0  0  0
   10.8389  -18.5769   20.1835 C   0  0  0  0  0  0  0  0  0  0  0  0
   11.0589  -17.7920   21.4282 C   0  0  0  0  0  0  0  0  0  0  0  0
    9.8970  -16.9760   21.9191 C   0  0  2  0  0  0  0  0  0  0  0  0
    9.7050  -15.8180   21.0307 N   0  0  0  0  0  0  0  0  0  0  0  0
   10.0138  -16.4348   23.2671 C   0  0  0  0  0  0  0  0  0  0  0  0
   10.8788  -15.5781   23.5590 O   0  0  0  0  0  0  0  0  0  0  0  0
    6.7557  -10.6476   26.2786 O   0  0  0  0  0  0  0  0  0  0  0  0
    7.0637  -12.0011   26.2216 C   0  0  0  0  0  0  0  0  0  0  0  0
    7.2734  -12.6550   27.4069 C   0  0  0  0  0  0  0  0  0  0  0  0
    7.5823  -14.0059   27.3784 C   0  0  0  0  0  0  0  0  0  0  0  0
    7.6863  -14.7138   26.2065 C   0  0  0  0  0  0  0  0  0  0  0  0
    8.0191  -16.1367   26.2412 C   0  0  0  0  0  0  0  0  0  0  0  0
    9.3731  -16.4954   25.6983 C   0  0  2  0  0  0  0  0  0  0  0  0
    9.1408  -16.8632   24.2931 N   0  0  0  0  0  0  0  0  0  0  0  0
    9.9595  -17.6095   26.4494 C   0  0  0  0  0  0  0  0  0  0  0  0
    9.8881  -18.7665   25.9994 O   0  0  0  0  0  0  0  0  0  0  0  0
    7.4737  -14.0463   25.0253 C   0  0  0  0  0  0  0  0  0  0  0  0
    7.1606  -12.6827   25.0317 C   0  0  0  0  0  0  0  0  0  0  0  0
   10.5946  -17.3943   27.6556 O   0  0  0  0  0  0  0  0  0  0  0  0
  2  1  1  6
  2  5  1  0
  3  2  1  0
  4  3  1  0
  5  6  2  0
  8  7  1  0
  8 10  1  0
  9  8  2  0
 11 10  1  0
 12 11  1  6
 12 14  1  0
 13  5  1  0
 13 12  1  0
 14 15  2  0
 16 17  1  0
 17 18  2  0
 18 19  1  0
 20 21  1  0
 20 19  2  0
 22 21  1  1
 22 24  1  0
 23 22  1  0
 23 14  1  0
 24 25  2  0
 24 28  1  0
 26 20  1  0
 27 26  2  0
 27 17  1  0
M  END
$$$$
