CQY.pdb
     RDKit          3D

 28 28  0  0  1  0  0  0  0  0999 V2000
    7.6348  -15.6813   17.4498 N   0  0  0  0  0  0  0  0  0  0  0  0
    8.7301  -15.1394   18.2288 C   0  0  1  0  0  0  0  0  0  0  0  0
    8.4335  -13.6998   18.6281 C   0  0  0  0  0  0  0  0  0  0  0  0
    8.3997  -12.6492   17.1577 S   0  0  0  0  0  0  0  0  0  0  0  0
    8.9124  -15.9525   19.4473 C   0  0  0  0  0  0  0  0  0  0  0  0
    7.9000  -16.4118   20.0221 O   0  0  0  0  0  0  0  0  0  0  0  0
   13.8539  -19.7277   20.7184 N   0  0  0  0  0  0  0  0  0  0  0  0
   13.5585  -19.0493   21.9323 C   0  0  0  0  0  0  0  0  0  0  0  0
   14.4650  -18.8870   22.7732 O   0  0  0  0  0  0  0  0  0  0  0  0
   12.1691  -18.5227   22.2209 C   0  0  0  0  0  0  0  0  0  0  0  0
   11.7721  -17.6727   21.0662 C   0  0  0  0  0  0  0  0  0  0  0  0
   10.4329  -16.9983   21.1605 C   0  0  2  0  0  0  0  0  0  0  0  0
   10.2025  -16.2007   19.9449 N   0  0  0  0  0  0  0  0  0  0  0  0
   10.2487  -16.0863   22.2820 C   0  0  0  0  0  0  0  0  0  0  0  0
   10.9438  -15.0529   22.4102 O   0  0  0  0  0  0  0  0  0  0  0  0
    5.8431  -11.1178   27.9404 O   0  0  0  0  0  0  0  0  0  0  0  0
    6.2827  -12.0457   27.0044 C   0  0  0  0  0  0  0  0  0  0  0  0
    7.1234  -11.6027   26.0177 C   0  0  0  0  0  0  0  0  0  0  0  0
    7.5769  -12.5078   25.0710 C   0  0  0  0  0  0  0  0  0  0  0  0
    7.2151  -13.8324   25.0847 C   0  0  0  0  0  0  0  0  0  0  0  0
    7.7235  -14.7377   24.0559 C   0  0  0  0  0  0  0  0  0  0  0  0
    9.0305  -15.4064   24.3746 C   0  0  2  0  0  0  0  0  0  0  0  0
    9.2657  -16.3431   23.2649 N   0  0  0  0  0  0  0  0  0  0  0  0
    8.9585  -16.1106   25.6583 C   0  0  0  0  0  0  0  0  0  0  0  0
    9.2062  -15.5022   26.7142 O   0  0  0  0  0  0  0  0  0  0  0  0
    6.3719  -14.2634   26.0793 C   0  0  0  0  0  0  0  0  0  0  0  0
    5.9026  -13.3661   27.0448 C   0  0  0  0  0  0  0  0  0  0  0  0
    8.6173  -17.4465   25.7154 O   0  0  0  0  0  0  0  0  0  0  0  0
  2  1  1  1
  2  5  1  0
  3  2  1  0
  4  3  1  0
  5  6  2  0
  8  7  1  0
  8 10  1  0
  9  8  2  0
 11 10  1  0
 12 11  1  6
 12 14  1  0
 13  5  1  0
 13 12  1  0
 14 15  2  0
 16 17  1  0
 17 18  2  0
 18 19  1  0
 20 21  1  0
 20 19  2  0
 22 21  1  6
 22 24  1  0
 23 22  1  0
 23 14  1  0
 24 25  2  0
 24 28  1  0
 26 20  1  0
 27 26  2  0
 27 17  1  0
M  END
$$$$
