CQY.pdb
     RDKit          3D

 28 28  0  0  1  0  0  0  0  0999 V2000
    7.4666  -14.6021   18.4764 N   0  0  0  0  0  0  0  0  0  0  0  0
    8.4265  -14.3115   19.5225 C   0  0  1  0  0  0  0  0  0  0  0  0
    8.1167  -12.9661   20.1657 C   0  0  0  0  0  0  0  0  0  0  0  0
    8.3832  -11.6376   18.9693 S   0  0  0  0  0  0  0  0  0  0  0  0
    8.3616  -15.3672   20.5523 C   0  0  0  0  0  0  0  0  0  0  0  0
    7.2964  -16.0093   20.6905 O   0  0  0  0  0  0  0  0  0  0  0  0
   12.2541  -19.4986   20.5417 N   0  0  0  0  0  0  0  0  0  0  0  0
   11.6691  -19.9239   21.7655 C   0  0  0  0  0  0  0  0  0  0  0  0
   11.9527  -21.0524   22.2141 O   0  0  0  0  0  0  0  0  0  0  0  0
   10.7122  -19.0350   22.5305 C   0  0  0  0  0  0  0  0  0  0  0  0
   10.4609  -17.8332   21.6904 C   0  0  0  0  0  0  0  0  0  0  0  0
    9.5317  -16.7998   22.2611 C   0  0  2  0  0  0  0  0  0  0  0  0
    9.4804  -15.6388   21.3575 N   0  0  0  0  0  0  0  0  0  0  0  0
    9.8818  -16.2737   23.5741 C   0  0  0  0  0  0  0  0  0  0  0  0
   10.9050  -15.5740   23.7506 O   0  0  0  0  0  0  0  0  0  0  0  0
    6.1861  -10.7527   25.8602 O   0  0  0  0  0  0  0  0  0  0  0  0
    6.6677  -12.0392   26.0680 C   0  0  0  0  0  0  0  0  0  0  0  0
    7.6933  -12.1964   26.9624 C   0  0  0  0  0  0  0  0  0  0  0  0
    8.1925  -13.4696   27.1884 C   0  0  0  0  0  0  0  0  0  0  0  0
    7.6978  -14.5797   26.5493 C   0  0  0  0  0  0  0  0  0  0  0  0
    8.2692  -15.8961   26.8270 C   0  0  0  0  0  0  0  0  0  0  0  0
    9.5181  -16.2310   26.0623 C   0  0  2  0  0  0  0  0  0  0  0  0
    9.0644  -16.5374   24.6968 N   0  0  0  0  0  0  0  0  0  0  0  0
   10.2078  -17.3768   26.6628 C   0  0  0  0  0  0  0  0  0  0  0  0
   10.1940  -18.4796   26.0886 O   0  0  0  0  0  0  0  0  0  0  0  0
    6.6696  -14.4081   25.6552 C   0  0  0  0  0  0  0  0  0  0  0  0
    6.1510  -13.1315   25.4125 C   0  0  0  0  0  0  0  0  0  0  0  0
   10.8775  -17.2511   27.8629 O   0  0  0  0  0  0  0  0  0  0  0  0
  2  1  1  6
  2  5  1  0
  3  2  1  0
  4  3  1  0
  5  6  2  0
  8  7  1  0
  8 10  1  0
  9  8  2  0
 11 10  1  0
 12 11  1  6
 12 14  1  0
 13  5  1  0
 13 12  1  0
 14 15  2  0
 16 17  1  0
 17 18  2  0
 18 19  1  0
 20 21  1  0
 20 19  2  0
 22 21  1  1
 22 24  1  0
 23 22  1  0
 23 14  1  0
 24 25  2  0
 24 28  1  0
 26 20  1  0
 27 26  2  0
 27 17  1  0
M  END
$$$$
