CQY.pdb
     RDKit          3D

 28 28  0  0  1  0  0  0  0  0999 V2000
    6.8472  -19.0858   20.0294 N   0  0  0  0  0  0  0  0  0  0  0  0
    6.4444  -17.9412   20.8218 C   0  0  1  0  0  0  0  0  0  0  0  0
    6.0339  -18.3841   22.2201 C   0  0  0  0  0  0  0  0  0  0  0  0
    7.2454  -19.5557   22.8735 S   0  0  0  0  0  0  0  0  0  0  0  0
    7.5738  -16.9963   20.9248 C   0  0  0  0  0  0  0  0  0  0  0  0
    8.7196  -17.3905   20.6119 O   0  0  0  0  0  0  0  0  0  0  0  0
    7.5650  -14.2364   17.6831 N   0  0  0  0  0  0  0  0  0  0  0  0
    7.9139  -13.3468   18.7356 C   0  0  0  0  0  0  0  0  0  0  0  0
    8.9986  -12.7342   18.6782 O   0  0  0  0  0  0  0  0  0  0  0  0
    6.9960  -13.1310   19.9196 C   0  0  0  0  0  0  0  0  0  0  0  0
    7.8148  -13.3079   21.1491 C   0  0  0  0  0  0  0  0  0  0  0  0
    8.4226  -14.6656   21.3591 C   0  0  2  0  0  0  0  0  0  0  0  0
    7.3565  -15.6806   21.3671 N   0  0  0  0  0  0  0  0  0  0  0  0
    9.1673  -14.8535   22.5975 C   0  0  0  0  0  0  0  0  0  0  0  0
   10.2907  -14.3299   22.7751 O   0  0  0  0  0  0  0  0  0  0  0  0
    6.3979  -10.5271   27.1591 O   0  0  0  0  0  0  0  0  0  0  0  0
    6.8105  -11.8179   26.8529 C   0  0  0  0  0  0  0  0  0  0  0  0
    8.1189  -12.1412   27.0983 C   0  0  0  0  0  0  0  0  0  0  0  0
    8.5567  -13.4225   26.8019 C   0  0  0  0  0  0  0  0  0  0  0  0
    7.7283  -14.3803   26.2713 C   0  0  0  0  0  0  0  0  0  0  0  0
    8.2502  -15.7135   25.9763 C   0  0  0  0  0  0  0  0  0  0  0  0
    9.3319  -15.7663   24.9352 C   0  0  2  0  0  0  0  0  0  0  0  0
    8.6342  -15.6368   23.6465 N   0  0  0  0  0  0  0  0  0  0  0  0
   10.0726  -17.0288   25.0141 C   0  0  0  0  0  0  0  0  0  0  0  0
    9.9938  -17.8532   24.0864 O   0  0  0  0  0  0  0  0  0  0  0  0
    6.4190  -14.0432   26.0302 C   0  0  0  0  0  0  0  0  0  0  0  0
    5.9566  -12.7554   26.3222 C   0  0  0  0  0  0  0  0  0  0  0  0
   10.8622  -17.3198   26.1078 O   0  0  0  0  0  0  0  0  0  0  0  0
  2  1  1  6
  2  5  1  0
  3  2  1  0
  4  3  1  0
  5  6  2  0
  8  7  1  0
  8 10  1  0
  9  8  2  0
 11 10  1  0
 12 11  1  1
 12 14  1  0
 13  5  1  0
 13 12  1  0
 14 15  2  0
 16 17  1  0
 17 18  2  0
 18 19  1  0
 20 21  1  0
 20 19  2  0
 22 21  1  1
 22 24  1  0
 23 22  1  0
 23 14  1  0
 24 25  2  0
 24 28  1  0
 26 20  1  0
 27 26  2  0
 27 17  1  0
M  END
$$$$
