KPE.pdb
     RDKit          3D

 26 26  0  0  1  0  0  0  0  0999 V2000
   27.2140  -20.6222  -21.1481 N   0  0  0  0  0  0  0  0  0  0  0  0
   28.2570  -20.4336  -20.1991 C   0  0  1  0  0  0  0  0  0  0  0  0
   27.7298  -19.9129  -18.8593 C   0  0  0  0  0  0  0  0  0  0  0  0
   26.7040  -20.8569  -18.2826 C   0  0  0  0  0  0  0  0  0  0  0  0
   26.1017  -20.3613  -16.9999 C   0  0  0  0  0  0  0  0  0  0  0  0
   25.0671  -21.3127  -16.4422 C   0  0  0  0  0  0  0  0  0  0  0  0
   24.4870  -20.6598  -15.2746 N   0  0  0  0  0  0  0  0  0  0  0  0
   29.1039  -21.6140  -19.9313 C   0  0  0  0  0  0  0  0  0  0  0  0
   28.4684  -22.7367  -20.0412 O   0  0  0  0  0  0  0  0  0  0  0  0
   30.4701  -21.6152  -19.5847 N   0  0  0  0  0  0  0  0  0  0  0  0
   31.3753  -20.5113  -19.4801 C   0  0  0  0  0  0  0  0  0  0  0  0
   32.6936  -21.1408  -19.9686 C   0  0  0  0  0  0  0  0  0  0  0  0
   32.6640  -22.4756  -19.2810 C   0  0  0  0  0  0  0  0  0  0  0  0
   31.2144  -22.8378  -19.2655 C   0  0  1  0  0  0  0  0  0  0  0  0
   30.7787  -23.4315  -17.9923 C   0  0  0  0  0  0  0  0  0  0  0  0
   30.2465  -22.7407  -17.0919 O   0  0  0  0  0  0  0  0  0  0  0  0
   30.9568  -24.8148  -17.7617 N   0  0  0  0  0  0  0  0  0  0  0  0
   30.5076  -25.4298  -16.4960 C   0  0  1  0  0  0  0  0  0  0  0  0
   29.5945  -26.5588  -16.8691 C   0  0  0  0  0  0  0  0  0  0  0  0
   29.0894  -27.3728  -15.7333 C   0  0  0  0  0  0  0  0  0  0  0  0
   28.1940  -28.4635  -16.1707 C   0  0  0  0  0  0  0  0  0  0  0  0
   28.0521  -29.5458  -15.5587 O   0  0  0  0  0  0  0  0  0  0  0  0
   31.7029  -25.9716  -15.8121 C   0  0  0  0  0  0  0  0  0  0  0  0
   31.6803  -26.2097  -14.4524 O   0  0  0  0  0  0  0  0  0  0  0  0
   27.4387  -28.3157  -17.3395 O   0  0  0  0  0  0  0  0  0  0  0  0
   32.7613  -26.2292  -16.4335 O   0  0  0  0  0  0  0  0  0  0  0  0
  2  1  1  6
  2  8  1  0
  2  3  1  0
  4  3  1  0
  4  5  1  0
  5  6  1  0
  6  7  1  0
  8 10  1  0
  9  8  2  0
 10 14  1  0
 10 11  1  0
 12 11  1  0
 12 13  1  0
 14 15  1  1
 14 13  1  0
 15 16  2  0
 15 17  1  0
 17 18  1  0
 18 23  1  0
 18 19  1  6
 20 19  1  0
 20 21  1  0
 21 22  2  0
 21 25  1  0
 23 26  2  0
 23 24  1  0
M  END
$$$$
