KPE.pdb
     RDKit          3D

 26 26  0  0  1  0  0  0  0  0999 V2000
   21.9268  -14.0346  -16.4569 N   0  0  0  0  0  0  0  0  0  0  0  0
   22.7323  -12.9942  -16.9980 C   0  0  1  0  0  0  0  0  0  0  0  0
   22.1569  -12.4402  -18.3043 C   0  0  0  0  0  0  0  0  0  0  0  0
   21.9015  -13.5514  -19.2922 C   0  0  0  0  0  0  0  0  0  0  0  0
   21.2919  -13.0698  -20.5768 C   0  0  0  0  0  0  0  0  0  0  0  0
   21.0444  -14.1952  -21.5561 C   0  0  0  0  0  0  0  0  0  0  0  0
   19.6079  -14.2224  -21.8051 N   0  0  0  0  0  0  0  0  0  0  0  0
   23.0027  -11.8554  -16.0966 C   0  0  0  0  0  0  0  0  0  0  0  0
   22.0104  -11.5739  -15.3140 O   0  0  0  0  0  0  0  0  0  0  0  0
   24.1868  -11.0943  -16.0253 N   0  0  0  0  0  0  0  0  0  0  0  0
   25.4378  -11.3079  -16.6873 C   0  0  0  0  0  0  0  0  0  0  0  0
   26.4410  -10.8233  -15.6235 C   0  0  0  0  0  0  0  0  0  0  0  0
   25.7750   -9.5717  -15.1282 C   0  0  0  0  0  0  0  0  0  0  0  0
   24.3170   -9.8913  -15.1968 C   0  0  1  0  0  0  0  0  0  0  0  0
   23.5031   -8.7785  -15.7094 C   0  0  0  0  0  0  0  0  0  0  0  0
   23.0506   -8.7779  -16.8783 O   0  0  0  0  0  0  0  0  0  0  0  0
   23.2139   -7.6740  -14.8759 N   0  0  0  0  0  0  0  0  0  0  0  0
   22.2813   -6.6191  -15.3226 C   0  0  1  0  0  0  0  0  0  0  0  0
   20.9227   -7.2495  -15.3903 C   0  0  0  0  0  0  0  0  0  0  0  0
   19.7983   -6.3151  -15.6558 C   0  0  0  0  0  0  0  0  0  0  0  0
   18.5003   -7.0097  -15.7792 C   0  0  0  0  0  0  0  0  0  0  0  0
   18.3576   -8.2514  -15.7155 O   0  0  0  0  0  0  0  0  0  0  0  0
   22.2783   -5.5577  -14.2914 C   0  0  0  0  0  0  0  0  0  0  0  0
   21.9126   -4.2675  -14.6198 O   0  0  0  0  0  0  0  0  0  0  0  0
   17.3314   -6.2671  -15.9810 O   0  0  0  0  0  0  0  0  0  0  0  0
   22.6026   -5.7890  -13.1023 O   0  0  0  0  0  0  0  0  0  0  0  0
  2  1  1  1
  2  8  1  0
  2  3  1  0
  4  3  1  0
  4  5  1  0
  5  6  1  0
  6  7  1  0
  8 10  1  0
  9  8  2  0
 10 14  1  0
 10 11  1  0
 12 11  1  0
 12 13  1  0
 14 15  1  6
 14 13  1  0
 15 16  2  0
 15 17  1  0
 17 18  1  0
 18 23  1  0
 18 19  1  1
 20 19  1  0
 20 21  1  0
 21 22  2  0
 21 25  1  0
 23 26  2  0
 23 24  1  0
M  END
$$$$
