KPE.pdb
     RDKit          3D

 26 26  0  0  1  0  0  0  0  0999 V2000
   24.7095  -15.4724  -16.5597 N   0  0  0  0  0  0  0  0  0  0  0  0
   25.2509  -14.2722  -17.0986 C   0  0  1  0  0  0  0  0  0  0  0  0
   24.8706  -14.0779  -18.5690 C   0  0  0  0  0  0  0  0  0  0  0  0
   25.1077  -15.3427  -19.3564 C   0  0  0  0  0  0  0  0  0  0  0  0
   24.7534  -15.2083  -20.8090 C   0  0  0  0  0  0  0  0  0  0  0  0
   24.8744  -16.5171  -21.5566 C   0  0  0  0  0  0  0  0  0  0  0  0
   24.5067  -16.2422  -22.9405 N   0  0  0  0  0  0  0  0  0  0  0  0
   24.9154  -13.0315  -16.3703 C   0  0  0  0  0  0  0  0  0  0  0  0
   23.7631  -13.0780  -15.7817 O   0  0  0  0  0  0  0  0  0  0  0  0
   25.7042  -11.8676  -16.2716 N   0  0  0  0  0  0  0  0  0  0  0  0
   26.9880  -11.5967  -16.8437 C   0  0  0  0  0  0  0  0  0  0  0  0
   27.6403  -10.7288  -15.7510 C   0  0  0  0  0  0  0  0  0  0  0  0
   26.5063   -9.8213  -15.3691 C   0  0  0  0  0  0  0  0  0  0  0  0
   25.2949  -10.6851  -15.5069 C   0  0  1  0  0  0  0  0  0  0  0  0
   24.1569   -9.9926  -16.1304 C   0  0  0  0  0  0  0  0  0  0  0  0
   24.0223   -9.9364  -17.3752 O   0  0  0  0  0  0  0  0  0  0  0  0
   23.1807   -9.3694  -15.3198 N   0  0  0  0  0  0  0  0  0  0  0  0
   21.9968   -8.7284  -15.9276 C   0  0  1  0  0  0  0  0  0  0  0  0
   20.8131   -9.5649  -15.5444 C   0  0  0  0  0  0  0  0  0  0  0  0
   19.4903   -9.0217  -15.9484 C   0  0  0  0  0  0  0  0  0  0  0  0
   18.3752   -9.9260  -15.6005 C   0  0  0  0  0  0  0  0  0  0  0  0
   18.5110  -11.0052  -14.9814 O   0  0  0  0  0  0  0  0  0  0  0  0
   21.8597   -7.3818  -15.3294 C   0  0  0  0  0  0  0  0  0  0  0  0
   22.5997   -7.0345  -14.2167 O   0  0  0  0  0  0  0  0  0  0  0  0
   17.0676   -9.5903  -15.9690 O   0  0  0  0  0  0  0  0  0  0  0  0
   21.0793   -6.5227  -15.8042 O   0  0  0  0  0  0  0  0  0  0  0  0
  2  1  1  1
  2  8  1  0
  2  3  1  0
  4  3  1  0
  4  5  1  0
  5  6  1  0
  6  7  1  0
  8 10  1  0
  9  8  2  0
 10 14  1  0
 10 11  1  0
 12 11  1  0
 12 13  1  0
 14 15  1  6
 14 13  1  0
 15 16  2  0
 15 17  1  0
 17 18  1  0
 18 23  1  0
 18 19  1  1
 20 19  1  0
 20 21  1  0
 21 22  2  0
 21 25  1  0
 23 26  2  0
 23 24  1  0
M  END
$$$$
