KPE.pdb
     RDKit          3D

 26 26  0  0  1  0  0  0  0  0999 V2000
   21.6970  -13.3848  -17.8040 N   0  0  0  0  0  0  0  0  0  0  0  0
   22.8311  -12.5431  -17.9758 C   0  0  1  0  0  0  0  0  0  0  0  0
   22.7909  -11.7866  -19.3064 C   0  0  0  0  0  0  0  0  0  0  0  0
   22.3962  -12.7064  -20.4351 C   0  0  0  0  0  0  0  0  0  0  0  0
   22.4833  -12.0547  -21.7848 C   0  0  0  0  0  0  0  0  0  0  0  0
   22.0360  -12.9734  -22.8995 C   0  0  0  0  0  0  0  0  0  0  0  0
   22.2449  -12.2475  -24.1468 N   0  0  0  0  0  0  0  0  0  0  0  0
   23.0734  -11.5625  -16.8978 C   0  0  0  0  0  0  0  0  0  0  0  0
   21.9921  -11.1902  -16.2906 O   0  0  0  0  0  0  0  0  0  0  0  0
   24.3166  -11.0300  -16.5008 N   0  0  0  0  0  0  0  0  0  0  0  0
   25.6273  -11.3417  -16.9843 C   0  0  0  0  0  0  0  0  0  0  0  0
   26.4732  -11.2050  -15.7042 C   0  0  0  0  0  0  0  0  0  0  0  0
   25.9044   -9.9540  -15.0985 C   0  0  0  0  0  0  0  0  0  0  0  0
   24.4544  -10.0115  -15.4547 C   0  0  1  0  0  0  0  0  0  0  0  0
   23.9089   -8.7121  -15.8757 C   0  0  0  0  0  0  0  0  0  0  0  0
   23.7103   -8.4416  -17.0834 O   0  0  0  0  0  0  0  0  0  0  0  0
   23.5947   -7.7319  -14.9067 N   0  0  0  0  0  0  0  0  0  0  0  0
   22.9680   -6.4549  -15.3051 C   0  0  1  0  0  0  0  0  0  0  0  0
   21.6135   -6.7947  -15.8504 C   0  0  0  0  0  0  0  0  0  0  0  0
   20.7881   -5.6351  -16.2770 C   0  0  0  0  0  0  0  0  0  0  0  0
   19.4623   -6.0395  -16.7880 C   0  0  0  0  0  0  0  0  0  0  0  0
   19.0855   -7.2271  -16.9056 O   0  0  0  0  0  0  0  0  0  0  0  0
   22.8129   -5.6322  -14.0849 C   0  0  0  0  0  0  0  0  0  0  0  0
   22.7219   -6.2334  -12.8453 O   0  0  0  0  0  0  0  0  0  0  0  0
   18.5396   -5.0616  -17.1762 O   0  0  0  0  0  0  0  0  0  0  0  0
   22.7594   -4.3802  -14.1330 O   0  0  0  0  0  0  0  0  0  0  0  0
  2  1  1  1
  2  8  1  0
  2  3  1  0
  4  3  1  0
  4  5  1  0
  5  6  1  0
  6  7  1  0
  8 10  1  0
  9  8  2  0
 10 14  1  0
 10 11  1  0
 12 11  1  0
 12 13  1  0
 14 15  1  6
 14 13  1  0
 15 16  2  0
 15 17  1  0
 17 18  1  0
 18 23  1  0
 18 19  1  1
 20 19  1  0
 20 21  1  0
 21 22  2  0
 21 25  1  0
 23 26  2  0
 23 24  1  0
M  END
$$$$
