KPE.pdb
     RDKit          3D

 26 26  0  0  1  0  0  0  0  0999 V2000
   14.6819  -28.3719   -7.3046 N   0  0  0  0  0  0  0  0  0  0  0  0
   15.1300  -27.2343   -6.5772 C   0  0  1  0  0  0  0  0  0  0  0  0
   14.0597  -26.1422   -6.4989 C   0  0  0  0  0  0  0  0  0  0  0  0
   14.2671  -25.1090   -7.5784 C   0  0  0  0  0  0  0  0  0  0  0  0
   13.3680  -25.3066   -8.7643 C   0  0  0  0  0  0  0  0  0  0  0  0
   13.6234  -24.2938   -9.8578 C   0  0  0  0  0  0  0  0  0  0  0  0
   12.7973  -24.6885  -10.9927 N   0  0  0  0  0  0  0  0  0  0  0  0
   15.6174  -27.4978   -5.2077 C   0  0  0  0  0  0  0  0  0  0  0  0
   15.0381  -28.5085   -4.6427 O   0  0  0  0  0  0  0  0  0  0  0  0
   16.6057  -26.7773   -4.5071 N   0  0  0  0  0  0  0  0  0  0  0  0
   17.3108  -25.5958   -4.9018 C   0  0  0  0  0  0  0  0  0  0  0  0
   18.6995  -25.8386   -4.2809 C   0  0  0  0  0  0  0  0  0  0  0  0
   18.3351  -26.3780   -2.9276 C   0  0  0  0  0  0  0  0  0  0  0  0
   17.0926  -27.1685   -3.1803 C   0  0  1  0  0  0  0  0  0  0  0  0
   16.0677  -26.9856   -2.1413 C   0  0  0  0  0  0  0  0  0  0  0  0
   15.1991  -26.0858   -2.2248 O   0  0  0  0  0  0  0  0  0  0  0  0
   16.0470  -27.8376   -1.0135 N   0  0  0  0  0  0  0  0  0  0  0  0
   15.0596  -27.6319    0.0658 C   0  0  1  0  0  0  0  0  0  0  0  0
   14.9384  -28.9392    0.7897 C   0  0  0  0  0  0  0  0  0  0  0  0
   14.2332  -30.0164    0.0478 C   0  0  0  0  0  0  0  0  0  0  0  0
   14.3183  -31.3243    0.7292 C   0  0  0  0  0  0  0  0  0  0  0  0
   14.9517  -31.5256    1.7896 O   0  0  0  0  0  0  0  0  0  0  0  0
   15.6080  -26.6110    0.9861 C   0  0  0  0  0  0  0  0  0  0  0  0
   16.9036  -26.1588    0.8338 O   0  0  0  0  0  0  0  0  0  0  0  0
   13.6623  -32.4347    0.1859 O   0  0  0  0  0  0  0  0  0  0  0  0
   14.9262  -26.1285    1.9216 O   0  0  0  0  0  0  0  0  0  0  0  0
  2  1  1  1
  2  8  1  0
  2  3  1  0
  4  3  1  0
  4  5  1  0
  5  6  1  0
  6  7  1  0
  8 10  1  0
  9  8  2  0
 10 14  1  0
 10 11  1  0
 12 11  1  0
 12 13  1  0
 14 15  1  1
 14 13  1  0
 15 16  2  0
 15 17  1  0
 17 18  1  0
 18 23  1  0
 18 19  1  1
 20 19  1  0
 20 21  1  0
 21 22  2  0
 21 25  1  0
 23 26  2  0
 23 24  1  0
M  END
$$$$
