KPE.pdb
     RDKit          3D

 26 26  0  0  1  0  0  0  0  0999 V2000
   16.8890  -11.1054  -14.7724 N   0  0  0  0  0  0  0  0  0  0  0  0
   18.0911  -10.7696  -15.4551 C   0  0  1  0  0  0  0  0  0  0  0  0
   17.8266  -10.2847  -16.8832 C   0  0  0  0  0  0  0  0  0  0  0  0
   17.2644  -11.3977  -17.7324 C   0  0  0  0  0  0  0  0  0  0  0  0
   16.9957  -10.9802  -19.1492 C   0  0  0  0  0  0  0  0  0  0  0  0
   16.3103  -12.0641  -19.9505 C   0  0  0  0  0  0  0  0  0  0  0  0
   16.2293  -11.5794  -21.3233 N   0  0  0  0  0  0  0  0  0  0  0  0
   18.9546   -9.7752  -14.7857 C   0  0  0  0  0  0  0  0  0  0  0  0
   18.2901   -8.8337  -14.1954 O   0  0  0  0  0  0  0  0  0  0  0  0
   20.3634   -9.7698  -14.7417 N   0  0  0  0  0  0  0  0  0  0  0  0
   21.2857  -10.7373  -15.2538 C   0  0  0  0  0  0  0  0  0  0  0  0
   22.4115  -10.6821  -14.2038 C   0  0  0  0  0  0  0  0  0  0  0  0
   22.5403   -9.2032  -13.9765 C   0  0  0  0  0  0  0  0  0  0  0  0
   21.1409   -8.6972  -14.1128 C   0  0  1  0  0  0  0  0  0  0  0  0
   21.0508   -7.4371  -14.8659 C   0  0  0  0  0  0  0  0  0  0  0  0
   20.9461   -7.4227  -16.1149 O   0  0  0  0  0  0  0  0  0  0  0  0
   21.0813   -6.2016  -14.1795 N   0  0  0  0  0  0  0  0  0  0  0  0
   21.0883   -4.9270  -14.9261 C   0  0  1  0  0  0  0  0  0  0  0  0
   19.8786   -4.1625  -14.4791 C   0  0  0  0  0  0  0  0  0  0  0  0
   18.5831   -4.6404  -15.0278 C   0  0  0  0  0  0  0  0  0  0  0  0
   17.4312   -3.8697  -14.5164 C   0  0  0  0  0  0  0  0  0  0  0  0
   17.4581   -2.6426  -14.2720 O   0  0  0  0  0  0  0  0  0  0  0  0
   22.3084   -4.1859  -14.5358 C   0  0  0  0  0  0  0  0  0  0  0  0
   23.0824   -4.6240  -13.4798 O   0  0  0  0  0  0  0  0  0  0  0  0
   16.2136   -4.5167  -14.2769 O   0  0  0  0  0  0  0  0  0  0  0  0
   22.6761   -3.1508  -15.1407 O   0  0  0  0  0  0  0  0  0  0  0  0
  2  1  1  1
  2  8  1  0
  2  3  1  0
  4  3  1  0
  4  5  1  0
  5  6  1  0
  6  7  1  0
  8 10  1  0
  9  8  2  0
 10 14  1  0
 10 11  1  0
 12 11  1  0
 12 13  1  0
 14 15  1  6
 14 13  1  0
 15 16  2  0
 15 17  1  0
 17 18  1  0
 18 23  1  0
 18 19  1  1
 20 19  1  0
 20 21  1  0
 21 22  2  0
 21 25  1  0
 23 26  2  0
 23 24  1  0
M  END
$$$$
