KPE.pdb
     RDKit          3D

 26 26  0  0  1  0  0  0  0  0999 V2000
   29.1714  -23.8891  -16.7200 N   0  0  0  0  0  0  0  0  0  0  0  0
   28.8345  -22.5183  -16.8972 C   0  0  1  0  0  0  0  0  0  0  0  0
   28.4333  -22.2055  -18.3414 C   0  0  0  0  0  0  0  0  0  0  0  0
   27.8164  -23.4140  -19.0008 C   0  0  0  0  0  0  0  0  0  0  0  0
   27.3673  -23.1525  -20.4092 C   0  0  0  0  0  0  0  0  0  0  0  0
   26.6881  -24.3519  -21.0310 C   0  0  0  0  0  0  0  0  0  0  0  0
   26.3152  -23.9637  -22.3861 N   0  0  0  0  0  0  0  0  0  0  0  0
   27.7803  -21.9945  -16.0046 C   0  0  0  0  0  0  0  0  0  0  0  0
   27.0186  -22.9189  -15.5130 O   0  0  0  0  0  0  0  0  0  0  0  0
   27.5504  -20.6459  -15.6657 N   0  0  0  0  0  0  0  0  0  0  0  0
   28.2359  -19.4729  -16.1164 C   0  0  0  0  0  0  0  0  0  0  0  0
   28.1969  -18.5853  -14.8580 C   0  0  0  0  0  0  0  0  0  0  0  0
   26.7882  -18.7971  -14.3825 C   0  0  0  0  0  0  0  0  0  0  0  0
   26.5042  -20.2225  -14.7292 C   0  0  1  0  0  0  0  0  0  0  0  0
   25.1559  -20.4276  -15.2801 C   0  0  0  0  0  0  0  0  0  0  0  0
   24.9595  -20.5486  -16.5120 O   0  0  0  0  0  0  0  0  0  0  0  0
   24.0420  -20.4926  -14.4121 N   0  0  0  0  0  0  0  0  0  0  0  0
   22.6777  -20.6644  -14.9517 C   0  0  1  0  0  0  0  0  0  0  0  0
   21.8785  -21.3499  -13.8844 C   0  0  0  0  0  0  0  0  0  0  0  0
   20.4461  -21.5778  -14.2071 C   0  0  0  0  0  0  0  0  0  0  0  0
   19.7124  -22.2301  -13.1032 C   0  0  0  0  0  0  0  0  0  0  0  0
   19.8246  -23.4394  -12.8013 O   0  0  0  0  0  0  0  0  0  0  0  0
   22.1182  -19.3159  -15.1930 C   0  0  0  0  0  0  0  0  0  0  0  0
   21.1693  -19.1204  -16.1767 O   0  0  0  0  0  0  0  0  0  0  0  0
   18.8253  -21.4820  -12.3211 O   0  0  0  0  0  0  0  0  0  0  0  0
   22.4804  -18.3193  -14.5235 O   0  0  0  0  0  0  0  0  0  0  0  0
  2  1  1  6
  2  8  1  0
  2  3  1  0
  4  3  1  0
  4  5  1  0
  5  6  1  0
  6  7  1  0
  8 10  1  0
  9  8  2  0
 10 14  1  0
 10 11  1  0
 12 11  1  0
 12 13  1  0
 14 15  1  6
 14 13  1  0
 15 16  2  0
 15 17  1  0
 17 18  1  0
 18 23  1  0
 18 19  1  1
 20 19  1  0
 20 21  1  0
 21 22  2  0
 21 25  1  0
 23 26  2  0
 23 24  1  0
M  END
$$$$
