KPE.pdb
     RDKit          3D

 26 26  0  0  1  0  0  0  0  0999 V2000
   19.2508  -13.7012  -16.2797 N   0  0  0  0  0  0  0  0  0  0  0  0
   20.4507  -13.0297  -16.6451 C   0  0  1  0  0  0  0  0  0  0  0  0
   20.4164  -12.5359  -18.0940 C   0  0  0  0  0  0  0  0  0  0  0  0
   20.0076  -13.6461  -19.0300 C   0  0  0  0  0  0  0  0  0  0  0  0
   19.9428  -13.2130  -20.4659 C   0  0  0  0  0  0  0  0  0  0  0  0
   19.5626  -14.3448  -21.3939 C   0  0  0  0  0  0  0  0  0  0  0  0
   19.4630  -13.7717  -22.7311 N   0  0  0  0  0  0  0  0  0  0  0  0
   20.8409  -11.8953  -15.7829 C   0  0  0  0  0  0  0  0  0  0  0  0
   19.8301  -11.2312  -15.3206 O   0  0  0  0  0  0  0  0  0  0  0  0
   22.1508  -11.5006  -15.4438 N   0  0  0  0  0  0  0  0  0  0  0  0
   23.3979  -12.0925  -15.8221 C   0  0  0  0  0  0  0  0  0  0  0  0
   24.2482  -11.8647  -14.5580 C   0  0  0  0  0  0  0  0  0  0  0  0
   23.8820  -10.4534  -14.1980 C   0  0  0  0  0  0  0  0  0  0  0  0
   22.4431  -10.3471  -14.5866 C   0  0  1  0  0  0  0  0  0  0  0  0
   22.1128   -9.0739  -15.2448 C   0  0  0  0  0  0  0  0  0  0  0  0
   22.1193   -8.9568  -16.4927 O   0  0  0  0  0  0  0  0  0  0  0  0
   21.7768   -7.9435  -14.4652 N   0  0  0  0  0  0  0  0  0  0  0  0
   21.4419   -6.6578  -15.1108 C   0  0  1  0  0  0  0  0  0  0  0  0
   19.9596   -6.4820  -14.9710 C   0  0  0  0  0  0  0  0  0  0  0  0
   19.4356   -5.1478  -15.3625 C   0  0  0  0  0  0  0  0  0  0  0  0
   17.9775   -5.1578  -15.5993 C   0  0  0  0  0  0  0  0  0  0  0  0
   17.2539   -6.1733  -15.4918 O   0  0  0  0  0  0  0  0  0  0  0  0
   22.1354   -5.5863  -14.3620 C   0  0  0  0  0  0  0  0  0  0  0  0
   22.4421   -4.3902  -14.9796 O   0  0  0  0  0  0  0  0  0  0  0  0
   17.3255   -3.9760  -15.9691 O   0  0  0  0  0  0  0  0  0  0  0  0
   22.4637   -5.7248  -13.1596 O   0  0  0  0  0  0  0  0  0  0  0  0
  2  1  1  1
  2  8  1  0
  2  3  1  0
  4  3  1  0
  4  5  1  0
  5  6  1  0
  6  7  1  0
  8 10  1  0
  9  8  2  0
 10 14  1  0
 10 11  1  0
 12 11  1  0
 12 13  1  0
 14 15  1  6
 14 13  1  0
 15 16  2  0
 15 17  1  0
 17 18  1  0
 18 23  1  0
 18 19  1  1
 20 19  1  0
 20 21  1  0
 21 22  2  0
 21 25  1  0
 23 26  2  0
 23 24  1  0
M  END
$$$$
