KPE.pdb
     RDKit          3D

 26 26  0  0  1  0  0  0  0  0999 V2000
   22.0632  -21.4849  -12.2906 N   0  0  0  0  0  0  0  0  0  0  0  0
   23.4238  -21.8070  -12.5531 C   0  0  1  0  0  0  0  0  0  0  0  0
   23.5618  -23.0534  -13.4317 C   0  0  0  0  0  0  0  0  0  0  0  0
   22.2752  -23.3372  -14.1666 C   0  0  0  0  0  0  0  0  0  0  0  0
   21.5675  -24.5625  -13.6650 C   0  0  0  0  0  0  0  0  0  0  0  0
   20.3109  -24.8654  -14.4497 C   0  0  0  0  0  0  0  0  0  0  0  0
   20.7348  -25.5371  -15.6725 N   0  0  0  0  0  0  0  0  0  0  0  0
   24.2352  -20.7293  -13.1554 C   0  0  0  0  0  0  0  0  0  0  0  0
   23.5732  -19.6323  -13.3421 O   0  0  0  0  0  0  0  0  0  0  0  0
   25.5943  -20.7966  -13.5225 N   0  0  0  0  0  0  0  0  0  0  0  0
   26.5534  -21.8228  -13.2473 C   0  0  0  0  0  0  0  0  0  0  0  0
   27.8446  -21.0030  -13.0643 C   0  0  0  0  0  0  0  0  0  0  0  0
   27.7364  -20.0140  -14.1893 C   0  0  0  0  0  0  0  0  0  0  0  0
   26.2700  -19.7444  -14.2887 C   0  0  1  0  0  0  0  0  0  0  0  0
   25.7859  -19.6757  -15.6759 C   0  0  0  0  0  0  0  0  0  0  0  0
   25.3621  -20.6911  -16.2762 O   0  0  0  0  0  0  0  0  0  0  0  0
   25.7915  -18.4411  -16.3643 N   0  0  0  0  0  0  0  0  0  0  0  0
   25.1873  -18.3267  -17.7075 C   0  0  1  0  0  0  0  0  0  0  0  0
   24.2093  -17.1923  -17.6416 C   0  0  0  0  0  0  0  0  0  0  0  0
   23.4896  -16.8961  -18.9074 C   0  0  0  0  0  0  0  0  0  0  0  0
   22.0711  -16.5481  -18.6857 C   0  0  0  0  0  0  0  0  0  0  0  0
   21.6660  -15.4026  -18.3858 O   0  0  0  0  0  0  0  0  0  0  0  0
   26.2693  -17.9866  -18.6580 C   0  0  0  0  0  0  0  0  0  0  0  0
   26.0963  -18.1885  -20.0128 O   0  0  0  0  0  0  0  0  0  0  0  0
   21.0862  -17.5345  -18.8096 O   0  0  0  0  0  0  0  0  0  0  0  0
   27.3637  -17.5107  -18.2726 O   0  0  0  0  0  0  0  0  0  0  0  0
  2  1  1  6
  2  8  1  0
  2  3  1  0
  4  3  1  0
  4  5  1  0
  5  6  1  0
  6  7  1  0
  8 10  1  0
  9  8  2  0
 10 14  1  0
 10 11  1  0
 12 11  1  0
 12 13  1  0
 14 15  1  6
 14 13  1  0
 15 16  2  0
 15 17  1  0
 17 18  1  0
 18 23  1  0
 18 19  1  1
 20 19  1  0
 20 21  1  0
 21 22  2  0
 21 25  1  0
 23 26  2  0
 23 24  1  0
M  END
$$$$
