KPE.pdb
     RDKit          3D

 26 26  0  0  1  0  0  0  0  0999 V2000
   29.3606  -23.7719  -16.5116 N   0  0  0  0  0  0  0  0  0  0  0  0
   29.2053  -22.6239  -17.3375 C   0  0  1  0  0  0  0  0  0  0  0  0
   28.7485  -22.9894  -18.7524 C   0  0  0  0  0  0  0  0  0  0  0  0
   29.9278  -23.3535  -19.6199 C   0  0  0  0  0  0  0  0  0  0  0  0
   29.5608  -23.5485  -21.0625 C   0  0  0  0  0  0  0  0  0  0  0  0
   30.7271  -24.0318  -21.8949 C   0  0  0  0  0  0  0  0  0  0  0  0
   30.2565  -24.0969  -23.2735 N   0  0  0  0  0  0  0  0  0  0  0  0
   28.3009  -21.5768  -16.8197 C   0  0  0  0  0  0  0  0  0  0  0  0
   27.4623  -22.0147  -15.9357 O   0  0  0  0  0  0  0  0  0  0  0  0
   28.2791  -20.2172  -17.1906 N   0  0  0  0  0  0  0  0  0  0  0  0
   29.0592  -19.5397  -18.1813 C   0  0  0  0  0  0  0  0  0  0  0  0
   29.2595  -18.1581  -17.5302 C   0  0  0  0  0  0  0  0  0  0  0  0
   27.8902  -17.8828  -16.9784 C   0  0  0  0  0  0  0  0  0  0  0  0
   27.3943  -19.2300  -16.5636 C   0  0  1  0  0  0  0  0  0  0  0  0
   25.9825  -19.4590  -16.9067 C   0  0  0  0  0  0  0  0  0  0  0  0
   25.6453  -19.9673  -18.0016 O   0  0  0  0  0  0  0  0  0  0  0  0
   24.9673  -19.1030  -15.9897 N   0  0  0  0  0  0  0  0  0  0  0  0
   23.5436  -19.3013  -16.3301 C   0  0  1  0  0  0  0  0  0  0  0  0
   22.8502  -19.6924  -15.0598 C   0  0  0  0  0  0  0  0  0  0  0  0
   21.3777  -19.8627  -15.1630 C   0  0  0  0  0  0  0  0  0  0  0  0
   20.7613  -20.2620  -13.8812 C   0  0  0  0  0  0  0  0  0  0  0  0
   21.3940  -20.4091  -12.8115 O   0  0  0  0  0  0  0  0  0  0  0  0
   23.0103  -18.0033  -16.8000 C   0  0  0  0  0  0  0  0  0  0  0  0
   23.7429  -16.8455  -16.6295 O   0  0  0  0  0  0  0  0  0  0  0  0
   19.3838  -20.5005  -13.8172 O   0  0  0  0  0  0  0  0  0  0  0  0
   21.8924  -17.9108  -17.3607 O   0  0  0  0  0  0  0  0  0  0  0  0
  2  1  1  1
  2  8  1  0
  2  3  1  0
  4  3  1  0
  4  5  1  0
  5  6  1  0
  6  7  1  0
  8 10  1  0
  9  8  2  0
 10 14  1  0
 10 11  1  0
 12 11  1  0
 12 13  1  0
 14 15  1  6
 14 13  1  0
 15 16  2  0
 15 17  1  0
 17 18  1  0
 18 23  1  0
 18 19  1  1
 20 19  1  0
 20 21  1  0
 21 22  2  0
 21 25  1  0
 23 26  2  0
 23 24  1  0
M  END
$$$$
