KPE.pdb
     RDKit          3D

 26 26  0  0  1  0  0  0  0  0999 V2000
   27.9362  -21.9602  -15.0503 N   0  0  0  0  0  0  0  0  0  0  0  0
   27.2587  -20.9635  -14.2943 C   0  0  1  0  0  0  0  0  0  0  0  0
   26.9091  -19.7365  -15.1408 C   0  0  0  0  0  0  0  0  0  0  0  0
   27.9039  -18.6257  -14.9125 C   0  0  0  0  0  0  0  0  0  0  0  0
   28.7373  -18.3223  -16.1237 C   0  0  0  0  0  0  0  0  0  0  0  0
   28.1054  -18.8281  -17.4010 C   0  0  0  0  0  0  0  0  0  0  0  0
   28.9463  -18.3592  -18.4961 N   0  0  0  0  0  0  0  0  0  0  0  0
   26.0322  -21.4061  -13.5997 C   0  0  0  0  0  0  0  0  0  0  0  0
   25.3546  -22.2856  -14.2658 O   0  0  0  0  0  0  0  0  0  0  0  0
   25.5674  -20.9716  -12.3420 N   0  0  0  0  0  0  0  0  0  0  0  0
   26.2082  -20.1166  -11.3895 C   0  0  0  0  0  0  0  0  0  0  0  0
   25.7358  -20.7254  -10.0557 C   0  0  0  0  0  0  0  0  0  0  0  0
   24.2855  -20.9905  -10.3416 C   0  0  0  0  0  0  0  0  0  0  0  0
   24.2692  -21.3683  -11.7871 C   0  0  1  0  0  0  0  0  0  0  0  0
   23.1477  -20.7728  -12.5294 C   0  0  0  0  0  0  0  0  0  0  0  0
   23.2399  -19.6449  -13.0683 O   0  0  0  0  0  0  0  0  0  0  0  0
   21.9275  -21.4768  -12.6479 N   0  0  0  0  0  0  0  0  0  0  0  0
   20.8148  -20.9232  -13.4462 C   0  0  1  0  0  0  0  0  0  0  0  0
   19.8956  -22.0677  -13.7506 C   0  0  0  0  0  0  0  0  0  0  0  0
   18.6572  -21.7120  -14.4908 C   0  0  0  0  0  0  0  0  0  0  0  0
   17.6748  -22.8150  -14.5166 C   0  0  0  0  0  0  0  0  0  0  0  0
   16.4416  -22.6561  -14.6585 O   0  0  0  0  0  0  0  0  0  0  0  0
   20.1056  -19.9360  -12.6021 C   0  0  0  0  0  0  0  0  0  0  0  0
   19.3870  -18.9101  -13.1831 O   0  0  0  0  0  0  0  0  0  0  0  0
   18.1111  -24.1373  -14.3768 O   0  0  0  0  0  0  0  0  0  0  0  0
   20.1319  -19.9955  -11.3498 O   0  0  0  0  0  0  0  0  0  0  0  0
  2  1  1  6
  2  8  1  0
  2  3  1  0
  4  3  1  0
  4  5  1  0
  5  6  1  0
  6  7  1  0
  8 10  1  0
  9  8  2  0
 10 14  1  0
 10 11  1  0
 12 11  1  0
 12 13  1  0
 14 15  1  6
 14 13  1  0
 15 16  2  0
 15 17  1  0
 17 18  1  0
 18 23  1  0
 18 19  1  1
 20 19  1  0
 20 21  1  0
 21 22  2  0
 21 25  1  0
 23 26  2  0
 23 24  1  0
M  END
$$$$
