KPE.pdb
     RDKit          3D

 26 26  0  0  1  0  0  0  0  0999 V2000
   18.5876  -12.2400  -17.3312 N   0  0  0  0  0  0  0  0  0  0  0  0
   19.9418  -11.8051  -17.3648 C   0  0  1  0  0  0  0  0  0  0  0  0
   20.3150  -11.1867  -18.7148 C   0  0  0  0  0  0  0  0  0  0  0  0
   20.8718  -12.2325  -19.6487 C   0  0  0  0  0  0  0  0  0  0  0  0
   21.2830  -11.6749  -20.9806 C   0  0  0  0  0  0  0  0  0  0  0  0
   21.6836  -12.7551  -21.9600 C   0  0  0  0  0  0  0  0  0  0  0  0
   22.1706  -13.8774  -21.1665 N   0  0  0  0  0  0  0  0  0  0  0  0
   20.3402  -10.8600  -16.3015 C   0  0  0  0  0  0  0  0  0  0  0  0
   19.4025  -10.0282  -15.9769 O   0  0  0  0  0  0  0  0  0  0  0  0
   21.5885  -10.7950  -15.6502 N   0  0  0  0  0  0  0  0  0  0  0  0
   22.7151  -11.6698  -15.7698 C   0  0  0  0  0  0  0  0  0  0  0  0
   23.2733  -11.6585  -14.3342 C   0  0  0  0  0  0  0  0  0  0  0  0
   23.1739  -10.2018  -13.9829 C   0  0  0  0  0  0  0  0  0  0  0  0
   21.9329   -9.7493  -14.6814 C   0  0  1  0  0  0  0  0  0  0  0  0
   22.0746   -8.4319  -15.3198 C   0  0  0  0  0  0  0  0  0  0  0  0
   22.3279   -8.3164  -16.5419 O   0  0  0  0  0  0  0  0  0  0  0  0
   21.9240   -7.2556  -14.5504 N   0  0  0  0  0  0  0  0  0  0  0  0
   21.9701   -5.9262  -15.1927 C   0  0  1  0  0  0  0  0  0  0  0  0
   20.6135   -5.6901  -15.7857 C   0  0  0  0  0  0  0  0  0  0  0  0
   19.4901   -5.6529  -14.8139 C   0  0  0  0  0  0  0  0  0  0  0  0
   18.2162   -5.2355  -15.4348 C   0  0  0  0  0  0  0  0  0  0  0  0
   18.1153   -4.7787  -16.5955 O   0  0  0  0  0  0  0  0  0  0  0  0
   22.2227   -4.9249  -14.1327 C   0  0  0  0  0  0  0  0  0  0  0  0
   22.5105   -3.6159  -14.4643 O   0  0  0  0  0  0  0  0  0  0  0  0
   17.0230   -5.3422  -14.7113 O   0  0  0  0  0  0  0  0  0  0  0  0
   22.1849   -5.2252  -12.9158 O   0  0  0  0  0  0  0  0  0  0  0  0
  2  1  1  6
  2  8  1  0
  2  3  1  0
  4  3  1  0
  4  5  1  0
  5  6  1  0
  6  7  1  0
  8 10  1  0
  9  8  2  0
 10 14  1  0
 10 11  1  0
 12 11  1  0
 12 13  1  0
 14 15  1  6
 14 13  1  0
 15 16  2  0
 15 17  1  0
 17 18  1  0
 18 23  1  0
 18 19  1  1
 20 19  1  0
 20 21  1  0
 21 22  2  0
 21 25  1  0
 23 26  2  0
 23 24  1  0
M  END
$$$$
