KPE.pdb
     RDKit          3D

 26 26  0  0  1  0  0  0  0  0999 V2000
   27.6378  -21.3891  -15.2870 N   0  0  0  0  0  0  0  0  0  0  0  0
   27.1888  -20.5686  -14.2150 C   0  0  1  0  0  0  0  0  0  0  0  0
   26.9060  -19.1334  -14.6672 C   0  0  0  0  0  0  0  0  0  0  0  0
   28.1597  -18.4793  -15.1926 C   0  0  0  0  0  0  0  0  0  0  0  0
   28.3823  -18.7222  -16.6573 C   0  0  0  0  0  0  0  0  0  0  0  0
   28.5488  -17.4373  -17.4370 C   0  0  0  0  0  0  0  0  0  0  0  0
   28.8202  -17.8198  -18.8177 N   0  0  0  0  0  0  0  0  0  0  0  0
   26.0044  -21.0602  -13.4815 C   0  0  0  0  0  0  0  0  0  0  0  0
   25.2640  -21.8602  -14.1802 O   0  0  0  0  0  0  0  0  0  0  0  0
   25.6369  -20.7451  -12.1577 N   0  0  0  0  0  0  0  0  0  0  0  0
   26.3995  -20.0837  -11.1429 C   0  0  0  0  0  0  0  0  0  0  0  0
   25.9204  -20.8074   -9.8704 C   0  0  0  0  0  0  0  0  0  0  0  0
   24.4403  -20.8924  -10.1103 C   0  0  0  0  0  0  0  0  0  0  0  0
   24.3279  -21.0810  -11.5883 C   0  0  1  0  0  0  0  0  0  0  0  0
   23.2449  -20.2904  -12.1929 C   0  0  0  0  0  0  0  0  0  0  0  0
   23.4523  -19.1546  -12.6806 O   0  0  0  0  0  0  0  0  0  0  0  0
   21.9308  -20.8099  -12.2337 N   0  0  0  0  0  0  0  0  0  0  0  0
   20.8253  -20.0140  -12.8051 C   0  0  1  0  0  0  0  0  0  0  0  0
   21.0858  -19.9155  -14.2782 C   0  0  0  0  0  0  0  0  0  0  0  0
   21.0854  -21.2064  -15.0140 C   0  0  0  0  0  0  0  0  0  0  0  0
   21.1529  -21.0250  -16.4785 C   0  0  0  0  0  0  0  0  0  0  0  0
   22.2095  -20.8070  -17.1128 O   0  0  0  0  0  0  0  0  0  0  0  0
   19.5697  -20.7637  -12.5783 C   0  0  0  0  0  0  0  0  0  0  0  0
   18.3474  -20.1470  -12.7568 O   0  0  0  0  0  0  0  0  0  0  0  0
   19.9821  -21.0942  -17.2419 O   0  0  0  0  0  0  0  0  0  0  0  0
   19.5717  -21.9660  -12.2219 O   0  0  0  0  0  0  0  0  0  0  0  0
  2  1  1  6
  2  8  1  0
  2  3  1  0
  4  3  1  0
  4  5  1  0
  5  6  1  0
  6  7  1  0
  8 10  1  0
  9  8  2  0
 10 14  1  0
 10 11  1  0
 12 11  1  0
 12 13  1  0
 14 15  1  6
 14 13  1  0
 15 16  2  0
 15 17  1  0
 17 18  1  0
 18 23  1  0
 18 19  1  6
 20 19  1  0
 20 21  1  0
 21 22  2  0
 21 25  1  0
 23 26  2  0
 23 24  1  0
M  END
$$$$
