KPE.pdb
     RDKit          3D

 26 26  0  0  1  0  0  0  0  0999 V2000
   25.4540  -20.8195  -16.2494 N   0  0  0  0  0  0  0  0  0  0  0  0
   25.3095  -20.1161  -15.0213 C   0  0  1  0  0  0  0  0  0  0  0  0
   24.5805  -18.7820  -15.2036 C   0  0  0  0  0  0  0  0  0  0  0  0
   25.1282  -18.0289  -16.3905 C   0  0  0  0  0  0  0  0  0  0  0  0
   24.1387  -17.8948  -17.5116 C   0  0  0  0  0  0  0  0  0  0  0  0
   23.2614  -16.6720  -17.3644 C   0  0  0  0  0  0  0  0  0  0  0  0
   22.3053  -16.7101  -18.4646 N   0  0  0  0  0  0  0  0  0  0  0  0
   24.6439  -20.8570  -13.9302 C   0  0  0  0  0  0  0  0  0  0  0  0
   23.7365  -21.6805  -14.3486 O   0  0  0  0  0  0  0  0  0  0  0  0
   24.9028  -20.7449  -12.5493 N   0  0  0  0  0  0  0  0  0  0  0  0
   25.9362  -20.0134  -11.8816 C   0  0  0  0  0  0  0  0  0  0  0  0
   26.2433  -20.9303  -10.6825 C   0  0  0  0  0  0  0  0  0  0  0  0
   24.8629  -21.3304  -10.2469 C   0  0  0  0  0  0  0  0  0  0  0  0
   24.0952  -21.4165  -11.5259 C   0  0  1  0  0  0  0  0  0  0  0  0
   22.7427  -20.8465  -11.4297 C   0  0  0  0  0  0  0  0  0  0  0  0
   22.5002  -19.6654  -11.7720 O   0  0  0  0  0  0  0  0  0  0  0  0
   21.6774  -21.6371  -10.9412 N   0  0  0  0  0  0  0  0  0  0  0  0
   20.2810  -21.1685  -11.0528 C   0  0  1  0  0  0  0  0  0  0  0  0
   19.8284  -21.4990  -12.4433 C   0  0  0  0  0  0  0  0  0  0  0  0
   18.4194  -21.1463  -12.7564 C   0  0  0  0  0  0  0  0  0  0  0  0
   18.0473  -21.4764  -14.1475 C   0  0  0  0  0  0  0  0  0  0  0  0
   18.7818  -22.1050  -14.9422 O   0  0  0  0  0  0  0  0  0  0  0  0
   19.4721  -21.9347  -10.0788 C   0  0  0  0  0  0  0  0  0  0  0  0
   18.2776  -21.4249   -9.6103 O   0  0  0  0  0  0  0  0  0  0  0  0
   16.8020  -21.0784  -14.6467 O   0  0  0  0  0  0  0  0  0  0  0  0
   19.8371  -23.0558   -9.6517 O   0  0  0  0  0  0  0  0  0  0  0  0
  2  1  1  6
  2  8  1  0
  2  3  1  0
  4  3  1  0
  4  5  1  0
  5  6  1  0
  6  7  1  0
  8 10  1  0
  9  8  2  0
 10 14  1  0
 10 11  1  0
 12 11  1  0
 12 13  1  0
 14 15  1  1
 14 13  1  0
 15 16  2  0
 15 17  1  0
 17 18  1  0
 18 23  1  0
 18 19  1  6
 20 19  1  0
 20 21  1  0
 21 22  2  0
 21 25  1  0
 23 26  2  0
 23 24  1  0
M  END
$$$$
