KPE.pdb
     RDKit          3D

 26 26  0  0  1  0  0  0  0  0999 V2000
   22.6977  -14.9848  -14.8958 N   0  0  0  0  0  0  0  0  0  0  0  0
   23.6655  -14.4698  -15.8025 C   0  0  1  0  0  0  0  0  0  0  0  0
   23.2118  -14.5915  -17.2599 C   0  0  0  0  0  0  0  0  0  0  0  0
   22.8791  -16.0229  -17.6008 C   0  0  0  0  0  0  0  0  0  0  0  0
   22.5866  -16.2292  -19.0587 C   0  0  0  0  0  0  0  0  0  0  0  0
   22.2950  -17.6755  -19.3902 C   0  0  0  0  0  0  0  0  0  0  0  0
   21.9312  -17.7144  -20.8017 N   0  0  0  0  0  0  0  0  0  0  0  0
   24.0871  -13.0734  -15.5685 C   0  0  0  0  0  0  0  0  0  0  0  0
   23.1309  -12.3145  -15.1369 O   0  0  0  0  0  0  0  0  0  0  0  0
   25.3734  -12.5325  -15.7668 N   0  0  0  0  0  0  0  0  0  0  0  0
   26.5588  -13.1763  -16.2454 C   0  0  0  0  0  0  0  0  0  0  0  0
   27.6533  -12.4619  -15.4301 C   0  0  0  0  0  0  0  0  0  0  0  0
   27.1967  -11.0328  -15.4989 C   0  0  0  0  0  0  0  0  0  0  0  0
   25.7059  -11.1325  -15.4837 C   0  0  1  0  0  0  0  0  0  0  0  0
   25.0536  -10.2101  -16.4255 C   0  0  0  0  0  0  0  0  0  0  0  0
   24.7835  -10.5514  -17.6009 O   0  0  0  0  0  0  0  0  0  0  0  0
   24.7154   -8.9016  -16.0108 N   0  0  0  0  0  0  0  0  0  0  0  0
   24.0138   -7.9803  -16.9278 C   0  0  1  0  0  0  0  0  0  0  0  0
   23.0369   -7.2074  -16.0935 C   0  0  0  0  0  0  0  0  0  0  0  0
   23.6338   -6.3897  -15.0058 C   0  0  0  0  0  0  0  0  0  0  0  0
   22.6170   -5.6586  -14.2222 C   0  0  0  0  0  0  0  0  0  0  0  0
   21.7473   -4.9102  -14.7219 O   0  0  0  0  0  0  0  0  0  0  0  0
   25.0213   -7.0526  -17.4884 C   0  0  0  0  0  0  0  0  0  0  0  0
   26.3181   -7.0623  -17.0145 O   0  0  0  0  0  0  0  0  0  0  0  0
   22.5910   -5.7846  -12.8287 O   0  0  0  0  0  0  0  0  0  0  0  0
   24.7374   -6.2382  -18.3988 O   0  0  0  0  0  0  0  0  0  0  0  0
  2  1  1  1
  2  8  1  0
  2  3  1  0
  4  3  1  0
  4  5  1  0
  5  6  1  0
  6  7  1  0
  8 10  1  0
  9  8  2  0
 10 14  1  0
 10 11  1  0
 12 11  1  0
 12 13  1  0
 14 15  1  6
 14 13  1  0
 15 16  2  0
 15 17  1  0
 17 18  1  0
 18 23  1  0
 18 19  1  1
 20 19  1  0
 20 21  1  0
 21 22  2  0
 21 25  1  0
 23 26  2  0
 23 24  1  0
M  END
$$$$
