IVG.pdb
     RDKit          3D

 20 19  0  0  1  0  0  0  0  0999 V2000
   20.5671  -20.7236   -9.8332 C   0  0  0  0  0  0  0  0  0  0  0  0
   21.9820  -21.1631   -9.5515 C   0  0  0  0  0  0  0  0  0  0  0  0
   22.9571  -20.3514  -10.3610 C   0  0  2  0  0  0  0  0  0  0  0  0
   22.6963  -20.4453  -11.8408 C   0  0  0  0  0  0  0  0  0  0  0  0
   24.3678  -20.8497  -10.1205 C   0  0  2  0  0  0  0  0  0  0  0  0
   24.6201  -20.6288   -8.6975 N   0  0  0  0  0  0  0  0  0  0  0  0
   25.3604  -20.1202  -10.9392 C   0  0  0  0  0  0  0  0  0  0  0  0
   25.7266  -18.9874  -10.5651 O   0  0  0  0  0  0  0  0  0  0  0  0
   29.1433  -20.3765  -13.9793 C   0  0  0  0  0  0  0  0  0  0  0  0
   28.0733  -20.7994  -13.0353 C   0  0  1  0  0  0  0  0  0  0  0  0
   28.7030  -20.9270  -11.6410 C   0  0  0  0  0  0  0  0  0  0  0  0
   26.8648  -19.9372  -12.9656 C   0  0  2  0  0  0  0  0  0  0  0  0
   25.9020  -20.6647  -12.1233 N   0  0  0  0  0  0  0  0  0  0  0  0
   26.2333  -19.5879  -14.2369 C   0  0  0  0  0  0  0  0  0  0  0  0
   25.5620  -20.4642  -14.8678 O   0  0  0  0  0  0  0  0  0  0  0  0
   26.3153  -18.3056  -14.8364 N   0  0  0  0  0  0  0  0  0  0  0  0
   25.5273  -18.0571  -16.0277 C   0  0  0  0  0  0  0  0  0  0  0  0
   26.1851  -18.4840  -17.2563 C   0  0  0  0  0  0  0  0  0  0  0  0
   27.4007  -18.7627  -17.2596 O   0  0  0  0  0  0  0  0  0  0  0  0
   25.4683  -18.5838  -18.4279 O   0  0  0  0  0  0  0  0  0  0  0  0
  1  2  1  0
  3  2  1  0
  3  5  1  0
  3  4  1  6
  5  7  1  0
  5  6  1  1
  7  8  2  0
  7 13  1  0
 10  9  1  6
 10 11  1  0
 12 14  1  0
 12 10  1  0
 12 13  1  1
 14 15  2  0
 16 14  1  0
 16 17  1  0
 17 18  1  0
 18 20  1  0
 19 18  2  0
M  END
$$$$
