IVG.pdb
     RDKit          3D

 20 19  0  0  1  0  0  0  0  0999 V2000
   27.1344  -19.9947   -2.9554 C   0  0  0  0  0  0  0  0  0  0  0  0
   28.0325  -19.8154   -4.1535 C   0  0  0  0  0  0  0  0  0  0  0  0
   27.2253  -19.8258   -5.4236 C   0  0  2  0  0  0  0  0  0  0  0  0
   26.4161  -21.0854   -5.5819 C   0  0  0  0  0  0  0  0  0  0  0  0
   28.1478  -19.7303   -6.6221 C   0  0  2  0  0  0  0  0  0  0  0  0
   28.9682  -18.5433   -6.3866 N   0  0  0  0  0  0  0  0  0  0  0  0
   27.3975  -19.5951   -7.8896 C   0  0  0  0  0  0  0  0  0  0  0  0
   26.8153  -18.5172   -8.1270 O   0  0  0  0  0  0  0  0  0  0  0  0
   27.0774  -21.3500  -12.5071 C   0  0  0  0  0  0  0  0  0  0  0  0
   27.5245  -21.3001  -11.0885 C   0  0  1  0  0  0  0  0  0  0  0  0
   28.9805  -20.8136  -11.0736 C   0  0  0  0  0  0  0  0  0  0  0  0
   26.7082  -20.4763  -10.1592 C   0  0  2  0  0  0  0  0  0  0  0  0
   27.3219  -20.6429   -8.8320 N   0  0  0  0  0  0  0  0  0  0  0  0
   25.2832  -20.7929  -10.0802 C   0  0  0  0  0  0  0  0  0  0  0  0
   24.9024  -21.8259   -9.4443 O   0  0  0  0  0  0  0  0  0  0  0  0
   24.2632  -20.0095  -10.6773 N   0  0  0  0  0  0  0  0  0  0  0  0
   22.8897  -20.4491  -10.5290 C   0  0  0  0  0  0  0  0  0  0  0  0
   22.3347  -21.0339  -11.7434 C   0  0  0  0  0  0  0  0  0  0  0  0
   23.0602  -21.2358  -12.7374 O   0  0  0  0  0  0  0  0  0  0  0  0
   21.0006  -21.3698  -11.8041 O   0  0  0  0  0  0  0  0  0  0  0  0
  1  2  1  0
  3  2  1  0
  3  5  1  0
  3  4  1  6
  5  7  1  0
  5  6  1  1
  7  8  2  0
  7 13  1  0
 10  9  1  6
 10 11  1  0
 12 14  1  0
 12 10  1  0
 12 13  1  1
 14 15  2  0
 16 14  1  0
 16 17  1  0
 17 18  1  0
 18 20  1  0
 19 18  2  0
M  END
$$$$
