IVG.pdb
     RDKit          3D

 20 19  0  0  1  0  0  0  0  0999 V2000
   20.5021  -21.0341  -10.4646 C   0  0  0  0  0  0  0  0  0  0  0  0
   21.8874  -21.3691   -9.9717 C   0  0  0  0  0  0  0  0  0  0  0  0
   22.9285  -20.7306  -10.8511 C   0  0  2  0  0  0  0  0  0  0  0  0
   22.8675  -21.2282  -12.2707 C   0  0  0  0  0  0  0  0  0  0  0  0
   24.3135  -21.0458  -10.3232 C   0  0  2  0  0  0  0  0  0  0  0  0
   24.3274  -20.5482   -8.9486 N   0  0  0  0  0  0  0  0  0  0  0  0
   25.3729  -20.3892  -11.1197 C   0  0  0  0  0  0  0  0  0  0  0  0
   25.5479  -19.1611  -10.9837 O   0  0  0  0  0  0  0  0  0  0  0  0
   29.7285  -20.4803  -13.0832 C   0  0  0  0  0  0  0  0  0  0  0  0
   28.5092  -21.0224  -12.4242 C   0  0  1  0  0  0  0  0  0  0  0  0
   28.6741  -20.8363  -10.9093 C   0  0  0  0  0  0  0  0  0  0  0  0
   27.2060  -20.4583  -12.8626 C   0  0  2  0  0  0  0  0  0  0  0  0
   26.1862  -21.1067  -12.0227 N   0  0  0  0  0  0  0  0  0  0  0  0
   26.8572  -20.6294  -14.2719 C   0  0  0  0  0  0  0  0  0  0  0  0
   27.4990  -21.4664  -14.9818 O   0  0  0  0  0  0  0  0  0  0  0  0
   25.8246  -19.9103  -14.9254 N   0  0  0  0  0  0  0  0  0  0  0  0
   25.5367  -20.2348  -16.3088 C   0  0  0  0  0  0  0  0  0  0  0  0
   26.0511  -19.2509  -17.2533 C   0  0  0  0  0  0  0  0  0  0  0  0
   27.0587  -18.5715  -16.9735 O   0  0  0  0  0  0  0  0  0  0  0  0
   25.4273  -19.0623  -18.4664 O   0  0  0  0  0  0  0  0  0  0  0  0
  1  2  1  0
  3  2  1  0
  3  5  1  0
  3  4  1  6
  5  7  1  0
  5  6  1  1
  7  8  2  0
  7 13  1  0
 10  9  1  6
 10 11  1  0
 12 14  1  0
 12 10  1  0
 12 13  1  1
 14 15  2  0
 16 14  1  0
 16 17  1  0
 17 18  1  0
 18 20  1  0
 19 18  2  0
M  END
$$$$
