IVG.pdb
     RDKit          3D

 20 19  0  0  1  0  0  0  0  0999 V2000
   23.6977  -11.0890  -19.8087 C   0  0  0  0  0  0  0  0  0  0  0  0
   22.4894  -11.4782  -18.9946 C   0  0  0  0  0  0  0  0  0  0  0  0
   21.8307  -10.2568  -18.4120 C   0  0  2  0  0  0  0  0  0  0  0  0
   22.7655   -9.4560  -17.5450 C   0  0  0  0  0  0  0  0  0  0  0  0
   20.6559  -10.6671  -17.5473 C   0  0  2  0  0  0  0  0  0  0  0  0
   19.8522  -11.5584  -18.3822 N   0  0  0  0  0  0  0  0  0  0  0  0
   19.8527   -9.5027  -17.1148 C   0  0  0  0  0  0  0  0  0  0  0  0
   19.4369   -8.7083  -17.9828 O   0  0  0  0  0  0  0  0  0  0  0  0
   16.6409   -9.4349  -15.9205 C   0  0  0  0  0  0  0  0  0  0  0  0
   17.4254   -8.7091  -14.8849 C   0  0  1  0  0  0  0  0  0  0  0  0
   17.6496   -9.6700  -13.7089 C   0  0  0  0  0  0  0  0  0  0  0  0
   18.7236   -8.1278  -15.3156 C   0  0  2  0  0  0  0  0  0  0  0  0
   19.5448   -9.2660  -15.7580 N   0  0  0  0  0  0  0  0  0  0  0  0
   19.4601   -7.3545  -14.3172 C   0  0  0  0  0  0  0  0  0  0  0  0
   18.9100   -6.3475  -13.7699 O   0  0  0  0  0  0  0  0  0  0  0  0
   20.7821   -7.6537  -13.9007 N   0  0  0  0  0  0  0  0  0  0  0  0
   21.3760   -6.8274  -12.8681 C   0  0  0  0  0  0  0  0  0  0  0  0
   21.9468   -5.5864  -13.3767 C   0  0  0  0  0  0  0  0  0  0  0  0
   21.8027   -5.2673  -14.5737 O   0  0  0  0  0  0  0  0  0  0  0  0
   22.6523   -4.7527  -12.5379 O   0  0  0  0  0  0  0  0  0  0  0  0
  1  2  1  0
  3  2  1  0
  3  5  1  0
  3  4  1  1
  5  7  1  0
  5  6  1  6
  7  8  2  0
  7 13  1  0
 10  9  1  6
 10 11  1  0
 12 14  1  0
 12 10  1  0
 12 13  1  1
 14 15  2  0
 16 14  1  0
 16 17  1  0
 17 18  1  0
 18 20  1  0
 19 18  2  0
M  END
$$$$
