IVG.pdb
     RDKit          3D

 20 19  0  0  1  0  0  0  0  0999 V2000
   25.1577  -21.0427   -8.1893 C   0  0  0  0  0  0  0  0  0  0  0  0
   25.9817  -20.2434   -9.1673 C   0  0  0  0  0  0  0  0  0  0  0  0
   25.2053  -19.9970  -10.4329 C   0  0  2  0  0  0  0  0  0  0  0  0
   23.7230  -19.8977  -10.1895 C   0  0  0  0  0  0  0  0  0  0  0  0
   25.4261  -21.1390  -11.4042 C   0  0  2  0  0  0  0  0  0  0  0  0
   26.8746  -21.2197  -11.5855 N   0  0  0  0  0  0  0  0  0  0  0  0
   24.7568  -20.9005  -12.7014 C   0  0  0  0  0  0  0  0  0  0  0  0
   25.1133  -19.9200  -13.3861 O   0  0  0  0  0  0  0  0  0  0  0  0
   22.4703  -22.5667  -16.6186 C   0  0  0  0  0  0  0  0  0  0  0  0
   23.1779  -22.6029  -15.3099 C   0  0  1  0  0  0  0  0  0  0  0  0
   24.6770  -22.7735  -15.5931 C   0  0  0  0  0  0  0  0  0  0  0  0
   22.9648  -21.4451  -14.4028 C   0  0  2  0  0  0  0  0  0  0  0  0
   23.7337  -21.7443  -13.1842 N   0  0  0  0  0  0  0  0  0  0  0  0
   21.5813  -21.1390  -14.0430 C   0  0  0  0  0  0  0  0  0  0  0  0
   20.9327  -21.9401  -13.2987 O   0  0  0  0  0  0  0  0  0  0  0  0
   20.8885  -19.9795  -14.4744 N   0  0  0  0  0  0  0  0  0  0  0  0
   19.5125  -19.8092  -14.0509 C   0  0  0  0  0  0  0  0  0  0  0  0
   18.5446  -20.3520  -14.9960 C   0  0  0  0  0  0  0  0  0  0  0  0
   18.9083  -21.1383  -15.8931 O   0  0  0  0  0  0  0  0  0  0  0  0
   17.2161  -20.0006  -14.9066 O   0  0  0  0  0  0  0  0  0  0  0  0
  1  2  1  0
  3  2  1  0
  3  5  1  0
  3  4  1  1
  5  7  1  0
  5  6  1  6
  7  8  2  0
  7 13  1  0
 10  9  1  6
 10 11  1  0
 12 14  1  0
 12 10  1  0
 12 13  1  1
 14 15  2  0
 16 14  1  0
 16 17  1  0
 17 18  1  0
 18 20  1  0
 19 18  2  0
M  END
$$$$
