IVG.pdb
     RDKit          3D

 20 19  0  0  1  0  0  0  0  0999 V2000
   20.7189  -21.0411  -10.3129 C   0  0  0  0  0  0  0  0  0  0  0  0
   22.1269  -21.2538   -9.8162 C   0  0  0  0  0  0  0  0  0  0  0  0
   23.1198  -20.6467  -10.7705 C   0  0  2  0  0  0  0  0  0  0  0  0
   22.9994  -21.2085  -12.1621 C   0  0  0  0  0  0  0  0  0  0  0  0
   24.5308  -20.9255  -10.2934 C   0  0  2  0  0  0  0  0  0  0  0  0
   24.6088  -20.3467   -8.9532 N   0  0  0  0  0  0  0  0  0  0  0  0
   25.5460  -20.3143  -11.1786 C   0  0  0  0  0  0  0  0  0  0  0  0
   25.6802  -19.0737  -11.1662 O   0  0  0  0  0  0  0  0  0  0  0  0
   29.8628  -20.7075  -13.3194 C   0  0  0  0  0  0  0  0  0  0  0  0
   28.6718  -21.0831  -12.5099 C   0  0  1  0  0  0  0  0  0  0  0  0
   28.9671  -20.7216  -11.0475 C   0  0  0  0  0  0  0  0  0  0  0  0
   27.3711  -20.4940  -12.9221 C   0  0  2  0  0  0  0  0  0  0  0  0
   26.3621  -21.0886  -12.0309 N   0  0  0  0  0  0  0  0  0  0  0  0
   26.9709  -20.6948  -14.3137 C   0  0  0  0  0  0  0  0  0  0  0  0
   26.7301  -21.8696  -14.7360 O   0  0  0  0  0  0  0  0  0  0  0  0
   26.8260  -19.6450  -15.2557 N   0  0  0  0  0  0  0  0  0  0  0  0
   26.3745  -19.9835  -16.5912 C   0  0  0  0  0  0  0  0  0  0  0  0
   26.2347  -18.8259  -17.4658 C   0  0  0  0  0  0  0  0  0  0  0  0
   26.2315  -17.6720  -16.9929 O   0  0  0  0  0  0  0  0  0  0  0  0
   26.1045  -18.9964  -18.8261 O   0  0  0  0  0  0  0  0  0  0  0  0
  1  2  1  0
  3  2  1  0
  3  5  1  0
  3  4  1  6
  5  7  1  0
  5  6  1  1
  7  8  2  0
  7 13  1  0
 10  9  1  6
 10 11  1  0
 12 14  1  0
 12 10  1  0
 12 13  1  1
 14 15  2  0
 16 14  1  0
 16 17  1  0
 17 18  1  0
 18 20  1  0
 19 18  2  0
M  END
$$$$
