IVG.pdb
     RDKit          3D

 20 19  0  0  1  0  0  0  0  0999 V2000
   32.1959  -22.2623  -10.2752 C   0  0  0  0  0  0  0  0  0  0  0  0
   31.4383  -22.1594  -11.5752 C   0  0  0  0  0  0  0  0  0  0  0  0
   30.2125  -21.3031  -11.4045 C   0  0  2  0  0  0  0  0  0  0  0  0
   29.2666  -21.8506  -10.3691 C   0  0  0  0  0  0  0  0  0  0  0  0
   29.4513  -21.2252  -12.7125 C   0  0  2  0  0  0  0  0  0  0  0  0
   30.3561  -20.5606  -13.6490 N   0  0  0  0  0  0  0  0  0  0  0  0
   28.1944  -20.4573  -12.5774 C   0  0  0  0  0  0  0  0  0  0  0  0
   28.2630  -19.2193  -12.4369 O   0  0  0  0  0  0  0  0  0  0  0  0
   23.5076  -19.9109  -13.5980 C   0  0  0  0  0  0  0  0  0  0  0  0
   24.8796  -20.4872  -13.6110 C   0  0  1  0  0  0  0  0  0  0  0  0
   25.6397  -19.8595  -14.7878 C   0  0  0  0  0  0  0  0  0  0  0  0
   25.6755  -20.3459  -12.3639 C   0  0  2  0  0  0  0  0  0  0  0  0
   26.9282  -21.0802  -12.6030 N   0  0  0  0  0  0  0  0  0  0  0  0
   25.0556  -20.8286  -11.1311 C   0  0  0  0  0  0  0  0  0  0  0  0
   24.9364  -22.0790  -10.9344 O   0  0  0  0  0  0  0  0  0  0  0  0
   24.5633  -19.9804  -10.1070 N   0  0  0  0  0  0  0  0  0  0  0  0
   24.0245  -20.5965   -8.9104 C   0  0  0  0  0  0  0  0  0  0  0  0
   22.6046  -20.9108   -9.0103 C   0  0  0  0  0  0  0  0  0  0  0  0
   21.9887  -20.7244  -10.0785 O   0  0  0  0  0  0  0  0  0  0  0  0
   21.9286  -21.4178   -7.9229 O   0  0  0  0  0  0  0  0  0  0  0  0
  1  2  1  0
  3  2  1  0
  3  5  1  0
  3  4  1  1
  5  7  1  0
  5  6  1  6
  7  8  2  0
  7 13  1  0
 10  9  1  1
 10 11  1  0
 12 14  1  0
 12 10  1  0
 12 13  1  6
 14 15  2  0
 16 14  1  0
 16 17  1  0
 17 18  1  0
 18 20  1  0
 19 18  2  0
M  END
$$$$
