IVG.pdb
     RDKit          3D

 20 19  0  0  1  0  0  0  0  0999 V2000
   28.2737  -13.1840  -15.5780 C   0  0  0  0  0  0  0  0  0  0  0  0
   26.7850  -13.1980  -15.3377 C   0  0  0  0  0  0  0  0  0  0  0  0
   26.1577  -11.9263  -15.8422 C   0  0  2  0  0  0  0  0  0  0  0  0
   26.6536  -10.7087  -15.1088 C   0  0  0  0  0  0  0  0  0  0  0  0
   24.6550  -11.9829  -15.6554 C   0  0  2  0  0  0  0  0  0  0  0  0
   24.2355  -13.2443  -16.2640 N   0  0  0  0  0  0  0  0  0  0  0  0
   23.9723  -10.8441  -16.3071 C   0  0  0  0  0  0  0  0  0  0  0  0
   23.7453  -10.9057  -17.5327 O   0  0  0  0  0  0  0  0  0  0  0  0
   20.3125   -8.4080  -16.9096 C   0  0  0  0  0  0  0  0  0  0  0  0
   21.4187   -9.2977  -16.4627 C   0  0  1  0  0  0  0  0  0  0  0  0
   21.6048  -10.3852  -17.5302 C   0  0  0  0  0  0  0  0  0  0  0  0
   22.7232   -8.6476  -16.1725 C   0  0  2  0  0  0  0  0  0  0  0  0
   23.5725   -9.6976  -15.5877 N   0  0  0  0  0  0  0  0  0  0  0  0
   22.6959   -7.4899  -15.2802 C   0  0  0  0  0  0  0  0  0  0  0  0
   22.3504   -7.6395  -14.0659 O   0  0  0  0  0  0  0  0  0  0  0  0
   23.0372   -6.1731  -15.6803 N   0  0  0  0  0  0  0  0  0  0  0  0
   23.0699   -5.1382  -14.6655 C   0  0  0  0  0  0  0  0  0  0  0  0
   21.7746   -4.5099  -14.4375 C   0  0  0  0  0  0  0  0  0  0  0  0
   20.7872   -4.8255  -15.1308 O   0  0  0  0  0  0  0  0  0  0  0  0
   21.6290   -3.5593  -13.4518 O   0  0  0  0  0  0  0  0  0  0  0  0
  1  2  1  0
  3  2  1  0
  3  5  1  0
  3  4  1  1
  5  7  1  0
  5  6  1  6
  7  8  2  0
  7 13  1  0
 10  9  1  6
 10 11  1  0
 12 14  1  0
 12 10  1  0
 12 13  1  1
 14 15  2  0
 16 14  1  0
 16 17  1  0
 17 18  1  0
 18 20  1  0
 19 18  2  0
M  END
$$$$
