IVG.pdb
     RDKit          3D

 20 19  0  0  1  0  0  0  0  0999 V2000
   18.3194  -20.8842  -11.8604 C   0  0  0  0  0  0  0  0  0  0  0  0
   19.5590  -21.2732  -11.0946 C   0  0  0  0  0  0  0  0  0  0  0  0
   20.7739  -20.6110  -11.6866 C   0  0  2  0  0  0  0  0  0  0  0  0
   20.9689  -20.9574  -13.1387 C   0  0  0  0  0  0  0  0  0  0  0  0
   22.0179  -21.0590  -10.9463 C   0  0  2  0  0  0  0  0  0  0  0  0
   21.7964  -20.6816   -9.5514 N   0  0  0  0  0  0  0  0  0  0  0  0
   23.2386  -20.4074  -11.4689 C   0  0  0  0  0  0  0  0  0  0  0  0
   23.4115  -19.1927  -11.2412 O   0  0  0  0  0  0  0  0  0  0  0  0
   27.9082  -21.1105  -12.7897 C   0  0  0  0  0  0  0  0  0  0  0  0
   26.5468  -21.4106  -12.2687 C   0  0  1  0  0  0  0  0  0  0  0  0
   26.6311  -21.4528  -10.7364 C   0  0  0  0  0  0  0  0  0  0  0  0
   25.4540  -20.4950  -12.6884 C   0  0  2  0  0  0  0  0  0  0  0  0
   24.2072  -21.1152  -12.2125 N   0  0  0  0  0  0  0  0  0  0  0  0
   25.3442  -20.2164  -14.1193 C   0  0  0  0  0  0  0  0  0  0  0  0
   26.1971  -19.4584  -14.6801 O   0  0  0  0  0  0  0  0  0  0  0  0
   24.3271  -20.7454  -14.9537 N   0  0  0  0  0  0  0  0  0  0  0  0
   24.3498  -20.3989  -16.3613 C   0  0  0  0  0  0  0  0  0  0  0  0
   23.3623  -19.3904  -16.7252 C   0  0  0  0  0  0  0  0  0  0  0  0
   22.5923  -18.9191  -15.8649 O   0  0  0  0  0  0  0  0  0  0  0  0
   23.2704  -18.9478  -18.0260 O   0  0  0  0  0  0  0  0  0  0  0  0
  1  2  1  0
  3  2  1  0
  3  5  1  0
  3  4  1  6
  5  7  1  0
  5  6  1  1
  7  8  2  0
  7 13  1  0
 10  9  1  6
 10 11  1  0
 12 14  1  0
 12 10  1  0
 12 13  1  6
 14 15  2  0
 16 14  1  0
 16 17  1  0
 17 18  1  0
 18 20  1  0
 19 18  2  0
M  END
$$$$
