IVG.pdb
     RDKit          3D

 20 19  0  0  1  0  0  0  0  0999 V2000
   24.3545  -15.4209  -16.4514 C   0  0  0  0  0  0  0  0  0  0  0  0
   24.6229  -14.0244  -15.9493 C   0  0  0  0  0  0  0  0  0  0  0  0
   23.7803  -13.0250  -16.6952 C   0  0  2  0  0  0  0  0  0  0  0  0
   24.0268  -13.0575  -18.1800 C   0  0  0  0  0  0  0  0  0  0  0  0
   24.0985  -11.6228  -16.2170 C   0  0  2  0  0  0  0  0  0  0  0  0
   23.9198  -11.6576  -14.7664 N   0  0  0  0  0  0  0  0  0  0  0  0
   23.2023  -10.6140  -16.8226 C   0  0  0  0  0  0  0  0  0  0  0  0
   23.3132  -10.3714  -18.0416 O   0  0  0  0  0  0  0  0  0  0  0  0
   19.5931  -10.7442  -16.9028 C   0  0  0  0  0  0  0  0  0  0  0  0
   19.9524   -9.3991  -16.3769 C   0  0  1  0  0  0  0  0  0  0  0  0
   19.7000   -9.4060  -14.8627 C   0  0  0  0  0  0  0  0  0  0  0  0
   21.3309   -8.9189  -16.6560 C   0  0  2  0  0  0  0  0  0  0  0  0
   22.2315   -9.9226  -16.0666 N   0  0  0  0  0  0  0  0  0  0  0  0
   21.6798   -7.5932  -16.1481 C   0  0  0  0  0  0  0  0  0  0  0  0
   21.1116   -6.5642  -16.6325 O   0  0  0  0  0  0  0  0  0  0  0  0
   22.6328   -7.3628  -15.1238 N   0  0  0  0  0  0  0  0  0  0  0  0
   22.8618   -5.9956  -14.6994 C   0  0  0  0  0  0  0  0  0  0  0  0
   22.0713   -5.6103  -13.5369 C   0  0  0  0  0  0  0  0  0  0  0  0
   21.2207   -6.3897  -13.0633 O   0  0  0  0  0  0  0  0  0  0  0  0
   22.2572   -4.3788  -12.9493 O   0  0  0  0  0  0  0  0  0  0  0  0
  1  2  1  0
  3  2  1  0
  3  5  1  0
  3  4  1  6
  5  7  1  0
  5  6  1  1
  7  8  2  0
  7 13  1  0
 10  9  1  1
 10 11  1  0
 12 14  1  0
 12 10  1  0
 12 13  1  1
 14 15  2  0
 16 14  1  0
 16 17  1  0
 17 18  1  0
 18 20  1  0
 19 18  2  0
M  END
$$$$
