IVG.pdb
     RDKit          3D

 20 19  0  0  1  0  0  0  0  0999 V2000
   26.2209  -18.5980  -16.5992 C   0  0  0  0  0  0  0  0  0  0  0  0
   25.7843  -17.5510  -15.6054 C   0  0  0  0  0  0  0  0  0  0  0  0
   25.5642  -16.2307  -16.2933 C   0  0  2  0  0  0  0  0  0  0  0  0
   26.8106  -15.7139  -16.9611 C   0  0  0  0  0  0  0  0  0  0  0  0
   25.1305  -15.1883  -15.2825 C   0  0  2  0  0  0  0  0  0  0  0  0
   23.9670  -15.7621  -14.6084 N   0  0  0  0  0  0  0  0  0  0  0  0
   24.7722  -13.9063  -15.9274 C   0  0  0  0  0  0  0  0  0  0  0  0
   25.6749  -13.2393  -16.4728 O   0  0  0  0  0  0  0  0  0  0  0  0
   20.7772  -13.1692  -17.0107 C   0  0  0  0  0  0  0  0  0  0  0  0
   21.9967  -12.5331  -17.5792 C   0  0  1  0  0  0  0  0  0  0  0  0
   21.5537  -11.2901  -18.3637 C   0  0  0  0  0  0  0  0  0  0  0  0
   23.0692  -12.1668  -16.6178 C   0  0  2  0  0  0  0  0  0  0  0  0
   23.4477  -13.4192  -15.9440 N   0  0  0  0  0  0  0  0  0  0  0  0
   22.7355  -11.1561  -15.6157 C   0  0  0  0  0  0  0  0  0  0  0  0
   21.9957  -11.4676  -14.6297 O   0  0  0  0  0  0  0  0  0  0  0  0
   23.1901   -9.8138  -15.6624 N   0  0  0  0  0  0  0  0  0  0  0  0
   22.9297   -8.9645  -14.5167 C   0  0  0  0  0  0  0  0  0  0  0  0
   21.9082   -7.9548  -14.7648 C   0  0  0  0  0  0  0  0  0  0  0  0
   21.3094   -7.9155  -15.8581 O   0  0  0  0  0  0  0  0  0  0  0  0
   21.5941   -7.0324  -13.7916 O   0  0  0  0  0  0  0  0  0  0  0  0
  1  2  1  0
  3  2  1  0
  3  5  1  0
  3  4  1  1
  5  7  1  0
  5  6  1  6
  7  8  2  0
  7 13  1  0
 10  9  1  1
 10 11  1  0
 12 14  1  0
 12 10  1  0
 12 13  1  1
 14 15  2  0
 16 14  1  0
 16 17  1  0
 17 18  1  0
 18 20  1  0
 19 18  2  0
M  END
$$$$
