IVG.pdb
     RDKit          3D

 20 19  0  0  1  0  0  0  0  0999 V2000
   28.0995  -14.0411  -15.8482 C   0  0  0  0  0  0  0  0  0  0  0  0
   26.6107  -14.0408  -15.6075 C   0  0  0  0  0  0  0  0  0  0  0  0
   26.0046  -12.7383  -16.0559 C   0  0  2  0  0  0  0  0  0  0  0  0
   26.5421  -11.5587  -15.2903 C   0  0  0  0  0  0  0  0  0  0  0  0
   24.5046  -12.7669  -15.8431 C   0  0  2  0  0  0  0  0  0  0  0  0
   24.0336  -13.9515  -16.5588 N   0  0  0  0  0  0  0  0  0  0  0  0
   23.8468  -11.5512  -16.3697 C   0  0  0  0  0  0  0  0  0  0  0  0
   23.9553  -11.2925  -17.5857 O   0  0  0  0  0  0  0  0  0  0  0  0
   20.8515  -10.9953  -17.2916 C   0  0  0  0  0  0  0  0  0  0  0  0
   21.0437   -9.8623  -16.3458 C   0  0  1  0  0  0  0  0  0  0  0  0
   20.3170  -10.2144  -15.0402 C   0  0  0  0  0  0  0  0  0  0  0  0
   22.4461   -9.4680  -16.0517 C   0  0  2  0  0  0  0  0  0  0  0  0
   23.1047  -10.6814  -15.5423 N   0  0  0  0  0  0  0  0  0  0  0  0
   22.6349   -8.3749  -15.0996 C   0  0  0  0  0  0  0  0  0  0  0  0
   22.6587   -8.6233  -13.8529 O   0  0  0  0  0  0  0  0  0  0  0  0
   22.7994   -7.0173  -15.4744 N   0  0  0  0  0  0  0  0  0  0  0  0
   23.0395   -6.0442  -14.4269 C   0  0  0  0  0  0  0  0  0  0  0  0
   21.8195   -5.4348  -13.9122 C   0  0  0  0  0  0  0  0  0  0  0  0
   20.7040   -5.7941  -14.3385 O   0  0  0  0  0  0  0  0  0  0  0  0
   21.8879   -4.4540  -12.9479 O   0  0  0  0  0  0  0  0  0  0  0  0
  1  2  1  0
  3  2  1  0
  3  5  1  0
  3  4  1  1
  5  7  1  0
  5  6  1  6
  7  8  2  0
  7 13  1  0
 10  9  1  6
 10 11  1  0
 12 14  1  0
 12 10  1  0
 12 13  1  1
 14 15  2  0
 16 14  1  0
 16 17  1  0
 17 18  1  0
 18 20  1  0
 19 18  2  0
M  END
$$$$
