MEN.pdb
     RDKit          3D

 26 25  0  0  1  0  0  0  0  0999 V2000
    8.4077  -11.6404   20.8158 C   0  0  0  0  0  0  0  0  0  0  0  0
    7.1532  -12.4104   19.8174 S   0  0  0  0  0  0  0  0  0  0  0  0
    7.4283  -14.1324   19.5209 C   0  0  0  0  0  0  0  0  0  0  0  0
    8.2395  -14.8736   20.4908 C   0  0  0  0  0  0  0  0  0  0  0  0
    8.5627  -16.2905   20.1834 C   0  0  2  0  0  0  0  0  0  0  0  0
    7.4249  -17.0893   19.8455 N   0  0  0  0  0  0  0  0  0  0  0  0
    9.3422  -16.9306   21.3100 C   0  0  0  0  0  0  0  0  0  0  0  0
    8.6850  -17.5164   22.1829 O   0  0  0  0  0  0  0  0  0  0  0  0
   10.7499  -16.8750   21.3821 N   0  0  0  0  0  0  0  0  0  0  0  0
   11.5443  -17.4317   22.4760 C   0  0  1  0  0  0  0  0  0  0  0  0
   12.9681  -17.5902   22.1096 C   0  0  0  0  0  0  0  0  0  0  0  0
   13.1849  -18.6736   21.1074 C   0  0  0  0  0  0  0  0  0  0  0  0
   14.5918  -18.7897   20.6834 C   0  0  0  0  0  0  0  0  0  0  0  0
   15.1569  -17.9271   19.9938 O   0  0  0  0  0  0  0  0  0  0  0  0
   11.4647  -16.4403   23.5854 C   0  0  0  0  0  0  0  0  0  0  0  0
   11.3356  -15.2003   23.4304 O   0  0  0  0  0  0  0  0  0  0  0  0
   15.3519  -19.9039   21.0550 O   0  0  0  0  0  0  0  0  0  0  0  0
    9.7150  -14.5230   27.9515 N   0  0  0  0  0  0  0  0  0  0  0  0
    9.0310  -14.8519   26.7490 C   0  0  0  0  0  0  0  0  0  0  0  0
    7.8547  -14.4566   26.6339 O   0  0  0  0  0  0  0  0  0  0  0  0
    9.7389  -15.6205   25.7391 C   0  0  0  0  0  0  0  0  0  0  0  0
   11.1284  -16.0534   26.0490 C   0  0  2  0  0  0  0  0  0  0  0  0
   11.5373  -16.9024   24.9170 N   0  0  0  0  0  0  0  0  0  0  0  0
   11.3195  -16.7655   27.3103 C   0  0  0  0  0  0  0  0  0  0  0  0
   11.6850  -16.1875   28.3454 O   0  0  0  0  0  0  0  0  0  0  0  0
   11.0872  -18.1296   27.3600 O   0  0  0  0  0  0  0  0  0  0  0  0
  2  1  1  0
  3  4  1  0
  3  2  1  0
  4  5  1  0
  5  6  1  1
  7  9  1  0
  7  5  1  0
  8  7  2  0
 10  9  1  0
 10 11  1  6
 11 12  1  0
 13 17  1  0
 13 12  1  0
 14 13  2  0
 15 10  1  0
 16 15  2  0
 18 19  1  0
 19 20  2  0
 19 21  1  0
 22 21  1  6
 22 23  1  0
 23 15  1  0
 24 22  1  0
 25 24  2  0
 26 24  1  0
M  END
$$$$
