MEN.pdb
     RDKit          3D

 26 25  0  0  1  0  0  0  0  0999 V2000
    7.9053  -11.6719   27.1088 C   0  0  0  0  0  0  0  0  0  0  0  0
    6.4263  -12.1829   26.2631 S   0  0  0  0  0  0  0  0  0  0  0  0
    6.0394  -13.8971   26.4658 C   0  0  0  0  0  0  0  0  0  0  0  0
    7.0311  -14.8805   26.0215 C   0  0  0  0  0  0  0  0  0  0  0  0
    6.7249  -15.6690   24.8004 C   0  0  2  0  0  0  0  0  0  0  0  0
    5.5162  -16.4300   24.8842 N   0  0  0  0  0  0  0  0  0  0  0  0
    7.8855  -16.5604   24.4195 C   0  0  0  0  0  0  0  0  0  0  0  0
    8.0419  -17.5920   25.0890 O   0  0  0  0  0  0  0  0  0  0  0  0
    8.7594  -16.2504   23.3564 N   0  0  0  0  0  0  0  0  0  0  0  0
    9.9134  -17.0614   22.9716 C   0  0  1  0  0  0  0  0  0  0  0  0
   10.5893  -16.5366   21.7657 C   0  0  0  0  0  0  0  0  0  0  0  0
   11.7076  -17.4117   21.3088 C   0  0  0  0  0  0  0  0  0  0  0  0
   12.3202  -16.9498   20.0503 C   0  0  0  0  0  0  0  0  0  0  0  0
   13.3875  -16.3183   20.0171 O   0  0  0  0  0  0  0  0  0  0  0  0
   10.8724  -16.9740   24.1085 C   0  0  0  0  0  0  0  0  0  0  0  0
   11.0744  -15.9434   24.7979 O   0  0  0  0  0  0  0  0  0  0  0  0
   11.7014  -17.2160   18.8241 O   0  0  0  0  0  0  0  0  0  0  0  0
   11.9851  -19.2915   28.5375 N   0  0  0  0  0  0  0  0  0  0  0  0
   10.7319  -18.9162   27.9803 C   0  0  0  0  0  0  0  0  0  0  0  0
    9.7391  -18.9476   28.7330 O   0  0  0  0  0  0  0  0  0  0  0  0
   10.6869  -18.5233   26.5819 C   0  0  0  0  0  0  0  0  0  0  0  0
   11.9803  -18.4066   25.8556 C   0  0  2  0  0  0  0  0  0  0  0  0
   11.6209  -18.1188   24.4565 N   0  0  0  0  0  0  0  0  0  0  0  0
   12.8678  -19.5653   25.9217 C   0  0  0  0  0  0  0  0  0  0  0  0
   13.3226  -19.9874   26.9961 O   0  0  0  0  0  0  0  0  0  0  0  0
   13.2171  -20.2187   24.7521 O   0  0  0  0  0  0  0  0  0  0  0  0
  2  1  1  0
  3  4  1  0
  3  2  1  0
  4  5  1  0
  5  6  1  1
  7  9  1  0
  7  5  1  0
  8  7  2  0
 10  9  1  0
 10 11  1  6
 11 12  1  0
 13 17  1  0
 13 12  1  0
 14 13  2  0
 15 10  1  0
 16 15  2  0
 18 19  1  0
 19 20  2  0
 19 21  1  0
 22 21  1  1
 22 23  1  0
 23 15  1  0
 24 22  1  0
 25 24  2  0
 26 24  1  0
M  END
$$$$
