MEN.pdb
     RDKit          3D

 26 25  0  0  1  0  0  0  0  0999 V2000
    7.5739  -11.1674   25.9736 C   0  0  0  0  0  0  0  0  0  0  0  0
    6.1086  -12.1086   26.3354 S   0  0  0  0  0  0  0  0  0  0  0  0
    5.9749  -13.6118   25.4126 C   0  0  0  0  0  0  0  0  0  0  0  0
    7.1016  -14.5479   25.4609 C   0  0  0  0  0  0  0  0  0  0  0  0
    6.9887  -15.8074   24.6815 C   0  0  2  0  0  0  0  0  0  0  0  0
    5.8238  -16.5804   24.9859 N   0  0  0  0  0  0  0  0  0  0  0  0
    8.2351  -16.6519   24.8230 C   0  0  0  0  0  0  0  0  0  0  0  0
    8.2303  -17.5112   25.7166 O   0  0  0  0  0  0  0  0  0  0  0  0
    9.3597  -16.4852   23.9879 N   0  0  0  0  0  0  0  0  0  0  0  0
   10.6621  -17.1072   24.2212 C   0  0  1  0  0  0  0  0  0  0  0  0
   11.5770  -16.9385   23.0719 C   0  0  0  0  0  0  0  0  0  0  0  0
   11.0353  -17.5336   21.8158 C   0  0  0  0  0  0  0  0  0  0  0  0
   11.8380  -17.1937   20.6273 C   0  0  0  0  0  0  0  0  0  0  0  0
   12.9114  -17.7557   20.3608 O   0  0  0  0  0  0  0  0  0  0  0  0
   11.2542  -16.3922   25.3865 C   0  0  0  0  0  0  0  0  0  0  0  0
   10.9617  -15.2205   25.7324 O   0  0  0  0  0  0  0  0  0  0  0  0
   11.4032  -16.2022   19.7411 O   0  0  0  0  0  0  0  0  0  0  0  0
   11.3935  -14.8808   29.0029 N   0  0  0  0  0  0  0  0  0  0  0  0
   10.3033  -15.6592   28.5259 C   0  0  0  0  0  0  0  0  0  0  0  0
    9.1566  -15.2015   28.6955 O   0  0  0  0  0  0  0  0  0  0  0  0
   10.5909  -16.9271   27.8765 C   0  0  0  0  0  0  0  0  0  0  0  0
   12.0176  -17.2636   27.6204 C   0  0  2  0  0  0  0  0  0  0  0  0
   12.2166  -17.0580   26.1756 N   0  0  0  0  0  0  0  0  0  0  0  0
   12.4458  -18.6067   28.0040 C   0  0  0  0  0  0  0  0  0  0  0  0
   12.3193  -19.0339   29.1618 O   0  0  0  0  0  0  0  0  0  0  0  0
   13.0120  -19.4354   27.0502 O   0  0  0  0  0  0  0  0  0  0  0  0
  2  1  1  0
  3  4  1  0
  3  2  1  0
  4  5  1  0
  5  6  1  1
  7  9  1  0
  7  5  1  0
  8  7  2  0
 10  9  1  0
 10 11  1  6
 11 12  1  0
 13 17  1  0
 13 12  1  0
 14 13  2  0
 15 10  1  0
 16 15  2  0
 18 19  1  0
 19 20  2  0
 19 21  1  0
 22 21  1  6
 22 23  1  0
 23 15  1  0
 24 22  1  0
 25 24  2  0
 26 24  1  0
M  END
$$$$
