MEN.pdb
     RDKit          3D

 26 25  0  0  1  0  0  0  0  0999 V2000
    6.8554  -11.8577   21.6354 C   0  0  0  0  0  0  0  0  0  0  0  0
    6.8517  -11.8284   19.8570 S   0  0  0  0  0  0  0  0  0  0  0  0
    7.3542  -13.3526   19.1129 C   0  0  0  0  0  0  0  0  0  0  0  0
    8.1591  -14.2755   19.9181 C   0  0  0  0  0  0  0  0  0  0  0  0
    8.5246  -15.5825   19.3142 C   0  0  2  0  0  0  0  0  0  0  0  0
    7.4052  -16.3521   18.8651 N   0  0  0  0  0  0  0  0  0  0  0  0
    9.3839  -16.3981   20.2539 C   0  0  0  0  0  0  0  0  0  0  0  0
    8.8026  -17.2367   20.9581 O   0  0  0  0  0  0  0  0  0  0  0  0
   10.7817  -16.2280   20.3397 N   0  0  0  0  0  0  0  0  0  0  0  0
   11.6454  -16.9424   21.2783 C   0  0  1  0  0  0  0  0  0  0  0  0
   13.0799  -16.6939   21.0195 C   0  0  0  0  0  0  0  0  0  0  0  0
   13.3086  -15.4913   20.1670 C   0  0  0  0  0  0  0  0  0  0  0  0
   14.7318  -15.2747   19.8507 C   0  0  0  0  0  0  0  0  0  0  0  0
   15.1520  -14.2258   19.3386 O   0  0  0  0  0  0  0  0  0  0  0  0
   11.3226  -16.3980   22.6272 C   0  0  0  0  0  0  0  0  0  0  0  0
   11.8374  -15.3660   23.1254 O   0  0  0  0  0  0  0  0  0  0  0  0
   15.6759  -16.2700   20.1251 O   0  0  0  0  0  0  0  0  0  0  0  0
    6.8080  -17.0770   23.5392 N   0  0  0  0  0  0  0  0  0  0  0  0
    7.6726  -17.2205   24.6589 C   0  0  0  0  0  0  0  0  0  0  0  0
    7.4852  -18.2018   25.4040 O   0  0  0  0  0  0  0  0  0  0  0  0
    8.7107  -16.2242   24.8630 C   0  0  0  0  0  0  0  0  0  0  0  0
   10.1256  -16.6831   24.8222 C   0  0  2  0  0  0  0  0  0  0  0  0
   10.3723  -17.0726   23.4233 N   0  0  0  0  0  0  0  0  0  0  0  0
   10.4779  -17.7788   25.7220 C   0  0  0  0  0  0  0  0  0  0  0  0
   10.8444  -18.8866   25.3006 O   0  0  0  0  0  0  0  0  0  0  0  0
   10.4029  -17.5823   27.0905 O   0  0  0  0  0  0  0  0  0  0  0  0
  2  1  1  0
  3  4  1  0
  3  2  1  0
  4  5  1  0
  5  6  1  1
  7  9  1  0
  7  5  1  0
  8  7  2  0
 10  9  1  0
 10 11  1  6
 11 12  1  0
 13 17  1  0
 13 12  1  0
 14 13  2  0
 15 10  1  0
 16 15  2  0
 18 19  1  0
 19 20  2  0
 19 21  1  0
 22 21  1  6
 22 23  1  0
 23 15  1  0
 24 22  1  0
 25 24  2  0
 26 24  1  0
M  END
$$$$
