MEN.pdb
     RDKit          3D

 26 25  0  0  1  0  0  0  0  0999 V2000
    8.4412  -11.7196   21.3755 C   0  0  0  0  0  0  0  0  0  0  0  0
    7.3072  -12.1152   20.0636 S   0  0  0  0  0  0  0  0  0  0  0  0
    8.0316  -13.0446   18.7444 C   0  0  0  0  0  0  0  0  0  0  0  0
    9.2160  -13.8536   19.0460 C   0  0  0  0  0  0  0  0  0  0  0  0
    9.8804  -14.5551   17.9178 C   0  0  2  0  0  0  0  0  0  0  0  0
    9.0130  -15.4145   17.1720 N   0  0  0  0  0  0  0  0  0  0  0  0
   11.1003  -15.3149   18.3884 C   0  0  0  0  0  0  0  0  0  0  0  0
   10.9298  -16.4974   18.7192 O   0  0  0  0  0  0  0  0  0  0  0  0
   12.3795  -14.7241   18.4547 N   0  0  0  0  0  0  0  0  0  0  0  0
   13.5959  -15.4290   18.8559 C   0  0  1  0  0  0  0  0  0  0  0  0
   14.7768  -14.9944   18.0794 C   0  0  0  0  0  0  0  0  0  0  0  0
   14.7888  -15.5500   16.6951 C   0  0  0  0  0  0  0  0  0  0  0  0
   16.0131  -15.2066   15.9497 C   0  0  0  0  0  0  0  0  0  0  0  0
   17.1488  -15.3316   16.4330 O   0  0  0  0  0  0  0  0  0  0  0  0
   13.8273  -15.0666   20.2825 C   0  0  0  0  0  0  0  0  0  0  0  0
   13.8739  -13.8918   20.7249 O   0  0  0  0  0  0  0  0  0  0  0  0
   15.9299  -14.7172   14.6417 O   0  0  0  0  0  0  0  0  0  0  0  0
   11.4999  -15.7434   23.1502 N   0  0  0  0  0  0  0  0  0  0  0  0
   12.2150  -16.8831   23.6101 C   0  0  0  0  0  0  0  0  0  0  0  0
   11.5582  -17.7836   24.1677 O   0  0  0  0  0  0  0  0  0  0  0  0
   13.6528  -16.9269   23.4034 C   0  0  0  0  0  0  0  0  0  0  0  0
   14.2757  -15.8085   22.6449 C   0  0  2  0  0  0  0  0  0  0  0  0
   14.0107  -16.1005   21.2257 N   0  0  0  0  0  0  0  0  0  0  0  0
   15.7052  -15.5967   22.8593 C   0  0  0  0  0  0  0  0  0  0  0  0
   16.1903  -14.4635   23.0006 O   0  0  0  0  0  0  0  0  0  0  0  0
   16.5524  -16.6907   22.9075 O   0  0  0  0  0  0  0  0  0  0  0  0
  2  1  1  0
  3  4  1  0
  3  2  1  0
  4  5  1  0
  5  6  1  1
  7  9  1  0
  7  5  1  0
  8  7  2  0
 10  9  1  0
 10 11  1  6
 11 12  1  0
 13 17  1  0
 13 12  1  0
 14 13  2  0
 15 10  1  0
 16 15  2  0
 18 19  1  0
 19 20  2  0
 19 21  1  0
 22 21  1  1
 22 23  1  0
 23 15  1  0
 24 22  1  0
 25 24  2  0
 26 24  1  0
M  END
$$$$
