MEN.pdb
     RDKit          3D

 26 25  0  0  1  0  0  0  0  0999 V2000
    7.3061  -11.4569   19.9186 C   0  0  0  0  0  0  0  0  0  0  0  0
    6.7545  -12.5834   18.6573 S   0  0  0  0  0  0  0  0  0  0  0  0
    7.8978  -13.8877   18.3099 C   0  0  0  0  0  0  0  0  0  0  0  0
    8.9334  -14.1747   19.3066 C   0  0  0  0  0  0  0  0  0  0  0  0
    9.9278  -15.2308   18.9868 C   0  0  2  0  0  0  0  0  0  0  0  0
    9.3708  -16.3835   18.3479 N   0  0  0  0  0  0  0  0  0  0  0  0
   10.7114  -15.6345   20.2155 C   0  0  0  0  0  0  0  0  0  0  0  0
   11.2951  -14.7292   20.8293 O   0  0  0  0  0  0  0  0  0  0  0  0
   10.7867  -16.9717   20.6584 N   0  0  0  0  0  0  0  0  0  0  0  0
   11.6835  -17.4445   21.7118 C   0  0  1  0  0  0  0  0  0  0  0  0
   11.5276  -18.8917   21.9720 C   0  0  0  0  0  0  0  0  0  0  0  0
   12.3806  -19.3664   23.0999 C   0  0  0  0  0  0  0  0  0  0  0  0
   12.2487  -20.8131   23.3494 C   0  0  0  0  0  0  0  0  0  0  0  0
   11.1987  -21.3285   23.7626 O   0  0  0  0  0  0  0  0  0  0  0  0
   13.0660  -17.2168   21.2049 C   0  0  0  0  0  0  0  0  0  0  0  0
   13.4677  -17.5257   20.0554 O   0  0  0  0  0  0  0  0  0  0  0  0
   13.3305  -21.6707   23.1222 O   0  0  0  0  0  0  0  0  0  0  0  0
   13.6515  -14.0622   18.9722 N   0  0  0  0  0  0  0  0  0  0  0  0
   14.7787  -14.7635   19.4814 C   0  0  0  0  0  0  0  0  0  0  0  0
   15.5294  -15.3166   18.6544 O   0  0  0  0  0  0  0  0  0  0  0  0
   14.9836  -14.7916   20.9198 C   0  0  0  0  0  0  0  0  0  0  0  0
   15.2969  -16.1040   21.5471 C   0  0  2  0  0  0  0  0  0  0  0  0
   14.0125  -16.6115   22.0592 N   0  0  0  0  0  0  0  0  0  0  0  0
   16.2966  -16.0913   22.6124 C   0  0  0  0  0  0  0  0  0  0  0  0
   17.5139  -16.0656   22.3743 O   0  0  0  0  0  0  0  0  0  0  0  0
   15.8799  -16.1082   23.9326 O   0  0  0  0  0  0  0  0  0  0  0  0
  2  1  1  0
  3  4  1  0
  3  2  1  0
  4  5  1  0
  5  6  1  1
  7  9  1  0
  7  5  1  0
  8  7  2  0
 10  9  1  0
 10 11  1  6
 11 12  1  0
 13 17  1  0
 13 12  1  0
 14 13  2  0
 15 10  1  0
 16 15  2  0
 18 19  1  0
 19 20  2  0
 19 21  1  0
 22 21  1  1
 22 23  1  0
 23 15  1  0
 24 22  1  0
 25 24  2  0
 26 24  1  0
M  END
$$$$
