MEN.pdb
     RDKit          3D

 26 25  0  0  1  0  0  0  0  0999 V2000
    6.9864  -11.2245   26.1680 C   0  0  0  0  0  0  0  0  0  0  0  0
    6.9233  -12.5898   25.0297 S   0  0  0  0  0  0  0  0  0  0  0  0
    6.6176  -14.1528   25.7996 C   0  0  0  0  0  0  0  0  0  0  0  0
    6.8403  -15.3635   25.0043 C   0  0  0  0  0  0  0  0  0  0  0  0
    7.9142  -15.3298   23.9785 C   0  0  2  0  0  0  0  0  0  0  0  0
    7.4344  -15.3118   22.6307 N   0  0  0  0  0  0  0  0  0  0  0  0
    8.8945  -16.4642   24.1755 C   0  0  0  0  0  0  0  0  0  0  0  0
    8.4383  -17.5268   24.6223 O   0  0  0  0  0  0  0  0  0  0  0  0
   10.2663  -16.3390   23.8711 N   0  0  0  0  0  0  0  0  0  0  0  0
   11.2382  -17.4264   23.9729 C   0  0  1  0  0  0  0  0  0  0  0  0
   12.3630  -17.2622   23.0272 C   0  0  0  0  0  0  0  0  0  0  0  0
   11.9158  -17.2301   21.6045 C   0  0  0  0  0  0  0  0  0  0  0  0
   13.0275  -17.3898   20.6500 C   0  0  0  0  0  0  0  0  0  0  0  0
   13.1455  -16.6858   19.6354 O   0  0  0  0  0  0  0  0  0  0  0  0
   11.7885  -17.3554   25.3557 C   0  0  0  0  0  0  0  0  0  0  0  0
   12.7349  -18.0599   25.7873 O   0  0  0  0  0  0  0  0  0  0  0  0
   14.0080  -18.3644   20.8642 O   0  0  0  0  0  0  0  0  0  0  0  0
    9.3533  -13.6200   28.9319 N   0  0  0  0  0  0  0  0  0  0  0  0
    9.8168  -14.8386   28.3644 C   0  0  0  0  0  0  0  0  0  0  0  0
    8.9633  -15.7080   28.1016 O   0  0  0  0  0  0  0  0  0  0  0  0
   11.2423  -14.9932   28.1283 C   0  0  0  0  0  0  0  0  0  0  0  0
   11.7229  -16.3165   27.6466 C   0  0  2  0  0  0  0  0  0  0  0  0
   11.2226  -16.4378   26.2666 N   0  0  0  0  0  0  0  0  0  0  0  0
   11.3197  -17.4787   28.4347 C   0  0  0  0  0  0  0  0  0  0  0  0
   11.6900  -17.6410   29.6077 O   0  0  0  0  0  0  0  0  0  0  0  0
   10.4981  -18.4342   27.8611 O   0  0  0  0  0  0  0  0  0  0  0  0
  2  1  1  0
  3  4  1  0
  3  2  1  0
  4  5  1  0
  5  6  1  6
  7  9  1  0
  7  5  1  0
  8  7  2  0
 10  9  1  0
 10 11  1  6
 11 12  1  0
 13 17  1  0
 13 12  1  0
 14 13  2  0
 15 10  1  0
 16 15  2  0
 18 19  1  0
 19 20  2  0
 19 21  1  0
 22 21  1  1
 22 23  1  0
 23 15  1  0
 24 22  1  0
 25 24  2  0
 26 24  1  0
M  END
$$$$
