MEN.pdb
     RDKit          3D

 26 25  0  0  1  0  0  0  0  0999 V2000
    7.1176  -11.2808   27.0027 C   0  0  0  0  0  0  0  0  0  0  0  0
    5.8154  -11.8188   25.9172 S   0  0  0  0  0  0  0  0  0  0  0  0
    6.3538  -12.9173   24.6395 C   0  0  0  0  0  0  0  0  0  0  0  0
    7.7657  -13.3102   24.6237 C   0  0  0  0  0  0  0  0  0  0  0  0
    8.2316  -14.1724   23.5074 C   0  0  2  0  0  0  0  0  0  0  0  0
    7.3021  -14.2799   22.4250 N   0  0  0  0  0  0  0  0  0  0  0  0
    8.6253  -15.5453   24.0042 C   0  0  0  0  0  0  0  0  0  0  0  0
    8.1272  -15.9163   25.0771 O   0  0  0  0  0  0  0  0  0  0  0  0
    9.5153  -16.3792   23.2951 N   0  0  0  0  0  0  0  0  0  0  0  0
    9.9537  -17.6973   23.7507 C   0  0  1  0  0  0  0  0  0  0  0  0
   10.7834  -18.3908   22.7423 C   0  0  0  0  0  0  0  0  0  0  0  0
   11.2456  -19.7318   23.2042 C   0  0  0  0  0  0  0  0  0  0  0  0
   12.0901  -20.4207   22.2119 C   0  0  0  0  0  0  0  0  0  0  0  0
   12.7831  -19.8108   21.3833 O   0  0  0  0  0  0  0  0  0  0  0  0
   10.8010  -17.4542   24.9520 C   0  0  0  0  0  0  0  0  0  0  0  0
   11.6542  -16.5378   25.0535 O   0  0  0  0  0  0  0  0  0  0  0  0
   12.1374  -21.8185   22.1733 O   0  0  0  0  0  0  0  0  0  0  0  0
   10.9724  -15.1509   28.7228 N   0  0  0  0  0  0  0  0  0  0  0  0
   11.2094  -16.4959   29.1184 C   0  0  0  0  0  0  0  0  0  0  0  0
   11.8916  -16.6781   30.1454 O   0  0  0  0  0  0  0  0  0  0  0  0
   10.6471  -17.5640   28.3091 C   0  0  0  0  0  0  0  0  0  0  0  0
   11.5137  -18.1637   27.2587 C   0  0  2  0  0  0  0  0  0  0  0  0
   10.6536  -18.3017   26.0710 N   0  0  0  0  0  0  0  0  0  0  0  0
   12.1353  -19.4450   27.5847 C   0  0  0  0  0  0  0  0  0  0  0  0
   11.8045  -20.5005   27.0229 O   0  0  0  0  0  0  0  0  0  0  0  0
   13.1262  -19.4909   28.5506 O   0  0  0  0  0  0  0  0  0  0  0  0
  2  1  1  0
  3  4  1  0
  3  2  1  0
  4  5  1  0
  5  6  1  6
  7  9  1  0
  7  5  1  0
  8  7  2  0
 10  9  1  0
 10 11  1  6
 11 12  1  0
 13 17  1  0
 13 12  1  0
 14 13  2  0
 15 10  1  0
 16 15  2  0
 18 19  1  0
 19 20  2  0
 19 21  1  0
 22 21  1  1
 22 23  1  0
 23 15  1  0
 24 22  1  0
 25 24  2  0
 26 24  1  0
M  END
$$$$
