MEN.pdb
     RDKit          3D

 26 25  0  0  1  0  0  0  0  0999 V2000
    7.0587  -11.3842   25.8628 C   0  0  0  0  0  0  0  0  0  0  0  0
    6.1152  -12.6859   26.6237 S   0  0  0  0  0  0  0  0  0  0  0  0
    6.5170  -14.3038   26.0321 C   0  0  0  0  0  0  0  0  0  0  0  0
    6.4473  -14.5420   24.5876 C   0  0  0  0  0  0  0  0  0  0  0  0
    6.7146  -15.9194   24.0998 C   0  0  2  0  0  0  0  0  0  0  0  0
    6.3395  -16.9483   25.0205 N   0  0  0  0  0  0  0  0  0  0  0  0
    8.1597  -16.0821   23.6852 C   0  0  0  0  0  0  0  0  0  0  0  0
    8.6130  -15.2417   22.8945 O   0  0  0  0  0  0  0  0  0  0  0  0
    8.9696  -17.1331   24.1643 N   0  0  0  0  0  0  0  0  0  0  0  0
   10.3765  -17.3189   23.8125 C   0  0  1  0  0  0  0  0  0  0  0  0
   10.8709  -16.2615   22.9049 C   0  0  0  0  0  0  0  0  0  0  0  0
   12.3289  -16.3893   22.6164 C   0  0  0  0  0  0  0  0  0  0  0  0
   12.6064  -16.7610   21.2173 C   0  0  0  0  0  0  0  0  0  0  0  0
   12.7233  -17.9394   20.8479 O   0  0  0  0  0  0  0  0  0  0  0  0
   11.1349  -17.2164   25.0909 C   0  0  0  0  0  0  0  0  0  0  0  0
   12.3693  -17.4174   25.2098 O   0  0  0  0  0  0  0  0  0  0  0  0
   12.7501  -15.7715   20.2388 O   0  0  0  0  0  0  0  0  0  0  0  0
   10.1568  -13.4493   28.6453 N   0  0  0  0  0  0  0  0  0  0  0  0
   10.8875  -14.5272   28.0743 C   0  0  0  0  0  0  0  0  0  0  0  0
   11.8321  -14.2384   27.3143 O   0  0  0  0  0  0  0  0  0  0  0  0
   10.4917  -15.8848   28.4090 C   0  0  0  0  0  0  0  0  0  0  0  0
   11.0653  -16.9914   27.5962 C   0  0  2  0  0  0  0  0  0  0  0  0
   10.4388  -16.8698   26.2688 N   0  0  0  0  0  0  0  0  0  0  0  0
   10.8821  -18.3429   28.1201 C   0  0  0  0  0  0  0  0  0  0  0  0
   11.4621  -18.7381   29.1431 O   0  0  0  0  0  0  0  0  0  0  0  0
   10.0356  -19.2166   27.4590 O   0  0  0  0  0  0  0  0  0  0  0  0
  2  1  1  0
  3  4  1  0
  3  2  1  0
  4  5  1  0
  5  6  1  1
  7  9  1  0
  7  5  1  0
  8  7  2  0
 10  9  1  0
 10 11  1  6
 11 12  1  0
 13 17  1  0
 13 12  1  0
 14 13  2  0
 15 10  1  0
 16 15  2  0
 18 19  1  0
 19 20  2  0
 19 21  1  0
 22 21  1  1
 22 23  1  0
 23 15  1  0
 24 22  1  0
 25 24  2  0
 26 24  1  0
M  END
$$$$
