MEN.pdb
     RDKit          3D

 26 25  0  0  1  0  0  0  0  0999 V2000
    6.8306  -13.5782   17.6916 C   0  0  0  0  0  0  0  0  0  0  0  0
    7.2139  -12.7711   19.2296 S   0  0  0  0  0  0  0  0  0  0  0  0
    6.6650  -13.6549   20.6603 C   0  0  0  0  0  0  0  0  0  0  0  0
    7.5001  -14.7565   21.1473 C   0  0  0  0  0  0  0  0  0  0  0  0
    8.9649  -14.5270   21.2369 C   0  0  2  0  0  0  0  0  0  0  0  0
    9.5991  -14.3002   19.9746 N   0  0  0  0  0  0  0  0  0  0  0  0
    9.6506  -15.6527   21.9782 C   0  0  0  0  0  0  0  0  0  0  0  0
    9.1227  -16.0305   23.0343 O   0  0  0  0  0  0  0  0  0  0  0  0
   10.8349  -16.2570   21.5067 N   0  0  0  0  0  0  0  0  0  0  0  0
   11.5571  -17.3179   22.2071 C   0  0  1  0  0  0  0  0  0  0  0  0
   12.0450  -18.3659   21.2852 C   0  0  0  0  0  0  0  0  0  0  0  0
   11.5276  -18.1940   19.8966 C   0  0  0  0  0  0  0  0  0  0  0  0
   12.0422  -19.2116   18.9627 C   0  0  0  0  0  0  0  0  0  0  0  0
   12.0304  -20.4249   19.2210 O   0  0  0  0  0  0  0  0  0  0  0  0
   12.7441  -16.6646   22.8269 C   0  0  0  0  0  0  0  0  0  0  0  0
   13.8357  -16.4576   22.2406 O   0  0  0  0  0  0  0  0  0  0  0  0
   12.5726  -18.8308   17.7253 O   0  0  0  0  0  0  0  0  0  0  0  0
   11.6452  -15.6493   26.8495 N   0  0  0  0  0  0  0  0  0  0  0  0
   12.0069  -17.0183   26.9795 C   0  0  0  0  0  0  0  0  0  0  0  0
   11.4207  -17.6840   27.8550 O   0  0  0  0  0  0  0  0  0  0  0  0
   13.0273  -17.5510   26.0924 C   0  0  0  0  0  0  0  0  0  0  0  0
   13.6921  -16.6036   25.1572 C   0  0  2  0  0  0  0  0  0  0  0  0
   12.6619  -16.2382   24.1699 N   0  0  0  0  0  0  0  0  0  0  0  0
   14.8900  -17.0944   24.4801 C   0  0  0  0  0  0  0  0  0  0  0  0
   14.8970  -18.1564   23.8388 O   0  0  0  0  0  0  0  0  0  0  0  0
   16.0592  -16.3561   24.5518 O   0  0  0  0  0  0  0  0  0  0  0  0
  2  1  1  0
  3  4  1  0
  3  2  1  0
  4  5  1  0
  5  6  1  6
  7  9  1  0
  7  5  1  0
  8  7  2  0
 10  9  1  0
 10 11  1  6
 11 12  1  0
 13 17  1  0
 13 12  1  0
 14 13  2  0
 15 10  1  0
 16 15  2  0
 18 19  1  0
 19 20  2  0
 19 21  1  0
 22 21  1  1
 22 23  1  0
 23 15  1  0
 24 22  1  0
 25 24  2  0
 26 24  1  0
M  END
$$$$
