MEN.pdb
     RDKit          3D

 26 25  0  0  1  0  0  0  0  0999 V2000
    6.2892  -11.1199   27.9082 C   0  0  0  0  0  0  0  0  0  0  0  0
    6.9869  -12.3329   26.8101 S   0  0  0  0  0  0  0  0  0  0  0  0
    5.8893  -12.8525   25.5239 C   0  0  0  0  0  0  0  0  0  0  0  0
    6.3501  -13.9043   24.6133 C   0  0  0  0  0  0  0  0  0  0  0  0
    7.5533  -14.6817   25.0064 C   0  0  2  0  0  0  0  0  0  0  0  0
    8.7184  -13.8818   25.2297 N   0  0  0  0  0  0  0  0  0  0  0  0
    7.8479  -15.7768   24.0061 C   0  0  0  0  0  0  0  0  0  0  0  0
    7.0018  -16.6762   23.8956 O   0  0  0  0  0  0  0  0  0  0  0  0
    9.0235  -15.7922   23.2265 N   0  0  0  0  0  0  0  0  0  0  0  0
    9.3603  -16.8352   22.2590 C   0  0  1  0  0  0  0  0  0  0  0  0
    9.2531  -16.3595   20.8630 C   0  0  0  0  0  0  0  0  0  0  0  0
    7.9608  -15.6657   20.5915 C   0  0  0  0  0  0  0  0  0  0  0  0
    7.8352  -15.2128   19.1945 C   0  0  0  0  0  0  0  0  0  0  0  0
    6.8238  -14.6366   18.7655 O   0  0  0  0  0  0  0  0  0  0  0  0
   10.7856  -17.1860   22.5149 C   0  0  0  0  0  0  0  0  0  0  0  0
   11.6709  -17.2790   21.6285 O   0  0  0  0  0  0  0  0  0  0  0  0
    8.8787  -15.4241   18.2869 O   0  0  0  0  0  0  0  0  0  0  0  0
   14.9788  -17.0385   21.9261 N   0  0  0  0  0  0  0  0  0  0  0  0
   14.7139  -16.6153   23.2575 C   0  0  0  0  0  0  0  0  0  0  0  0
   15.6950  -16.4094   23.9979 O   0  0  0  0  0  0  0  0  0  0  0  0
   13.3296  -16.4507   23.6681 C   0  0  0  0  0  0  0  0  0  0  0  0
   12.6140  -17.6506   24.1802 C   0  0  2  0  0  0  0  0  0  0  0  0
   11.1966  -17.4371   23.8416 N   0  0  0  0  0  0  0  0  0  0  0  0
   12.7566  -17.9307   25.6069 C   0  0  0  0  0  0  0  0  0  0  0  0
   11.8572  -17.6754   26.4224 O   0  0  0  0  0  0  0  0  0  0  0  0
   13.9304  -18.4992   26.0717 O   0  0  0  0  0  0  0  0  0  0  0  0
  2  1  1  0
  3  4  1  0
  3  2  1  0
  4  5  1  0
  5  6  1  6
  7  9  1  0
  7  5  1  0
  8  7  2  0
 10  9  1  0
 10 11  1  6
 11 12  1  0
 13 17  1  0
 13 12  1  0
 14 13  2  0
 15 10  1  0
 16 15  2  0
 18 19  1  0
 19 20  2  0
 19 21  1  0
 22 21  1  1
 22 23  1  0
 23 15  1  0
 24 22  1  0
 25 24  2  0
 26 24  1  0
M  END
$$$$
