MEN.pdb
     RDKit          3D

 26 25  0  0  1  0  0  0  0  0999 V2000
    7.1291  -10.7882   26.0306 C   0  0  0  0  0  0  0  0  0  0  0  0
    5.8813  -11.7861   26.8122 S   0  0  0  0  0  0  0  0  0  0  0  0
    5.0136  -12.8525   25.6991 C   0  0  0  0  0  0  0  0  0  0  0  0
    5.5812  -14.1783   25.4380 C   0  0  0  0  0  0  0  0  0  0  0  0
    7.0598  -14.3168   25.4713 C   0  0  2  0  0  0  0  0  0  0  0  0
    7.7626  -13.2235   24.8731 N   0  0  0  0  0  0  0  0  0  0  0  0
    7.5004  -15.6270   24.8582 C   0  0  0  0  0  0  0  0  0  0  0  0
    6.9000  -16.6472   25.2268 O   0  0  0  0  0  0  0  0  0  0  0  0
    8.5425  -15.7055   23.9107 N   0  0  0  0  0  0  0  0  0  0  0  0
    9.1329  -16.9547   23.4327 C   0  0  1  0  0  0  0  0  0  0  0  0
    9.7955  -16.7946   22.1206 C   0  0  0  0  0  0  0  0  0  0  0  0
   10.2487  -18.0941   21.5449 C   0  0  0  0  0  0  0  0  0  0  0  0
   10.8171  -17.9551   20.1921 C   0  0  0  0  0  0  0  0  0  0  0  0
   11.1790  -16.8637   19.7265 O   0  0  0  0  0  0  0  0  0  0  0  0
   10.1763  -17.3225   24.4307 C   0  0  0  0  0  0  0  0  0  0  0  0
   10.9621  -16.5097   24.9783 O   0  0  0  0  0  0  0  0  0  0  0  0
   10.9699  -19.0778   19.3714 O   0  0  0  0  0  0  0  0  0  0  0  0
   10.8662  -20.9802   28.9925 N   0  0  0  0  0  0  0  0  0  0  0  0
   10.9134  -19.7586   28.2662 C   0  0  0  0  0  0  0  0  0  0  0  0
   11.3894  -18.7651   28.8489 O   0  0  0  0  0  0  0  0  0  0  0  0
   10.4091  -19.7446   26.9034 C   0  0  0  0  0  0  0  0  0  0  0  0
   11.2490  -19.0916   25.8631 C   0  0  2  0  0  0  0  0  0  0  0  0
   10.3122  -18.6766   24.8050 N   0  0  0  0  0  0  0  0  0  0  0  0
   12.3253  -19.9010   25.2967 C   0  0  0  0  0  0  0  0  0  0  0  0
   12.1791  -20.5559   24.2532 O   0  0  0  0  0  0  0  0  0  0  0  0
   13.5509  -19.9438   25.9395 O   0  0  0  0  0  0  0  0  0  0  0  0
  2  1  1  0
  3  4  1  0
  3  2  1  0
  4  5  1  0
  5  6  1  6
  7  9  1  0
  7  5  1  0
  8  7  2  0
 10  9  1  0
 10 11  1  6
 11 12  1  0
 13 17  1  0
 13 12  1  0
 14 13  2  0
 15 10  1  0
 16 15  2  0
 18 19  1  0
 19 20  2  0
 19 21  1  0
 22 21  1  1
 22 23  1  0
 23 15  1  0
 24 22  1  0
 25 24  2  0
 26 24  1  0
M  END
$$$$
