MEN.pdb
     RDKit          3D

 26 25  0  0  1  0  0  0  0  0999 V2000
    7.2295  -11.8480   27.5085 C   0  0  0  0  0  0  0  0  0  0  0  0
    6.4947  -11.5049   25.9254 S   0  0  0  0  0  0  0  0  0  0  0  0
    5.8060  -12.9271   25.1304 C   0  0  0  0  0  0  0  0  0  0  0  0
    6.6385  -14.1296   25.0358 C   0  0  0  0  0  0  0  0  0  0  0  0
    7.9156  -14.0297   24.2837 C   0  0  2  0  0  0  0  0  0  0  0  0
    7.7752  -13.5012   22.9616 N   0  0  0  0  0  0  0  0  0  0  0  0
    8.6347  -15.3595   24.2477 C   0  0  0  0  0  0  0  0  0  0  0  0
    8.4981  -16.0964   25.2352 O   0  0  0  0  0  0  0  0  0  0  0  0
    9.4276  -15.7605   23.1520 N   0  0  0  0  0  0  0  0  0  0  0  0
   10.2582  -16.9634   23.1290 C   0  0  1  0  0  0  0  0  0  0  0  0
   10.8885  -17.1833   21.8096 C   0  0  0  0  0  0  0  0  0  0  0  0
   11.5891  -18.4973   21.7209 C   0  0  0  0  0  0  0  0  0  0  0  0
   12.1966  -18.7354   20.3993 C   0  0  0  0  0  0  0  0  0  0  0  0
   13.4110  -18.9377   20.2469 O   0  0  0  0  0  0  0  0  0  0  0  0
   11.3442  -16.7300   24.1220 C   0  0  0  0  0  0  0  0  0  0  0  0
   12.0148  -15.6718   24.2150 O   0  0  0  0  0  0  0  0  0  0  0  0
   11.4025  -18.7409   19.2474 O   0  0  0  0  0  0  0  0  0  0  0  0
   11.8639  -16.7245   29.1700 N   0  0  0  0  0  0  0  0  0  0  0  0
   10.7701  -16.3254   28.3538 C   0  0  0  0  0  0  0  0  0  0  0  0
    9.8617  -15.6674   28.8968 O   0  0  0  0  0  0  0  0  0  0  0  0
   10.7794  -16.7056   26.9512 C   0  0  0  0  0  0  0  0  0  0  0  0
   11.9564  -17.4651   26.4494 C   0  0  2  0  0  0  0  0  0  0  0  0
   11.6623  -17.7573   25.0361 N   0  0  0  0  0  0  0  0  0  0  0  0
   12.2851  -18.6970   27.1628 C   0  0  0  0  0  0  0  0  0  0  0  0
   11.4284  -19.5544   27.4279 O   0  0  0  0  0  0  0  0  0  0  0  0
   13.5925  -18.9221   27.5591 O   0  0  0  0  0  0  0  0  0  0  0  0
  2  1  1  0
  3  4  1  0
  3  2  1  0
  4  5  1  0
  5  6  1  6
  7  9  1  0
  7  5  1  0
  8  7  2  0
 10  9  1  0
 10 11  1  6
 11 12  1  0
 13 17  1  0
 13 12  1  0
 14 13  2  0
 15 10  1  0
 16 15  2  0
 18 19  1  0
 19 20  2  0
 19 21  1  0
 22 21  1  1
 22 23  1  0
 23 15  1  0
 24 22  1  0
 25 24  2  0
 26 24  1  0
M  END
$$$$
