QPS.pdb
     RDKit          3D

 23 23  0  0  1  0  0  0  0  0999 V2000
   19.0729  -11.3210  -20.5763 N   0  0  0  0  0  0  0  0  0  0  0  0
   18.8273  -12.6266  -20.0870 C   0  0  0  0  0  0  0  0  0  0  0  0
   18.4651  -13.5097  -20.8914 O   0  0  0  0  0  0  0  0  0  0  0  0
   18.9833  -12.9862  -18.6574 C   0  0  0  0  0  0  0  0  0  0  0  0
   19.5332  -11.8181  -17.8808 C   0  0  0  0  0  0  0  0  0  0  0  0
   19.7017  -12.1523  -16.4109 C   0  0  2  0  0  0  0  0  0  0  0  0
   18.4265  -12.5882  -15.8496 N   0  0  0  0  0  0  0  0  0  0  0  0
   20.2797  -11.0434  -15.6256 C   0  0  0  0  0  0  0  0  0  0  0  0
   19.4601  -10.2883  -15.0062 O   0  0  0  0  0  0  0  0  0  0  0  0
   21.6489  -10.7583  -15.5064 N   0  0  0  0  0  0  0  0  0  0  0  0
   22.7145  -11.5646  -16.0911 C   0  0  0  0  0  0  0  0  0  0  0  0
   23.8242  -11.3800  -15.0334 C   0  0  0  0  0  0  0  0  0  0  0  0
   23.7088   -9.9125  -14.7664 C   0  0  0  0  0  0  0  0  0  0  0  0
   22.2447   -9.6441  -14.7878 C   0  0  1  0  0  0  0  0  0  0  0  0
   21.8976   -8.3442  -15.4146 C   0  0  0  0  0  0  0  0  0  0  0  0
   21.7859   -8.3053  -16.6657 O   0  0  0  0  0  0  0  0  0  0  0  0
   20.7828   -5.2242  -13.0360 O   0  0  0  0  0  0  0  0  0  0  0  0
   20.3477   -5.2250  -14.3444 C   0  0  0  0  0  0  0  0  0  0  0  0
   21.3611   -5.8775  -15.2871 C   0  0  2  0  0  0  0  0  0  0  0  0
   21.6868   -7.1578  -14.6974 N   0  0  0  0  0  0  0  0  0  0  0  0
   22.5689   -5.0276  -15.2497 C   0  0  0  0  0  0  0  0  0  0  0  0
   23.7350   -5.3744  -14.5795 O   0  0  0  0  0  0  0  0  0  0  0  0
   22.5583   -3.9288  -15.8511 O   0  0  0  0  0  0  0  0  0  0  0  0
  2  3  2  0
  2  1  1  0
  4  2  1  0
  5  4  1  0
  6  5  1  0
  6  7  1  1
  8  6  1  0
  9  8  2  0
 10  8  1  0
 10 14  1  0
 11 12  1  0
 11 10  1  0
 12 13  1  0
 13 14  1  0
 14 15  1  6
 15 16  2  0
 18 17  1  0
 19 18  1  1
 19 21  1  0
 20 19  1  0
 20 15  1  0
 21 23  2  0
 21 22  1  0
M  END
$$$$
