QPS.pdb
     RDKit          3D

 23 23  0  0  1  0  0  0  0  0999 V2000
   14.5023  -10.4744  -15.2229 N   0  0  0  0  0  0  0  0  0  0  0  0
   14.5470  -11.3052  -16.3684 C   0  0  0  0  0  0  0  0  0  0  0  0
   13.4905  -11.8410  -16.7617 O   0  0  0  0  0  0  0  0  0  0  0  0
   15.7989  -11.5637  -17.1191 C   0  0  0  0  0  0  0  0  0  0  0  0
   16.9262  -10.7367  -16.5577 C   0  0  0  0  0  0  0  0  0  0  0  0
   18.1778  -11.5668  -16.3449 C   0  0  2  0  0  0  0  0  0  0  0  0
   17.9140  -12.6264  -15.3760 N   0  0  0  0  0  0  0  0  0  0  0  0
   19.3494  -10.7602  -15.9486 C   0  0  0  0  0  0  0  0  0  0  0  0
   19.4642  -10.4818  -14.7097 O   0  0  0  0  0  0  0  0  0  0  0  0
   20.3397  -10.2812  -16.8205 N   0  0  0  0  0  0  0  0  0  0  0  0
   20.3572  -10.5168  -18.2598 C   0  0  0  0  0  0  0  0  0  0  0  0
   21.8780  -10.5862  -18.5183 C   0  0  0  0  0  0  0  0  0  0  0  0
   22.3518   -9.4380  -17.6845 C   0  0  0  0  0  0  0  0  0  0  0  0
   21.5068   -9.4932  -16.4603 C   0  0  1  0  0  0  0  0  0  0  0  0
   21.1226   -8.1518  -15.9539 C   0  0  0  0  0  0  0  0  0  0  0  0
   20.0825   -7.6225  -16.4202 O   0  0  0  0  0  0  0  0  0  0  0  0
   22.3724   -4.5275  -12.9049 O   0  0  0  0  0  0  0  0  0  0  0  0
   22.5239   -5.8064  -13.3976 C   0  0  0  0  0  0  0  0  0  0  0  0
   21.4979   -6.1286  -14.4862 C   0  0  2  0  0  0  0  0  0  0  0  0
   21.8480   -7.4393  -14.9883 N   0  0  0  0  0  0  0  0  0  0  0  0
   21.7157   -5.1436  -15.5655 C   0  0  0  0  0  0  0  0  0  0  0  0
   22.6544   -5.3033  -16.5768 O   0  0  0  0  0  0  0  0  0  0  0  0
   21.0235   -4.0998  -15.5853 O   0  0  0  0  0  0  0  0  0  0  0  0
  2  3  2  0
  2  1  1  0
  4  2  1  0
  5  4  1  0
  6  5  1  0
  6  7  1  1
  8  6  1  0
  9  8  2  0
 10  8  1  0
 10 14  1  0
 11 12  1  0
 11 10  1  0
 12 13  1  0
 13 14  1  0
 14 15  1  6
 15 16  2  0
 18 17  1  0
 19 18  1  1
 19 21  1  0
 20 19  1  0
 20 15  1  0
 21 23  2  0
 21 22  1  0
M  END
$$$$
