QPS.pdb
     RDKit          3D

 23 23  0  0  1  0  0  0  0  0999 V2000
   12.6429   -9.6119   -9.2012 N   0  0  0  0  0  0  0  0  0  0  0  0
   13.5253   -8.9549  -10.0924 C   0  0  0  0  0  0  0  0  0  0  0  0
   13.9330   -9.5737  -11.0969 O   0  0  0  0  0  0  0  0  0  0  0  0
   13.9841   -7.5615   -9.8796 C   0  0  0  0  0  0  0  0  0  0  0  0
   15.2698   -7.3140  -10.6251 C   0  0  0  0  0  0  0  0  0  0  0  0
   16.4670   -7.8676   -9.8762 C   0  0  2  0  0  0  0  0  0  0  0  0
   16.5535   -7.2562   -8.5534 N   0  0  0  0  0  0  0  0  0  0  0  0
   17.7355   -7.7188  -10.6174 C   0  0  0  0  0  0  0  0  0  0  0  0
   18.5051   -6.7687  -10.2562 O   0  0  0  0  0  0  0  0  0  0  0  0
   18.1583   -8.5350  -11.6781 N   0  0  0  0  0  0  0  0  0  0  0  0
   17.4762   -9.7505  -12.1078 C   0  0  0  0  0  0  0  0  0  0  0  0
   18.6773  -10.6007  -12.5756 C   0  0  0  0  0  0  0  0  0  0  0  0
   19.4653   -9.5745  -13.3266 C   0  0  0  0  0  0  0  0  0  0  0  0
   19.3293   -8.3337  -12.5155 C   0  0  1  0  0  0  0  0  0  0  0  0
   19.2037   -7.1064  -13.3408 C   0  0  0  0  0  0  0  0  0  0  0  0
   18.1305   -6.9274  -13.9698 O   0  0  0  0  0  0  0  0  0  0  0  0
   20.6638   -3.6509  -12.4196 O   0  0  0  0  0  0  0  0  0  0  0  0
   19.8050   -3.7919  -13.4891 C   0  0  0  0  0  0  0  0  0  0  0  0
   20.1618   -5.0001  -14.3577 C   0  0  2  0  0  0  0  0  0  0  0  0
   20.2078   -6.1351  -13.4619 N   0  0  0  0  0  0  0  0  0  0  0  0
   21.5262   -4.7549  -14.8684 C   0  0  0  0  0  0  0  0  0  0  0  0
   21.8294   -3.7988  -15.8292 O   0  0  0  0  0  0  0  0  0  0  0  0
   22.4753   -5.4389  -14.4206 O   0  0  0  0  0  0  0  0  0  0  0  0
  2  3  2  0
  2  1  1  0
  4  2  1  0
  5  4  1  0
  6  5  1  0
  6  7  1  1
  8  6  1  0
  9  8  2  0
 10  8  1  0
 10 14  1  0
 11 12  1  0
 11 10  1  0
 12 13  1  0
 13 14  1  0
 14 15  1  6
 15 16  2  0
 18 17  1  0
 19 18  1  1
 19 21  1  0
 20 19  1  0
 20 15  1  0
 21 23  2  0
 21 22  1  0
M  END
$$$$
