QPS.pdb
     RDKit          3D

 23 23  0  0  1  0  0  0  0  0999 V2000
   18.7532  -11.8472  -21.2460 N   0  0  0  0  0  0  0  0  0  0  0  0
   18.1386  -11.6432  -19.9870 C   0  0  0  0  0  0  0  0  0  0  0  0
   17.1101  -10.9383  -19.9294 O   0  0  0  0  0  0  0  0  0  0  0  0
   18.6685  -12.2334  -18.7346 C   0  0  0  0  0  0  0  0  0  0  0  0
   19.2926  -11.1648  -17.8753 C   0  0  0  0  0  0  0  0  0  0  0  0
   19.2230  -11.5191  -16.4021 C   0  0  2  0  0  0  0  0  0  0  0  0
   17.8357  -11.7480  -16.0097 N   0  0  0  0  0  0  0  0  0  0  0  0
   19.8653  -10.5138  -15.5319 C   0  0  0  0  0  0  0  0  0  0  0  0
   19.0918   -9.7266  -14.8935 O   0  0  0  0  0  0  0  0  0  0  0  0
   21.2487  -10.3588  -15.3518 N   0  0  0  0  0  0  0  0  0  0  0  0
   22.2604  -11.2354  -15.9310 C   0  0  0  0  0  0  0  0  0  0  0  0
   23.3395  -11.1927  -14.8272 C   0  0  0  0  0  0  0  0  0  0  0  0
   23.3450   -9.7322  -14.5036 C   0  0  0  0  0  0  0  0  0  0  0  0
   21.9126   -9.3315  -14.5664 C   0  0  1  0  0  0  0  0  0  0  0  0
   21.7078   -7.9824  -15.1505 C   0  0  0  0  0  0  0  0  0  0  0  0
   21.7641   -7.8677  -16.4008 O   0  0  0  0  0  0  0  0  0  0  0  0
   19.5762   -5.2106  -13.3006 O   0  0  0  0  0  0  0  0  0  0  0  0
   19.8997   -5.0466  -14.6309 C   0  0  0  0  0  0  0  0  0  0  0  0
   21.3319   -5.4924  -14.9337 C   0  0  2  0  0  0  0  0  0  0  0  0
   21.4556   -6.8290  -14.3941 N   0  0  0  0  0  0  0  0  0  0  0  0
   22.2169   -4.5956  -14.1622 C   0  0  0  0  0  0  0  0  0  0  0  0
   22.4130   -3.2553  -14.4693 O   0  0  0  0  0  0  0  0  0  0  0  0
   22.8330   -5.0531  -13.1722 O   0  0  0  0  0  0  0  0  0  0  0  0
  2  3  2  0
  2  1  1  0
  4  2  1  0
  5  4  1  0
  6  5  1  0
  6  7  1  1
  8  6  1  0
  9  8  2  0
 10  8  1  0
 10 14  1  0
 11 12  1  0
 11 10  1  0
 12 13  1  0
 13 14  1  0
 14 15  1  6
 15 16  2  0
 18 17  1  0
 19 18  1  1
 19 21  1  0
 20 19  1  0
 20 15  1  0
 21 23  2  0
 21 22  1  0
M  END
$$$$
