QPS.pdb
     RDKit          3D

 23 23  0  0  1  0  0  0  0  0999 V2000
   15.3170  -11.1781  -14.2116 N   0  0  0  0  0  0  0  0  0  0  0  0
   15.5259  -12.2548  -15.1069 C   0  0  0  0  0  0  0  0  0  0  0  0
   14.6434  -13.1319  -15.2057 O   0  0  0  0  0  0  0  0  0  0  0  0
   16.7513  -12.3815  -15.9315 C   0  0  0  0  0  0  0  0  0  0  0  0
   17.6626  -11.2043  -15.6993 C   0  0  0  0  0  0  0  0  0  0  0  0
   18.8826  -11.2543  -16.5991 C   0  0  2  0  0  0  0  0  0  0  0  0
   19.7057  -12.4109  -16.2586 N   0  0  0  0  0  0  0  0  0  0  0  0
   19.6750  -10.0085  -16.5733 C   0  0  0  0  0  0  0  0  0  0  0  0
   20.6356   -9.9546  -15.7368 O   0  0  0  0  0  0  0  0  0  0  0  0
   19.4573   -8.8890  -17.3916 N   0  0  0  0  0  0  0  0  0  0  0  0
   18.4520   -8.8196  -18.4461 C   0  0  0  0  0  0  0  0  0  0  0  0
   19.1701   -7.9072  -19.4641 C   0  0  0  0  0  0  0  0  0  0  0  0
   19.7376   -6.8678  -18.5501 C   0  0  0  0  0  0  0  0  0  0  0  0
   20.1810   -7.6291  -17.3502 C   0  0  1  0  0  0  0  0  0  0  0  0
   19.9412   -6.9053  -16.0767 C   0  0  0  0  0  0  0  0  0  0  0  0
   18.8162   -7.0317  -15.5308 O   0  0  0  0  0  0  0  0  0  0  0  0
   23.0587   -4.9438  -14.1959 O   0  0  0  0  0  0  0  0  0  0  0  0
   22.0185   -5.4566  -13.4501 C   0  0  0  0  0  0  0  0  0  0  0  0
   20.6855   -5.3869  -14.1982 C   0  0  2  0  0  0  0  0  0  0  0  0
   20.8915   -6.0898  -15.4457 N   0  0  0  0  0  0  0  0  0  0  0  0
   20.4546   -3.9595  -14.5012 C   0  0  0  0  0  0  0  0  0  0  0  0
   20.0459   -3.0272  -13.5561 O   0  0  0  0  0  0  0  0  0  0  0  0
   20.6325   -3.5495  -15.6714 O   0  0  0  0  0  0  0  0  0  0  0  0
  2  3  2  0
  2  1  1  0
  4  2  1  0
  5  4  1  0
  6  5  1  0
  6  7  1  1
  8  6  1  0
  9  8  2  0
 10  8  1  0
 10 14  1  0
 11 12  1  0
 11 10  1  0
 12 13  1  0
 13 14  1  0
 14 15  1  1
 15 16  2  0
 18 17  1  0
 19 18  1  1
 19 21  1  0
 20 19  1  0
 20 15  1  0
 21 23  2  0
 21 22  1  0
M  END
$$$$
