QPS.pdb
     RDKit          3D

 23 23  0  0  1  0  0  0  0  0999 V2000
   28.1652  -17.4841  -15.0382 N   0  0  0  0  0  0  0  0  0  0  0  0
   28.5352  -17.6600  -16.3934 C   0  0  0  0  0  0  0  0  0  0  0  0
   29.6363  -17.2144  -16.7767 O   0  0  0  0  0  0  0  0  0  0  0  0
   27.6665  -18.3525  -17.3750 C   0  0  0  0  0  0  0  0  0  0  0  0
   26.4994  -19.0000  -16.6760 C   0  0  0  0  0  0  0  0  0  0  0  0
   26.9162  -20.2578  -15.9378 C   0  0  2  0  0  0  0  0  0  0  0  0
   27.4416  -21.2390  -16.8826 N   0  0  0  0  0  0  0  0  0  0  0  0
   25.8338  -20.8345  -15.1155 C   0  0  0  0  0  0  0  0  0  0  0  0
   24.8775  -21.4024  -15.7389 O   0  0  0  0  0  0  0  0  0  0  0  0
   25.7758  -20.8089  -13.7133 N   0  0  0  0  0  0  0  0  0  0  0  0
   26.8327  -20.2904  -12.8522 C   0  0  0  0  0  0  0  0  0  0  0  0
   26.6873  -21.2231  -11.6301 C   0  0  0  0  0  0  0  0  0  0  0  0
   25.1989  -21.2540  -11.4827 C   0  0  0  0  0  0  0  0  0  0  0  0
   24.6871  -21.2920  -12.8801 C   0  0  1  0  0  0  0  0  0  0  0  0
   23.4551  -20.4872  -13.0738 C   0  0  0  0  0  0  0  0  0  0  0  0
   23.5713  -19.2370  -13.1280 O   0  0  0  0  0  0  0  0  0  0  0  0
   18.9252  -20.3967  -14.6656 O   0  0  0  0  0  0  0  0  0  0  0  0
   20.1766  -20.9493  -14.4922 C   0  0  0  0  0  0  0  0  0  0  0  0
   20.9534  -20.2703  -13.3621 C   0  0  2  0  0  0  0  0  0  0  0  0
   22.1705  -21.0352  -13.1997 N   0  0  0  0  0  0  0  0  0  0  0  0
   20.1362  -20.4319  -12.1421 C   0  0  0  0  0  0  0  0  0  0  0  0
   19.1534  -19.5329  -11.7480 O   0  0  0  0  0  0  0  0  0  0  0  0
   20.3269  -21.4302  -11.4100 O   0  0  0  0  0  0  0  0  0  0  0  0
  2  3  2  0
  2  1  1  0
  4  2  1  0
  5  4  1  0
  6  5  1  0
  6  7  1  6
  8  6  1  0
  9  8  2  0
 10  8  1  0
 10 14  1  0
 11 12  1  0
 11 10  1  0
 12 13  1  0
 13 14  1  0
 14 15  1  1
 15 16  2  0
 18 17  1  0
 19 18  1  6
 19 21  1  0
 20 19  1  0
 20 15  1  0
 21 23  2  0
 21 22  1  0
M  END
$$$$
