QPS.pdb
     RDKit          3D

 23 23  0  0  1  0  0  0  0  0999 V2000
   22.6179  -17.8154  -19.3926 N   0  0  0  0  0  0  0  0  0  0  0  0
   21.9601  -17.9080  -18.1423 C   0  0  0  0  0  0  0  0  0  0  0  0
   22.4844  -18.5907  -17.2384 O   0  0  0  0  0  0  0  0  0  0  0  0
   20.6734  -17.2263  -17.8644 C   0  0  0  0  0  0  0  0  0  0  0  0
   20.9203  -15.8360  -17.3390 C   0  0  0  0  0  0  0  0  0  0  0  0
   21.3031  -15.8517  -15.8714 C   0  0  2  0  0  0  0  0  0  0  0  0
   20.2916  -16.5682  -15.1002 N   0  0  0  0  0  0  0  0  0  0  0  0
   21.5403  -14.5032  -15.3184 C   0  0  0  0  0  0  0  0  0  0  0  0
   20.5489  -13.9271  -14.7609 O   0  0  0  0  0  0  0  0  0  0  0  0
   22.7613  -13.8118  -15.3559 N   0  0  0  0  0  0  0  0  0  0  0  0
   23.9993  -14.3512  -15.9071 C   0  0  0  0  0  0  0  0  0  0  0  0
   25.0385  -13.6800  -14.9829 C   0  0  0  0  0  0  0  0  0  0  0  0
   24.4920  -12.2889  -14.9186 C   0  0  0  0  0  0  0  0  0  0  0  0
   23.0160  -12.4711  -14.8555 C   0  0  1  0  0  0  0  0  0  0  0  0
   22.2669  -11.4498  -15.6295 C   0  0  0  0  0  0  0  0  0  0  0  0
   22.1262  -11.6339  -16.8647 O   0  0  0  0  0  0  0  0  0  0  0  0
   19.8862   -8.8090  -13.7300 O   0  0  0  0  0  0  0  0  0  0  0  0
   19.7032   -9.0135  -15.0813 C   0  0  0  0  0  0  0  0  0  0  0  0
   21.0264   -9.2551  -15.8108 C   0  0  2  0  0  0  0  0  0  0  0  0
   21.7071  -10.2933  -15.0680 N   0  0  0  0  0  0  0  0  0  0  0  0
   21.8042   -8.0056  -15.6830 C   0  0  0  0  0  0  0  0  0  0  0  0
   21.4431   -6.8078  -16.2865 O   0  0  0  0  0  0  0  0  0  0  0  0
   22.8512   -8.0084  -14.9953 O   0  0  0  0  0  0  0  0  0  0  0  0
  2  3  2  0
  2  1  1  0
  4  2  1  0
  5  4  1  0
  6  5  1  0
  6  7  1  1
  8  6  1  0
  9  8  2  0
 10  8  1  0
 10 14  1  0
 11 12  1  0
 11 10  1  0
 12 13  1  0
 13 14  1  0
 14 15  1  6
 15 16  2  0
 18 17  1  0
 19 18  1  1
 19 21  1  0
 20 19  1  0
 20 15  1  0
 21 23  2  0
 21 22  1  0
M  END
$$$$
