QPS.pdb
     RDKit          3D

 23 23  0  0  1  0  0  0  0  0999 V2000
   22.1550  -22.5364  -13.6444 N   0  0  0  0  0  0  0  0  0  0  0  0
   21.4901  -21.2944  -13.5035 C   0  0  0  0  0  0  0  0  0  0  0  0
   20.3213  -21.2866  -13.0654 O   0  0  0  0  0  0  0  0  0  0  0  0
   22.1272  -20.0031  -13.8558 C   0  0  0  0  0  0  0  0  0  0  0  0
   23.5501  -20.2249  -14.2985 C   0  0  0  0  0  0  0  0  0  0  0  0
   23.8176  -19.6038  -15.6562 C   0  0  2  0  0  0  0  0  0  0  0  0
   22.6839  -19.8410  -16.5447 N   0  0  0  0  0  0  0  0  0  0  0  0
   25.0806  -20.0644  -16.2671 C   0  0  0  0  0  0  0  0  0  0  0  0
   24.9887  -20.9459  -17.1836 O   0  0  0  0  0  0  0  0  0  0  0  0
   26.3635  -19.6108  -15.9229 N   0  0  0  0  0  0  0  0  0  0  0  0
   26.6338  -18.5534  -14.9552 C   0  0  0  0  0  0  0  0  0  0  0  0
   27.8988  -17.9188  -15.5729 C   0  0  0  0  0  0  0  0  0  0  0  0
   28.6634  -19.1461  -15.9565 C   0  0  0  0  0  0  0  0  0  0  0  0
   27.6268  -20.0883  -16.4604 C   0  0  1  0  0  0  0  0  0  0  0  0
   27.8829  -21.4991  -16.0770 C   0  0  0  0  0  0  0  0  0  0  0  0
   27.6718  -21.8323  -14.8838 O   0  0  0  0  0  0  0  0  0  0  0  0
   27.5009  -24.4199  -18.6612 O   0  0  0  0  0  0  0  0  0  0  0  0
   27.5773  -24.7051  -17.3143 C   0  0  0  0  0  0  0  0  0  0  0  0
   28.6332  -23.8543  -16.6053 C   0  0  2  0  0  0  0  0  0  0  0  0
   28.3455  -22.4824  -16.9633 N   0  0  0  0  0  0  0  0  0  0  0  0
   29.9333  -24.2272  -17.1995 C   0  0  0  0  0  0  0  0  0  0  0  0
   30.5796  -25.4303  -16.9466 O   0  0  0  0  0  0  0  0  0  0  0  0
   30.4990  -23.4250  -17.9777 O   0  0  0  0  0  0  0  0  0  0  0  0
  2  3  2  0
  2  1  1  0
  4  2  1  0
  5  4  1  0
  6  5  1  0
  6  7  1  6
  8  6  1  0
  9  8  2  0
 10  8  1  0
 10 14  1  0
 11 12  1  0
 11 10  1  0
 12 13  1  0
 13 14  1  0
 14 15  1  1
 15 16  2  0
 18 17  1  0
 19 18  1  6
 19 21  1  0
 20 19  1  0
 20 15  1  0
 21 23  2  0
 21 22  1  0
M  END
$$$$
