QPS.pdb
     RDKit          3D

 23 23  0  0  1  0  0  0  0  0999 V2000
   21.5829  -10.4121  -21.3423 N   0  0  0  0  0  0  0  0  0  0  0  0
   20.2016  -10.3975  -21.0324 C   0  0  0  0  0  0  0  0  0  0  0  0
   19.3998   -9.9704  -21.8884 O   0  0  0  0  0  0  0  0  0  0  0  0
   19.6700  -10.8693  -19.7315 C   0  0  0  0  0  0  0  0  0  0  0  0
   20.7986  -11.2888  -18.8259 C   0  0  0  0  0  0  0  0  0  0  0  0
   20.2932  -11.7098  -17.4591 C   0  0  2  0  0  0  0  0  0  0  0  0
   18.8750  -12.0478  -17.5347 N   0  0  0  0  0  0  0  0  0  0  0  0
   20.5469  -10.7019  -16.4102 C   0  0  0  0  0  0  0  0  0  0  0  0
   19.5723   -9.9434  -16.0930 O   0  0  0  0  0  0  0  0  0  0  0  0
   21.7654  -10.5156  -15.7388 N   0  0  0  0  0  0  0  0  0  0  0  0
   22.9753  -11.2894  -15.9931 C   0  0  0  0  0  0  0  0  0  0  0  0
   23.5947  -11.3220  -14.5790 C   0  0  0  0  0  0  0  0  0  0  0  0
   23.3829   -9.9037  -14.1528 C   0  0  0  0  0  0  0  0  0  0  0  0
   22.0382   -9.5517  -14.6856 C   0  0  1  0  0  0  0  0  0  0  0  0
   21.9549   -8.1577  -15.1886 C   0  0  0  0  0  0  0  0  0  0  0  0
   22.3145   -7.9368  -16.3723 O   0  0  0  0  0  0  0  0  0  0  0  0
   19.3692   -5.6063  -13.7242 O   0  0  0  0  0  0  0  0  0  0  0  0
   20.0291   -5.2626  -14.8851 C   0  0  0  0  0  0  0  0  0  0  0  0
   21.4971   -5.6936  -14.8613 C   0  0  2  0  0  0  0  0  0  0  0  0
   21.5004   -7.0729  -14.4251 N   0  0  0  0  0  0  0  0  0  0  0  0
   22.1525   -4.8751  -13.8205 C   0  0  0  0  0  0  0  0  0  0  0  0
   22.5419   -5.3700  -12.5825 O   0  0  0  0  0  0  0  0  0  0  0  0
   22.3774   -3.6646  -14.0507 O   0  0  0  0  0  0  0  0  0  0  0  0
  2  3  2  0
  2  1  1  0
  4  2  1  0
  5  4  1  0
  6  5  1  0
  6  7  1  6
  8  6  1  0
  9  8  2  0
 10  8  1  0
 10 14  1  0
 11 12  1  0
 11 10  1  0
 12 13  1  0
 13 14  1  0
 14 15  1  6
 15 16  2  0
 18 17  1  0
 19 18  1  1
 19 21  1  0
 20 19  1  0
 20 15  1  0
 21 23  2  0
 21 22  1  0
M  END
$$$$
