QPS.pdb
     RDKit          3D

 23 23  0  0  1  0  0  0  0  0999 V2000
   22.5141  -12.0381  -21.8964 N   0  0  0  0  0  0  0  0  0  0  0  0
   23.1552  -13.2964  -21.7961 C   0  0  0  0  0  0  0  0  0  0  0  0
   23.2003  -14.0282  -22.8064 O   0  0  0  0  0  0  0  0  0  0  0  0
   23.7748  -13.7791  -20.5389 C   0  0  0  0  0  0  0  0  0  0  0  0
   23.5792  -12.7696  -19.4377 C   0  0  0  0  0  0  0  0  0  0  0  0
   24.2449  -13.2112  -18.1483 C   0  0  2  0  0  0  0  0  0  0  0  0
   23.6755  -14.4793  -17.7025 N   0  0  0  0  0  0  0  0  0  0  0  0
   24.1792  -12.1919  -17.0819 C   0  0  0  0  0  0  0  0  0  0  0  0
   23.2131  -12.2852  -16.2551 O   0  0  0  0  0  0  0  0  0  0  0  0
   25.0899  -11.1382  -16.9066 N   0  0  0  0  0  0  0  0  0  0  0  0
   26.3133  -10.9662  -17.6819 C   0  0  0  0  0  0  0  0  0  0  0  0
   27.2355  -10.3282  -16.6203 C   0  0  0  0  0  0  0  0  0  0  0  0
   26.2975   -9.3441  -15.9962 C   0  0  0  0  0  0  0  0  0  0  0  0
   24.9927  -10.0583  -15.9385 C   0  0  1  0  0  0  0  0  0  0  0  0
   23.8312   -9.1780  -16.2199 C   0  0  0  0  0  0  0  0  0  0  0  0
   23.4904   -9.0186  -17.4190 O   0  0  0  0  0  0  0  0  0  0  0  0
   19.9816   -6.9286  -14.2711 O   0  0  0  0  0  0  0  0  0  0  0  0
   21.1504   -7.6519  -14.1618 C   0  0  0  0  0  0  0  0  0  0  0  0
   21.9306   -7.6863  -15.4776 C   0  0  2  0  0  0  0  0  0  0  0  0
   23.0913   -8.5138  -15.2311 N   0  0  0  0  0  0  0  0  0  0  0  0
   22.3889   -6.3036  -15.7240 C   0  0  0  0  0  0  0  0  0  0  0  0
   21.6391   -5.3527  -16.4042 O   0  0  0  0  0  0  0  0  0  0  0  0
   23.5149   -5.9518  -15.3025 O   0  0  0  0  0  0  0  0  0  0  0  0
  2  3  2  0
  2  1  1  0
  4  2  1  0
  5  4  1  0
  6  5  1  0
  6  7  1  1
  8  6  1  0
  9  8  2  0
 10  8  1  0
 10 14  1  0
 11 12  1  0
 11 10  1  0
 12 13  1  0
 13 14  1  0
 14 15  1  6
 15 16  2  0
 18 17  1  0
 19 18  1  1
 19 21  1  0
 20 19  1  0
 20 15  1  0
 21 23  2  0
 21 22  1  0
M  END
$$$$
