QPS.pdb
     RDKit          3D

 23 23  0  0  1  0  0  0  0  0999 V2000
   22.2959  -18.3825  -15.1563 N   0  0  0  0  0  0  0  0  0  0  0  0
   22.3083  -18.6999  -16.5360 C   0  0  0  0  0  0  0  0  0  0  0  0
   21.2336  -18.6600  -17.1697 O   0  0  0  0  0  0  0  0  0  0  0  0
   23.5469  -19.0777  -17.2575 C   0  0  0  0  0  0  0  0  0  0  0  0
   24.7391  -18.9708  -16.3424 C   0  0  0  0  0  0  0  0  0  0  0  0
   25.5982  -20.2198  -16.3935 C   0  0  2  0  0  0  0  0  0  0  0  0
   24.9472  -21.2392  -17.2109 N   0  0  0  0  0  0  0  0  0  0  0  0
   25.9398  -20.7451  -15.0565 C   0  0  0  0  0  0  0  0  0  0  0  0
   25.1104  -21.5563  -14.5276 O   0  0  0  0  0  0  0  0  0  0  0  0
   27.0968  -20.4263  -14.3285 N   0  0  0  0  0  0  0  0  0  0  0  0
   28.1871  -19.5982  -14.8314 C   0  0  0  0  0  0  0  0  0  0  0  0
   29.3930  -20.2569  -14.1268 C   0  0  0  0  0  0  0  0  0  0  0  0
   28.8353  -20.4539  -12.7527 C   0  0  0  0  0  0  0  0  0  0  0  0
   27.4211  -20.8598  -12.9795 C   0  0  1  0  0  0  0  0  0  0  0  0
   26.4815  -20.2874  -11.9833 C   0  0  0  0  0  0  0  0  0  0  0  0
   26.0676  -19.1156  -12.1701 O   0  0  0  0  0  0  0  0  0  0  0  0
   23.2590  -21.5750  -10.3570 O   0  0  0  0  0  0  0  0  0  0  0  0
   24.2132  -21.4132   -9.3749 C   0  0  0  0  0  0  0  0  0  0  0  0
   25.2715  -20.3795   -9.7661 C   0  0  2  0  0  0  0  0  0  0  0  0
   26.0275  -20.9729  -10.8473 N   0  0  0  0  0  0  0  0  0  0  0  0
   26.1641  -20.2377   -8.5974 C   0  0  0  0  0  0  0  0  0  0  0  0
   25.7995  -19.5920   -7.4230 O   0  0  0  0  0  0  0  0  0  0  0  0
   27.3184  -20.7211   -8.6515 O   0  0  0  0  0  0  0  0  0  0  0  0
  2  3  2  0
  2  1  1  0
  4  2  1  0
  5  4  1  0
  6  5  1  0
  6  7  1  6
  8  6  1  0
  9  8  2  0
 10  8  1  0
 10 14  1  0
 11 12  1  0
 11 10  1  0
 12 13  1  0
 13 14  1  0
 14 15  1  1
 15 16  2  0
 18 17  1  0
 19 18  1  1
 19 21  1  0
 20 19  1  0
 20 15  1  0
 21 23  2  0
 21 22  1  0
M  END
$$$$
