QPS.pdb
     RDKit          3D

 23 23  0  0  1  0  0  0  0  0999 V2000
   22.8233  -29.2639   -9.5855 N   0  0  0  0  0  0  0  0  0  0  0  0
   21.7603  -29.1172  -10.5090 C   0  0  0  0  0  0  0  0  0  0  0  0
   21.5690  -27.9991  -11.0299 O   0  0  0  0  0  0  0  0  0  0  0  0
   20.8656  -30.2389  -10.8817 C   0  0  0  0  0  0  0  0  0  0  0  0
   21.2816  -31.4994  -10.1689 C   0  0  0  0  0  0  0  0  0  0  0  0
   22.0967  -32.4086  -11.0686 C   0  0  2  0  0  0  0  0  0  0  0  0
   21.2548  -32.9363  -12.1381 N   0  0  0  0  0  0  0  0  0  0  0  0
   22.7733  -33.4971  -10.3350 C   0  0  0  0  0  0  0  0  0  0  0  0
   22.1022  -34.5634  -10.1396 O   0  0  0  0  0  0  0  0  0  0  0  0
   24.0866  -33.4518   -9.8417 N   0  0  0  0  0  0  0  0  0  0  0  0
   24.9517  -32.2790   -9.9021 C   0  0  0  0  0  0  0  0  0  0  0  0
   26.3314  -32.9516  -10.0712 C   0  0  0  0  0  0  0  0  0  0  0  0
   26.2190  -34.0643   -9.0775 C   0  0  0  0  0  0  0  0  0  0  0  0
   24.8138  -34.5385   -9.2070 C   0  0  1  0  0  0  0  0  0  0  0  0
   24.2025  -34.9173   -7.9085 C   0  0  0  0  0  0  0  0  0  0  0  0
   23.5027  -34.0587   -7.3148 O   0  0  0  0  0  0  0  0  0  0  0  0
   23.2582  -38.7692   -6.9217 O   0  0  0  0  0  0  0  0  0  0  0  0
   23.9564  -38.0853   -5.9490 C   0  0  0  0  0  0  0  0  0  0  0  0
   23.7529  -36.5722   -6.0517 C   0  0  2  0  0  0  0  0  0  0  0  0
   24.3575  -36.1729   -7.3039 N   0  0  0  0  0  0  0  0  0  0  0  0
   24.5309  -35.9735   -4.9477 C   0  0  0  0  0  0  0  0  0  0  0  0
   24.1515  -36.0394   -3.6132 O   0  0  0  0  0  0  0  0  0  0  0  0
   25.5955  -35.3687   -5.2120 O   0  0  0  0  0  0  0  0  0  0  0  0
  2  3  2  0
  2  1  1  0
  4  2  1  0
  5  4  1  0
  6  5  1  0
  6  7  1  6
  8  6  1  0
  9  8  2  0
 10  8  1  0
 10 14  1  0
 11 12  1  0
 11 10  1  0
 12 13  1  0
 13 14  1  0
 14 15  1  1
 15 16  2  0
 18 17  1  0
 19 18  1  1
 19 21  1  0
 20 19  1  0
 20 15  1  0
 21 23  2  0
 21 22  1  0
M  END
$$$$
