QPS.pdb
     RDKit          3D

 23 23  0  0  1  0  0  0  0  0999 V2000
   20.4420  -15.2976  -19.5560 N   0  0  0  0  0  0  0  0  0  0  0  0
   19.8981  -14.0264  -19.8607 C   0  0  0  0  0  0  0  0  0  0  0  0
   19.2354  -13.8940  -20.9101 O   0  0  0  0  0  0  0  0  0  0  0  0
   20.0847  -12.8467  -18.9827 C   0  0  0  0  0  0  0  0  0  0  0  0
   21.0164  -13.1815  -17.8469 C   0  0  0  0  0  0  0  0  0  0  0  0
   20.2942  -13.1872  -16.5131 C   0  0  2  0  0  0  0  0  0  0  0  0
   18.9298  -13.6764  -16.6873 N   0  0  0  0  0  0  0  0  0  0  0  0
   20.3087  -11.8735  -15.8390 C   0  0  0  0  0  0  0  0  0  0  0  0
   19.1870  -11.2820  -15.7067 O   0  0  0  0  0  0  0  0  0  0  0  0
   21.4499  -11.2305  -15.3347 N   0  0  0  0  0  0  0  0  0  0  0  0
   22.7956  -11.7924  -15.3647 C   0  0  0  0  0  0  0  0  0  0  0  0
   23.3773  -11.2076  -14.0592 C   0  0  0  0  0  0  0  0  0  0  0  0
   22.8764   -9.8003  -14.1406 C   0  0  0  0  0  0  0  0  0  0  0  0
   21.5007   -9.9262  -14.6953 C   0  0  1  0  0  0  0  0  0  0  0  0
   21.1515   -8.8404  -15.6451 C   0  0  0  0  0  0  0  0  0  0  0  0
   21.4887   -8.9795  -16.8477 O   0  0  0  0  0  0  0  0  0  0  0  0
   18.1239   -6.4198  -14.8350 O   0  0  0  0  0  0  0  0  0  0  0  0
   18.5872   -6.4899  -16.1318 C   0  0  0  0  0  0  0  0  0  0  0  0
   20.1120   -6.6024  -16.1925 C   0  0  2  0  0  0  0  0  0  0  0  0
   20.4691   -7.6699  -15.2837 N   0  0  0  0  0  0  0  0  0  0  0  0
   20.6430   -5.3342  -15.6519 C   0  0  0  0  0  0  0  0  0  0  0  0
   20.5649   -4.1190  -16.3200 O   0  0  0  0  0  0  0  0  0  0  0  0
   21.1982   -5.3367  -14.5290 O   0  0  0  0  0  0  0  0  0  0  0  0
  2  3  2  0
  2  1  1  0
  4  2  1  0
  5  4  1  0
  6  5  1  0
  6  7  1  6
  8  6  1  0
  9  8  2  0
 10  8  1  0
 10 14  1  0
 11 12  1  0
 11 10  1  0
 12 13  1  0
 13 14  1  0
 14 15  1  6
 15 16  2  0
 18 17  1  0
 19 18  1  1
 19 21  1  0
 20 19  1  0
 20 15  1  0
 21 23  2  0
 21 22  1  0
M  END
$$$$
