QPS.pdb
     RDKit          3D

 23 23  0  0  1  0  0  0  0  0999 V2000
   13.8181  -19.3173    4.1437 N   0  0  0  0  0  0  0  0  0  0  0  0
   13.5285  -20.6741    4.4261 C   0  0  0  0  0  0  0  0  0  0  0  0
   13.0506  -20.9652    5.5418 O   0  0  0  0  0  0  0  0  0  0  0  0
   13.7703  -21.7624    3.4491 C   0  0  0  0  0  0  0  0  0  0  0  0
   14.4486  -21.2196    2.2181 C   0  0  0  0  0  0  0  0  0  0  0  0
   15.7846  -21.8941    1.9713 C   0  0  2  0  0  0  0  0  0  0  0  0
   15.5909  -23.3285    1.7808 N   0  0  0  0  0  0  0  0  0  0  0  0
   16.7759  -21.6253    3.0322 C   0  0  0  0  0  0  0  0  0  0  0  0
   17.0844  -22.6012    3.7924 O   0  0  0  0  0  0  0  0  0  0  0  0
   17.4018  -20.3910    3.2668 N   0  0  0  0  0  0  0  0  0  0  0  0
   17.2015  -19.1958    2.4550 C   0  0  0  0  0  0  0  0  0  0  0  0
   18.5996  -18.5476    2.5532 C   0  0  0  0  0  0  0  0  0  0  0  0
   18.8879  -18.7337    4.0093 C   0  0  0  0  0  0  0  0  0  0  0  0
   18.3493  -20.0850    4.3257 C   0  0  1  0  0  0  0  0  0  0  0  0
   17.7129  -20.1621    5.6645 C   0  0  0  0  0  0  0  0  0  0  0  0
   16.4574  -20.1693    5.7198 O   0  0  0  0  0  0  0  0  0  0  0  0
   19.8757  -21.2883    8.8948 O   0  0  0  0  0  0  0  0  0  0  0  0
   18.5002  -21.3562    8.9617 C   0  0  0  0  0  0  0  0  0  0  0  0
   17.8300  -20.2183    8.1887 C   0  0  2  0  0  0  0  0  0  0  0  0
   18.4256  -20.2273    6.8704 N   0  0  0  0  0  0  0  0  0  0  0  0
   18.2239  -18.9672    8.8685 C   0  0  0  0  0  0  0  0  0  0  0  0
   17.7012  -18.5549   10.0876 O   0  0  0  0  0  0  0  0  0  0  0  0
   19.0761  -18.2242    8.3293 O   0  0  0  0  0  0  0  0  0  0  0  0
  2  3  2  0
  2  1  1  0
  4  2  1  0
  5  4  1  0
  6  5  1  0
  6  7  1  1
  8  6  1  0
  9  8  2  0
 10  8  1  0
 10 14  1  0
 11 12  1  0
 11 10  1  0
 12 13  1  0
 13 14  1  0
 14 15  1  1
 15 16  2  0
 18 17  1  0
 19 18  1  1
 19 21  1  0
 20 19  1  0
 20 15  1  0
 21 23  2  0
 21 22  1  0
M  END
$$$$
