NKW.pdb
     RDKit          3D

 32 33  0  0  1  0  0  0  0  0999 V2000
    8.3845  -21.5847   18.8936 N   0  0  0  0  0  0  0  0  0  0  0  0
    9.5945  -21.0657   18.3611 C   0  0  0  0  0  0  0  0  0  0  0  0
   10.1385  -21.6972   17.4273 O   0  0  0  0  0  0  0  0  0  0  0  0
   10.2288  -19.8279   18.8578 C   0  0  0  0  0  0  0  0  0  0  0  0
    9.4603  -19.3218   20.0345 C   0  0  2  0  0  0  0  0  0  0  0  0
    8.0503  -19.2829   19.6859 N   0  0  0  0  0  0  0  0  0  0  0  0
    9.9336  -17.9763   20.4837 C   0  0  0  0  0  0  0  0  0  0  0  0
   11.1549  -17.7544   20.6924 O   0  0  0  0  0  0  0  0  0  0  0  0
    9.0351  -16.9001   20.6925 N   0  0  0  0  0  0  0  0  0  0  0  0
    9.4496  -15.6067   21.2489 C   0  0  1  0  0  0  0  0  0  0  0  0
    8.6980  -14.4837   20.6041 C   0  0  0  0  0  0  0  0  0  0  0  0
    8.6714  -14.4718   19.1200 C   0  0  0  0  0  0  0  0  0  0  0  0
    7.9032  -13.2497   18.6473 C   0  0  0  0  0  0  0  0  0  0  0  0
    7.9364  -13.2731   17.1316 C   0  0  0  0  0  0  0  0  0  0  0  0
    7.1820  -12.1139   16.6831 N   0  0  0  0  0  0  0  0  0  0  0  0
    9.2172  -15.5846   22.7155 C   0  0  0  0  0  0  0  0  0  0  0  0
    8.0467  -15.7239   23.1368 O   0  0  0  0  0  0  0  0  0  0  0  0
   10.2372  -15.4156   23.6607 N   0  0  0  0  0  0  0  0  0  0  0  0
    9.9805  -15.5202   25.0906 C   0  0  1  0  0  0  0  0  0  0  0  0
    8.6918  -16.2414   25.3426 C   0  0  0  0  0  0  0  0  0  0  0  0
    7.6012  -15.3232   25.6791 C   0  0  0  0  0  0  0  0  0  0  0  0
    6.2354  -15.6372   25.6302 C   0  0  0  0  0  0  0  0  0  0  0  0
    5.5084  -14.5563   25.9575 N   0  0  0  0  0  0  0  0  0  0  0  0
    6.3252  -13.5387   26.2226 C   0  0  0  0  0  0  0  0  0  0  0  0
    6.0578  -12.2376   26.6200 C   0  0  0  0  0  0  0  0  0  0  0  0
    7.0922  -11.3595   26.8621 C   0  0  0  0  0  0  0  0  0  0  0  0
    8.4016  -11.8193   26.6958 C   0  0  0  0  0  0  0  0  0  0  0  0
    8.6632  -13.1117   26.3003 C   0  0  0  0  0  0  0  0  0  0  0  0
    7.6202  -13.9823   26.0595 C   0  0  0  0  0  0  0  0  0  0  0  0
   11.0929  -16.0881   25.8413 C   0  0  0  0  0  0  0  0  0  0  0  0
   11.0178  -16.3004   27.1050 O   0  0  0  0  0  0  0  0  0  0  0  0
   12.3081  -16.4528   25.2761 O   0  0  0  0  0  0  0  0  0  0  0  0
  1  2  1  0
  2  3  2  0
  4  5  1  0
  4  2  1  0
  5  6  1  6
  7  5  1  0
  7  8  2  0
  9  7  1  0
 10  9  1  0
 10 11  1  6
 12 11  1  0
 12 13  1  0
 13 14  1  0
 15 14  1  0
 16 10  1  0
 17 16  2  0
 18 16  1  0
 19 30  1  0
 19 18  1  0
 20 21  1  0
 19 20  1  6
 21 22  2  0
 21 29  1  0
 22 23  1  0
 23 24  1  0
 24 25  2  0
 26 25  1  0
 27 26  2  0
 28 29  2  0
 28 27  1  0
 29 24  1  0
 30 32  1  0
 31 30  2  0
M  END
$$$$
