NKW.pdb
     RDKit          3D

 32 33  0  0  1  0  0  0  0  0999 V2000
    8.9501  -12.9126   17.6733 N   0  0  0  0  0  0  0  0  0  0  0  0
    7.6620  -13.4702   17.8904 C   0  0  0  0  0  0  0  0  0  0  0  0
    6.7954  -13.2978   17.0038 O   0  0  0  0  0  0  0  0  0  0  0  0
    7.3082  -14.2347   19.1034 C   0  0  0  0  0  0  0  0  0  0  0  0
    8.4615  -14.2092   20.0524 C   0  0  2  0  0  0  0  0  0  0  0  0
    9.6863  -14.4212   19.2999 N   0  0  0  0  0  0  0  0  0  0  0  0
    8.3231  -15.2269   21.1392 C   0  0  0  0  0  0  0  0  0  0  0  0
    7.3703  -15.1741   21.9601 O   0  0  0  0  0  0  0  0  0  0  0  0
    9.2511  -16.2874   21.2917 N   0  0  0  0  0  0  0  0  0  0  0  0
    9.1423  -17.3018   22.3470 C   0  0  1  0  0  0  0  0  0  0  0  0
    9.9172  -18.5311   21.9864 C   0  0  0  0  0  0  0  0  0  0  0  0
    9.8228  -19.6729   22.9302 C   0  0  0  0  0  0  0  0  0  0  0  0
   10.6553  -20.8266   22.3982 C   0  0  0  0  0  0  0  0  0  0  0  0
   10.0725  -22.0946   22.9909 C   0  0  0  0  0  0  0  0  0  0  0  0
   10.8821  -23.1947   22.4924 N   0  0  0  0  0  0  0  0  0  0  0  0
    9.6448  -16.7553   23.6331 C   0  0  0  0  0  0  0  0  0  0  0  0
   10.7331  -16.1368   23.6348 O   0  0  0  0  0  0  0  0  0  0  0  0
    8.9683  -16.8924   24.8522 N   0  0  0  0  0  0  0  0  0  0  0  0
    9.5757  -16.4917   26.1138 C   0  0  1  0  0  0  0  0  0  0  0  0
    8.5359  -15.9642   27.0545 C   0  0  0  0  0  0  0  0  0  0  0  0
    7.6225  -15.0254   26.3986 C   0  0  0  0  0  0  0  0  0  0  0  0
    6.4775  -15.3843   25.6730 C   0  0  0  0  0  0  0  0  0  0  0  0
    5.8951  -14.2839   25.1690 N   0  0  0  0  0  0  0  0  0  0  0  0
    6.5975  -13.2102   25.5254 C   0  0  0  0  0  0  0  0  0  0  0  0
    6.3913  -11.8630   25.2709 C   0  0  0  0  0  0  0  0  0  0  0  0
    7.2593  -10.9202   25.7781 C   0  0  0  0  0  0  0  0  0  0  0  0
    8.3393  -11.3627   26.5471 C   0  0  0  0  0  0  0  0  0  0  0  0
    8.5412  -12.7012   26.7971 C   0  0  0  0  0  0  0  0  0  0  0  0
    7.6668  -13.6369   26.2837 C   0  0  0  0  0  0  0  0  0  0  0  0
   10.3990  -17.5307   26.7191 C   0  0  0  0  0  0  0  0  0  0  0  0
   10.4357  -18.7244   26.2485 O   0  0  0  0  0  0  0  0  0  0  0  0
   11.2091  -17.3337   27.8299 O   0  0  0  0  0  0  0  0  0  0  0  0
  1  2  1  0
  2  3  2  0
  4  5  1  0
  4  2  1  0
  5  6  1  6
  7  5  1  0
  7  8  2  0
  9  7  1  0
 10  9  1  0
 10 11  1  6
 12 11  1  0
 12 13  1  0
 13 14  1  0
 15 14  1  0
 16 10  1  0
 17 16  2  0
 18 16  1  0
 19 30  1  0
 19 18  1  0
 20 21  1  0
 19 20  1  1
 21 22  2  0
 21 29  1  0
 22 23  1  0
 23 24  1  0
 24 25  2  0
 26 25  1  0
 27 26  2  0
 28 29  2  0
 28 27  1  0
 29 24  1  0
 30 32  1  0
 31 30  2  0
M  END
$$$$
