NKW.pdb
     RDKit          3D

 32 33  0  0  1  0  0  0  0  0999 V2000
    9.0464  -14.6633   17.2730 N   0  0  0  0  0  0  0  0  0  0  0  0
    7.8303  -13.9364   17.3729 C   0  0  0  0  0  0  0  0  0  0  0  0
    7.0605  -13.9500   16.3860 O   0  0  0  0  0  0  0  0  0  0  0  0
    7.4423  -13.1753   18.5776 C   0  0  0  0  0  0  0  0  0  0  0  0
    8.4469  -13.4192   19.6558 C   0  0  2  0  0  0  0  0  0  0  0  0
    9.7313  -13.7019   19.0380 N   0  0  0  0  0  0  0  0  0  0  0  0
    8.0399  -14.5323   20.5676 C   0  0  0  0  0  0  0  0  0  0  0  0
    6.9991  -14.4476   21.2705 O   0  0  0  0  0  0  0  0  0  0  0  0
    8.8018  -15.7223   20.6797 N   0  0  0  0  0  0  0  0  0  0  0  0
    8.5413  -16.7477   21.6971 C   0  0  1  0  0  0  0  0  0  0  0  0
    8.9382  -18.1034   21.2012 C   0  0  0  0  0  0  0  0  0  0  0  0
    8.1482  -18.6515   20.0704 C   0  0  0  0  0  0  0  0  0  0  0  0
    8.8224  -19.9129   19.5593 C   0  0  0  0  0  0  0  0  0  0  0  0
    7.9481  -20.4539   18.4449 C   0  0  0  0  0  0  0  0  0  0  0  0
    8.5940  -21.6637   17.9622 N   0  0  0  0  0  0  0  0  0  0  0  0
    9.2894  -16.4333   22.9409 C   0  0  0  0  0  0  0  0  0  0  0  0
   10.3405  -15.7595   22.8515 O   0  0  0  0  0  0  0  0  0  0  0  0
    8.8854  -16.8494   24.2161 N   0  0  0  0  0  0  0  0  0  0  0  0
    9.6944  -16.5878   25.3986 C   0  0  1  0  0  0  0  0  0  0  0  0
    9.6365  -15.1365   25.7653 C   0  0  0  0  0  0  0  0  0  0  0  0
    8.2601  -14.6434   25.8547 C   0  0  0  0  0  0  0  0  0  0  0  0
    7.1091  -15.4144   25.6373 C   0  0  0  0  0  0  0  0  0  0  0  0
    6.0160  -14.6428   25.7554 N   0  0  0  0  0  0  0  0  0  0  0  0
    6.3848  -13.3958   26.0416 C   0  0  0  0  0  0  0  0  0  0  0  0
    5.6315  -12.2555   26.2751 C   0  0  0  0  0  0  0  0  0  0  0  0
    6.2527  -11.0644   26.5831 C   0  0  0  0  0  0  0  0  0  0  0  0
    7.6486  -11.0457   26.6510 C   0  0  0  0  0  0  0  0  0  0  0  0
    8.3933  -12.1798   26.4178 C   0  0  0  0  0  0  0  0  0  0  0  0
    7.7614  -13.3669   26.1093 C   0  0  0  0  0  0  0  0  0  0  0  0
    9.3801  -17.4598   26.5231 C   0  0  0  0  0  0  0  0  0  0  0  0
   10.0333  -17.4025   27.6266 O   0  0  0  0  0  0  0  0  0  0  0  0
    8.3647  -18.4073   26.5135 O   0  0  0  0  0  0  0  0  0  0  0  0
  1  2  1  0
  2  3  2  0
  4  5  1  0
  4  2  1  0
  5  6  1  6
  7  5  1  0
  7  8  2  0
  9  7  1  0
 10  9  1  0
 10 11  1  6
 12 11  1  0
 12 13  1  0
 13 14  1  0
 15 14  1  0
 16 10  1  0
 17 16  2  0
 18 16  1  0
 19 30  1  0
 19 18  1  0
 20 21  1  0
 19 20  1  1
 21 22  2  0
 21 29  1  0
 22 23  1  0
 23 24  1  0
 24 25  2  0
 26 25  1  0
 27 26  2  0
 28 29  2  0
 28 27  1  0
 29 24  1  0
 30 32  1  0
 31 30  2  0
M  END
$$$$
