NKW.pdb
     RDKit          3D

 32 33  0  0  1  0  0  0  0  0999 V2000
    7.9313  -15.3192   15.3185 N   0  0  0  0  0  0  0  0  0  0  0  0
    7.9121  -14.4502   16.4418 C   0  0  0  0  0  0  0  0  0  0  0  0
    8.2301  -13.2536   16.2583 O   0  0  0  0  0  0  0  0  0  0  0  0
    7.5373  -14.8951   17.7993 C   0  0  0  0  0  0  0  0  0  0  0  0
    8.7709  -15.0182   18.6325 C   0  0  2  0  0  0  0  0  0  0  0  0
    9.8732  -15.4163   17.7735 N   0  0  0  0  0  0  0  0  0  0  0  0
    8.5991  -15.9866   19.7589 C   0  0  0  0  0  0  0  0  0  0  0  0
    7.6577  -15.8606   20.5849 O   0  0  0  0  0  0  0  0  0  0  0  0
    9.4815  -17.0802   19.9447 N   0  0  0  0  0  0  0  0  0  0  0  0
    9.3793  -18.0089   21.0767 C   0  0  1  0  0  0  0  0  0  0  0  0
    9.9008  -19.3621   20.7045 C   0  0  0  0  0  0  0  0  0  0  0  0
    9.8164  -20.4136   21.7489 C   0  0  0  0  0  0  0  0  0  0  0  0
   10.3312  -21.7232   21.1772 C   0  0  0  0  0  0  0  0  0  0  0  0
   10.2499  -22.7477   22.2921 C   0  0  0  0  0  0  0  0  0  0  0  0
   10.7133  -24.0068   21.7319 N   0  0  0  0  0  0  0  0  0  0  0  0
   10.1414  -17.4832   22.2378 C   0  0  0  0  0  0  0  0  0  0  0  0
   10.6694  -18.3005   23.0252 O   0  0  0  0  0  0  0  0  0  0  0  0
   10.3049  -16.1178   22.5053 N   0  0  0  0  0  0  0  0  0  0  0  0
   10.0565  -15.5621   23.8285 C   0  0  1  0  0  0  0  0  0  0  0  0
    9.3145  -14.2649   23.7238 C   0  0  0  0  0  0  0  0  0  0  0  0
    8.2422  -14.1599   24.7162 C   0  0  0  0  0  0  0  0  0  0  0  0
    7.4724  -15.2313   25.1916 C   0  0  0  0  0  0  0  0  0  0  0  0
    6.5505  -14.7796   26.0578 N   0  0  0  0  0  0  0  0  0  0  0  0
    6.6708  -13.4593   26.1818 C   0  0  0  0  0  0  0  0  0  0  0  0
    5.9715  -12.5518   26.9626 C   0  0  0  0  0  0  0  0  0  0  0  0
    6.3035  -11.2144   26.9377 C   0  0  0  0  0  0  0  0  0  0  0  0
    7.3548  -10.8101   26.1101 C   0  0  0  0  0  0  0  0  0  0  0  0
    8.0464  -11.7140   25.3357 C   0  0  0  0  0  0  0  0  0  0  0  0
    7.7051  -13.0506   25.3673 C   0  0  0  0  0  0  0  0  0  0  0  0
    9.4150  -16.4990   24.7419 C   0  0  0  0  0  0  0  0  0  0  0  0
    8.4410  -17.2474   24.3694 O   0  0  0  0  0  0  0  0  0  0  0  0
    9.7904  -16.6745   26.0676 O   0  0  0  0  0  0  0  0  0  0  0  0
  1  2  1  0
  2  3  2  0
  4  5  1  0
  4  2  1  0
  5  6  1  6
  7  5  1  0
  7  8  2  0
  9  7  1  0
 10  9  1  0
 10 11  1  6
 12 11  1  0
 12 13  1  0
 13 14  1  0
 15 14  1  0
 16 10  1  0
 17 16  2  0
 18 16  1  0
 19 30  1  0
 19 18  1  0
 20 21  1  0
 19 20  1  6
 21 22  2  0
 21 29  1  0
 22 23  1  0
 23 24  1  0
 24 25  2  0
 26 25  1  0
 27 26  2  0
 28 29  2  0
 28 27  1  0
 29 24  1  0
 30 32  1  0
 31 30  2  0
M  END
$$$$
