NKW.pdb
     RDKit          3D

 32 33  0  0  1  0  0  0  0  0999 V2000
    8.2505  -20.0551   17.0709 N   0  0  0  0  0  0  0  0  0  0  0  0
    9.4260  -19.5460   17.6842 C   0  0  0  0  0  0  0  0  0  0  0  0
   10.4152  -20.3082   17.7704 O   0  0  0  0  0  0  0  0  0  0  0  0
    9.5274  -18.1725   18.2174 C   0  0  0  0  0  0  0  0  0  0  0  0
    9.3376  -18.2067   19.6986 C   0  0  2  0  0  0  0  0  0  0  0  0
    7.9824  -18.6473   19.9827 N   0  0  0  0  0  0  0  0  0  0  0  0
    9.6094  -16.8812   20.3351 C   0  0  0  0  0  0  0  0  0  0  0  0
   10.7717  -16.3986   20.3582 O   0  0  0  0  0  0  0  0  0  0  0  0
    8.5785  -16.1157   20.9355 N   0  0  0  0  0  0  0  0  0  0  0  0
    8.8073  -14.7980   21.5402 C   0  0  1  0  0  0  0  0  0  0  0  0
    7.7973  -13.8057   21.0537 C   0  0  0  0  0  0  0  0  0  0  0  0
    7.2763  -14.0120   19.6792 C   0  0  0  0  0  0  0  0  0  0  0  0
    8.2444  -13.3964   18.6838 C   0  0  0  0  0  0  0  0  0  0  0  0
    7.6141  -13.5456   17.3129 C   0  0  0  0  0  0  0  0  0  0  0  0
    8.5233  -12.9167   16.3686 N   0  0  0  0  0  0  0  0  0  0  0  0
    8.7357  -14.8970   23.0203 C   0  0  0  0  0  0  0  0  0  0  0  0
    8.2629  -13.9314   23.6613 O   0  0  0  0  0  0  0  0  0  0  0  0
    9.1693  -16.0144   23.7455 N   0  0  0  0  0  0  0  0  0  0  0  0
   10.0374  -15.8829   24.9076 C   0  0  1  0  0  0  0  0  0  0  0  0
    9.2456  -16.0095   26.1730 C   0  0  0  0  0  0  0  0  0  0  0  0
    8.0053  -15.2313   26.1292 C   0  0  0  0  0  0  0  0  0  0  0  0
    6.7358  -15.7489   25.8347 C   0  0  0  0  0  0  0  0  0  0  0  0
    5.8291  -14.7579   25.8362 N   0  0  0  0  0  0  0  0  0  0  0  0
    6.4348  -13.6061   26.1185 C   0  0  0  0  0  0  0  0  0  0  0  0
    5.9293  -12.3222   26.2541 C   0  0  0  0  0  0  0  0  0  0  0  0
    6.7668  -11.2777   26.5813 C   0  0  0  0  0  0  0  0  0  0  0  0
    8.1241  -11.5533   26.7692 C   0  0  0  0  0  0  0  0  0  0  0  0
    8.6225  -12.8293   26.6329 C   0  0  0  0  0  0  0  0  0  0  0  0
    7.7755  -13.8676   26.3041 C   0  0  0  0  0  0  0  0  0  0  0  0
   11.1880  -16.7767   24.8784 C   0  0  0  0  0  0  0  0  0  0  0  0
   11.3048  -17.7003   23.9947 O   0  0  0  0  0  0  0  0  0  0  0  0
   12.2465  -16.7127   25.7753 O   0  0  0  0  0  0  0  0  0  0  0  0
  1  2  1  0
  2  3  2  0
  4  5  1  0
  4  2  1  0
  5  6  1  6
  7  5  1  0
  7  8  2  0
  9  7  1  0
 10  9  1  0
 10 11  1  6
 12 11  1  0
 12 13  1  0
 13 14  1  0
 15 14  1  0
 16 10  1  0
 17 16  2  0
 18 16  1  0
 19 30  1  0
 19 18  1  0
 20 21  1  0
 19 20  1  1
 21 22  2  0
 21 29  1  0
 22 23  1  0
 23 24  1  0
 24 25  2  0
 26 25  1  0
 27 26  2  0
 28 29  2  0
 28 27  1  0
 29 24  1  0
 30 32  1  0
 31 30  2  0
M  END
$$$$
