NKW.pdb
     RDKit          3D

 32 33  0  0  1  0  0  0  0  0999 V2000
    6.5789  -15.0671   17.9294 N   0  0  0  0  0  0  0  0  0  0  0  0
    7.5485  -14.1186   18.3506 C   0  0  0  0  0  0  0  0  0  0  0  0
    8.5229  -13.9061   17.5943 O   0  0  0  0  0  0  0  0  0  0  0  0
    7.4551  -13.3827   19.6277 C   0  0  0  0  0  0  0  0  0  0  0  0
    8.6200  -13.7464   20.4890 C   0  0  2  0  0  0  0  0  0  0  0  0
    9.7445  -14.0807   19.6317 N   0  0  0  0  0  0  0  0  0  0  0  0
    8.3066  -14.8754   21.4181 C   0  0  0  0  0  0  0  0  0  0  0  0
    7.3374  -14.8073   22.2183 O   0  0  0  0  0  0  0  0  0  0  0  0
    9.0807  -16.0627   21.4383 N   0  0  0  0  0  0  0  0  0  0  0  0
    8.9041  -17.1174   22.4436 C   0  0  1  0  0  0  0  0  0  0  0  0
    9.4881  -18.4110   21.9672 C   0  0  0  0  0  0  0  0  0  0  0  0
    9.2749  -19.5937   22.8385 C   0  0  0  0  0  0  0  0  0  0  0  0
    9.9138  -20.8095   22.1900 C   0  0  0  0  0  0  0  0  0  0  0  0
    9.6001  -21.9949   23.0818 C   0  0  0  0  0  0  0  0  0  0  0  0
    8.5305  -22.7324   22.4290 N   0  0  0  0  0  0  0  0  0  0  0  0
    9.5506  -16.7188   23.7197 C   0  0  0  0  0  0  0  0  0  0  0  0
   10.7080  -16.2435   23.6799 O   0  0  0  0  0  0  0  0  0  0  0  0
    8.9377  -16.8445   24.9731 N   0  0  0  0  0  0  0  0  0  0  0  0
    9.6340  -16.4963   26.2040 C   0  0  1  0  0  0  0  0  0  0  0  0
    8.6984  -15.8344   27.1688 C   0  0  0  0  0  0  0  0  0  0  0  0
    7.6890  -15.0192   26.4890 C   0  0  0  0  0  0  0  0  0  0  0  0
    6.6489  -15.5185   25.6919 C   0  0  0  0  0  0  0  0  0  0  0  0
    5.9343  -14.4998   25.1863 N   0  0  0  0  0  0  0  0  0  0  0  0
    6.4488  -13.3469   25.6096 C   0  0  0  0  0  0  0  0  0  0  0  0
    6.0560  -12.0371   25.3804 C   0  0  0  0  0  0  0  0  0  0  0  0
    6.7461  -10.9943   25.9598 C   0  0  0  0  0  0  0  0  0  0  0  0
    7.8399  -11.2981   26.7751 C   0  0  0  0  0  0  0  0  0  0  0  0
    8.2274  -12.5998   26.9998 C   0  0  0  0  0  0  0  0  0  0  0  0
    7.5302  -13.6364   26.4140 C   0  0  0  0  0  0  0  0  0  0  0  0
   10.3525  -17.6141   26.8022 C   0  0  0  0  0  0  0  0  0  0  0  0
   11.0793  -17.4680   27.8500 O   0  0  0  0  0  0  0  0  0  0  0  0
   10.3153  -18.9140   26.3143 O   0  0  0  0  0  0  0  0  0  0  0  0
  1  2  1  0
  2  3  2  0
  4  5  1  0
  4  2  1  0
  5  6  1  6
  7  5  1  0
  7  8  2  0
  9  7  1  0
 10  9  1  0
 10 11  1  6
 12 11  1  0
 12 13  1  0
 13 14  1  0
 15 14  1  0
 16 10  1  0
 17 16  2  0
 18 16  1  0
 19 30  1  0
 19 18  1  0
 20 21  1  0
 19 20  1  1
 21 22  2  0
 21 29  1  0
 22 23  1  0
 23 24  1  0
 24 25  2  0
 26 25  1  0
 27 26  2  0
 28 29  2  0
 28 27  1  0
 29 24  1  0
 30 32  1  0
 31 30  2  0
M  END
$$$$
