NKW.pdb
     RDKit          3D

 32 33  0  0  1  0  0  0  0  0999 V2000
   15.6848  -15.6615   17.4381 N   0  0  0  0  0  0  0  0  0  0  0  0
   15.6567  -14.4897   18.2402 C   0  0  0  0  0  0  0  0  0  0  0  0
   16.6961  -13.7943   18.2926 O   0  0  0  0  0  0  0  0  0  0  0  0
   14.4670  -14.0642   19.0048 C   0  0  0  0  0  0  0  0  0  0  0  0
   13.8439  -15.2602   19.6472 C   0  0  2  0  0  0  0  0  0  0  0  0
   13.2795  -16.1040   18.6075 N   0  0  0  0  0  0  0  0  0  0  0  0
   12.8010  -14.8850   20.6509 C   0  0  0  0  0  0  0  0  0  0  0  0
   13.0948  -14.2047   21.6684 O   0  0  0  0  0  0  0  0  0  0  0  0
   11.4465  -15.2755   20.5021 N   0  0  0  0  0  0  0  0  0  0  0  0
   10.3854  -14.8549   21.4248 C   0  0  1  0  0  0  0  0  0  0  0  0
    9.0524  -14.8627   20.7430 C   0  0  0  0  0  0  0  0  0  0  0  0
    8.9581  -14.1115   19.4663 C   0  0  0  0  0  0  0  0  0  0  0  0
    7.5895  -14.3476   18.8515 C   0  0  0  0  0  0  0  0  0  0  0  0
    7.5927  -13.6572   17.5016 C   0  0  0  0  0  0  0  0  0  0  0  0
    6.3104  -13.9519   16.8828 N   0  0  0  0  0  0  0  0  0  0  0  0
   10.3475  -15.7575   22.6035 C   0  0  0  0  0  0  0  0  0  0  0  0
   10.7900  -16.9217   22.4787 O   0  0  0  0  0  0  0  0  0  0  0  0
    9.8422  -15.3801   23.8544 N   0  0  0  0  0  0  0  0  0  0  0  0
    9.9103  -16.2680   25.0069 C   0  0  1  0  0  0  0  0  0  0  0  0
    9.5345  -15.5356   26.2585 C   0  0  0  0  0  0  0  0  0  0  0  0
    8.1514  -15.0545   26.2233 C   0  0  0  0  0  0  0  0  0  0  0  0
    7.0254  -15.8482   25.9616 C   0  0  0  0  0  0  0  0  0  0  0  0
    5.9205  -15.0843   25.9617 N   0  0  0  0  0  0  0  0  0  0  0  0
    6.2578  -13.8207   26.2118 C   0  0  0  0  0  0  0  0  0  0  0  0
    5.4805  -12.6790   26.3333 C   0  0  0  0  0  0  0  0  0  0  0  0
    6.0682  -11.4673   26.6260 C   0  0  0  0  0  0  0  0  0  0  0  0
    7.4553  -11.4294   26.7940 C   0  0  0  0  0  0  0  0  0  0  0  0
    8.2239  -12.5649   26.6718 C   0  0  0  0  0  0  0  0  0  0  0  0
    7.6255  -13.7728   26.3775 C   0  0  0  0  0  0  0  0  0  0  0  0
    9.1551  -17.5026   24.8356 C   0  0  0  0  0  0  0  0  0  0  0  0
    9.2289  -18.4636   25.6832 O   0  0  0  0  0  0  0  0  0  0  0  0
    8.2985  -17.7498   23.7707 O   0  0  0  0  0  0  0  0  0  0  0  0
  1  2  1  0
  2  3  2  0
  4  5  1  0
  4  2  1  0
  5  6  1  6
  7  5  1  0
  7  8  2  0
  9  7  1  0
 10  9  1  0
 10 11  1  6
 12 11  1  0
 12 13  1  0
 13 14  1  0
 15 14  1  0
 16 10  1  0
 17 16  2  0
 18 16  1  0
 19 30  1  0
 19 18  1  0
 20 21  1  0
 19 20  1  1
 21 22  2  0
 21 29  1  0
 22 23  1  0
 23 24  1  0
 24 25  2  0
 26 25  1  0
 27 26  2  0
 28 29  2  0
 28 27  1  0
 29 24  1  0
 30 32  1  0
 31 30  2  0
M  END
$$$$
