NKW.pdb
     RDKit          3D

 32 33  0  0  1  0  0  0  0  0999 V2000
    9.3848  -14.2554   15.9781 N   0  0  0  0  0  0  0  0  0  0  0  0
    8.2112  -13.6630   16.5156 C   0  0  0  0  0  0  0  0  0  0  0  0
    7.5030  -12.9726   15.7483 O   0  0  0  0  0  0  0  0  0  0  0  0
    7.7980  -13.8259   17.9241 C   0  0  0  0  0  0  0  0  0  0  0  0
    8.8008  -14.6757   18.6337 C   0  0  2  0  0  0  0  0  0  0  0  0
    9.0534  -15.8616   17.8331 N   0  0  0  0  0  0  0  0  0  0  0  0
    8.3530  -15.0499   20.0104 C   0  0  0  0  0  0  0  0  0  0  0  0
    8.3172  -14.1969   20.9354 O   0  0  0  0  0  0  0  0  0  0  0  0
    7.9521  -16.3709   20.3320 N   0  0  0  0  0  0  0  0  0  0  0  0
    7.5184  -16.7720   21.6757 C   0  0  1  0  0  0  0  0  0  0  0  0
    6.9624  -18.1620   21.6634 C   0  0  0  0  0  0  0  0  0  0  0  0
    6.5579  -18.7241   22.9763 C   0  0  0  0  0  0  0  0  0  0  0  0
    6.0032  -20.1226   22.7677 C   0  0  0  0  0  0  0  0  0  0  0  0
    5.4698  -20.5849   24.1096 C   0  0  0  0  0  0  0  0  0  0  0  0
    4.9172  -21.9133   23.9000 N   0  0  0  0  0  0  0  0  0  0  0  0
    8.6603  -16.7003   22.6225 C   0  0  0  0  0  0  0  0  0  0  0  0
    9.7692  -17.1506   22.2559 O   0  0  0  0  0  0  0  0  0  0  0  0
    8.5685  -16.1552   23.9097 N   0  0  0  0  0  0  0  0  0  0  0  0
    9.7226  -16.0854   24.7953 C   0  0  1  0  0  0  0  0  0  0  0  0
    9.6116  -14.9061   25.7126 C   0  0  0  0  0  0  0  0  0  0  0  0
    8.2186  -14.5209   25.9514 C   0  0  0  0  0  0  0  0  0  0  0  0
    7.1571  -15.4131   26.1603 C   0  0  0  0  0  0  0  0  0  0  0  0
    6.0098  -14.7293   26.3027 N   0  0  0  0  0  0  0  0  0  0  0  0
    6.2575  -13.4251   26.1993 C   0  0  0  0  0  0  0  0  0  0  0  0
    5.4140  -12.3288   26.2945 C   0  0  0  0  0  0  0  0  0  0  0  0
    5.9192  -11.0522   26.1752 C   0  0  0  0  0  0  0  0  0  0  0  0
    7.2918  -10.9025   25.9580 C   0  0  0  0  0  0  0  0  0  0  0  0
    8.1261  -11.9934   25.8632 C   0  0  0  0  0  0  0  0  0  0  0  0
    7.6098  -13.2673   25.9831 C   0  0  0  0  0  0  0  0  0  0  0  0
    9.9813  -17.3271   25.5129 C   0  0  0  0  0  0  0  0  0  0  0  0
    9.1064  -18.2639   25.5809 O   0  0  0  0  0  0  0  0  0  0  0  0
   11.1713  -17.6137   26.1691 O   0  0  0  0  0  0  0  0  0  0  0  0
  1  2  1  0
  2  3  2  0
  4  5  1  0
  4  2  1  0
  5  6  1  6
  7  5  1  0
  7  8  2  0
  9  7  1  0
 10  9  1  0
 10 11  1  6
 12 11  1  0
 12 13  1  0
 13 14  1  0
 15 14  1  0
 16 10  1  0
 17 16  2  0
 18 16  1  0
 19 30  1  0
 19 18  1  0
 20 21  1  0
 19 20  1  1
 21 22  2  0
 21 29  1  0
 22 23  1  0
 23 24  1  0
 24 25  2  0
 26 25  1  0
 27 26  2  0
 28 29  2  0
 28 27  1  0
 29 24  1  0
 30 32  1  0
 31 30  2  0
M  END
$$$$
