NKW.pdb
     RDKit          3D

 32 33  0  0  1  0  0  0  0  0999 V2000
    7.8353  -15.9814   13.8755 N   0  0  0  0  0  0  0  0  0  0  0  0
    8.6202  -15.6165   15.0014 C   0  0  0  0  0  0  0  0  0  0  0  0
    9.8236  -15.3330   14.8058 O   0  0  0  0  0  0  0  0  0  0  0  0
    8.0816  -15.5587   16.3754 C   0  0  0  0  0  0  0  0  0  0  0  0
    8.8931  -16.4501   17.2576 C   0  0  2  0  0  0  0  0  0  0  0  0
    8.9439  -17.7733   16.6594 N   0  0  0  0  0  0  0  0  0  0  0  0
    8.3495  -16.5169   18.6489 C   0  0  0  0  0  0  0  0  0  0  0  0
    8.2778  -15.4860   19.3677 O   0  0  0  0  0  0  0  0  0  0  0  0
    7.8944  -17.7340   19.2153 N   0  0  0  0  0  0  0  0  0  0  0  0
    7.3241  -17.8261   20.5645 C   0  0  1  0  0  0  0  0  0  0  0  0
    6.8184  -19.2089   20.8361 C   0  0  0  0  0  0  0  0  0  0  0  0
    6.3828  -19.4927   22.2264 C   0  0  0  0  0  0  0  0  0  0  0  0
    5.8096  -20.8978   22.2899 C   0  0  0  0  0  0  0  0  0  0  0  0
    5.3451  -21.1154   23.7167 C   0  0  0  0  0  0  0  0  0  0  0  0
    4.7222  -22.4286   23.7536 N   0  0  0  0  0  0  0  0  0  0  0  0
    8.3481  -17.4623   21.5767 C   0  0  0  0  0  0  0  0  0  0  0  0
    9.4500  -18.0556   21.5515 O   0  0  0  0  0  0  0  0  0  0  0  0
    8.1518  -16.4883   22.5643 N   0  0  0  0  0  0  0  0  0  0  0  0
    9.1300  -16.2598   23.6189 C   0  0  1  0  0  0  0  0  0  0  0  0
    9.1801  -14.8079   23.9847 C   0  0  0  0  0  0  0  0  0  0  0  0
    8.0883  -14.4264   24.8838 C   0  0  0  0  0  0  0  0  0  0  0  0
    7.1753  -15.3149   25.4698 C   0  0  0  0  0  0  0  0  0  0  0  0
    6.2800  -14.6305   26.2006 N   0  0  0  0  0  0  0  0  0  0  0  0
    6.5543  -13.3294   26.1293 C   0  0  0  0  0  0  0  0  0  0  0  0
    5.9385  -12.2365   26.7198 C   0  0  0  0  0  0  0  0  0  0  0  0
    6.4309  -10.9663   26.5116 C   0  0  0  0  0  0  0  0  0  0  0  0
    7.5567  -10.8197   25.6963 C   0  0  0  0  0  0  0  0  0  0  0  0
    8.1651  -11.9071   25.1111 C   0  0  0  0  0  0  0  0  0  0  0  0
    7.6633  -13.1745   25.3253 C   0  0  0  0  0  0  0  0  0  0  0  0
    8.9457  -17.1209   24.7799 C   0  0  0  0  0  0  0  0  0  0  0  0
    7.7836  -17.5281   25.1424 O   0  0  0  0  0  0  0  0  0  0  0  0
    9.9830  -17.5796   25.5816 O   0  0  0  0  0  0  0  0  0  0  0  0
  1  2  1  0
  2  3  2  0
  4  5  1  0
  4  2  1  0
  5  6  1  6
  7  5  1  0
  7  8  2  0
  9  7  1  0
 10  9  1  0
 10 11  1  1
 12 11  1  0
 12 13  1  0
 13 14  1  0
 15 14  1  0
 16 10  1  0
 17 16  2  0
 18 16  1  0
 19 30  1  0
 19 18  1  0
 20 21  1  0
 19 20  1  1
 21 22  2  0
 21 29  1  0
 22 23  1  0
 23 24  1  0
 24 25  2  0
 26 25  1  0
 27 26  2  0
 28 29  2  0
 28 27  1  0
 29 24  1  0
 30 32  1  0
 31 30  2  0
M  END
$$$$
