NKW.pdb
     RDKit          3D

 32 33  0  0  1  0  0  0  0  0999 V2000
    8.2086  -12.0265   17.0353 N   0  0  0  0  0  0  0  0  0  0  0  0
    8.0288  -13.4346   16.9878 C   0  0  0  0  0  0  0  0  0  0  0  0
    8.2861  -14.0189   15.9112 O   0  0  0  0  0  0  0  0  0  0  0  0
    7.5569  -14.2267   18.1415 C   0  0  0  0  0  0  0  0  0  0  0  0
    8.7374  -14.7317   18.9048 C   0  0  2  0  0  0  0  0  0  0  0  0
    9.4856  -15.6413   18.0539 N   0  0  0  0  0  0  0  0  0  0  0  0
    8.3415  -15.4030   20.1810 C   0  0  0  0  0  0  0  0  0  0  0  0
    7.6632  -14.7957   21.0503 O   0  0  0  0  0  0  0  0  0  0  0  0
    8.7094  -16.7419   20.4659 N   0  0  0  0  0  0  0  0  0  0  0  0
    8.3844  -17.4102   21.7316 C   0  0  1  0  0  0  0  0  0  0  0  0
    8.4606  -18.8981   21.5835 C   0  0  0  0  0  0  0  0  0  0  0  0
    7.6260  -19.5000   20.5137 C   0  0  0  0  0  0  0  0  0  0  0  0
    8.0131  -20.9588   20.3438 C   0  0  0  0  0  0  0  0  0  0  0  0
    7.0943  -21.5333   19.2833 C   0  0  0  0  0  0  0  0  0  0  0  0
    7.5755  -22.8761   19.0018 N   0  0  0  0  0  0  0  0  0  0  0  0
    9.3193  -16.9669   22.7968 C   0  0  0  0  0  0  0  0  0  0  0  0
   10.5444  -16.9371   22.5419 O   0  0  0  0  0  0  0  0  0  0  0  0
    8.9080  -16.5780   24.0783 N   0  0  0  0  0  0  0  0  0  0  0  0
    9.8678  -16.2657   25.1283 C   0  0  1  0  0  0  0  0  0  0  0  0
    9.6658  -14.8676   25.6272 C   0  0  0  0  0  0  0  0  0  0  0  0
    8.2471  -14.5196   25.7369 C   0  0  0  0  0  0  0  0  0  0  0  0
    7.1811  -15.4226   25.6164 C   0  0  0  0  0  0  0  0  0  0  0  0
    6.0144  -14.7660   25.7252 N   0  0  0  0  0  0  0  0  0  0  0  0
    6.2535  -13.4696   25.9130 C   0  0  0  0  0  0  0  0  0  0  0  0
    5.3876  -12.4028   26.0991 C   0  0  0  0  0  0  0  0  0  0  0  0
    5.8842  -11.1334   26.3026 C   0  0  0  0  0  0  0  0  0  0  0  0
    7.2712  -10.9608   26.3148 C   0  0  0  0  0  0  0  0  0  0  0  0
    8.1278  -12.0223   26.1289 C   0  0  0  0  0  0  0  0  0  0  0  0
    7.6201  -13.2889   25.9250 C   0  0  0  0  0  0  0  0  0  0  0  0
    9.8889  -17.2449   26.2073 C   0  0  0  0  0  0  0  0  0  0  0  0
   10.7664  -17.2015   27.1431 O   0  0  0  0  0  0  0  0  0  0  0  0
    8.9805  -18.2884   26.3296 O   0  0  0  0  0  0  0  0  0  0  0  0
  1  2  1  0
  2  3  2  0
  4  5  1  0
  4  2  1  0
  5  6  1  6
  7  5  1  0
  7  8  2  0
  9  7  1  0
 10  9  1  0
 10 11  1  6
 12 11  1  0
 12 13  1  0
 13 14  1  0
 15 14  1  0
 16 10  1  0
 17 16  2  0
 18 16  1  0
 19 30  1  0
 19 18  1  0
 20 21  1  0
 19 20  1  1
 21 22  2  0
 21 29  1  0
 22 23  1  0
 23 24  1  0
 24 25  2  0
 26 25  1  0
 27 26  2  0
 28 29  2  0
 28 27  1  0
 29 24  1  0
 30 32  1  0
 31 30  2  0
M  END
$$$$
