NKW.pdb
     RDKit          3D

 32 33  0  0  1  0  0  0  0  0999 V2000
    8.9995  -21.8104   20.6230 N   0  0  0  0  0  0  0  0  0  0  0  0
    9.2144  -21.5725   22.0066 C   0  0  0  0  0  0  0  0  0  0  0  0
   10.0148  -22.3226   22.6094 O   0  0  0  0  0  0  0  0  0  0  0  0
    8.5409  -20.4907   22.7531 C   0  0  0  0  0  0  0  0  0  0  0  0
    7.6944  -19.6987   21.8109 C   0  0  2  0  0  0  0  0  0  0  0  0
    7.4567  -20.4954   20.6193 N   0  0  0  0  0  0  0  0  0  0  0  0
    8.3174  -18.3863   21.4567 C   0  0  0  0  0  0  0  0  0  0  0  0
    9.4827  -18.3276   20.9846 O   0  0  0  0  0  0  0  0  0  0  0  0
    7.6287  -17.1604   21.6355 N   0  0  0  0  0  0  0  0  0  0  0  0
    8.2617  -15.8502   21.4429 C   0  0  1  0  0  0  0  0  0  0  0  0
    7.2299  -14.7841   21.2422 C   0  0  0  0  0  0  0  0  0  0  0  0
    7.7206  -13.4735   20.7475 C   0  0  0  0  0  0  0  0  0  0  0  0
    7.9177  -13.5529   19.2436 C   0  0  0  0  0  0  0  0  0  0  0  0
    8.4436  -12.2016   18.8006 C   0  0  0  0  0  0  0  0  0  0  0  0
    8.5920  -12.2684   17.3558 N   0  0  0  0  0  0  0  0  0  0  0  0
    9.1041  -15.5134   22.6186 C   0  0  0  0  0  0  0  0  0  0  0  0
    9.7133  -14.4199   22.6232 O   0  0  0  0  0  0  0  0  0  0  0  0
    9.2582  -16.3529   23.7294 N   0  0  0  0  0  0  0  0  0  0  0  0
   10.0188  -15.9403   24.9010 C   0  0  1  0  0  0  0  0  0  0  0  0
    9.2084  -16.1271   26.1471 C   0  0  0  0  0  0  0  0  0  0  0  0
    7.8692  -15.5458   26.0278 C   0  0  0  0  0  0  0  0  0  0  0  0
    6.7089  -16.2524   25.6801 C   0  0  0  0  0  0  0  0  0  0  0  0
    5.6646  -15.4099   25.6188 N   0  0  0  0  0  0  0  0  0  0  0  0
    6.0747  -14.1769   25.9100 C   0  0  0  0  0  0  0  0  0  0  0  0
    5.3754  -12.9829   25.9974 C   0  0  0  0  0  0  0  0  0  0  0  0
    6.0282  -11.8205   26.3469 C   0  0  0  0  0  0  0  0  0  0  0  0
    7.3999  -11.8858   26.6068 C   0  0  0  0  0  0  0  0  0  0  0  0
    8.0910  -13.0731   26.5184 C   0  0  0  0  0  0  0  0  0  0  0  0
    7.4280  -14.2309   26.1666 C   0  0  0  0  0  0  0  0  0  0  0  0
   11.3323  -16.5648   24.9915 C   0  0  0  0  0  0  0  0  0  0  0  0
   11.6861  -17.5133   24.2024 O   0  0  0  0  0  0  0  0  0  0  0  0
   12.3067  -16.1988   25.9111 O   0  0  0  0  0  0  0  0  0  0  0  0
  1  2  1  0
  2  3  2  0
  4  5  1  0
  4  2  1  0
  5  6  1  6
  7  5  1  0
  7  8  2  0
  9  7  1  0
 10  9  1  0
 10 11  1  1
 12 11  1  0
 12 13  1  0
 13 14  1  0
 15 14  1  0
 16 10  1  0
 17 16  2  0
 18 16  1  0
 19 30  1  0
 19 18  1  0
 20 21  1  0
 19 20  1  1
 21 22  2  0
 21 29  1  0
 22 23  1  0
 23 24  1  0
 24 25  2  0
 26 25  1  0
 27 26  2  0
 28 29  2  0
 28 27  1  0
 29 24  1  0
 30 32  1  0
 31 30  2  0
M  END
$$$$
