NKW.pdb
     RDKit          3D

 32 33  0  0  1  0  0  0  0  0999 V2000
   11.1950  -21.1562   19.3785 N   0  0  0  0  0  0  0  0  0  0  0  0
   11.2949  -20.0842   18.4523 C   0  0  0  0  0  0  0  0  0  0  0  0
   11.6725  -20.3521   17.2894 O   0  0  0  0  0  0  0  0  0  0  0  0
   10.9759  -18.6849   18.8007 C   0  0  0  0  0  0  0  0  0  0  0  0
   10.6565  -18.6035   20.2576 C   0  0  2  0  0  0  0  0  0  0  0  0
    9.2976  -19.0758   20.4618 N   0  0  0  0  0  0  0  0  0  0  0  0
   10.8242  -17.2191   20.7976 C   0  0  0  0  0  0  0  0  0  0  0  0
   11.9566  -16.6710   20.8374 O   0  0  0  0  0  0  0  0  0  0  0  0
    9.7243  -16.4691   21.2843 N   0  0  0  0  0  0  0  0  0  0  0  0
    9.8497  -15.0943   21.7827 C   0  0  1  0  0  0  0  0  0  0  0  0
    8.8179  -14.2056   21.1604 C   0  0  0  0  0  0  0  0  0  0  0  0
    8.8594  -14.0784   19.6821 C   0  0  0  0  0  0  0  0  0  0  0  0
    7.7777  -13.1096   19.2368 C   0  0  0  0  0  0  0  0  0  0  0  0
    7.8134  -13.0825   17.7213 C   0  0  0  0  0  0  0  0  0  0  0  0
    6.7883  -12.1414   17.2998 N   0  0  0  0  0  0  0  0  0  0  0  0
    9.7009  -15.0721   23.2601 C   0  0  0  0  0  0  0  0  0  0  0  0
    9.6124  -13.9636   23.8349 O   0  0  0  0  0  0  0  0  0  0  0  0
    9.6538  -16.2259   24.0532 N   0  0  0  0  0  0  0  0  0  0  0  0
    9.9925  -16.1956   25.4693 C   0  0  1  0  0  0  0  0  0  0  0  0
    8.8108  -16.5895   26.3017 C   0  0  0  0  0  0  0  0  0  0  0  0
    7.6593  -15.7125   26.0767 C   0  0  0  0  0  0  0  0  0  0  0  0
    6.4256  -16.1173   25.5470 C   0  0  0  0  0  0  0  0  0  0  0  0
    5.6097  -15.0564   25.4328 N   0  0  0  0  0  0  0  0  0  0  0  0
    6.2414  -13.9656   25.8621 C   0  0  0  0  0  0  0  0  0  0  0  0
    5.8178  -12.6491   25.9611 C   0  0  0  0  0  0  0  0  0  0  0  0
    6.6611  -11.6853   26.4702 C   0  0  0  0  0  0  0  0  0  0  0  0
    7.9401  -12.0750   26.8777 C   0  0  0  0  0  0  0  0  0  0  0  0
    8.3574  -13.3830   26.7772 C   0  0  0  0  0  0  0  0  0  0  0  0
    7.5054  -14.3399   26.2651 C   0  0  0  0  0  0  0  0  0  0  0  0
   11.1866  -16.9633   25.7985 C   0  0  0  0  0  0  0  0  0  0  0  0
   11.6376  -17.0313   26.9983 O   0  0  0  0  0  0  0  0  0  0  0  0
   11.9291  -17.6836   24.8717 O   0  0  0  0  0  0  0  0  0  0  0  0
  1  2  1  0
  2  3  2  0
  4  5  1  0
  4  2  1  0
  5  6  1  6
  7  5  1  0
  7  8  2  0
  9  7  1  0
 10  9  1  0
 10 11  1  6
 12 11  1  0
 12 13  1  0
 13 14  1  0
 15 14  1  0
 16 10  1  0
 17 16  2  0
 18 16  1  0
 19 30  1  0
 19 18  1  0
 20 21  1  0
 19 20  1  1
 21 22  2  0
 21 29  1  0
 22 23  1  0
 23 24  1  0
 24 25  2  0
 26 25  1  0
 27 26  2  0
 28 29  2  0
 28 27  1  0
 29 24  1  0
 30 32  1  0
 31 30  2  0
M  END
$$$$
