NKW.pdb
     RDKit          3D

 32 33  0  0  1  0  0  0  0  0999 V2000
    9.3758  -14.0225   15.5391 N   0  0  0  0  0  0  0  0  0  0  0  0
    8.1611  -13.5459   16.0998 C   0  0  0  0  0  0  0  0  0  0  0  0
    7.4746  -12.7539   15.4156 O   0  0  0  0  0  0  0  0  0  0  0  0
    7.6814  -13.9414   17.4395 C   0  0  0  0  0  0  0  0  0  0  0  0
    8.6900  -14.8415   18.0749 C   0  0  2  0  0  0  0  0  0  0  0  0
    8.8815  -16.0006   17.2198 N   0  0  0  0  0  0  0  0  0  0  0  0
    8.2874  -15.2593   19.4531 C   0  0  0  0  0  0  0  0  0  0  0  0
    7.9634  -14.4069   20.3209 O   0  0  0  0  0  0  0  0  0  0  0  0
    8.2529  -16.6224   19.8401 N   0  0  0  0  0  0  0  0  0  0  0  0
    7.8132  -17.0676   21.1678 C   0  0  1  0  0  0  0  0  0  0  0  0
    7.4297  -18.5147   21.1448 C   0  0  0  0  0  0  0  0  0  0  0  0
    6.2730  -18.8788   20.2887 C   0  0  0  0  0  0  0  0  0  0  0  0
    6.1042  -20.3882   20.2983 C   0  0  0  0  0  0  0  0  0  0  0  0
    4.9273  -20.7012   19.3950 C   0  0  0  0  0  0  0  0  0  0  0  0
    4.7769  -22.1474   19.3973 N   0  0  0  0  0  0  0  0  0  0  0  0
    8.8963  -16.8549   22.1613 C   0  0  0  0  0  0  0  0  0  0  0  0
   10.0539  -17.2344   21.8734 O   0  0  0  0  0  0  0  0  0  0  0  0
    8.6972  -16.2511   23.4096 N   0  0  0  0  0  0  0  0  0  0  0  0
    9.7690  -16.1501   24.3906 C   0  0  1  0  0  0  0  0  0  0  0  0
    9.6966  -14.8415   25.1164 C   0  0  0  0  0  0  0  0  0  0  0  0
    8.3384  -14.5371   25.5729 C   0  0  0  0  0  0  0  0  0  0  0  0
    7.2840  -15.4587   25.6456 C   0  0  0  0  0  0  0  0  0  0  0  0
    6.1671  -14.8398   26.0624 N   0  0  0  0  0  0  0  0  0  0  0  0
    6.4285  -13.5509   26.2712 C   0  0  0  0  0  0  0  0  0  0  0  0
    5.6175  -12.5195   26.7193 C   0  0  0  0  0  0  0  0  0  0  0  0
    6.1332  -11.2518   26.8819 C   0  0  0  0  0  0  0  0  0  0  0  0
    7.4829  -11.0446   26.5839 C   0  0  0  0  0  0  0  0  0  0  0  0
    8.2849  -12.0710   26.1385 C   0  0  0  0  0  0  0  0  0  0  0  0
    7.7583  -13.3361   25.9781 C   0  0  0  0  0  0  0  0  0  0  0  0
    9.8358  -17.2879   25.2986 C   0  0  0  0  0  0  0  0  0  0  0  0
   10.7985  -17.4297   26.1356 O   0  0  0  0  0  0  0  0  0  0  0  0
    8.8851  -18.2992   25.3508 O   0  0  0  0  0  0  0  0  0  0  0  0
  1  2  1  0
  2  3  2  0
  4  5  1  0
  4  2  1  0
  5  6  1  6
  7  5  1  0
  7  8  2  0
  9  7  1  0
 10  9  1  0
 10 11  1  6
 12 11  1  0
 12 13  1  0
 13 14  1  0
 15 14  1  0
 16 10  1  0
 17 16  2  0
 18 16  1  0
 19 30  1  0
 19 18  1  0
 20 21  1  0
 19 20  1  1
 21 22  2  0
 21 29  1  0
 22 23  1  0
 23 24  1  0
 24 25  2  0
 26 25  1  0
 27 26  2  0
 28 29  2  0
 28 27  1  0
 29 24  1  0
 30 32  1  0
 31 30  2  0
M  END
$$$$
