NKW.pdb
     RDKit          3D

 32 33  0  0  1  0  0  0  0  0999 V2000
   10.0795  -20.3088   16.8264 N   0  0  0  0  0  0  0  0  0  0  0  0
   10.7425  -19.6007   17.8637 C   0  0  0  0  0  0  0  0  0  0  0  0
   11.6319  -20.2043   18.5052 O   0  0  0  0  0  0  0  0  0  0  0  0
   10.4295  -18.2000   18.2118 C   0  0  0  0  0  0  0  0  0  0  0  0
   10.3687  -18.0664   19.6983 C   0  0  2  0  0  0  0  0  0  0  0  0
    9.2757  -18.8858   20.1934 N   0  0  0  0  0  0  0  0  0  0  0  0
   10.2057  -16.6449   20.1328 C   0  0  0  0  0  0  0  0  0  0  0  0
   11.0560  -15.7701   19.8229 O   0  0  0  0  0  0  0  0  0  0  0  0
    9.0954  -16.2232   20.9066 N   0  0  0  0  0  0  0  0  0  0  0  0
    8.9105  -14.8376   21.3539 C   0  0  1  0  0  0  0  0  0  0  0  0
    7.6275  -14.2740   20.8265 C   0  0  0  0  0  0  0  0  0  0  0  0
    7.7455  -13.2233   19.7847 C   0  0  0  0  0  0  0  0  0  0  0  0
    7.8126  -13.8842   18.4188 C   0  0  0  0  0  0  0  0  0  0  0  0
    8.0089  -12.7731   17.4059 C   0  0  0  0  0  0  0  0  0  0  0  0
    8.1579  -13.4157   16.1102 N   0  0  0  0  0  0  0  0  0  0  0  0
    8.9087  -14.7769   22.8377 C   0  0  0  0  0  0  0  0  0  0  0  0
    7.8298  -14.5344   23.4243 O   0  0  0  0  0  0  0  0  0  0  0  0
   10.0507  -14.9761   23.6243 N   0  0  0  0  0  0  0  0  0  0  0  0
    9.9747  -15.5924   24.9417 C   0  0  1  0  0  0  0  0  0  0  0  0
    8.6846  -16.3372   25.1007 C   0  0  0  0  0  0  0  0  0  0  0  0
    7.6078  -15.4776   25.5981 C   0  0  0  0  0  0  0  0  0  0  0  0
    6.2581  -15.8457   25.6944 C   0  0  0  0  0  0  0  0  0  0  0  0
    5.5350  -14.8083   26.1473 N   0  0  0  0  0  0  0  0  0  0  0  0
    6.3393  -13.7681   26.3576 C   0  0  0  0  0  0  0  0  0  0  0  0
    6.0725  -12.4944   26.8360 C   0  0  0  0  0  0  0  0  0  0  0  0
    7.0950  -11.5838   26.9927 C   0  0  0  0  0  0  0  0  0  0  0  0
    8.3920  -11.9828   26.6577 C   0  0  0  0  0  0  0  0  0  0  0  0
    8.6530  -13.2480   26.1823 C   0  0  0  0  0  0  0  0  0  0  0  0
    7.6217  -14.1517   26.0282 C   0  0  0  0  0  0  0  0  0  0  0  0
   11.1349  -16.4113   25.2688 C   0  0  0  0  0  0  0  0  0  0  0  0
   11.9027  -16.8905   24.3586 O   0  0  0  0  0  0  0  0  0  0  0  0
   11.5173  -16.7378   26.5634 O   0  0  0  0  0  0  0  0  0  0  0  0
  1  2  1  0
  2  3  2  0
  4  5  1  0
  4  2  1  0
  5  6  1  6
  7  5  1  0
  7  8  2  0
  9  7  1  0
 10  9  1  0
 10 11  1  1
 12 11  1  0
 12 13  1  0
 13 14  1  0
 15 14  1  0
 16 10  1  0
 17 16  2  0
 18 16  1  0
 19 30  1  0
 19 18  1  0
 20 21  1  0
 19 20  1  6
 21 22  2  0
 21 29  1  0
 22 23  1  0
 23 24  1  0
 24 25  2  0
 26 25  1  0
 27 26  2  0
 28 29  2  0
 28 27  1  0
 29 24  1  0
 30 32  1  0
 31 30  2  0
M  END
$$$$
