NKW.pdb
     RDKit          3D

 32 33  0  0  1  0  0  0  0  0999 V2000
    9.0207  -13.3898   16.7166 N   0  0  0  0  0  0  0  0  0  0  0  0
    8.5306  -12.6712   17.8394 C   0  0  0  0  0  0  0  0  0  0  0  0
    8.2905  -11.4517   17.6913 O   0  0  0  0  0  0  0  0  0  0  0  0
    8.2960  -13.2959   19.1569 C   0  0  0  0  0  0  0  0  0  0  0  0
    8.6455  -14.7462   19.0807 C   0  0  2  0  0  0  0  0  0  0  0  0
    7.7753  -15.3825   18.1065 N   0  0  0  0  0  0  0  0  0  0  0  0
    8.5408  -15.4244   20.4092 C   0  0  0  0  0  0  0  0  0  0  0  0
    7.7331  -15.0164   21.2842 O   0  0  0  0  0  0  0  0  0  0  0  0
    9.3400  -16.5476   20.7392 N   0  0  0  0  0  0  0  0  0  0  0  0
    9.1363  -17.3471   21.9532 C   0  0  1  0  0  0  0  0  0  0  0  0
    9.5914  -18.7581   21.7448 C   0  0  0  0  0  0  0  0  0  0  0  0
    8.9649  -19.4956   20.6192 C   0  0  0  0  0  0  0  0  0  0  0  0
    9.6458  -20.8452   20.4701 C   0  0  0  0  0  0  0  0  0  0  0  0
    8.9267  -21.5754   19.3528 C   0  0  0  0  0  0  0  0  0  0  0  0
    9.5869  -22.8626   19.2074 N   0  0  0  0  0  0  0  0  0  0  0  0
    9.8798  -16.7464   23.0898 C   0  0  0  0  0  0  0  0  0  0  0  0
   11.0415  -16.3261   22.8882 O   0  0  0  0  0  0  0  0  0  0  0  0
    9.3542  -16.6221   24.3824 N   0  0  0  0  0  0  0  0  0  0  0  0
   10.2037  -16.3328   25.5295 C   0  0  1  0  0  0  0  0  0  0  0  0
    9.8548  -15.0011   26.1203 C   0  0  0  0  0  0  0  0  0  0  0  0
    8.4073  -14.7837   26.1770 C   0  0  0  0  0  0  0  0  0  0  0  0
    7.4335  -15.7843   26.0465 C   0  0  0  0  0  0  0  0  0  0  0  0
    6.2083  -15.2364   26.1022 N   0  0  0  0  0  0  0  0  0  0  0  0
    6.3207  -13.9195   26.2643 C   0  0  0  0  0  0  0  0  0  0  0  0
    5.3547  -12.9338   26.3961 C   0  0  0  0  0  0  0  0  0  0  0  0
    5.7254  -11.6195   26.5824 C   0  0  0  0  0  0  0  0  0  0  0  0
    7.0894  -11.3187   26.6333 C   0  0  0  0  0  0  0  0  0  0  0  0
    8.0457  -12.3001   26.5013 C   0  0  0  0  0  0  0  0  0  0  0  0
    7.6638  -13.6127   26.3141 C   0  0  0  0  0  0  0  0  0  0  0  0
   10.2197  -17.3971   26.5248 C   0  0  0  0  0  0  0  0  0  0  0  0
   11.0104  -17.3662   27.5355 O   0  0  0  0  0  0  0  0  0  0  0  0
    9.3968  -18.5152   26.4823 O   0  0  0  0  0  0  0  0  0  0  0  0
  1  2  1  0
  2  3  2  0
  4  5  1  0
  4  2  1  0
  5  6  1  6
  7  5  1  0
  7  8  2  0
  9  7  1  0
 10  9  1  0
 10 11  1  6
 12 11  1  0
 12 13  1  0
 13 14  1  0
 15 14  1  0
 16 10  1  0
 17 16  2  0
 18 16  1  0
 19 30  1  0
 19 18  1  0
 20 21  1  0
 19 20  1  1
 21 22  2  0
 21 29  1  0
 22 23  1  0
 23 24  1  0
 24 25  2  0
 26 25  1  0
 27 26  2  0
 28 29  2  0
 28 27  1  0
 29 24  1  0
 30 32  1  0
 31 30  2  0
M  END
$$$$
