SAK.pdb
     RDKit          3D

 21 20  0  0  1  0  0  0  0  0999 V2000
   12.6789  -12.0089   -9.7569 O   0  0  0  0  0  0  0  0  0  0  0  0
   13.2412  -10.7814  -10.0957 C   0  0  0  0  0  0  0  0  0  0  0  0
   13.3503   -9.8949   -8.8734 C   0  0  2  0  0  0  0  0  0  0  0  0
   12.0515   -9.6050   -8.3475 N   0  0  0  0  0  0  0  0  0  0  0  0
   14.1337   -8.6635   -9.1642 C   0  0  0  0  0  0  0  0  0  0  0  0
   13.6008   -7.5537   -8.9434 O   0  0  0  0  0  0  0  0  0  0  0  0
   16.3425   -6.7359   -8.6533 C   0  0  0  0  0  0  0  0  0  0  0  0
   16.2209   -7.4977   -9.9564 C   0  0  2  0  0  0  0  0  0  0  0  0
   15.4500   -8.6948   -9.6776 N   0  0  0  0  0  0  0  0  0  0  0  0
   17.5903   -7.8310  -10.4603 C   0  0  0  0  0  0  0  0  0  0  0  0
   18.3111   -8.5397   -9.7504 O   0  0  0  0  0  0  0  0  0  0  0  0
   18.0569   -7.3613  -11.6986 N   0  0  0  0  0  0  0  0  0  0  0  0
   19.2749   -7.6108  -12.3606 C   0  0  1  0  0  0  0  0  0  0  0  0
   19.1841   -8.3191  -13.7055 C   0  0  0  0  0  0  0  0  0  0  0  0
   18.2801   -9.5109  -13.6916 C   0  0  0  0  0  0  0  0  0  0  0  0
   18.2488  -10.3026  -14.9539 C   0  0  0  0  0  0  0  0  0  0  0  0
   17.3219  -11.4635  -14.9877 C   0  0  0  0  0  0  0  0  0  0  0  0
   17.2910  -12.1245  -16.2732 N   0  0  0  0  0  0  0  0  0  0  0  0
   20.2624   -6.5500  -12.4343 C   0  0  0  0  0  0  0  0  0  0  0  0
   19.9811   -5.3256  -12.3978 O   0  0  0  0  0  0  0  0  0  0  0  0
   21.6023   -6.8885  -12.5525 O   0  0  0  0  0  0  0  0  0  0  0  0
  2  1  1  0
  3  2  1  0
  3  4  1  6
  5  3  1  0
  5  6  2  0
  8  7  1  1
  8  9  1  0
  8 10  1  0
  9  5  1  0
 10 12  1  0
 11 10  2  0
 12 13  1  0
 13 14  1  6
 14 15  1  0
 16 15  1  0
 16 17  1  0
 17 18  1  0
 19 21  1  0
 19 13  1  0
 20 19  2  0
M  END
$$$$
