SAK.pdb
     RDKit          3D

 21 20  0  0  1  0  0  0  0  0999 V2000
   17.6755   -7.1867  -16.0006 O   0  0  0  0  0  0  0  0  0  0  0  0
   18.9780   -7.5387  -16.3429 C   0  0  0  0  0  0  0  0  0  0  0  0
   19.3676   -8.8387  -15.6719 C   0  0  2  0  0  0  0  0  0  0  0  0
   18.6391   -9.9325  -16.2381 N   0  0  0  0  0  0  0  0  0  0  0  0
   19.2103   -8.7553  -14.1943 C   0  0  0  0  0  0  0  0  0  0  0  0
   18.2739   -9.3887  -13.6592 O   0  0  0  0  0  0  0  0  0  0  0  0
   21.0944   -7.1083  -11.4099 C   0  0  0  0  0  0  0  0  0  0  0  0
   19.9056   -7.8851  -11.9355 C   0  0  2  0  0  0  0  0  0  0  0  0
   20.0713   -7.9931  -13.3729 N   0  0  0  0  0  0  0  0  0  0  0  0
   18.6470   -7.1569  -11.5808 C   0  0  0  0  0  0  0  0  0  0  0  0
   18.2676   -6.2561  -12.3361 O   0  0  0  0  0  0  0  0  0  0  0  0
   17.9085   -7.4745  -10.4295 N   0  0  0  0  0  0  0  0  0  0  0  0
   16.7443   -6.8778   -9.9077 C   0  0  1  0  0  0  0  0  0  0  0  0
   15.7040   -7.8205   -9.3177 C   0  0  0  0  0  0  0  0  0  0  0  0
   14.4444   -7.1309   -8.8985 C   0  0  0  0  0  0  0  0  0  0  0  0
   13.3917   -8.0175   -8.3268 C   0  0  0  0  0  0  0  0  0  0  0  0
   12.8011   -9.0257   -9.2448 C   0  0  0  0  0  0  0  0  0  0  0  0
   11.7925   -9.8448   -8.6107 N   0  0  0  0  0  0  0  0  0  0  0  0
   16.8763   -5.7066   -9.0611 C   0  0  0  0  0  0  0  0  0  0  0  0
   17.7752   -5.5649   -8.1943 O   0  0  0  0  0  0  0  0  0  0  0  0
   15.9645   -4.6708   -9.2027 O   0  0  0  0  0  0  0  0  0  0  0  0
  2  1  1  0
  3  2  1  0
  3  4  1  6
  5  3  1  0
  5  6  2  0
  8  7  1  6
  8  9  1  0
  8 10  1  0
  9  5  1  0
 10 12  1  0
 11 10  2  0
 12 13  1  0
 13 14  1  1
 14 15  1  0
 16 15  1  0
 16 17  1  0
 17 18  1  0
 19 21  1  0
 19 13  1  0
 20 19  2  0
M  END
$$$$
