SAK.pdb
     RDKit          3D

 21 20  0  0  1  0  0  0  0  0999 V2000
   18.9784  -13.7510  -17.6265 O   0  0  0  0  0  0  0  0  0  0  0  0
   19.5517  -13.0011  -16.6035 C   0  0  0  0  0  0  0  0  0  0  0  0
   20.2950  -11.8116  -17.1732 C   0  0  2  0  0  0  0  0  0  0  0  0
   21.3029  -12.2442  -18.0922 N   0  0  0  0  0  0  0  0  0  0  0  0
   20.8437  -10.9466  -16.0935 C   0  0  0  0  0  0  0  0  0  0  0  0
   20.0494  -10.4655  -15.2556 O   0  0  0  0  0  0  0  0  0  0  0  0
   24.2530   -9.8771  -14.9976 C   0  0  0  0  0  0  0  0  0  0  0  0
   22.7471   -9.7186  -14.9927 C   0  0  2  0  0  0  0  0  0  0  0  0
   22.2196  -10.6468  -15.9753 N   0  0  0  0  0  0  0  0  0  0  0  0
   22.4009   -8.3028  -15.3331 C   0  0  0  0  0  0  0  0  0  0  0  0
   22.4934   -7.9527  -16.5141 O   0  0  0  0  0  0  0  0  0  0  0  0
   21.9825   -7.3880  -14.3534 N   0  0  0  0  0  0  0  0  0  0  0  0
   21.6334   -6.0288  -14.4743 C   0  0  1  0  0  0  0  0  0  0  0  0
   20.1490   -5.6990  -14.3926 C   0  0  0  0  0  0  0  0  0  0  0  0
   19.8360   -4.2740  -14.7228 C   0  0  0  0  0  0  0  0  0  0  0  0
   18.3941   -3.9043  -14.6504 C   0  0  0  0  0  0  0  0  0  0  0  0
   18.0338   -2.5389  -15.1127 C   0  0  0  0  0  0  0  0  0  0  0  0
   16.6180   -2.2638  -15.0126 N   0  0  0  0  0  0  0  0  0  0  0  0
   22.3935   -5.0413  -13.7306 C   0  0  0  0  0  0  0  0  0  0  0  0
   22.7716   -3.9417  -14.2076 O   0  0  0  0  0  0  0  0  0  0  0  0
   22.7324   -5.3096  -12.4126 O   0  0  0  0  0  0  0  0  0  0  0  0
  2  1  1  0
  3  2  1  0
  3  4  1  6
  5  3  1  0
  5  6  2  0
  8  7  1  6
  8  9  1  0
  8 10  1  0
  9  5  1  0
 10 12  1  0
 11 10  2  0
 12 13  1  0
 13 14  1  1
 14 15  1  0
 16 15  1  0
 16 17  1  0
 17 18  1  0
 19 21  1  0
 19 13  1  0
 20 19  2  0
M  END
$$$$
