SAK.pdb
     RDKit          3D

 21 20  0  0  1  0  0  0  0  0999 V2000
   20.8346  -13.4516  -19.4078 O   0  0  0  0  0  0  0  0  0  0  0  0
   20.9902  -12.4645  -18.4388 C   0  0  0  0  0  0  0  0  0  0  0  0
   21.7293  -13.0152  -17.2377 C   0  0  2  0  0  0  0  0  0  0  0  0
   20.9817  -14.0742  -16.6320 N   0  0  0  0  0  0  0  0  0  0  0  0
   22.0735  -11.9371  -16.2711 C   0  0  0  0  0  0  0  0  0  0  0  0
   21.1725  -11.5012  -15.5210 O   0  0  0  0  0  0  0  0  0  0  0  0
   25.1950  -10.0975  -15.3331 C   0  0  0  0  0  0  0  0  0  0  0  0
   23.6923  -10.2779  -15.2867 C   0  0  2  0  0  0  0  0  0  0  0  0
   23.3708  -11.3870  -16.1652 N   0  0  0  0  0  0  0  0  0  0  0  0
   23.0314   -9.0121  -15.7354 C   0  0  0  0  0  0  0  0  0  0  0  0
   22.8549   -8.8500  -16.9472 O   0  0  0  0  0  0  0  0  0  0  0  0
   22.6187   -8.0294  -14.8212 N   0  0  0  0  0  0  0  0  0  0  0  0
   22.0005   -6.7844  -15.0485 C   0  0  1  0  0  0  0  0  0  0  0  0
   20.5114   -6.8134  -15.3655 C   0  0  0  0  0  0  0  0  0  0  0  0
   19.9636   -5.4835  -15.7770 C   0  0  0  0  0  0  0  0  0  0  0  0
   18.5164   -5.4722  -16.1328 C   0  0  0  0  0  0  0  0  0  0  0  0
   17.9644   -4.1858  -16.6310 C   0  0  0  0  0  0  0  0  0  0  0  0
   16.6173   -4.3089  -17.1414 N   0  0  0  0  0  0  0  0  0  0  0  0
   22.2848   -5.6855  -14.1444 C   0  0  0  0  0  0  0  0  0  0  0  0
   22.4463   -5.8200  -12.9052 O   0  0  0  0  0  0  0  0  0  0  0  0
   22.3881   -4.4022  -14.6606 O   0  0  0  0  0  0  0  0  0  0  0  0
  2  1  1  0
  3  2  1  0
  3  4  1  1
  5  3  1  0
  5  6  2  0
  8  7  1  6
  8  9  1  0
  8 10  1  0
  9  5  1  0
 10 12  1  0
 11 10  2  0
 12 13  1  0
 13 14  1  1
 14 15  1  0
 16 15  1  0
 16 17  1  0
 17 18  1  0
 19 21  1  0
 19 13  1  0
 20 19  2  0
M  END
$$$$
