SAK.pdb
     RDKit          3D

 21 20  0  0  1  0  0  0  0  0999 V2000
   25.7625  -19.8349  -18.1459 O   0  0  0  0  0  0  0  0  0  0  0  0
   25.0392  -18.7329  -17.6988 C   0  0  0  0  0  0  0  0  0  0  0  0
   25.3249  -18.4720  -16.2351 C   0  0  2  0  0  0  0  0  0  0  0  0
   24.8570  -19.5598  -15.4319 N   0  0  0  0  0  0  0  0  0  0  0  0
   24.7685  -17.1625  -15.7985 C   0  0  0  0  0  0  0  0  0  0  0  0
   23.5477  -17.0932  -15.5354 O   0  0  0  0  0  0  0  0  0  0  0  0
   26.1790  -13.7816  -15.0479 C   0  0  0  0  0  0  0  0  0  0  0  0
   25.0077  -14.7007  -15.3244 C   0  0  2  0  0  0  0  0  0  0  0  0
   25.5585  -15.9980  -15.6691 N   0  0  0  0  0  0  0  0  0  0  0  0
   24.1928  -14.1345  -16.4451 C   0  0  0  0  0  0  0  0  0  0  0  0
   24.5633  -14.3613  -17.6014 O   0  0  0  0  0  0  0  0  0  0  0  0
   23.0409  -13.3676  -16.2074 N   0  0  0  0  0  0  0  0  0  0  0  0
   22.1535  -12.7612  -17.1177 C   0  0  1  0  0  0  0  0  0  0  0  0
   20.6866  -13.1524  -16.9991 C   0  0  0  0  0  0  0  0  0  0  0  0
   20.4676  -14.6307  -16.9312 C   0  0  0  0  0  0  0  0  0  0  0  0
   19.0436  -15.0612  -16.8443 C   0  0  0  0  0  0  0  0  0  0  0  0
   18.7959  -16.5229  -16.7437 C   0  0  0  0  0  0  0  0  0  0  0  0
   17.3909  -16.8534  -16.6600 N   0  0  0  0  0  0  0  0  0  0  0  0
   22.2593  -11.3333  -17.3539 C   0  0  0  0  0  0  0  0  0  0  0  0
   22.9360  -10.5519  -16.6390 O   0  0  0  0  0  0  0  0  0  0  0  0
   21.5796  -10.7794  -18.4287 O   0  0  0  0  0  0  0  0  0  0  0  0
  2  1  1  0
  3  2  1  0
  3  4  1  1
  5  3  1  0
  5  6  2  0
  8  7  1  6
  8  9  1  0
  8 10  1  0
  9  5  1  0
 10 12  1  0
 11 10  2  0
 12 13  1  0
 13 14  1  1
 14 15  1  0
 16 15  1  0
 16 17  1  0
 17 18  1  0
 19 21  1  0
 19 13  1  0
 20 19  2  0
M  END
$$$$
