SAK.pdb
     RDKit          3D

 21 20  0  0  1  0  0  0  0  0999 V2000
   18.6952   -9.6291  -14.1256 O   0  0  0  0  0  0  0  0  0  0  0  0
   18.5945  -10.6699  -13.2067 C   0  0  0  0  0  0  0  0  0  0  0  0
   17.1740  -11.1907  -13.1521 C   0  0  2  0  0  0  0  0  0  0  0  0
   16.7686  -11.6756  -14.4359 N   0  0  0  0  0  0  0  0  0  0  0  0
   16.2406  -10.1657  -12.6109 C   0  0  0  0  0  0  0  0  0  0  0  0
   15.6217   -9.4391  -13.4192 O   0  0  0  0  0  0  0  0  0  0  0  0
   14.5255   -9.5489   -9.4238 C   0  0  0  0  0  0  0  0  0  0  0  0
   15.1205   -8.9774  -10.6935 C   0  0  2  0  0  0  0  0  0  0  0  0
   16.0245   -9.9791  -11.2268 N   0  0  0  0  0  0  0  0  0  0  0  0
   15.8396   -7.7051  -10.3698 C   0  0  0  0  0  0  0  0  0  0  0  0
   17.0218   -7.7819  -10.0200 O   0  0  0  0  0  0  0  0  0  0  0  0
   15.2055   -6.4552  -10.4556 N   0  0  0  0  0  0  0  0  0  0  0  0
   15.7031   -5.1670  -10.1783 C   0  0  1  0  0  0  0  0  0  0  0  0
   14.8834   -3.9953  -10.7018 C   0  0  0  0  0  0  0  0  0  0  0  0
   15.5078   -2.6630  -10.4313 C   0  0  0  0  0  0  0  0  0  0  0  0
   14.6910   -1.4826  -10.8317 C   0  0  0  0  0  0  0  0  0  0  0  0
   15.2944   -0.1455  -10.5952 C   0  0  0  0  0  0  0  0  0  0  0  0
   14.4248    0.9431  -10.9813 N   0  0  0  0  0  0  0  0  0  0  0  0
   16.1746   -4.8715   -8.8381 C   0  0  0  0  0  0  0  0  0  0  0  0
   15.7640   -5.4571   -7.8046 O   0  0  0  0  0  0  0  0  0  0  0  0
   17.1363   -3.8865   -8.6677 O   0  0  0  0  0  0  0  0  0  0  0  0
  2  1  1  0
  3  2  1  0
  3  4  1  6
  5  3  1  0
  5  6  2  0
  8  7  1  1
  8  9  1  0
  8 10  1  0
  9  5  1  0
 10 12  1  0
 11 10  2  0
 12 13  1  0
 13 14  1  1
 14 15  1  0
 16 15  1  0
 16 17  1  0
 17 18  1  0
 19 21  1  0
 19 13  1  0
 20 19  2  0
M  END
$$$$
