SAK.pdb
     RDKit          3D

 21 20  0  0  1  0  0  0  0  0999 V2000
   20.2462  -13.2720  -19.6743 O   0  0  0  0  0  0  0  0  0  0  0  0
   20.4797  -12.3444  -18.6630 C   0  0  0  0  0  0  0  0  0  0  0  0
   21.0495  -13.0295  -17.4390 C   0  0  2  0  0  0  0  0  0  0  0  0
   20.1295  -14.0036  -16.9366 N   0  0  0  0  0  0  0  0  0  0  0  0
   21.4532  -12.0410  -16.4023 C   0  0  0  0  0  0  0  0  0  0  0  0
   20.5565  -11.4753  -15.7388 O   0  0  0  0  0  0  0  0  0  0  0  0
   24.7097  -10.6846  -15.1453 C   0  0  0  0  0  0  0  0  0  0  0  0
   23.1982  -10.6531  -15.2312 C   0  0  2  0  0  0  0  0  0  0  0  0
   22.8025  -11.7154  -16.1368 N   0  0  0  0  0  0  0  0  0  0  0  0
   22.7625   -9.3122  -15.7335 C   0  0  0  0  0  0  0  0  0  0  0  0
   22.5460   -9.1904  -16.9436 O   0  0  0  0  0  0  0  0  0  0  0  0
   22.5999   -8.2165  -14.8705 N   0  0  0  0  0  0  0  0  0  0  0  0
   22.1397   -6.9128  -15.1398 C   0  0  1  0  0  0  0  0  0  0  0  0
   20.8098   -6.8001  -15.8730 C   0  0  0  0  0  0  0  0  0  0  0  0
   20.4897   -5.4075  -16.3160 C   0  0  0  0  0  0  0  0  0  0  0  0
   19.1682   -5.2386  -16.9839 C   0  0  0  0  0  0  0  0  0  0  0  0
   18.8043   -3.8588  -17.3984 C   0  0  0  0  0  0  0  0  0  0  0  0
   17.5459   -3.7952  -18.1072 N   0  0  0  0  0  0  0  0  0  0  0  0
   22.2013   -5.9165  -14.0865 C   0  0  0  0  0  0  0  0  0  0  0  0
   21.9385   -6.1531  -12.8804 O   0  0  0  0  0  0  0  0  0  0  0  0
   22.5705   -4.6195  -14.4113 O   0  0  0  0  0  0  0  0  0  0  0  0
  2  1  1  0
  3  2  1  0
  3  4  1  1
  5  3  1  0
  5  6  2  0
  8  7  1  6
  8  9  1  0
  8 10  1  0
  9  5  1  0
 10 12  1  0
 11 10  2  0
 12 13  1  0
 13 14  1  1
 14 15  1  0
 16 15  1  0
 16 17  1  0
 17 18  1  0
 19 21  1  0
 19 13  1  0
 20 19  2  0
M  END
$$$$
