SAK.pdb
     RDKit          3D

 21 20  0  0  1  0  0  0  0  0999 V2000
   24.3411  -14.9262  -20.0191 O   0  0  0  0  0  0  0  0  0  0  0  0
   23.9844  -13.9973  -19.0456 C   0  0  0  0  0  0  0  0  0  0  0  0
   24.5261  -14.4135  -17.6946 C   0  0  2  0  0  0  0  0  0  0  0  0
   23.9796  -15.6768  -17.3034 N   0  0  0  0  0  0  0  0  0  0  0  0
   24.3030  -13.3562  -16.6712 C   0  0  0  0  0  0  0  0  0  0  0  0
   23.1848  -13.2940  -16.1145 O   0  0  0  0  0  0  0  0  0  0  0  0
   26.3417  -10.5325  -15.2925 C   0  0  0  0  0  0  0  0  0  0  0  0
   25.0534  -11.3224  -15.3893 C   0  0  2  0  0  0  0  0  0  0  0  0
   25.2979  -12.4225  -16.3032 N   0  0  0  0  0  0  0  0  0  0  0  0
   23.9636  -10.4258  -15.8880 C   0  0  0  0  0  0  0  0  0  0  0  0
   23.9256  -10.1795  -17.0979 O   0  0  0  0  0  0  0  0  0  0  0  0
   23.0063   -9.8734  -15.0218 N   0  0  0  0  0  0  0  0  0  0  0  0
   21.9463   -8.9862  -15.2918 C   0  0  1  0  0  0  0  0  0  0  0  0
   20.5456   -9.5837  -15.2987 C   0  0  0  0  0  0  0  0  0  0  0  0
   19.4917   -8.6269  -15.7588 C   0  0  0  0  0  0  0  0  0  0  0  0
   18.1080   -9.1781  -15.8094 C   0  0  0  0  0  0  0  0  0  0  0  0
   17.0605   -8.2934  -16.3820 C   0  0  0  0  0  0  0  0  0  0  0  0
   15.7601   -8.9224  -16.4409 N   0  0  0  0  0  0  0  0  0  0  0  0
   21.9231   -7.6981  -14.6238 C   0  0  0  0  0  0  0  0  0  0  0  0
   22.3639   -7.5014  -13.4634 O   0  0  0  0  0  0  0  0  0  0  0  0
   21.3859   -6.6068  -15.2904 O   0  0  0  0  0  0  0  0  0  0  0  0
  2  1  1  0
  3  2  1  0
  3  4  1  1
  5  3  1  0
  5  6  2  0
  8  7  1  6
  8  9  1  0
  8 10  1  0
  9  5  1  0
 10 12  1  0
 11 10  2  0
 12 13  1  0
 13 14  1  1
 14 15  1  0
 16 15  1  0
 16 17  1  0
 17 18  1  0
 19 21  1  0
 19 13  1  0
 20 19  2  0
M  END
$$$$
