ELV.pdb
     RDKit          3D

 25 24  0  0  1  0  0  0  0  0999 V2000
   22.2195  -15.0654  -17.2918 N   0  0  0  0  0  0  0  0  0  0  0  0
   21.9815  -13.8181  -17.9761 C   0  0  1  0  0  0  0  0  0  0  0  0
   20.5764  -13.7762  -18.4593 C   0  0  0  0  0  0  0  0  0  0  0  0
   20.2372  -14.7103  -19.5739 C   0  0  0  0  0  0  0  0  0  0  0  0
   21.0654  -14.5444  -20.7803 C   0  0  0  0  0  0  0  0  0  0  0  0
   21.1767  -13.4684  -21.4051 O   0  0  0  0  0  0  0  0  0  0  0  0
   22.3134  -12.7102  -17.0442 C   0  0  0  0  0  0  0  0  0  0  0  0
   21.6589  -12.5127  -15.9969 O   0  0  0  0  0  0  0  0  0  0  0  0
   21.7879  -15.6360  -21.2898 O   0  0  0  0  0  0  0  0  0  0  0  0
   26.0223  -11.6267  -14.6097 C   0  0  0  0  0  0  0  0  0  0  0  0
   26.1446  -11.3065  -16.0588 C   0  0  2  0  0  0  0  0  0  0  0  0
   27.5492  -10.7979  -16.3527 C   0  0  0  0  0  0  0  0  0  0  0  0
   25.1415  -10.2492  -16.4702 C   0  0  0  0  0  0  0  0  0  0  0  0
   23.7350  -10.7307  -16.4021 C   0  0  2  0  0  0  0  0  0  0  0  0
   23.3794  -11.8022  -17.2610 N   0  0  0  0  0  0  0  0  0  0  0  0
   22.7629   -9.6165  -16.6070 C   0  0  0  0  0  0  0  0  0  0  0  0
   22.6961   -9.0056  -17.7293 O   0  0  0  0  0  0  0  0  0  0  0  0
   18.4836   -7.5751  -15.9706 C   0  0  0  0  0  0  0  0  0  0  0  0
   19.5005   -8.6561  -15.6948 C   0  0  2  0  0  0  0  0  0  0  0  0
   19.1928   -9.3675  -14.4299 C   0  0  0  0  0  0  0  0  0  0  0  0
   20.8995   -8.1103  -15.7774 C   0  0  2  0  0  0  0  0  0  0  0  0
   21.8753   -9.1688  -15.6125 N   0  0  0  0  0  0  0  0  0  0  0  0
   21.1397   -6.9725  -14.8805 C   0  0  0  0  0  0  0  0  0  0  0  0
   20.6661   -5.6709  -15.1410 O   0  0  0  0  0  0  0  0  0  0  0  0
   21.7920   -7.0971  -13.8123 O   0  0  0  0  0  0  0  0  0  0  0  0
  2  1  1  1
  3  2  1  0
  4  3  1  0
  5  4  1  0
  5  6  2  0
  7  2  1  0
  7  8  2  0
  9  5  1  0
 11 10  1  1
 11 12  1  0
 11 13  1  0
 14 15  1  0
 14 13  1  6
 15  7  1  0
 16 14  1  0
 17 16  2  0
 19 18  1  1
 20 19  1  0
 21 19  1  0
 21 22  1  1
 22 16  1  0
 23 24  1  0
 23 21  1  0
 25 23  2  0
M  END
$$$$
