ELV.pdb
     RDKit          3D

 25 24  0  0  1  0  0  0  0  0999 V2000
   27.8227  -21.9901  -16.0574 N   0  0  0  0  0  0  0  0  0  0  0  0
   27.2999  -20.7765  -15.4792 C   0  0  1  0  0  0  0  0  0  0  0  0
   26.5867  -19.9951  -16.5234 C   0  0  0  0  0  0  0  0  0  0  0  0
   27.4481  -19.2493  -17.4885 C   0  0  0  0  0  0  0  0  0  0  0  0
   27.9227  -20.0532  -18.6277 C   0  0  0  0  0  0  0  0  0  0  0  0
   27.2518  -20.9579  -19.1679 O   0  0  0  0  0  0  0  0  0  0  0  0
   26.4330  -21.1484  -14.3319 C   0  0  0  0  0  0  0  0  0  0  0  0
   25.5051  -21.9786  -14.4502 O   0  0  0  0  0  0  0  0  0  0  0  0
   29.1985  -19.8197  -19.1670 O   0  0  0  0  0  0  0  0  0  0  0  0
   25.5149  -19.8961   -8.2496 C   0  0  0  0  0  0  0  0  0  0  0  0
   25.0607  -20.4559   -9.5526 C   0  0  2  0  0  0  0  0  0  0  0  0
   24.7415  -21.9355   -9.3893 C   0  0  0  0  0  0  0  0  0  0  0  0
   26.1269  -20.2963  -10.6161 C   0  0  0  0  0  0  0  0  0  0  0  0
   25.7023  -20.8214  -11.9422 C   0  0  2  0  0  0  0  0  0  0  0  0
   26.5830  -20.6032  -13.0327 N   0  0  0  0  0  0  0  0  0  0  0  0
   24.3467  -20.3238  -12.3210 C   0  0  0  0  0  0  0  0  0  0  0  0
   24.1273  -19.0717  -12.4669 O   0  0  0  0  0  0  0  0  0  0  0  0
   20.3186  -20.6885  -14.8591 C   0  0  0  0  0  0  0  0  0  0  0  0
   21.6341  -21.2346  -14.3596 C   0  0  2  0  0  0  0  0  0  0  0  0
   21.6884  -22.7101  -14.5043 C   0  0  0  0  0  0  0  0  0  0  0  0
   21.9309  -20.7341  -12.9728 C   0  0  2  0  0  0  0  0  0  0  0  0
   23.2436  -21.1682  -12.5391 N   0  0  0  0  0  0  0  0  0  0  0  0
   20.8786  -21.0478  -11.9976 C   0  0  0  0  0  0  0  0  0  0  0  0
   19.6169  -20.4199  -11.9948 O   0  0  0  0  0  0  0  0  0  0  0  0
   21.0466  -21.9080  -11.0955 O   0  0  0  0  0  0  0  0  0  0  0  0
  2  1  1  6
  3  2  1  0
  4  3  1  0
  5  4  1  0
  5  6  2  0
  7  2  1  0
  7  8  2  0
  9  5  1  0
 11 10  1  1
 11 12  1  0
 11 13  1  0
 14 15  1  0
 14 13  1  1
 15  7  1  0
 16 14  1  0
 17 16  2  0
 19 18  1  1
 20 19  1  0
 21 19  1  0
 21 22  1  1
 22 16  1  0
 23 24  1  0
 23 21  1  0
 25 23  2  0
M  END
$$$$
