ELV.pdb
     RDKit          3D

 25 24  0  0  1  0  0  0  0  0999 V2000
   28.3978  -22.3798  -16.0458 N   0  0  0  0  0  0  0  0  0  0  0  0
   27.6733  -21.1373  -15.9366 C   0  0  1  0  0  0  0  0  0  0  0  0
   27.3147  -20.6497  -17.2943 C   0  0  0  0  0  0  0  0  0  0  0  0
   26.6680  -19.3053  -17.3596 C   0  0  0  0  0  0  0  0  0  0  0  0
   27.6130  -18.1760  -17.3856 C   0  0  0  0  0  0  0  0  0  0  0  0
   28.6612  -18.1618  -18.0648 O   0  0  0  0  0  0  0  0  0  0  0  0
   26.4920  -21.3673  -15.0661 C   0  0  0  0  0  0  0  0  0  0  0  0
   25.6917  -22.3050  -15.2771 O   0  0  0  0  0  0  0  0  0  0  0  0
   27.3563  -17.0297  -16.6154 O   0  0  0  0  0  0  0  0  0  0  0  0
   25.4041  -22.4288  -10.5738 C   0  0  0  0  0  0  0  0  0  0  0  0
   26.0619  -21.1080  -10.7743 C   0  0  2  0  0  0  0  0  0  0  0  0
   26.2402  -20.4168   -9.4295 C   0  0  0  0  0  0  0  0  0  0  0  0
   25.2353  -20.2189  -11.6796 C   0  0  0  0  0  0  0  0  0  0  0  0
   25.0953  -20.7678  -13.0558 C   0  0  2  0  0  0  0  0  0  0  0  0
   26.1800  -20.5581  -13.9456 N   0  0  0  0  0  0  0  0  0  0  0  0
   23.8437  -20.2883  -13.7132 C   0  0  0  0  0  0  0  0  0  0  0  0
   23.7423  -19.0805  -14.1234 O   0  0  0  0  0  0  0  0  0  0  0  0
   21.0092  -22.6411  -15.8594 C   0  0  0  0  0  0  0  0  0  0  0  0
   21.2291  -21.1478  -15.8457 C   0  0  2  0  0  0  0  0  0  0  0  0
   22.2917  -20.7565  -16.8042 C   0  0  0  0  0  0  0  0  0  0  0  0
   21.4424  -20.6499  -14.4427 C   0  0  2  0  0  0  0  0  0  0  0  0
   22.7173  -21.1032  -13.9241 N   0  0  0  0  0  0  0  0  0  0  0  0
   20.3242  -20.9462  -13.5381 C   0  0  0  0  0  0  0  0  0  0  0  0
   19.0398  -20.3860  -13.6891 O   0  0  0  0  0  0  0  0  0  0  0  0
   20.4514  -21.7291  -12.5618 O   0  0  0  0  0  0  0  0  0  0  0  0
  2  1  1  6
  3  2  1  0
  4  3  1  0
  5  4  1  0
  5  6  2  0
  7  2  1  0
  7  8  2  0
  9  5  1  0
 11 10  1  1
 11 12  1  0
 11 13  1  0
 14 15  1  0
 14 13  1  1
 15  7  1  0
 16 14  1  0
 17 16  2  0
 19 18  1  1
 20 19  1  0
 21 19  1  0
 21 22  1  1
 22 16  1  0
 23 24  1  0
 23 21  1  0
 25 23  2  0
M  END
$$$$
