ELV.pdb
     RDKit          3D

 25 24  0  0  1  0  0  0  0  0999 V2000
   19.6901  -12.9168  -18.8971 N   0  0  0  0  0  0  0  0  0  0  0  0
   18.8810  -12.4209  -17.8108 C   0  0  1  0  0  0  0  0  0  0  0  0
   18.1704  -13.5541  -17.1623 C   0  0  0  0  0  0  0  0  0  0  0  0
   18.3052  -14.8826  -17.8307 C   0  0  0  0  0  0  0  0  0  0  0  0
   17.5490  -15.9686  -17.1844 C   0  0  0  0  0  0  0  0  0  0  0  0
   17.5917  -17.1612  -17.5535 O   0  0  0  0  0  0  0  0  0  0  0  0
   19.7660  -11.6751  -16.8798 C   0  0  0  0  0  0  0  0  0  0  0  0
   19.3348  -11.1839  -15.8135 O   0  0  0  0  0  0  0  0  0  0  0  0
   16.7201  -15.6878  -16.0856 O   0  0  0  0  0  0  0  0  0  0  0  0
   25.7244  -10.7009  -15.3849 C   0  0  0  0  0  0  0  0  0  0  0  0
   24.2984  -10.2729  -15.3530 C   0  0  2  0  0  0  0  0  0  0  0  0
   23.7589  -10.3994  -13.9349 C   0  0  0  0  0  0  0  0  0  0  0  0
   23.4533  -11.1221  -16.2793 C   0  0  0  0  0  0  0  0  0  0  0  0
   22.0207  -10.7191  -16.2849 C   0  0  2  0  0  0  0  0  0  0  0  0
   21.1464  -11.4626  -17.1186 N   0  0  0  0  0  0  0  0  0  0  0  0
   21.8596   -9.2694  -16.6024 C   0  0  0  0  0  0  0  0  0  0  0  0
   22.4605   -8.7493  -17.6052 O   0  0  0  0  0  0  0  0  0  0  0  0
   18.4978   -6.8468  -15.8762 C   0  0  0  0  0  0  0  0  0  0  0  0
   19.6982   -6.5979  -16.7568 C   0  0  2  0  0  0  0  0  0  0  0  0
   19.5310   -7.2443  -18.0816 C   0  0  0  0  0  0  0  0  0  0  0  0
   20.9715   -6.9611  -16.0435 C   0  0  2  0  0  0  0  0  0  0  0  0
   21.0600   -8.3940  -15.8463 N   0  0  0  0  0  0  0  0  0  0  0  0
   21.1867   -6.2035  -14.8039 C   0  0  0  0  0  0  0  0  0  0  0  0
   21.2317   -6.8045  -13.5299 O   0  0  0  0  0  0  0  0  0  0  0  0
   21.3457   -4.9558  -14.8093 O   0  0  0  0  0  0  0  0  0  0  0  0
  2  1  1  6
  3  2  1  0
  4  3  1  0
  5  4  1  0
  5  6  2  0
  7  2  1  0
  7  8  2  0
  9  5  1  0
 11 10  1  1
 11 12  1  0
 11 13  1  0
 14 15  1  0
 14 13  1  6
 15  7  1  0
 16 14  1  0
 17 16  2  0
 19 18  1  1
 20 19  1  0
 21 19  1  0
 21 22  1  1
 22 16  1  0
 23 24  1  0
 23 21  1  0
 25 23  2  0
M  END
$$$$
