ELV.pdb
     RDKit          3D

 25 24  0  0  1  0  0  0  0  0999 V2000
   17.4274  -11.2125  -17.7473 N   0  0  0  0  0  0  0  0  0  0  0  0
   17.8380   -9.8354  -17.8724 C   0  0  1  0  0  0  0  0  0  0  0  0
   16.6417   -8.9759  -18.0716 C   0  0  0  0  0  0  0  0  0  0  0  0
   15.9561   -9.1004  -19.3923 C   0  0  0  0  0  0  0  0  0  0  0  0
   14.8076  -10.0223  -19.3973 C   0  0  0  0  0  0  0  0  0  0  0  0
   14.2326  -10.4226  -18.3631 O   0  0  0  0  0  0  0  0  0  0  0  0
   18.6222   -9.4763  -16.6632 C   0  0  0  0  0  0  0  0  0  0  0  0
   18.0733   -9.2838  -15.5561 O   0  0  0  0  0  0  0  0  0  0  0  0
   14.2995  -10.5021  -20.6157 O   0  0  0  0  0  0  0  0  0  0  0  0
   23.9479  -10.4654  -13.8677 C   0  0  0  0  0  0  0  0  0  0  0  0
   22.7789   -9.5606  -14.0473 C   0  0  2  0  0  0  0  0  0  0  0  0
   21.9399   -9.5519  -12.7769 C   0  0  0  0  0  0  0  0  0  0  0  0
   21.9139  -10.0107  -15.2060 C   0  0  0  0  0  0  0  0  0  0  0  0
   20.8292   -9.0433  -15.5260 C   0  0  2  0  0  0  0  0  0  0  0  0
   20.0311   -9.3250  -16.6644 N   0  0  0  0  0  0  0  0  0  0  0  0
   21.3538   -7.6510  -15.6479 C   0  0  0  0  0  0  0  0  0  0  0  0
   22.2204   -7.3550  -16.5416 O   0  0  0  0  0  0  0  0  0  0  0  0
   19.3162   -4.1371  -14.4279 C   0  0  0  0  0  0  0  0  0  0  0  0
   20.4860   -4.2726  -15.3723 C   0  0  2  0  0  0  0  0  0  0  0  0
   20.0259   -4.5563  -16.7538 C   0  0  0  0  0  0  0  0  0  0  0  0
   21.4951   -5.2521  -14.8391 C   0  0  2  0  0  0  0  0  0  0  0  0
   20.9474   -6.5934  -14.8151 N   0  0  0  0  0  0  0  0  0  0  0  0
   22.0764   -4.8534  -13.5508 C   0  0  0  0  0  0  0  0  0  0  0  0
   22.9260   -3.7392  -13.3990 O   0  0  0  0  0  0  0  0  0  0  0  0
   21.8454   -5.4939  -12.4931 O   0  0  0  0  0  0  0  0  0  0  0  0
  2  1  1  1
  3  2  1  0
  4  3  1  0
  5  4  1  0
  5  6  2  0
  7  2  1  0
  7  8  2  0
  9  5  1  0
 11 10  1  1
 11 12  1  0
 11 13  1  0
 14 15  1  0
 14 13  1  6
 15  7  1  0
 16 14  1  0
 17 16  2  0
 19 18  1  1
 20 19  1  0
 21 19  1  0
 21 22  1  1
 22 16  1  0
 23 24  1  0
 23 21  1  0
 25 23  2  0
M  END
$$$$
