ELV.pdb
     RDKit          3D

 25 24  0  0  1  0  0  0  0  0999 V2000
   20.0712  -13.6829  -18.4719 N   0  0  0  0  0  0  0  0  0  0  0  0
   20.3122  -12.2922  -18.7695 C   0  0  1  0  0  0  0  0  0  0  0  0
   19.0171  -11.6034  -19.0101 C   0  0  0  0  0  0  0  0  0  0  0  0
   18.1968  -12.1246  -20.1438 C   0  0  0  0  0  0  0  0  0  0  0  0
   17.6897  -13.4935  -19.9490 C   0  0  0  0  0  0  0  0  0  0  0  0
   16.6569  -13.7671  -19.3017 O   0  0  0  0  0  0  0  0  0  0  0  0
   21.0863  -11.7073  -17.6448 C   0  0  0  0  0  0  0  0  0  0  0  0
   20.7176  -11.8335  -16.4564 O   0  0  0  0  0  0  0  0  0  0  0  0
   18.3790  -14.5824  -20.5079 O   0  0  0  0  0  0  0  0  0  0  0  0
   25.2378   -8.7498  -15.5583 C   0  0  0  0  0  0  0  0  0  0  0  0
   25.2096  -10.2378  -15.5072 C   0  0  2  0  0  0  0  0  0  0  0  0
   26.6339  -10.7747  -15.4746 C   0  0  0  0  0  0  0  0  0  0  0  0
   24.4942  -10.8114  -16.7124 C   0  0  0  0  0  0  0  0  0  0  0  0
   23.0641  -10.4056  -16.7815 C   0  0  2  0  0  0  0  0  0  0  0  0
   22.2842  -10.9717  -17.8225 N   0  0  0  0  0  0  0  0  0  0  0  0
   22.9166   -8.9210  -16.8327 C   0  0  0  0  0  0  0  0  0  0  0  0
   23.5760   -8.2276  -17.6822 O   0  0  0  0  0  0  0  0  0  0  0  0
   19.4352   -6.8006  -15.6079 C   0  0  0  0  0  0  0  0  0  0  0  0
   20.5354   -6.4018  -16.5612 C   0  0  2  0  0  0  0  0  0  0  0  0
   20.2769   -6.9279  -17.9240 C   0  0  0  0  0  0  0  0  0  0  0  0
   21.8852   -6.7587  -16.0022 C   0  0  2  0  0  0  0  0  0  0  0  0
   22.0682   -8.1959  -15.9772 N   0  0  0  0  0  0  0  0  0  0  0  0
   22.1697   -6.1279  -14.7068 C   0  0  0  0  0  0  0  0  0  0  0  0
   22.2334   -6.8463  -13.4959 O   0  0  0  0  0  0  0  0  0  0  0  0
   22.3758   -4.8914  -14.6030 O   0  0  0  0  0  0  0  0  0  0  0  0
  2  1  1  1
  3  2  1  0
  4  3  1  0
  5  4  1  0
  5  6  2  0
  7  2  1  0
  7  8  2  0
  9  5  1  0
 11 10  1  6
 11 12  1  0
 11 13  1  0
 14 15  1  0
 14 13  1  6
 15  7  1  0
 16 14  1  0
 17 16  2  0
 19 18  1  1
 20 19  1  0
 21 19  1  0
 21 22  1  1
 22 16  1  0
 23 24  1  0
 23 21  1  0
 25 23  2  0
M  END
$$$$
