ELV.pdb
     RDKit          3D

 25 24  0  0  1  0  0  0  0  0999 V2000
   20.4953  -20.8520  -10.1444 N   0  0  0  0  0  0  0  0  0  0  0  0
   21.1963  -21.0307  -11.3922 C   0  0  1  0  0  0  0  0  0  0  0  0
   20.4551  -20.3430  -12.4820 C   0  0  0  0  0  0  0  0  0  0  0  0
   19.0613  -20.8180  -12.7295 C   0  0  0  0  0  0  0  0  0  0  0  0
   18.9267  -22.2808  -12.8360 C   0  0  0  0  0  0  0  0  0  0  0  0
   18.0248  -22.9389  -12.2758 O   0  0  0  0  0  0  0  0  0  0  0  0
   22.5827  -20.5268  -11.2186 C   0  0  0  0  0  0  0  0  0  0  0  0
   23.0877  -19.7029  -12.0125 O   0  0  0  0  0  0  0  0  0  0  0  0
   19.8463  -23.0151  -13.6031 O   0  0  0  0  0  0  0  0  0  0  0  0
   27.5234  -20.7618   -7.3821 C   0  0  0  0  0  0  0  0  0  0  0  0
   26.8116  -20.2724   -8.5951 C   0  0  2  0  0  0  0  0  0  0  0  0
   26.5586  -18.7763   -8.4700 C   0  0  0  0  0  0  0  0  0  0  0  0
   25.4864  -20.9831   -8.7737 C   0  0  0  0  0  0  0  0  0  0  0  0
   24.8168  -20.6412  -10.0580 C   0  0  2  0  0  0  0  0  0  0  0  0
   23.4318  -20.9308  -10.1586 N   0  0  0  0  0  0  0  0  0  0  0  0
   25.5161  -21.2594  -11.2231 C   0  0  0  0  0  0  0  0  0  0  0  0
   25.6717  -22.5275  -11.2942 O   0  0  0  0  0  0  0  0  0  0  0  0
   26.0571  -19.2965  -15.0222 C   0  0  0  0  0  0  0  0  0  0  0  0
   26.0168  -20.7736  -14.7136 C   0  0  2  0  0  0  0  0  0  0  0  0
   24.6276  -21.2915  -14.7654 C   0  0  0  0  0  0  0  0  0  0  0  0
   26.7456  -21.0741  -13.4329 C   0  0  2  0  0  0  0  0  0  0  0  0
   26.0399  -20.5172  -12.2964 N   0  0  0  0  0  0  0  0  0  0  0  0
   28.1640  -20.6947  -13.4614 C   0  0  0  0  0  0  0  0  0  0  0  0
   29.1382  -21.4037  -14.1925 O   0  0  0  0  0  0  0  0  0  0  0  0
   28.5966  -19.6997  -12.8249 O   0  0  0  0  0  0  0  0  0  0  0  0
  2  1  1  1
  3  2  1  0
  4  3  1  0
  5  4  1  0
  5  6  2  0
  7  2  1  0
  7  8  2  0
  9  5  1  0
 11 10  1  1
 11 12  1  0
 11 13  1  0
 14 15  1  0
 14 13  1  1
 15  7  1  0
 16 14  1  0
 17 16  2  0
 19 18  1  1
 20 19  1  0
 21 19  1  0
 21 22  1  1
 22 16  1  0
 23 24  1  0
 23 21  1  0
 25 23  2  0
M  END
$$$$
