ELV.pdb
     RDKit          3D

 25 24  0  0  1  0  0  0  0  0999 V2000
   27.9910  -21.9972  -16.0713 N   0  0  0  0  0  0  0  0  0  0  0  0
   27.0033  -20.9461  -16.0575 C   0  0  1  0  0  0  0  0  0  0  0  0
   26.5131  -20.7061  -17.4402 C   0  0  0  0  0  0  0  0  0  0  0  0
   27.3747  -19.8429  -18.3018 C   0  0  0  0  0  0  0  0  0  0  0  0
   27.3474  -18.4128  -17.9511 C   0  0  0  0  0  0  0  0  0  0  0  0
   28.3391  -17.7809  -17.5297 O   0  0  0  0  0  0  0  0  0  0  0  0
   25.9254  -21.3385  -15.1140 C   0  0  0  0  0  0  0  0  0  0  0  0
   25.2088  -22.3437  -15.3147 O   0  0  0  0  0  0  0  0  0  0  0  0
   26.1556  -17.6812  -18.0843 O   0  0  0  0  0  0  0  0  0  0  0  0
   25.7557  -22.5150  -10.6955 C   0  0  0  0  0  0  0  0  0  0  0  0
   25.9470  -21.0525  -10.9006 C   0  0  2  0  0  0  0  0  0  0  0  0
   26.1206  -20.3662   -9.5527 C   0  0  0  0  0  0  0  0  0  0  0  0
   24.7595  -20.4421  -11.6151 C   0  0  0  0  0  0  0  0  0  0  0  0
   24.6008  -20.9474  -13.0059 C   0  0  2  0  0  0  0  0  0  0  0  0
   25.6255  -20.6195  -13.9304 N   0  0  0  0  0  0  0  0  0  0  0  0
   23.2880  -20.5431  -13.5903 C   0  0  0  0  0  0  0  0  0  0  0  0
   23.0254  -19.3116  -13.8176 O   0  0  0  0  0  0  0  0  0  0  0  0
   19.4750  -21.4194  -16.4418 C   0  0  0  0  0  0  0  0  0  0  0  0
   20.7560  -21.8652  -15.7794 C   0  0  2  0  0  0  0  0  0  0  0  0
   20.7964  -23.3412  -15.6358 C   0  0  0  0  0  0  0  0  0  0  0  0
   20.9902  -21.1089  -14.5007 C   0  0  2  0  0  0  0  0  0  0  0  0
   22.2732  -21.4574  -13.9244 N   0  0  0  0  0  0  0  0  0  0  0  0
   19.8861  -21.2249  -13.5393 C   0  0  0  0  0  0  0  0  0  0  0  0
   20.0151  -21.8623  -12.2890 O   0  0  0  0  0  0  0  0  0  0  0  0
   18.7448  -20.7546  -13.7812 O   0  0  0  0  0  0  0  0  0  0  0  0
  2  1  1  6
  3  2  1  0
  4  3  1  0
  5  4  1  0
  5  6  2  0
  7  2  1  0
  7  8  2  0
  9  5  1  0
 11 10  1  1
 11 12  1  0
 11 13  1  0
 14 15  1  0
 14 13  1  1
 15  7  1  0
 16 14  1  0
 17 16  2  0
 19 18  1  1
 20 19  1  0
 21 19  1  0
 21 22  1  1
 22 16  1  0
 23 24  1  0
 23 21  1  0
 25 23  2  0
M  END
$$$$
