ELV.pdb
     RDKit          3D

 25 24  0  0  1  0  0  0  0  0999 V2000
   27.6371  -22.6271  -16.8871 N   0  0  0  0  0  0  0  0  0  0  0  0
   27.6902  -21.4163  -16.1051 C   0  0  1  0  0  0  0  0  0  0  0  0
   27.6351  -20.2376  -17.0092 C   0  0  0  0  0  0  0  0  0  0  0  0
   26.7388  -20.3624  -18.1969 C   0  0  0  0  0  0  0  0  0  0  0  0
   25.5170  -19.5432  -18.1262 C   0  0  0  0  0  0  0  0  0  0  0  0
   24.6094  -19.5723  -18.9840 O   0  0  0  0  0  0  0  0  0  0  0  0
   26.5772  -21.4529  -15.1222 C   0  0  0  0  0  0  0  0  0  0  0  0
   25.5425  -22.1256  -15.3245 O   0  0  0  0  0  0  0  0  0  0  0  0
   25.3235  -18.6653  -17.0468 O   0  0  0  0  0  0  0  0  0  0  0  0
   25.3912  -20.0005   -9.1868 C   0  0  0  0  0  0  0  0  0  0  0  0
   25.1301  -20.7383  -10.4537 C   0  0  2  0  0  0  0  0  0  0  0  0
   25.5864  -22.1833  -10.3064 C   0  0  0  0  0  0  0  0  0  0  0  0
   25.8666  -20.1049  -11.6154 C   0  0  0  0  0  0  0  0  0  0  0  0
   25.5720  -20.7672  -12.9152 C   0  0  2  0  0  0  0  0  0  0  0  0
   26.5957  -20.7415  -13.8969 N   0  0  0  0  0  0  0  0  0  0  0  0
   24.3158  -20.2415  -13.5267 C   0  0  0  0  0  0  0  0  0  0  0  0
   24.2580  -19.0442  -13.9744 O   0  0  0  0  0  0  0  0  0  0  0  0
   21.1878  -22.4699  -15.3815 C   0  0  0  0  0  0  0  0  0  0  0  0
   21.4674  -20.9870  -15.4182 C   0  0  2  0  0  0  0  0  0  0  0  0
   22.4378  -20.6537  -16.4896 C   0  0  0  0  0  0  0  0  0  0  0  0
   21.8471  -20.4788  -14.0546 C   0  0  2  0  0  0  0  0  0  0  0  0
   23.1381  -20.9996  -13.6525 N   0  0  0  0  0  0  0  0  0  0  0  0
   20.8082  -20.6910  -13.0385 C   0  0  0  0  0  0  0  0  0  0  0  0
   19.5552  -20.0466  -13.0694 O   0  0  0  0  0  0  0  0  0  0  0  0
   20.9806  -21.4723  -12.0679 O   0  0  0  0  0  0  0  0  0  0  0  0
  2  1  1  6
  3  2  1  0
  4  3  1  0
  5  4  1  0
  5  6  2  0
  7  2  1  0
  7  8  2  0
  9  5  1  0
 11 10  1  1
 11 12  1  0
 11 13  1  0
 14 15  1  0
 14 13  1  1
 15  7  1  0
 16 14  1  0
 17 16  2  0
 19 18  1  1
 20 19  1  0
 21 19  1  0
 21 22  1  1
 22 16  1  0
 23 24  1  0
 23 21  1  0
 25 23  2  0
M  END
$$$$
