ELV.pdb
     RDKit          3D

 25 24  0  0  1  0  0  0  0  0999 V2000
   20.6851  -12.6808  -19.3362 N   0  0  0  0  0  0  0  0  0  0  0  0
   21.0423  -11.2902  -19.4746 C   0  0  1  0  0  0  0  0  0  0  0  0
   19.8296  -10.4954  -19.8021 C   0  0  0  0  0  0  0  0  0  0  0  0
   19.2661  -10.6910  -21.1710 C   0  0  0  0  0  0  0  0  0  0  0  0
   18.3838  -11.8626  -21.3042 C   0  0  0  0  0  0  0  0  0  0  0  0
   17.9293  -12.5050  -20.3340 O   0  0  0  0  0  0  0  0  0  0  0  0
   21.7044  -10.8569  -18.2176 C   0  0  0  0  0  0  0  0  0  0  0  0
   21.2009  -11.0856  -17.0959 O   0  0  0  0  0  0  0  0  0  0  0  0
   18.0082  -12.3156  -22.5797 O   0  0  0  0  0  0  0  0  0  0  0  0
   27.1348   -9.8130  -15.5788 C   0  0  0  0  0  0  0  0  0  0  0  0
   25.6786   -9.5060  -15.6314 C   0  0  2  0  0  0  0  0  0  0  0  0
   24.9849  -10.1118  -14.4191 C   0  0  0  0  0  0  0  0  0  0  0  0
   25.0486  -10.0649  -16.8900 C   0  0  0  0  0  0  0  0  0  0  0  0
   23.6058   -9.7219  -17.0143 C   0  0  2  0  0  0  0  0  0  0  0  0
   22.9386  -10.1615  -18.1864 N   0  0  0  0  0  0  0  0  0  0  0  0
   23.3750   -8.2552  -16.8595 C   0  0  0  0  0  0  0  0  0  0  0  0
   23.9446   -7.4178  -17.6417 O   0  0  0  0  0  0  0  0  0  0  0  0
   20.8304   -4.3705  -16.2772 C   0  0  0  0  0  0  0  0  0  0  0  0
   21.0733   -5.8504  -16.4487 C   0  0  2  0  0  0  0  0  0  0  0  0
   19.8483   -6.6304  -16.1457 C   0  0  0  0  0  0  0  0  0  0  0  0
   22.2932   -6.2859  -15.6845 C   0  0  2  0  0  0  0  0  0  0  0  0
   22.5402   -7.7012  -15.8728 N   0  0  0  0  0  0  0  0  0  0  0  0
   22.2685   -5.8977  -14.2683 C   0  0  0  0  0  0  0  0  0  0  0  0
   22.5660   -4.5952  -13.8197 O   0  0  0  0  0  0  0  0  0  0  0  0
   21.9759   -6.7187  -13.3614 O   0  0  0  0  0  0  0  0  0  0  0  0
  2  1  1  1
  3  2  1  0
  4  3  1  0
  5  4  1  0
  5  6  2  0
  7  2  1  0
  7  8  2  0
  9  5  1  0
 11 10  1  1
 11 12  1  0
 11 13  1  0
 14 15  1  0
 14 13  1  6
 15  7  1  0
 16 14  1  0
 17 16  2  0
 19 18  1  1
 20 19  1  0
 21 19  1  0
 21 22  1  1
 22 16  1  0
 23 24  1  0
 23 21  1  0
 25 23  2  0
M  END
$$$$
