ELV.pdb
     RDKit          3D

 25 24  0  0  1  0  0  0  0  0999 V2000
   27.8190  -21.7937  -16.1558 N   0  0  0  0  0  0  0  0  0  0  0  0
   26.8641  -20.7286  -15.9712 C   0  0  1  0  0  0  0  0  0  0  0  0
   26.2411  -20.3873  -17.2770 C   0  0  0  0  0  0  0  0  0  0  0  0
   27.1013  -19.6352  -18.2384 C   0  0  0  0  0  0  0  0  0  0  0  0
   27.7197  -18.4207  -17.6802 C   0  0  0  0  0  0  0  0  0  0  0  0
   28.7893  -18.4185  -17.0349 O   0  0  0  0  0  0  0  0  0  0  0  0
   25.8790  -21.1644  -14.9486 C   0  0  0  0  0  0  0  0  0  0  0  0
   25.1916  -22.1988  -15.0959 O   0  0  0  0  0  0  0  0  0  0  0  0
   27.1017  -17.1725  -17.8624 O   0  0  0  0  0  0  0  0  0  0  0  0
   25.9863  -22.3371  -10.6277 C   0  0  0  0  0  0  0  0  0  0  0  0
   26.0876  -20.8537  -10.7112 C   0  0  2  0  0  0  0  0  0  0  0  0
   26.1999  -20.2699   -9.3096 C   0  0  0  0  0  0  0  0  0  0  0  0
   24.8735  -20.2618  -11.3958 C   0  0  0  0  0  0  0  0  0  0  0  0
   24.6679  -20.7962  -12.7694 C   0  0  2  0  0  0  0  0  0  0  0  0
   25.6411  -20.4572  -13.7441 N   0  0  0  0  0  0  0  0  0  0  0  0
   23.3197  -20.4385  -13.3014 C   0  0  0  0  0  0  0  0  0  0  0  0
   23.0534  -19.2372  -13.6526 O   0  0  0  0  0  0  0  0  0  0  0  0
   20.6101  -23.2432  -15.0801 C   0  0  0  0  0  0  0  0  0  0  0  0
   20.6996  -21.7477  -15.2643 C   0  0  2  0  0  0  0  0  0  0  0  0
   21.6677  -21.3990  -16.3330 C   0  0  0  0  0  0  0  0  0  0  0  0
   20.9486  -21.0593  -13.9505 C   0  0  2  0  0  0  0  0  0  0  0  0
   22.2739  -21.3664  -13.4517 N   0  0  0  0  0  0  0  0  0  0  0  0
   19.8974  -21.2993  -12.9534 C   0  0  0  0  0  0  0  0  0  0  0  0
   20.0807  -22.1167  -11.8200 O   0  0  0  0  0  0  0  0  0  0  0  0
   18.7560  -20.7808  -13.0561 O   0  0  0  0  0  0  0  0  0  0  0  0
  2  1  1  6
  3  2  1  0
  4  3  1  0
  5  4  1  0
  5  6  2  0
  7  2  1  0
  7  8  2  0
  9  5  1  0
 11 10  1  1
 11 12  1  0
 11 13  1  0
 14 15  1  0
 14 13  1  1
 15  7  1  0
 16 14  1  0
 17 16  2  0
 19 18  1  1
 20 19  1  0
 21 19  1  0
 21 22  1  1
 22 16  1  0
 23 24  1  0
 23 21  1  0
 25 23  2  0
M  END
$$$$
