ELV.pdb
     RDKit          3D

 25 24  0  0  1  0  0  0  0  0999 V2000
   21.5522  -13.3199  -16.7649 N   0  0  0  0  0  0  0  0  0  0  0  0
   21.6000  -12.0193  -17.3866 C   0  0  1  0  0  0  0  0  0  0  0  0
   20.2184  -11.5617  -17.6893 C   0  0  0  0  0  0  0  0  0  0  0  0
   20.1020  -10.2743  -18.4368 C   0  0  0  0  0  0  0  0  0  0  0  0
   18.7193   -9.8744  -18.7484 C   0  0  0  0  0  0  0  0  0  0  0  0
   18.4202   -8.8381  -19.3785 O   0  0  0  0  0  0  0  0  0  0  0  0
   22.3352  -11.1013  -16.4796 C   0  0  0  0  0  0  0  0  0  0  0  0
   22.0357  -10.9914  -15.2703 O   0  0  0  0  0  0  0  0  0  0  0  0
   17.6461  -10.6783  -18.3300 O   0  0  0  0  0  0  0  0  0  0  0  0
   26.2999  -11.2524  -14.9314 C   0  0  0  0  0  0  0  0  0  0  0  0
   26.3210  -10.6725  -16.3029 C   0  0  2  0  0  0  0  0  0  0  0  0
   27.7622  -10.5005  -16.7625 C   0  0  0  0  0  0  0  0  0  0  0  0
   25.6291   -9.3258  -16.3361 C   0  0  0  0  0  0  0  0  0  0  0  0
   24.1682   -9.4211  -16.0688 C   0  0  2  0  0  0  0  0  0  0  0  0
   23.4168  -10.2892  -16.9020 N   0  0  0  0  0  0  0  0  0  0  0  0
   23.5197   -8.0765  -16.0782 C   0  0  0  0  0  0  0  0  0  0  0  0
   23.9472   -7.1394  -15.3190 O   0  0  0  0  0  0  0  0  0  0  0  0
   20.9049   -4.6467  -18.3931 C   0  0  0  0  0  0  0  0  0  0  0  0
   21.5120   -6.0281  -18.3508 C   0  0  2  0  0  0  0  0  0  0  0  0
   20.7129   -6.9864  -19.1534 C   0  0  0  0  0  0  0  0  0  0  0  0
   21.7619   -6.4611  -16.9324 C   0  0  2  0  0  0  0  0  0  0  0  0
   22.4242   -7.7494  -16.8968 N   0  0  0  0  0  0  0  0  0  0  0  0
   20.5635   -6.4156  -16.0848 C   0  0  0  0  0  0  0  0  0  0  0  0
   19.9510   -5.2133  -15.6777 O   0  0  0  0  0  0  0  0  0  0  0  0
   20.0070   -7.4637  -15.6675 O   0  0  0  0  0  0  0  0  0  0  0  0
  2  1  1  1
  3  2  1  0
  4  3  1  0
  5  4  1  0
  5  6  2  0
  7  2  1  0
  7  8  2  0
  9  5  1  0
 11 10  1  1
 11 12  1  0
 11 13  1  0
 14 15  1  0
 14 13  1  6
 15  7  1  0
 16 14  1  0
 17 16  2  0
 19 18  1  1
 20 19  1  0
 21 19  1  0
 21 22  1  6
 22 16  1  0
 23 24  1  0
 23 21  1  0
 25 23  2  0
M  END
$$$$
