ELV.pdb
     RDKit          3D

 25 24  0  0  1  0  0  0  0  0999 V2000
   19.9477  -19.0497  -14.9815 N   0  0  0  0  0  0  0  0  0  0  0  0
   20.6253  -20.2983  -14.7316 C   0  0  1  0  0  0  0  0  0  0  0  0
   20.5519  -21.1553  -15.9439 C   0  0  0  0  0  0  0  0  0  0  0  0
   19.3224  -21.9911  -16.0838 C   0  0  0  0  0  0  0  0  0  0  0  0
   18.9075  -22.6749  -14.8471 C   0  0  0  0  0  0  0  0  0  0  0  0
   18.1267  -22.1798  -14.0071 O   0  0  0  0  0  0  0  0  0  0  0  0
   22.0176  -19.9920  -14.3145 C   0  0  0  0  0  0  0  0  0  0  0  0
   22.6295  -18.9913  -14.7485 O   0  0  0  0  0  0  0  0  0  0  0  0
   19.3962  -23.9599  -14.5591 O   0  0  0  0  0  0  0  0  0  0  0  0
   26.3070  -21.5129  -10.0358 C   0  0  0  0  0  0  0  0  0  0  0  0
   25.9290  -20.8531  -11.3162 C   0  0  2  0  0  0  0  0  0  0  0  0
   26.1622  -19.3526  -11.2056 C   0  0  0  0  0  0  0  0  0  0  0  0
   24.4728  -21.1022  -11.6490 C   0  0  0  0  0  0  0  0  0  0  0  0
   24.0766  -20.5338  -12.9660 C   0  0  2  0  0  0  0  0  0  0  0  0
   22.7537  -20.7937  -13.4073 N   0  0  0  0  0  0  0  0  0  0  0  0
   25.0245  -20.9384  -14.0460 C   0  0  0  0  0  0  0  0  0  0  0  0
   25.0000  -22.1240  -14.5267 O   0  0  0  0  0  0  0  0  0  0  0  0
   28.4404  -18.5164  -15.3786 C   0  0  0  0  0  0  0  0  0  0  0  0
   27.4294  -19.1340  -16.3139 C   0  0  2  0  0  0  0  0  0  0  0  0
   26.4231  -18.1337  -16.7472 C   0  0  0  0  0  0  0  0  0  0  0  0
   26.8459  -20.3872  -15.7216 C   0  0  2  0  0  0  0  0  0  0  0  0
   25.9855  -20.0734  -14.5986 N   0  0  0  0  0  0  0  0  0  0  0  0
   27.8517  -21.4072  -15.3980 C   0  0  0  0  0  0  0  0  0  0  0  0
   28.2648  -21.6935  -14.0813 O   0  0  0  0  0  0  0  0  0  0  0  0
   28.4104  -22.0937  -16.2917 O   0  0  0  0  0  0  0  0  0  0  0  0
  2  1  1  6
  3  2  1  0
  4  3  1  0
  5  4  1  0
  5  6  2  0
  7  2  1  0
  7  8  2  0
  9  5  1  0
 11 10  1  1
 11 12  1  0
 11 13  1  0
 14 15  1  0
 14 13  1  1
 15  7  1  0
 16 14  1  0
 17 16  2  0
 19 18  1  1
 20 19  1  0
 21 19  1  0
 21 22  1  1
 22 16  1  0
 23 24  1  0
 23 21  1  0
 25 23  2  0
M  END
$$$$
