LAG.pdb
     RDKit          3D

 18 17  0  0  1  0  0  0  0  0999 V2000
    7.2670  -11.8886   27.5428 C   0  0  0  0  0  0  0  0  0  0  0  0
    6.5960  -13.1564   27.0032 C   0  0  1  0  0  0  0  0  0  0  0  0
    5.3892  -12.7260   26.2341 C   0  0  0  0  0  0  0  0  0  0  0  0
    7.5760  -13.9696   26.2167 C   0  0  0  0  0  0  0  0  0  0  0  0
    6.8955  -15.1325   25.5549 C   0  0  2  0  0  0  0  0  0  0  0  0
    6.7540  -16.1914   26.5260 N   0  0  0  0  0  0  0  0  0  0  0  0
    7.6084  -15.5860   24.3349 C   0  0  0  0  0  0  0  0  0  0  0  0
    8.5761  -16.3953   24.4116 O   0  0  0  0  0  0  0  0  0  0  0  0
    7.4265  -14.9034   20.5971 C   0  0  0  0  0  0  0  0  0  0  0  0
    8.0196  -15.4508   21.8538 C   0  0  2  0  0  0  0  0  0  0  0  0
    7.2547  -15.1474   23.0306 N   0  0  0  0  0  0  0  0  0  0  0  0
    9.4305  -15.0198   21.9592 C   0  0  0  0  0  0  0  0  0  0  0  0
    9.7115  -13.7968   21.8738 O   0  0  0  0  0  0  0  0  0  0  0  0
   10.4718  -15.9650   22.1553 N   0  0  0  0  0  0  0  0  0  0  0  0
   11.8596  -15.6218   22.2390 C   0  0  0  0  0  0  0  0  0  0  0  0
   12.7171  -16.8176   22.5240 C   0  0  0  0  0  0  0  0  0  0  0  0
   12.0682  -18.0413   22.6298 O   0  0  0  0  0  0  0  0  0  0  0  0
   13.9452  -16.7366   22.6612 O   0  0  0  0  0  0  0  0  0  0  0  0
  2  3  1  6
  2  1  1  0
  4  2  1  0
  5  7  1  0
  5  6  1  1
  5  4  1  0
  7  8  2  0
 10  9  1  6
 10 12  1  0
 11  7  1  0
 11 10  1  0
 12 13  2  0
 12 14  1  0
 14 15  1  0
 15 16  1  0
 16 18  2  0
 16 17  1  0
M  END
$$$$
