LAG.pdb
     RDKit          3D

 18 17  0  0  1  0  0  0  0  0999 V2000
    7.2793  -11.6093   27.3945 C   0  0  0  0  0  0  0  0  0  0  0  0
    6.6162  -12.9237   26.9687 C   0  0  1  0  0  0  0  0  0  0  0  0
    5.5006  -12.5758   26.0373 C   0  0  0  0  0  0  0  0  0  0  0  0
    7.6346  -13.8589   26.3957 C   0  0  0  0  0  0  0  0  0  0  0  0
    6.9708  -15.0353   25.7408 C   0  0  2  0  0  0  0  0  0  0  0  0
    6.8010  -16.0726   26.7304 N   0  0  0  0  0  0  0  0  0  0  0  0
    7.7164  -15.5158   24.5511 C   0  0  0  0  0  0  0  0  0  0  0  0
    8.7764  -16.1920   24.6788 O   0  0  0  0  0  0  0  0  0  0  0  0
    7.4090  -15.2049   20.7722 C   0  0  0  0  0  0  0  0  0  0  0  0
    8.0647  -15.5895   22.0578 C   0  0  2  0  0  0  0  0  0  0  0  0
    7.2934  -15.2511   23.2208 N   0  0  0  0  0  0  0  0  0  0  0  0
    9.4347  -15.0333   22.0958 C   0  0  0  0  0  0  0  0  0  0  0  0
    9.5953  -13.7941   22.2395 O   0  0  0  0  0  0  0  0  0  0  0  0
   10.5706  -15.8764   21.9726 N   0  0  0  0  0  0  0  0  0  0  0  0
   11.9188  -15.3988   21.9044 C   0  0  0  0  0  0  0  0  0  0  0  0
   12.9072  -16.5210   21.8031 C   0  0  0  0  0  0  0  0  0  0  0  0
   14.1868  -16.2723   22.2832 O   0  0  0  0  0  0  0  0  0  0  0  0
   12.6143  -17.6222   21.3182 O   0  0  0  0  0  0  0  0  0  0  0  0
  2  3  1  6
  2  1  1  0
  4  2  1  0
  5  7  1  0
  5  6  1  1
  5  4  1  0
  7  8  2  0
 10  9  1  6
 10 12  1  0
 11  7  1  0
 11 10  1  0
 12 13  2  0
 12 14  1  0
 14 15  1  0
 15 16  1  0
 16 18  2  0
 16 17  1  0
M  END
$$$$
