LAG.pdb
     RDKit          3D

 18 17  0  0  1  0  0  0  0  0999 V2000
    7.6540  -12.0378   19.7007 C   0  0  0  0  0  0  0  0  0  0  0  0
    7.6569  -13.5701   19.7261 C   0  0  1  0  0  0  0  0  0  0  0  0
    8.5577  -14.0298   18.6260 C   0  0  0  0  0  0  0  0  0  0  0  0
    8.0344  -14.0675   21.0864 C   0  0  0  0  0  0  0  0  0  0  0  0
    7.9703  -15.5662   21.1438 C   0  0  2  0  0  0  0  0  0  0  0  0
    6.6123  -15.9755   20.8744 N   0  0  0  0  0  0  0  0  0  0  0  0
    8.4701  -16.1050   22.4330 C   0  0  0  0  0  0  0  0  0  0  0  0
    7.8676  -15.8593   23.5165 O   0  0  0  0  0  0  0  0  0  0  0  0
   10.0587  -18.9728   23.7904 C   0  0  0  0  0  0  0  0  0  0  0  0
   10.1119  -17.4806   23.7579 C   0  0  2  0  0  0  0  0  0  0  0  0
    9.6338  -16.9146   22.5279 N   0  0  0  0  0  0  0  0  0  0  0  0
   11.4775  -17.0304   24.1045 C   0  0  0  0  0  0  0  0  0  0  0  0
   11.9504  -17.3051   25.2371 O   0  0  0  0  0  0  0  0  0  0  0  0
   12.2620  -16.2932   23.1786 N   0  0  0  0  0  0  0  0  0  0  0  0
   13.5537  -15.7513   23.4764 C   0  0  0  0  0  0  0  0  0  0  0  0
   14.3953  -15.5982   22.2457 C   0  0  0  0  0  0  0  0  0  0  0  0
   15.5224  -14.7936   22.3552 O   0  0  0  0  0  0  0  0  0  0  0  0
   14.1144  -16.1547   21.1756 O   0  0  0  0  0  0  0  0  0  0  0  0
  2  3  1  6
  2  1  1  0
  4  2  1  0
  5  7  1  0
  5  6  1  1
  5  4  1  0
  7  8  2  0
 10  9  1  6
 10 12  1  0
 11  7  1  0
 11 10  1  0
 12 13  2  0
 12 14  1  0
 14 15  1  0
 15 16  1  0
 16 18  2  0
 16 17  1  0
M  END
$$$$
