LAG.pdb
     RDKit          3D

 18 17  0  0  1  0  0  0  0  0999 V2000
    6.8150  -11.8140   27.5034 C   0  0  0  0  0  0  0  0  0  0  0  0
    6.1637  -13.0136   26.8067 C   0  0  1  0  0  0  0  0  0  0  0  0
    5.3479  -12.4791   25.6745 C   0  0  0  0  0  0  0  0  0  0  0  0
    7.2050  -14.0108   26.4051 C   0  0  0  0  0  0  0  0  0  0  0  0
    6.6151  -15.0735   25.5242 C   0  0  2  0  0  0  0  0  0  0  0  0
    6.1579  -16.1577   26.3606 N   0  0  0  0  0  0  0  0  0  0  0  0
    7.5646  -15.5356   24.4814 C   0  0  0  0  0  0  0  0  0  0  0  0
    8.5442  -16.2770   24.7781 O   0  0  0  0  0  0  0  0  0  0  0  0
    8.0444  -15.0268   20.7423 C   0  0  0  0  0  0  0  0  0  0  0  0
    8.3859  -15.5456   22.1005 C   0  0  2  0  0  0  0  0  0  0  0  0
    7.4342  -15.1804   23.1119 N   0  0  0  0  0  0  0  0  0  0  0  0
    9.7690  -15.1497   22.4439 C   0  0  0  0  0  0  0  0  0  0  0  0
    9.9944  -13.9819   22.8532 O   0  0  0  0  0  0  0  0  0  0  0  0
   10.8454  -16.0672   22.3187 N   0  0  0  0  0  0  0  0  0  0  0  0
   12.2038  -15.7581   22.6500 C   0  0  0  0  0  0  0  0  0  0  0  0
   13.1297  -16.8952   22.3399 C   0  0  0  0  0  0  0  0  0  0  0  0
   12.5420  -18.1260   22.0766 O   0  0  0  0  0  0  0  0  0  0  0  0
   14.3607  -16.7616   22.3154 O   0  0  0  0  0  0  0  0  0  0  0  0
  2  3  1  6
  2  1  1  0
  4  2  1  0
  5  7  1  0
  5  6  1  1
  5  4  1  0
  7  8  2  0
 10  9  1  6
 10 12  1  0
 11  7  1  0
 11 10  1  0
 12 13  2  0
 12 14  1  0
 14 15  1  0
 15 16  1  0
 16 18  2  0
 16 17  1  0
M  END
$$$$
