LAG.pdb
     RDKit          3D

 18 17  0  0  1  0  0  0  0  0999 V2000
    7.8306  -21.6955   27.8997 C   0  0  0  0  0  0  0  0  0  0  0  0
    6.9630  -20.9467   26.8823 C   0  0  1  0  0  0  0  0  0  0  0  0
    6.0360  -20.0649   27.6544 C   0  0  0  0  0  0  0  0  0  0  0  0
    7.8250  -20.2264   25.8931 C   0  0  0  0  0  0  0  0  0  0  0  0
    6.9873  -19.4347   24.9315 C   0  0  2  0  0  0  0  0  0  0  0  0
    6.4498  -20.3391   23.9429 N   0  0  0  0  0  0  0  0  0  0  0  0
    7.7408  -18.3157   24.3129 C   0  0  0  0  0  0  0  0  0  0  0  0
    8.6189  -18.5339   23.4305 O   0  0  0  0  0  0  0  0  0  0  0  0
    7.7684  -14.5240   24.4799 C   0  0  0  0  0  0  0  0  0  0  0  0
    8.3440  -15.8731   24.1986 C   0  0  2  0  0  0  0  0  0  0  0  0
    7.5263  -16.9566   24.6670 N   0  0  0  0  0  0  0  0  0  0  0  0
    9.7285  -15.9338   24.7156 C   0  0  0  0  0  0  0  0  0  0  0  0
    9.9219  -16.0760   25.9502 O   0  0  0  0  0  0  0  0  0  0  0  0
   10.8417  -15.8338   23.8398 N   0  0  0  0  0  0  0  0  0  0  0  0
   12.2061  -15.9240   24.2654 C   0  0  0  0  0  0  0  0  0  0  0  0
   13.1387  -16.1542   23.1149 C   0  0  0  0  0  0  0  0  0  0  0  0
   14.4614  -15.7706   23.2959 O   0  0  0  0  0  0  0  0  0  0  0  0
   12.7651  -16.6603   22.0481 O   0  0  0  0  0  0  0  0  0  0  0  0
  2  3  1  1
  2  1  1  0
  4  2  1  0
  5  7  1  0
  5  6  1  6
  5  4  1  0
  7  8  2  0
 10  9  1  1
 10 12  1  0
 11  7  1  0
 11 10  1  0
 12 13  2  0
 12 14  1  0
 14 15  1  0
 15 16  1  0
 16 18  2  0
 16 17  1  0
M  END
$$$$
