LAG.pdb
     RDKit          3D

 18 17  0  0  1  0  0  0  0  0999 V2000
    6.0464  -11.9586   27.1723 C   0  0  0  0  0  0  0  0  0  0  0  0
    6.5190  -12.7139   25.9254 C   0  0  1  0  0  0  0  0  0  0  0  0
    7.1952  -11.7216   25.0360 C   0  0  0  0  0  0  0  0  0  0  0  0
    7.3718  -13.8804   26.3154 C   0  0  0  0  0  0  0  0  0  0  0  0
    7.8314  -14.6354   25.1020 C   0  0  2  0  0  0  0  0  0  0  0  0
    6.6685  -15.1378   24.4096 N   0  0  0  0  0  0  0  0  0  0  0  0
    8.7910  -15.7164   25.4379 C   0  0  0  0  0  0  0  0  0  0  0  0
    9.1157  -15.9465   26.6375 O   0  0  0  0  0  0  0  0  0  0  0  0
   10.2993  -18.7360   23.8337 C   0  0  0  0  0  0  0  0  0  0  0  0
   10.3657  -17.5570   24.7482 C   0  0  2  0  0  0  0  0  0  0  0  0
    9.3925  -16.5435   24.4517 N   0  0  0  0  0  0  0  0  0  0  0  0
   11.7489  -17.0341   24.7757 C   0  0  0  0  0  0  0  0  0  0  0  0
   12.6460  -17.6890   25.3659 O   0  0  0  0  0  0  0  0  0  0  0  0
   12.0794  -15.8050   24.1462 N   0  0  0  0  0  0  0  0  0  0  0  0
   13.4044  -15.2647   24.0902 C   0  0  0  0  0  0  0  0  0  0  0  0
   14.2493  -15.9558   23.0631 C   0  0  0  0  0  0  0  0  0  0  0  0
   15.4531  -15.3472   22.7317 O   0  0  0  0  0  0  0  0  0  0  0  0
   13.9062  -17.0178   22.5264 O   0  0  0  0  0  0  0  0  0  0  0  0
  2  3  1  6
  2  1  1  0
  4  2  1  0
  5  7  1  0
  5  6  1  1
  5  4  1  0
  7  8  2  0
 10  9  1  6
 10 12  1  0
 11  7  1  0
 11 10  1  0
 12 13  2  0
 12 14  1  0
 14 15  1  0
 15 16  1  0
 16 18  2  0
 16 17  1  0
M  END
$$$$
