LAG.pdb
     RDKit          3D

 18 17  0  0  1  0  0  0  0  0999 V2000
    7.0777  -12.8173   19.1836 C   0  0  0  0  0  0  0  0  0  0  0  0
    7.4421  -13.8710   20.2351 C   0  0  1  0  0  0  0  0  0  0  0  0
    8.3361  -14.8681   19.5718 C   0  0  0  0  0  0  0  0  0  0  0  0
    8.0318  -13.2168   21.4452 C   0  0  0  0  0  0  0  0  0  0  0  0
    8.0812  -14.1750   22.5997 C   0  0  2  0  0  0  0  0  0  0  0  0
    6.8805  -14.9762   22.5794 N   0  0  0  0  0  0  0  0  0  0  0  0
    8.2696  -13.4851   23.9000 C   0  0  0  0  0  0  0  0  0  0  0  0
    9.3080  -12.8016   24.1278 O   0  0  0  0  0  0  0  0  0  0  0  0
    6.2018  -12.5447   26.8901 C   0  0  0  0  0  0  0  0  0  0  0  0
    7.4874  -12.9121   26.2245 C   0  0  2  0  0  0  0  0  0  0  0  0
    7.3135  -13.5486   24.9491 N   0  0  0  0  0  0  0  0  0  0  0  0
    8.3123  -13.7107   27.1569 C   0  0  0  0  0  0  0  0  0  0  0  0
    8.5338  -13.2744   28.3156 O   0  0  0  0  0  0  0  0  0  0  0  0
    8.8576  -14.9615   26.7640 N   0  0  0  0  0  0  0  0  0  0  0  0
    9.5295  -15.8578   27.6561 C   0  0  0  0  0  0  0  0  0  0  0  0
    9.9952  -17.0998   26.9581 C   0  0  0  0  0  0  0  0  0  0  0  0
   11.3006  -17.0979   26.4833 O   0  0  0  0  0  0  0  0  0  0  0  0
    9.2652  -18.0882   26.8037 O   0  0  0  0  0  0  0  0  0  0  0  0
  2  3  1  6
  2  1  1  0
  4  2  1  0
  5  7  1  0
  5  6  1  1
  5  4  1  0
  7  8  2  0
 10  9  1  1
 10 12  1  0
 11  7  1  0
 11 10  1  0
 12 13  2  0
 12 14  1  0
 14 15  1  0
 15 16  1  0
 16 18  2  0
 16 17  1  0
M  END
$$$$
