LAG.pdb
     RDKit          3D

 18 17  0  0  1  0  0  0  0  0999 V2000
    7.7289  -11.9095   27.3189 C   0  0  0  0  0  0  0  0  0  0  0  0
    6.8925  -13.1310   26.9227 C   0  0  1  0  0  0  0  0  0  0  0  0
    5.7575  -12.6380   26.0848 C   0  0  0  0  0  0  0  0  0  0  0  0
    7.7542  -14.1586   26.2580 C   0  0  0  0  0  0  0  0  0  0  0  0
    6.9146  -15.2114   25.5946 C   0  0  2  0  0  0  0  0  0  0  0  0
    6.7193  -16.2948   26.5285 N   0  0  0  0  0  0  0  0  0  0  0  0
    7.5002  -15.6779   24.3133 C   0  0  0  0  0  0  0  0  0  0  0  0
    8.1502  -16.7601   24.2526 O   0  0  0  0  0  0  0  0  0  0  0  0
    7.3758  -14.6167   20.6705 C   0  0  0  0  0  0  0  0  0  0  0  0
    7.8530  -15.4245   21.8324 C   0  0  2  0  0  0  0  0  0  0  0  0
    7.3694  -14.9517   23.0992 N   0  0  0  0  0  0  0  0  0  0  0  0
    9.3274  -15.5307   21.7842 C   0  0  0  0  0  0  0  0  0  0  0  0
    9.8811  -15.9869   20.7511 O   0  0  0  0  0  0  0  0  0  0  0  0
   10.1268  -15.1257   22.8856 N   0  0  0  0  0  0  0  0  0  0  0  0
   11.5585  -15.1021   22.8703 C   0  0  0  0  0  0  0  0  0  0  0  0
   12.1461  -16.4076   23.3138 C   0  0  0  0  0  0  0  0  0  0  0  0
   13.5215  -16.4413   23.5051 O   0  0  0  0  0  0  0  0  0  0  0  0
   11.4539  -17.4165   23.5051 O   0  0  0  0  0  0  0  0  0  0  0  0
  2  3  1  6
  2  1  1  0
  4  2  1  0
  5  7  1  0
  5  6  1  1
  5  4  1  0
  7  8  2  0
 10  9  1  6
 10 12  1  0
 11  7  1  0
 11 10  1  0
 12 13  2  0
 12 14  1  0
 14 15  1  0
 15 16  1  0
 16 18  2  0
 16 17  1  0
M  END
$$$$
