LAG.pdb
     RDKit          3D

 18 17  0  0  1  0  0  0  0  0999 V2000
    5.8190  -12.7385   26.1781 C   0  0  0  0  0  0  0  0  0  0  0  0
    7.2334  -13.3275   26.2114 C   0  0  1  0  0  0  0  0  0  0  0  0
    8.0800  -12.4017   27.0234 C   0  0  0  0  0  0  0  0  0  0  0  0
    7.1985  -14.7374   26.7128 C   0  0  0  0  0  0  0  0  0  0  0  0
    6.5542  -15.6462   25.7067 C   0  0  2  0  0  0  0  0  0  0  0  0
    6.2475  -16.8995   26.3544 N   0  0  0  0  0  0  0  0  0  0  0  0
    7.3914  -15.8341   24.4959 C   0  0  0  0  0  0  0  0  0  0  0  0
    8.3644  -16.6405   24.4982 O   0  0  0  0  0  0  0  0  0  0  0  0
    7.2625  -14.6708   20.8773 C   0  0  0  0  0  0  0  0  0  0  0  0
    7.7300  -15.5092   22.0214 C   0  0  2  0  0  0  0  0  0  0  0  0
    7.1560  -15.1331   23.2827 N   0  0  0  0  0  0  0  0  0  0  0  0
    9.2088  -15.5259   22.0459 C   0  0  0  0  0  0  0  0  0  0  0  0
    9.8412  -15.8271   21.0013 O   0  0  0  0  0  0  0  0  0  0  0  0
    9.9248  -15.2071   23.2300 N   0  0  0  0  0  0  0  0  0  0  0  0
   11.3407  -14.9987   23.2780 C   0  0  0  0  0  0  0  0  0  0  0  0
   12.0975  -16.2921   23.3106 C   0  0  0  0  0  0  0  0  0  0  0  0
   13.4803  -16.2050   23.4093 O   0  0  0  0  0  0  0  0  0  0  0  0
   11.5334  -17.3931   23.2534 O   0  0  0  0  0  0  0  0  0  0  0  0
  2  3  1  1
  2  1  1  0
  4  2  1  0
  5  7  1  0
  5  6  1  1
  5  4  1  0
  7  8  2  0
 10  9  1  6
 10 12  1  0
 11  7  1  0
 11 10  1  0
 12 13  2  0
 12 14  1  0
 14 15  1  0
 15 16  1  0
 16 18  2  0
 16 17  1  0
M  END
$$$$
