LAG.pdb
     RDKit          3D

 18 17  0  0  1  0  0  0  0  0999 V2000
    7.3412  -12.1571   27.5550 C   0  0  0  0  0  0  0  0  0  0  0  0
    6.6712  -13.4352   27.0389 C   0  0  1  0  0  0  0  0  0  0  0  0
    5.4849  -13.0185   26.2314 C   0  0  0  0  0  0  0  0  0  0  0  0
    7.6609  -14.2791   26.2982 C   0  0  0  0  0  0  0  0  0  0  0  0
    6.9796  -15.4361   25.6271 C   0  0  2  0  0  0  0  0  0  0  0  0
    7.0336  -16.5743   26.5136 N   0  0  0  0  0  0  0  0  0  0  0  0
    7.5590  -15.7387   24.2948 C   0  0  0  0  0  0  0  0  0  0  0  0
    8.3022  -16.7465   24.1238 O   0  0  0  0  0  0  0  0  0  0  0  0
    7.1843  -14.3908   20.7633 C   0  0  0  0  0  0  0  0  0  0  0  0
    7.7391  -15.2838   21.8241 C   0  0  2  0  0  0  0  0  0  0  0  0
    7.3192  -14.9305   23.1511 N   0  0  0  0  0  0  0  0  0  0  0  0
    9.2101  -15.3539   21.6870 C   0  0  0  0  0  0  0  0  0  0  0  0
    9.7134  -15.6746   20.5799 O   0  0  0  0  0  0  0  0  0  0  0  0
   10.0621  -15.0649   22.7855 N   0  0  0  0  0  0  0  0  0  0  0  0
   11.4920  -15.1120   22.7240 C   0  0  0  0  0  0  0  0  0  0  0  0
   12.0171  -16.5004   22.9315 C   0  0  0  0  0  0  0  0  0  0  0  0
   13.3970  -16.6424   23.0052 O   0  0  0  0  0  0  0  0  0  0  0  0
   11.2716  -17.4840   23.0342 O   0  0  0  0  0  0  0  0  0  0  0  0
  2  3  1  6
  2  1  1  0
  4  2  1  0
  5  7  1  0
  5  6  1  1
  5  4  1  0
  7  8  2  0
 10  9  1  6
 10 12  1  0
 11  7  1  0
 11 10  1  0
 12 13  2  0
 12 14  1  0
 14 15  1  0
 15 16  1  0
 16 18  2  0
 16 17  1  0
M  END
$$$$
