TNP.pdb
     RDKit          3D

 23 23  0  0  1  0  0  0  0  0999 V2000
   27.6752  -22.7498  -16.5824 C   0  0  0  0  0  0  0  0  0  0  0  0
   27.2189  -24.1731  -16.6968 C   0  0  1  0  0  0  0  0  0  0  0  0
   28.2671  -25.0629  -16.9419 O   0  0  0  0  0  0  0  0  0  0  0  0
   26.3576  -24.6312  -15.5599 C   0  0  2  0  0  0  0  0  0  0  0  0
   25.8927  -25.9609  -15.7849 N   0  0  0  0  0  0  0  0  0  0  0  0
   25.2796  -23.6793  -15.2093 C   0  0  0  0  0  0  0  0  0  0  0  0
   24.1432  -23.8473  -15.7208 O   0  0  0  0  0  0  0  0  0  0  0  0
   25.8448  -22.0840  -10.9741 N   0  0  0  0  0  0  0  0  0  0  0  0
   24.7486  -21.4411  -11.5878 C   0  0  0  0  0  0  0  0  0  0  0  0
   23.6424  -21.4667  -10.9969 O   0  0  0  0  0  0  0  0  0  0  0  0
   24.9495  -20.7777  -12.8769 C   0  0  0  0  0  0  0  0  0  0  0  0
   24.4618  -21.5616  -14.0718 C   0  0  2  0  0  0  0  0  0  0  0  0
   25.4722  -22.5872  -14.3230 N   0  0  0  0  0  0  0  0  0  0  0  0
   24.3799  -20.6145  -15.2162 C   0  0  0  0  0  0  0  0  0  0  0  0
   25.4838  -20.1968  -15.6816 O   0  0  0  0  0  0  0  0  0  0  0  0
   23.1997  -20.1668  -15.7984 N   0  0  0  0  0  0  0  0  0  0  0  0
   21.8526  -20.4335  -15.3399 C   0  0  0  0  0  0  0  0  0  0  0  0
   21.0200  -20.5465  -16.6174 C   0  0  0  0  0  0  0  0  0  0  0  0
   21.7791  -19.7575  -17.6465 C   0  0  0  0  0  0  0  0  0  0  0  0
   23.0728  -19.3515  -16.9808 C   0  0  1  0  0  0  0  0  0  0  0  0
   23.0963  -17.9160  -16.6316 C   0  0  0  0  0  0  0  0  0  0  0  0
   23.1701  -17.0766  -17.5573 O   0  0  0  0  0  0  0  0  0  0  0  0
   23.0359  -17.5558  -15.2994 O   0  0  0  0  0  0  0  0  0  0  0  0
  2  1  1  1
  2  3  1  0
  4  6  1  0
  4  2  1  0
  4  5  1  6
  6 13  1  0
  7  6  2  0
  8  9  1  0
  9 11  1  0
 10  9  2  0
 12 11  1  1
 12 13  1  0
 12 14  1  0
 14 16  1  0
 15 14  2  0
 16 20  1  0
 16 17  1  0
 17 18  1  0
 19 18  1  0
 20 21  1  1
 20 19  1  0
 21 23  1  0
 22 21  2  0
M  END
$$$$
