TNP.pdb
     RDKit          3D

 23 23  0  0  1  0  0  0  0  0999 V2000
   15.6381   -5.2302   -9.2417 C   0  0  0  0  0  0  0  0  0  0  0  0
   15.1064   -6.4245   -8.5081 C   0  0  1  0  0  0  0  0  0  0  0  0
   13.9540   -6.1422   -7.7713 O   0  0  0  0  0  0  0  0  0  0  0  0
   14.9314   -7.6398   -9.3664 C   0  0  2  0  0  0  0  0  0  0  0  0
   14.4910   -8.7487   -8.5845 N   0  0  0  0  0  0  0  0  0  0  0  0
   16.1063   -7.9434  -10.2140 C   0  0  0  0  0  0  0  0  0  0  0  0
   17.1026   -8.4949   -9.6806 O   0  0  0  0  0  0  0  0  0  0  0  0
   16.7039  -10.6455  -12.8158 N   0  0  0  0  0  0  0  0  0  0  0  0
   16.4399   -9.7994  -13.9139 C   0  0  0  0  0  0  0  0  0  0  0  0
   15.9710  -10.3145  -14.9571 O   0  0  0  0  0  0  0  0  0  0  0  0
   16.7226   -8.3689  -13.7880 C   0  0  0  0  0  0  0  0  0  0  0  0
   17.2997   -7.9554  -12.4553 C   0  0  2  0  0  0  0  0  0  0  0  0
   16.1575   -7.6399  -11.5998 N   0  0  0  0  0  0  0  0  0  0  0  0
   18.1289   -6.7430  -12.6914 C   0  0  0  0  0  0  0  0  0  0  0  0
   17.5297   -5.6273  -12.6151 O   0  0  0  0  0  0  0  0  0  0  0  0
   19.4881   -6.7504  -12.9830 N   0  0  0  0  0  0  0  0  0  0  0  0
   20.3377   -7.9145  -13.1208 C   0  0  0  0  0  0  0  0  0  0  0  0
   21.6928   -7.4777  -12.5630 C   0  0  0  0  0  0  0  0  0  0  0  0
   21.7103   -5.9826  -12.7126 C   0  0  0  0  0  0  0  0  0  0  0  0
   20.3326   -5.6024  -13.2015 C   0  0  1  0  0  0  0  0  0  0  0  0
   20.3317   -5.2158  -14.6276 C   0  0  0  0  0  0  0  0  0  0  0  0
   19.8714   -6.0237  -15.4657 O   0  0  0  0  0  0  0  0  0  0  0  0
   20.8377   -3.9800  -14.9808 O   0  0  0  0  0  0  0  0  0  0  0  0
  2  1  1  6
  2  3  1  0
  4  6  1  0
  4  2  1  0
  4  5  1  1
  6 13  1  0
  7  6  2  0
  8  9  1  0
  9 11  1  0
 10  9  2  0
 12 11  1  6
 12 13  1  0
 12 14  1  0
 14 16  1  0
 15 14  2  0
 16 20  1  0
 16 17  1  0
 17 18  1  0
 19 18  1  0
 20 21  1  6
 20 19  1  0
 21 23  1  0
 22 21  2  0
M  END
$$$$
