TNP.pdb
     RDKit          3D

 23 23  0  0  1  0  0  0  0  0999 V2000
   22.2527   -7.1412  -20.3704 C   0  0  0  0  0  0  0  0  0  0  0  0
   22.9959   -5.8509  -20.1970 C   0  0  1  0  0  0  0  0  0  0  0  0
   22.8180   -4.9721  -21.2679 O   0  0  0  0  0  0  0  0  0  0  0  0
   22.7513   -5.1777  -18.8813 C   0  0  2  0  0  0  0  0  0  0  0  0
   23.5411   -3.9954  -18.7666 N   0  0  0  0  0  0  0  0  0  0  0  0
   22.8720   -6.0847  -17.7177 C   0  0  0  0  0  0  0  0  0  0  0  0
   24.0086   -6.5373  -17.4271 O   0  0  0  0  0  0  0  0  0  0  0  0
   21.5947   -9.0561  -13.5899 N   0  0  0  0  0  0  0  0  0  0  0  0
   20.6113   -8.0578  -13.7564 C   0  0  0  0  0  0  0  0  0  0  0  0
   19.7091   -7.9669  -12.8896 O   0  0  0  0  0  0  0  0  0  0  0  0
   20.6869   -7.1791  -14.9245 C   0  0  0  0  0  0  0  0  0  0  0  0
   21.8365   -7.4705  -15.8591 C   0  0  2  0  0  0  0  0  0  0  0  0
   21.7631   -6.4651  -16.9171 N   0  0  0  0  0  0  0  0  0  0  0  0
   21.6180   -8.8333  -16.4144 C   0  0  0  0  0  0  0  0  0  0  0  0
   20.8079   -8.9220  -17.3868 O   0  0  0  0  0  0  0  0  0  0  0  0
   22.2299   -9.9918  -15.9497 N   0  0  0  0  0  0  0  0  0  0  0  0
   23.1208  -10.1046  -14.8142 C   0  0  0  0  0  0  0  0  0  0  0  0
   24.1328  -11.1781  -15.2164 C   0  0  0  0  0  0  0  0  0  0  0  0
   23.4241  -12.0137  -16.2448 C   0  0  0  0  0  0  0  0  0  0  0  0
   22.1095  -11.3168  -16.5053 C   0  0  1  0  0  0  0  0  0  0  0  0
   20.9666  -12.0346  -15.9038 C   0  0  0  0  0  0  0  0  0  0  0  0
   20.3419  -11.4863  -14.9679 O   0  0  0  0  0  0  0  0  0  0  0  0
   20.6319  -13.2809  -16.3964 O   0  0  0  0  0  0  0  0  0  0  0  0
  2  1  1  6
  2  3  1  0
  4  6  1  0
  4  2  1  0
  4  5  1  1
  6 13  1  0
  7  6  2  0
  8  9  1  0
  9 11  1  0
 10  9  2  0
 12 11  1  1
 12 13  1  0
 12 14  1  0
 14 16  1  0
 15 14  2  0
 16 20  1  0
 16 17  1  0
 17 18  1  0
 19 18  1  0
 20 21  1  1
 20 19  1  0
 21 23  1  0
 22 21  2  0
M  END
$$$$
