TNP.pdb
     RDKit          3D

 23 23  0  0  1  0  0  0  0  0999 V2000
   20.2203  -11.4678  -16.4232 C   0  0  0  0  0  0  0  0  0  0  0  0
   18.8260  -11.8206  -16.8457 C   0  0  1  0  0  0  0  0  0  0  0  0
   18.7282  -13.1072  -17.3802 O   0  0  0  0  0  0  0  0  0  0  0  0
   17.7891  -11.5780  -15.7920 C   0  0  2  0  0  0  0  0  0  0  0  0
   16.5161  -12.0599  -16.2185 N   0  0  0  0  0  0  0  0  0  0  0  0
   17.7581  -10.1829  -15.2982 C   0  0  0  0  0  0  0  0  0  0  0  0
   17.4876   -9.2652  -16.1141 O   0  0  0  0  0  0  0  0  0  0  0  0
   18.4407   -6.1143  -11.9962 N   0  0  0  0  0  0  0  0  0  0  0  0
   17.9409   -7.2298  -11.2909 C   0  0  0  0  0  0  0  0  0  0  0  0
   17.5903   -7.0656  -10.0978 O   0  0  0  0  0  0  0  0  0  0  0  0
   17.8545   -8.5195  -11.9776 C   0  0  0  0  0  0  0  0  0  0  0  0
   18.1013   -8.4587  -13.4661 C   0  0  2  0  0  0  0  0  0  0  0  0
   18.0199   -9.8364  -13.9466 N   0  0  0  0  0  0  0  0  0  0  0  0
   19.4718   -7.9144  -13.6634 C   0  0  0  0  0  0  0  0  0  0  0  0
   20.4311   -8.6530  -13.2839 O   0  0  0  0  0  0  0  0  0  0  0  0
   19.7657   -6.6772  -14.2251 N   0  0  0  0  0  0  0  0  0  0  0  0
   18.8173   -5.7163  -14.7474 C   0  0  0  0  0  0  0  0  0  0  0  0
   19.5296   -5.0707  -15.9365 C   0  0  0  0  0  0  0  0  0  0  0  0
   20.9948   -5.2439  -15.6519 C   0  0  0  0  0  0  0  0  0  0  0  0
   21.0736   -6.0991  -14.4093 C   0  0  1  0  0  0  0  0  0  0  0  0
   21.4744   -5.3211  -13.2188 C   0  0  0  0  0  0  0  0  0  0  0  0
   20.6022   -5.0427  -12.3651 O   0  0  0  0  0  0  0  0  0  0  0  0
   22.7936   -4.9315  -13.0936 O   0  0  0  0  0  0  0  0  0  0  0  0
  2  1  1  1
  2  3  1  0
  4  6  1  0
  4  2  1  0
  4  5  1  6
  6 13  1  0
  7  6  2  0
  8  9  1  0
  9 11  1  0
 10  9  2  0
 12 11  1  1
 12 13  1  0
 12 14  1  0
 14 16  1  0
 15 14  2  0
 16 20  1  0
 16 17  1  0
 17 18  1  0
 19 18  1  0
 20 21  1  1
 20 19  1  0
 21 23  1  0
 22 21  2  0
M  END
$$$$
