TNP.pdb
     RDKit          3D

 23 23  0  0  1  0  0  0  0  0999 V2000
   30.5907   -7.9049  -18.5014 C   0  0  0  0  0  0  0  0  0  0  0  0
   29.0997   -7.7967  -18.6134 C   0  0  1  0  0  0  0  0  0  0  0  0
   28.6863   -7.1694  -19.7908 O   0  0  0  0  0  0  0  0  0  0  0  0
   28.3755   -9.0889  -18.3903 C   0  0  2  0  0  0  0  0  0  0  0  0
   28.8453  -10.0909  -19.2904 N   0  0  0  0  0  0  0  0  0  0  0  0
   26.9018   -8.9501  -18.3770 C   0  0  0  0  0  0  0  0  0  0  0  0
   26.2252   -9.6772  -19.1481 O   0  0  0  0  0  0  0  0  0  0  0  0
   22.0721   -8.5094  -16.9097 N   0  0  0  0  0  0  0  0  0  0  0  0
   22.9632   -9.5452  -16.5568 C   0  0  0  0  0  0  0  0  0  0  0  0
   22.4805  -10.6115  -16.1056 O   0  0  0  0  0  0  0  0  0  0  0  0
   24.4005   -9.3312  -16.7317 C   0  0  0  0  0  0  0  0  0  0  0  0
   24.7684   -8.0125  -17.3684 C   0  0  2  0  0  0  0  0  0  0  0  0
   26.2204   -8.0337  -17.5337 N   0  0  0  0  0  0  0  0  0  0  0  0
   24.3639   -6.9383  -16.4219 C   0  0  0  0  0  0  0  0  0  0  0  0
   24.9893   -6.8948  -15.3189 O   0  0  0  0  0  0  0  0  0  0  0  0
   23.3682   -5.9981  -16.6606 N   0  0  0  0  0  0  0  0  0  0  0  0
   22.4485   -5.9756  -17.7784 C   0  0  0  0  0  0  0  0  0  0  0  0
   22.2396   -4.4918  -18.0830 C   0  0  0  0  0  0  0  0  0  0  0  0
   22.5416   -3.7843  -16.7922 C   0  0  0  0  0  0  0  0  0  0  0  0
   23.0504   -4.8492  -15.8494 C   0  0  1  0  0  0  0  0  0  0  0  0
   22.0578   -5.1993  -14.8123 C   0  0  0  0  0  0  0  0  0  0  0  0
   21.4705   -6.3017  -14.8947 O   0  0  0  0  0  0  0  0  0  0  0  0
   21.8164   -4.2984  -13.7935 O   0  0  0  0  0  0  0  0  0  0  0  0
  2  1  1  6
  2  3  1  0
  4  6  1  0
  4  2  1  0
  4  5  1  6
  6 13  1  0
  7  6  2  0
  8  9  1  0
  9 11  1  0
 10  9  2  0
 12 11  1  1
 12 13  1  0
 12 14  1  0
 14 16  1  0
 15 14  2  0
 16 20  1  0
 16 17  1  0
 17 18  1  0
 19 18  1  0
 20 21  1  1
 20 19  1  0
 21 23  1  0
 22 21  2  0
M  END
$$$$
