TNP.pdb
     RDKit          3D

 23 23  0  0  1  0  0  0  0  0999 V2000
   27.0821  -10.9616  -16.1187 C   0  0  0  0  0  0  0  0  0  0  0  0
   26.5980  -12.3774  -16.2104 C   0  0  1  0  0  0  0  0  0  0  0  0
   27.5933  -13.3131  -15.9197 O   0  0  0  0  0  0  0  0  0  0  0  0
   25.3433  -12.6447  -15.4368 C   0  0  2  0  0  0  0  0  0  0  0  0
   25.0535  -14.0413  -15.4151 N   0  0  0  0  0  0  0  0  0  0  0  0
   24.1959  -11.8093  -15.8574 C   0  0  0  0  0  0  0  0  0  0  0  0
   23.3500  -12.3065  -16.6437 O   0  0  0  0  0  0  0  0  0  0  0  0
   19.7104   -9.9491  -16.5644 N   0  0  0  0  0  0  0  0  0  0  0  0
   20.3560   -9.7664  -15.3229 C   0  0  0  0  0  0  0  0  0  0  0  0
   19.7828   -9.0628  -14.4569 O   0  0  0  0  0  0  0  0  0  0  0  0
   21.6562  -10.4012  -15.1021 C   0  0  0  0  0  0  0  0  0  0  0  0
   22.8254   -9.6759  -15.7243 C   0  0  2  0  0  0  0  0  0  0  0  0
   24.0093  -10.4741  -15.4128 N   0  0  0  0  0  0  0  0  0  0  0  0
   22.9091   -8.3388  -15.0774 C   0  0  0  0  0  0  0  0  0  0  0  0
   23.3967   -8.3093  -13.9064 O   0  0  0  0  0  0  0  0  0  0  0  0
   22.4984   -7.1445  -15.6581 N   0  0  0  0  0  0  0  0  0  0  0  0
   21.7637   -6.9912  -16.8960 C   0  0  0  0  0  0  0  0  0  0  0  0
   22.3061   -5.7029  -17.5157 C   0  0  0  0  0  0  0  0  0  0  0  0
   22.8388   -4.9089  -16.3565 C   0  0  0  0  0  0  0  0  0  0  0  0
   22.7246   -5.8134  -15.1521 C   0  0  1  0  0  0  0  0  0  0  0  0
   21.6306   -5.4047  -14.2468 C   0  0  0  0  0  0  0  0  0  0  0  0
   20.5642   -6.0600  -14.2639 O   0  0  0  0  0  0  0  0  0  0  0  0
   21.8262   -4.3172  -13.4179 O   0  0  0  0  0  0  0  0  0  0  0  0
  2  1  1  1
  2  3  1  0
  4  6  1  0
  4  2  1  0
  4  5  1  6
  6 13  1  0
  7  6  2  0
  8  9  1  0
  9 11  1  0
 10  9  2  0
 12 11  1  1
 12 13  1  0
 12 14  1  0
 14 16  1  0
 15 14  2  0
 16 20  1  0
 16 17  1  0
 17 18  1  0
 19 18  1  0
 20 21  1  1
 20 19  1  0
 21 23  1  0
 22 21  2  0
M  END
$$$$
