TNP.pdb
     RDKit          3D

 23 23  0  0  1  0  0  0  0  0999 V2000
   24.3714  -12.2891  -15.2512 C   0  0  0  0  0  0  0  0  0  0  0  0
   23.5013  -11.0854  -15.4543 C   0  0  1  0  0  0  0  0  0  0  0  0
   23.8339  -10.3603  -16.6007 O   0  0  0  0  0  0  0  0  0  0  0  0
   22.0330  -11.3757  -15.3889 C   0  0  2  0  0  0  0  0  0  0  0  0
   21.6520  -12.2784  -16.4255 N   0  0  0  0  0  0  0  0  0  0  0  0
   21.1892  -10.1613  -15.3226 C   0  0  0  0  0  0  0  0  0  0  0  0
   20.5714   -9.8046  -16.3581 O   0  0  0  0  0  0  0  0  0  0  0  0
   18.0050   -9.5849  -13.1957 N   0  0  0  0  0  0  0  0  0  0  0  0
   18.6220   -8.7470  -12.2424 C   0  0  0  0  0  0  0  0  0  0  0  0
   18.0976   -8.6586  -11.1062 O   0  0  0  0  0  0  0  0  0  0  0  0
   19.8374   -8.0234  -12.6186 C   0  0  0  0  0  0  0  0  0  0  0  0
   20.2353   -8.1706  -14.0678 C   0  0  2  0  0  0  0  0  0  0  0  0
   21.0472   -9.3834  -14.1436 N   0  0  0  0  0  0  0  0  0  0  0  0
   21.0443   -6.9745  -14.4260 C   0  0  0  0  0  0  0  0  0  0  0  0
   22.2797   -7.0245  -14.1414 O   0  0  0  0  0  0  0  0  0  0  0  0
   20.5480   -5.8302  -15.0397 N   0  0  0  0  0  0  0  0  0  0  0  0
   19.1601   -5.5336  -15.3254 C   0  0  0  0  0  0  0  0  0  0  0  0
   19.1885   -4.7658  -16.6474 C   0  0  0  0  0  0  0  0  0  0  0  0
   20.5605   -4.1567  -16.7131 C   0  0  0  0  0  0  0  0  0  0  0  0
   21.3118   -4.7073  -15.5239 C   0  0  1  0  0  0  0  0  0  0  0  0
   21.4915   -3.6985  -14.4593 C   0  0  0  0  0  0  0  0  0  0  0  0
   20.8070   -3.8016  -13.4164 O   0  0  0  0  0  0  0  0  0  0  0  0
   22.4063   -2.6823  -14.6553 O   0  0  0  0  0  0  0  0  0  0  0  0
  2  1  1  6
  2  3  1  0
  4  6  1  0
  4  2  1  0
  4  5  1  6
  6 13  1  0
  7  6  2  0
  8  9  1  0
  9 11  1  0
 10  9  2  0
 12 11  1  1
 12 13  1  0
 12 14  1  0
 14 16  1  0
 15 14  2  0
 16 20  1  0
 16 17  1  0
 17 18  1  0
 19 18  1  0
 20 21  1  1
 20 19  1  0
 21 23  1  0
 22 21  2  0
M  END
$$$$
