TNP.pdb
     RDKit          3D

 23 23  0  0  1  0  0  0  0  0999 V2000
   21.2897  -18.3272  -15.8281 C   0  0  0  0  0  0  0  0  0  0  0  0
   19.9435  -18.5262  -15.1994 C   0  0  1  0  0  0  0  0  0  0  0  0
   18.9218  -17.8572  -15.8771 O   0  0  0  0  0  0  0  0  0  0  0  0
   19.5940  -19.9609  -14.9469 C   0  0  2  0  0  0  0  0  0  0  0  0
   18.3199  -20.0644  -14.3137 N   0  0  0  0  0  0  0  0  0  0  0  0
   20.6607  -20.7202  -14.2566 C   0  0  0  0  0  0  0  0  0  0  0  0
   20.8331  -20.5261  -13.0262 O   0  0  0  0  0  0  0  0  0  0  0  0
   25.2015  -24.4639  -15.6242 N   0  0  0  0  0  0  0  0  0  0  0  0
   24.1634  -24.2419  -14.6943 C   0  0  0  0  0  0  0  0  0  0  0  0
   24.3053  -24.6919  -13.5321 O   0  0  0  0  0  0  0  0  0  0  0  0
   22.9760  -23.5019  -15.1240 C   0  0  0  0  0  0  0  0  0  0  0  0
   22.6732  -22.2677  -14.3084 C   0  0  2  0  0  0  0  0  0  0  0  0
   21.4960  -21.6560  -14.9213 N   0  0  0  0  0  0  0  0  0  0  0  0
   23.8512  -21.3659  -14.4202 C   0  0  0  0  0  0  0  0  0  0  0  0
   23.8321  -20.5303  -15.3747 O   0  0  0  0  0  0  0  0  0  0  0  0
   24.9480  -21.3766  -13.5663 N   0  0  0  0  0  0  0  0  0  0  0  0
   25.1574  -22.2577  -12.4368 C   0  0  0  0  0  0  0  0  0  0  0  0
   25.8887  -21.4008  -11.4028 C   0  0  0  0  0  0  0  0  0  0  0  0
   26.5726  -20.3276  -12.2019 C   0  0  0  0  0  0  0  0  0  0  0  0
   26.0987  -20.5097  -13.6245 C   0  0  1  0  0  0  0  0  0  0  0  0
   27.1451  -21.0866  -14.4937 C   0  0  0  0  0  0  0  0  0  0  0  0
   28.1531  -20.3927  -14.7570 O   0  0  0  0  0  0  0  0  0  0  0  0
   26.9713  -22.3671  -14.9815 O   0  0  0  0  0  0  0  0  0  0  0  0
  2  1  1  6
  2  3  1  0
  4  6  1  0
  4  2  1  0
  4  5  1  1
  6 13  1  0
  7  6  2  0
  8  9  1  0
  9 11  1  0
 10  9  2  0
 12 11  1  6
 12 13  1  0
 12 14  1  0
 14 16  1  0
 15 14  2  0
 16 20  1  0
 16 17  1  0
 17 18  1  0
 19 18  1  0
 20 21  1  6
 20 19  1  0
 21 23  1  0
 22 21  2  0
M  END
$$$$
