TNP.pdb
     RDKit          3D

 23 23  0  0  1  0  0  0  0  0999 V2000
   26.1719  -13.7420  -15.5226 C   0  0  0  0  0  0  0  0  0  0  0  0
   25.3047  -12.6278  -16.0261 C   0  0  1  0  0  0  0  0  0  0  0  0
   25.8423  -11.9806  -17.1409 O   0  0  0  0  0  0  0  0  0  0  0  0
   23.8758  -13.0192  -16.2483 C   0  0  2  0  0  0  0  0  0  0  0  0
   23.7790  -14.0133  -17.2667 N   0  0  0  0  0  0  0  0  0  0  0  0
   22.9695  -11.8677  -16.4580 C   0  0  0  0  0  0  0  0  0  0  0  0
   22.5620  -11.6314  -17.6238 O   0  0  0  0  0  0  0  0  0  0  0  0
   18.6771  -11.0367  -16.1806 N   0  0  0  0  0  0  0  0  0  0  0  0
   19.5836  -11.2582  -15.1220 C   0  0  0  0  0  0  0  0  0  0  0  0
   19.6097  -12.3963  -14.5951 O   0  0  0  0  0  0  0  0  0  0  0  0
   20.4469  -10.1585  -14.6889 C   0  0  0  0  0  0  0  0  0  0  0  0
   21.6296   -9.8935  -15.5895 C   0  0  2  0  0  0  0  0  0  0  0  0
   22.5413  -11.0202  -15.4027 N   0  0  0  0  0  0  0  0  0  0  0  0
   22.2594   -8.6270  -15.1281 C   0  0  0  0  0  0  0  0  0  0  0  0
   23.1696   -8.7376  -14.2512 O   0  0  0  0  0  0  0  0  0  0  0  0
   21.9252   -7.3573  -15.5847 N   0  0  0  0  0  0  0  0  0  0  0  0
   20.9307   -7.0307  -16.5848 C   0  0  0  0  0  0  0  0  0  0  0  0
   21.5076   -5.8275  -17.3315 C   0  0  0  0  0  0  0  0  0  0  0  0
   22.4541   -5.1839  -16.3580 C   0  0  0  0  0  0  0  0  0  0  0  0
   22.5033   -6.1057  -15.1623 C   0  0  1  0  0  0  0  0  0  0  0  0
   21.7719   -5.5567  -14.0017 C   0  0  0  0  0  0  0  0  0  0  0  0
   22.2296   -4.5396  -13.4334 O   0  0  0  0  0  0  0  0  0  0  0  0
   20.6135   -6.1857  -13.5890 O   0  0  0  0  0  0  0  0  0  0  0  0
  2  1  1  6
  2  3  1  0
  4  6  1  0
  4  2  1  0
  4  5  1  6
  6 13  1  0
  7  6  2  0
  8  9  1  0
  9 11  1  0
 10  9  2  0
 12 11  1  1
 12 13  1  0
 12 14  1  0
 14 16  1  0
 15 14  2  0
 16 20  1  0
 16 17  1  0
 17 18  1  0
 19 18  1  0
 20 21  1  1
 20 19  1  0
 21 23  1  0
 22 21  2  0
M  END
$$$$
