TNP.pdb
     RDKit          3D

 23 23  0  0  1  0  0  0  0  0999 V2000
   26.2728  -24.3439  -16.8884 C   0  0  0  0  0  0  0  0  0  0  0  0
   27.5411  -24.1112  -17.6527 C   0  0  1  0  0  0  0  0  0  0  0  0
   27.6156  -24.8646  -18.8264 O   0  0  0  0  0  0  0  0  0  0  0  0
   27.8473  -22.6660  -17.9017 C   0  0  2  0  0  0  0  0  0  0  0  0
   29.1061  -22.5241  -18.5576 N   0  0  0  0  0  0  0  0  0  0  0  0
   27.7072  -21.8129  -16.7002 C   0  0  0  0  0  0  0  0  0  0  0  0
   28.6255  -21.8331  -15.8414 O   0  0  0  0  0  0  0  0  0  0  0  0
   28.0046  -18.0890  -16.1525 N   0  0  0  0  0  0  0  0  0  0  0  0
   26.6128  -17.8578  -16.1833 C   0  0  0  0  0  0  0  0  0  0  0  0
   26.2066  -16.7562  -16.6249 O   0  0  0  0  0  0  0  0  0  0  0  0
   25.7114  -18.9058  -15.7023 C   0  0  0  0  0  0  0  0  0  0  0  0
   26.3992  -20.1768  -15.2649 C   0  0  2  0  0  0  0  0  0  0  0  0
   26.5837  -20.9747  -16.4753 N   0  0  0  0  0  0  0  0  0  0  0  0
   25.4857  -20.8677  -14.3154 C   0  0  0  0  0  0  0  0  0  0  0  0
   24.6260  -21.6476  -14.8277 O   0  0  0  0  0  0  0  0  0  0  0  0
   25.5109  -20.7199  -12.9334 N   0  0  0  0  0  0  0  0  0  0  0  0
   26.4390  -19.9169  -12.1654 C   0  0  0  0  0  0  0  0  0  0  0  0
   26.6593  -20.7033  -10.8726 C   0  0  0  0  0  0  0  0  0  0  0  0
   25.4276  -21.5501  -10.7187 C   0  0  0  0  0  0  0  0  0  0  0  0
   24.6241  -21.3397  -11.9804 C   0  0  1  0  0  0  0  0  0  0  0  0
   23.4317  -20.4978  -11.7507 C   0  0  0  0  0  0  0  0  0  0  0  0
   22.4668  -20.9870  -11.1209 O   0  0  0  0  0  0  0  0  0  0  0  0
   23.4273  -19.2057  -12.2390 O   0  0  0  0  0  0  0  0  0  0  0  0
  2  1  1  6
  2  3  1  0
  4  6  1  0
  4  2  1  0
  4  5  1  1
  6 13  1  0
  7  6  2  0
  8  9  1  0
  9 11  1  0
 10  9  2  0
 12 11  1  6
 12 13  1  0
 12 14  1  0
 14 16  1  0
 15 14  2  0
 16 20  1  0
 16 17  1  0
 17 18  1  0
 19 18  1  0
 20 21  1  1
 20 19  1  0
 21 23  1  0
 22 21  2  0
M  END
$$$$
