TNP.pdb
     RDKit          3D

 23 23  0  0  1  0  0  0  0  0999 V2000
   25.4873  -18.8377   -7.2532 C   0  0  0  0  0  0  0  0  0  0  0  0
   25.9684  -19.4203   -8.5479 C   0  0  1  0  0  0  0  0  0  0  0  0
   27.3479  -19.6378   -8.5678 O   0  0  0  0  0  0  0  0  0  0  0  0
   25.2098  -20.6340   -8.9904 C   0  0  2  0  0  0  0  0  0  0  0  0
   25.2223  -21.6338   -7.9730 N   0  0  0  0  0  0  0  0  0  0  0  0
   25.6188  -21.1387  -10.3205 C   0  0  0  0  0  0  0  0  0  0  0  0
   26.0731  -22.3083  -10.4030 O   0  0  0  0  0  0  0  0  0  0  0  0
   25.4650  -23.8621  -14.4765 N   0  0  0  0  0  0  0  0  0  0  0  0
   24.8341  -22.6023  -14.3965 C   0  0  0  0  0  0  0  0  0  0  0  0
   24.3814  -22.1003  -15.4532 O   0  0  0  0  0  0  0  0  0  0  0  0
   24.7367  -21.9420  -13.0940 C   0  0  0  0  0  0  0  0  0  0  0  0
   25.7879  -20.8878  -12.8416 C   0  0  2  0  0  0  0  0  0  0  0  0
   25.5209  -20.3617  -11.5045 N   0  0  0  0  0  0  0  0  0  0  0  0
   25.6039  -19.8275  -13.8688 C   0  0  0  0  0  0  0  0  0  0  0  0
   24.5108  -19.1850  -13.8255 O   0  0  0  0  0  0  0  0  0  0  0  0
   26.5306  -19.4997  -14.8518 N   0  0  0  0  0  0  0  0  0  0  0  0
   27.7311  -20.2350  -15.1898 C   0  0  0  0  0  0  0  0  0  0  0  0
   28.7505  -19.1627  -15.5761 C   0  0  0  0  0  0  0  0  0  0  0  0
   27.9273  -17.9854  -16.0169 C   0  0  0  0  0  0  0  0  0  0  0  0
   26.4916  -18.3583  -15.7319 C   0  0  1  0  0  0  0  0  0  0  0  0
   25.7398  -18.6734  -16.9644 C   0  0  0  0  0  0  0  0  0  0  0  0
   25.5012  -17.7474  -17.7723 O   0  0  0  0  0  0  0  0  0  0  0  0
   25.3299  -19.9751  -17.1775 O   0  0  0  0  0  0  0  0  0  0  0  0
  2  1  1  1
  2  3  1  0
  4  6  1  0
  4  2  1  0
  4  5  1  1
  6 13  1  0
  7  6  2  0
  8  9  1  0
  9 11  1  0
 10  9  2  0
 12 11  1  6
 12 13  1  0
 12 14  1  0
 14 16  1  0
 15 14  2  0
 16 20  1  0
 16 17  1  0
 17 18  1  0
 19 18  1  0
 20 21  1  6
 20 19  1  0
 21 23  1  0
 22 21  2  0
M  END
$$$$
