TNP.pdb
     RDKit          3D

 23 23  0  0  1  0  0  0  0  0999 V2000
   25.9382  -13.1750  -14.9587 C   0  0  0  0  0  0  0  0  0  0  0  0
   25.8161  -14.3233  -15.9145 C   0  0  1  0  0  0  0  0  0  0  0  0
   26.5544  -15.4412  -15.5197 O   0  0  0  0  0  0  0  0  0  0  0  0
   24.4031  -14.6851  -16.2566 C   0  0  2  0  0  0  0  0  0  0  0  0
   24.3639  -15.8807  -17.0336 N   0  0  0  0  0  0  0  0  0  0  0  0
   23.6303  -13.5698  -16.8483 C   0  0  0  0  0  0  0  0  0  0  0  0
   23.9803  -13.1297  -17.9730 O   0  0  0  0  0  0  0  0  0  0  0  0
   20.6104  -13.5670  -18.6225 N   0  0  0  0  0  0  0  0  0  0  0  0
   19.7598  -13.1094  -17.5935 C   0  0  0  0  0  0  0  0  0  0  0  0
   18.5689  -13.5032  -17.5927 O   0  0  0  0  0  0  0  0  0  0  0  0
   20.3009  -12.2023  -16.5803 C   0  0  0  0  0  0  0  0  0  0  0  0
   21.7595  -11.8553  -16.7595 C   0  0  2  0  0  0  0  0  0  0  0  0
   22.5138  -12.9765  -16.2029 N   0  0  0  0  0  0  0  0  0  0  0  0
   22.0155  -10.6132  -15.9816 C   0  0  0  0  0  0  0  0  0  0  0  0
   22.4055  -10.7689  -14.7844 O   0  0  0  0  0  0  0  0  0  0  0  0
   21.8603   -9.3205  -16.4688 N   0  0  0  0  0  0  0  0  0  0  0  0
   21.4077   -8.9420  -17.7908 C   0  0  0  0  0  0  0  0  0  0  0  0
   22.1987   -7.6776  -18.1277 C   0  0  0  0  0  0  0  0  0  0  0  0
   22.5727   -7.0876  -16.7973 C   0  0  0  0  0  0  0  0  0  0  0  0
   22.1239   -8.0918  -15.7620 C   0  0  1  0  0  0  0  0  0  0  0  0
   20.9224   -7.6414  -15.0293 C   0  0  0  0  0  0  0  0  0  0  0  0
   19.8176   -8.1525  -15.3211 O   0  0  0  0  0  0  0  0  0  0  0  0
   21.0640   -6.6755  -14.0521 O   0  0  0  0  0  0  0  0  0  0  0  0
  2  1  1  1
  2  3  1  0
  4  6  1  0
  4  2  1  0
  4  5  1  6
  6 13  1  0
  7  6  2  0
  8  9  1  0
  9 11  1  0
 10  9  2  0
 12 11  1  1
 12 13  1  0
 12 14  1  0
 14 16  1  0
 15 14  2  0
 16 20  1  0
 16 17  1  0
 17 18  1  0
 19 18  1  0
 20 21  1  6
 20 19  1  0
 21 23  1  0
 22 21  2  0
M  END
$$$$
