TNP.pdb
     RDKit          3D

 23 23  0  0  1  0  0  0  0  0999 V2000
   21.0916  -12.8183    6.4480 C   0  0  0  0  0  0  0  0  0  0  0  0
   20.0164  -11.8370    6.0901 C   0  0  1  0  0  0  0  0  0  0  0  0
   20.4930  -10.7536    5.3485 O   0  0  0  0  0  0  0  0  0  0  0  0
   18.8114  -12.4577    5.4523 C   0  0  2  0  0  0  0  0  0  0  0  0
   17.8143  -11.4707    5.1939 N   0  0  0  0  0  0  0  0  0  0  0  0
   18.2977  -13.6413    6.1778 C   0  0  0  0  0  0  0  0  0  0  0  0
   17.8040  -13.4740    7.3221 O   0  0  0  0  0  0  0  0  0  0  0  0
   17.9929  -19.7080    5.5004 N   0  0  0  0  0  0  0  0  0  0  0  0
   17.3686  -18.5325    5.9693 C   0  0  0  0  0  0  0  0  0  0  0  0
   16.4962  -18.6435    6.8639 O   0  0  0  0  0  0  0  0  0  0  0  0
   17.7635  -17.2453    5.3955 C   0  0  0  0  0  0  0  0  0  0  0  0
   18.0143  -16.1540    6.4085 C   0  0  2  0  0  0  0  0  0  0  0  0
   18.3380  -14.9542    5.6394 N   0  0  0  0  0  0  0  0  0  0  0  0
   19.1775  -16.5778    7.2336 C   0  0  0  0  0  0  0  0  0  0  0  0
   20.3255  -16.3895    6.7273 O   0  0  0  0  0  0  0  0  0  0  0  0
   19.0927  -17.1534    8.4961 N   0  0  0  0  0  0  0  0  0  0  0  0
   17.8828  -17.4374    9.2386 C   0  0  0  0  0  0  0  0  0  0  0  0
   18.2559  -17.1951   10.7015 C   0  0  0  0  0  0  0  0  0  0  0  0
   19.7452  -17.3865   10.7591 C   0  0  0  0  0  0  0  0  0  0  0  0
   20.1901  -17.5795    9.3285 C   0  0  1  0  0  0  0  0  0  0  0  0
   20.5522  -18.9825    9.0393 C   0  0  0  0  0  0  0  0  0  0  0  0
   21.6513  -19.4142    9.4549 O   0  0  0  0  0  0  0  0  0  0  0  0
   19.6657  -19.7627    8.3227 O   0  0  0  0  0  0  0  0  0  0  0  0
  2  1  1  6
  2  3  1  0
  4  6  1  0
  4  2  1  0
  4  5  1  1
  6 13  1  0
  7  6  2  0
  8  9  1  0
  9 11  1  0
 10  9  2  0
 12 11  1  6
 12 13  1  0
 12 14  1  0
 14 16  1  0
 15 14  2  0
 16 20  1  0
 16 17  1  0
 17 18  1  0
 19 18  1  0
 20 21  1  1
 20 19  1  0
 21 23  1  0
 22 21  2  0
M  END
$$$$
