TNP.pdb
     RDKit          3D

 23 23  0  0  1  0  0  0  0  0999 V2000
   23.7444   -9.6506  -17.7734 C   0  0  0  0  0  0  0  0  0  0  0  0
   22.7568  -10.5057  -18.5086 C   0  0  1  0  0  0  0  0  0  0  0  0
   23.3611  -11.5365  -19.2318 O   0  0  0  0  0  0  0  0  0  0  0  0
   21.6337  -11.0116  -17.6560 C   0  0  2  0  0  0  0  0  0  0  0  0
   20.8125  -11.9172  -18.3910 N   0  0  0  0  0  0  0  0  0  0  0  0
   20.8713   -9.9386  -16.9787 C   0  0  0  0  0  0  0  0  0  0  0  0
   20.2987   -9.0723  -17.6877 O   0  0  0  0  0  0  0  0  0  0  0  0
   18.7775   -6.9893  -13.1712 N   0  0  0  0  0  0  0  0  0  0  0  0
   19.0779   -8.2645  -12.6467 C   0  0  0  0  0  0  0  0  0  0  0  0
   18.7040   -8.5256  -11.4781 O   0  0  0  0  0  0  0  0  0  0  0  0
   19.8069   -9.2190  -13.4831 C   0  0  0  0  0  0  0  0  0  0  0  0
   20.1105   -8.7301  -14.8792 C   0  0  2  0  0  0  0  0  0  0  0  0
   20.7586   -9.8450  -15.5667 N   0  0  0  0  0  0  0  0  0  0  0  0
   21.0447   -7.5795  -14.7494 C   0  0  0  0  0  0  0  0  0  0  0  0
   22.2170   -7.8486  -14.3457 O   0  0  0  0  0  0  0  0  0  0  0  0
   20.7263   -6.2570  -15.0360 N   0  0  0  0  0  0  0  0  0  0  0  0
   19.4620   -5.7597  -15.5362 C   0  0  0  0  0  0  0  0  0  0  0  0
   19.8363   -4.6034  -16.4641 C   0  0  0  0  0  0  0  0  0  0  0  0
   21.1769   -4.1321  -15.9756 C   0  0  0  0  0  0  0  0  0  0  0  0
   21.5896   -5.1101  -14.9010 C   0  0  1  0  0  0  0  0  0  0  0  0
   21.4823   -4.5310  -13.5458 C   0  0  0  0  0  0  0  0  0  0  0  0
   20.5584   -4.9249  -12.7988 O   0  0  0  0  0  0  0  0  0  0  0  0
   22.4040   -3.5789  -13.1559 O   0  0  0  0  0  0  0  0  0  0  0  0
  2  1  1  1
  2  3  1  0
  4  6  1  0
  4  2  1  0
  4  5  1  6
  6 13  1  0
  7  6  2  0
  8  9  1  0
  9 11  1  0
 10  9  2  0
 12 11  1  1
 12 13  1  0
 12 14  1  0
 14 16  1  0
 15 14  2  0
 16 20  1  0
 16 17  1  0
 17 18  1  0
 19 18  1  0
 20 21  1  1
 20 19  1  0
 21 23  1  0
 22 21  2  0
M  END
$$$$
