TNP.pdb
     RDKit          3D

 23 23  0  0  1  0  0  0  0  0999 V2000
   10.8483  -23.7273    4.2084 C   0  0  0  0  0  0  0  0  0  0  0  0
   10.8204  -24.9857    3.3943 C   0  0  1  0  0  0  0  0  0  0  0  0
    9.5577  -25.5814    3.3558 O   0  0  0  0  0  0  0  0  0  0  0  0
   11.4056  -24.8387    2.0231 C   0  0  2  0  0  0  0  0  0  0  0  0
   11.2231  -26.0346    1.2673 N   0  0  0  0  0  0  0  0  0  0  0  0
   12.8014  -24.3458    2.0220 C   0  0  0  0  0  0  0  0  0  0  0  0
   13.6818  -25.0404    2.5909 O   0  0  0  0  0  0  0  0  0  0  0  0
   15.4904  -23.9668   -0.7307 N   0  0  0  0  0  0  0  0  0  0  0  0
   15.2029  -22.5999   -0.9321 C   0  0  0  0  0  0  0  0  0  0  0  0
   15.3517  -22.1287   -2.0851 O   0  0  0  0  0  0  0  0  0  0  0  0
   14.7472  -21.7986    0.2047 C   0  0  0  0  0  0  0  0  0  0  0  0
   14.5412  -22.5768    1.4821 C   0  0  2  0  0  0  0  0  0  0  0  0
   13.1888  -23.1257    1.4083 N   0  0  0  0  0  0  0  0  0  0  0  0
   14.6549  -21.6120    2.6089 C   0  0  0  0  0  0  0  0  0  0  0  0
   13.5764  -21.0655    2.9933 O   0  0  0  0  0  0  0  0  0  0  0  0
   15.8387  -21.2769    3.2559 N   0  0  0  0  0  0  0  0  0  0  0  0
   17.1630  -21.7768    2.9520 C   0  0  0  0  0  0  0  0  0  0  0  0
   17.8652  -21.8726    4.3070 C   0  0  0  0  0  0  0  0  0  0  0  0
   17.1531  -20.8819    5.1841 C   0  0  0  0  0  0  0  0  0  0  0  0
   15.9916  -20.3692    4.3657 C   0  0  1  0  0  0  0  0  0  0  0  0
   16.2106  -18.9888    3.8863 C   0  0  0  0  0  0  0  0  0  0  0  0
   16.5539  -18.8171    2.6949 O   0  0  0  0  0  0  0  0  0  0  0  0
   16.0284  -17.9426    4.7697 O   0  0  0  0  0  0  0  0  0  0  0  0
  2  1  1  6
  2  3  1  0
  4  6  1  0
  4  2  1  0
  4  5  1  1
  6 13  1  0
  7  6  2  0
  8  9  1  0
  9 11  1  0
 10  9  2  0
 12 11  1  6
 12 13  1  0
 12 14  1  0
 14 16  1  0
 15 14  2  0
 16 20  1  0
 16 17  1  0
 17 18  1  0
 19 18  1  0
 20 21  1  6
 20 19  1  0
 21 23  1  0
 22 21  2  0
M  END
$$$$
