TNP.pdb
     RDKit          3D

 23 23  0  0  1  0  0  0  0  0999 V2000
   21.7062  -12.6132    7.4258 C   0  0  0  0  0  0  0  0  0  0  0  0
   20.7868  -11.6007    6.8120 C   0  0  1  0  0  0  0  0  0  0  0  0
   21.4685  -10.5427    6.2065 O   0  0  0  0  0  0  0  0  0  0  0  0
   19.7534  -12.1881    5.9003 C   0  0  2  0  0  0  0  0  0  0  0  0
   18.9102  -11.1664    5.3711 N   0  0  0  0  0  0  0  0  0  0  0  0
   19.0083  -13.3196    6.4967 C   0  0  0  0  0  0  0  0  0  0  0  0
   18.3000  -13.1007    7.5124 O   0  0  0  0  0  0  0  0  0  0  0  0
   16.8654  -18.0006    7.2381 N   0  0  0  0  0  0  0  0  0  0  0  0
   17.3587  -17.9406    5.9173 C   0  0  0  0  0  0  0  0  0  0  0  0
   17.0578  -18.8709    5.1316 O   0  0  0  0  0  0  0  0  0  0  0  0
   18.1934  -16.8039    5.5256 C   0  0  0  0  0  0  0  0  0  0  0  0
   18.4291  -15.7888    6.6183 C   0  0  2  0  0  0  0  0  0  0  0  0
   19.0584  -14.6383    5.9734 N   0  0  0  0  0  0  0  0  0  0  0  0
   19.3551  -16.4093    7.6036 C   0  0  0  0  0  0  0  0  0  0  0  0
   20.5822  -16.4380    7.2825 O   0  0  0  0  0  0  0  0  0  0  0  0
   18.9742  -16.9476    8.8274 N   0  0  0  0  0  0  0  0  0  0  0  0
   17.6263  -17.0522    9.3453 C   0  0  0  0  0  0  0  0  0  0  0  0
   17.7691  -16.8395   10.8528 C   0  0  0  0  0  0  0  0  0  0  0  0
   19.1853  -17.2309   11.1675 C   0  0  0  0  0  0  0  0  0  0  0  0
   19.8414  -17.5057    9.8350 C   0  0  1  0  0  0  0  0  0  0  0  0
   20.0527  -18.9495    9.6021 C   0  0  0  0  0  0  0  0  0  0  0  0
   20.8475  -19.5653   10.3478 O   0  0  0  0  0  0  0  0  0  0  0  0
   19.3663  -19.5633    8.5725 O   0  0  0  0  0  0  0  0  0  0  0  0
  2  1  1  6
  2  3  1  0
  4  6  1  0
  4  2  1  0
  4  5  1  1
  6 13  1  0
  7  6  2  0
  8  9  1  0
  9 11  1  0
 10  9  2  0
 12 11  1  6
 12 13  1  0
 12 14  1  0
 14 16  1  0
 15 14  2  0
 16 20  1  0
 16 17  1  0
 17 18  1  0
 19 18  1  0
 20 21  1  6
 20 19  1  0
 21 23  1  0
 22 21  2  0
M  END
$$$$
