DAD.pdb
     RDKit          3D

 22 21  0  0  1  0  0  0  0  0999 V2000
   11.9970  -19.2483   19.4687 N   0  0  0  0  0  0  0  0  0  0  0  0
   12.9730  -18.2544   19.7834 C   0  0  1  0  0  0  0  0  0  0  0  0
   13.2504  -17.4276   18.5454 C   0  0  0  0  0  0  0  0  0  0  0  0
   13.8667  -18.2588   17.4894 C   0  0  0  0  0  0  0  0  0  0  0  0
   13.2525  -19.2621   17.0731 O   0  0  0  0  0  0  0  0  0  0  0  0
   12.5990  -17.3530   20.9043 C   0  0  0  0  0  0  0  0  0  0  0  0
   13.4883  -16.5590   21.3210 O   0  0  0  0  0  0  0  0  0  0  0  0
   15.1225  -17.8908   16.9908 O   0  0  0  0  0  0  0  0  0  0  0  0
    9.5523  -15.9682   22.5325 C   0  0  0  0  0  0  0  0  0  0  0  0
   10.9758  -16.3952   22.5784 C   0  0  2  0  0  0  0  0  0  0  0  0
   11.3556  -17.3121   21.5306 N   0  0  0  0  0  0  0  0  0  0  0  0
   11.2952  -16.9891   23.8908 C   0  0  0  0  0  0  0  0  0  0  0  0
   11.0939  -16.3010   24.9335 O   0  0  0  0  0  0  0  0  0  0  0  0
   11.8169  -18.2923   24.0434 N   0  0  0  0  0  0  0  0  0  0  0  0
   12.1286  -18.8394   25.3858 C   0  0  1  0  0  0  0  0  0  0  0  0
   11.9286  -20.3226   25.3816 C   0  0  0  0  0  0  0  0  0  0  0  0
   10.5454  -20.6864   25.0435 C   0  0  0  0  0  0  0  0  0  0  0  0
    9.5318  -20.1230   25.4929 O   0  0  0  0  0  0  0  0  0  0  0  0
   13.5602  -18.5454   25.6354 C   0  0  0  0  0  0  0  0  0  0  0  0
   14.0358  -18.8275   26.7872 O   0  0  0  0  0  0  0  0  0  0  0  0
   10.2982  -21.7410   24.1522 O   0  0  0  0  0  0  0  0  0  0  0  0
   14.4524  -17.9949   24.7554 O   0  0  0  0  0  0  0  0  0  0  0  0
  2  6  1  0
  2  1  1  6
  3  2  1  0
  3  4  1  0
  4  5  2  0
  6 11  1  0
  7  6  2  0
  8  4  1  0
 10 11  1  0
 10 12  1  0
 10  9  1  1
 12 13  2  0
 12 14  1  0
 14 15  1  0
 15 19  1  0
 16 17  1  0
 15 16  1  6
 17 18  2  0
 19 20  2  0
 19 22  1  0
 21 17  1  0
M  END
$$$$
