DAD.pdb
     RDKit          3D

 22 21  0  0  1  0  0  0  0  0999 V2000
    8.0807  -15.8854   17.5101 N   0  0  0  0  0  0  0  0  0  0  0  0
    8.1364  -16.6472   18.7168 C   0  0  1  0  0  0  0  0  0  0  0  0
    8.8249  -17.9661   18.4349 C   0  0  0  0  0  0  0  0  0  0  0  0
    8.2088  -18.6387   17.2714 C   0  0  0  0  0  0  0  0  0  0  0  0
    8.7945  -19.6118   16.7546 O   0  0  0  0  0  0  0  0  0  0  0  0
    8.8200  -15.9661   19.8473 C   0  0  0  0  0  0  0  0  0  0  0  0
   10.0793  -15.8885   19.7910 O   0  0  0  0  0  0  0  0  0  0  0  0
    6.9853  -18.1593   16.7875 O   0  0  0  0  0  0  0  0  0  0  0  0
    7.9713  -14.1324   23.0514 C   0  0  0  0  0  0  0  0  0  0  0  0
    8.8596  -14.8780   22.1209 C   0  0  2  0  0  0  0  0  0  0  0  0
    8.1904  -15.4099   20.9581 N   0  0  0  0  0  0  0  0  0  0  0  0
    9.5528  -15.9698   22.8313 C   0  0  0  0  0  0  0  0  0  0  0  0
    9.0558  -17.1328   22.7893 O   0  0  0  0  0  0  0  0  0  0  0  0
   10.7479  -15.7822   23.5593 N   0  0  0  0  0  0  0  0  0  0  0  0
   11.4666  -16.9319   24.1598 C   0  0  1  0  0  0  0  0  0  0  0  0
   12.9091  -16.5795   24.3464 C   0  0  0  0  0  0  0  0  0  0  0  0
   13.5646  -16.2660   23.0690 C   0  0  0  0  0  0  0  0  0  0  0  0
   13.1867  -16.6744   21.9567 O   0  0  0  0  0  0  0  0  0  0  0  0
   10.8497  -17.1634   25.4879 C   0  0  0  0  0  0  0  0  0  0  0  0
   10.1401  -16.2261   25.9884 O   0  0  0  0  0  0  0  0  0  0  0  0
   14.7049  -15.4492   23.0507 O   0  0  0  0  0  0  0  0  0  0  0  0
   10.9534  -18.2903   26.2579 O   0  0  0  0  0  0  0  0  0  0  0  0
  2  6  1  0
  2  1  1  6
  3  2  1  0
  3  4  1  0
  4  5  2  0
  6 11  1  0
  7  6  2  0
  8  4  1  0
 10 11  1  0
 10 12  1  0
 10  9  1  1
 12 13  2  0
 12 14  1  0
 14 15  1  0
 15 19  1  0
 16 17  1  0
 15 16  1  1
 17 18  2  0
 19 20  2  0
 19 22  1  0
 21 17  1  0
M  END
$$$$
