DAD.pdb
     RDKit          3D

 22 21  0  0  1  0  0  0  0  0999 V2000
   12.2031  -14.4511   16.0380 N   0  0  0  0  0  0  0  0  0  0  0  0
   12.9475  -15.3437   16.8679 C   0  0  1  0  0  0  0  0  0  0  0  0
   14.3397  -15.5038   16.2940 C   0  0  0  0  0  0  0  0  0  0  0  0
   14.2849  -16.1399   14.9605 C   0  0  0  0  0  0  0  0  0  0  0  0
   13.3551  -15.8398   14.1843 O   0  0  0  0  0  0  0  0  0  0  0  0
   13.0461  -14.9276   18.2913 C   0  0  0  0  0  0  0  0  0  0  0  0
   13.7618  -13.9181   18.5439 O   0  0  0  0  0  0  0  0  0  0  0  0
   15.2814  -17.0603   14.6128 O   0  0  0  0  0  0  0  0  0  0  0  0
   11.2918  -15.4716   21.5519 C   0  0  0  0  0  0  0  0  0  0  0  0
   12.4916  -15.1318   20.7420 C   0  0  2  0  0  0  0  0  0  0  0  0
   12.4185  -15.5557   19.3643 N   0  0  0  0  0  0  0  0  0  0  0  0
   13.7091  -15.6876   21.3632 C   0  0  0  0  0  0  0  0  0  0  0  0
   14.0743  -16.8562   21.0434 O   0  0  0  0  0  0  0  0  0  0  0  0
   14.4911  -14.9788   22.3011 N   0  0  0  0  0  0  0  0  0  0  0  0
   15.7178  -15.5761   22.8817 C   0  0  1  0  0  0  0  0  0  0  0  0
   16.8096  -14.5529   22.9086 C   0  0  0  0  0  0  0  0  0  0  0  0
   17.4126  -14.3624   21.5820 C   0  0  0  0  0  0  0  0  0  0  0  0
   17.2917  -15.1490   20.6263 O   0  0  0  0  0  0  0  0  0  0  0  0
   15.3787  -15.9579   24.2737 C   0  0  0  0  0  0  0  0  0  0  0  0
   14.3155  -15.4676   24.7853 O   0  0  0  0  0  0  0  0  0  0  0  0
   18.1912  -13.2242   21.3252 O   0  0  0  0  0  0  0  0  0  0  0  0
   16.0876  -16.7942   25.0931 O   0  0  0  0  0  0  0  0  0  0  0  0
  2  6  1  0
  2  1  1  6
  3  2  1  0
  3  4  1  0
  4  5  2  0
  6 11  1  0
  7  6  2  0
  8  4  1  0
 10 11  1  0
 10 12  1  0
 10  9  1  1
 12 13  2  0
 12 14  1  0
 14 15  1  0
 15 19  1  0
 16 17  1  0
 15 16  1  1
 17 18  2  0
 19 20  2  0
 19 22  1  0
 21 17  1  0
M  END
$$$$
