DAD.pdb
     RDKit          3D

 22 21  0  0  1  0  0  0  0  0999 V2000
   14.9973  -13.9932   16.2012 N   0  0  0  0  0  0  0  0  0  0  0  0
   13.9533  -14.8662   16.6341 C   0  0  1  0  0  0  0  0  0  0  0  0
   14.4203  -16.2998   16.4926 C   0  0  0  0  0  0  0  0  0  0  0  0
   14.7135  -16.6165   15.0785 C   0  0  0  0  0  0  0  0  0  0  0  0
   15.8889  -16.8714   14.7464 O   0  0  0  0  0  0  0  0  0  0  0  0
   13.4905  -14.6339   18.0272 C   0  0  0  0  0  0  0  0  0  0  0  0
   14.3635  -14.2803   18.8685 O   0  0  0  0  0  0  0  0  0  0  0  0
   13.6588  -16.6196   14.1573 O   0  0  0  0  0  0  0  0  0  0  0  0
   10.2458  -14.4819   19.9740 C   0  0  0  0  0  0  0  0  0  0  0  0
   11.7248  -14.5006   19.8214 C   0  0  2  0  0  0  0  0  0  0  0  0
   12.1807  -14.7738   18.4796 N   0  0  0  0  0  0  0  0  0  0  0  0
   12.3283  -15.4727   20.7530 C   0  0  0  0  0  0  0  0  0  0  0  0
   12.4516  -16.6754   20.3793 O   0  0  0  0  0  0  0  0  0  0  0  0
   12.7772  -15.1280   22.0466 N   0  0  0  0  0  0  0  0  0  0  0  0
   13.6035  -16.0653   22.8449 C   0  0  1  0  0  0  0  0  0  0  0  0
   14.8426  -15.3683   23.3123 C   0  0  0  0  0  0  0  0  0  0  0  0
   15.7037  -16.2574   24.1047 C   0  0  0  0  0  0  0  0  0  0  0  0
   15.4714  -17.4585   24.3282 O   0  0  0  0  0  0  0  0  0  0  0  0
   12.7872  -16.4427   24.0237 C   0  0  0  0  0  0  0  0  0  0  0  0
   11.8192  -15.6754   24.3501 O   0  0  0  0  0  0  0  0  0  0  0  0
   16.8867  -15.7611   24.6720 O   0  0  0  0  0  0  0  0  0  0  0  0
   12.9531  -17.5429   24.8209 O   0  0  0  0  0  0  0  0  0  0  0  0
  2  6  1  0
  2  1  1  1
  3  2  1  0
  3  4  1  0
  4  5  2  0
  6 11  1  0
  7  6  2  0
  8  4  1  0
 10 11  1  0
 10 12  1  0
 10  9  1  6
 12 13  2  0
 12 14  1  0
 14 15  1  0
 15 19  1  0
 16 17  1  0
 15 16  1  1
 17 18  2  0
 19 20  2  0
 19 22  1  0
 21 17  1  0
M  END
$$$$
