DAD.pdb
     RDKit          3D

 22 21  0  0  1  0  0  0  0  0999 V2000
   10.2102  -19.3640   20.5229 N   0  0  0  0  0  0  0  0  0  0  0  0
   11.2701  -18.4389   20.2776 C   0  0  1  0  0  0  0  0  0  0  0  0
   11.2724  -18.0713   18.8086 C   0  0  0  0  0  0  0  0  0  0  0  0
   12.6446  -17.7710   18.3474 C   0  0  0  0  0  0  0  0  0  0  0  0
   13.6115  -18.2650   18.9621 O   0  0  0  0  0  0  0  0  0  0  0  0
   11.2111  -17.1994   21.0957 C   0  0  0  0  0  0  0  0  0  0  0  0
   12.2553  -16.4902   21.1355 O   0  0  0  0  0  0  0  0  0  0  0  0
   12.8129  -16.9397   17.2331 O   0  0  0  0  0  0  0  0  0  0  0  0
    8.7827  -14.9599   22.8575 C   0  0  0  0  0  0  0  0  0  0  0  0
   10.0967  -15.6455   22.7383 C   0  0  2  0  0  0  0  0  0  0  0  0
   10.1057  -16.7579   21.8187 N   0  0  0  0  0  0  0  0  0  0  0  0
   10.5655  -16.0984   24.0620 C   0  0  0  0  0  0  0  0  0  0  0  0
   10.6343  -15.2548   25.0027 O   0  0  0  0  0  0  0  0  0  0  0  0
   10.9434  -17.4313   24.3340 N   0  0  0  0  0  0  0  0  0  0  0  0
   11.4080  -17.8349   25.6831 C   0  0  1  0  0  0  0  0  0  0  0  0
   10.6087  -19.0073   26.1589 C   0  0  0  0  0  0  0  0  0  0  0  0
   11.0240  -19.4437   27.4994 C   0  0  0  0  0  0  0  0  0  0  0  0
   11.9475  -18.9346   28.1587 O   0  0  0  0  0  0  0  0  0  0  0  0
   12.8248  -18.2449   25.5322 C   0  0  0  0  0  0  0  0  0  0  0  0
   13.4433  -18.6508   26.5740 O   0  0  0  0  0  0  0  0  0  0  0  0
   10.3602  -20.5100   28.1240 O   0  0  0  0  0  0  0  0  0  0  0  0
   13.5644  -18.2399   24.3805 O   0  0  0  0  0  0  0  0  0  0  0  0
  2  6  1  0
  2  1  1  6
  3  2  1  0
  3  4  1  0
  4  5  2  0
  6 11  1  0
  7  6  2  0
  8  4  1  0
 10 11  1  0
 10 12  1  0
 10  9  1  1
 12 13  2  0
 12 14  1  0
 14 15  1  0
 15 19  1  0
 16 17  1  0
 15 16  1  6
 17 18  2  0
 19 20  2  0
 19 22  1  0
 21 17  1  0
M  END
$$$$
