DAD.pdb
     RDKit          3D

 22 21  0  0  1  0  0  0  0  0999 V2000
    8.9851  -17.1844   17.0702 N   0  0  0  0  0  0  0  0  0  0  0  0
    8.3535  -17.3816   18.3358 C   0  0  1  0  0  0  0  0  0  0  0  0
    8.4102  -18.8528   18.6903 C   0  0  0  0  0  0  0  0  0  0  0  0
    7.6653  -19.6580   17.6990 C   0  0  0  0  0  0  0  0  0  0  0  0
    8.2553  -20.5824   17.1037 O   0  0  0  0  0  0  0  0  0  0  0  0
    8.9337  -16.5840   19.4477 C   0  0  0  0  0  0  0  0  0  0  0  0
   10.1927  -16.5710   19.5459 O   0  0  0  0  0  0  0  0  0  0  0  0
    6.3190  -19.3549   17.4613 O   0  0  0  0  0  0  0  0  0  0  0  0
    7.7883  -14.2711   22.2242 C   0  0  0  0  0  0  0  0  0  0  0  0
    8.7728  -15.0985   21.4780 C   0  0  2  0  0  0  0  0  0  0  0  0
    8.2078  -15.8541   20.3858 N   0  0  0  0  0  0  0  0  0  0  0  0
    9.4795  -16.0135   22.3948 C   0  0  0  0  0  0  0  0  0  0  0  0
    9.0037  -17.1707   22.5834 O   0  0  0  0  0  0  0  0  0  0  0  0
   10.6653  -15.6619   23.0759 N   0  0  0  0  0  0  0  0  0  0  0  0
   11.3386  -16.6206   23.9848 C   0  0  1  0  0  0  0  0  0  0  0  0
   12.7628  -16.2065   24.1848 C   0  0  0  0  0  0  0  0  0  0  0  0
   13.5703  -16.4259   22.9766 C   0  0  0  0  0  0  0  0  0  0  0  0
   13.5864  -17.4779   22.3134 O   0  0  0  0  0  0  0  0  0  0  0  0
   10.6248  -16.5392   25.2818 C   0  0  0  0  0  0  0  0  0  0  0  0
   10.9698  -17.3519   26.2054 O   0  0  0  0  0  0  0  0  0  0  0  0
   14.4009  -15.4028   22.4960 O   0  0  0  0  0  0  0  0  0  0  0  0
    9.6168  -15.6746   25.6131 O   0  0  0  0  0  0  0  0  0  0  0  0
  2  6  1  0
  2  1  1  6
  3  2  1  0
  3  4  1  0
  4  5  2  0
  6 11  1  0
  7  6  2  0
  8  4  1  0
 10 11  1  0
 10 12  1  0
 10  9  1  1
 12 13  2  0
 12 14  1  0
 14 15  1  0
 15 19  1  0
 16 17  1  0
 15 16  1  1
 17 18  2  0
 19 20  2  0
 19 22  1  0
 21 17  1  0
M  END
$$$$
