DAD.pdb
     RDKit          3D

 22 21  0  0  1  0  0  0  0  0999 V2000
   10.5303  -18.8617   18.9258 N   0  0  0  0  0  0  0  0  0  0  0  0
   11.4597  -17.7803   19.0053 C   0  0  1  0  0  0  0  0  0  0  0  0
   11.5992  -17.1494   17.6358 C   0  0  0  0  0  0  0  0  0  0  0  0
   12.2405  -18.0885   16.6910 C   0  0  0  0  0  0  0  0  0  0  0  0
   11.5331  -18.9276   16.0975 O   0  0  0  0  0  0  0  0  0  0  0  0
   11.1053  -16.7317   19.9972 C   0  0  0  0  0  0  0  0  0  0  0  0
   11.8982  -15.7546   20.1046 O   0  0  0  0  0  0  0  0  0  0  0  0
   13.6244  -18.0038   16.4937 O   0  0  0  0  0  0  0  0  0  0  0  0
    8.2411  -15.7462   22.2510 C   0  0  0  0  0  0  0  0  0  0  0  0
    9.6620  -15.7446   21.8131 C   0  0  2  0  0  0  0  0  0  0  0  0
    9.9775  -16.7376   20.8144 N   0  0  0  0  0  0  0  0  0  0  0  0
   10.5603  -15.9106   22.9719 C   0  0  0  0  0  0  0  0  0  0  0  0
   10.4165  -15.1412   23.9662 O   0  0  0  0  0  0  0  0  0  0  0  0
   11.5772  -16.8885   23.0282 N   0  0  0  0  0  0  0  0  0  0  0  0
   12.4861  -16.9810   24.1961 C   0  0  1  0  0  0  0  0  0  0  0  0
   11.9929  -18.0389   25.1328 C   0  0  0  0  0  0  0  0  0  0  0  0
   12.8475  -18.1566   26.3227 C   0  0  0  0  0  0  0  0  0  0  0  0
   13.8621  -17.4710   26.5401 O   0  0  0  0  0  0  0  0  0  0  0  0
   13.8101  -17.3847   23.6649 C   0  0  0  0  0  0  0  0  0  0  0  0
   13.8351  -18.1651   22.6535 O   0  0  0  0  0  0  0  0  0  0  0  0
   12.5372  -19.0976   27.3155 O   0  0  0  0  0  0  0  0  0  0  0  0
   15.0369  -17.0097   24.1420 O   0  0  0  0  0  0  0  0  0  0  0  0
  2  6  1  0
  2  1  1  6
  3  2  1  0
  3  4  1  0
  4  5  2  0
  6 11  1  0
  7  6  2  0
  8  4  1  0
 10 11  1  0
 10 12  1  0
 10  9  1  1
 12 13  2  0
 12 14  1  0
 14 15  1  0
 15 19  1  0
 16 17  1  0
 15 16  1  1
 17 18  2  0
 19 20  2  0
 19 22  1  0
 21 17  1  0
M  END
$$$$
