DAD.pdb
     RDKit          3D

 22 21  0  0  1  0  0  0  0  0999 V2000
   15.3601  -14.0953   16.5160 N   0  0  0  0  0  0  0  0  0  0  0  0
   14.2297  -14.9186   16.8060 C   0  0  1  0  0  0  0  0  0  0  0  0
   14.6218  -16.3711   16.6342 C   0  0  0  0  0  0  0  0  0  0  0  0
   14.8896  -16.6753   15.2124 C   0  0  0  0  0  0  0  0  0  0  0  0
   16.0373  -16.4897   14.7593 O   0  0  0  0  0  0  0  0  0  0  0  0
   13.6518  -14.7210   18.1609 C   0  0  0  0  0  0  0  0  0  0  0  0
   14.4668  -14.5806   19.1154 O   0  0  0  0  0  0  0  0  0  0  0  0
   13.8428  -17.1628   14.4202 O   0  0  0  0  0  0  0  0  0  0  0  0
   10.2571  -14.3547   19.8099 C   0  0  0  0  0  0  0  0  0  0  0  0
   11.7344  -14.5218   19.7853 C   0  0  2  0  0  0  0  0  0  0  0  0
   12.2931  -14.6787   18.4638 N   0  0  0  0  0  0  0  0  0  0  0  0
   12.1398  -15.6625   20.6289 C   0  0  0  0  0  0  0  0  0  0  0  0
   12.5729  -16.7097   20.0660 O   0  0  0  0  0  0  0  0  0  0  0  0
   12.0685  -15.6452   22.0389 N   0  0  0  0  0  0  0  0  0  0  0  0
   12.9514  -16.5080   22.8603 C   0  0  1  0  0  0  0  0  0  0  0  0
   14.3821  -16.1569   22.5966 C   0  0  0  0  0  0  0  0  0  0  0  0
   15.3011  -16.9535   23.4216 C   0  0  0  0  0  0  0  0  0  0  0  0
   15.2453  -18.1884   23.5581 O   0  0  0  0  0  0  0  0  0  0  0  0
   12.6324  -16.2053   24.2762 C   0  0  0  0  0  0  0  0  0  0  0  0
   12.1299  -15.0614   24.5439 O   0  0  0  0  0  0  0  0  0  0  0  0
   16.3347  -16.3197   24.1270 O   0  0  0  0  0  0  0  0  0  0  0  0
   12.8170  -17.0274   25.3549 O   0  0  0  0  0  0  0  0  0  0  0  0
  2  6  1  0
  2  1  1  1
  3  2  1  0
  3  4  1  0
  4  5  2  0
  6 11  1  0
  7  6  2  0
  8  4  1  0
 10 11  1  0
 10 12  1  0
 10  9  1  6
 12 13  2  0
 12 14  1  0
 14 15  1  0
 15 19  1  0
 16 17  1  0
 15 16  1  1
 17 18  2  0
 19 20  2  0
 19 22  1  0
 21 17  1  0
M  END
$$$$
