DAD.pdb
     RDKit          3D

 22 21  0  0  1  0  0  0  0  0999 V2000
    7.9352  -18.1909   18.5081 N   0  0  0  0  0  0  0  0  0  0  0  0
    9.0843  -17.3429   18.5046 C   0  0  1  0  0  0  0  0  0  0  0  0
    9.3423  -16.8696   17.0894 C   0  0  0  0  0  0  0  0  0  0  0  0
    9.2367  -17.9939   16.1352 C   0  0  0  0  0  0  0  0  0  0  0  0
    9.6694  -19.1152   16.4705 O   0  0  0  0  0  0  0  0  0  0  0  0
    8.9877  -16.1665   19.4078 C   0  0  0  0  0  0  0  0  0  0  0  0
    9.8891  -15.2883   19.3015 O   0  0  0  0  0  0  0  0  0  0  0  0
    8.6530  -17.7614   14.8837 O   0  0  0  0  0  0  0  0  0  0  0  0
    6.5954  -14.6139   21.8800 C   0  0  0  0  0  0  0  0  0  0  0  0
    7.9355  -14.8439   21.2782 C   0  0  2  0  0  0  0  0  0  0  0  0
    7.9912  -15.9537   20.3571 N   0  0  0  0  0  0  0  0  0  0  0  0
    8.9508  -15.0291   22.3327 C   0  0  0  0  0  0  0  0  0  0  0  0
    9.0615  -14.1444   23.2306 O   0  0  0  0  0  0  0  0  0  0  0  0
    9.8096  -16.1483   22.3911 N   0  0  0  0  0  0  0  0  0  0  0  0
   10.7849  -16.3076   23.4966 C   0  0  1  0  0  0  0  0  0  0  0  0
   10.2925  -17.3472   24.4540 C   0  0  0  0  0  0  0  0  0  0  0  0
   11.2312  -17.5547   25.5656 C   0  0  0  0  0  0  0  0  0  0  0  0
   12.2712  -16.8982   25.7500 O   0  0  0  0  0  0  0  0  0  0  0  0
   12.0463  -16.7798   22.8769 C   0  0  0  0  0  0  0  0  0  0  0  0
   13.1382  -16.2344   23.2548 O   0  0  0  0  0  0  0  0  0  0  0  0
   10.9792  -18.5558   26.5153 O   0  0  0  0  0  0  0  0  0  0  0  0
   12.1807  -17.7549   21.9258 O   0  0  0  0  0  0  0  0  0  0  0  0
  2  6  1  0
  2  1  1  6
  3  2  1  0
  3  4  1  0
  4  5  2  0
  6 11  1  0
  7  6  2  0
  8  4  1  0
 10 11  1  0
 10 12  1  0
 10  9  1  1
 12 13  2  0
 12 14  1  0
 14 15  1  0
 15 19  1  0
 16 17  1  0
 15 16  1  1
 17 18  2  0
 19 20  2  0
 19 22  1  0
 21 17  1  0
M  END
$$$$
