DAD.pdb
     RDKit          3D

 22 21  0  0  1  0  0  0  0  0999 V2000
    7.7267  -15.2655   17.4736 N   0  0  0  0  0  0  0  0  0  0  0  0
    7.7273  -15.8958   18.7551 C   0  0  1  0  0  0  0  0  0  0  0  0
    8.5466  -17.1670   18.6780 C   0  0  0  0  0  0  0  0  0  0  0  0
    8.0253  -18.0612   17.6224 C   0  0  0  0  0  0  0  0  0  0  0  0
    8.8284  -18.5983   16.8328 O   0  0  0  0  0  0  0  0  0  0  0  0
    8.2388  -15.0461   19.8621 C   0  0  0  0  0  0  0  0  0  0  0  0
    9.3085  -14.4100   19.6475 O   0  0  0  0  0  0  0  0  0  0  0  0
    6.6436  -18.2758   17.5445 O   0  0  0  0  0  0  0  0  0  0  0  0
    6.9264  -13.4169   22.9459 C   0  0  0  0  0  0  0  0  0  0  0  0
    8.0447  -13.9508   22.1242 C   0  0  2  0  0  0  0  0  0  0  0  0
    7.6397  -14.8946   21.1102 N   0  0  0  0  0  0  0  0  0  0  0  0
    9.0717  -14.5665   22.9865 C   0  0  0  0  0  0  0  0  0  0  0  0
    9.5795  -13.8731   23.9153 O   0  0  0  0  0  0  0  0  0  0  0  0
    9.5190  -15.8962   22.8274 N   0  0  0  0  0  0  0  0  0  0  0  0
   10.4899  -16.4955   23.7745 C   0  0  1  0  0  0  0  0  0  0  0  0
    9.9155  -17.7497   24.3549 C   0  0  0  0  0  0  0  0  0  0  0  0
   10.1194  -17.8223   25.8085 C   0  0  0  0  0  0  0  0  0  0  0  0
   10.6688  -16.9423   26.4944 O   0  0  0  0  0  0  0  0  0  0  0  0
   11.6934  -16.8378   22.9792 C   0  0  0  0  0  0  0  0  0  0  0  0
   11.5436  -17.0413   21.7267 O   0  0  0  0  0  0  0  0  0  0  0  0
    9.6790  -18.9479   26.5205 O   0  0  0  0  0  0  0  0  0  0  0  0
   12.9759  -16.9634   23.4406 O   0  0  0  0  0  0  0  0  0  0  0  0
  2  6  1  0
  2  1  1  6
  3  2  1  0
  3  4  1  0
  4  5  2  0
  6 11  1  0
  7  6  2  0
  8  4  1  0
 10 11  1  0
 10 12  1  0
 10  9  1  1
 12 13  2  0
 12 14  1  0
 14 15  1  0
 15 19  1  0
 16 17  1  0
 15 16  1  6
 17 18  2  0
 19 20  2  0
 19 22  1  0
 21 17  1  0
M  END
$$$$
