DAD.pdb
     RDKit          3D

 22 21  0  0  1  0  0  0  0  0999 V2000
    7.9155  -17.6321   17.6663 N   0  0  0  0  0  0  0  0  0  0  0  0
    8.9209  -16.6423   17.4447 C   0  0  1  0  0  0  0  0  0  0  0  0
    8.8201  -16.1494   16.0164 C   0  0  0  0  0  0  0  0  0  0  0  0
    8.9663  -17.2717   15.0650 C   0  0  0  0  0  0  0  0  0  0  0  0
    9.1989  -18.4146   15.5083 O   0  0  0  0  0  0  0  0  0  0  0  0
    8.8617  -15.4821   18.3717 C   0  0  0  0  0  0  0  0  0  0  0  0
    9.8318  -14.6741   18.3394 O   0  0  0  0  0  0  0  0  0  0  0  0
    8.8384  -17.0128   13.6947 O   0  0  0  0  0  0  0  0  0  0  0  0
    6.4804  -13.8282   20.7917 C   0  0  0  0  0  0  0  0  0  0  0  0
    7.8247  -14.1489   20.2430 C   0  0  2  0  0  0  0  0  0  0  0  0
    7.8308  -15.2137   19.2689 N   0  0  0  0  0  0  0  0  0  0  0  0
    8.7638  -14.4750   21.3335 C   0  0  0  0  0  0  0  0  0  0  0  0
    8.9319  -13.6319   22.2620 O   0  0  0  0  0  0  0  0  0  0  0  0
    9.4881  -15.6855   21.3939 N   0  0  0  0  0  0  0  0  0  0  0  0
   10.3859  -15.9837   22.5356 C   0  0  1  0  0  0  0  0  0  0  0  0
    9.8097  -17.1005   23.3484 C   0  0  0  0  0  0  0  0  0  0  0  0
   10.7039  -17.4954   24.4458 C   0  0  0  0  0  0  0  0  0  0  0  0
   11.7544  -16.9055   24.7543 O   0  0  0  0  0  0  0  0  0  0  0  0
   11.6741  -16.4266   21.9502 C   0  0  0  0  0  0  0  0  0  0  0  0
   12.6714  -15.6320   22.0310 O   0  0  0  0  0  0  0  0  0  0  0  0
   10.3926  -18.6141   25.2327 O   0  0  0  0  0  0  0  0  0  0  0  0
   11.9256  -17.6150   21.3195 O   0  0  0  0  0  0  0  0  0  0  0  0
  2  6  1  0
  2  1  1  1
  3  2  1  0
  3  4  1  0
  4  5  2  0
  6 11  1  0
  7  6  2  0
  8  4  1  0
 10 11  1  0
 10 12  1  0
 10  9  1  1
 12 13  2  0
 12 14  1  0
 14 15  1  0
 15 19  1  0
 16 17  1  0
 15 16  1  1
 17 18  2  0
 19 20  2  0
 19 22  1  0
 21 17  1  0
M  END
$$$$
