EVA.pdb
     RDKit          3D

 22 21  0  0  1  0  0  0  0  0999 V2000
   15.4742  -11.0696  -12.1224 N   0  0  0  0  0  0  0  0  0  0  0  0
   16.3061   -9.9060  -11.9116 C   0  0  1  0  0  0  0  0  0  0  0  0
   17.0572   -9.5186  -13.1424 C   0  0  0  0  0  0  0  0  0  0  0  0
   18.0289  -10.5371  -13.6077 C   0  0  0  0  0  0  0  0  0  0  0  0
   17.5961  -11.1935  -14.8408 C   0  0  0  0  0  0  0  0  0  0  0  0
   16.7829  -12.1325  -14.9404 O   0  0  0  0  0  0  0  0  0  0  0  0
   15.5093   -8.7239  -11.4950 C   0  0  0  0  0  0  0  0  0  0  0  0
   14.4683   -8.4811  -12.1591 O   0  0  0  0  0  0  0  0  0  0  0  0
   18.1519  -10.7198  -16.0390 O   0  0  0  0  0  0  0  0  0  0  0  0
   15.5231   -7.1116   -7.6228 C   0  0  0  0  0  0  0  0  0  0  0  0
   14.4363   -6.9177   -8.6457 C   0  0  2  0  0  0  0  0  0  0  0  0
   13.4833   -8.0679   -8.5594 C   0  0  0  0  0  0  0  0  0  0  0  0
   15.0103   -6.7637  -10.0449 C   0  0  2  0  0  0  0  0  0  0  0  0
   15.8562   -7.8774  -10.4129 N   0  0  0  0  0  0  0  0  0  0  0  0
   15.7238   -5.4663  -10.1325 C   0  0  0  0  0  0  0  0  0  0  0  0
   16.8444   -5.4010   -9.5336 O   0  0  0  0  0  0  0  0  0  0  0  0
   15.4844   -2.3595  -12.1623 C   0  0  0  0  0  0  0  0  0  0  0  0
   15.8974   -3.0733  -10.8957 C   0  0  2  0  0  0  0  0  0  0  0  0
   15.2343   -4.3293  -10.8293 N   0  0  0  0  0  0  0  0  0  0  0  0
   15.6913   -2.2060   -9.7202 C   0  0  0  0  0  0  0  0  0  0  0  0
   14.6566   -2.4056   -9.0317 O   0  0  0  0  0  0  0  0  0  0  0  0
   16.5398   -1.2001   -9.3207 O   0  0  0  0  0  0  0  0  0  0  0  0
  2  1  1  6
  2  7  1  0
  2  3  1  0
  4  5  1  0
  4  3  1  0
  5  9  1  0
  6  5  2  0
  7 14  1  0
  7  8  2  0
 11 10  1  1
 11 13  1  0
 12 11  1  0
 13 15  1  0
 13 14  1  1
 15 16  2  0
 15 19  1  0
 18 17  1  6
 19 18  1  0
 20 18  1  0
 20 22  1  0
 21 20  2  0
M  END
$$$$
