EVA.pdb
     RDKit          3D

 22 21  0  0  1  0  0  0  0  0999 V2000
   14.8293  -14.3866  -17.2637 N   0  0  0  0  0  0  0  0  0  0  0  0
   15.4679  -13.5972  -16.2344 C   0  0  1  0  0  0  0  0  0  0  0  0
   16.8873  -14.0029  -16.0110 C   0  0  0  0  0  0  0  0  0  0  0  0
   17.0567  -15.4122  -15.5827 C   0  0  0  0  0  0  0  0  0  0  0  0
   18.4527  -15.7403  -15.2958 C   0  0  0  0  0  0  0  0  0  0  0  0
   19.4561  -15.3387  -15.9159 O   0  0  0  0  0  0  0  0  0  0  0  0
   15.4741  -12.1504  -16.5701 C   0  0  0  0  0  0  0  0  0  0  0  0
   15.5149  -11.8537  -17.7924 O   0  0  0  0  0  0  0  0  0  0  0  0
   18.6916  -16.5962  -14.2098 O   0  0  0  0  0  0  0  0  0  0  0  0
   12.9346   -9.4970  -15.9727 C   0  0  0  0  0  0  0  0  0  0  0  0
   14.2372   -8.9716  -15.4324 C   0  0  2  0  0  0  0  0  0  0  0  0
   14.3196   -7.5048  -15.7163 C   0  0  0  0  0  0  0  0  0  0  0  0
   15.4239   -9.7260  -16.0100 C   0  0  2  0  0  0  0  0  0  0  0  0
   15.4374  -11.1141  -15.6045 N   0  0  0  0  0  0  0  0  0  0  0  0
   16.6728   -9.0206  -15.6326 C   0  0  0  0  0  0  0  0  0  0  0  0
   16.9108   -8.9299  -14.3860 O   0  0  0  0  0  0  0  0  0  0  0  0
   19.4293   -7.2347  -17.4729 C   0  0  0  0  0  0  0  0  0  0  0  0
   18.6935   -7.6364  -16.2153 C   0  0  2  0  0  0  0  0  0  0  0  0
   17.5875   -8.4592  -16.5632 N   0  0  0  0  0  0  0  0  0  0  0  0
   18.3474   -6.4470  -15.4140 C   0  0  0  0  0  0  0  0  0  0  0  0
   17.2845   -5.8417  -15.7114 O   0  0  0  0  0  0  0  0  0  0  0  0
   19.0942   -5.9509  -14.3711 O   0  0  0  0  0  0  0  0  0  0  0  0
  2  1  1  6
  2  7  1  0
  2  3  1  0
  4  5  1  0
  4  3  1  0
  5  9  1  0
  6  5  2  0
  7 14  1  0
  7  8  2  0
 11 10  1  6
 11 13  1  0
 12 11  1  0
 13 15  1  0
 13 14  1  1
 15 16  2  0
 15 19  1  0
 18 17  1  6
 19 18  1  0
 20 18  1  0
 20 22  1  0
 21 20  2  0
M  END
$$$$
