EVA.pdb
     RDKit          3D

 22 21  0  0  1  0  0  0  0  0999 V2000
   18.9189  -11.7806  -18.3216 N   0  0  0  0  0  0  0  0  0  0  0  0
   20.0273  -10.8641  -18.1740 C   0  0  1  0  0  0  0  0  0  0  0  0
   20.0381   -9.8156  -19.2369 C   0  0  0  0  0  0  0  0  0  0  0  0
   20.3725  -10.3237  -20.5890 C   0  0  0  0  0  0  0  0  0  0  0  0
   20.4416   -9.2524  -21.5821 C   0  0  0  0  0  0  0  0  0  0  0  0
   21.4633   -8.8386  -22.1634 O   0  0  0  0  0  0  0  0  0  0  0  0
   19.9939  -10.1610  -16.8662 C   0  0  0  0  0  0  0  0  0  0  0  0
   18.8668  -10.0338  -16.3212 O   0  0  0  0  0  0  0  0  0  0  0  0
   19.2340   -8.6221  -21.9186 O   0  0  0  0  0  0  0  0  0  0  0  0
   21.6999   -8.9716  -12.5319 C   0  0  0  0  0  0  0  0  0  0  0  0
   21.8124   -9.6877  -13.8508 C   0  0  2  0  0  0  0  0  0  0  0  0
   23.2603   -9.8225  -14.2034 C   0  0  0  0  0  0  0  0  0  0  0  0
   21.0301   -8.9726  -14.9406 C   0  0  2  0  0  0  0  0  0  0  0  0
   21.1415   -9.6396  -16.2189 N   0  0  0  0  0  0  0  0  0  0  0  0
   21.4768   -7.5597  -15.0058 C   0  0  0  0  0  0  0  0  0  0  0  0
   22.6803   -7.3685  -15.3716 O   0  0  0  0  0  0  0  0  0  0  0  0
   19.8556   -4.1913  -14.6540 C   0  0  0  0  0  0  0  0  0  0  0  0
   21.0677   -5.0868  -14.7688 C   0  0  2  0  0  0  0  0  0  0  0  0
   20.6547   -6.4450  -14.6904 N   0  0  0  0  0  0  0  0  0  0  0  0
   22.0952   -4.6985  -13.7839 C   0  0  0  0  0  0  0  0  0  0  0  0
   22.0120   -5.2054  -12.6347 O   0  0  0  0  0  0  0  0  0  0  0  0
   23.1328   -3.8285  -14.0244 O   0  0  0  0  0  0  0  0  0  0  0  0
  2  1  1  6
  2  7  1  0
  2  3  1  0
  4  5  1  0
  4  3  1  0
  5  9  1  0
  6  5  2  0
  7 14  1  0
  7  8  2  0
 11 10  1  1
 11 13  1  0
 12 11  1  0
 13 15  1  0
 13 14  1  6
 15 16  2  0
 15 19  1  0
 18 17  1  1
 19 18  1  0
 20 18  1  0
 20 22  1  0
 21 20  2  0
M  END
$$$$
