EVA.pdb
     RDKit          3D

 22 21  0  0  1  0  0  0  0  0999 V2000
   18.1792  -13.5120  -17.5185 N   0  0  0  0  0  0  0  0  0  0  0  0
   19.0677  -12.4591  -17.9570 C   0  0  1  0  0  0  0  0  0  0  0  0
   18.4800  -11.6497  -19.0655 C   0  0  0  0  0  0  0  0  0  0  0  0
   18.2800  -12.4016  -20.3275 C   0  0  0  0  0  0  0  0  0  0  0  0
   17.8307  -11.5401  -21.4206 C   0  0  0  0  0  0  0  0  0  0  0  0
   16.6996  -11.5267  -21.9434 O   0  0  0  0  0  0  0  0  0  0  0  0
   19.3976  -11.5186  -16.8559 C   0  0  0  0  0  0  0  0  0  0  0  0
   18.5125  -11.3418  -15.9790 O   0  0  0  0  0  0  0  0  0  0  0  0
   18.7677  -10.6325  -21.9375 O   0  0  0  0  0  0  0  0  0  0  0  0
   22.5629   -9.4076  -13.8158 C   0  0  0  0  0  0  0  0  0  0  0  0
   22.2655  -10.3114  -14.9818 C   0  0  2  0  0  0  0  0  0  0  0  0
   23.3741  -10.1907  -15.9794 C   0  0  0  0  0  0  0  0  0  0  0  0
   20.9130   -9.9955  -15.5998 C   0  0  2  0  0  0  0  0  0  0  0  0
   20.6302  -10.8281  -16.7479 N   0  0  0  0  0  0  0  0  0  0  0  0
   20.8602   -8.5504  -15.9299 C   0  0  0  0  0  0  0  0  0  0  0  0
   21.5899   -8.1698  -16.9001 O   0  0  0  0  0  0  0  0  0  0  0  0
   18.6587   -5.6665  -15.1285 C   0  0  0  0  0  0  0  0  0  0  0  0
   20.0035   -6.2139  -15.5485 C   0  0  2  0  0  0  0  0  0  0  0  0
   20.0613   -7.6004  -15.2392 N   0  0  0  0  0  0  0  0  0  0  0  0
   21.0956   -5.4084  -14.9698 C   0  0  0  0  0  0  0  0  0  0  0  0
   21.6049   -5.8175  -13.8938 O   0  0  0  0  0  0  0  0  0  0  0  0
   21.5978   -4.2494  -15.5137 O   0  0  0  0  0  0  0  0  0  0  0  0
  2  1  1  1
  2  7  1  0
  2  3  1  0
  4  5  1  0
  4  3  1  0
  5  9  1  0
  6  5  2  0
  7 14  1  0
  7  8  2  0
 11 10  1  1
 11 13  1  0
 12 11  1  0
 13 15  1  0
 13 14  1  6
 15 16  2  0
 15 19  1  0
 18 17  1  1
 19 18  1  0
 20 18  1  0
 20 22  1  0
 21 20  2  0
M  END
$$$$
