EVA.pdb
     RDKit          3D

 22 21  0  0  1  0  0  0  0  0999 V2000
   19.0457  -12.4295  -17.7451 N   0  0  0  0  0  0  0  0  0  0  0  0
   19.7493  -11.1833  -17.9510 C   0  0  1  0  0  0  0  0  0  0  0  0
   19.0030  -10.2559  -18.8523 C   0  0  0  0  0  0  0  0  0  0  0  0
   18.8214  -10.7649  -20.2329 C   0  0  0  0  0  0  0  0  0  0  0  0
   18.0897   -9.8229  -21.0790 C   0  0  0  0  0  0  0  0  0  0  0  0
   16.9053   -9.4609  -20.9414 O   0  0  0  0  0  0  0  0  0  0  0  0
   19.9806  -10.4606  -16.6742 C   0  0  0  0  0  0  0  0  0  0  0  0
   19.0259  -10.4409  -15.8546 O   0  0  0  0  0  0  0  0  0  0  0  0
   18.7906   -9.2662  -22.1597 O   0  0  0  0  0  0  0  0  0  0  0  0
   23.7937   -9.6512  -14.9564 C   0  0  0  0  0  0  0  0  0  0  0  0
   22.4728   -9.7369  -14.2404 C   0  0  2  0  0  0  0  0  0  0  0  0
   22.2050  -11.1675  -13.8936 C   0  0  0  0  0  0  0  0  0  0  0  0
   21.3497   -9.1375  -15.0714 C   0  0  2  0  0  0  0  0  0  0  0  0
   21.1943   -9.8085  -16.3429 N   0  0  0  0  0  0  0  0  0  0  0  0
   21.5930   -7.6833  -15.2322 C   0  0  0  0  0  0  0  0  0  0  0  0
   22.5898   -7.3578  -15.9528 O   0  0  0  0  0  0  0  0  0  0  0  0
   19.7266   -4.5324  -14.5065 C   0  0  0  0  0  0  0  0  0  0  0  0
   21.0115   -5.2719  -14.8005 C   0  0  2  0  0  0  0  0  0  0  0  0
   20.7946   -6.6680  -14.6409 N   0  0  0  0  0  0  0  0  0  0  0  0
   22.1208   -4.7258  -13.9956 C   0  0  0  0  0  0  0  0  0  0  0  0
   22.5905   -3.6111  -14.3440 O   0  0  0  0  0  0  0  0  0  0  0  0
   22.6786   -5.3390  -12.8983 O   0  0  0  0  0  0  0  0  0  0  0  0
  2  1  1  1
  2  7  1  0
  2  3  1  0
  4  5  1  0
  4  3  1  0
  5  9  1  0
  6  5  2  0
  7 14  1  0
  7  8  2  0
 11 10  1  6
 11 13  1  0
 12 11  1  0
 13 15  1  0
 13 14  1  6
 15 16  2  0
 15 19  1  0
 18 17  1  1
 19 18  1  0
 20 18  1  0
 20 22  1  0
 21 20  2  0
M  END
$$$$
