EVA.pdb
     RDKit          3D

 22 21  0  0  1  0  0  0  0  0999 V2000
   21.3005  -12.5817  -18.8577 N   0  0  0  0  0  0  0  0  0  0  0  0
   21.9738  -11.3159  -18.6713 C   0  0  1  0  0  0  0  0  0  0  0  0
   22.0612  -10.5311  -19.9385 C   0  0  0  0  0  0  0  0  0  0  0  0
   22.8656  -11.1801  -21.0014 C   0  0  0  0  0  0  0  0  0  0  0  0
   22.9839  -10.3441  -22.1954 C   0  0  0  0  0  0  0  0  0  0  0  0
   22.5277  -10.5921  -23.3282 O   0  0  0  0  0  0  0  0  0  0  0  0
   21.2797  -10.4612  -17.6745 C   0  0  0  0  0  0  0  0  0  0  0  0
   20.0272  -10.5668  -17.6134 O   0  0  0  0  0  0  0  0  0  0  0  0
   23.6833   -9.1356  -22.0555 O   0  0  0  0  0  0  0  0  0  0  0  0
   23.1767   -9.0433  -14.2453 C   0  0  0  0  0  0  0  0  0  0  0  0
   21.6882   -9.2151  -14.3857 C   0  0  2  0  0  0  0  0  0  0  0  0
   21.3307  -10.6244  -14.0325 C   0  0  0  0  0  0  0  0  0  0  0  0
   21.2148   -8.8457  -15.7824 C   0  0  2  0  0  0  0  0  0  0  0  0
   21.9435   -9.5551  -16.8105 N   0  0  0  0  0  0  0  0  0  0  0  0
   21.3039   -7.3744  -15.9474 C   0  0  0  0  0  0  0  0  0  0  0  0
   22.4772   -6.8828  -15.9710 O   0  0  0  0  0  0  0  0  0  0  0  0
   18.9124   -4.5907  -16.7175 C   0  0  0  0  0  0  0  0  0  0  0  0
   20.2567   -5.1058  -16.2570 C   0  0  2  0  0  0  0  0  0  0  0  0
   20.1809   -6.5140  -16.0763 N   0  0  0  0  0  0  0  0  0  0  0  0
   20.7214   -4.3579  -15.0733 C   0  0  0  0  0  0  0  0  0  0  0  0
   21.0382   -3.1514  -15.2423 O   0  0  0  0  0  0  0  0  0  0  0  0
   20.8347   -4.8760  -13.8044 O   0  0  0  0  0  0  0  0  0  0  0  0
  2  1  1  6
  2  7  1  0
  2  3  1  0
  4  5  1  0
  4  3  1  0
  5  9  1  0
  6  5  2  0
  7 14  1  0
  7  8  2  0
 11 10  1  6
 11 13  1  0
 12 11  1  0
 13 15  1  0
 13 14  1  6
 15 16  2  0
 15 19  1  0
 18 17  1  1
 19 18  1  0
 20 18  1  0
 20 22  1  0
 21 20  2  0
M  END
$$$$
