EVA.pdb
     RDKit          3D

 22 21  0  0  1  0  0  0  0  0999 V2000
   18.1924  -12.4505  -16.4121 N   0  0  0  0  0  0  0  0  0  0  0  0
   18.8735  -11.2937  -16.9490 C   0  0  1  0  0  0  0  0  0  0  0  0
   17.9483  -10.3891  -17.6939 C   0  0  0  0  0  0  0  0  0  0  0  0
   17.2721  -11.0277  -18.8485 C   0  0  0  0  0  0  0  0  0  0  0  0
   16.4337  -10.0864  -19.5898 C   0  0  0  0  0  0  0  0  0  0  0  0
   15.2441   -9.8005  -19.3533 O   0  0  0  0  0  0  0  0  0  0  0  0
   19.5129  -10.4828  -15.8815 C   0  0  0  0  0  0  0  0  0  0  0  0
   18.9039  -10.4137  -14.7825 O   0  0  0  0  0  0  0  0  0  0  0  0
   17.0266   -9.4349  -20.6821 O   0  0  0  0  0  0  0  0  0  0  0  0
   23.6672   -9.5804  -15.7528 C   0  0  0  0  0  0  0  0  0  0  0  0
   22.7268   -9.6787  -14.5820 C   0  0  2  0  0  0  0  0  0  0  0  0
   22.6473  -11.1081  -14.1470 C   0  0  0  0  0  0  0  0  0  0  0  0
   21.3563   -9.1145  -14.9204 C   0  0  2  0  0  0  0  0  0  0  0  0
   20.7448   -9.8002  -16.0372 N   0  0  0  0  0  0  0  0  0  0  0  0
   21.4818   -7.6561  -15.1600 C   0  0  0  0  0  0  0  0  0  0  0  0
   22.0601   -7.3130  -16.2401 O   0  0  0  0  0  0  0  0  0  0  0  0
   19.8095   -4.5918  -14.0846 C   0  0  0  0  0  0  0  0  0  0  0  0
   21.1013   -5.2556  -14.5029 C   0  0  2  0  0  0  0  0  0  0  0  0
   21.0038   -6.6552  -14.2725 N   0  0  0  0  0  0  0  0  0  0  0  0
   22.2542   -4.6040  -13.8527 C   0  0  0  0  0  0  0  0  0  0  0  0
   22.7115   -5.1467  -12.8131 O   0  0  0  0  0  0  0  0  0  0  0  0
   22.8650   -3.4534  -14.2938 O   0  0  0  0  0  0  0  0  0  0  0  0
  2  1  1  1
  2  7  1  0
  2  3  1  0
  4  5  1  0
  4  3  1  0
  5  9  1  0
  6  5  2  0
  7 14  1  0
  7  8  2  0
 11 10  1  6
 11 13  1  0
 12 11  1  0
 13 15  1  0
 13 14  1  6
 15 16  2  0
 15 19  1  0
 18 17  1  1
 19 18  1  0
 20 18  1  0
 20 22  1  0
 21 20  2  0
M  END
$$$$
