EVA.pdb
     RDKit          3D

 22 21  0  0  1  0  0  0  0  0999 V2000
   19.5272  -11.9849  -17.2700 N   0  0  0  0  0  0  0  0  0  0  0  0
   18.7703  -10.7669  -17.4543 C   0  0  1  0  0  0  0  0  0  0  0  0
   17.6326  -10.6585  -16.4935 C   0  0  0  0  0  0  0  0  0  0  0  0
   17.9211  -11.2039  -15.1454 C   0  0  0  0  0  0  0  0  0  0  0  0
   16.7357  -11.2209  -14.2891 C   0  0  0  0  0  0  0  0  0  0  0  0
   16.4394  -10.3907  -13.4084 O   0  0  0  0  0  0  0  0  0  0  0  0
   19.6136   -9.5581  -17.2719 C   0  0  0  0  0  0  0  0  0  0  0  0
   20.7204   -9.7223  -16.6961 O   0  0  0  0  0  0  0  0  0  0  0  0
   15.8354  -12.2810  -14.4753 O   0  0  0  0  0  0  0  0  0  0  0  0
   20.2869   -6.8184  -20.1080 C   0  0  0  0  0  0  0  0  0  0  0  0
   19.9934   -6.1775  -18.7783 C   0  0  2  0  0  0  0  0  0  0  0  0
   20.8666   -4.9727  -18.6214 C   0  0  0  0  0  0  0  0  0  0  0  0
   20.1774   -7.1611  -17.6339 C   0  0  2  0  0  0  0  0  0  0  0  0
   19.2412   -8.2611  -17.7044 N   0  0  0  0  0  0  0  0  0  0  0  0
   20.0828   -6.4273  -16.3484 C   0  0  0  0  0  0  0  0  0  0  0  0
   18.9447   -5.9327  -16.0675 O   0  0  0  0  0  0  0  0  0  0  0  0
   22.2667   -5.9266  -13.3471 C   0  0  0  0  0  0  0  0  0  0  0  0
   21.0838   -5.5525  -14.2102 C   0  0  2  0  0  0  0  0  0  0  0  0
   21.1646   -6.2544  -15.4440 N   0  0  0  0  0  0  0  0  0  0  0  0
   20.9802   -4.0867  -14.3421 C   0  0  0  0  0  0  0  0  0  0  0  0
   21.4204   -3.5714  -15.4028 O   0  0  0  0  0  0  0  0  0  0  0  0
   20.4417   -3.2436  -13.3984 O   0  0  0  0  0  0  0  0  0  0  0  0
  2  1  1  1
  2  7  1  0
  2  3  1  0
  4  5  1  0
  4  3  1  0
  5  9  1  0
  6  5  2  0
  7 14  1  0
  7  8  2  0
 11 10  1  6
 11 13  1  0
 12 11  1  0
 13 15  1  0
 13 14  1  1
 15 16  2  0
 15 19  1  0
 18 17  1  1
 19 18  1  0
 20 18  1  0
 20 22  1  0
 21 20  2  0
M  END
$$$$
