EVA.pdb
     RDKit          3D

 22 21  0  0  1  0  0  0  0  0999 V2000
   20.0580  -12.6199  -18.1559 N   0  0  0  0  0  0  0  0  0  0  0  0
   21.0417  -11.8520  -17.4258 C   0  0  1  0  0  0  0  0  0  0  0  0
   22.3215  -11.7100  -18.1817 C   0  0  0  0  0  0  0  0  0  0  0  0
   23.0333  -12.9889  -18.4179 C   0  0  0  0  0  0  0  0  0  0  0  0
   24.1893  -12.8253  -19.2986 C   0  0  0  0  0  0  0  0  0  0  0  0
   24.5800  -11.7672  -19.8282 O   0  0  0  0  0  0  0  0  0  0  0  0
   20.5591  -10.4808  -17.1213 C   0  0  0  0  0  0  0  0  0  0  0  0
   19.9731   -9.8680  -18.0513 O   0  0  0  0  0  0  0  0  0  0  0  0
   24.9395  -13.9775  -19.5792 O   0  0  0  0  0  0  0  0  0  0  0  0
   19.1098   -9.1564  -13.4664 C   0  0  0  0  0  0  0  0  0  0  0  0
   18.8954   -8.5599  -14.8313 C   0  0  2  0  0  0  0  0  0  0  0  0
   17.8287   -9.3384  -15.5348 C   0  0  0  0  0  0  0  0  0  0  0  0
   20.1875   -8.5223  -15.6312 C   0  0  2  0  0  0  0  0  0  0  0  0
   20.7226   -9.8453  -15.8654 N   0  0  0  0  0  0  0  0  0  0  0  0
   21.1579   -7.6411  -14.9372 C   0  0  0  0  0  0  0  0  0  0  0  0
   21.8007   -8.1650  -13.9723 O   0  0  0  0  0  0  0  0  0  0  0  0
   22.4423   -4.1365  -15.4024 C   0  0  0  0  0  0  0  0  0  0  0  0
   22.3482   -5.4416  -14.6460 C   0  0  2  0  0  0  0  0  0  0  0  0
   21.3981   -6.2848  -15.2847 N   0  0  0  0  0  0  0  0  0  0  0  0
   22.0877   -5.1948  -13.2150 C   0  0  0  0  0  0  0  0  0  0  0  0
   20.8944   -5.2803  -12.8238 O   0  0  0  0  0  0  0  0  0  0  0  0
   23.0452   -4.8795  -12.2795 O   0  0  0  0  0  0  0  0  0  0  0  0
  2  1  1  6
  2  7  1  0
  2  3  1  0
  4  5  1  0
  4  3  1  0
  5  9  1  0
  6  5  2  0
  7 14  1  0
  7  8  2  0
 11 10  1  1
 11 13  1  0
 12 11  1  0
 13 15  1  0
 13 14  1  1
 15 16  2  0
 15 19  1  0
 18 17  1  6
 19 18  1  0
 20 18  1  0
 20 22  1  0
 21 20  2  0
M  END
$$$$
