YHI.pdb
     RDKit          3D

 31 32  0  0  1  0  0  0  0  0999 V2000
    7.7104  -11.8906   18.4245 O   0  0  0  0  0  0  0  0  0  0  0  0
    8.0114  -13.1597   18.9089 C   0  0  0  0  0  0  0  0  0  0  0  0
    8.1224  -14.2424   18.0592 C   0  0  0  0  0  0  0  0  0  0  0  0
    8.4212  -15.4946   18.5521 C   0  0  0  0  0  0  0  0  0  0  0  0
    8.6209  -15.7241   19.8985 C   0  0  0  0  0  0  0  0  0  0  0  0
    8.9428  -17.0839   20.4122 C   0  0  0  0  0  0  0  0  0  0  0  0
    7.6531  -17.8260   20.6913 C   0  0  2  0  0  0  0  0  0  0  0  0
    6.6808  -17.6109   19.6386 N   0  0  0  0  0  0  0  0  0  0  0  0
    7.1117  -17.4251   22.0210 C   0  0  0  0  0  0  0  0  0  0  0  0
    6.0931  -16.7350   22.1636 O   0  0  0  0  0  0  0  0  0  0  0  0
    8.5102  -14.6426   20.7484 C   0  0  0  0  0  0  0  0  0  0  0  0
    8.2082  -13.3760   20.2515 C   0  0  0  0  0  0  0  0  0  0  0  0
    7.8022  -17.8590   23.1820 N   0  0  0  0  0  0  0  0  0  0  0  0
    7.4270  -17.6883   24.5317 C   0  0  1  0  0  0  0  0  0  0  0  0
    7.2202  -18.9452   25.3532 C   0  0  0  0  0  0  0  0  0  0  0  0
    6.3566  -19.9345   24.6655 C   0  0  0  0  0  0  0  0  0  0  0  0
    5.7210  -19.9260   23.4611 C   0  0  0  0  0  0  0  0  0  0  0  0
    5.0417  -21.0868   23.2467 N   0  0  0  0  0  0  0  0  0  0  0  0
    5.2532  -21.8369   24.3320 C   0  0  0  0  0  0  0  0  0  0  0  0
    6.0339  -21.1677   25.1880 N   0  0  0  0  0  0  0  0  0  0  0  0
    8.1586  -16.6214   25.2215 C   0  0  0  0  0  0  0  0  0  0  0  0
    9.4107  -16.5618   24.9687 O   0  0  0  0  0  0  0  0  0  0  0  0
    5.8417  -11.7432   26.5857 C   0  0  0  0  0  0  0  0  0  0  0  0
    6.7875  -12.8385   26.1213 C   0  0  0  0  0  0  0  0  0  0  0  0
    7.4739  -13.5067   27.2838 C   0  0  2  0  0  0  0  0  0  0  0  0
    8.4831  -12.4710   27.8247 C   0  0  0  0  0  0  0  0  0  0  0  0
    8.2902  -14.7194   26.8755 C   0  0  2  0  0  0  0  0  0  0  0  0
    7.6035  -15.6992   26.1031 N   0  0  0  0  0  0  0  0  0  0  0  0
    9.1070  -15.2783   27.9562 C   0  0  0  0  0  0  0  0  0  0  0  0
    8.6586  -16.2976   28.5872 O   0  0  0  0  0  0  0  0  0  0  0  0
   10.3356  -14.8180   28.3801 O   0  0  0  0  0  0  0  0  0  0  0  0
  2  1  1  0
  3  2  2  0
  4  3  1  0
  5  4  2  0
  5 11  1  0
  6  5  1  0
  7  6  1  0
  7  8  1  6
  9 10  2  0
  9  7  1  0
 11 12  2  0
 12  2  1  0
 13  9  1  0
 14 13  1  0
 14 15  1  1
 16 15  1  0
 16 17  2  0
 18 17  1  0
 19 18  1  0
 20 19  2  0
 20 16  1  0
 21 14  1  0
 22 21  2  0
 23 24  1  0
 25 26  1  6
 25 24  1  0
 25 27  1  0
 27 28  1  1
 28 21  1  0
 29 27  1  0
 29 31  1  0
 30 29  2  0
M  END
$$$$
