YHI.pdb
     RDKit          3D

 31 32  0  0  1  0  0  0  0  0999 V2000
    8.0447  -12.8858   15.6014 O   0  0  0  0  0  0  0  0  0  0  0  0
    7.7663  -13.3155   16.8951 C   0  0  0  0  0  0  0  0  0  0  0  0
    6.5462  -13.8766   17.2160 C   0  0  0  0  0  0  0  0  0  0  0  0
    6.2831  -14.2983   18.5018 C   0  0  0  0  0  0  0  0  0  0  0  0
    7.2122  -14.1822   19.5160 C   0  0  0  0  0  0  0  0  0  0  0  0
    6.9098  -14.6434   20.8989 C   0  0  0  0  0  0  0  0  0  0  0  0
    8.1777  -15.1764   21.5315 C   0  0  2  0  0  0  0  0  0  0  0  0
    8.7858  -16.2049   20.7116 N   0  0  0  0  0  0  0  0  0  0  0  0
    7.8903  -15.6767   22.9059 C   0  0  0  0  0  0  0  0  0  0  0  0
    7.1890  -15.0642   23.7228 O   0  0  0  0  0  0  0  0  0  0  0  0
    8.4319  -13.6215   19.1962 C   0  0  0  0  0  0  0  0  0  0  0  0
    8.6992  -13.1948   17.8967 C   0  0  0  0  0  0  0  0  0  0  0  0
    8.4512  -16.9205   23.2952 N   0  0  0  0  0  0  0  0  0  0  0  0
    8.4500  -17.5121   24.5764 C   0  0  1  0  0  0  0  0  0  0  0  0
    8.4926  -19.0260   24.6359 C   0  0  0  0  0  0  0  0  0  0  0  0
    7.3131  -19.6508   23.9911 C   0  0  0  0  0  0  0  0  0  0  0  0
    6.1143  -19.1530   23.5790 C   0  0  0  0  0  0  0  0  0  0  0  0
    5.3379  -20.1210   23.0178 N   0  0  0  0  0  0  0  0  0  0  0  0
    6.0589  -21.2445   23.0773 C   0  0  0  0  0  0  0  0  0  0  0  0
    7.2380  -20.9844   23.6535 N   0  0  0  0  0  0  0  0  0  0  0  0
    9.3223  -16.8381   25.5430 C   0  0  0  0  0  0  0  0  0  0  0  0
   10.5267  -16.6489   25.1573 O   0  0  0  0  0  0  0  0  0  0  0  0
    7.6944  -12.3526   27.7300 C   0  0  0  0  0  0  0  0  0  0  0  0
    8.5222  -13.4950   27.1649 C   0  0  0  0  0  0  0  0  0  0  0  0
    9.0660  -14.3778   28.2576 C   0  0  2  0  0  0  0  0  0  0  0  0
   10.1907  -13.5632   28.9321 C   0  0  0  0  0  0  0  0  0  0  0  0
    9.7180  -15.6433   27.7307 C   0  0  2  0  0  0  0  0  0  0  0  0
    8.9432  -16.4041   26.8093 N   0  0  0  0  0  0  0  0  0  0  0  0
   10.3749  -16.4487   28.7638 C   0  0  0  0  0  0  0  0  0  0  0  0
    9.8109  -17.5374   29.1306 O   0  0  0  0  0  0  0  0  0  0  0  0
   11.5627  -16.1581   29.4007 O   0  0  0  0  0  0  0  0  0  0  0  0
  2  1  1  0
  3  2  2  0
  4  3  1  0
  5  4  2  0
  5 11  1  0
  6  5  1  0
  7  6  1  0
  7  8  1  6
  9 10  2  0
  9  7  1  0
 11 12  2  0
 12  2  1  0
 13  9  1  0
 14 13  1  0
 14 15  1  6
 16 15  1  0
 16 17  2  0
 18 17  1  0
 19 18  1  0
 20 19  2  0
 20 16  1  0
 21 14  1  0
 22 21  2  0
 23 24  1  0
 25 26  1  6
 25 24  1  0
 25 27  1  0
 27 28  1  1
 28 21  1  0
 29 27  1  0
 29 31  1  0
 30 29  2  0
M  END
$$$$
