YHI.pdb
     RDKit          3D

 31 32  0  0  1  0  0  0  0  0999 V2000
    8.6371  -12.7891   15.7083 O   0  0  0  0  0  0  0  0  0  0  0  0
    8.2376  -13.2317   16.9655 C   0  0  0  0  0  0  0  0  0  0  0  0
    9.0574  -14.0317   17.7366 C   0  0  0  0  0  0  0  0  0  0  0  0
    8.6495  -14.4634   18.9806 C   0  0  0  0  0  0  0  0  0  0  0  0
    7.4205  -14.1223   19.5083 C   0  0  0  0  0  0  0  0  0  0  0  0
    6.9973  -14.5983   20.8540 C   0  0  0  0  0  0  0  0  0  0  0  0
    6.8220  -16.1015   20.8151 C   0  0  2  0  0  0  0  0  0  0  0  0
    5.7330  -16.4844   19.9392 N   0  0  0  0  0  0  0  0  0  0  0  0
    6.6196  -16.6271   22.1953 C   0  0  0  0  0  0  0  0  0  0  0  0
    5.5052  -16.7546   22.7207 O   0  0  0  0  0  0  0  0  0  0  0  0
    6.6005  -13.3228   18.7384 C   0  0  0  0  0  0  0  0  0  0  0  0
    7.0116  -12.8856   17.4806 C   0  0  0  0  0  0  0  0  0  0  0  0
    7.7662  -16.9999   22.9431 N   0  0  0  0  0  0  0  0  0  0  0  0
    7.8274  -17.4240   24.2878 C   0  0  1  0  0  0  0  0  0  0  0  0
    7.9699  -18.9127   24.5345 C   0  0  0  0  0  0  0  0  0  0  0  0
    8.0064  -19.2457   25.9785 C   0  0  0  0  0  0  0  0  0  0  0  0
    9.0196  -19.5873   26.8221 C   0  0  0  0  0  0  0  0  0  0  0  0
    8.5664  -19.7917   28.0899 N   0  0  0  0  0  0  0  0  0  0  0  0
    7.2486  -19.5754   28.0437 C   0  0  0  0  0  0  0  0  0  0  0  0
    6.8966  -19.2491   26.7948 N   0  0  0  0  0  0  0  0  0  0  0  0
    8.6716  -16.5803   25.1391 C   0  0  0  0  0  0  0  0  0  0  0  0
    9.8661  -16.3986   24.7205 O   0  0  0  0  0  0  0  0  0  0  0  0
    6.6295  -12.1089   27.0520 C   0  0  0  0  0  0  0  0  0  0  0  0
    7.7038  -13.0507   26.5338 C   0  0  0  0  0  0  0  0  0  0  0  0
    8.3105  -13.8644   27.6468 C   0  0  2  0  0  0  0  0  0  0  0  0
    9.3863  -12.9605   28.2867 C   0  0  0  0  0  0  0  0  0  0  0  0
    9.0375  -15.1013   27.1514 C   0  0  2  0  0  0  0  0  0  0  0  0
    8.2763  -15.9828   26.3318 N   0  0  0  0  0  0  0  0  0  0  0  0
    9.8277  -15.7799   28.1822 C   0  0  0  0  0  0  0  0  0  0  0  0
    9.3312  -16.8216   28.7358 O   0  0  0  0  0  0  0  0  0  0  0  0
   11.0778  -15.4133   28.6336 O   0  0  0  0  0  0  0  0  0  0  0  0
  2  1  1  0
  3  2  2  0
  4  3  1  0
  5  4  2  0
  5 11  1  0
  6  5  1  0
  7  6  1  0
  7  8  1  6
  9 10  2  0
  9  7  1  0
 11 12  2  0
 12  2  1  0
 13  9  1  0
 14 13  1  0
 14 15  1  6
 16 15  1  0
 16 17  2  0
 18 17  1  0
 19 18  1  0
 20 19  2  0
 20 16  1  0
 21 14  1  0
 22 21  2  0
 23 24  1  0
 25 26  1  6
 25 24  1  0
 25 27  1  0
 27 28  1  1
 28 21  1  0
 29 27  1  0
 29 31  1  0
 30 29  2  0
M  END
$$$$
