YHI.pdb
     RDKit          3D

 31 32  0  0  1  0  0  0  0  0999 V2000
    8.8092  -12.3450   16.3865 O   0  0  0  0  0  0  0  0  0  0  0  0
    8.3356  -12.8643   17.5872 C   0  0  0  0  0  0  0  0  0  0  0  0
    6.9903  -12.8389   17.8969 C   0  0  0  0  0  0  0  0  0  0  0  0
    6.5340  -13.3569   19.0901 C   0  0  0  0  0  0  0  0  0  0  0  0
    7.3866  -13.9178   20.0196 C   0  0  0  0  0  0  0  0  0  0  0  0
    6.8752  -14.4723   21.3031 C   0  0  0  0  0  0  0  0  0  0  0  0
    6.8936  -15.9844   21.2316 C   0  0  2  0  0  0  0  0  0  0  0  0
    5.9101  -16.4814   20.2905 N   0  0  0  0  0  0  0  0  0  0  0  0
    6.6856  -16.5616   22.5901 C   0  0  0  0  0  0  0  0  0  0  0  0
    5.6141  -16.4869   23.2070 O   0  0  0  0  0  0  0  0  0  0  0  0
    8.7313  -13.9437   19.7108 C   0  0  0  0  0  0  0  0  0  0  0  0
    9.1939  -13.4204   18.5049 C   0  0  0  0  0  0  0  0  0  0  0  0
    7.7747  -17.2311   23.2056 N   0  0  0  0  0  0  0  0  0  0  0  0
    7.8821  -17.6704   24.5424 C   0  0  1  0  0  0  0  0  0  0  0  0
    8.0050  -19.1641   24.7685 C   0  0  0  0  0  0  0  0  0  0  0  0
    8.1392  -19.5097   26.2038 C   0  0  0  0  0  0  0  0  0  0  0  0
    9.2172  -19.6348   27.0266 C   0  0  0  0  0  0  0  0  0  0  0  0
    8.8424  -19.9602   28.2949 N   0  0  0  0  0  0  0  0  0  0  0  0
    7.5089  -20.0407   28.2699 C   0  0  0  0  0  0  0  0  0  0  0  0
    7.0719  -19.7756   27.0334 N   0  0  0  0  0  0  0  0  0  0  0  0
    8.7768  -16.8523   25.3667 C   0  0  0  0  0  0  0  0  0  0  0  0
    9.9350  -16.6346   24.8705 O   0  0  0  0  0  0  0  0  0  0  0  0
    7.1935  -12.2889   27.4150 C   0  0  0  0  0  0  0  0  0  0  0  0
    8.1432  -13.3420   26.8686 C   0  0  0  0  0  0  0  0  0  0  0  0
    8.6748  -14.2295   27.9634 C   0  0  2  0  0  0  0  0  0  0  0  0
    9.8199  -13.4344   28.6269 C   0  0  0  0  0  0  0  0  0  0  0  0
    9.2975  -15.5112   27.4406 C   0  0  2  0  0  0  0  0  0  0  0  0
    8.4634  -16.3136   26.6106 N   0  0  0  0  0  0  0  0  0  0  0  0
   10.0366  -16.2699   28.4532 C   0  0  0  0  0  0  0  0  0  0  0  0
    9.3842  -17.0866   29.1917 O   0  0  0  0  0  0  0  0  0  0  0  0
   11.3903  -16.2014   28.7057 O   0  0  0  0  0  0  0  0  0  0  0  0
  2  1  1  0
  3  2  2  0
  4  3  1  0
  5  4  2  0
  5 11  1  0
  6  5  1  0
  7  6  1  0
  7  8  1  6
  9 10  2  0
  9  7  1  0
 11 12  2  0
 12  2  1  0
 13  9  1  0
 14 13  1  0
 14 15  1  6
 16 15  1  0
 16 17  2  0
 18 17  1  0
 19 18  1  0
 20 19  2  0
 20 16  1  0
 21 14  1  0
 22 21  2  0
 23 24  1  0
 25 26  1  6
 25 24  1  0
 25 27  1  0
 27 28  1  1
 28 21  1  0
 29 27  1  0
 29 31  1  0
 30 29  2  0
M  END
$$$$
