YHI.pdb
     RDKit          3D

 31 32  0  0  1  0  0  0  0  0999 V2000
    9.3283  -12.3337   16.4365 O   0  0  0  0  0  0  0  0  0  0  0  0
    8.6915  -12.9017   17.5354 C   0  0  0  0  0  0  0  0  0  0  0  0
    7.3217  -13.0736   17.5591 C   0  0  0  0  0  0  0  0  0  0  0  0
    6.7031  -13.6377   18.6543 C   0  0  0  0  0  0  0  0  0  0  0  0
    7.4118  -14.0522   19.7639 C   0  0  0  0  0  0  0  0  0  0  0  0
    6.7261  -14.6594   20.9375 C   0  0  0  0  0  0  0  0  0  0  0  0
    6.6731  -16.1617   20.7575 C   0  0  2  0  0  0  0  0  0  0  0  0
    5.5159  -16.5609   19.9822 N   0  0  0  0  0  0  0  0  0  0  0  0
    6.6951  -16.8355   22.0870 C   0  0  0  0  0  0  0  0  0  0  0  0
    5.6932  -16.9644   22.8038 O   0  0  0  0  0  0  0  0  0  0  0  0
    8.7809  -13.8808   19.7411 C   0  0  0  0  0  0  0  0  0  0  0  0
    9.4076  -13.3106   18.6346 C   0  0  0  0  0  0  0  0  0  0  0  0
    7.9305  -17.3555   22.5522 N   0  0  0  0  0  0  0  0  0  0  0  0
    8.2285  -17.8779   23.8289 C   0  0  1  0  0  0  0  0  0  0  0  0
    8.7946  -19.2829   23.8831 C   0  0  0  0  0  0  0  0  0  0  0  0
    9.1157  -19.7104   25.2656 C   0  0  0  0  0  0  0  0  0  0  0  0
   10.0661  -19.3147   26.1573 C   0  0  0  0  0  0  0  0  0  0  0  0
    9.9628  -19.9954   27.3323 N   0  0  0  0  0  0  0  0  0  0  0  0
    8.9322  -20.8317   27.1780 C   0  0  0  0  0  0  0  0  0  0  0  0
    8.4149  -20.6764   25.9538 N   0  0  0  0  0  0  0  0  0  0  0  0
    8.8845  -16.9203   24.7245 C   0  0  0  0  0  0  0  0  0  0  0  0
   10.0170  -16.4813   24.3247 O   0  0  0  0  0  0  0  0  0  0  0  0
    8.1386  -11.7573   27.5769 C   0  0  0  0  0  0  0  0  0  0  0  0
    8.8096  -13.1149   27.7042 C   0  0  0  0  0  0  0  0  0  0  0  0
    8.2185  -14.1165   26.7469 C   0  0  2  0  0  0  0  0  0  0  0  0
    6.7789  -14.3702   27.2438 C   0  0  0  0  0  0  0  0  0  0  0  0
    8.9217  -15.4612   26.7836 C   0  0  2  0  0  0  0  0  0  0  0  0
    8.3769  -16.4704   25.9392 N   0  0  0  0  0  0  0  0  0  0  0  0
    9.2460  -15.9264   28.1348 C   0  0  0  0  0  0  0  0  0  0  0  0
    8.5735  -16.9038   28.6149 O   0  0  0  0  0  0  0  0  0  0  0  0
   10.2193  -15.4169   28.9679 O   0  0  0  0  0  0  0  0  0  0  0  0
  2  1  1  0
  3  2  2  0
  4  3  1  0
  5  4  2  0
  5 11  1  0
  6  5  1  0
  7  6  1  0
  7  8  1  1
  9 10  2  0
  9  7  1  0
 11 12  2  0
 12  2  1  0
 13  9  1  0
 14 13  1  0
 14 15  1  6
 16 15  1  0
 16 17  2  0
 18 17  1  0
 19 18  1  0
 20 19  2  0
 20 16  1  0
 21 14  1  0
 22 21  2  0
 23 24  1  0
 25 26  1  1
 25 24  1  0
 25 27  1  0
 27 28  1  1
 28 21  1  0
 29 27  1  0
 29 31  1  0
 30 29  2  0
M  END
$$$$
