YHI.pdb
     RDKit          3D

 31 32  0  0  1  0  0  0  0  0999 V2000
    9.1590  -12.5864   16.1772 O   0  0  0  0  0  0  0  0  0  0  0  0
    8.6120  -13.0715   17.3609 C   0  0  0  0  0  0  0  0  0  0  0  0
    7.2478  -13.2254   17.5087 C   0  0  0  0  0  0  0  0  0  0  0  0
    6.7186  -13.7072   18.6869 C   0  0  0  0  0  0  0  0  0  0  0  0
    7.5142  -14.0540   19.7602 C   0  0  0  0  0  0  0  0  0  0  0  0
    6.9243  -14.5727   21.0249 C   0  0  0  0  0  0  0  0  0  0  0  0
    6.9351  -16.0863   20.9921 C   0  0  2  0  0  0  0  0  0  0  0  0
    5.9660  -16.6017   20.0461 N   0  0  0  0  0  0  0  0  0  0  0  0
    6.6990  -16.6275   22.3608 C   0  0  0  0  0  0  0  0  0  0  0  0
    5.5798  -16.6863   22.8882 O   0  0  0  0  0  0  0  0  0  0  0  0
    8.8778  -13.9006   19.6134 C   0  0  0  0  0  0  0  0  0  0  0  0
    9.4141  -13.4136   18.4228 C   0  0  0  0  0  0  0  0  0  0  0  0
    7.8177  -17.0994   23.0949 N   0  0  0  0  0  0  0  0  0  0  0  0
    7.8558  -17.5385   24.4356 C   0  0  1  0  0  0  0  0  0  0  0  0
    8.0038  -19.0289   24.6681 C   0  0  0  0  0  0  0  0  0  0  0  0
    8.0687  -19.3729   26.1086 C   0  0  0  0  0  0  0  0  0  0  0  0
    9.0939  -19.7477   26.9231 C   0  0  0  0  0  0  0  0  0  0  0  0
    8.6684  -19.9487   28.2011 N   0  0  0  0  0  0  0  0  0  0  0  0
    7.3563  -19.6963   28.1908 C   0  0  0  0  0  0  0  0  0  0  0  0
    6.9809  -19.3518   26.9537 N   0  0  0  0  0  0  0  0  0  0  0  0
    8.6774  -16.6989   25.3127 C   0  0  0  0  0  0  0  0  0  0  0  0
    9.8820  -16.5142   24.9256 O   0  0  0  0  0  0  0  0  0  0  0  0
    6.9891  -12.0651   27.0577 C   0  0  0  0  0  0  0  0  0  0  0  0
    8.0072  -13.1186   26.6536 C   0  0  0  0  0  0  0  0  0  0  0  0
    8.3870  -13.9964   27.8172 C   0  0  2  0  0  0  0  0  0  0  0  0
    9.4787  -13.2215   28.5864 C   0  0  0  0  0  0  0  0  0  0  0  0
    9.0205  -15.3082   27.3909 C   0  0  2  0  0  0  0  0  0  0  0  0
    8.2515  -16.1083   26.4982 N   0  0  0  0  0  0  0  0  0  0  0  0
    9.6287  -16.0608   28.4914 C   0  0  0  0  0  0  0  0  0  0  0  0
    8.9075  -16.9209   29.1063 O   0  0  0  0  0  0  0  0  0  0  0  0
   10.9236  -15.9436   28.9501 O   0  0  0  0  0  0  0  0  0  0  0  0
  2  1  1  0
  3  2  2  0
  4  3  1  0
  5  4  2  0
  5 11  1  0
  6  5  1  0
  7  6  1  0
  7  8  1  6
  9 10  2  0
  9  7  1  0
 11 12  2  0
 12  2  1  0
 13  9  1  0
 14 13  1  0
 14 15  1  6
 16 15  1  0
 16 17  2  0
 18 17  1  0
 19 18  1  0
 20 19  2  0
 20 16  1  0
 21 14  1  0
 22 21  2  0
 23 24  1  0
 25 26  1  1
 25 24  1  0
 25 27  1  0
 27 28  1  1
 28 21  1  0
 29 27  1  0
 29 31  1  0
 30 29  2  0
M  END
$$$$
