YHI.pdb
     RDKit          3D

 31 32  0  0  1  0  0  0  0  0999 V2000
    8.1006  -12.4290   16.5437 O   0  0  0  0  0  0  0  0  0  0  0  0
    8.0024  -12.9370   17.8352 C   0  0  0  0  0  0  0  0  0  0  0  0
    6.7878  -13.0007   18.4889 C   0  0  0  0  0  0  0  0  0  0  0  0
    6.7042  -13.5063   19.7686 C   0  0  0  0  0  0  0  0  0  0  0  0
    7.8135  -13.9666   20.4489 C   0  0  0  0  0  0  0  0  0  0  0  0
    7.7036  -14.5093   21.8308 C   0  0  0  0  0  0  0  0  0  0  0  0
    7.5480  -16.0136   21.7612 C   0  0  2  0  0  0  0  0  0  0  0  0
    6.2504  -16.3874   21.2355 N   0  0  0  0  0  0  0  0  0  0  0  0
    7.7826  -16.6132   23.1056 C   0  0  0  0  0  0  0  0  0  0  0  0
    6.9626  -16.5542   24.0321 O   0  0  0  0  0  0  0  0  0  0  0  0
    9.0279  -13.9033   19.7964 C   0  0  0  0  0  0  0  0  0  0  0  0
    9.1138  -13.3924   18.5026 C   0  0  0  0  0  0  0  0  0  0  0  0
    9.0110  -17.2861   23.3321 N   0  0  0  0  0  0  0  0  0  0  0  0
    9.5018  -17.8159   24.5445 C   0  0  1  0  0  0  0  0  0  0  0  0
   10.3848  -19.0443   24.4518 C   0  0  0  0  0  0  0  0  0  0  0  0
   10.7545  -19.5770   25.7849 C   0  0  0  0  0  0  0  0  0  0  0  0
   10.1582  -19.5021   27.0070 C   0  0  0  0  0  0  0  0  0  0  0  0
   10.8732  -20.1712   27.9535 N   0  0  0  0  0  0  0  0  0  0  0  0
   11.9349  -20.6749   27.3176 C   0  0  0  0  0  0  0  0  0  0  0  0
   11.8816  -20.3317   26.0255 N   0  0  0  0  0  0  0  0  0  0  0  0
    9.9679  -16.7988   25.4919 C   0  0  0  0  0  0  0  0  0  0  0  0
   10.8680  -16.0063   25.0482 O   0  0  0  0  0  0  0  0  0  0  0  0
    7.1828  -13.0197   27.3584 C   0  0  0  0  0  0  0  0  0  0  0  0
    8.3615  -13.8920   26.9592 C   0  0  0  0  0  0  0  0  0  0  0  0
    8.9350  -14.6237   28.1444 C   0  0  2  0  0  0  0  0  0  0  0  0
    9.7085  -13.5625   28.9564 C   0  0  0  0  0  0  0  0  0  0  0  0
    9.9512  -15.6820   27.7553 C   0  0  2  0  0  0  0  0  0  0  0  0
    9.5138  -16.6409   26.7975 N   0  0  0  0  0  0  0  0  0  0  0  0
   10.6716  -16.2617   28.8921 C   0  0  0  0  0  0  0  0  0  0  0  0
   11.3934  -15.4854   29.6093 O   0  0  0  0  0  0  0  0  0  0  0  0
   10.6585  -17.5829   29.2861 O   0  0  0  0  0  0  0  0  0  0  0  0
  2  1  1  0
  3  2  2  0
  4  3  1  0
  5  4  2  0
  5 11  1  0
  6  5  1  0
  7  6  1  0
  7  8  1  1
  9 10  2  0
  9  7  1  0
 11 12  2  0
 12  2  1  0
 13  9  1  0
 14 13  1  0
 14 15  1  6
 16 15  1  0
 16 17  2  0
 18 17  1  0
 19 18  1  0
 20 19  2  0
 20 16  1  0
 21 14  1  0
 22 21  2  0
 23 24  1  0
 25 26  1  1
 25 24  1  0
 25 27  1  0
 27 28  1  1
 28 21  1  0
 29 27  1  0
 29 31  1  0
 30 29  2  0
M  END
$$$$
