YHI.pdb
     RDKit          3D

 31 32  0  0  1  0  0  0  0  0999 V2000
   16.5118  -21.7631   12.1568 O   0  0  0  0  0  0  0  0  0  0  0  0
   16.2335  -22.1738   13.4567 C   0  0  0  0  0  0  0  0  0  0  0  0
   17.0780  -21.8597   14.5030 C   0  0  0  0  0  0  0  0  0  0  0  0
   16.7906  -22.2729   15.7863 C   0  0  0  0  0  0  0  0  0  0  0  0
   15.6619  -23.0096   16.0838 C   0  0  0  0  0  0  0  0  0  0  0  0
   15.3682  -23.4470   17.4763 C   0  0  0  0  0  0  0  0  0  0  0  0
   14.0370  -22.8686   17.9067 C   0  0  2  0  0  0  0  0  0  0  0  0
   14.0594  -21.4198   17.8894 N   0  0  0  0  0  0  0  0  0  0  0  0
   13.6659  -23.3901   19.2529 C   0  0  0  0  0  0  0  0  0  0  0  0
   13.7561  -22.7225   20.2924 O   0  0  0  0  0  0  0  0  0  0  0  0
   14.8173  -23.3240   15.0388 C   0  0  0  0  0  0  0  0  0  0  0  0
   15.1066  -22.9069   13.7409 C   0  0  0  0  0  0  0  0  0  0  0  0
   13.1842  -24.7215   19.3443 N   0  0  0  0  0  0  0  0  0  0  0  0
   12.7171  -25.4006   20.4898 C   0  0  1  0  0  0  0  0  0  0  0  0
   11.2479  -25.7722   20.5188 C   0  0  0  0  0  0  0  0  0  0  0  0
   10.8927  -26.7564   19.4688 C   0  0  0  0  0  0  0  0  0  0  0  0
   11.6340  -27.4310   18.5467 C   0  0  0  0  0  0  0  0  0  0  0  0
   10.8589  -28.2554   17.7889 N   0  0  0  0  0  0  0  0  0  0  0  0
    9.6114  -28.0976   18.2410 C   0  0  0  0  0  0  0  0  0  0  0  0
    9.6116  -27.2090   19.2412 N   0  0  0  0  0  0  0  0  0  0  0  0
   13.6220  -26.4499   20.9689 C   0  0  0  0  0  0  0  0  0  0  0  0
   14.2713  -27.0723   20.0600 O   0  0  0  0  0  0  0  0  0  0  0  0
   15.0823  -26.4502   26.3837 C   0  0  0  0  0  0  0  0  0  0  0  0
   14.9419  -26.4310   24.8706 C   0  0  0  0  0  0  0  0  0  0  0  0
   14.9004  -27.8248   24.3008 C   0  0  2  0  0  0  0  0  0  0  0  0
   16.3184  -28.4011   24.5024 C   0  0  0  0  0  0  0  0  0  0  0  0
   14.6429  -27.8486   22.8052 C   0  0  2  0  0  0  0  0  0  0  0  0
   13.8173  -26.8038   22.3002 N   0  0  0  0  0  0  0  0  0  0  0  0
   14.3122  -29.1758   22.2793 C   0  0  0  0  0  0  0  0  0  0  0  0
   13.0771  -29.4993   22.1890 O   0  0  0  0  0  0  0  0  0  0  0  0
   15.2046  -30.1393   21.8598 O   0  0  0  0  0  0  0  0  0  0  0  0
  2  1  1  0
  3  2  2  0
  4  3  1  0
  5  4  2  0
  5 11  1  0
  6  5  1  0
  7  6  1  0
  7  8  1  1
  9 10  2  0
  9  7  1  0
 11 12  2  0
 12  2  1  0
 13  9  1  0
 14 13  1  0
 14 15  1  6
 16 15  1  0
 16 17  2  0
 18 17  1  0
 19 18  1  0
 20 19  2  0
 20 16  1  0
 21 14  1  0
 22 21  2  0
 23 24  1  0
 25 26  1  6
 25 24  1  0
 25 27  1  0
 27 28  1  1
 28 21  1  0
 29 27  1  0
 29 31  1  0
 30 29  2  0
M  END
$$$$
