YHI.pdb
     RDKit          3D

 31 32  0  0  1  0  0  0  0  0999 V2000
    8.3936  -12.9093   16.1010 O   0  0  0  0  0  0  0  0  0  0  0  0
    7.9703  -13.4998   17.2875 C   0  0  0  0  0  0  0  0  0  0  0  0
    7.1436  -12.8282   18.1663 C   0  0  0  0  0  0  0  0  0  0  0  0
    6.7314  -13.4248   19.3386 C   0  0  0  0  0  0  0  0  0  0  0  0
    7.1189  -14.7031   19.6864 C   0  0  0  0  0  0  0  0  0  0  0  0
    6.6634  -15.3309   20.9572 C   0  0  0  0  0  0  0  0  0  0  0  0
    7.6745  -15.0371   22.0449 C   0  0  2  0  0  0  0  0  0  0  0  0
    8.7851  -14.2565   21.5378 N   0  0  0  0  0  0  0  0  0  0  0  0
    8.1428  -16.3101   22.6631 C   0  0  0  0  0  0  0  0  0  0  0  0
    7.4103  -17.2933   22.8396 O   0  0  0  0  0  0  0  0  0  0  0  0
    7.9451  -15.3751   18.8088 C   0  0  0  0  0  0  0  0  0  0  0  0
    8.3626  -14.7732   17.6232 C   0  0  0  0  0  0  0  0  0  0  0  0
    9.4995  -16.3963   23.0692 N   0  0  0  0  0  0  0  0  0  0  0  0
   10.1377  -17.4544   23.7508 C   0  0  1  0  0  0  0  0  0  0  0  0
   10.7627  -18.5431   22.9014 C   0  0  0  0  0  0  0  0  0  0  0  0
    9.7478  -19.3807   22.2189 C   0  0  0  0  0  0  0  0  0  0  0  0
    8.3867  -19.3427   22.1907 C   0  0  0  0  0  0  0  0  0  0  0  0
    7.8759  -20.3259   21.3988 N   0  0  0  0  0  0  0  0  0  0  0  0
    8.9310  -20.9922   20.9213 C   0  0  0  0  0  0  0  0  0  0  0  0
   10.0544  -20.4441   21.3984 N   0  0  0  0  0  0  0  0  0  0  0  0
   10.9560  -17.0212   24.8875 C   0  0  0  0  0  0  0  0  0  0  0  0
   11.9036  -16.2105   24.6047 O   0  0  0  0  0  0  0  0  0  0  0  0
   10.4339  -12.9708   28.4328 C   0  0  0  0  0  0  0  0  0  0  0  0
   10.7937  -14.4386   28.5929 C   0  0  0  0  0  0  0  0  0  0  0  0
   10.4419  -15.2323   27.3619 C   0  0  2  0  0  0  0  0  0  0  0  0
    8.9054  -15.3814   27.3859 C   0  0  0  0  0  0  0  0  0  0  0  0
   11.0040  -16.6421   27.3824 C   0  0  2  0  0  0  0  0  0  0  0  0
   10.7790  -17.4177   26.2093 N   0  0  0  0  0  0  0  0  0  0  0  0
   10.7519  -17.3652   28.6318 C   0  0  0  0  0  0  0  0  0  0  0  0
   11.3701  -16.9842   29.6856 O   0  0  0  0  0  0  0  0  0  0  0  0
    9.9016  -18.4368   28.8039 O   0  0  0  0  0  0  0  0  0  0  0  0
  2  1  1  0
  3  2  2  0
  4  3  1  0
  5  4  2  0
  5 11  1  0
  6  5  1  0
  7  6  1  0
  7  8  1  6
  9 10  2  0
  9  7  1  0
 11 12  2  0
 12  2  1  0
 13  9  1  0
 14 13  1  0
 14 15  1  6
 16 15  1  0
 16 17  2  0
 18 17  1  0
 19 18  1  0
 20 19  2  0
 20 16  1  0
 21 14  1  0
 22 21  2  0
 23 24  1  0
 25 26  1  1
 25 24  1  0
 25 27  1  0
 27 28  1  6
 28 21  1  0
 29 27  1  0
 29 31  1  0
 30 29  2  0
M  END
$$$$
