YHI.pdb
     RDKit          3D

 31 32  0  0  1  0  0  0  0  0999 V2000
    4.8645   -9.4682   26.2914 O   0  0  0  0  0  0  0  0  0  0  0  0
    5.5101  -10.6943   26.1660 C   0  0  0  0  0  0  0  0  0  0  0  0
    6.5632  -10.8624   25.2889 C   0  0  0  0  0  0  0  0  0  0  0  0
    7.1942  -12.0826   25.1742 C   0  0  0  0  0  0  0  0  0  0  0  0
    6.8103  -13.1794   25.9191 C   0  0  0  0  0  0  0  0  0  0  0  0
    7.5041  -14.4894   25.7815 C   0  0  0  0  0  0  0  0  0  0  0  0
    6.7799  -15.3273   24.7492 C   0  0  2  0  0  0  0  0  0  0  0  0
    5.4889  -15.7686   25.2375 N   0  0  0  0  0  0  0  0  0  0  0  0
    7.6304  -16.4818   24.3420 C   0  0  0  0  0  0  0  0  0  0  0  0
    7.6222  -17.5749   24.9246 O   0  0  0  0  0  0  0  0  0  0  0  0
    5.7579  -13.0123   26.7961 C   0  0  0  0  0  0  0  0  0  0  0  0
    5.1190  -11.7793   26.9130 C   0  0  0  0  0  0  0  0  0  0  0  0
    8.4931  -16.3161   23.2280 N   0  0  0  0  0  0  0  0  0  0  0  0
    9.7693  -16.8831   23.0245 C   0  0  1  0  0  0  0  0  0  0  0  0
   10.3772  -16.7335   21.6440 C   0  0  0  0  0  0  0  0  0  0  0  0
   11.6172  -17.5295   21.4828 C   0  0  0  0  0  0  0  0  0  0  0  0
   11.8448  -18.8634   21.3287 C   0  0  0  0  0  0  0  0  0  0  0  0
   13.1739  -19.1319   21.2016 N   0  0  0  0  0  0  0  0  0  0  0  0
   13.7918  -17.9496   21.2764 C   0  0  0  0  0  0  0  0  0  0  0  0
   12.8815  -16.9835   21.4438 N   0  0  0  0  0  0  0  0  0  0  0  0
   10.7038  -16.6561   24.1311 C   0  0  0  0  0  0  0  0  0  0  0  0
   11.3230  -15.5376   24.1064 O   0  0  0  0  0  0  0  0  0  0  0  0
   10.5474  -13.9717   27.8498 C   0  0  0  0  0  0  0  0  0  0  0  0
   11.1293  -14.9227   26.8170 C   0  0  0  0  0  0  0  0  0  0  0  0
   11.1956  -16.3340   27.3395 C   0  0  2  0  0  0  0  0  0  0  0  0
   12.2024  -16.2996   28.5095 C   0  0  0  0  0  0  0  0  0  0  0  0
   11.7562  -17.3170   26.3279 C   0  0  2  0  0  0  0  0  0  0  0  0
   10.9554  -17.5439   25.1724 N   0  0  0  0  0  0  0  0  0  0  0  0
   12.3004  -18.5398   26.9248 C   0  0  0  0  0  0  0  0  0  0  0  0
   11.5923  -19.6046   26.8720 O   0  0  0  0  0  0  0  0  0  0  0  0
   13.5205  -18.6754   27.5523 O   0  0  0  0  0  0  0  0  0  0  0  0
  2  1  1  0
  3  2  2  0
  4  3  1  0
  5  4  2  0
  5 11  1  0
  6  5  1  0
  7  6  1  0
  7  8  1  1
  9 10  2  0
  9  7  1  0
 11 12  2  0
 12  2  1  0
 13  9  1  0
 14 13  1  0
 14 15  1  6
 16 15  1  0
 16 17  2  0
 18 17  1  0
 19 18  1  0
 20 19  2  0
 20 16  1  0
 21 14  1  0
 22 21  2  0
 23 24  1  0
 25 26  1  1
 25 24  1  0
 25 27  1  0
 27 28  1  6
 28 21  1  0
 29 27  1  0
 29 31  1  0
 30 29  2  0
M  END
$$$$
