YHI.pdb
     RDKit          3D

 31 32  0  0  1  0  0  0  0  0999 V2000
    8.0862  -12.3694   16.4735 O   0  0  0  0  0  0  0  0  0  0  0  0
    8.0581  -12.9153   17.7529 C   0  0  0  0  0  0  0  0  0  0  0  0
    9.2242  -13.2135   18.4297 C   0  0  0  0  0  0  0  0  0  0  0  0
    9.1824  -13.7542   19.6970 C   0  0  0  0  0  0  0  0  0  0  0  0
    7.9912  -14.0199   20.3418 C   0  0  0  0  0  0  0  0  0  0  0  0
    7.9661  -14.6041   21.7109 C   0  0  0  0  0  0  0  0  0  0  0  0
    8.1615  -16.1022   21.6138 C   0  0  2  0  0  0  0  0  0  0  0  0
    7.0720  -16.7322   20.8954 N   0  0  0  0  0  0  0  0  0  0  0  0
    8.3225  -16.6849   22.9763 C   0  0  0  0  0  0  0  0  0  0  0  0
    7.3873  -16.8154   23.7780 O   0  0  0  0  0  0  0  0  0  0  0  0
    6.8253  -13.7222   19.6662 C   0  0  0  0  0  0  0  0  0  0  0  0
    6.8661  -13.1756   18.3849 C   0  0  0  0  0  0  0  0  0  0  0  0
    9.6165  -17.1113   23.3721 N   0  0  0  0  0  0  0  0  0  0  0  0
   10.0254  -17.5926   24.6342 C   0  0  1  0  0  0  0  0  0  0  0  0
   11.0073  -18.7472   24.6458 C   0  0  0  0  0  0  0  0  0  0  0  0
   10.4812  -19.9441   23.9473 C   0  0  0  0  0  0  0  0  0  0  0  0
    9.2577  -20.2497   23.4329 C   0  0  0  0  0  0  0  0  0  0  0  0
    9.2512  -21.4852   22.8599 N   0  0  0  0  0  0  0  0  0  0  0  0
   10.4889  -21.9639   23.0156 C   0  0  0  0  0  0  0  0  0  0  0  0
   11.2357  -21.0606   23.6608 N   0  0  0  0  0  0  0  0  0  0  0  0
   10.3140  -16.5356   25.6083 C   0  0  0  0  0  0  0  0  0  0  0  0
   11.3139  -15.7891   25.3286 O   0  0  0  0  0  0  0  0  0  0  0  0
    7.5268  -12.4947   27.0139 C   0  0  0  0  0  0  0  0  0  0  0  0
    8.6837  -13.4592   26.8114 C   0  0  0  0  0  0  0  0  0  0  0  0
    8.9678  -14.2526   28.0599 C   0  0  2  0  0  0  0  0  0  0  0  0
    9.6765  -13.2761   29.0232 C   0  0  0  0  0  0  0  0  0  0  0  0
    9.9374  -15.3975   27.8294 C   0  0  2  0  0  0  0  0  0  0  0  0
    9.5990  -16.2959   26.7774 N   0  0  0  0  0  0  0  0  0  0  0  0
   10.3790  -16.0602   29.0595 C   0  0  0  0  0  0  0  0  0  0  0  0
   10.9949  -15.3593   29.9356 O   0  0  0  0  0  0  0  0  0  0  0  0
   10.2006  -17.3874   29.3875 O   0  0  0  0  0  0  0  0  0  0  0  0
  2  1  1  0
  3  2  2  0
  4  3  1  0
  5  4  2  0
  5 11  1  0
  6  5  1  0
  7  6  1  0
  7  8  1  1
  9 10  2  0
  9  7  1  0
 11 12  2  0
 12  2  1  0
 13  9  1  0
 14 13  1  0
 14 15  1  6
 16 15  1  0
 16 17  2  0
 18 17  1  0
 19 18  1  0
 20 19  2  0
 20 16  1  0
 21 14  1  0
 22 21  2  0
 23 24  1  0
 25 26  1  1
 25 24  1  0
 25 27  1  0
 27 28  1  6
 28 21  1  0
 29 27  1  0
 29 31  1  0
 30 29  2  0
M  END
$$$$
