YHI.pdb
     RDKit          3D

 31 32  0  0  1  0  0  0  0  0999 V2000
    8.7025  -12.1626   17.2561 O   0  0  0  0  0  0  0  0  0  0  0  0
    8.2425  -12.8836   18.3534 C   0  0  0  0  0  0  0  0  0  0  0  0
    7.6630  -12.2497   19.4346 C   0  0  0  0  0  0  0  0  0  0  0  0
    7.2113  -12.9759   20.5157 C   0  0  0  0  0  0  0  0  0  0  0  0
    7.3145  -14.3513   20.5698 C   0  0  0  0  0  0  0  0  0  0  0  0
    6.8208  -15.1186   21.7462 C   0  0  0  0  0  0  0  0  0  0  0  0
    7.2203  -16.5708   21.5933 C   0  0  2  0  0  0  0  0  0  0  0  0
    6.1279  -17.3678   21.0723 N   0  0  0  0  0  0  0  0  0  0  0  0
    7.7091  -17.1050   22.8962 C   0  0  0  0  0  0  0  0  0  0  0  0
    6.9572  -17.4491   23.8184 O   0  0  0  0  0  0  0  0  0  0  0  0
    7.8935  -14.9857   19.4897 C   0  0  0  0  0  0  0  0  0  0  0  0
    8.3506  -14.2528   18.3960 C   0  0  0  0  0  0  0  0  0  0  0  0
    9.1101  -17.2242   23.0862 N   0  0  0  0  0  0  0  0  0  0  0  0
    9.7979  -17.6455   24.2443 C   0  0  1  0  0  0  0  0  0  0  0  0
   10.8480  -18.7241   24.0673 C   0  0  0  0  0  0  0  0  0  0  0  0
   10.2779  -19.9880   23.5430 C   0  0  0  0  0  0  0  0  0  0  0  0
   10.0357  -20.4380   22.2806 C   0  0  0  0  0  0  0  0  0  0  0  0
    9.5060  -21.6926   22.2906 N   0  0  0  0  0  0  0  0  0  0  0  0
    9.4137  -22.0373   23.5783 C   0  0  0  0  0  0  0  0  0  0  0  0
    9.8686  -21.0352   24.3391 N   0  0  0  0  0  0  0  0  0  0  0  0
   10.1929  -16.5485   25.1329 C   0  0  0  0  0  0  0  0  0  0  0  0
   11.0409  -15.7249   24.6454 O   0  0  0  0  0  0  0  0  0  0  0  0
    7.3457  -12.7087   26.7806 C   0  0  0  0  0  0  0  0  0  0  0  0
    8.5066  -13.6265   26.4346 C   0  0  0  0  0  0  0  0  0  0  0  0
    9.0810  -14.2800   27.6642 C   0  0  2  0  0  0  0  0  0  0  0  0
    9.8206  -13.1593   28.4262 C   0  0  0  0  0  0  0  0  0  0  0  0
   10.1251  -15.3344   27.3447 C   0  0  2  0  0  0  0  0  0  0  0  0
    9.7245  -16.3475   26.4275 N   0  0  0  0  0  0  0  0  0  0  0  0
   10.8363  -15.8431   28.5206 C   0  0  0  0  0  0  0  0  0  0  0  0
   10.4501  -16.9533   29.0268 O   0  0  0  0  0  0  0  0  0  0  0  0
   11.9022  -15.2450   29.1588 O   0  0  0  0  0  0  0  0  0  0  0  0
  2  1  1  0
  3  2  2  0
  4  3  1  0
  5  4  2  0
  5 11  1  0
  6  5  1  0
  7  6  1  0
  7  8  1  1
  9 10  2  0
  9  7  1  0
 11 12  2  0
 12  2  1  0
 13  9  1  0
 14 13  1  0
 14 15  1  6
 16 15  1  0
 16 17  2  0
 18 17  1  0
 19 18  1  0
 20 19  2  0
 20 16  1  0
 21 14  1  0
 22 21  2  0
 23 24  1  0
 25 26  1  1
 25 24  1  0
 25 27  1  0
 27 28  1  1
 28 21  1  0
 29 27  1  0
 29 31  1  0
 30 29  2  0
M  END
$$$$
