YHI.pdb
     RDKit          3D

 31 32  0  0  1  0  0  0  0  0999 V2000
    7.7222  -12.7222   15.2682 O   0  0  0  0  0  0  0  0  0  0  0  0
    7.5977  -13.1803   16.5760 C   0  0  0  0  0  0  0  0  0  0  0  0
    6.9153  -14.3456   16.8643 C   0  0  0  0  0  0  0  0  0  0  0  0
    6.7992  -14.7886   18.1645 C   0  0  0  0  0  0  0  0  0  0  0  0
    7.3509  -14.0997   19.2257 C   0  0  0  0  0  0  0  0  0  0  0  0
    7.2150  -14.5938   20.6235 C   0  0  0  0  0  0  0  0  0  0  0  0
    8.5755  -15.0201   21.1326 C   0  0  2  0  0  0  0  0  0  0  0  0
    9.2233  -15.9315   20.2108 N   0  0  0  0  0  0  0  0  0  0  0  0
    8.4464  -15.6214   22.4904 C   0  0  0  0  0  0  0  0  0  0  0  0
    7.8844  -15.0545   23.4375 O   0  0  0  0  0  0  0  0  0  0  0  0
    8.0331  -12.9350   18.9386 C   0  0  0  0  0  0  0  0  0  0  0  0
    8.1512  -12.4860   17.6245 C   0  0  0  0  0  0  0  0  0  0  0  0
    8.9973  -16.9111   22.7052 N   0  0  0  0  0  0  0  0  0  0  0  0
    9.0016  -17.6675   23.8966 C   0  0  1  0  0  0  0  0  0  0  0  0
    9.0215  -19.1764   23.7543 C   0  0  0  0  0  0  0  0  0  0  0  0
    7.8566  -19.6882   22.9937 C   0  0  0  0  0  0  0  0  0  0  0  0
    6.5462  -19.3195   22.9530 C   0  0  0  0  0  0  0  0  0  0  0  0
    5.8387  -20.0858   22.0772 N   0  0  0  0  0  0  0  0  0  0  0  0
    6.7169  -20.9492   21.5589 C   0  0  0  0  0  0  0  0  0  0  0  0
    7.9238  -20.7279   22.0923 N   0  0  0  0  0  0  0  0  0  0  0  0
    9.8951  -17.1399   24.9323 C   0  0  0  0  0  0  0  0  0  0  0  0
   11.0689  -16.8232   24.5358 O   0  0  0  0  0  0  0  0  0  0  0  0
   10.6594  -12.8954   28.9544 C   0  0  0  0  0  0  0  0  0  0  0  0
   10.9457  -14.3665   28.7024 C   0  0  0  0  0  0  0  0  0  0  0  0
   10.0978  -14.9116   27.5831 C   0  0  2  0  0  0  0  0  0  0  0  0
    8.6406  -14.8356   28.0875 C   0  0  0  0  0  0  0  0  0  0  0  0
   10.3684  -16.3763   27.2910 C   0  0  2  0  0  0  0  0  0  0  0  0
    9.5657  -16.9653   26.2727 N   0  0  0  0  0  0  0  0  0  0  0  0
   10.5117  -17.2058   28.4905 C   0  0  0  0  0  0  0  0  0  0  0  0
    9.6012  -18.0701   28.7397 O   0  0  0  0  0  0  0  0  0  0  0  0
   11.5436  -17.1587   29.4037 O   0  0  0  0  0  0  0  0  0  0  0  0
  2  1  1  0
  3  2  2  0
  4  3  1  0
  5  4  2  0
  5 11  1  0
  6  5  1  0
  7  6  1  0
  7  8  1  6
  9 10  2  0
  9  7  1  0
 11 12  2  0
 12  2  1  0
 13  9  1  0
 14 13  1  0
 14 15  1  6
 16 15  1  0
 16 17  2  0
 18 17  1  0
 19 18  1  0
 20 19  2  0
 20 16  1  0
 21 14  1  0
 22 21  2  0
 23 24  1  0
 25 26  1  1
 25 24  1  0
 25 27  1  0
 27 28  1  6
 28 21  1  0
 29 27  1  0
 29 31  1  0
 30 29  2  0
M  END
$$$$
