NGH.pdb
     RDKit          3D

 23 23  0  0  1  0  0  0  0  0999 V2000
    1.7041  -19.2050   21.1489 N   0  0  0  0  0  0  0  0  0  0  0  0
    3.1148  -19.2458   21.2736 C   0  0  0  0  0  0  0  0  0  0  0  0
    3.6645  -20.3574   21.4539 O   0  0  0  0  0  0  0  0  0  0  0  0
    3.8735  -17.9851   21.1871 C   0  0  0  0  0  0  0  0  0  0  0  0
    5.2186  -18.2242   21.8482 C   0  0  2  0  0  0  0  0  0  0  0  0
    5.0795  -18.3282   23.2793 N   0  0  0  0  0  0  0  0  0  0  0  0
    6.0915  -17.0763   21.5213 C   0  0  0  0  0  0  0  0  0  0  0  0
    6.9353  -17.1558   20.5641 O   0  0  0  0  0  0  0  0  0  0  0  0
    5.9841  -15.8898   22.2786 N   0  0  0  0  0  0  0  0  0  0  0  0
    6.8182  -14.7821   21.9259 C   0  0  0  0  0  0  0  0  0  0  0  0
    7.8658  -14.6244   22.9705 C   0  0  0  0  0  0  0  0  0  0  0  0
    8.7229  -13.7047   22.9052 O   0  0  0  0  0  0  0  0  0  0  0  0
    7.9469  -15.5140   24.0992 N   0  0  0  0  0  0  0  0  0  0  0  0
    8.9877  -15.3894   25.0854 C   0  0  1  0  0  0  0  0  0  0  0  0
    8.4247  -15.1490   26.4679 C   0  0  0  0  0  0  0  0  0  0  0  0
    7.6939  -13.8666   26.5524 C   0  0  0  0  0  0  0  0  0  0  0  0
    8.2542  -12.6330   26.2631 C   0  0  0  0  0  0  0  0  0  0  0  0
    7.3207  -11.6693   26.4388 N   0  0  0  0  0  0  0  0  0  0  0  0
    6.2055  -12.2864   26.8283 C   0  0  0  0  0  0  0  0  0  0  0  0
    6.4226  -13.6063   26.8986 N   0  0  0  0  0  0  0  0  0  0  0  0
    9.8980  -16.5370   25.0345 C   0  0  0  0  0  0  0  0  0  0  0  0
    9.6361  -17.4935   24.2648 O   0  0  0  0  0  0  0  0  0  0  0  0
   11.0506  -16.6256   25.8015 O   0  0  0  0  0  0  0  0  0  0  0  0
  2  1  1  0
  3  2  2  0
  4  2  1  0
  4  5  1  0
  5  7  1  0
  5  6  1  1
  7  9  1  0
  7  8  2  0
  9 10  1  0
 10 11  1  0
 11 12  2  0
 13 11  1  0
 13 14  1  0
 14 15  1  1
 15 16  1  0
 16 17  2  0
 17 18  1  0
 19 18  1  0
 20 16  1  0
 20 19  2  0
 21 14  1  0
 21 23  1  0
 22 21  2  0
M  END
$$$$
