NGH.pdb
     RDKit          3D

 23 23  0  0  1  0  0  0  0  0999 V2000
    5.3406  -21.4128   21.8863 N   0  0  0  0  0  0  0  0  0  0  0  0
    5.9844  -20.8133   22.9968 C   0  0  0  0  0  0  0  0  0  0  0  0
    5.5295  -21.0400   24.1423 O   0  0  0  0  0  0  0  0  0  0  0  0
    7.1563  -19.9515   22.7599 C   0  0  0  0  0  0  0  0  0  0  0  0
    7.2451  -18.9835   23.9256 C   0  0  2  0  0  0  0  0  0  0  0  0
    6.1002  -18.1080   23.9581 N   0  0  0  0  0  0  0  0  0  0  0  0
    8.4739  -18.1796   23.7510 C   0  0  0  0  0  0  0  0  0  0  0  0
    9.6133  -18.7508   23.6520 O   0  0  0  0  0  0  0  0  0  0  0  0
    8.3760  -16.7724   23.6953 N   0  0  0  0  0  0  0  0  0  0  0  0
    9.5769  -16.0155   23.5166 C   0  0  0  0  0  0  0  0  0  0  0  0
    9.9344  -15.3782   24.8126 C   0  0  0  0  0  0  0  0  0  0  0  0
   10.8916  -14.5654   24.9010 O   0  0  0  0  0  0  0  0  0  0  0  0
    9.2045  -15.6618   26.0204 N   0  0  0  0  0  0  0  0  0  0  0  0
    9.5625  -15.0598   27.2778 C   0  0  1  0  0  0  0  0  0  0  0  0
    8.3683  -14.4298   27.9582 C   0  0  0  0  0  0  0  0  0  0  0  0
    7.6055  -13.5567   27.0408 C   0  0  0  0  0  0  0  0  0  0  0  0
    7.7187  -12.1763   27.0090 C   0  0  0  0  0  0  0  0  0  0  0  0
    6.8883  -11.6847   26.0604 N   0  0  0  0  0  0  0  0  0  0  0  0
    6.2722  -12.7324   25.5140 C   0  0  0  0  0  0  0  0  0  0  0  0
    6.6983  -13.8600   26.0982 N   0  0  0  0  0  0  0  0  0  0  0  0
   10.2654  -16.0177   28.1360 C   0  0  0  0  0  0  0  0  0  0  0  0
   10.6679  -15.6478   29.2661 O   0  0  0  0  0  0  0  0  0  0  0  0
   10.5142  -17.3304   27.7626 O   0  0  0  0  0  0  0  0  0  0  0  0
  2  1  1  0
  3  2  2  0
  4  2  1  0
  4  5  1  0
  5  7  1  0
  5  6  1  6
  7  9  1  0
  7  8  2  0
  9 10  1  0
 10 11  1  0
 11 12  2  0
 13 11  1  0
 13 14  1  0
 14 15  1  1
 15 16  1  0
 16 17  2  0
 17 18  1  0
 19 18  1  0
 20 16  1  0
 20 19  2  0
 21 14  1  0
 21 23  1  0
 22 21  2  0
M  END
$$$$
