NGH.pdb
     RDKit          3D

 23 23  0  0  1  0  0  0  0  0999 V2000
    8.5393  -13.3211   16.4341 N   0  0  0  0  0  0  0  0  0  0  0  0
    8.1997  -14.0605   17.5939 C   0  0  0  0  0  0  0  0  0  0  0  0
    8.7841  -15.1503   17.7974 O   0  0  0  0  0  0  0  0  0  0  0  0
    7.1778  -13.5202   18.5083 C   0  0  0  0  0  0  0  0  0  0  0  0
    7.8392  -13.3345   19.8617 C   0  0  2  0  0  0  0  0  0  0  0  0
    9.1700  -12.7996   19.7171 N   0  0  0  0  0  0  0  0  0  0  0  0
    7.9101  -14.6597   20.5140 C   0  0  0  0  0  0  0  0  0  0  0  0
    6.8526  -15.3594   20.6763 O   0  0  0  0  0  0  0  0  0  0  0  0
    9.1595  -15.1448   20.9572 N   0  0  0  0  0  0  0  0  0  0  0  0
    9.1932  -16.3921   21.6573 C   0  0  0  0  0  0  0  0  0  0  0  0
    9.4352  -16.1211   23.1000 C   0  0  0  0  0  0  0  0  0  0  0  0
   10.5821  -15.8273   23.5281 O   0  0  0  0  0  0  0  0  0  0  0  0
    8.3724  -16.1830   24.0687 N   0  0  0  0  0  0  0  0  0  0  0  0
    8.6379  -16.1630   25.4832 C   0  0  1  0  0  0  0  0  0  0  0  0
    7.4352  -15.6989   26.2732 C   0  0  0  0  0  0  0  0  0  0  0  0
    7.1727  -14.2562   26.0851 C   0  0  0  0  0  0  0  0  0  0  0  0
    8.0594  -13.3774   25.4844 C   0  0  0  0  0  0  0  0  0  0  0  0
    7.5154  -12.1385   25.4702 N   0  0  0  0  0  0  0  0  0  0  0  0
    6.3190  -12.2417   26.0481 C   0  0  0  0  0  0  0  0  0  0  0  0
    6.1067  -13.5109   26.4198 N   0  0  0  0  0  0  0  0  0  0  0  0
    9.1512  -17.4581   25.9383 C   0  0  0  0  0  0  0  0  0  0  0  0
    9.5591  -17.5750   27.1198 O   0  0  0  0  0  0  0  0  0  0  0  0
    9.2121  -18.5790   25.1230 O   0  0  0  0  0  0  0  0  0  0  0  0
  2  1  1  0
  3  2  2  0
  4  2  1  0
  4  5  1  0
  5  7  1  0
  5  6  1  6
  7  9  1  0
  7  8  2  0
  9 10  1  0
 10 11  1  0
 11 12  2  0
 13 11  1  0
 13 14  1  0
 14 15  1  1
 15 16  1  0
 16 17  2  0
 17 18  1  0
 19 18  1  0
 20 16  1  0
 20 19  2  0
 21 14  1  0
 21 23  1  0
 22 21  2  0
M  END
$$$$
