NGH.pdb
     RDKit          3D

 23 23  0  0  1  0  0  0  0  0999 V2000
    5.3332  -20.5892   21.2366 N   0  0  0  0  0  0  0  0  0  0  0  0
    5.1173  -19.5646   20.2824 C   0  0  0  0  0  0  0  0  0  0  0  0
    3.9980  -19.4990   19.7224 O   0  0  0  0  0  0  0  0  0  0  0  0
    6.2127  -18.6233   19.9887 C   0  0  0  0  0  0  0  0  0  0  0  0
    7.3943  -19.0256   20.8522 C   0  0  2  0  0  0  0  0  0  0  0  0
    6.9853  -19.2452   22.2170 N   0  0  0  0  0  0  0  0  0  0  0  0
    8.3814  -17.9256   20.8057 C   0  0  0  0  0  0  0  0  0  0  0  0
    9.3024  -17.9186   19.9192 O   0  0  0  0  0  0  0  0  0  0  0  0
    8.2967  -16.8817   21.7523 N   0  0  0  0  0  0  0  0  0  0  0  0
    9.3438  -15.9072   21.7828 C   0  0  0  0  0  0  0  0  0  0  0  0
    9.7924  -15.7354   23.1910 C   0  0  0  0  0  0  0  0  0  0  0  0
   10.6919  -14.9092   23.4959 O   0  0  0  0  0  0  0  0  0  0  0  0
    9.2203  -16.5043   24.2649 N   0  0  0  0  0  0  0  0  0  0  0  0
    9.5786  -16.2659   25.6384 C   0  0  1  0  0  0  0  0  0  0  0  0
    8.3587  -16.0878   26.5136 C   0  0  0  0  0  0  0  0  0  0  0  0
    7.4780  -15.0068   26.0221 C   0  0  0  0  0  0  0  0  0  0  0  0
    7.9089  -13.7195   25.7457 C   0  0  0  0  0  0  0  0  0  0  0  0
    6.8585  -12.9826   25.3160 N   0  0  0  0  0  0  0  0  0  0  0  0
    5.7984  -13.7902   25.3243 C   0  0  0  0  0  0  0  0  0  0  0  0
    6.1634  -15.0076   25.7473 N   0  0  0  0  0  0  0  0  0  0  0  0
   10.4848  -17.3068   26.1318 C   0  0  0  0  0  0  0  0  0  0  0  0
   10.8357  -18.2312   25.3583 O   0  0  0  0  0  0  0  0  0  0  0  0
   10.9836  -17.3271   27.4262 O   0  0  0  0  0  0  0  0  0  0  0  0
  2  1  1  0
  3  2  2  0
  4  2  1  0
  4  5  1  0
  5  7  1  0
  5  6  1  1
  7  9  1  0
  7  8  2  0
  9 10  1  0
 10 11  1  0
 11 12  2  0
 13 11  1  0
 13 14  1  0
 14 15  1  1
 15 16  1  0
 16 17  2  0
 17 18  1  0
 19 18  1  0
 20 16  1  0
 20 19  2  0
 21 14  1  0
 21 23  1  0
 22 21  2  0
M  END
$$$$
