NGH.pdb
     RDKit          3D

 23 23  0  0  1  0  0  0  0  0999 V2000
    9.6426  -18.7296   16.9059 N   0  0  0  0  0  0  0  0  0  0  0  0
    8.4365  -17.9875   16.9472 C   0  0  0  0  0  0  0  0  0  0  0  0
    7.4759  -18.3728   16.2405 O   0  0  0  0  0  0  0  0  0  0  0  0
    8.3621  -16.7984   17.8149 C   0  0  0  0  0  0  0  0  0  0  0  0
    8.1802  -17.2920   19.2386 C   0  0  2  0  0  0  0  0  0  0  0  0
    6.8329  -17.7563   19.4560 N   0  0  0  0  0  0  0  0  0  0  0  0
    8.4627  -16.1601   20.1473 C   0  0  0  0  0  0  0  0  0  0  0  0
    9.6670  -15.7957   20.3734 O   0  0  0  0  0  0  0  0  0  0  0  0
    7.3871  -15.4853   20.7643 N   0  0  0  0  0  0  0  0  0  0  0  0
    7.6862  -14.4411   21.6955 C   0  0  0  0  0  0  0  0  0  0  0  0
    7.9094  -15.0485   23.0352 C   0  0  0  0  0  0  0  0  0  0  0  0
    7.3231  -16.1077   23.3803 O   0  0  0  0  0  0  0  0  0  0  0  0
    8.8025  -14.4538   23.9948 N   0  0  0  0  0  0  0  0  0  0  0  0
    8.9657  -15.0024   25.3153 C   0  0  1  0  0  0  0  0  0  0  0  0
    7.6431  -15.1326   26.0362 C   0  0  0  0  0  0  0  0  0  0  0  0
    7.0840  -13.8157   26.4088 C   0  0  0  0  0  0  0  0  0  0  0  0
    7.7588  -12.6150   26.2591 C   0  0  0  0  0  0  0  0  0  0  0  0
    6.9695  -11.6052   26.6930 N   0  0  0  0  0  0  0  0  0  0  0  0
    5.8304  -12.1621   27.1035 C   0  0  0  0  0  0  0  0  0  0  0  0
    5.8924  -13.4896   26.9355 N   0  0  0  0  0  0  0  0  0  0  0  0
    9.7148  -16.2614   25.2708 C   0  0  0  0  0  0  0  0  0  0  0  0
   10.0194  -16.7545   24.1573 O   0  0  0  0  0  0  0  0  0  0  0  0
   10.1119  -16.9485   26.4087 O   0  0  0  0  0  0  0  0  0  0  0  0
  2  1  1  0
  3  2  2  0
  4  2  1  0
  4  5  1  0
  5  7  1  0
  5  6  1  6
  7  9  1  0
  7  8  2  0
  9 10  1  0
 10 11  1  0
 11 12  2  0
 13 11  1  0
 13 14  1  0
 14 15  1  6
 15 16  1  0
 16 17  2  0
 17 18  1  0
 19 18  1  0
 20 16  1  0
 20 19  2  0
 21 14  1  0
 21 23  1  0
 22 21  2  0
M  END
$$$$
