NGH.pdb
     RDKit          3D

 23 23  0  0  1  0  0  0  0  0999 V2000
    9.8418  -16.5450   13.3122 N   0  0  0  0  0  0  0  0  0  0  0  0
    8.5083  -16.7508   13.7439 C   0  0  0  0  0  0  0  0  0  0  0  0
    7.6960  -17.2680   12.9419 O   0  0  0  0  0  0  0  0  0  0  0  0
    8.1331  -16.3493   15.1116 C   0  0  0  0  0  0  0  0  0  0  0  0
    9.3857  -15.8163   15.7828 C   0  0  2  0  0  0  0  0  0  0  0  0
   10.5583  -16.1142   14.9989 N   0  0  0  0  0  0  0  0  0  0  0  0
    9.4999  -16.4677   17.1054 C   0  0  0  0  0  0  0  0  0  0  0  0
    8.5803  -16.3216   17.9813 O   0  0  0  0  0  0  0  0  0  0  0  0
   10.6372  -17.2535   17.3918 N   0  0  0  0  0  0  0  0  0  0  0  0
   10.6803  -17.9558   18.6376 C   0  0  0  0  0  0  0  0  0  0  0  0
   10.9347  -16.9754   19.7274 C   0  0  0  0  0  0  0  0  0  0  0  0
   12.0290  -16.3588   19.8116 O   0  0  0  0  0  0  0  0  0  0  0  0
    9.9446  -16.6891   20.7321 N   0  0  0  0  0  0  0  0  0  0  0  0
   10.2189  -15.8011   21.8311 C   0  0  1  0  0  0  0  0  0  0  0  0
    9.0325  -14.9198   22.1498 C   0  0  0  0  0  0  0  0  0  0  0  0
    8.6834  -14.0319   21.0205 C   0  0  0  0  0  0  0  0  0  0  0  0
    9.4242  -13.9312   19.8541 C   0  0  0  0  0  0  0  0  0  0  0  0
    8.8341  -13.0353   19.0295 N   0  0  0  0  0  0  0  0  0  0  0  0
    7.7519  -12.5879   19.6657 C   0  0  0  0  0  0  0  0  0  0  0  0
    7.6553  -13.1824   20.8621 N   0  0  0  0  0  0  0  0  0  0  0  0
   10.7036  -16.5449   22.9972 C   0  0  0  0  0  0  0  0  0  0  0  0
   11.0953  -15.9124   24.0084 O   0  0  0  0  0  0  0  0  0  0  0  0
   10.7542  -17.9304   23.0460 O   0  0  0  0  0  0  0  0  0  0  0  0
  2  1  1  0
  3  2  2  0
  4  2  1  0
  4  5  1  0
  5  7  1  0
  5  6  1  6
  7  9  1  0
  7  8  2  0
  9 10  1  0
 10 11  1  0
 11 12  2  0
 13 11  1  0
 13 14  1  0
 14 15  1  1
 15 16  1  0
 16 17  2  0
 17 18  1  0
 19 18  1  0
 20 16  1  0
 20 19  2  0
 21 14  1  0
 21 23  1  0
 22 21  2  0
M  END
$$$$
