NGH.pdb
     RDKit          3D

 23 23  0  0  1  0  0  0  0  0999 V2000
    9.3967  -14.7652   17.9967 N   0  0  0  0  0  0  0  0  0  0  0  0
    8.2820  -13.9169   17.7847 C   0  0  0  0  0  0  0  0  0  0  0  0
    7.6207  -14.0555   16.7292 O   0  0  0  0  0  0  0  0  0  0  0  0
    7.9482  -12.9111   18.8090 C   0  0  0  0  0  0  0  0  0  0  0  0
    8.9579  -13.0616   19.9322 C   0  0  2  0  0  0  0  0  0  0  0  0
   10.1654  -13.6916   19.4600 N   0  0  0  0  0  0  0  0  0  0  0  0
    8.3425  -13.9025   20.9814 C   0  0  0  0  0  0  0  0  0  0  0  0
    7.4032  -13.4396   21.7147 O   0  0  0  0  0  0  0  0  0  0  0  0
    8.8041  -15.2238   21.1659 N   0  0  0  0  0  0  0  0  0  0  0  0
    9.8738  -15.4457   22.0897 C   0  0  0  0  0  0  0  0  0  0  0  0
    9.3644  -15.2226   23.4696 C   0  0  0  0  0  0  0  0  0  0  0  0
    8.6096  -14.2521   23.7404 O   0  0  0  0  0  0  0  0  0  0  0  0
    9.7108  -16.1032   24.5542 N   0  0  0  0  0  0  0  0  0  0  0  0
    9.2266  -15.8811   25.8912 C   0  0  1  0  0  0  0  0  0  0  0  0
    7.7185  -15.7815   25.9323 C   0  0  0  0  0  0  0  0  0  0  0  0
    7.2554  -14.3781   25.8947 C   0  0  0  0  0  0  0  0  0  0  0  0
    7.8128  -13.3560   26.6457 C   0  0  0  0  0  0  0  0  0  0  0  0
    7.1601  -12.2014   26.3776 N   0  0  0  0  0  0  0  0  0  0  0  0
    6.2186  -12.4958   25.4816 C   0  0  0  0  0  0  0  0  0  0  0  0
    6.2702  -13.8015   25.1871 N   0  0  0  0  0  0  0  0  0  0  0  0
    9.7547  -16.8899   26.8141 C   0  0  0  0  0  0  0  0  0  0  0  0
   10.1701  -17.9823   26.3560 O   0  0  0  0  0  0  0  0  0  0  0  0
    9.8219  -16.7010   28.1868 O   0  0  0  0  0  0  0  0  0  0  0  0
  2  1  1  0
  3  2  2  0
  4  2  1  0
  4  5  1  0
  5  7  1  0
  5  6  1  6
  7  9  1  0
  7  8  2  0
  9 10  1  0
 10 11  1  0
 11 12  2  0
 13 11  1  0
 13 14  1  0
 14 15  1  6
 15 16  1  0
 16 17  2  0
 17 18  1  0
 19 18  1  0
 20 16  1  0
 20 19  2  0
 21 14  1  0
 21 23  1  0
 22 21  2  0
M  END
$$$$
