NGH.pdb
     RDKit          3D

 23 23  0  0  1  0  0  0  0  0999 V2000
    2.2900  -18.3652   21.7230 N   0  0  0  0  0  0  0  0  0  0  0  0
    3.3645  -18.3279   20.8003 C   0  0  0  0  0  0  0  0  0  0  0  0
    3.4695  -19.2615   19.9709 O   0  0  0  0  0  0  0  0  0  0  0  0
    4.3099  -17.1985   20.8543 C   0  0  0  0  0  0  0  0  0  0  0  0
    5.6593  -17.7614   21.2620 C   0  0  2  0  0  0  0  0  0  0  0  0
    5.6132  -18.2950   22.6003 N   0  0  0  0  0  0  0  0  0  0  0  0
    6.6428  -16.6587   21.2060 C   0  0  0  0  0  0  0  0  0  0  0  0
    6.8367  -16.0180   20.1168 O   0  0  0  0  0  0  0  0  0  0  0  0
    7.3674  -16.3204   22.3694 N   0  0  0  0  0  0  0  0  0  0  0  0
    8.1993  -15.1569   22.3359 C   0  0  0  0  0  0  0  0  0  0  0  0
    8.8143  -14.9735   23.6782 C   0  0  0  0  0  0  0  0  0  0  0  0
    9.6400  -14.0495   23.8999 O   0  0  0  0  0  0  0  0  0  0  0  0
    8.4944  -15.8421   24.7805 N   0  0  0  0  0  0  0  0  0  0  0  0
    9.1511  -15.7174   26.0552 C   0  0  1  0  0  0  0  0  0  0  0  0
    8.1794  -15.3477   27.1530 C   0  0  0  0  0  0  0  0  0  0  0  0
    7.3777  -14.1556   26.8041 C   0  0  0  0  0  0  0  0  0  0  0  0
    7.8159  -12.8511   26.9640 C   0  0  0  0  0  0  0  0  0  0  0  0
    6.8458  -12.0032   26.5505 N   0  0  0  0  0  0  0  0  0  0  0  0
    5.8274  -12.7600   26.1430 C   0  0  0  0  0  0  0  0  0  0  0  0
    6.1401  -14.0538   26.2925 N   0  0  0  0  0  0  0  0  0  0  0  0
    9.9269  -16.9217   26.3650 C   0  0  0  0  0  0  0  0  0  0  0  0
   10.5322  -16.9956   27.4623 O   0  0  0  0  0  0  0  0  0  0  0  0
   10.0307  -18.0008   25.4993 O   0  0  0  0  0  0  0  0  0  0  0  0
  2  1  1  0
  3  2  2  0
  4  2  1  0
  4  5  1  0
  5  7  1  0
  5  6  1  1
  7  9  1  0
  7  8  2  0
  9 10  1  0
 10 11  1  0
 11 12  2  0
 13 11  1  0
 13 14  1  0
 14 15  1  1
 15 16  1  0
 16 17  2  0
 17 18  1  0
 19 18  1  0
 20 16  1  0
 20 19  2  0
 21 14  1  0
 21 23  1  0
 22 21  2  0
M  END
$$$$
