NGH.pdb
     RDKit          3D

 23 23  0  0  1  0  0  0  0  0999 V2000
    7.7696  -16.9533   13.1655 N   0  0  0  0  0  0  0  0  0  0  0  0
    8.8550  -17.6909   13.6992 C   0  0  0  0  0  0  0  0  0  0  0  0
    9.8301  -17.9397   12.9523 O   0  0  0  0  0  0  0  0  0  0  0  0
    8.7925  -18.1335   15.1036 C   0  0  0  0  0  0  0  0  0  0  0  0
    9.6272  -17.1622   15.9182 C   0  0  2  0  0  0  0  0  0  0  0  0
   11.0266  -17.5015   15.8510 N   0  0  0  0  0  0  0  0  0  0  0  0
    9.1689  -17.2417   17.3219 C   0  0  0  0  0  0  0  0  0  0  0  0
    8.0992  -16.6458   17.6890 O   0  0  0  0  0  0  0  0  0  0  0  0
    9.9263  -17.9832   18.2543 N   0  0  0  0  0  0  0  0  0  0  0  0
    9.4054  -18.1432   19.5772 C   0  0  0  0  0  0  0  0  0  0  0  0
    9.7360  -16.9275   20.3685 C   0  0  0  0  0  0  0  0  0  0  0  0
   10.8491  -16.3515   20.2505 O   0  0  0  0  0  0  0  0  0  0  0  0
    8.8010  -16.3570   21.3025 N   0  0  0  0  0  0  0  0  0  0  0  0
    9.1105  -15.1654   22.0480 C   0  0  1  0  0  0  0  0  0  0  0  0
    8.1215  -14.0564   21.7688 C   0  0  0  0  0  0  0  0  0  0  0  0
    8.0432  -13.7346   20.3280 C   0  0  0  0  0  0  0  0  0  0  0  0
    8.7770  -12.7319   19.7152 C   0  0  0  0  0  0  0  0  0  0  0  0
    8.4724  -12.7013   18.3971 N   0  0  0  0  0  0  0  0  0  0  0  0
    7.5706  -13.6610   18.1926 C   0  0  0  0  0  0  0  0  0  0  0  0
    7.3083  -14.2856   19.3482 N   0  0  0  0  0  0  0  0  0  0  0  0
    9.2437  -15.4613   23.4773 C   0  0  0  0  0  0  0  0  0  0  0  0
    8.8422  -16.5674   23.9144 O   0  0  0  0  0  0  0  0  0  0  0  0
    9.7975  -14.5727   24.3875 O   0  0  0  0  0  0  0  0  0  0  0  0
  2  1  1  0
  3  2  2  0
  4  2  1  0
  4  5  1  0
  5  7  1  0
  5  6  1  1
  7  9  1  0
  7  8  2  0
  9 10  1  0
 10 11  1  0
 11 12  2  0
 13 11  1  0
 13 14  1  0
 14 15  1  1
 15 16  1  0
 16 17  2  0
 17 18  1  0
 19 18  1  0
 20 16  1  0
 20 19  2  0
 21 14  1  0
 21 23  1  0
 22 21  2  0
M  END
$$$$
