NGH.pdb
     RDKit          3D

 23 23  0  0  1  0  0  0  0  0999 V2000
    8.1439  -12.8857   16.3320 N   0  0  0  0  0  0  0  0  0  0  0  0
    7.9340  -14.2625   16.5918 C   0  0  0  0  0  0  0  0  0  0  0  0
    8.2169  -15.0879   15.6921 O   0  0  0  0  0  0  0  0  0  0  0  0
    7.3939  -14.6650   17.9027 C   0  0  0  0  0  0  0  0  0  0  0  0
    8.5743  -14.8387   18.8408 C   0  0  2  0  0  0  0  0  0  0  0  0
    9.4813  -15.8453   18.3486 N   0  0  0  0  0  0  0  0  0  0  0  0
    8.0457  -15.2548   20.1576 C   0  0  0  0  0  0  0  0  0  0  0  0
    8.2290  -16.4466   20.5823 O   0  0  0  0  0  0  0  0  0  0  0  0
    7.3345  -14.3212   20.9421 N   0  0  0  0  0  0  0  0  0  0  0  0
    6.7756  -14.7637   22.1826 C   0  0  0  0  0  0  0  0  0  0  0  0
    7.6962  -14.3742   23.2846 C   0  0  0  0  0  0  0  0  0  0  0  0
    7.6239  -13.2415   23.8292 O   0  0  0  0  0  0  0  0  0  0  0  0
    8.7085  -15.2718   23.7759 N   0  0  0  0  0  0  0  0  0  0  0  0
    8.9484  -15.4408   25.1850 C   0  0  1  0  0  0  0  0  0  0  0  0
    7.6760  -15.3071   25.9906 C   0  0  0  0  0  0  0  0  0  0  0  0
    7.3784  -13.8983   26.3255 C   0  0  0  0  0  0  0  0  0  0  0  0
    8.1703  -12.8262   25.9472 C   0  0  0  0  0  0  0  0  0  0  0  0
    7.6184  -11.6812   26.4114 N   0  0  0  0  0  0  0  0  0  0  0  0
    6.5097  -12.0303   27.0633 C   0  0  0  0  0  0  0  0  0  0  0  0
    6.3595  -13.3604   27.0156 N   0  0  0  0  0  0  0  0  0  0  0  0
    9.6587  -16.6953   25.4489 C   0  0  0  0  0  0  0  0  0  0  0  0
    9.1959  -17.7695   24.9931 O   0  0  0  0  0  0  0  0  0  0  0  0
   10.8323  -16.7621   26.1857 O   0  0  0  0  0  0  0  0  0  0  0  0
  2  1  1  0
  3  2  2  0
  4  2  1  0
  4  5  1  0
  5  7  1  0
  5  6  1  6
  7  9  1  0
  7  8  2  0
  9 10  1  0
 10 11  1  0
 11 12  2  0
 13 11  1  0
 13 14  1  0
 14 15  1  1
 15 16  1  0
 16 17  2  0
 17 18  1  0
 19 18  1  0
 20 16  1  0
 20 19  2  0
 21 14  1  0
 21 23  1  0
 22 21  2  0
M  END
$$$$
