NGH.pdb
     RDKit          3D

 23 23  0  0  1  0  0  0  0  0999 V2000
   10.3703  -20.3843   18.2863 N   0  0  0  0  0  0  0  0  0  0  0  0
    9.6241  -19.2225   17.9695 C   0  0  0  0  0  0  0  0  0  0  0  0
    8.6449  -19.3365   17.1957 O   0  0  0  0  0  0  0  0  0  0  0  0
   10.0287  -17.9340   18.5597 C   0  0  0  0  0  0  0  0  0  0  0  0
   10.1448  -16.9356   17.4224 C   0  0  2  0  0  0  0  0  0  0  0  0
   10.9434  -17.4685   16.3471 N   0  0  0  0  0  0  0  0  0  0  0  0
   10.7900  -15.7171   17.9568 C   0  0  0  0  0  0  0  0  0  0  0  0
   10.1895  -14.9922   18.8218 O   0  0  0  0  0  0  0  0  0  0  0  0
   12.0778  -15.3614   17.5008 N   0  0  0  0  0  0  0  0  0  0  0  0
   12.6871  -14.1845   18.0399 C   0  0  0  0  0  0  0  0  0  0  0  0
   13.3965  -14.5492   19.2958 C   0  0  0  0  0  0  0  0  0  0  0  0
   14.2735  -13.7967   19.7952 O   0  0  0  0  0  0  0  0  0  0  0  0
   13.1136  -15.7757   19.9942 N   0  0  0  0  0  0  0  0  0  0  0  0
   13.7871  -16.1199   21.2187 C   0  0  1  0  0  0  0  0  0  0  0  0
   13.0528  -17.2018   21.9778 C   0  0  0  0  0  0  0  0  0  0  0  0
   11.6905  -16.7784   22.3657 C   0  0  0  0  0  0  0  0  0  0  0  0
   11.4076  -15.6137   23.0606 C   0  0  0  0  0  0  0  0  0  0  0  0
   10.0712  -15.5255   23.2537 N   0  0  0  0  0  0  0  0  0  0  0  0
    9.5336  -16.6086   22.6933 C   0  0  0  0  0  0  0  0  0  0  0  0
   10.5005  -17.3654   22.1580 N   0  0  0  0  0  0  0  0  0  0  0  0
   15.1916  -16.4553   20.9678 C   0  0  0  0  0  0  0  0  0  0  0  0
   16.0386  -16.2656   21.8747 O   0  0  0  0  0  0  0  0  0  0  0  0
   15.6434  -16.9788   19.7651 O   0  0  0  0  0  0  0  0  0  0  0  0
  2  1  1  0
  3  2  2  0
  4  2  1  0
  4  5  1  0
  5  7  1  0
  5  6  1  6
  7  9  1  0
  7  8  2  0
  9 10  1  0
 10 11  1  0
 11 12  2  0
 13 11  1  0
 13 14  1  0
 14 15  1  6
 15 16  1  0
 16 17  2  0
 17 18  1  0
 19 18  1  0
 20 16  1  0
 20 19  2  0
 21 14  1  0
 21 23  1  0
 22 21  2  0
M  END
$$$$
