NGH.pdb
     RDKit          3D

 23 23  0  0  1  0  0  0  0  0999 V2000
    4.3360  -18.9670   19.5923 N   0  0  0  0  0  0  0  0  0  0  0  0
    5.5804  -18.4139   19.2017 C   0  0  0  0  0  0  0  0  0  0  0  0
    6.0552  -18.7430   18.0896 O   0  0  0  0  0  0  0  0  0  0  0  0
    6.2620  -17.4795   20.1152 C   0  0  0  0  0  0  0  0  0  0  0  0
    7.6468  -18.0409   20.3811 C   0  0  2  0  0  0  0  0  0  0  0  0
    7.6361  -18.9235   21.5208 N   0  0  0  0  0  0  0  0  0  0  0  0
    8.5507  -16.9019   20.6498 C   0  0  0  0  0  0  0  0  0  0  0  0
    9.1098  -16.2768   19.6849 O   0  0  0  0  0  0  0  0  0  0  0  0
    8.7909  -16.5115   21.9849 N   0  0  0  0  0  0  0  0  0  0  0  0
    9.5863  -15.3453   22.2180 C   0  0  0  0  0  0  0  0  0  0  0  0
    9.7346  -15.1566   23.6863 C   0  0  0  0  0  0  0  0  0  0  0  0
   10.3991  -14.1979   24.1599 O   0  0  0  0  0  0  0  0  0  0  0  0
    9.1275  -16.0593   24.6288 N   0  0  0  0  0  0  0  0  0  0  0  0
    9.4049  -15.9775   26.0388 C   0  0  1  0  0  0  0  0  0  0  0  0
    8.1419  -15.7935   26.8492 C   0  0  0  0  0  0  0  0  0  0  0  0
    7.4572  -14.5236   26.5262 C   0  0  0  0  0  0  0  0  0  0  0  0
    7.9447  -13.2711   26.8623 C   0  0  0  0  0  0  0  0  0  0  0  0
    7.0819  -12.3262   26.4222 N   0  0  0  0  0  0  0  0  0  0  0  0
    6.0806  -12.9732   25.8264 C   0  0  0  0  0  0  0  0  0  0  0  0
    6.2997  -14.2933   25.8852 N   0  0  0  0  0  0  0  0  0  0  0  0
   10.2030  -17.1237   26.4831 C   0  0  0  0  0  0  0  0  0  0  0  0
   10.5221  -18.0079   25.6511 O   0  0  0  0  0  0  0  0  0  0  0  0
   10.6318  -17.2877   27.7922 O   0  0  0  0  0  0  0  0  0  0  0  0
  2  1  1  0
  3  2  2  0
  4  2  1  0
  4  5  1  0
  5  7  1  0
  5  6  1  1
  7  9  1  0
  7  8  2  0
  9 10  1  0
 10 11  1  0
 11 12  2  0
 13 11  1  0
 13 14  1  0
 14 15  1  1
 15 16  1  0
 16 17  2  0
 17 18  1  0
 19 18  1  0
 20 16  1  0
 20 19  2  0
 21 14  1  0
 21 23  1  0
 22 21  2  0
M  END
$$$$
