NGH.pdb
     RDKit          3D

 23 23  0  0  1  0  0  0  0  0999 V2000
    6.6974  -15.7514   16.1112 N   0  0  0  0  0  0  0  0  0  0  0  0
    7.9962  -15.8959   16.6583 C   0  0  0  0  0  0  0  0  0  0  0  0
    8.8657  -16.4900   15.9788 O   0  0  0  0  0  0  0  0  0  0  0  0
    8.2695  -15.3448   17.9976 C   0  0  0  0  0  0  0  0  0  0  0  0
    8.9581  -16.4339   18.7997 C   0  0  2  0  0  0  0  0  0  0  0  0
    8.0272  -17.4715   19.1671 N   0  0  0  0  0  0  0  0  0  0  0  0
    9.5094  -15.8123   20.0228 C   0  0  0  0  0  0  0  0  0  0  0  0
   10.2065  -14.7432   19.9487 O   0  0  0  0  0  0  0  0  0  0  0  0
    9.2585  -16.4129   21.2755 N   0  0  0  0  0  0  0  0  0  0  0  0
   10.1447  -16.1171   22.3592 C   0  0  0  0  0  0  0  0  0  0  0  0
    9.3465  -16.0100   23.6102 C   0  0  0  0  0  0  0  0  0  0  0  0
    8.1106  -16.2493   23.6214 O   0  0  0  0  0  0  0  0  0  0  0  0
    9.9494  -15.6285   24.8603 N   0  0  0  0  0  0  0  0  0  0  0  0
    9.2597  -15.7938   26.1127 C   0  0  1  0  0  0  0  0  0  0  0  0
    7.7598  -15.7061   25.9430 C   0  0  0  0  0  0  0  0  0  0  0  0
    7.2681  -14.3183   26.0759 C   0  0  0  0  0  0  0  0  0  0  0  0
    8.0796  -13.2300   26.3521 C   0  0  0  0  0  0  0  0  0  0  0  0
    7.3195  -12.1119   26.4063 N   0  0  0  0  0  0  0  0  0  0  0  0
    6.0646  -12.4931   26.1699 C   0  0  0  0  0  0  0  0  0  0  0  0
    6.0265  -13.8172   25.9706 N   0  0  0  0  0  0  0  0  0  0  0  0
    9.6842  -17.0244   26.7863 C   0  0  0  0  0  0  0  0  0  0  0  0
    9.0152  -17.4535   27.7579 O   0  0  0  0  0  0  0  0  0  0  0  0
   10.8015  -17.7520   26.4034 O   0  0  0  0  0  0  0  0  0  0  0  0
  2  1  1  0
  3  2  2  0
  4  2  1  0
  4  5  1  0
  5  7  1  0
  5  6  1  1
  7  9  1  0
  7  8  2  0
  9 10  1  0
 10 11  1  0
 11 12  2  0
 13 11  1  0
 13 14  1  0
 14 15  1  6
 15 16  1  0
 16 17  2  0
 17 18  1  0
 19 18  1  0
 20 16  1  0
 20 19  2  0
 21 14  1  0
 21 23  1  0
 22 21  2  0
M  END
$$$$
