HCC.pdb
     RDKit          3D

 23 23  0  0  1  0  0  0  0  0999 V2000
   20.2949  -12.9864  -16.8437 N   0  0  0  0  0  0  0  0  0  0  0  0
   20.1466  -11.6819  -17.4354 C   0  0  1  0  0  0  0  0  0  0  0  0
   18.6887  -11.4564  -17.7933 C   0  0  0  0  0  0  0  0  0  0  0  0
   18.3551  -12.4362  -18.8805 C   0  0  0  0  0  0  0  0  0  0  0  0
   18.8020  -12.4243  -20.1866 C   0  0  0  0  0  0  0  0  0  0  0  0
   18.2608  -13.4819  -20.8205 N   0  0  0  0  0  0  0  0  0  0  0  0
   17.4850  -14.1637  -19.9576 C   0  0  0  0  0  0  0  0  0  0  0  0
   17.5500  -13.5206  -18.7853 N   0  0  0  0  0  0  0  0  0  0  0  0
   20.6621  -10.6633  -16.5151 C   0  0  0  0  0  0  0  0  0  0  0  0
   20.2555  -10.5285  -15.3233 O   0  0  0  0  0  0  0  0  0  0  0  0
   21.6725   -9.7600  -16.9463 N   0  0  0  0  0  0  0  0  0  0  0  0
   22.2274   -8.7647  -16.0799 C   0  0  1  0  0  0  0  0  0  0  0  0
   23.7598   -8.8274  -16.0582 C   0  0  0  0  0  0  0  0  0  0  0  0
   24.4175   -7.4510  -15.1085 S   0  0  0  0  0  0  0  0  0  0  0  0
   21.8836   -7.4215  -16.6086 C   0  0  0  0  0  0  0  0  0  0  0  0
   22.2515   -7.1117  -17.7547 O   0  0  0  0  0  0  0  0  0  0  0  0
   21.1453   -6.4675  -15.8532 N   0  0  0  0  0  0  0  0  0  0  0  0
   20.8979   -5.1354  -16.3954 C   0  0  1  0  0  0  0  0  0  0  0  0
   19.4299   -5.0876  -16.8270 C   0  0  0  0  0  0  0  0  0  0  0  0
   18.4393   -5.5595  -15.4016 S   0  0  0  0  0  0  0  0  0  0  0  0
   21.1007   -4.1703  -15.2824 C   0  0  0  0  0  0  0  0  0  0  0  0
   20.9590   -2.9473  -15.5499 O   0  0  0  0  0  0  0  0  0  0  0  0
   21.4280   -4.5229  -13.9992 O   0  0  0  0  0  0  0  0  0  0  0  0
  2  1  1  1
  2  3  1  0
  4  5  2  0
  4  3  1  0
  6  5  1  0
  7  8  2  0
  7  6  1  0
  8  4  1  0
  9  2  1  0
 10  9  2  0
 11  9  1  0
 12 11  1  0
 12 13  1  6
 14 13  1  0
 15 17  1  0
 15 12  1  0
 16 15  2  0
 18 19  1  1
 18 17  1  0
 19 20  1  0
 21 18  1  0
 21 23  1  0
 22 21  2  0
M  END
$$$$
