HCC.pdb
     RDKit          3D

 23 23  0  0  1  0  0  0  0  0999 V2000
   21.5365  -15.7961  -17.6425 N   0  0  0  0  0  0  0  0  0  0  0  0
   21.6152  -14.4672  -18.1919 C   0  0  1  0  0  0  0  0  0  0  0  0
   20.3244  -14.1509  -18.9257 C   0  0  0  0  0  0  0  0  0  0  0  0
   20.2808  -15.0485  -20.1281 C   0  0  0  0  0  0  0  0  0  0  0  0
   19.4778  -16.1549  -20.3202 C   0  0  0  0  0  0  0  0  0  0  0  0
   19.7593  -16.6669  -21.5335 N   0  0  0  0  0  0  0  0  0  0  0  0
   20.7153  -15.9201  -22.1163 C   0  0  0  0  0  0  0  0  0  0  0  0
   21.0233  -14.9425  -21.2552 N   0  0  0  0  0  0  0  0  0  0  0  0
   21.9003  -13.5081  -17.1201 C   0  0  0  0  0  0  0  0  0  0  0  0
   21.3081  -13.5151  -16.0005 O   0  0  0  0  0  0  0  0  0  0  0  0
   22.8872  -12.5016  -17.3090 N   0  0  0  0  0  0  0  0  0  0  0  0
   23.2059  -11.5443  -16.2935 C   0  0  1  0  0  0  0  0  0  0  0  0
   24.6845  -11.1400  -16.3443 C   0  0  0  0  0  0  0  0  0  0  0  0
   25.0217   -9.8869  -15.1013 S   0  0  0  0  0  0  0  0  0  0  0  0
   22.4362  -10.3011  -16.5465 C   0  0  0  0  0  0  0  0  0  0  0  0
   22.3871   -9.8462  -17.7022 O   0  0  0  0  0  0  0  0  0  0  0  0
   21.7477   -9.6037  -15.5143 N   0  0  0  0  0  0  0  0  0  0  0  0
   20.9819   -8.4012  -15.8262 C   0  0  1  0  0  0  0  0  0  0  0  0
   19.5466   -8.6426  -15.3520 C   0  0  0  0  0  0  0  0  0  0  0  0
   18.6505   -7.0961  -15.5552 S   0  0  0  0  0  0  0  0  0  0  0  0
   21.5699   -7.2939  -15.0265 C   0  0  0  0  0  0  0  0  0  0  0  0
   22.1762   -7.6093  -13.9680 O   0  0  0  0  0  0  0  0  0  0  0  0
   21.4950   -5.9679  -15.3639 O   0  0  0  0  0  0  0  0  0  0  0  0
  2  1  1  1
  2  3  1  0
  4  5  2  0
  4  3  1  0
  6  5  1  0
  7  8  2  0
  7  6  1  0
  8  4  1  0
  9  2  1  0
 10  9  2  0
 11  9  1  0
 12 11  1  0
 12 13  1  6
 14 13  1  0
 15 17  1  0
 15 12  1  0
 16 15  2  0
 18 19  1  1
 18 17  1  0
 19 20  1  0
 21 18  1  0
 21 23  1  0
 22 21  2  0
M  END
$$$$
