HCC.pdb
     RDKit          3D

 23 23  0  0  1  0  0  0  0  0999 V2000
   25.6118  -14.5973  -19.4774 N   0  0  0  0  0  0  0  0  0  0  0  0
   25.9525  -13.2074  -19.6385 C   0  0  1  0  0  0  0  0  0  0  0  0
   25.3731  -12.6974  -20.9457 C   0  0  0  0  0  0  0  0  0  0  0  0
   26.3331  -13.0976  -22.0281 C   0  0  0  0  0  0  0  0  0  0  0  0
   27.5753  -13.6801  -21.8744 C   0  0  0  0  0  0  0  0  0  0  0  0
   28.0988  -13.8719  -23.1002 N   0  0  0  0  0  0  0  0  0  0  0  0
   27.2278  -13.4294  -24.0258 C   0  0  0  0  0  0  0  0  0  0  0  0
   26.1618  -12.9625  -23.3643 N   0  0  0  0  0  0  0  0  0  0  0  0
   25.4755  -12.4468  -18.4792 C   0  0  0  0  0  0  0  0  0  0  0  0
   24.3314  -12.6081  -17.9604 O   0  0  0  0  0  0  0  0  0  0  0  0
   26.3122  -11.4669  -17.8771 N   0  0  0  0  0  0  0  0  0  0  0  0
   25.9149  -10.7343  -16.7133 C   0  0  1  0  0  0  0  0  0  0  0  0
   27.1188  -10.3828  -15.8304 C   0  0  0  0  0  0  0  0  0  0  0  0
   27.8500  -11.8825  -15.1632 S   0  0  0  0  0  0  0  0  0  0  0  0
   25.3306   -9.4380  -17.1377 C   0  0  0  0  0  0  0  0  0  0  0  0
   25.9875   -8.6969  -17.8890 O   0  0  0  0  0  0  0  0  0  0  0  0
   24.0414   -9.0053  -16.7177 N   0  0  0  0  0  0  0  0  0  0  0  0
   23.5204   -7.7157  -17.1596 C   0  0  1  0  0  0  0  0  0  0  0  0
   22.3263   -7.9991  -18.0746 C   0  0  0  0  0  0  0  0  0  0  0  0
   21.5425   -6.4202  -18.4331 S   0  0  0  0  0  0  0  0  0  0  0  0
   23.0353   -7.0059  -15.9463 C   0  0  0  0  0  0  0  0  0  0  0  0
   22.8407   -5.7651  -16.0463 O   0  0  0  0  0  0  0  0  0  0  0  0
   22.7893   -7.6089  -14.7405 O   0  0  0  0  0  0  0  0  0  0  0  0
  2  1  1  1
  2  3  1  0
  4  5  2  0
  4  3  1  0
  6  5  1  0
  7  8  2  0
  7  6  1  0
  8  4  1  0
  9  2  1  0
 10  9  2  0
 11  9  1  0
 12 11  1  0
 12 13  1  1
 14 13  1  0
 15 17  1  0
 15 12  1  0
 16 15  2  0
 18 19  1  6
 18 17  1  0
 19 20  1  0
 21 18  1  0
 21 23  1  0
 22 21  2  0
M  END
$$$$
