HCC.pdb
     RDKit          3D

 23 23  0  0  1  0  0  0  0  0999 V2000
   19.5124  -13.2055  -18.2135 N   0  0  0  0  0  0  0  0  0  0  0  0
   20.5671  -12.2451  -18.0164 C   0  0  1  0  0  0  0  0  0  0  0  0
   21.5977  -12.3984  -19.1204 C   0  0  0  0  0  0  0  0  0  0  0  0
   22.2123  -13.7574  -18.9508 C   0  0  0  0  0  0  0  0  0  0  0  0
   22.4083  -14.4482  -17.7716 C   0  0  0  0  0  0  0  0  0  0  0  0
   22.9885  -15.6258  -18.0716 N   0  0  0  0  0  0  0  0  0  0  0  0
   23.1664  -15.7032  -19.4033 C   0  0  0  0  0  0  0  0  0  0  0  0
   22.6923  -14.5654  -19.9254 N   0  0  0  0  0  0  0  0  0  0  0  0
   19.9986  -10.8945  -17.9638 C   0  0  0  0  0  0  0  0  0  0  0  0
   19.3168  -10.3863  -18.9024 O   0  0  0  0  0  0  0  0  0  0  0  0
   20.2014  -10.0807  -16.8151 N   0  0  0  0  0  0  0  0  0  0  0  0
   19.6750   -8.7532  -16.7170 C   0  0  1  0  0  0  0  0  0  0  0  0
   18.2231   -8.7577  -16.2227 C   0  0  0  0  0  0  0  0  0  0  0  0
   18.0749   -9.7923  -14.7611 S   0  0  0  0  0  0  0  0  0  0  0  0
   20.4488   -8.0035  -15.6966 C   0  0  0  0  0  0  0  0  0  0  0  0
   21.0184   -8.6328  -14.7885 O   0  0  0  0  0  0  0  0  0  0  0  0
   20.5666   -6.5852  -15.7147 N   0  0  0  0  0  0  0  0  0  0  0  0
   21.2801   -5.8948  -14.6451 C   0  0  1  0  0  0  0  0  0  0  0  0
   22.5669   -5.3286  -15.2511 C   0  0  0  0  0  0  0  0  0  0  0  0
   23.3587   -4.3285  -13.9828 S   0  0  0  0  0  0  0  0  0  0  0  0
   20.4185   -4.7636  -14.2098 C   0  0  0  0  0  0  0  0  0  0  0  0
   19.6968   -4.2206  -15.0882 O   0  0  0  0  0  0  0  0  0  0  0  0
   20.3605   -4.2803  -12.9288 O   0  0  0  0  0  0  0  0  0  0  0  0
  2  1  1  6
  2  3  1  0
  4  5  2  0
  4  3  1  0
  6  5  1  0
  7  8  2  0
  7  6  1  0
  8  4  1  0
  9  2  1  0
 10  9  2  0
 11  9  1  0
 12 11  1  0
 12 13  1  1
 14 13  1  0
 15 17  1  0
 15 12  1  0
 16 15  2  0
 18 19  1  6
 18 17  1  0
 19 20  1  0
 21 18  1  0
 21 23  1  0
 22 21  2  0
M  END
$$$$
