HCC.pdb
     RDKit          3D

 23 23  0  0  1  0  0  0  0  0999 V2000
   23.9249  -10.9756  -17.4833 N   0  0  0  0  0  0  0  0  0  0  0  0
   24.2144   -9.7948  -16.7114 C   0  0  1  0  0  0  0  0  0  0  0  0
   25.6060   -9.2974  -17.0586 C   0  0  0  0  0  0  0  0  0  0  0  0
   26.5615  -10.3927  -16.6833 C   0  0  0  0  0  0  0  0  0  0  0  0
   27.1876  -10.5795  -15.4672 C   0  0  0  0  0  0  0  0  0  0  0  0
   27.9581  -11.6799  -15.5613 N   0  0  0  0  0  0  0  0  0  0  0  0
   27.8401  -12.1963  -16.7985 C   0  0  0  0  0  0  0  0  0  0  0  0
   26.9913  -11.4079  -17.4692 N   0  0  0  0  0  0  0  0  0  0  0  0
   23.1808   -8.7834  -16.9538 C   0  0  0  0  0  0  0  0  0  0  0  0
   22.9076   -8.3250  -18.1024 O   0  0  0  0  0  0  0  0  0  0  0  0
   22.4233   -8.2647  -15.8676 N   0  0  0  0  0  0  0  0  0  0  0  0
   21.3206   -7.3729  -16.0624 C   0  0  1  0  0  0  0  0  0  0  0  0
   20.4334   -7.2926  -14.8139 C   0  0  0  0  0  0  0  0  0  0  0  0
   19.7058   -8.8998  -14.4728 S   0  0  0  0  0  0  0  0  0  0  0  0
   21.8441   -6.0012  -16.2773 C   0  0  0  0  0  0  0  0  0  0  0  0
   23.0084   -5.7382  -15.9305 O   0  0  0  0  0  0  0  0  0  0  0  0
   21.0635   -4.9677  -16.8677 N   0  0  0  0  0  0  0  0  0  0  0  0
   21.6666   -3.6728  -17.1665 C   0  0  1  0  0  0  0  0  0  0  0  0
   22.7240   -3.9047  -18.2489 C   0  0  0  0  0  0  0  0  0  0  0  0
   23.3825   -2.2941  -18.7050 S   0  0  0  0  0  0  0  0  0  0  0  0
   20.5902   -2.8128  -17.7262 C   0  0  0  0  0  0  0  0  0  0  0  0
   20.6357   -1.5841  -17.4511 O   0  0  0  0  0  0  0  0  0  0  0  0
   19.5640   -3.2668  -18.5128 O   0  0  0  0  0  0  0  0  0  0  0  0
  2  1  1  6
  2  3  1  0
  4  5  2  0
  4  3  1  0
  6  5  1  0
  7  8  2  0
  7  6  1  0
  8  4  1  0
  9  2  1  0
 10  9  2  0
 11  9  1  0
 12 11  1  0
 12 13  1  1
 14 13  1  0
 15 17  1  0
 15 12  1  0
 16 15  2  0
 18 19  1  6
 18 17  1  0
 19 20  1  0
 21 18  1  0
 21 23  1  0
 22 21  2  0
M  END
$$$$
