HCC.pdb
     RDKit          3D

 23 23  0  0  1  0  0  0  0  0999 V2000
   14.8406  -12.4812  -12.2487 N   0  0  0  0  0  0  0  0  0  0  0  0
   15.9229  -11.7083  -11.6962 C   0  0  1  0  0  0  0  0  0  0  0  0
   17.1051  -11.7492  -12.6476 C   0  0  0  0  0  0  0  0  0  0  0  0
   17.4684  -13.1952  -12.8220 C   0  0  0  0  0  0  0  0  0  0  0  0
   17.5436  -13.9046  -14.0040 C   0  0  0  0  0  0  0  0  0  0  0  0
   17.9032  -15.1682  -13.7080 N   0  0  0  0  0  0  0  0  0  0  0  0
   18.0583  -15.2819  -12.3760 C   0  0  0  0  0  0  0  0  0  0  0  0
   17.7922  -14.0801  -11.8498 N   0  0  0  0  0  0  0  0  0  0  0  0
   15.4647  -10.3412  -11.4297 C   0  0  0  0  0  0  0  0  0  0  0  0
   14.9795   -9.5811  -12.3191 O   0  0  0  0  0  0  0  0  0  0  0  0
   15.5532   -9.8038  -10.1159 N   0  0  0  0  0  0  0  0  0  0  0  0
   14.9734   -8.5426   -9.7660 C   0  0  1  0  0  0  0  0  0  0  0  0
   14.2165   -8.6204   -8.4342 C   0  0  0  0  0  0  0  0  0  0  0  0
   12.8555   -9.7861   -8.5683 S   0  0  0  0  0  0  0  0  0  0  0  0
   16.0610   -7.5549   -9.5576 C   0  0  0  0  0  0  0  0  0  0  0  0
   17.0138   -7.8535   -8.8173 O   0  0  0  0  0  0  0  0  0  0  0  0
   16.0584   -6.2720  -10.1740 N   0  0  0  0  0  0  0  0  0  0  0  0
   17.1435   -5.3313   -9.9143 C   0  0  1  0  0  0  0  0  0  0  0  0
   17.7528   -4.9577  -11.2681 C   0  0  0  0  0  0  0  0  0  0  0  0
   18.4568   -6.4577  -11.9682 S   0  0  0  0  0  0  0  0  0  0  0  0
   16.5294   -4.1168   -9.3149 C   0  0  0  0  0  0  0  0  0  0  0  0
   15.2755   -4.0140   -9.3835 O   0  0  0  0  0  0  0  0  0  0  0  0
   17.2326   -3.1142   -8.6999 O   0  0  0  0  0  0  0  0  0  0  0  0
  2  1  1  6
  2  3  1  0
  4  5  2  0
  4  3  1  0
  6  5  1  0
  7  8  2  0
  7  6  1  0
  8  4  1  0
  9  2  1  0
 10  9  2  0
 11  9  1  0
 12 11  1  0
 12 13  1  1
 14 13  1  0
 15 17  1  0
 15 12  1  0
 16 15  2  0
 18 19  1  6
 18 17  1  0
 19 20  1  0
 21 18  1  0
 21 23  1  0
 22 21  2  0
M  END
$$$$
