HCC.pdb
     RDKit          3D

 23 23  0  0  1  0  0  0  0  0999 V2000
   21.0565  -14.2040  -18.0238 N   0  0  0  0  0  0  0  0  0  0  0  0
   20.2918  -13.0012  -17.8182 C   0  0  1  0  0  0  0  0  0  0  0  0
   19.0269  -13.3366  -17.0487 C   0  0  0  0  0  0  0  0  0  0  0  0
   18.1776  -14.1749  -17.9594 C   0  0  0  0  0  0  0  0  0  0  0  0
   17.3605  -13.7375  -18.9826 C   0  0  0  0  0  0  0  0  0  0  0  0
   16.7822  -14.8170  -19.5426 N   0  0  0  0  0  0  0  0  0  0  0  0
   17.2069  -15.9245  -18.9068 C   0  0  0  0  0  0  0  0  0  0  0  0
   18.0520  -15.5229  -17.9495 N   0  0  0  0  0  0  0  0  0  0  0  0
   21.1187  -12.0045  -17.1306 C   0  0  0  0  0  0  0  0  0  0  0  0
   21.8343  -12.2679  -16.1193 O   0  0  0  0  0  0  0  0  0  0  0  0
   21.1455  -10.6599  -17.5933 N   0  0  0  0  0  0  0  0  0  0  0  0
   21.9443   -9.6517  -16.9651 C   0  0  1  0  0  0  0  0  0  0  0  0
   22.7938   -8.8872  -17.9879 C   0  0  0  0  0  0  0  0  0  0  0  0
   23.7583   -7.6177  -17.1591 S   0  0  0  0  0  0  0  0  0  0  0  0
   21.0475   -8.6435  -16.3477 C   0  0  0  0  0  0  0  0  0  0  0  0
   20.1410   -8.1412  -17.0340 O   0  0  0  0  0  0  0  0  0  0  0  0
   21.1831   -8.2252  -14.9940 N   0  0  0  0  0  0  0  0  0  0  0  0
   20.2776   -7.2227  -14.4419 C   0  0  1  0  0  0  0  0  0  0  0  0
   20.1871   -7.4753  -12.9347 C   0  0  0  0  0  0  0  0  0  0  0  0
   19.1654   -8.9370  -12.6993 S   0  0  0  0  0  0  0  0  0  0  0  0
   20.9110   -5.8963  -14.6672 C   0  0  0  0  0  0  0  0  0  0  0  0
   20.2475   -4.8789  -14.3323 O   0  0  0  0  0  0  0  0  0  0  0  0
   22.1560   -5.7127  -15.2097 O   0  0  0  0  0  0  0  0  0  0  0  0
  2  1  1  1
  2  3  1  0
  4  5  2  0
  4  3  1  0
  6  5  1  0
  7  8  2  0
  7  6  1  0
  8  4  1  0
  9  2  1  0
 10  9  2  0
 11  9  1  0
 12 11  1  0
 12 13  1  6
 14 13  1  0
 15 17  1  0
 15 12  1  0
 16 15  2  0
 18 19  1  1
 18 17  1  0
 19 20  1  0
 21 18  1  0
 21 23  1  0
 22 21  2  0
M  END
$$$$
