HCC.pdb
     RDKit          3D

 23 23  0  0  1  0  0  0  0  0999 V2000
   28.3916  -20.9965  -15.9631 N   0  0  0  0  0  0  0  0  0  0  0  0
   27.6212  -20.0477  -15.2014 C   0  0  1  0  0  0  0  0  0  0  0  0
   26.9006  -19.1087  -16.1520 C   0  0  0  0  0  0  0  0  0  0  0  0
   27.9550  -18.2614  -16.8029 C   0  0  0  0  0  0  0  0  0  0  0  0
   28.2421  -18.1674  -18.1500 C   0  0  0  0  0  0  0  0  0  0  0  0
   29.2575  -17.2954  -18.2984 N   0  0  0  0  0  0  0  0  0  0  0  0
   29.6230  -16.8339  -17.0882 C   0  0  0  0  0  0  0  0  0  0  0  0
   28.8267  -17.4263  -16.1899 N   0  0  0  0  0  0  0  0  0  0  0  0
   26.6992  -20.7630  -14.3136 C   0  0  0  0  0  0  0  0  0  0  0  0
   25.9553  -21.7133  -14.6979 O   0  0  0  0  0  0  0  0  0  0  0  0
   26.6062  -20.4000  -12.9417 N   0  0  0  0  0  0  0  0  0  0  0  0
   25.6554  -21.0001  -12.0556 C   0  0  1  0  0  0  0  0  0  0  0  0
   25.8179  -20.4834  -10.6207 C   0  0  0  0  0  0  0  0  0  0  0  0
   24.5911  -21.2448   -9.5510 S   0  0  0  0  0  0  0  0  0  0  0  0
   24.2889  -20.6039  -12.4773 C   0  0  0  0  0  0  0  0  0  0  0  0
   24.0518  -19.4056  -12.7073 O   0  0  0  0  0  0  0  0  0  0  0  0
   23.2320  -21.5449  -12.6303 N   0  0  0  0  0  0  0  0  0  0  0  0
   21.9036  -21.0965  -13.0351 C   0  0  1  0  0  0  0  0  0  0  0  0
   21.2909  -22.2092  -13.8895 C   0  0  0  0  0  0  0  0  0  0  0  0
   19.5951  -21.7309  -14.2520 S   0  0  0  0  0  0  0  0  0  0  0  0
   21.0992  -20.9494  -11.7931 C   0  0  0  0  0  0  0  0  0  0  0  0
   21.3179  -21.7745  -10.8663 O   0  0  0  0  0  0  0  0  0  0  0  0
   20.1463  -19.9847  -11.5951 O   0  0  0  0  0  0  0  0  0  0  0  0
  2  1  1  6
  2  3  1  0
  4  5  2  0
  4  3  1  0
  6  5  1  0
  7  8  2  0
  7  6  1  0
  8  4  1  0
  9  2  1  0
 10  9  2  0
 11  9  1  0
 12 11  1  0
 12 13  1  1
 14 13  1  0
 15 17  1  0
 15 12  1  0
 16 15  2  0
 18 19  1  6
 18 17  1  0
 19 20  1  0
 21 18  1  0
 21 23  1  0
 22 21  2  0
M  END
$$$$
