HCC.pdb
     RDKit          3D

 23 23  0  0  1  0  0  0  0  0999 V2000
   23.5389  -12.9033  -19.9507 N   0  0  0  0  0  0  0  0  0  0  0  0
   22.4296  -12.3075  -19.2518 C   0  0  1  0  0  0  0  0  0  0  0  0
   21.8423  -13.3214  -18.2866 C   0  0  0  0  0  0  0  0  0  0  0  0
   21.2250  -14.4049  -19.1222 C   0  0  0  0  0  0  0  0  0  0  0  0
   20.0498  -14.3410  -19.8439 C   0  0  0  0  0  0  0  0  0  0  0  0
   19.8671  -15.5313  -20.4465 N   0  0  0  0  0  0  0  0  0  0  0  0
   20.8892  -16.3475  -20.1297 C   0  0  0  0  0  0  0  0  0  0  0  0
   21.7056  -15.6540  -19.3268 N   0  0  0  0  0  0  0  0  0  0  0  0
   22.8736  -11.0834  -18.5777 C   0  0  0  0  0  0  0  0  0  0  0  0
   23.8955  -11.0281  -17.8315 O   0  0  0  0  0  0  0  0  0  0  0  0
   22.1449   -9.8737  -18.7455 N   0  0  0  0  0  0  0  0  0  0  0  0
   22.5516   -8.6457  -18.1323 C   0  0  1  0  0  0  0  0  0  0  0  0
   22.8084   -7.5522  -19.1767 C   0  0  0  0  0  0  0  0  0  0  0  0
   23.3234   -6.0348  -18.3635 S   0  0  0  0  0  0  0  0  0  0  0  0
   21.4441   -8.1431  -17.2822 C   0  0  0  0  0  0  0  0  0  0  0  0
   20.2794   -8.1992  -17.7129 O   0  0  0  0  0  0  0  0  0  0  0  0
   21.6614   -7.5962  -15.9863 N   0  0  0  0  0  0  0  0  0  0  0  0
   20.5335   -7.1167  -15.1940 C   0  0  1  0  0  0  0  0  0  0  0  0
   20.6904   -7.6963  -13.7858 C   0  0  0  0  0  0  0  0  0  0  0  0
   20.1962   -9.4242  -13.8621 S   0  0  0  0  0  0  0  0  0  0  0  0
   20.6558   -5.6366  -15.1182 C   0  0  0  0  0  0  0  0  0  0  0  0
   21.7287   -5.1269  -15.5385 O   0  0  0  0  0  0  0  0  0  0  0  0
   19.6868   -4.8019  -14.6261 O   0  0  0  0  0  0  0  0  0  0  0  0
  2  1  1  1
  2  3  1  0
  4  5  2  0
  4  3  1  0
  6  5  1  0
  7  8  2  0
  7  6  1  0
  8  4  1  0
  9  2  1  0
 10  9  2  0
 11  9  1  0
 12 11  1  0
 12 13  1  6
 14 13  1  0
 15 17  1  0
 15 12  1  0
 16 15  2  0
 18 19  1  1
 18 17  1  0
 19 20  1  0
 21 18  1  0
 21 23  1  0
 22 21  2  0
M  END
$$$$
