HCC.pdb
     RDKit          3D

 23 23  0  0  1  0  0  0  0  0999 V2000
   19.9710  -11.2635  -18.3887 N   0  0  0  0  0  0  0  0  0  0  0  0
   20.9824  -10.4007  -17.8348 C   0  0  1  0  0  0  0  0  0  0  0  0
   21.8947   -9.9184  -18.9482 C   0  0  0  0  0  0  0  0  0  0  0  0
   22.6593  -11.1174  -19.4290 C   0  0  0  0  0  0  0  0  0  0  0  0
   23.8772  -11.5758  -18.9681 C   0  0  0  0  0  0  0  0  0  0  0  0
   24.2006  -12.6766  -19.6732 N   0  0  0  0  0  0  0  0  0  0  0  0
   23.2263  -12.9302  -20.5663 C   0  0  0  0  0  0  0  0  0  0  0  0
   22.2978  -11.9788  -20.4090 N   0  0  0  0  0  0  0  0  0  0  0  0
   20.3442   -9.2947  -17.1142 C   0  0  0  0  0  0  0  0  0  0  0  0
   19.4327   -8.5699  -17.6122 O   0  0  0  0  0  0  0  0  0  0  0  0
   20.7420   -8.9880  -15.7836 N   0  0  0  0  0  0  0  0  0  0  0  0
   20.1234   -7.9451  -15.0227 C   0  0  1  0  0  0  0  0  0  0  0  0
   19.5339   -8.4782  -13.7109 C   0  0  0  0  0  0  0  0  0  0  0  0
   18.1857   -9.6138  -14.0600 S   0  0  0  0  0  0  0  0  0  0  0  0
   21.1591   -6.9574  -14.6304 C   0  0  0  0  0  0  0  0  0  0  0  0
   22.3426   -7.3269  -14.5415 O   0  0  0  0  0  0  0  0  0  0  0  0
   20.8516   -5.5963  -14.3501 N   0  0  0  0  0  0  0  0  0  0  0  0
   21.9168   -4.6004  -14.2932 C   0  0  1  0  0  0  0  0  0  0  0  0
   22.4875   -4.4664  -15.7074 C   0  0  0  0  0  0  0  0  0  0  0  0
   23.7226   -3.1594  -15.6625 S   0  0  0  0  0  0  0  0  0  0  0  0
   21.2838   -3.3108  -13.9089 C   0  0  0  0  0  0  0  0  0  0  0  0
   20.1287   -3.0822  -14.3572 O   0  0  0  0  0  0  0  0  0  0  0  0
   21.8703   -2.3666  -13.1074 O   0  0  0  0  0  0  0  0  0  0  0  0
  2  1  1  6
  2  3  1  0
  4  5  2  0
  4  3  1  0
  6  5  1  0
  7  8  2  0
  7  6  1  0
  8  4  1  0
  9  2  1  0
 10  9  2  0
 11  9  1  0
 12 11  1  0
 12 13  1  1
 14 13  1  0
 15 17  1  0
 15 12  1  0
 16 15  2  0
 18 19  1  6
 18 17  1  0
 19 20  1  0
 21 18  1  0
 21 23  1  0
 22 21  2  0
M  END
$$$$
