HCC.pdb
     RDKit          3D

 23 23  0  0  1  0  0  0  0  0999 V2000
   28.5526  -10.9947  -17.9260 N   0  0  0  0  0  0  0  0  0  0  0  0
   28.9253  -10.0155  -18.9139 C   0  0  1  0  0  0  0  0  0  0  0  0
   27.7990   -9.8649  -19.9205 C   0  0  0  0  0  0  0  0  0  0  0  0
   27.6772  -11.1814  -20.6315 C   0  0  0  0  0  0  0  0  0  0  0  0
   28.5483  -11.7178  -21.5585 C   0  0  0  0  0  0  0  0  0  0  0  0
   28.0612  -12.9129  -21.9433 N   0  0  0  0  0  0  0  0  0  0  0  0
   26.9092  -13.1507  -21.2895 C   0  0  0  0  0  0  0  0  0  0  0  0
   26.6868  -12.0946  -20.4975 N   0  0  0  0  0  0  0  0  0  0  0  0
   29.2578   -8.7505  -18.2512 C   0  0  0  0  0  0  0  0  0  0  0  0
   28.5049   -8.1874  -17.4025 O   0  0  0  0  0  0  0  0  0  0  0  0
   30.4813   -8.0899  -18.5502 N   0  0  0  0  0  0  0  0  0  0  0  0
   30.8729   -6.8763  -17.8998 C   0  0  1  0  0  0  0  0  0  0  0  0
   32.3357   -6.9289  -17.4419 C   0  0  0  0  0  0  0  0  0  0  0  0
   32.4186   -7.3532  -15.6977 S   0  0  0  0  0  0  0  0  0  0  0  0
   30.7927   -5.7609  -18.8751 C   0  0  0  0  0  0  0  0  0  0  0  0
   31.3005   -5.9054  -20.0005 O   0  0  0  0  0  0  0  0  0  0  0  0
   30.1547   -4.5248  -18.5737 N   0  0  0  0  0  0  0  0  0  0  0  0
   30.0809   -3.4724  -19.5820 C   0  0  1  0  0  0  0  0  0  0  0  0
   28.7670   -2.7199  -19.3560 C   0  0  0  0  0  0  0  0  0  0  0  0
   28.7129   -1.3720  -20.5459 S   0  0  0  0  0  0  0  0  0  0  0  0
   31.2139   -2.5446  -19.3232 C   0  0  0  0  0  0  0  0  0  0  0  0
   31.5630   -2.3856  -18.1230 O   0  0  0  0  0  0  0  0  0  0  0  0
   31.8943   -1.8599  -20.2958 O   0  0  0  0  0  0  0  0  0  0  0  0
  2  1  1  1
  2  3  1  0
  4  5  2  0
  4  3  1  0
  6  5  1  0
  7  8  2  0
  7  6  1  0
  8  4  1  0
  9  2  1  0
 10  9  2  0
 11  9  1  0
 12 11  1  0
 12 13  1  6
 14 13  1  0
 15 17  1  0
 15 12  1  0
 16 15  2  0
 18 19  1  1
 18 17  1  0
 19 20  1  0
 21 18  1  0
 21 23  1  0
 22 21  2  0
M  END
$$$$
