HCC.pdb
     RDKit          3D

 23 23  0  0  1  0  0  0  0  0999 V2000
   20.9237  -12.9416  -17.2539 N   0  0  0  0  0  0  0  0  0  0  0  0
   20.1195  -11.7720  -17.0106 C   0  0  1  0  0  0  0  0  0  0  0  0
   18.7487  -12.1995  -16.5181 C   0  0  0  0  0  0  0  0  0  0  0  0
   18.1083  -12.9671  -17.6379 C   0  0  0  0  0  0  0  0  0  0  0  0
   17.7243  -14.2932  -17.6338 C   0  0  0  0  0  0  0  0  0  0  0  0
   17.1933  -14.5756  -18.8387 N   0  0  0  0  0  0  0  0  0  0  0  0
   17.2285  -13.4706  -19.6061 C   0  0  0  0  0  0  0  0  0  0  0  0
   17.7851  -12.5025  -18.8678 N   0  0  0  0  0  0  0  0  0  0  0  0
   20.8071  -10.8916  -16.0607 C   0  0  0  0  0  0  0  0  0  0  0  0
   20.4168  -10.7079  -14.8699 O   0  0  0  0  0  0  0  0  0  0  0  0
   21.9777  -10.1893  -16.4597 N   0  0  0  0  0  0  0  0  0  0  0  0
   22.6827   -9.3140  -15.5731 C   0  0  1  0  0  0  0  0  0  0  0  0
   24.1749   -9.2422  -15.9205 C   0  0  0  0  0  0  0  0  0  0  0  0
   24.9839  -10.7841  -15.4769 S   0  0  0  0  0  0  0  0  0  0  0  0
   22.1597   -7.9357  -15.7420 C   0  0  0  0  0  0  0  0  0  0  0  0
   21.5365   -7.6494  -16.7787 O   0  0  0  0  0  0  0  0  0  0  0  0
   22.3433   -6.9216  -14.7603 N   0  0  0  0  0  0  0  0  0  0  0  0
   21.6873   -5.6268  -14.9117 C   0  0  1  0  0  0  0  0  0  0  0  0
   20.1806   -5.8645  -14.7813 C   0  0  0  0  0  0  0  0  0  0  0  0
   19.3915   -4.2503  -14.6952 S   0  0  0  0  0  0  0  0  0  0  0  0
   22.1375   -4.7780  -13.7766 C   0  0  0  0  0  0  0  0  0  0  0  0
   22.4378   -5.3663  -12.7037 O   0  0  0  0  0  0  0  0  0  0  0  0
   22.2451   -3.4127  -13.8233 O   0  0  0  0  0  0  0  0  0  0  0  0
  2  1  1  1
  2  3  1  0
  4  5  2  0
  4  3  1  0
  6  5  1  0
  7  8  2  0
  7  6  1  0
  8  4  1  0
  9  2  1  0
 10  9  2  0
 11  9  1  0
 12 11  1  0
 12 13  1  6
 14 13  1  0
 15 17  1  0
 15 12  1  0
 16 15  2  0
 18 19  1  1
 18 17  1  0
 19 20  1  0
 21 18  1  0
 21 23  1  0
 22 21  2  0
M  END
$$$$
