HCC.pdb
     RDKit          3D

 23 23  0  0  1  0  0  0  0  0999 V2000
   24.0871  -12.4450  -17.1082 N   0  0  0  0  0  0  0  0  0  0  0  0
   24.4069  -11.2616  -16.3525 C   0  0  1  0  0  0  0  0  0  0  0  0
   25.7555  -10.7290  -16.8017 C   0  0  0  0  0  0  0  0  0  0  0  0
   26.7735  -11.7705  -16.4377 C   0  0  0  0  0  0  0  0  0  0  0  0
   27.4880  -12.5814  -17.2966 C   0  0  0  0  0  0  0  0  0  0  0  0
   28.2894  -13.3688  -16.5543 N   0  0  0  0  0  0  0  0  0  0  0  0
   28.1055  -13.0825  -15.2522 C   0  0  0  0  0  0  0  0  0  0  0  0
   27.1846  -12.1126  -15.1939 N   0  0  0  0  0  0  0  0  0  0  0  0
   23.3340  -10.2742  -16.5079 C   0  0  0  0  0  0  0  0  0  0  0  0
   22.7282  -10.0669  -17.6006 O   0  0  0  0  0  0  0  0  0  0  0  0
   22.9233   -9.4880  -15.3962 N   0  0  0  0  0  0  0  0  0  0  0  0
   21.7853   -8.6214  -15.4524 C   0  0  1  0  0  0  0  0  0  0  0  0
   21.1092   -8.4894  -14.0820 C   0  0  0  0  0  0  0  0  0  0  0  0
   20.2627  -10.0185  -13.6647 S   0  0  0  0  0  0  0  0  0  0  0  0
   22.2386   -7.2557  -15.8147 C   0  0  0  0  0  0  0  0  0  0  0  0
   23.2356   -6.7797  -15.2450 O   0  0  0  0  0  0  0  0  0  0  0  0
   21.5751   -6.4634  -16.7934 N   0  0  0  0  0  0  0  0  0  0  0  0
   22.0891   -5.1419  -17.1387 C   0  0  1  0  0  0  0  0  0  0  0  0
   22.4237   -5.1623  -18.6324 C   0  0  0  0  0  0  0  0  0  0  0  0
   23.9104   -6.1550  -18.8324 S   0  0  0  0  0  0  0  0  0  0  0  0
   20.9837   -4.1740  -16.9095 C   0  0  0  0  0  0  0  0  0  0  0  0
   19.8181   -4.6440  -16.8208 O   0  0  0  0  0  0  0  0  0  0  0  0
   21.1507   -2.8191  -16.7901 O   0  0  0  0  0  0  0  0  0  0  0  0
  2  1  1  6
  2  3  1  0
  4  5  2  0
  4  3  1  0
  6  5  1  0
  7  8  2  0
  7  6  1  0
  8  4  1  0
  9  2  1  0
 10  9  2  0
 11  9  1  0
 12 11  1  0
 12 13  1  1
 14 13  1  0
 15 17  1  0
 15 12  1  0
 16 15  2  0
 18 19  1  6
 18 17  1  0
 19 20  1  0
 21 18  1  0
 21 23  1  0
 22 21  2  0
M  END
$$$$
