HCC.pdb
     RDKit          3D

 23 23  0  0  1  0  0  0  0  0999 V2000
   27.7362  -21.9250  -16.1183 N   0  0  0  0  0  0  0  0  0  0  0  0
   27.1811  -20.8331  -15.3610 C   0  0  1  0  0  0  0  0  0  0  0  0
   26.5966  -19.8072  -16.3151 C   0  0  0  0  0  0  0  0  0  0  0  0
   27.7576  -19.1106  -16.9634 C   0  0  0  0  0  0  0  0  0  0  0  0
   28.4594  -18.0240  -16.4812 C   0  0  0  0  0  0  0  0  0  0  0  0
   29.4198  -17.7200  -17.3749 N   0  0  0  0  0  0  0  0  0  0  0  0
   29.3488  -18.5795  -18.4081 C   0  0  0  0  0  0  0  0  0  0  0  0
   28.3379  -19.4174  -18.1475 N   0  0  0  0  0  0  0  0  0  0  0  0
   26.1875  -21.3473  -14.4131 C   0  0  0  0  0  0  0  0  0  0  0  0
   25.3079  -22.2053  -14.7198 O   0  0  0  0  0  0  0  0  0  0  0  0
   26.1783  -20.8825  -13.0690 N   0  0  0  0  0  0  0  0  0  0  0  0
   25.1189  -21.1975  -12.1592 C   0  0  1  0  0  0  0  0  0  0  0  0
   25.4088  -20.6648  -10.7504 C   0  0  0  0  0  0  0  0  0  0  0  0
   26.8844  -21.4484  -10.0890 S   0  0  0  0  0  0  0  0  0  0  0  0
   23.8816  -20.5109  -12.6061 C   0  0  0  0  0  0  0  0  0  0  0  0
   23.9675  -19.5968  -13.4440 O   0  0  0  0  0  0  0  0  0  0  0  0
   22.5926  -20.8578  -12.1120 N   0  0  0  0  0  0  0  0  0  0  0  0
   21.4046  -20.6052  -12.9210 C   0  0  1  0  0  0  0  0  0  0  0  0
   21.5061  -21.4928  -14.1641 C   0  0  0  0  0  0  0  0  0  0  0  0
   19.9586  -21.3266  -15.0660 S   0  0  0  0  0  0  0  0  0  0  0  0
   20.2323  -21.0411  -12.1166 C   0  0  0  0  0  0  0  0  0  0  0  0
   20.3722  -22.0766  -11.4126 O   0  0  0  0  0  0  0  0  0  0  0  0
   19.0238  -20.3955  -12.0929 O   0  0  0  0  0  0  0  0  0  0  0  0
  2  1  1  6
  2  3  1  0
  4  5  2  0
  4  3  1  0
  6  5  1  0
  7  8  2  0
  7  6  1  0
  8  4  1  0
  9  2  1  0
 10  9  2  0
 11  9  1  0
 12 11  1  0
 12 13  1  1
 14 13  1  0
 15 17  1  0
 15 12  1  0
 16 15  2  0
 18 19  1  6
 18 17  1  0
 19 20  1  0
 21 18  1  0
 21 23  1  0
 22 21  2  0
M  END
$$$$
