HCC.pdb
     RDKit          3D

 23 23  0  0  1  0  0  0  0  0999 V2000
   23.4094  -12.9759  -17.2377 N   0  0  0  0  0  0  0  0  0  0  0  0
   22.4973  -11.8636  -17.3064 C   0  0  1  0  0  0  0  0  0  0  0  0
   21.1484  -12.2863  -16.7528 C   0  0  0  0  0  0  0  0  0  0  0  0
   20.6187  -13.3483  -17.6720 C   0  0  0  0  0  0  0  0  0  0  0  0
   20.2387  -13.2026  -18.9912 C   0  0  0  0  0  0  0  0  0  0  0  0
   19.8250  -14.4032  -19.4393 N   0  0  0  0  0  0  0  0  0  0  0  0
   19.9307  -15.3050  -18.4460 C   0  0  0  0  0  0  0  0  0  0  0  0
   20.4127  -14.6542  -17.3801 N   0  0  0  0  0  0  0  0  0  0  0  0
   23.0641  -10.7179  -16.5879 C   0  0  0  0  0  0  0  0  0  0  0  0
   23.4746  -10.7773  -15.3912 O   0  0  0  0  0  0  0  0  0  0  0  0
   23.1757   -9.4562  -17.2346 N   0  0  0  0  0  0  0  0  0  0  0  0
   23.7183   -8.3062  -16.5770 C   0  0  1  0  0  0  0  0  0  0  0  0
   24.8572   -7.6774  -17.3893 C   0  0  0  0  0  0  0  0  0  0  0  0
   25.3618   -6.1244  -16.6394 S   0  0  0  0  0  0  0  0  0  0  0  0
   22.6649   -7.2655  -16.4818 C   0  0  0  0  0  0  0  0  0  0  0  0
   22.0339   -6.9498  -17.5052 O   0  0  0  0  0  0  0  0  0  0  0  0
   22.3450   -6.6095  -15.2597 N   0  0  0  0  0  0  0  0  0  0  0  0
   21.3651   -5.5282  -15.2423 C   0  0  1  0  0  0  0  0  0  0  0  0
   20.0242   -6.1390  -14.8272 C   0  0  0  0  0  0  0  0  0  0  0  0
   20.2746   -6.9467  -13.2396 S   0  0  0  0  0  0  0  0  0  0  0  0
   21.7986   -4.5681  -14.1927 C   0  0  0  0  0  0  0  0  0  0  0  0
   22.8848   -4.8135  -13.6033 O   0  0  0  0  0  0  0  0  0  0  0  0
   21.0996   -3.4465  -13.8302 O   0  0  0  0  0  0  0  0  0  0  0  0
  2  1  1  1
  2  3  1  0
  4  5  2  0
  4  3  1  0
  6  5  1  0
  7  8  2  0
  7  6  1  0
  8  4  1  0
  9  2  1  0
 10  9  2  0
 11  9  1  0
 12 11  1  0
 12 13  1  6
 14 13  1  0
 15 17  1  0
 15 12  1  0
 16 15  2  0
 18 19  1  1
 18 17  1  0
 19 20  1  0
 21 18  1  0
 21 23  1  0
 22 21  2  0
M  END
$$$$
