HCC.pdb
     RDKit          3D

 23 23  0  0  1  0  0  0  0  0999 V2000
   15.8194  -13.1585  -14.8202 N   0  0  0  0  0  0  0  0  0  0  0  0
   15.8207  -11.7185  -14.8415 C   0  0  1  0  0  0  0  0  0  0  0  0
   15.1653  -11.1977  -13.5752 C   0  0  0  0  0  0  0  0  0  0  0  0
   13.6968  -11.4824  -13.7013 C   0  0  0  0  0  0  0  0  0  0  0  0
   13.0098  -12.5769  -13.2155 C   0  0  0  0  0  0  0  0  0  0  0  0
   11.7130  -12.4351  -13.5497 N   0  0  0  0  0  0  0  0  0  0  0  0
   11.5565  -11.2856  -14.2318 C   0  0  0  0  0  0  0  0  0  0  0  0
   12.7653  -10.7169  -14.3174 N   0  0  0  0  0  0  0  0  0  0  0  0
   17.1940  -11.2306  -15.0035 C   0  0  0  0  0  0  0  0  0  0  0  0
   18.1711  -11.6532  -14.3173 O   0  0  0  0  0  0  0  0  0  0  0  0
   17.4847  -10.2303  -15.9718 N   0  0  0  0  0  0  0  0  0  0  0  0
   18.8205   -9.7891  -16.2367 C   0  0  1  0  0  0  0  0  0  0  0  0
   18.9792   -9.3107  -17.6853 C   0  0  0  0  0  0  0  0  0  0  0  0
   18.8976  -10.7119  -18.8073 S   0  0  0  0  0  0  0  0  0  0  0  0
   19.1148   -8.6099  -15.3853 C   0  0  0  0  0  0  0  0  0  0  0  0
   18.1714   -7.9186  -14.9645 O   0  0  0  0  0  0  0  0  0  0  0  0
   20.4408   -8.2353  -15.0283 N   0  0  0  0  0  0  0  0  0  0  0  0
   20.6730   -7.0483  -14.2117 C   0  0  1  0  0  0  0  0  0  0  0  0
   21.9166   -7.3197  -13.3614 C   0  0  0  0  0  0  0  0  0  0  0  0
   22.2478   -5.8295  -12.4099 S   0  0  0  0  0  0  0  0  0  0  0  0
   20.9678   -5.9303  -15.1470 C   0  0  0  0  0  0  0  0  0  0  0  0
   21.6007   -6.2136  -16.1990 O   0  0  0  0  0  0  0  0  0  0  0  0
   20.5992   -4.6269  -14.9394 O   0  0  0  0  0  0  0  0  0  0  0  0
  2  1  1  1
  2  3  1  0
  4  5  2  0
  4  3  1  0
  6  5  1  0
  7  8  2  0
  7  6  1  0
  8  4  1  0
  9  2  1  0
 10  9  2  0
 11  9  1  0
 12 11  1  0
 12 13  1  6
 14 13  1  0
 15 17  1  0
 15 12  1  0
 16 15  2  0
 18 19  1  1
 18 17  1  0
 19 20  1  0
 21 18  1  0
 21 23  1  0
 22 21  2  0
M  END
$$$$
