VKF.pdb
     RDKit          3D

 28 28  0  0  1  0  0  0  0  0999 V2000
   28.0552  -16.2042  -18.8512 C   0  0  0  0  0  0  0  0  0  0  0  0
   27.6590  -16.8115  -17.5229 C   0  0  2  0  0  0  0  0  0  0  0  0
   28.3100  -18.1622  -17.4183 C   0  0  0  0  0  0  0  0  0  0  0  0
   26.1410  -16.8955  -17.4887 C   0  0  2  0  0  0  0  0  0  0  0  0
   25.6439  -15.5570  -17.7089 N   0  0  0  0  0  0  0  0  0  0  0  0
   25.6559  -17.3749  -16.1760 C   0  0  0  0  0  0  0  0  0  0  0  0
   26.1447  -16.9254  -15.0849 O   0  0  0  0  0  0  0  0  0  0  0  0
   24.6474  -18.3354  -16.0659 N   0  0  0  0  0  0  0  0  0  0  0  0
   24.2604  -18.9908  -14.8365 C   0  0  1  0  0  0  0  0  0  0  0  0
   22.8173  -19.4189  -14.9818 C   0  0  0  0  0  0  0  0  0  0  0  0
   22.2951  -20.1657  -13.8138 C   0  0  0  0  0  0  0  0  0  0  0  0
   20.8734  -20.5832  -14.0641 C   0  0  0  0  0  0  0  0  0  0  0  0
   20.3087  -21.2649  -12.8475 C   0  0  0  0  0  0  0  0  0  0  0  0
   18.9233  -21.6687  -13.0617 N   0  0  0  0  0  0  0  0  0  0  0  0
   25.1647  -20.0785  -14.4546 C   0  0  0  0  0  0  0  0  0  0  0  0
   25.5579  -20.9760  -15.2676 O   0  0  0  0  0  0  0  0  0  0  0  0
   25.6589  -20.1873  -13.1259 N   0  0  0  0  0  0  0  0  0  0  0  0
   26.5128  -21.3239  -12.7277 C   0  0  1  0  0  0  0  0  0  0  0  0
   27.6357  -20.8150  -11.8858 C   0  0  0  0  0  0  0  0  0  0  0  0
   27.1478  -20.3774  -10.5571 C   0  0  0  0  0  0  0  0  0  0  0  0
   26.7050  -19.0660  -10.3606 C   0  0  0  0  0  0  0  0  0  0  0  0
   26.2365  -18.6480   -9.1356 C   0  0  0  0  0  0  0  0  0  0  0  0
   26.1904  -19.5208   -8.0562 C   0  0  0  0  0  0  0  0  0  0  0  0
   26.6242  -20.8067   -8.2475 C   0  0  0  0  0  0  0  0  0  0  0  0
   27.0901  -21.2167   -9.4720 C   0  0  0  0  0  0  0  0  0  0  0  0
   25.6773  -22.3407  -12.0777 C   0  0  0  0  0  0  0  0  0  0  0  0
   26.1476  -23.6151  -11.7816 O   0  0  0  0  0  0  0  0  0  0  0  0
   24.4950  -22.0802  -11.7671 O   0  0  0  0  0  0  0  0  0  0  0  0
  2  1  1  6
  2  3  1  0
  4  2  1  0
  4  5  1  1
  6  8  1  0
  6  4  1  0
  7  6  2  0
  9  8  1  0
  9 10  1  6
 11 10  1  0
 12 11  1  0
 13 12  1  0
 14 13  1  0
 15  9  1  0
 15 16  2  0
 17 15  1  0
 18 17  1  0
 18 26  1  0
 19 20  1  0
 18 19  1  1
 20 25  2  0
 21 20  1  0
 22 21  2  0
 22 23  1  0
 23 24  2  0
 24 25  1  0
 26 28  2  0
 26 27  1  0
M  END
$$$$
