VKF.pdb
     RDKit          3D

 28 28  0  0  1  0  0  0  0  0999 V2000
   19.6592  -20.6465  -15.1434 C   0  0  0  0  0  0  0  0  0  0  0  0
   20.8098  -21.4066  -14.5199 C   0  0  2  0  0  0  0  0  0  0  0  0
   20.2994  -22.7559  -14.0982 C   0  0  0  0  0  0  0  0  0  0  0  0
   21.3212  -20.5872  -13.3453 C   0  0  2  0  0  0  0  0  0  0  0  0
   21.6802  -19.2887  -13.8671 N   0  0  0  0  0  0  0  0  0  0  0  0
   22.5196  -21.2051  -12.7366 C   0  0  0  0  0  0  0  0  0  0  0  0
   22.4334  -22.2737  -12.0423 O   0  0  0  0  0  0  0  0  0  0  0  0
   23.7944  -20.6546  -12.8900 N   0  0  0  0  0  0  0  0  0  0  0  0
   24.9899  -21.1437  -12.2403 C   0  0  1  0  0  0  0  0  0  0  0  0
   26.1484  -20.9183  -13.1857 C   0  0  0  0  0  0  0  0  0  0  0  0
   26.0774  -21.7309  -14.4223 C   0  0  0  0  0  0  0  0  0  0  0  0
   27.2416  -21.4095  -15.3165 C   0  0  0  0  0  0  0  0  0  0  0  0
   28.2892  -22.4846  -15.2145 C   0  0  0  0  0  0  0  0  0  0  0  0
   29.3783  -22.2541  -16.1574 N   0  0  0  0  0  0  0  0  0  0  0  0
   25.1949  -20.5730  -10.9065 C   0  0  0  0  0  0  0  0  0  0  0  0
   24.7281  -19.4425  -10.5527 O   0  0  0  0  0  0  0  0  0  0  0  0
   25.9430  -21.2704   -9.9188 N   0  0  0  0  0  0  0  0  0  0  0  0
   26.3070  -20.6177   -8.6456 C   0  0  1  0  0  0  0  0  0  0  0  0
   27.1519  -21.5530   -7.8456 C   0  0  0  0  0  0  0  0  0  0  0  0
   27.6003  -20.9176   -6.5845 C   0  0  0  0  0  0  0  0  0  0  0  0
   28.7058  -20.0618   -6.5753 C   0  0  0  0  0  0  0  0  0  0  0  0
   29.1265  -19.4535   -5.4143 C   0  0  0  0  0  0  0  0  0  0  0  0
   28.4621  -19.6739   -4.2148 C   0  0  0  0  0  0  0  0  0  0  0  0
   27.3782  -20.5126   -4.2225 C   0  0  0  0  0  0  0  0  0  0  0  0
   26.9641  -21.1157   -5.3840 C   0  0  0  0  0  0  0  0  0  0  0  0
   26.9391  -19.3256   -8.9380 C   0  0  0  0  0  0  0  0  0  0  0  0
   26.6112  -18.1621   -8.2514 O   0  0  0  0  0  0  0  0  0  0  0  0
   27.8079  -19.2373   -9.8322 O   0  0  0  0  0  0  0  0  0  0  0  0
  2  1  1  1
  2  3  1  0
  4  2  1  0
  4  5  1  6
  6  8  1  0
  6  4  1  0
  7  6  2  0
  9  8  1  0
  9 10  1  6
 11 10  1  0
 12 11  1  0
 13 12  1  0
 14 13  1  0
 15  9  1  0
 15 16  2  0
 17 15  1  0
 18 17  1  0
 18 26  1  0
 19 20  1  0
 18 19  1  6
 20 25  2  0
 21 20  1  0
 22 21  2  0
 22 23  1  0
 23 24  2  0
 24 25  1  0
 26 28  2  0
 26 27  1  0
M  END
$$$$
