VKF.pdb
     RDKit          3D

 28 28  0  0  1  0  0  0  0  0999 V2000
   27.6931  -12.0734  -16.9272 C   0  0  0  0  0  0  0  0  0  0  0  0
   26.6927  -10.9437  -16.8121 C   0  0  2  0  0  0  0  0  0  0  0  0
   26.4688  -10.6700  -15.3512 C   0  0  0  0  0  0  0  0  0  0  0  0
   25.4205  -11.3802  -17.5218 C   0  0  2  0  0  0  0  0  0  0  0  0
   25.7724  -11.6133  -18.9034 N   0  0  0  0  0  0  0  0  0  0  0  0
   24.3819  -10.3283  -17.4645 C   0  0  0  0  0  0  0  0  0  0  0  0
   24.5203   -9.2260  -18.0948 O   0  0  0  0  0  0  0  0  0  0  0  0
   23.2079  -10.4876  -16.7241 N   0  0  0  0  0  0  0  0  0  0  0  0
   22.1920   -9.4725  -16.5565 C   0  0  1  0  0  0  0  0  0  0  0  0
   20.8828  -10.1775  -16.2814 C   0  0  0  0  0  0  0  0  0  0  0  0
   19.7274   -9.2604  -16.1452 C   0  0  0  0  0  0  0  0  0  0  0  0
   18.4656  -10.0500  -15.9386 C   0  0  0  0  0  0  0  0  0  0  0  0
   17.9596   -9.8655  -14.5338 C   0  0  0  0  0  0  0  0  0  0  0  0
   16.7539  -10.6520  -14.2974 N   0  0  0  0  0  0  0  0  0  0  0  0
   22.5443   -8.4656  -15.5521 C   0  0  0  0  0  0  0  0  0  0  0  0
   22.9693   -8.7606  -14.3886 O   0  0  0  0  0  0  0  0  0  0  0  0
   22.4260   -7.0772  -15.8343 N   0  0  0  0  0  0  0  0  0  0  0  0
   22.8419   -6.0660  -14.8423 C   0  0  1  0  0  0  0  0  0  0  0  0
   24.0432   -5.3457  -15.3587 C   0  0  0  0  0  0  0  0  0  0  0  0
   23.7189   -4.5842  -16.5875 C   0  0  0  0  0  0  0  0  0  0  0  0
   23.1957   -3.2905  -16.5030 C   0  0  0  0  0  0  0  0  0  0  0  0
   22.9018   -2.5652  -17.6355 C   0  0  0  0  0  0  0  0  0  0  0  0
   23.1176   -3.1004  -18.8987 C   0  0  0  0  0  0  0  0  0  0  0  0
   23.6306   -4.3685  -18.9830 C   0  0  0  0  0  0  0  0  0  0  0  0
   23.9215   -5.0860  -17.8494 C   0  0  0  0  0  0  0  0  0  0  0  0
   21.6967   -5.1994  -14.5387 C   0  0  0  0  0  0  0  0  0  0  0  0
   20.4662   -5.3404  -15.1702 O   0  0  0  0  0  0  0  0  0  0  0  0
   21.8018   -4.2924  -13.6853 O   0  0  0  0  0  0  0  0  0  0  0  0
  2  1  1  1
  2  3  1  0
  4  2  1  0
  4  5  1  6
  6  8  1  0
  6  4  1  0
  7  6  2  0
  9  8  1  0
  9 10  1  1
 11 10  1  0
 12 11  1  0
 13 12  1  0
 14 13  1  0
 15  9  1  0
 15 16  2  0
 17 15  1  0
 18 17  1  0
 18 26  1  0
 19 20  1  0
 18 19  1  6
 20 25  2  0
 21 20  1  0
 22 21  2  0
 22 23  1  0
 23 24  2  0
 24 25  1  0
 26 28  2  0
 26 27  1  0
M  END
$$$$
