VKF.pdb
     RDKit          3D

 28 28  0  0  1  0  0  0  0  0999 V2000
   28.8919  -19.1380  -15.9449 C   0  0  0  0  0  0  0  0  0  0  0  0
   28.1895  -18.9409  -14.6190 C   0  0  2  0  0  0  0  0  0  0  0  0
   29.0428  -19.5578  -13.5463 C   0  0  0  0  0  0  0  0  0  0  0  0
   26.8212  -19.5967  -14.7199 C   0  0  2  0  0  0  0  0  0  0  0  0
   26.1369  -18.9665  -15.8252 N   0  0  0  0  0  0  0  0  0  0  0  0
   26.0301  -19.3886  -13.4874 C   0  0  0  0  0  0  0  0  0  0  0  0
   25.6755  -18.2184  -13.1178 O   0  0  0  0  0  0  0  0  0  0  0  0
   25.6350  -20.4531  -12.6735 N   0  0  0  0  0  0  0  0  0  0  0  0
   24.9792  -20.3151  -11.3922 C   0  0  1  0  0  0  0  0  0  0  0  0
   23.6532  -21.0370  -11.4776 C   0  0  0  0  0  0  0  0  0  0  0  0
   22.7145  -20.4482  -12.4608 C   0  0  0  0  0  0  0  0  0  0  0  0
   21.4116  -21.1965  -12.4398 C   0  0  0  0  0  0  0  0  0  0  0  0
   20.4441  -20.5858  -13.4169 C   0  0  0  0  0  0  0  0  0  0  0  0
   19.1972  -21.3411  -13.4702 N   0  0  0  0  0  0  0  0  0  0  0  0
   25.8153  -20.7445  -10.2683 C   0  0  0  0  0  0  0  0  0  0  0  0
   26.4748  -21.8337  -10.2662 O   0  0  0  0  0  0  0  0  0  0  0  0
   25.9339  -19.9469   -9.0973 N   0  0  0  0  0  0  0  0  0  0  0  0
   26.8052  -20.3666   -7.9818 C   0  0  1  0  0  0  0  0  0  0  0  0
   27.6101  -19.1942   -7.5277 C   0  0  0  0  0  0  0  0  0  0  0  0
   28.3260  -19.4973   -6.2665 C   0  0  0  0  0  0  0  0  0  0  0  0
   29.5125  -20.2366   -6.2844 C   0  0  0  0  0  0  0  0  0  0  0  0
   30.1962  -20.5151   -5.1226 C   0  0  0  0  0  0  0  0  0  0  0  0
   29.7246  -20.0678   -3.8952 C   0  0  0  0  0  0  0  0  0  0  0  0
   28.5616  -19.3430   -3.8763 C   0  0  0  0  0  0  0  0  0  0  0  0
   27.8850  -19.0689   -5.0388 C   0  0  0  0  0  0  0  0  0  0  0  0
   25.9762  -20.9774   -6.9357 C   0  0  0  0  0  0  0  0  0  0  0  0
   26.5052  -21.8090   -5.9552 O   0  0  0  0  0  0  0  0  0  0  0  0
   24.7459  -20.7601   -6.8997 O   0  0  0  0  0  0  0  0  0  0  0  0
  2  1  1  6
  2  3  1  0
  4  2  1  0
  4  5  1  6
  6  8  1  0
  6  4  1  0
  7  6  2  0
  9  8  1  0
  9 10  1  6
 11 10  1  0
 12 11  1  0
 13 12  1  0
 14 13  1  0
 15  9  1  0
 15 16  2  0
 17 15  1  0
 18 17  1  0
 18 26  1  0
 19 20  1  0
 18 19  1  1
 20 25  2  0
 21 20  1  0
 22 21  2  0
 22 23  1  0
 23 24  2  0
 24 25  1  0
 26 28  2  0
 26 27  1  0
M  END
$$$$
