VKF.pdb
     RDKit          3D

 28 28  0  0  1  0  0  0  0  0999 V2000
   26.2959  -17.7649  -15.3258 C   0  0  0  0  0  0  0  0  0  0  0  0
   27.7690  -17.7286  -14.9809 C   0  0  2  0  0  0  0  0  0  0  0  0
   28.5401  -17.5523  -16.2590 C   0  0  0  0  0  0  0  0  0  0  0  0
   28.1094  -19.0310  -14.2734 C   0  0  2  0  0  0  0  0  0  0  0  0
   27.9034  -20.0925  -15.2316 N   0  0  0  0  0  0  0  0  0  0  0  0
   27.2258  -19.2605  -13.1094 C   0  0  0  0  0  0  0  0  0  0  0  0
   27.1136  -18.3901  -12.1814 O   0  0  0  0  0  0  0  0  0  0  0  0
   26.4764  -20.4311  -12.9691 N   0  0  0  0  0  0  0  0  0  0  0  0
   25.6126  -20.7306  -11.8488 C   0  0  1  0  0  0  0  0  0  0  0  0
   24.5519  -21.6928  -12.3344 C   0  0  0  0  0  0  0  0  0  0  0  0
   23.1668  -21.2358  -12.0752 C   0  0  0  0  0  0  0  0  0  0  0  0
   22.6458  -20.4749  -13.2617 C   0  0  0  0  0  0  0  0  0  0  0  0
   21.2899  -19.8988  -12.9568 C   0  0  0  0  0  0  0  0  0  0  0  0
   20.7992  -19.0844  -14.0632 N   0  0  0  0  0  0  0  0  0  0  0  0
   26.3424  -21.2008  -10.6686 C   0  0  0  0  0  0  0  0  0  0  0  0
   27.2476  -22.0949  -10.7191 O   0  0  0  0  0  0  0  0  0  0  0  0
   26.0690  -20.6690   -9.3787 N   0  0  0  0  0  0  0  0  0  0  0  0
   26.6575  -21.2781   -8.1696 C   0  0  1  0  0  0  0  0  0  0  0  0
   28.0581  -20.7863   -8.0115 C   0  0  0  0  0  0  0  0  0  0  0  0
   28.2602  -20.1775   -6.6760 C   0  0  0  0  0  0  0  0  0  0  0  0
   27.6637  -18.9541   -6.3564 C   0  0  0  0  0  0  0  0  0  0  0  0
   27.8312  -18.3822   -5.1155 C   0  0  0  0  0  0  0  0  0  0  0  0
   28.6004  -19.0070   -4.1425 C   0  0  0  0  0  0  0  0  0  0  0  0
   29.1856  -20.2063   -4.4544 C   0  0  0  0  0  0  0  0  0  0  0  0
   29.0143  -20.7709   -5.6939 C   0  0  0  0  0  0  0  0  0  0  0  0
   25.7825  -21.0009   -7.0241 C   0  0  0  0  0  0  0  0  0  0  0  0
   24.6861  -20.1505   -7.1113 O   0  0  0  0  0  0  0  0  0  0  0  0
   26.0064  -21.5349   -5.9164 O   0  0  0  0  0  0  0  0  0  0  0  0
  2  1  1  6
  2  3  1  0
  4  2  1  0
  4  5  1  6
  6  8  1  0
  6  4  1  0
  7  6  2  0
  9  8  1  0
  9 10  1  6
 11 10  1  0
 12 11  1  0
 13 12  1  0
 14 13  1  0
 15  9  1  0
 15 16  2  0
 17 15  1  0
 18 17  1  0
 18 26  1  0
 19 20  1  0
 18 19  1  1
 20 25  2  0
 21 20  1  0
 22 21  2  0
 22 23  1  0
 23 24  2  0
 24 25  1  0
 26 28  2  0
 26 27  1  0
M  END
$$$$
