VKF.pdb
     RDKit          3D

 28 28  0  0  1  0  0  0  0  0999 V2000
   22.2825  -19.4332  -15.4411 C   0  0  0  0  0  0  0  0  0  0  0  0
   22.9172  -18.8094  -16.6652 C   0  0  2  0  0  0  0  0  0  0  0  0
   21.8149  -18.2887  -17.5444 C   0  0  0  0  0  0  0  0  0  0  0  0
   23.7482  -19.8823  -17.3513 C   0  0  2  0  0  0  0  0  0  0  0  0
   22.8197  -20.7702  -18.0123 N   0  0  0  0  0  0  0  0  0  0  0  0
   24.5392  -20.6608  -16.3733 C   0  0  0  0  0  0  0  0  0  0  0  0
   24.0271  -21.6455  -15.7411 O   0  0  0  0  0  0  0  0  0  0  0  0
   25.8748  -20.3598  -16.0952 N   0  0  0  0  0  0  0  0  0  0  0  0
   26.6711  -21.0005  -15.0724 C   0  0  1  0  0  0  0  0  0  0  0  0
   28.0832  -21.1190  -15.6004 C   0  0  0  0  0  0  0  0  0  0  0  0
   28.2220  -22.0707  -16.7271 C   0  0  0  0  0  0  0  0  0  0  0  0
   29.2431  -23.1206  -16.3907 C   0  0  0  0  0  0  0  0  0  0  0  0
   29.4374  -24.0510  -17.5569 C   0  0  0  0  0  0  0  0  0  0  0  0
   30.5808  -24.9325  -17.3467 N   0  0  0  0  0  0  0  0  0  0  0  0
   26.5801  -20.3347  -13.7705 C   0  0  0  0  0  0  0  0  0  0  0  0
   26.5759  -19.0688  -13.6337 O   0  0  0  0  0  0  0  0  0  0  0  0
   26.4899  -21.0876  -12.5678 N   0  0  0  0  0  0  0  0  0  0  0  0
   26.4917  -20.4155  -11.2533 C   0  0  1  0  0  0  0  0  0  0  0  0
   25.4428  -19.3532  -11.2506 C   0  0  0  0  0  0  0  0  0  0  0  0
   24.0900  -19.9415  -11.3879 C   0  0  0  0  0  0  0  0  0  0  0  0
   23.6001  -20.3080  -12.6450 C   0  0  0  0  0  0  0  0  0  0  0  0
   22.3507  -20.8679  -12.7874 C   0  0  0  0  0  0  0  0  0  0  0  0
   21.5385  -21.0853  -11.6820 C   0  0  0  0  0  0  0  0  0  0  0  0
   22.0176  -20.7266  -10.4491 C   0  0  0  0  0  0  0  0  0  0  0  0
   23.2647  -20.1687  -10.3144 C   0  0  0  0  0  0  0  0  0  0  0  0
   26.3350  -21.4280  -10.2022 C   0  0  0  0  0  0  0  0  0  0  0  0
   26.3726  -21.1108   -8.8491 O   0  0  0  0  0  0  0  0  0  0  0  0
   26.1599  -22.6281  -10.5043 O   0  0  0  0  0  0  0  0  0  0  0  0
  2  1  1  1
  2  3  1  0
  4  2  1  0
  4  5  1  1
  6  8  1  0
  6  4  1  0
  7  6  2  0
  9  8  1  0
  9 10  1  6
 11 10  1  0
 12 11  1  0
 13 12  1  0
 14 13  1  0
 15  9  1  0
 15 16  2  0
 17 15  1  0
 18 17  1  0
 18 26  1  0
 19 20  1  0
 18 19  1  6
 20 25  2  0
 21 20  1  0
 22 21  2  0
 22 23  1  0
 23 24  2  0
 24 25  1  0
 26 28  2  0
 26 27  1  0
M  END
$$$$
