VKF.pdb
     RDKit          3D

 28 28  0  0  1  0  0  0  0  0999 V2000
   27.4759  -17.0955  -13.4515 C   0  0  0  0  0  0  0  0  0  0  0  0
   28.1561  -17.9208  -14.5221 C   0  0  2  0  0  0  0  0  0  0  0  0
   28.4227  -17.0245  -15.6988 C   0  0  0  0  0  0  0  0  0  0  0  0
   27.2309  -19.0761  -14.8713 C   0  0  2  0  0  0  0  0  0  0  0  0
   26.3727  -18.6156  -15.9384 N   0  0  0  0  0  0  0  0  0  0  0  0
   26.3912  -19.4637  -13.7168 C   0  0  0  0  0  0  0  0  0  0  0  0
   25.4050  -18.7429  -13.3435 O   0  0  0  0  0  0  0  0  0  0  0  0
   26.6335  -20.6280  -12.9837 N   0  0  0  0  0  0  0  0  0  0  0  0
   25.8629  -21.0598  -11.8390 C   0  0  1  0  0  0  0  0  0  0  0  0
   25.3209  -22.4376  -12.1466 C   0  0  0  0  0  0  0  0  0  0  0  0
   24.4054  -22.4734  -13.3107 C   0  0  0  0  0  0  0  0  0  0  0  0
   23.8199  -23.8491  -13.4624 C   0  0  0  0  0  0  0  0  0  0  0  0
   22.8046  -23.8637  -14.5725 C   0  0  0  0  0  0  0  0  0  0  0  0
   22.1197  -25.1497  -14.6472 N   0  0  0  0  0  0  0  0  0  0  0  0
   26.6096  -20.9850  -10.5807 C   0  0  0  0  0  0  0  0  0  0  0  0
   27.8758  -21.1015  -10.5136 O   0  0  0  0  0  0  0  0  0  0  0  0
   25.9410  -20.7738   -9.3438 N   0  0  0  0  0  0  0  0  0  0  0  0
   26.6746  -20.8513   -8.0651 C   0  0  1  0  0  0  0  0  0  0  0  0
   27.4290  -19.5794   -7.8610 C   0  0  0  0  0  0  0  0  0  0  0  0
   28.0553  -19.5423   -6.5189 C   0  0  0  0  0  0  0  0  0  0  0  0
   29.2678  -20.1974   -6.2835 C   0  0  0  0  0  0  0  0  0  0  0  0
   29.8689  -20.1611   -5.0457 C   0  0  0  0  0  0  0  0  0  0  0  0
   29.2854  -19.4701   -3.9917 C   0  0  0  0  0  0  0  0  0  0  0  0
   28.0969  -18.8274   -4.2211 C   0  0  0  0  0  0  0  0  0  0  0  0
   27.5031  -18.8677   -5.4581 C   0  0  0  0  0  0  0  0  0  0  0  0
   25.7263  -21.1751   -6.9924 C   0  0  0  0  0  0  0  0  0  0  0  0
   26.1291  -21.7276   -5.7819 O   0  0  0  0  0  0  0  0  0  0  0  0
   24.5050  -20.9571   -7.1442 O   0  0  0  0  0  0  0  0  0  0  0  0
  2  1  1  1
  2  3  1  0
  4  2  1  0
  4  5  1  6
  6  8  1  0
  6  4  1  0
  7  6  2  0
  9  8  1  0
  9 10  1  6
 11 10  1  0
 12 11  1  0
 13 12  1  0
 14 13  1  0
 15  9  1  0
 15 16  2  0
 17 15  1  0
 18 17  1  0
 18 26  1  0
 19 20  1  0
 18 19  1  1
 20 25  2  0
 21 20  1  0
 22 21  2  0
 22 23  1  0
 23 24  2  0
 24 25  1  0
 26 28  2  0
 26 27  1  0
M  END
$$$$
