VKF.pdb
     RDKit          3D

 28 28  0  0  1  0  0  0  0  0999 V2000
   26.7847  -16.8936  -15.0752 C   0  0  0  0  0  0  0  0  0  0  0  0
   27.9113  -17.3486  -15.9774 C   0  0  2  0  0  0  0  0  0  0  0  0
   28.5587  -16.1252  -16.5635 C   0  0  0  0  0  0  0  0  0  0  0  0
   27.3124  -18.2541  -17.0423 C   0  0  2  0  0  0  0  0  0  0  0  0
   26.4834  -17.4198  -17.8814 N   0  0  0  0  0  0  0  0  0  0  0  0
   26.4713  -19.3121  -16.4412 C   0  0  0  0  0  0  0  0  0  0  0  0
   25.2065  -19.1705  -16.3321 O   0  0  0  0  0  0  0  0  0  0  0  0
   27.0145  -20.5086  -15.9669 N   0  0  0  0  0  0  0  0  0  0  0  0
   26.2567  -21.5716  -15.3452 C   0  0  1  0  0  0  0  0  0  0  0  0
   26.7134  -22.8767  -15.9575 C   0  0  0  0  0  0  0  0  0  0  0  0
   25.9063  -24.0470  -15.5408 C   0  0  0  0  0  0  0  0  0  0  0  0
   26.3268  -25.2639  -16.3158 C   0  0  0  0  0  0  0  0  0  0  0  0
   25.3870  -26.4064  -16.0420 C   0  0  0  0  0  0  0  0  0  0  0  0
   25.6428  -27.5291  -16.9377 N   0  0  0  0  0  0  0  0  0  0  0  0
   26.3261  -21.5483  -13.8819 C   0  0  0  0  0  0  0  0  0  0  0  0
   27.4169  -21.4209  -13.2376 O   0  0  0  0  0  0  0  0  0  0  0  0
   25.1507  -21.6698  -13.0911 N   0  0  0  0  0  0  0  0  0  0  0  0
   25.1303  -21.2032  -11.6907 C   0  0  1  0  0  0  0  0  0  0  0  0
   26.1224  -20.0989  -11.5330 C   0  0  0  0  0  0  0  0  0  0  0  0
   26.7809  -20.1611  -10.2074 C   0  0  0  0  0  0  0  0  0  0  0  0
   26.2473  -19.4678   -9.1169 C   0  0  0  0  0  0  0  0  0  0  0  0
   26.8402  -19.5264   -7.8759 C   0  0  0  0  0  0  0  0  0  0  0  0
   27.9894  -20.2788   -7.6716 C   0  0  0  0  0  0  0  0  0  0  0  0
   28.5135  -20.9591   -8.7397 C   0  0  0  0  0  0  0  0  0  0  0  0
   27.9170  -20.8962   -9.9745 C   0  0  0  0  0  0  0  0  0  0  0  0
   23.7541  -20.8407  -11.3310 C   0  0  0  0  0  0  0  0  0  0  0  0
   23.2972  -20.8563  -10.0180 O   0  0  0  0  0  0  0  0  0  0  0  0
   22.9400  -20.5012  -12.2165 O   0  0  0  0  0  0  0  0  0  0  0  0
  2  1  1  1
  2  3  1  0
  4  2  1  0
  4  5  1  6
  6  8  1  0
  6  4  1  0
  7  6  2  0
  9  8  1  0
  9 10  1  6
 11 10  1  0
 12 11  1  0
 13 12  1  0
 14 13  1  0
 15  9  1  0
 15 16  2  0
 17 15  1  0
 18 17  1  0
 18 26  1  0
 19 20  1  0
 18 19  1  6
 20 25  2  0
 21 20  1  0
 22 21  2  0
 22 23  1  0
 23 24  2  0
 24 25  1  0
 26 28  2  0
 26 27  1  0
M  END
$$$$
