VKF.pdb
     RDKit          3D

 28 28  0  0  1  0  0  0  0  0999 V2000
   40.5683  -24.9736    2.8797 C   0  0  0  0  0  0  0  0  0  0  0  0
   41.4865  -24.9408    4.0822 C   0  0  2  0  0  0  0  0  0  0  0  0
   42.9034  -24.8978    3.5823 C   0  0  0  0  0  0  0  0  0  0  0  0
   41.2025  -26.1821    4.9135 C   0  0  2  0  0  0  0  0  0  0  0  0
   41.4672  -27.3216    4.0657 N   0  0  0  0  0  0  0  0  0  0  0  0
   39.7896  -26.2290    5.3490 C   0  0  0  0  0  0  0  0  0  0  0  0
   38.9089  -26.8610    4.6733 O   0  0  0  0  0  0  0  0  0  0  0  0
   39.3524  -25.5895    6.5116 N   0  0  0  0  0  0  0  0  0  0  0  0
   38.0079  -25.6610    7.0390 C   0  0  1  0  0  0  0  0  0  0  0  0
   38.1047  -26.1250    8.4750 C   0  0  0  0  0  0  0  0  0  0  0  0
   36.7963  -26.2114    9.1644 C   0  0  0  0  0  0  0  0  0  0  0  0
   36.9932  -26.6509   10.5879 C   0  0  0  0  0  0  0  0  0  0  0  0
   35.6637  -26.7956   11.2771 C   0  0  0  0  0  0  0  0  0  0  0  0
   35.8317  -27.0890   12.6963 N   0  0  0  0  0  0  0  0  0  0  0  0
   37.2557  -24.4153    6.8690 C   0  0  0  0  0  0  0  0  0  0  0  0
   37.7677  -23.2626    7.0430 O   0  0  0  0  0  0  0  0  0  0  0  0
   35.8847  -24.4334    6.4926 N   0  0  0  0  0  0  0  0  0  0  0  0
   35.1480  -23.1753    6.2604 C   0  0  1  0  0  0  0  0  0  0  0  0
   34.0378  -23.4345    5.2965 C   0  0  0  0  0  0  0  0  0  0  0  0
   33.1900  -22.2315    5.1263 C   0  0  0  0  0  0  0  0  0  0  0  0
   33.4527  -21.3178    4.1012 C   0  0  0  0  0  0  0  0  0  0  0  0
   32.6661  -20.2024    3.9219 C   0  0  0  0  0  0  0  0  0  0  0  0
   31.5854  -19.9524    4.7577 C   0  0  0  0  0  0  0  0  0  0  0  0
   31.3268  -20.8473    5.7629 C   0  0  0  0  0  0  0  0  0  0  0  0
   32.1153  -21.9576    5.9358 C   0  0  0  0  0  0  0  0  0  0  0  0
   34.7163  -22.6320    7.5538 C   0  0  0  0  0  0  0  0  0  0  0  0
   34.7498  -21.2721    7.8406 O   0  0  0  0  0  0  0  0  0  0  0  0
   34.2983  -23.3962    8.4503 O   0  0  0  0  0  0  0  0  0  0  0  0
  2  1  1  6
  2  3  1  0
  4  2  1  0
  4  5  1  6
  6  8  1  0
  6  4  1  0
  7  6  2  0
  9  8  1  0
  9 10  1  1
 11 10  1  0
 12 11  1  0
 13 12  1  0
 14 13  1  0
 15  9  1  0
 15 16  2  0
 17 15  1  0
 18 17  1  0
 18 26  1  0
 19 20  1  0
 18 19  1  6
 20 25  2  0
 21 20  1  0
 22 21  2  0
 22 23  1  0
 23 24  2  0
 24 25  1  0
 26 28  2  0
 26 27  1  0
M  END
$$$$
