VKF.pdb
     RDKit          3D

 28 28  0  0  1  0  0  0  0  0999 V2000
   22.8094  -23.9389  -19.9841 C   0  0  0  0  0  0  0  0  0  0  0  0
   23.1823  -22.4832  -19.8050 C   0  0  2  0  0  0  0  0  0  0  0  0
   24.3529  -22.1910  -20.7013 C   0  0  0  0  0  0  0  0  0  0  0  0
   23.5094  -22.2683  -18.3355 C   0  0  2  0  0  0  0  0  0  0  0  0
   24.7207  -23.0080  -18.0652 N   0  0  0  0  0  0  0  0  0  0  0  0
   22.4317  -22.7811  -17.4615 C   0  0  0  0  0  0  0  0  0  0  0  0
   21.2377  -22.3366  -17.5521 O   0  0  0  0  0  0  0  0  0  0  0  0
   22.6650  -23.7689  -16.5015 N   0  0  0  0  0  0  0  0  0  0  0  0
   21.7054  -24.2015  -15.5102 C   0  0  1  0  0  0  0  0  0  0  0  0
   22.1405  -25.5632  -15.0170 C   0  0  0  0  0  0  0  0  0  0  0  0
   21.2856  -26.1089  -13.9373 C   0  0  0  0  0  0  0  0  0  0  0  0
   21.7495  -27.4879  -13.5613 C   0  0  0  0  0  0  0  0  0  0  0  0
   20.8888  -28.0451  -12.4602 C   0  0  0  0  0  0  0  0  0  0  0  0
   21.3062  -29.3937  -12.0924 N   0  0  0  0  0  0  0  0  0  0  0  0
   21.5018  -23.2219  -14.4400 C   0  0  0  0  0  0  0  0  0  0  0  0
   22.4230  -22.8658  -13.6363 O   0  0  0  0  0  0  0  0  0  0  0  0
   20.2355  -22.6064  -14.2419 N   0  0  0  0  0  0  0  0  0  0  0  0
   20.0473  -21.5850  -13.1927 C   0  0  1  0  0  0  0  0  0  0  0  0
   21.2118  -20.6511  -13.2108 C   0  0  0  0  0  0  0  0  0  0  0  0
   21.0319  -19.5580  -12.2270 C   0  0  0  0  0  0  0  0  0  0  0  0
   21.4340  -19.7260  -10.8985 C   0  0  0  0  0  0  0  0  0  0  0  0
   21.2856  -18.7152   -9.9759 C   0  0  0  0  0  0  0  0  0  0  0  0
   20.7302  -17.4956  -10.3402 C   0  0  0  0  0  0  0  0  0  0  0  0
   20.3357  -17.3296  -11.6422 C   0  0  0  0  0  0  0  0  0  0  0  0
   20.4867  -18.3418  -12.5570 C   0  0  0  0  0  0  0  0  0  0  0  0
   18.7448  -20.9373  -13.3887 C   0  0  0  0  0  0  0  0  0  0  0  0
   17.9111  -20.6016  -12.3280 O   0  0  0  0  0  0  0  0  0  0  0  0
   18.3435  -20.6651  -14.5407 O   0  0  0  0  0  0  0  0  0  0  0  0
  2  1  1  1
  2  3  1  0
  4  2  1  0
  4  5  1  1
  6  8  1  0
  6  4  1  0
  7  6  2  0
  9  8  1  0
  9 10  1  1
 11 10  1  0
 12 11  1  0
 13 12  1  0
 14 13  1  0
 15  9  1  0
 15 16  2  0
 17 15  1  0
 18 17  1  0
 18 26  1  0
 19 20  1  0
 18 19  1  6
 20 25  2  0
 21 20  1  0
 22 21  2  0
 22 23  1  0
 23 24  2  0
 24 25  1  0
 26 28  2  0
 26 27  1  0
M  END
$$$$
