VKF.pdb
     RDKit          3D

 28 28  0  0  1  0  0  0  0  0999 V2000
   20.8775  -31.6968  -16.2934 C   0  0  0  0  0  0  0  0  0  0  0  0
   20.0294  -31.2011  -15.1422 C   0  0  2  0  0  0  0  0  0  0  0  0
   19.3020  -29.9679  -15.5998 C   0  0  0  0  0  0  0  0  0  0  0  0
   20.9584  -30.9248  -13.9704 C   0  0  2  0  0  0  0  0  0  0  0  0
   21.7988  -29.8150  -14.3568 N   0  0  0  0  0  0  0  0  0  0  0  0
   21.8164  -32.0929  -13.6741 C   0  0  0  0  0  0  0  0  0  0  0  0
   21.3156  -33.1985  -13.2761 O   0  0  0  0  0  0  0  0  0  0  0  0
   23.2056  -32.0446  -13.8139 N   0  0  0  0  0  0  0  0  0  0  0  0
   24.1029  -33.1446  -13.5389 C   0  0  1  0  0  0  0  0  0  0  0  0
   25.1481  -33.1655  -14.6316 C   0  0  0  0  0  0  0  0  0  0  0  0
   26.1108  -34.2855  -14.5163 C   0  0  0  0  0  0  0  0  0  0  0  0
   26.3627  -34.8885  -15.8695 C   0  0  0  0  0  0  0  0  0  0  0  0
   27.0447  -33.8909  -16.7658 C   0  0  0  0  0  0  0  0  0  0  0  0
   27.2015  -34.4143  -18.1184 N   0  0  0  0  0  0  0  0  0  0  0  0
   24.6626  -33.1066  -12.1855 C   0  0  0  0  0  0  0  0  0  0  0  0
   25.4158  -32.1684  -11.7686 O   0  0  0  0  0  0  0  0  0  0  0  0
   24.3854  -34.1402  -11.2492 N   0  0  0  0  0  0  0  0  0  0  0  0
   24.9737  -34.1116   -9.8955 C   0  0  1  0  0  0  0  0  0  0  0  0
   24.5710  -32.8434   -9.2186 C   0  0  0  0  0  0  0  0  0  0  0  0
   24.9677  -32.8536   -7.7912 C   0  0  0  0  0  0  0  0  0  0  0  0
   24.0039  -32.9929   -6.7880 C   0  0  0  0  0  0  0  0  0  0  0  0
   24.3581  -33.0175   -5.4580 C   0  0  0  0  0  0  0  0  0  0  0  0
   25.6879  -32.9043   -5.0739 C   0  0  0  0  0  0  0  0  0  0  0  0
   26.6337  -32.7678   -6.0563 C   0  0  0  0  0  0  0  0  0  0  0  0
   26.2734  -32.7441   -7.3807 C   0  0  0  0  0  0  0  0  0  0  0  0
   24.5823  -35.3331   -9.1818 C   0  0  0  0  0  0  0  0  0  0  0  0
   25.4871  -36.0895   -8.4456 O   0  0  0  0  0  0  0  0  0  0  0  0
   23.3986  -35.7326   -9.2189 O   0  0  0  0  0  0  0  0  0  0  0  0
  2  1  1  6
  2  3  1  0
  4  2  1  0
  4  5  1  6
  6  8  1  0
  6  4  1  0
  7  6  2  0
  9  8  1  0
  9 10  1  6
 11 10  1  0
 12 11  1  0
 13 12  1  0
 14 13  1  0
 15  9  1  0
 15 16  2  0
 17 15  1  0
 18 17  1  0
 18 26  1  0
 19 20  1  0
 18 19  1  1
 20 25  2  0
 21 20  1  0
 22 21  2  0
 22 23  1  0
 23 24  2  0
 24 25  1  0
 26 28  2  0
 26 27  1  0
M  END
$$$$
