KIH.pdb
     RDKit          3D

 28 28  0  0  1  0  0  0  0  0999 V2000
    8.2089  -15.0349   20.1021 N   0  0  0  0  0  0  0  0  0  0  0  0
    7.4449  -15.3621   21.2667 C   0  0  1  0  0  0  0  0  0  0  0  0
    7.0641  -16.8257   21.3083 C   0  0  0  0  0  0  0  0  0  0  0  0
    7.3084  -17.5296   20.0203 C   0  0  0  0  0  0  0  0  0  0  0  0
    6.7725  -18.9133   19.9459 C   0  0  0  0  0  0  0  0  0  0  0  0
    7.0343  -19.5976   18.6266 C   0  0  0  0  0  0  0  0  0  0  0  0
    6.4320  -20.9361   18.7388 N   0  0  0  0  0  0  0  0  0  0  0  0
    8.1399  -14.9976   22.5287 C   0  0  0  0  0  0  0  0  0  0  0  0
    9.4066  -15.0218   22.5244 O   0  0  0  0  0  0  0  0  0  0  0  0
    5.6992  -11.5006   26.0554 C   0  0  0  0  0  0  0  0  0  0  0  0
    6.8119  -12.1387   25.1828 C   0  0  0  0  0  0  0  0  0  0  0  0
    7.2041  -13.4269   25.7929 C   0  0  2  0  0  0  0  0  0  0  0  0
    7.9057  -13.2038   27.1324 C   0  0  0  0  0  0  0  0  0  0  0  0
    8.1349  -14.2472   24.9551 C   0  0  2  0  0  0  0  0  0  0  0  0
    7.4538  -14.6322   23.7104 N   0  0  0  0  0  0  0  0  0  0  0  0
    8.4849  -15.4919   25.6669 C   0  0  0  0  0  0  0  0  0  0  0  0
    7.5555  -16.3399   25.8787 O   0  0  0  0  0  0  0  0  0  0  0  0
    9.7716  -15.8445   26.1394 N   0  0  0  0  0  0  0  0  0  0  0  0
   10.0160  -17.2178   26.5732 C   0  0  1  0  0  0  0  0  0  0  0  0
   11.2155  -17.7928   25.8428 C   0  0  0  0  0  0  0  0  0  0  0  0
   11.5278  -19.1595   26.3262 C   0  0  0  0  0  0  0  0  0  0  0  0
   10.8136  -19.9251   27.2067 C   0  0  0  0  0  0  0  0  0  0  0  0
   11.4701  -21.0784   27.3453 N   0  0  0  0  0  0  0  0  0  0  0  0
   12.5639  -21.0254   26.5683 C   0  0  0  0  0  0  0  0  0  0  0  0
   12.6151  -19.8426   25.9294 N   0  0  0  0  0  0  0  0  0  0  0  0
   10.3119  -17.3191   28.0150 C   0  0  0  0  0  0  0  0  0  0  0  0
   10.4237  -18.5667   28.5925 O   0  0  0  0  0  0  0  0  0  0  0  0
   10.4676  -16.3072   28.7467 O   0  0  0  0  0  0  0  0  0  0  0  0
  2  1  1  6
  2  3  1  0
  3  4  1  0
  4  5  1  0
  5  6  1  0
  7  6  1  0
  8  2  1  0
  9  8  2  0
 10 11  1  0
 11 12  1  0
 12 14  1  0
 12 13  1  1
 14 15  1  6
 15  8  1  0
 16 14  1  0
 16 18  1  0
 17 16  2  0
 19 18  1  0
 19 26  1  0
 19 20  1  6
 20 21  1  0
 21 25  1  0
 22 21  2  0
 22 23  1  0
 23 24  1  0
 25 24  2  0
 26 27  1  0
 28 26  2  0
M  END
$$$$
