KIH.pdb
     RDKit          3D

 28 28  0  0  1  0  0  0  0  0999 V2000
    7.4364  -14.9416   20.2515 N   0  0  0  0  0  0  0  0  0  0  0  0
    6.9619  -15.3915   21.5242 C   0  0  1  0  0  0  0  0  0  0  0  0
    6.8491  -16.8988   21.5922 C   0  0  0  0  0  0  0  0  0  0  0  0
    6.0767  -17.4783   20.4602 C   0  0  0  0  0  0  0  0  0  0  0  0
    5.8530  -18.9452   20.5346 C   0  0  0  0  0  0  0  0  0  0  0  0
    5.1115  -19.5091   19.3472 C   0  0  0  0  0  0  0  0  0  0  0  0
    6.1409  -19.8445   18.3498 N   0  0  0  0  0  0  0  0  0  0  0  0
    7.8009  -14.9087   22.6517 C   0  0  0  0  0  0  0  0  0  0  0  0
    9.0466  -14.8011   22.4468 O   0  0  0  0  0  0  0  0  0  0  0  0
    5.8264  -11.4579   26.5093 C   0  0  0  0  0  0  0  0  0  0  0  0
    6.7474  -12.1230   25.4529 C   0  0  0  0  0  0  0  0  0  0  0  0
    7.2836  -13.3773   26.0228 C   0  0  2  0  0  0  0  0  0  0  0  0
    8.1769  -13.0892   27.2293 C   0  0  0  0  0  0  0  0  0  0  0  0
    8.1047  -14.1864   25.0676 C   0  0  2  0  0  0  0  0  0  0  0  0
    7.2715  -14.5717   23.9193 N   0  0  0  0  0  0  0  0  0  0  0  0
    8.5531  -15.4311   25.7217 C   0  0  0  0  0  0  0  0  0  0  0  0
    7.6644  -16.1899   26.2337 O   0  0  0  0  0  0  0  0  0  0  0  0
    9.8925  -15.8748   25.8330 N   0  0  0  0  0  0  0  0  0  0  0  0
   10.1620  -17.1658   26.4609 C   0  0  1  0  0  0  0  0  0  0  0  0
   11.4471  -17.7578   25.9121 C   0  0  0  0  0  0  0  0  0  0  0  0
   11.4024  -17.8468   24.4325 C   0  0  0  0  0  0  0  0  0  0  0  0
   10.3891  -18.3252   23.6476 C   0  0  0  0  0  0  0  0  0  0  0  0
   10.7881  -18.2110   22.3796 N   0  0  0  0  0  0  0  0  0  0  0  0
   12.0190  -17.6745   22.3822 C   0  0  0  0  0  0  0  0  0  0  0  0
   12.4150  -17.4425   23.6467 N   0  0  0  0  0  0  0  0  0  0  0  0
   10.3340  -17.0669   27.9229 C   0  0  0  0  0  0  0  0  0  0  0  0
   10.4841  -18.2218   28.6620 O   0  0  0  0  0  0  0  0  0  0  0  0
   10.3495  -15.9645   28.5295 O   0  0  0  0  0  0  0  0  0  0  0  0
  2  1  1  6
  2  3  1  0
  3  4  1  0
  4  5  1  0
  5  6  1  0
  7  6  1  0
  8  2  1  0
  9  8  2  0
 10 11  1  0
 11 12  1  0
 12 14  1  0
 12 13  1  1
 14 15  1  6
 15  8  1  0
 16 14  1  0
 16 18  1  0
 17 16  2  0
 19 18  1  0
 19 26  1  0
 19 20  1  6
 20 21  1  0
 21 25  1  0
 22 21  2  0
 22 23  1  0
 23 24  1  0
 25 24  2  0
 26 27  1  0
 28 26  2  0
M  END
$$$$
