KIH.pdb
     RDKit          3D

 28 28  0  0  1  0  0  0  0  0999 V2000
    8.3134  -17.4602   16.6161 N   0  0  0  0  0  0  0  0  0  0  0  0
    9.4583  -17.8043   17.4021 C   0  0  1  0  0  0  0  0  0  0  0  0
   10.6800  -18.0663   16.5489 C   0  0  0  0  0  0  0  0  0  0  0  0
   10.8838  -19.5092   16.2481 C   0  0  0  0  0  0  0  0  0  0  0  0
   12.0398  -19.8126   15.3655 C   0  0  0  0  0  0  0  0  0  0  0  0
   12.2039  -21.2814   15.0602 C   0  0  0  0  0  0  0  0  0  0  0  0
   13.3499  -21.3778   14.1415 N   0  0  0  0  0  0  0  0  0  0  0  0
    9.7823  -16.7748   18.4237 C   0  0  0  0  0  0  0  0  0  0  0  0
   10.9580  -16.3029   18.4230 O   0  0  0  0  0  0  0  0  0  0  0  0
    6.6808  -12.5724   19.4315 C   0  0  0  0  0  0  0  0  0  0  0  0
    7.9441  -13.4599   19.2787 C   0  0  0  0  0  0  0  0  0  0  0  0
    8.0707  -14.3055   20.4846 C   0  0  2  0  0  0  0  0  0  0  0  0
    8.3460  -13.4515   21.7221 C   0  0  0  0  0  0  0  0  0  0  0  0
    9.1695  -15.3198   20.4132 C   0  0  2  0  0  0  0  0  0  0  0  0
    8.8460  -16.3117   19.3773 N   0  0  0  0  0  0  0  0  0  0  0  0
    9.2692  -16.0420   21.6964 C   0  0  0  0  0  0  0  0  0  0  0  0
    8.3970  -16.9392   21.9457 O   0  0  0  0  0  0  0  0  0  0  0  0
   10.2564  -15.8376   22.6898 N   0  0  0  0  0  0  0  0  0  0  0  0
   10.9269  -16.9972   23.2724 C   0  0  1  0  0  0  0  0  0  0  0  0
   11.6869  -17.7567   22.2007 C   0  0  0  0  0  0  0  0  0  0  0  0
   10.9823  -19.0095   21.8357 C   0  0  0  0  0  0  0  0  0  0  0  0
    9.6467  -19.2862   21.9414 C   0  0  0  0  0  0  0  0  0  0  0  0
    9.4679  -20.5313   21.4963 N   0  0  0  0  0  0  0  0  0  0  0  0
   10.6656  -21.0114   21.1247 C   0  0  0  0  0  0  0  0  0  0  0  0
   11.6155  -20.0810   21.3284 N   0  0  0  0  0  0  0  0  0  0  0  0
   11.9120  -16.6292   24.3073 C   0  0  0  0  0  0  0  0  0  0  0  0
   12.3258  -17.5847   25.2119 O   0  0  0  0  0  0  0  0  0  0  0  0
   12.3949  -15.4708   24.4007 O   0  0  0  0  0  0  0  0  0  0  0  0
  2  1  1  6
  2  3  1  0
  3  4  1  0
  4  5  1  0
  5  6  1  0
  7  6  1  0
  8  2  1  0
  9  8  2  0
 10 11  1  0
 11 12  1  0
 12 14  1  0
 12 13  1  1
 14 15  1  6
 15  8  1  0
 16 14  1  0
 16 18  1  0
 17 16  2  0
 19 18  1  0
 19 26  1  0
 19 20  1  6
 20 21  1  0
 21 25  1  0
 22 21  2  0
 22 23  1  0
 23 24  1  0
 25 24  2  0
 26 27  1  0
 28 26  2  0
M  END
$$$$
