KIH.pdb
     RDKit          3D

 28 28  0  0  1  0  0  0  0  0999 V2000
    7.4822  -14.3249   20.4362 N   0  0  0  0  0  0  0  0  0  0  0  0
    7.6327  -15.4288   21.3339 C   0  0  1  0  0  0  0  0  0  0  0  0
    8.3333  -16.6023   20.6848 C   0  0  0  0  0  0  0  0  0  0  0  0
    7.5991  -17.1434   19.5092 C   0  0  0  0  0  0  0  0  0  0  0  0
    8.1794  -18.3754   18.9153 C   0  0  0  0  0  0  0  0  0  0  0  0
    7.4533  -18.8579   17.6834 C   0  0  0  0  0  0  0  0  0  0  0  0
    8.2057  -20.0284   17.2031 N   0  0  0  0  0  0  0  0  0  0  0  0
    8.3470  -15.0580   22.5832 C   0  0  0  0  0  0  0  0  0  0  0  0
    9.6125  -15.0161   22.5404 O   0  0  0  0  0  0  0  0  0  0  0  0
    6.0196  -11.5859   26.1154 C   0  0  0  0  0  0  0  0  0  0  0  0
    7.0774  -12.2812   25.2186 C   0  0  0  0  0  0  0  0  0  0  0  0
    7.4941  -13.5383   25.8753 C   0  0  2  0  0  0  0  0  0  0  0  0
    8.2601  -13.2503   27.1664 C   0  0  0  0  0  0  0  0  0  0  0  0
    8.3809  -14.4063   25.0377 C   0  0  2  0  0  0  0  0  0  0  0  0
    7.6802  -14.7563   23.7935 N   0  0  0  0  0  0  0  0  0  0  0  0
    8.6661  -15.6670   25.7502 C   0  0  0  0  0  0  0  0  0  0  0  0
    7.6757  -16.3833   26.1157 O   0  0  0  0  0  0  0  0  0  0  0  0
    9.9508  -16.1694   26.0670 N   0  0  0  0  0  0  0  0  0  0  0  0
   10.0622  -17.4745   26.7135 C   0  0  1  0  0  0  0  0  0  0  0  0
   11.3226  -18.1826   26.2516 C   0  0  0  0  0  0  0  0  0  0  0  0
   11.3454  -18.3191   24.7752 C   0  0  0  0  0  0  0  0  0  0  0  0
   10.3430  -18.7584   23.9543 C   0  0  0  0  0  0  0  0  0  0  0  0
   10.8108  -18.7133   22.7056 N   0  0  0  0  0  0  0  0  0  0  0  0
   12.0726  -18.2568   22.7551 C   0  0  0  0  0  0  0  0  0  0  0  0
   12.4199  -18.0074   24.0305 N   0  0  0  0  0  0  0  0  0  0  0  0
   10.1460  -17.3804   28.1834 C   0  0  0  0  0  0  0  0  0  0  0  0
   10.1429  -18.5385   28.9327 O   0  0  0  0  0  0  0  0  0  0  0  0
   10.2207  -16.2793   28.7880 O   0  0  0  0  0  0  0  0  0  0  0  0
  2  1  1  6
  2  3  1  0
  3  4  1  0
  4  5  1  0
  5  6  1  0
  7  6  1  0
  8  2  1  0
  9  8  2  0
 10 11  1  0
 11 12  1  0
 12 14  1  0
 12 13  1  1
 14 15  1  6
 15  8  1  0
 16 14  1  0
 16 18  1  0
 17 16  2  0
 19 18  1  0
 19 26  1  0
 19 20  1  6
 20 21  1  0
 21 25  1  0
 22 21  2  0
 22 23  1  0
 23 24  1  0
 25 24  2  0
 26 27  1  0
 28 26  2  0
M  END
$$$$
