KIH.pdb
     RDKit          3D

 28 28  0  0  1  0  0  0  0  0999 V2000
    7.6220  -14.9994   19.9506 N   0  0  0  0  0  0  0  0  0  0  0  0
    7.0317  -15.4127   21.1866 C   0  0  1  0  0  0  0  0  0  0  0  0
    6.7694  -16.9023   21.2252 C   0  0  0  0  0  0  0  0  0  0  0  0
    6.0679  -17.4034   20.0124 C   0  0  0  0  0  0  0  0  0  0  0  0
    5.6117  -18.8155   20.0856 C   0  0  0  0  0  0  0  0  0  0  0  0
    4.8216  -19.2634   18.8804 C   0  0  0  0  0  0  0  0  0  0  0  0
    4.4833  -20.6757   19.1208 N   0  0  0  0  0  0  0  0  0  0  0  0
    7.8454  -15.0248   22.3680 C   0  0  0  0  0  0  0  0  0  0  0  0
    9.1050  -15.0198   22.2319 O   0  0  0  0  0  0  0  0  0  0  0  0
    5.9718  -11.3961   26.0882 C   0  0  0  0  0  0  0  0  0  0  0  0
    6.9360  -12.1294   25.1191 C   0  0  0  0  0  0  0  0  0  0  0  0
    7.2724  -13.4461   25.7010 C   0  0  2  0  0  0  0  0  0  0  0  0
    8.0821  -13.2823   26.9871 C   0  0  0  0  0  0  0  0  0  0  0  0
    8.0771  -14.3303   24.8000 C   0  0  2  0  0  0  0  0  0  0  0  0
    7.2776  -14.6683   23.6135 N   0  0  0  0  0  0  0  0  0  0  0  0
    8.3934  -15.5955   25.4911 C   0  0  0  0  0  0  0  0  0  0  0  0
    7.4200  -16.3278   25.8705 O   0  0  0  0  0  0  0  0  0  0  0  0
    9.6907  -16.0859   25.7730 N   0  0  0  0  0  0  0  0  0  0  0  0
    9.8578  -17.4980   26.1075 C   0  0  1  0  0  0  0  0  0  0  0  0
   10.8611  -18.1438   25.1697 C   0  0  0  0  0  0  0  0  0  0  0  0
   11.1081  -19.5567   25.5461 C   0  0  0  0  0  0  0  0  0  0  0  0
   10.6069  -20.2427   26.6184 C   0  0  0  0  0  0  0  0  0  0  0  0
   11.0980  -21.4817   26.5555 N   0  0  0  0  0  0  0  0  0  0  0  0
   11.8840  -21.5582   25.4695 C   0  0  0  0  0  0  0  0  0  0  0  0
   11.9015  -20.3736   24.8322 N   0  0  0  0  0  0  0  0  0  0  0  0
   10.3661  -17.7061   27.4768 C   0  0  0  0  0  0  0  0  0  0  0  0
   10.4514  -18.9895   27.9746 O   0  0  0  0  0  0  0  0  0  0  0  0
   10.7280  -16.7544   28.2164 O   0  0  0  0  0  0  0  0  0  0  0  0
  2  1  1  6
  2  3  1  0
  3  4  1  0
  4  5  1  0
  5  6  1  0
  7  6  1  0
  8  2  1  0
  9  8  2  0
 10 11  1  0
 11 12  1  0
 12 14  1  0
 12 13  1  1
 14 15  1  6
 15  8  1  0
 16 14  1  0
 16 18  1  0
 17 16  2  0
 19 18  1  0
 19 26  1  0
 19 20  1  6
 20 21  1  0
 21 25  1  0
 22 21  2  0
 22 23  1  0
 23 24  1  0
 25 24  2  0
 26 27  1  0
 28 26  2  0
M  END
$$$$
