KIH.pdb
     RDKit          3D

 28 28  0  0  1  0  0  0  0  0999 V2000
    8.1045  -15.0349   20.2405 N   0  0  0  0  0  0  0  0  0  0  0  0
    7.4960  -15.5225   21.4402 C   0  0  1  0  0  0  0  0  0  0  0  0
    7.3769  -17.0307   21.4488 C   0  0  0  0  0  0  0  0  0  0  0  0
    6.6577  -17.5666   20.2616 C   0  0  0  0  0  0  0  0  0  0  0  0
    6.5340  -19.0464   20.2137 C   0  0  0  0  0  0  0  0  0  0  0  0
    5.7241  -19.5523   19.0450 C   0  0  0  0  0  0  0  0  0  0  0  0
    5.7169  -21.0195   19.1630 N   0  0  0  0  0  0  0  0  0  0  0  0
    8.2089  -15.0774   22.6658 C   0  0  0  0  0  0  0  0  0  0  0  0
    9.4580  -14.8855   22.5762 O   0  0  0  0  0  0  0  0  0  0  0  0
    5.7963  -11.9086   26.5191 C   0  0  0  0  0  0  0  0  0  0  0  0
    6.8230  -12.4929   25.5136 C   0  0  0  0  0  0  0  0  0  0  0  0
    7.3267  -13.7748   26.0508 C   0  0  2  0  0  0  0  0  0  0  0  0
    8.0760  -13.5576   27.3653 C   0  0  0  0  0  0  0  0  0  0  0  0
    8.2674  -14.4981   25.1380 C   0  0  2  0  0  0  0  0  0  0  0  0
    7.5581  -14.8643   23.9034 N   0  0  0  0  0  0  0  0  0  0  0  0
    8.7180  -15.7516   25.7735 C   0  0  0  0  0  0  0  0  0  0  0  0
    7.8265  -16.5669   26.1837 O   0  0  0  0  0  0  0  0  0  0  0  0
   10.0630  -16.1462   25.9700 N   0  0  0  0  0  0  0  0  0  0  0  0
   10.3393  -17.4105   26.6473 C   0  0  1  0  0  0  0  0  0  0  0  0
   11.6814  -17.9615   26.2021 C   0  0  0  0  0  0  0  0  0  0  0  0
   11.6499  -18.3467   24.7704 C   0  0  0  0  0  0  0  0  0  0  0  0
   10.5675  -18.3969   23.9353 C   0  0  0  0  0  0  0  0  0  0  0  0
   11.0113  -18.7952   22.7417 N   0  0  0  0  0  0  0  0  0  0  0  0
   12.3369  -18.9862   22.8384 C   0  0  0  0  0  0  0  0  0  0  0  0
   12.7492  -18.7127   24.0894 N   0  0  0  0  0  0  0  0  0  0  0  0
   10.4063  -17.2717   28.1146 C   0  0  0  0  0  0  0  0  0  0  0  0
   10.5876  -18.3985   28.8892 O   0  0  0  0  0  0  0  0  0  0  0  0
   10.3041  -16.1595   28.6946 O   0  0  0  0  0  0  0  0  0  0  0  0
  2  1  1  6
  2  3  1  0
  3  4  1  0
  4  5  1  0
  5  6  1  0
  7  6  1  0
  8  2  1  0
  9  8  2  0
 10 11  1  0
 11 12  1  0
 12 14  1  0
 12 13  1  1
 14 15  1  6
 15  8  1  0
 16 14  1  0
 16 18  1  0
 17 16  2  0
 19 18  1  0
 19 26  1  0
 19 20  1  6
 20 21  1  0
 21 25  1  0
 22 21  2  0
 22 23  1  0
 23 24  1  0
 25 24  2  0
 26 27  1  0
 28 26  2  0
M  END
$$$$
