KIH.pdb
     RDKit          3D

 28 28  0  0  1  0  0  0  0  0999 V2000
    8.3083  -15.5223   19.9295 N   0  0  0  0  0  0  0  0  0  0  0  0
    7.4166  -15.5927   21.0462 C   0  0  1  0  0  0  0  0  0  0  0  0
    6.7185  -16.9320   21.1370 C   0  0  0  0  0  0  0  0  0  0  0  0
    6.3277  -17.4782   19.8092 C   0  0  0  0  0  0  0  0  0  0  0  0
    6.3392  -18.9604   19.7085 C   0  0  0  0  0  0  0  0  0  0  0  0
    4.9651  -19.5736   19.5935 C   0  0  0  0  0  0  0  0  0  0  0  0
    5.1765  -21.0285   19.5195 N   0  0  0  0  0  0  0  0  0  0  0  0
    8.0913  -15.3001   22.3375 C   0  0  0  0  0  0  0  0  0  0  0  0
    9.3338  -15.5365   22.4124 O   0  0  0  0  0  0  0  0  0  0  0  0
    7.3680  -11.3652   26.9384 C   0  0  0  0  0  0  0  0  0  0  0  0
    8.1723  -12.5906   26.4304 C   0  0  0  0  0  0  0  0  0  0  0  0
    7.4850  -13.1421   25.2433 C   0  0  2  0  0  0  0  0  0  0  0  0
    6.0220  -13.4543   25.5573 C   0  0  0  0  0  0  0  0  0  0  0  0
    8.0873  -14.4067   24.7149 C   0  0  2  0  0  0  0  0  0  0  0  0
    7.4120  -14.7781   23.4629 N   0  0  0  0  0  0  0  0  0  0  0  0
    7.8674  -15.5059   25.6749 C   0  0  0  0  0  0  0  0  0  0  0  0
    6.8386  -16.2429   25.5130 O   0  0  0  0  0  0  0  0  0  0  0  0
    8.7022  -15.8309   26.7707 N   0  0  0  0  0  0  0  0  0  0  0  0
    9.3278  -17.1501   26.8188 C   0  0  1  0  0  0  0  0  0  0  0  0
   10.1916  -17.3659   25.5899 C   0  0  0  0  0  0  0  0  0  0  0  0
    9.5926  -18.3812   24.6902 C   0  0  0  0  0  0  0  0  0  0  0  0
    8.4329  -19.0848   24.8680 C   0  0  0  0  0  0  0  0  0  0  0  0
    8.2916  -19.8821   23.8075 N   0  0  0  0  0  0  0  0  0  0  0  0
    9.3399  -19.6750   22.9944 C   0  0  0  0  0  0  0  0  0  0  0  0
   10.1563  -18.7476   23.5264 N   0  0  0  0  0  0  0  0  0  0  0  0
   10.2088  -17.3239   27.9893 C   0  0  0  0  0  0  0  0  0  0  0  0
   10.1582  -18.5051   28.6996 O   0  0  0  0  0  0  0  0  0  0  0  0
   11.0113  -16.4327   28.3707 O   0  0  0  0  0  0  0  0  0  0  0  0
  2  1  1  6
  2  3  1  0
  3  4  1  0
  4  5  1  0
  5  6  1  0
  7  6  1  0
  8  2  1  0
  9  8  2  0
 10 11  1  0
 11 12  1  0
 12 14  1  0
 12 13  1  1
 14 15  1  6
 15  8  1  0
 16 14  1  0
 16 18  1  0
 17 16  2  0
 19 18  1  0
 19 26  1  0
 19 20  1  6
 20 21  1  0
 21 25  1  0
 22 21  2  0
 22 23  1  0
 23 24  1  0
 25 24  2  0
 26 27  1  0
 28 26  2  0
M  END
$$$$
