KIH.pdb
     RDKit          3D

 28 28  0  0  1  0  0  0  0  0999 V2000
    8.1228  -14.5896   20.2129 N   0  0  0  0  0  0  0  0  0  0  0  0
    7.6775  -15.3274   21.3550 C   0  0  1  0  0  0  0  0  0  0  0  0
    7.7390  -16.8222   21.1297 C   0  0  0  0  0  0  0  0  0  0  0  0
    7.1666  -17.2397   19.8211 C   0  0  0  0  0  0  0  0  0  0  0  0
    7.0183  -18.7064   19.6364 C   0  0  0  0  0  0  0  0  0  0  0  0
    6.1695  -19.0877   18.4483 C   0  0  0  0  0  0  0  0  0  0  0  0
    6.1641  -20.5593   18.4110 N   0  0  0  0  0  0  0  0  0  0  0  0
    8.4314  -14.9836   22.5887 C   0  0  0  0  0  0  0  0  0  0  0  0
    9.6785  -14.7914   22.4750 O   0  0  0  0  0  0  0  0  0  0  0  0
    6.1325  -11.9574   26.5722 C   0  0  0  0  0  0  0  0  0  0  0  0
    7.1740  -12.5014   25.5592 C   0  0  0  0  0  0  0  0  0  0  0  0
    7.6435  -13.8204   26.0336 C   0  0  2  0  0  0  0  0  0  0  0  0
    8.4031  -13.6858   27.3532 C   0  0  0  0  0  0  0  0  0  0  0  0
    8.5605  -14.5260   25.0836 C   0  0  2  0  0  0  0  0  0  0  0  0
    7.8210  -14.8653   23.8590 N   0  0  0  0  0  0  0  0  0  0  0  0
    9.0236  -15.7932   25.6818 C   0  0  0  0  0  0  0  0  0  0  0  0
    8.1403  -16.6261   26.0739 O   0  0  0  0  0  0  0  0  0  0  0  0
   10.3724  -16.1831   25.8604 N   0  0  0  0  0  0  0  0  0  0  0  0
   10.6617  -17.5087   26.4017 C   0  0  1  0  0  0  0  0  0  0  0  0
   12.0459  -17.9595   25.9731 C   0  0  0  0  0  0  0  0  0  0  0  0
   12.1717  -17.9594   24.4955 C   0  0  0  0  0  0  0  0  0  0  0  0
   11.1801  -18.1145   23.5657 C   0  0  0  0  0  0  0  0  0  0  0  0
   11.7555  -18.0459   22.3639 N   0  0  0  0  0  0  0  0  0  0  0  0
   13.0715  -17.8530   22.5480 C   0  0  0  0  0  0  0  0  0  0  0  0
   13.3467  -17.7970   23.8636 N   0  0  0  0  0  0  0  0  0  0  0  0
   10.6456  -17.5411   27.8766 C   0  0  0  0  0  0  0  0  0  0  0  0
   10.8304  -18.7445   28.5249 O   0  0  0  0  0  0  0  0  0  0  0  0
   10.4687  -16.5089   28.5744 O   0  0  0  0  0  0  0  0  0  0  0  0
  2  1  1  6
  2  3  1  0
  3  4  1  0
  4  5  1  0
  5  6  1  0
  7  6  1  0
  8  2  1  0
  9  8  2  0
 10 11  1  0
 11 12  1  0
 12 14  1  0
 12 13  1  1
 14 15  1  6
 15  8  1  0
 16 14  1  0
 16 18  1  0
 17 16  2  0
 19 18  1  0
 19 26  1  0
 19 20  1  1
 20 21  1  0
 21 25  1  0
 22 21  2  0
 22 23  1  0
 23 24  1  0
 25 24  2  0
 26 27  1  0
 28 26  2  0
M  END
$$$$
