KIH.pdb
     RDKit          3D

 28 28  0  0  1  0  0  0  0  0999 V2000
    8.7371  -14.9405   20.2447 N   0  0  0  0  0  0  0  0  0  0  0  0
    7.9297  -15.4279   21.3207 C   0  0  1  0  0  0  0  0  0  0  0  0
    7.6600  -16.9122   21.2065 C   0  0  0  0  0  0  0  0  0  0  0  0
    8.1436  -17.4969   19.9265 C   0  0  0  0  0  0  0  0  0  0  0  0
    7.2858  -18.5688   19.3586 C   0  0  0  0  0  0  0  0  0  0  0  0
    7.8390  -19.1878   18.0983 C   0  0  0  0  0  0  0  0  0  0  0  0
    6.8585  -20.2041   17.6829 N   0  0  0  0  0  0  0  0  0  0  0  0
    8.5153  -15.1346   22.6547 C   0  0  0  0  0  0  0  0  0  0  0  0
    9.7773  -15.1758   22.7590 O   0  0  0  0  0  0  0  0  0  0  0  0
    5.6015  -11.9688   26.1928 C   0  0  0  0  0  0  0  0  0  0  0  0
    6.7684  -12.4972   25.3176 C   0  0  0  0  0  0  0  0  0  0  0  0
    7.2667  -13.7556   25.9121 C   0  0  2  0  0  0  0  0  0  0  0  0
    7.8916  -13.5001   27.2835 C   0  0  0  0  0  0  0  0  0  0  0  0
    8.3066  -14.4545   25.0928 C   0  0  2  0  0  0  0  0  0  0  0  0
    7.7322  -14.8177   23.7891 N   0  0  0  0  0  0  0  0  0  0  0  0
    8.7105  -15.7081   25.7589 C   0  0  0  0  0  0  0  0  0  0  0  0
    7.7938  -16.5345   26.0821 O   0  0  0  0  0  0  0  0  0  0  0  0
   10.0361  -16.0915   26.0736 N   0  0  0  0  0  0  0  0  0  0  0  0
   10.2611  -17.3465   26.7864 C   0  0  1  0  0  0  0  0  0  0  0  0
   11.5737  -17.9699   26.3489 C   0  0  0  0  0  0  0  0  0  0  0  0
   11.5228  -18.3710   24.9222 C   0  0  0  0  0  0  0  0  0  0  0  0
   10.4340  -18.4024   24.0944 C   0  0  0  0  0  0  0  0  0  0  0  0
   10.8595  -18.8262   22.9030 N   0  0  0  0  0  0  0  0  0  0  0  0
   12.1802  -19.0510   22.9937 C   0  0  0  0  0  0  0  0  0  0  0  0
   12.6076  -18.7737   24.2387 N   0  0  0  0  0  0  0  0  0  0  0  0
   10.3458  -17.1676   28.2485 C   0  0  0  0  0  0  0  0  0  0  0  0
   10.2950  -15.8934   28.7742 O   0  0  0  0  0  0  0  0  0  0  0  0
   10.4637  -18.1362   29.0431 O   0  0  0  0  0  0  0  0  0  0  0  0
  2  1  1  6
  2  3  1  0
  3  4  1  0
  4  5  1  0
  5  6  1  0
  7  6  1  0
  8  2  1  0
  9  8  2  0
 10 11  1  0
 11 12  1  0
 12 14  1  0
 12 13  1  1
 14 15  1  6
 15  8  1  0
 16 14  1  0
 16 18  1  0
 17 16  2  0
 19 18  1  0
 19 26  1  0
 19 20  1  6
 20 21  1  0
 21 25  1  0
 22 21  2  0
 22 23  1  0
 23 24  1  0
 25 24  2  0
 26 27  1  0
 28 26  2  0
M  END
$$$$
