KIH.pdb
     RDKit          3D

 28 28  0  0  1  0  0  0  0  0999 V2000
    6.5133  -15.3098   21.1233 N   0  0  0  0  0  0  0  0  0  0  0  0
    7.8565  -14.8212   21.1878 C   0  0  1  0  0  0  0  0  0  0  0  0
    8.0518  -13.5737   20.3544 C   0  0  0  0  0  0  0  0  0  0  0  0
    7.5242  -13.7079   18.9696 C   0  0  0  0  0  0  0  0  0  0  0  0
    8.4465  -14.3583   18.0033 C   0  0  0  0  0  0  0  0  0  0  0  0
    7.8592  -14.5334   16.6242 C   0  0  0  0  0  0  0  0  0  0  0  0
    8.4925  -13.5058   15.7817 N   0  0  0  0  0  0  0  0  0  0  0  0
    8.3043  -14.5587   22.5803 C   0  0  0  0  0  0  0  0  0  0  0  0
    9.5069  -14.1964   22.7472 O   0  0  0  0  0  0  0  0  0  0  0  0
    5.7111  -11.4264   25.7863 C   0  0  0  0  0  0  0  0  0  0  0  0
    6.8891  -12.2032   25.1416 C   0  0  0  0  0  0  0  0  0  0  0  0
    6.9698  -13.5382   25.7714 C   0  0  2  0  0  0  0  0  0  0  0  0
    7.4432  -13.4289   27.2206 C   0  0  0  0  0  0  0  0  0  0  0  0
    7.9048  -14.4864   25.0874 C   0  0  2  0  0  0  0  0  0  0  0  0
    7.4554  -14.6954   23.7033 N   0  0  0  0  0  0  0  0  0  0  0  0
    7.8709  -15.7984   25.7627 C   0  0  0  0  0  0  0  0  0  0  0  0
    6.9075  -16.5876   25.4854 O   0  0  0  0  0  0  0  0  0  0  0  0
    8.8202  -16.2761   26.6974 N   0  0  0  0  0  0  0  0  0  0  0  0
    9.0223  -17.7167   26.8297 C   0  0  1  0  0  0  0  0  0  0  0  0
    9.5005  -18.3022   25.5138 C   0  0  0  0  0  0  0  0  0  0  0  0
    8.3866  -18.9585   24.7875 C   0  0  0  0  0  0  0  0  0  0  0  0
    7.0942  -19.1280   25.2030 C   0  0  0  0  0  0  0  0  0  0  0  0
    6.4496  -19.7695   24.2267 N   0  0  0  0  0  0  0  0  0  0  0  0
    7.3241  -19.9904   23.2320 C   0  0  0  0  0  0  0  0  0  0  0  0
    8.5297  -19.4941   23.5632 N   0  0  0  0  0  0  0  0  0  0  0  0
   10.0408  -18.0619   27.8397 C   0  0  0  0  0  0  0  0  0  0  0  0
    9.9021  -19.2279   28.5634 O   0  0  0  0  0  0  0  0  0  0  0  0
   11.0391  -17.3316   28.0713 O   0  0  0  0  0  0  0  0  0  0  0  0
  2  1  1  1
  2  3  1  0
  3  4  1  0
  4  5  1  0
  5  6  1  0
  7  6  1  0
  8  2  1  0
  9  8  2  0
 10 11  1  0
 11 12  1  0
 12 14  1  0
 12 13  1  1
 14 15  1  6
 15  8  1  0
 16 14  1  0
 16 18  1  0
 17 16  2  0
 19 18  1  0
 19 26  1  0
 19 20  1  6
 20 21  1  0
 21 25  1  0
 22 21  2  0
 22 23  1  0
 23 24  1  0
 25 24  2  0
 26 27  1  0
 28 26  2  0
M  END
$$$$
