KIH.pdb
     RDKit          3D

 28 28  0  0  1  0  0  0  0  0999 V2000
   10.1952  -17.7700   16.0220 N   0  0  0  0  0  0  0  0  0  0  0  0
    9.2255  -17.6575   17.0679 C   0  0  1  0  0  0  0  0  0  0  0  0
    8.7791  -19.0088   17.5817 C   0  0  0  0  0  0  0  0  0  0  0  0
    8.8567  -20.0799   16.5518 C   0  0  0  0  0  0  0  0  0  0  0  0
    9.3700  -21.3867   17.0380 C   0  0  0  0  0  0  0  0  0  0  0  0
    9.4279  -22.4530   15.9717 C   0  0  0  0  0  0  0  0  0  0  0  0
   10.1948  -23.5662   16.5543 N   0  0  0  0  0  0  0  0  0  0  0  0
    9.7041  -16.8310   18.2064 C   0  0  0  0  0  0  0  0  0  0  0  0
   10.9563  -16.6926   18.3402 O   0  0  0  0  0  0  0  0  0  0  0  0
    6.4104  -12.7288   20.0217 C   0  0  0  0  0  0  0  0  0  0  0  0
    7.7274  -13.4004   19.5514 C   0  0  0  0  0  0  0  0  0  0  0  0
    8.1366  -14.3917   20.5690 C   0  0  2  0  0  0  0  0  0  0  0  0
    8.5567  -13.6996   21.8655 C   0  0  0  0  0  0  0  0  0  0  0  0
    9.2849  -15.2593   20.1570 C   0  0  2  0  0  0  0  0  0  0  0  0
    8.8315  -16.2057   19.1274 N   0  0  0  0  0  0  0  0  0  0  0  0
    9.7510  -16.0547   21.3095 C   0  0  0  0  0  0  0  0  0  0  0  0
    9.0197  -17.0242   21.7004 O   0  0  0  0  0  0  0  0  0  0  0  0
   10.9511  -15.8474   22.0306 N   0  0  0  0  0  0  0  0  0  0  0  0
   11.4019  -16.8737   22.9672 C   0  0  1  0  0  0  0  0  0  0  0  0
   12.9171  -16.9580   22.9634 C   0  0  0  0  0  0  0  0  0  0  0  0
   13.3965  -17.9622   23.9437 C   0  0  0  0  0  0  0  0  0  0  0  0
   12.6554  -18.6939   24.8308 C   0  0  0  0  0  0  0  0  0  0  0  0
   13.5061  -19.4665   25.5087 N   0  0  0  0  0  0  0  0  0  0  0  0
   14.7434  -19.2171   25.0504 C   0  0  0  0  0  0  0  0  0  0  0  0
   14.6936  -18.2869   24.0799 N   0  0  0  0  0  0  0  0  0  0  0  0
   10.9985  -16.5961   24.3590 C   0  0  0  0  0  0  0  0  0  0  0  0
   11.1894  -17.5662   25.3207 O   0  0  0  0  0  0  0  0  0  0  0  0
   10.4833  -15.5027   24.7090 O   0  0  0  0  0  0  0  0  0  0  0  0
  2  1  1  6
  2  3  1  0
  3  4  1  0
  4  5  1  0
  5  6  1  0
  7  6  1  0
  8  2  1  0
  9  8  2  0
 10 11  1  0
 11 12  1  0
 12 14  1  0
 12 13  1  1
 14 15  1  6
 15  8  1  0
 16 14  1  0
 16 18  1  0
 17 16  2  0
 19 18  1  0
 19 26  1  0
 19 20  1  1
 20 21  1  0
 21 25  1  0
 22 21  2  0
 22 23  1  0
 23 24  1  0
 25 24  2  0
 26 27  1  0
 28 26  2  0
M  END
$$$$
