KIH.pdb
     RDKit          3D

 28 28  0  0  1  0  0  0  0  0999 V2000
    7.8663  -15.4033   20.6975 N   0  0  0  0  0  0  0  0  0  0  0  0
    7.1945  -15.5894   21.9469 C   0  0  1  0  0  0  0  0  0  0  0  0
    6.9356  -17.0500   22.2450 C   0  0  0  0  0  0  0  0  0  0  0  0
    7.7796  -17.9698   21.4353 C   0  0  0  0  0  0  0  0  0  0  0  0
    8.4610  -19.0426   22.2048 C   0  0  0  0  0  0  0  0  0  0  0  0
    9.2540  -19.9977   21.3467 C   0  0  0  0  0  0  0  0  0  0  0  0
    8.8404  -21.3493   21.7579 N   0  0  0  0  0  0  0  0  0  0  0  0
    7.9242  -14.9756   23.0867 C   0  0  0  0  0  0  0  0  0  0  0  0
    9.1563  -14.7288   22.9248 O   0  0  0  0  0  0  0  0  0  0  0  0
    5.6176  -11.1317   26.1593 C   0  0  0  0  0  0  0  0  0  0  0  0
    6.6616  -11.9399   25.3448 C   0  0  0  0  0  0  0  0  0  0  0  0
    7.0902  -13.1004   26.1542 C   0  0  2  0  0  0  0  0  0  0  0  0
    7.8160  -12.6435   27.4195 C   0  0  0  0  0  0  0  0  0  0  0  0
    8.0178  -14.0372   25.4449 C   0  0  2  0  0  0  0  0  0  0  0  0
    7.3070  -14.6631   24.3204 N   0  0  0  0  0  0  0  0  0  0  0  0
    8.4326  -15.1194   26.3588 C   0  0  0  0  0  0  0  0  0  0  0  0
    7.7990  -15.2473   27.4588 O   0  0  0  0  0  0  0  0  0  0  0  0
    9.4765  -16.0468   26.1279 N   0  0  0  0  0  0  0  0  0  0  0  0
    9.3453  -17.4059   26.6467 C   0  0  1  0  0  0  0  0  0  0  0  0
    8.1526  -18.0968   26.0116 C   0  0  0  0  0  0  0  0  0  0  0  0
    7.9505  -19.4475   26.5892 C   0  0  0  0  0  0  0  0  0  0  0  0
    7.4332  -19.7713   27.8137 C   0  0  0  0  0  0  0  0  0  0  0  0
    7.4412  -21.1025   27.9031 N   0  0  0  0  0  0  0  0  0  0  0  0
    7.9516  -21.5886   26.7602 C   0  0  0  0  0  0  0  0  0  0  0  0
    8.2726  -20.5762   25.9346 N   0  0  0  0  0  0  0  0  0  0  0  0
   10.5229  -18.2461   26.3567 C   0  0  0  0  0  0  0  0  0  0  0  0
   10.8122  -19.3083   27.1875 O   0  0  0  0  0  0  0  0  0  0  0  0
   11.2812  -18.0329   25.3753 O   0  0  0  0  0  0  0  0  0  0  0  0
  2  1  1  6
  2  3  1  0
  3  4  1  0
  4  5  1  0
  5  6  1  0
  7  6  1  0
  8  2  1  0
  9  8  2  0
 10 11  1  0
 11 12  1  0
 12 14  1  0
 12 13  1  1
 14 15  1  6
 15  8  1  0
 16 14  1  0
 16 18  1  0
 17 16  2  0
 19 18  1  0
 19 26  1  0
 19 20  1  6
 20 21  1  0
 21 25  1  0
 22 21  2  0
 22 23  1  0
 23 24  1  0
 25 24  2  0
 26 27  1  0
 28 26  2  0
M  END
$$$$
