KIH.pdb
     RDKit          3D

 28 28  0  0  1  0  0  0  0  0999 V2000
    8.0468  -14.8314   20.0573 N   0  0  0  0  0  0  0  0  0  0  0  0
    7.3083  -15.2158   21.2210 C   0  0  1  0  0  0  0  0  0  0  0  0
    6.8523  -16.6571   21.1587 C   0  0  0  0  0  0  0  0  0  0  0  0
    6.6125  -17.1343   19.7698 C   0  0  0  0  0  0  0  0  0  0  0  0
    6.1276  -18.5342   19.6586 C   0  0  0  0  0  0  0  0  0  0  0  0
    5.8567  -18.9739   18.2406 C   0  0  0  0  0  0  0  0  0  0  0  0
    5.3401  -20.3490   18.3354 N   0  0  0  0  0  0  0  0  0  0  0  0
    8.0659  -14.9926   22.4798 C   0  0  0  0  0  0  0  0  0  0  0  0
    9.3307  -14.9885   22.4059 O   0  0  0  0  0  0  0  0  0  0  0  0
    5.7310  -11.8542   26.4008 C   0  0  0  0  0  0  0  0  0  0  0  0
    6.7170  -12.4451   25.3590 C   0  0  0  0  0  0  0  0  0  0  0  0
    7.2551  -13.7148   25.8916 C   0  0  2  0  0  0  0  0  0  0  0  0
    8.0442  -13.4747   27.1785 C   0  0  0  0  0  0  0  0  0  0  0  0
    8.1749  -14.4349   24.9552 C   0  0  2  0  0  0  0  0  0  0  0  0
    7.4403  -14.7887   23.7318 N   0  0  0  0  0  0  0  0  0  0  0  0
    8.6323  -15.6952   25.5723 C   0  0  0  0  0  0  0  0  0  0  0  0
    7.7486  -16.4779   26.0563 O   0  0  0  0  0  0  0  0  0  0  0  0
    9.9753  -16.1295   25.6759 N   0  0  0  0  0  0  0  0  0  0  0  0
   10.2644  -17.3804   26.3727 C   0  0  1  0  0  0  0  0  0  0  0  0
   11.5471  -17.9926   25.8409 C   0  0  0  0  0  0  0  0  0  0  0  0
   11.4566  -18.2321   24.3802 C   0  0  0  0  0  0  0  0  0  0  0  0
   10.4597  -18.8665   23.6908 C   0  0  0  0  0  0  0  0  0  0  0  0
   10.8014  -18.8476   22.4013 N   0  0  0  0  0  0  0  0  0  0  0  0
   11.9819  -18.2161   22.2976 C   0  0  0  0  0  0  0  0  0  0  0  0
   12.4024  -17.8280   23.5150 N   0  0  0  0  0  0  0  0  0  0  0  0
   10.4549  -17.1968   27.8241 C   0  0  0  0  0  0  0  0  0  0  0  0
   10.3475  -15.9311   28.3617 O   0  0  0  0  0  0  0  0  0  0  0  0
   10.7137  -18.1538   28.5992 O   0  0  0  0  0  0  0  0  0  0  0  0
  2  1  1  6
  2  3  1  0
  3  4  1  0
  4  5  1  0
  5  6  1  0
  7  6  1  0
  8  2  1  0
  9  8  2  0
 10 11  1  0
 11 12  1  0
 12 14  1  0
 12 13  1  1
 14 15  1  6
 15  8  1  0
 16 14  1  0
 16 18  1  0
 17 16  2  0
 19 18  1  0
 19 26  1  0
 19 20  1  6
 20 21  1  0
 21 25  1  0
 22 21  2  0
 22 23  1  0
 23 24  1  0
 25 24  2  0
 26 27  1  0
 28 26  2  0
M  END
$$$$
