DFD.pdb
     RDKit          3D

 28 28  0  0  1  0  0  0  0  0999 V2000
    9.1330  -16.7900   17.3936 N   0  0  0  0  0  0  0  0  0  0  0  0
    9.5806  -17.5630   18.5018 C   0  0  1  0  0  0  0  0  0  0  0  0
   10.6465  -18.5773   18.2047 C   0  0  0  0  0  0  0  0  0  0  0  0
   10.3278  -19.4540   17.0605 C   0  0  0  0  0  0  0  0  0  0  0  0
    9.1806  -19.5379   16.6018 O   0  0  0  0  0  0  0  0  0  0  0  0
    9.9253  -16.7736   19.7149 C   0  0  0  0  0  0  0  0  0  0  0  0
   10.8182  -15.9007   19.6050 O   0  0  0  0  0  0  0  0  0  0  0  0
   11.3405  -20.2085   16.4776 O   0  0  0  0  0  0  0  0  0  0  0  0
    9.3276  -16.9326   20.9720 N   0  0  0  0  0  0  0  0  0  0  0  0
    9.7404  -16.1286   22.1162 C   0  0  1  0  0  0  0  0  0  0  0  0
    8.5165  -15.5255   22.6981 C   0  0  0  0  0  0  0  0  0  0  0  0
    7.8667  -14.4975   21.8499 C   0  0  0  0  0  0  0  0  0  0  0  0
    8.3646  -13.1979   21.8087 C   0  0  0  0  0  0  0  0  0  0  0  0
    7.7737  -12.2354   21.0174 C   0  0  0  0  0  0  0  0  0  0  0  0
    6.6730  -12.5966   20.2662 C   0  0  0  0  0  0  0  0  0  0  0  0
    6.1592  -13.8919   20.2931 C   0  0  0  0  0  0  0  0  0  0  0  0
    6.7727  -14.8420   21.0980 C   0  0  0  0  0  0  0  0  0  0  0  0
   10.5964  -16.8878   23.0418 C   0  0  0  0  0  0  0  0  0  0  0  0
   10.2794  -18.1117   23.2295 O   0  0  0  0  0  0  0  0  0  0  0  0
   11.7094  -16.3501   23.7093 N   0  0  0  0  0  0  0  0  0  0  0  0
   12.5139  -17.2248   24.5698 C   0  0  1  0  0  0  0  0  0  0  0  0
   13.8820  -16.6465   24.7752 C   0  0  0  0  0  0  0  0  0  0  0  0
   14.5723  -16.4684   23.4940 C   0  0  0  0  0  0  0  0  0  0  0  0
   15.2195  -15.4482   23.1822 O   0  0  0  0  0  0  0  0  0  0  0  0
   11.8379  -17.2675   25.9068 C   0  0  0  0  0  0  0  0  0  0  0  0
   12.2728  -17.9261   26.8388 O   0  0  0  0  0  0  0  0  0  0  0  0
   14.5118  -17.4924   22.5516 O   0  0  0  0  0  0  0  0  0  0  0  0
   10.6816  -16.5276   26.0731 O   0  0  0  0  0  0  0  0  0  0  0  0
  2  1  1  6
  2  6  1  0
  3  2  1  0
  4  3  1  0
  5  4  2  0
  6  7  2  0
  6  9  1  0
  8  4  1  0
  9 10  1  0
 10 11  1  1
 11 12  1  0
 12 13  2  0
 12 17  1  0
 13 14  1  0
 14 15  2  0
 16 15  1  0
 17 16  2  0
 18 20  1  0
 18 10  1  0
 19 18  2  0
 21 20  1  0
 21 25  1  0
 22 23  1  0
 21 22  1  1
 23 24  2  0
 25 28  1  0
 26 25  2  0
 27 23  1  0
M  END
$$$$
