DFD.pdb
     RDKit          3D

 28 28  0  0  1  0  0  0  0  0999 V2000
   10.4753  -16.2460   19.4396 N   0  0  0  0  0  0  0  0  0  0  0  0
    9.8774  -16.9405   20.5286 C   0  0  1  0  0  0  0  0  0  0  0  0
   10.3607  -18.3435   20.7549 C   0  0  0  0  0  0  0  0  0  0  0  0
   10.7696  -19.0363   19.5171 C   0  0  0  0  0  0  0  0  0  0  0  0
   11.6533  -19.9037   19.5157 O   0  0  0  0  0  0  0  0  0  0  0  0
    9.8395  -16.1815   21.8077 C   0  0  0  0  0  0  0  0  0  0  0  0
   10.9227  -16.0148   22.4159 O   0  0  0  0  0  0  0  0  0  0  0  0
   10.1477  -18.7098   18.3166 O   0  0  0  0  0  0  0  0  0  0  0  0
    8.6837  -15.6392   22.3846 N   0  0  0  0  0  0  0  0  0  0  0  0
    8.7255  -14.9615   23.6749 C   0  0  1  0  0  0  0  0  0  0  0  0
    7.5109  -14.1153   23.7701 C   0  0  0  0  0  0  0  0  0  0  0  0
    7.3437  -13.4116   25.0645 C   0  0  0  0  0  0  0  0  0  0  0  0
    6.3530  -13.8058   25.9600 C   0  0  0  0  0  0  0  0  0  0  0  0
    6.1931  -13.1643   27.1702 C   0  0  0  0  0  0  0  0  0  0  0  0
    7.0438  -12.1188   27.4697 C   0  0  0  0  0  0  0  0  0  0  0  0
    8.0419  -11.7090   26.5874 C   0  0  0  0  0  0  0  0  0  0  0  0
    8.1816  -12.3715   25.3757 C   0  0  0  0  0  0  0  0  0  0  0  0
    8.9529  -15.9025   24.7834 C   0  0  0  0  0  0  0  0  0  0  0  0
    8.0796  -16.8240   24.9305 O   0  0  0  0  0  0  0  0  0  0  0  0
   10.0478  -15.8390   25.6612 N   0  0  0  0  0  0  0  0  0  0  0  0
   10.1871  -16.8655   26.7004 C   0  0  1  0  0  0  0  0  0  0  0  0
   11.5681  -17.4492   26.6813 C   0  0  0  0  0  0  0  0  0  0  0  0
   11.6907  -18.4684   25.6345 C   0  0  0  0  0  0  0  0  0  0  0  0
   10.7763  -18.7732   24.8421 O   0  0  0  0  0  0  0  0  0  0  0  0
   10.0062  -16.1805   28.0211 C   0  0  0  0  0  0  0  0  0  0  0  0
    9.8804  -14.9696   28.1180 O   0  0  0  0  0  0  0  0  0  0  0  0
   12.8973  -19.1518   25.5018 O   0  0  0  0  0  0  0  0  0  0  0  0
    9.9824  -16.9637   29.1604 O   0  0  0  0  0  0  0  0  0  0  0  0
  2  1  1  6
  2  6  1  0
  3  2  1  0
  4  3  1  0
  5  4  2  0
  6  7  2  0
  6  9  1  0
  8  4  1  0
  9 10  1  0
 10 11  1  1
 11 12  1  0
 12 13  2  0
 12 17  1  0
 13 14  1  0
 14 15  2  0
 16 15  1  0
 17 16  2  0
 18 20  1  0
 18 10  1  0
 19 18  2  0
 21 20  1  0
 21 25  1  0
 22 23  1  0
 21 22  1  1
 23 24  2  0
 25 28  1  0
 26 25  2  0
 27 23  1  0
M  END
$$$$
