DFD.pdb
     RDKit          3D

 28 28  0  0  1  0  0  0  0  0999 V2000
    8.6363  -17.5783   19.9992 N   0  0  0  0  0  0  0  0  0  0  0  0
    9.8890  -17.1092   20.4854 C   0  0  1  0  0  0  0  0  0  0  0  0
   10.8131  -16.5245   19.4570 C   0  0  0  0  0  0  0  0  0  0  0  0
   10.9070  -17.3260   18.2208 C   0  0  0  0  0  0  0  0  0  0  0  0
    9.8986  -17.7151   17.6166 O   0  0  0  0  0  0  0  0  0  0  0  0
    9.8042  -16.2285   21.6816 C   0  0  0  0  0  0  0  0  0  0  0  0
   10.8688  -15.7193   22.1040 O   0  0  0  0  0  0  0  0  0  0  0  0
   12.1606  -17.6557   17.7164 O   0  0  0  0  0  0  0  0  0  0  0  0
    8.6237  -15.9258   22.3726 N   0  0  0  0  0  0  0  0  0  0  0  0
    8.6427  -15.1370   23.5988 C   0  0  1  0  0  0  0  0  0  0  0  0
    7.3699  -14.3775   23.6564 C   0  0  0  0  0  0  0  0  0  0  0  0
    7.2009  -13.5389   24.8674 C   0  0  0  0  0  0  0  0  0  0  0  0
    7.8584  -12.3164   24.9775 C   0  0  0  0  0  0  0  0  0  0  0  0
    7.7027  -11.5241   26.0953 C   0  0  0  0  0  0  0  0  0  0  0  0
    6.8755  -11.9770   27.1038 C   0  0  0  0  0  0  0  0  0  0  0  0
    6.2081  -13.1973   27.0130 C   0  0  0  0  0  0  0  0  0  0  0  0
    6.3821  -13.9759   25.8771 C   0  0  0  0  0  0  0  0  0  0  0  0
    8.9654  -15.9585   24.7764 C   0  0  0  0  0  0  0  0  0  0  0  0
    8.3529  -17.0763   24.8706 O   0  0  0  0  0  0  0  0  0  0  0  0
    9.8841  -15.5857   25.7717 N   0  0  0  0  0  0  0  0  0  0  0  0
   10.5173  -16.6315   26.5832 C   0  0  1  0  0  0  0  0  0  0  0  0
   11.9907  -16.6883   26.3111 C   0  0  0  0  0  0  0  0  0  0  0  0
   12.5010  -18.0527   26.4776 C   0  0  0  0  0  0  0  0  0  0  0  0
   11.7951  -19.0315   26.7946 O   0  0  0  0  0  0  0  0  0  0  0  0
   10.3395  -16.2407   28.0191 C   0  0  0  0  0  0  0  0  0  0  0  0
   10.3715  -17.0561   28.9276 O   0  0  0  0  0  0  0  0  0  0  0  0
   13.8585  -18.2904   26.2742 O   0  0  0  0  0  0  0  0  0  0  0  0
   10.1335  -14.9040   28.3071 O   0  0  0  0  0  0  0  0  0  0  0  0
  2  1  1  6
  2  6  1  0
  3  2  1  0
  4  3  1  0
  5  4  2  0
  6  7  2  0
  6  9  1  0
  8  4  1  0
  9 10  1  0
 10 11  1  1
 11 12  1  0
 12 13  2  0
 12 17  1  0
 13 14  1  0
 14 15  2  0
 16 15  1  0
 17 16  2  0
 18 20  1  0
 18 10  1  0
 19 18  2  0
 21 20  1  0
 21 25  1  0
 22 23  1  0
 21 22  1  6
 23 24  2  0
 25 28  1  0
 26 25  2  0
 27 23  1  0
M  END
$$$$
