DFD.pdb
     RDKit          3D

 28 28  0  0  1  0  0  0  0  0999 V2000
    8.1862  -16.6352   19.0288 N   0  0  0  0  0  0  0  0  0  0  0  0
    7.8327  -17.1795   20.2956 C   0  0  1  0  0  0  0  0  0  0  0  0
    8.1102  -18.6432   20.4799 C   0  0  0  0  0  0  0  0  0  0  0  0
    7.5488  -19.4920   19.4104 C   0  0  0  0  0  0  0  0  0  0  0  0
    6.3691  -19.3905   19.0478 O   0  0  0  0  0  0  0  0  0  0  0  0
    8.3140  -16.3985   21.4669 C   0  0  0  0  0  0  0  0  0  0  0  0
    9.4286  -15.8335   21.3693 O   0  0  0  0  0  0  0  0  0  0  0  0
    8.3633  -20.4330   18.7895 O   0  0  0  0  0  0  0  0  0  0  0  0
    7.6157  -16.2473   22.6719 N   0  0  0  0  0  0  0  0  0  0  0  0
    8.0426  -15.2857   23.6814 C   0  0  1  0  0  0  0  0  0  0  0  0
    6.8189  -14.7304   24.3094 C   0  0  0  0  0  0  0  0  0  0  0  0
    7.0664  -13.7219   25.3678 C   0  0  0  0  0  0  0  0  0  0  0  0
    6.3456  -12.5308   25.3911 C   0  0  0  0  0  0  0  0  0  0  0  0
    6.5613  -11.5890   26.3750 C   0  0  0  0  0  0  0  0  0  0  0  0
    7.5131  -11.8601   27.3377 C   0  0  0  0  0  0  0  0  0  0  0  0
    8.2452  -13.0461   27.3324 C   0  0  0  0  0  0  0  0  0  0  0  0
    8.0087  -13.9777   26.3309 C   0  0  0  0  0  0  0  0  0  0  0  0
    9.0433  -15.8569   24.5969 C   0  0  0  0  0  0  0  0  0  0  0  0
    9.5105  -15.0678   25.4871 O   0  0  0  0  0  0  0  0  0  0  0  0
    9.4973  -17.1852   24.5414 N   0  0  0  0  0  0  0  0  0  0  0  0
   10.8522  -17.4943   25.0122 C   0  0  1  0  0  0  0  0  0  0  0  0
   11.8253  -16.4610   24.5291 C   0  0  0  0  0  0  0  0  0  0  0  0
   13.1982  -16.8247   24.8930 C   0  0  0  0  0  0  0  0  0  0  0  0
   14.0064  -16.0497   25.4435 O   0  0  0  0  0  0  0  0  0  0  0  0
   10.8241  -17.4212   26.5089 C   0  0  0  0  0  0  0  0  0  0  0  0
   10.9438  -18.4108   27.2144 O   0  0  0  0  0  0  0  0  0  0  0  0
   13.6473  -18.1133   24.6129 O   0  0  0  0  0  0  0  0  0  0  0  0
   10.6565  -16.1799   27.0948 O   0  0  0  0  0  0  0  0  0  0  0  0
  2  1  1  6
  2  6  1  0
  3  2  1  0
  4  3  1  0
  5  4  2  0
  6  7  2  0
  6  9  1  0
  8  4  1  0
  9 10  1  0
 10 11  1  1
 11 12  1  0
 12 13  2  0
 12 17  1  0
 13 14  1  0
 14 15  2  0
 16 15  1  0
 17 16  2  0
 18 20  1  0
 18 10  1  0
 19 18  2  0
 21 20  1  0
 21 25  1  0
 22 23  1  0
 21 22  1  6
 23 24  2  0
 25 28  1  0
 26 25  2  0
 27 23  1  0
M  END
$$$$
