DFD.pdb
     RDKit          3D

 28 28  0  0  1  0  0  0  0  0999 V2000
    8.5843  -17.2578   19.7665 N   0  0  0  0  0  0  0  0  0  0  0  0
    9.8624  -17.0000   20.3373 C   0  0  1  0  0  0  0  0  0  0  0  0
   10.9040  -16.4669   19.3969 C   0  0  0  0  0  0  0  0  0  0  0  0
   11.0078  -17.2266   18.1354 C   0  0  0  0  0  0  0  0  0  0  0  0
   10.3279  -18.2401   17.9256 O   0  0  0  0  0  0  0  0  0  0  0  0
    9.8352  -16.2111   21.5984 C   0  0  0  0  0  0  0  0  0  0  0  0
   10.9344  -15.8512   22.0816 O   0  0  0  0  0  0  0  0  0  0  0  0
   11.8919  -16.7960   17.1517 O   0  0  0  0  0  0  0  0  0  0  0  0
    8.6733  -15.8404   22.2877 N   0  0  0  0  0  0  0  0  0  0  0  0
    8.7386  -15.1151   23.5510 C   0  0  1  0  0  0  0  0  0  0  0  0
    7.4880  -14.3271   23.6743 C   0  0  0  0  0  0  0  0  0  0  0  0
    7.3223  -13.6228   24.9685 C   0  0  0  0  0  0  0  0  0  0  0  0
    6.4848  -14.1412   25.9527 C   0  0  0  0  0  0  0  0  0  0  0  0
    6.3290  -13.4994   27.1633 C   0  0  0  0  0  0  0  0  0  0  0  0
    7.0275  -12.3270   27.3727 C   0  0  0  0  0  0  0  0  0  0  0  0
    7.8710  -11.7917   26.4009 C   0  0  0  0  0  0  0  0  0  0  0  0
    8.0101  -12.4574   25.1908 C   0  0  0  0  0  0  0  0  0  0  0  0
    9.0635  -16.0030   24.6788 C   0  0  0  0  0  0  0  0  0  0  0  0
    8.2523  -16.9678   24.8903 O   0  0  0  0  0  0  0  0  0  0  0  0
   10.1857  -15.8465   25.5093 N   0  0  0  0  0  0  0  0  0  0  0  0
   10.4252  -16.8273   26.5741 C   0  0  1  0  0  0  0  0  0  0  0  0
   11.8463  -17.3041   26.5399 C   0  0  0  0  0  0  0  0  0  0  0  0
   12.0404  -18.2942   25.4761 C   0  0  0  0  0  0  0  0  0  0  0  0
   11.1486  -18.6523   24.6803 O   0  0  0  0  0  0  0  0  0  0  0  0
   10.2195  -16.1183   27.8783 C   0  0  0  0  0  0  0  0  0  0  0  0
   10.0965  -14.9054   27.9511 O   0  0  0  0  0  0  0  0  0  0  0  0
   13.2936  -18.8848   25.3301 O   0  0  0  0  0  0  0  0  0  0  0  0
   10.1689  -16.8810   29.0306 O   0  0  0  0  0  0  0  0  0  0  0  0
  2  1  1  6
  2  6  1  0
  3  2  1  0
  4  3  1  0
  5  4  2  0
  6  7  2  0
  6  9  1  0
  8  4  1  0
  9 10  1  0
 10 11  1  1
 11 12  1  0
 12 13  2  0
 12 17  1  0
 13 14  1  0
 14 15  2  0
 16 15  1  0
 17 16  2  0
 18 20  1  0
 18 10  1  0
 19 18  2  0
 21 20  1  0
 21 25  1  0
 22 23  1  0
 21 22  1  1
 23 24  2  0
 25 28  1  0
 26 25  2  0
 27 23  1  0
M  END
$$$$
