DFD.pdb
     RDKit          3D

 28 28  0  0  1  0  0  0  0  0999 V2000
    9.6730  -16.0456   18.6056 N   0  0  0  0  0  0  0  0  0  0  0  0
    9.0646  -16.7028   19.7119 C   0  0  1  0  0  0  0  0  0  0  0  0
    9.3446  -18.1724   19.8352 C   0  0  0  0  0  0  0  0  0  0  0  0
    9.0255  -18.9408   18.6156 C   0  0  0  0  0  0  0  0  0  0  0  0
    9.8826  -19.1881   17.7568 O   0  0  0  0  0  0  0  0  0  0  0  0
    9.2450  -16.0186   21.0207 C   0  0  0  0  0  0  0  0  0  0  0  0
   10.4114  -15.7048   21.3556 O   0  0  0  0  0  0  0  0  0  0  0  0
    7.7279  -19.4022   18.4214 O   0  0  0  0  0  0  0  0  0  0  0  0
    8.2091  -15.6990   21.9081 N   0  0  0  0  0  0  0  0  0  0  0  0
    8.4709  -14.9998   23.1605 C   0  0  1  0  0  0  0  0  0  0  0  0
    7.2188  -14.3071   23.5510 C   0  0  0  0  0  0  0  0  0  0  0  0
    7.2865  -13.5820   24.8425 C   0  0  0  0  0  0  0  0  0  0  0  0
    8.2284  -12.5755   25.0390 C   0  0  0  0  0  0  0  0  0  0  0  0
    8.2957  -11.8886   26.2329 C   0  0  0  0  0  0  0  0  0  0  0  0
    7.4019  -12.2270   27.2294 C   0  0  0  0  0  0  0  0  0  0  0  0
    6.4514  -13.2309   27.0528 C   0  0  0  0  0  0  0  0  0  0  0  0
    6.4049  -13.9071   25.8415 C   0  0  0  0  0  0  0  0  0  0  0  0
    9.0675  -15.8872   24.1717 C   0  0  0  0  0  0  0  0  0  0  0  0
    8.5174  -17.0321   24.3139 O   0  0  0  0  0  0  0  0  0  0  0  0
   10.1766  -15.5481   24.9644 N   0  0  0  0  0  0  0  0  0  0  0  0
   10.8159  -16.5897   25.7764 C   0  0  1  0  0  0  0  0  0  0  0  0
   12.2921  -16.3466   25.8763 C   0  0  0  0  0  0  0  0  0  0  0  0
   12.9670  -17.4808   26.5148 C   0  0  0  0  0  0  0  0  0  0  0  0
   12.3942  -18.5350   26.8578 O   0  0  0  0  0  0  0  0  0  0  0  0
   10.2471  -16.4797   27.1586 C   0  0  0  0  0  0  0  0  0  0  0  0
    9.7048  -17.4194   27.7193 O   0  0  0  0  0  0  0  0  0  0  0  0
   14.3348  -17.3937   26.7639 O   0  0  0  0  0  0  0  0  0  0  0  0
   10.3496  -15.2630   27.8075 O   0  0  0  0  0  0  0  0  0  0  0  0
  2  1  1  6
  2  6  1  0
  3  2  1  0
  4  3  1  0
  5  4  2  0
  6  7  2  0
  6  9  1  0
  8  4  1  0
  9 10  1  0
 10 11  1  1
 11 12  1  0
 12 13  2  0
 12 17  1  0
 13 14  1  0
 14 15  2  0
 16 15  1  0
 17 16  2  0
 18 20  1  0
 18 10  1  0
 19 18  2  0
 21 20  1  0
 21 25  1  0
 22 23  1  0
 21 22  1  1
 23 24  2  0
 25 28  1  0
 26 25  2  0
 27 23  1  0
M  END
$$$$
