DFD.pdb
     RDKit          3D

 28 28  0  0  1  0  0  0  0  0999 V2000
    6.5064  -16.6147   19.2895 N   0  0  0  0  0  0  0  0  0  0  0  0
    7.8700  -16.2381   19.4454 C   0  0  1  0  0  0  0  0  0  0  0  0
    8.5094  -15.5854   18.2543 C   0  0  0  0  0  0  0  0  0  0  0  0
    8.4061  -16.3819   17.0157 C   0  0  0  0  0  0  0  0  0  0  0  0
    7.8902  -17.5075   17.0043 O   0  0  0  0  0  0  0  0  0  0  0  0
    8.1695  -15.4781   20.6889 C   0  0  0  0  0  0  0  0  0  0  0  0
    8.2028  -14.2275   20.6110 O   0  0  0  0  0  0  0  0  0  0  0  0
    8.9001  -15.8579   15.8257 O   0  0  0  0  0  0  0  0  0  0  0  0
    8.4180  -16.0549   21.9413 N   0  0  0  0  0  0  0  0  0  0  0  0
    8.5846  -15.2348   23.1353 C   0  0  1  0  0  0  0  0  0  0  0  0
    7.3402  -14.4462   23.3080 C   0  0  0  0  0  0  0  0  0  0  0  0
    7.2573  -13.6865   24.5786 C   0  0  0  0  0  0  0  0  0  0  0  0
    6.4202  -14.1159   25.6051 C   0  0  0  0  0  0  0  0  0  0  0  0
    6.3408  -13.4221   26.7943 C   0  0  0  0  0  0  0  0  0  0  0  0
    7.1154  -12.2884   26.9390 C   0  0  0  0  0  0  0  0  0  0  0  0
    7.9598  -11.8420   25.9240 C   0  0  0  0  0  0  0  0  0  0  0  0
    8.0212  -12.5585   24.7367 C   0  0  0  0  0  0  0  0  0  0  0  0
    9.0172  -16.0321   24.2942 C   0  0  0  0  0  0  0  0  0  0  0  0
    8.2645  -17.0129   24.6180 O   0  0  0  0  0  0  0  0  0  0  0  0
   10.1800  -15.7754   25.0396 N   0  0  0  0  0  0  0  0  0  0  0  0
   10.8450  -16.8886   25.7265 C   0  0  1  0  0  0  0  0  0  0  0  0
   12.3264  -16.6637   25.7800 C   0  0  0  0  0  0  0  0  0  0  0  0
   13.0054  -17.7996   26.4113 C   0  0  0  0  0  0  0  0  0  0  0  0
   12.4321  -18.8487   26.7687 O   0  0  0  0  0  0  0  0  0  0  0  0
   10.3399  -16.8982   27.1375 C   0  0  0  0  0  0  0  0  0  0  0  0
   10.5621  -17.8215   27.9054 O   0  0  0  0  0  0  0  0  0  0  0  0
   14.3779  -17.7201   26.6358 O   0  0  0  0  0  0  0  0  0  0  0  0
    9.5980  -15.8139   27.5686 O   0  0  0  0  0  0  0  0  0  0  0  0
  2  1  1  6
  2  6  1  0
  3  2  1  0
  4  3  1  0
  5  4  2  0
  6  7  2  0
  6  9  1  0
  8  4  1  0
  9 10  1  0
 10 11  1  1
 11 12  1  0
 12 13  2  0
 12 17  1  0
 13 14  1  0
 14 15  2  0
 16 15  1  0
 17 16  2  0
 18 20  1  0
 18 10  1  0
 19 18  2  0
 21 20  1  0
 21 25  1  0
 22 23  1  0
 21 22  1  1
 23 24  2  0
 25 28  1  0
 26 25  2  0
 27 23  1  0
M  END
$$$$
