DFD.pdb
     RDKit          3D

 28 28  0  0  1  0  0  0  0  0999 V2000
    9.8744  -16.2896   18.9304 N   0  0  0  0  0  0  0  0  0  0  0  0
    9.2987  -16.9442   20.0555 C   0  0  1  0  0  0  0  0  0  0  0  0
    9.6983  -18.3774   20.2544 C   0  0  0  0  0  0  0  0  0  0  0  0
    9.4410  -19.2329   19.0791 C   0  0  0  0  0  0  0  0  0  0  0  0
   10.2121  -19.2613   18.1108 O   0  0  0  0  0  0  0  0  0  0  0  0
    9.3914  -16.1873   21.3330 C   0  0  0  0  0  0  0  0  0  0  0  0
   10.5119  -15.7271   21.6550 O   0  0  0  0  0  0  0  0  0  0  0  0
    8.3023  -20.0313   19.0541 O   0  0  0  0  0  0  0  0  0  0  0  0
    8.3203  -15.9504   22.2045 N   0  0  0  0  0  0  0  0  0  0  0  0
    8.4918  -15.1692   23.4236 C   0  0  1  0  0  0  0  0  0  0  0  0
    7.2131  -14.4629   23.6805 C   0  0  0  0  0  0  0  0  0  0  0  0
    7.1614  -13.7172   24.9610 C   0  0  0  0  0  0  0  0  0  0  0  0
    6.7511  -14.3505   26.1313 C   0  0  0  0  0  0  0  0  0  0  0  0
    6.7067  -13.6696   27.3296 C   0  0  0  0  0  0  0  0  0  0  0  0
    7.0810  -12.3406   27.3369 C   0  0  0  0  0  0  0  0  0  0  0  0
    7.4949  -11.6883   26.1769 C   0  0  0  0  0  0  0  0  0  0  0  0
    7.5305  -12.3966   24.9836 C   0  0  0  0  0  0  0  0  0  0  0  0
    9.0199  -15.9843   24.5294 C   0  0  0  0  0  0  0  0  0  0  0  0
    8.4400  -17.1050   24.7323 O   0  0  0  0  0  0  0  0  0  0  0  0
   10.0957  -15.6025   25.3481 N   0  0  0  0  0  0  0  0  0  0  0  0
   10.7405  -16.6139   26.1934 C   0  0  1  0  0  0  0  0  0  0  0  0
   12.2185  -16.3728   26.2674 C   0  0  0  0  0  0  0  0  0  0  0  0
   12.8740  -17.3920   27.0927 C   0  0  0  0  0  0  0  0  0  0  0  0
   12.6040  -18.6095   27.0494 O   0  0  0  0  0  0  0  0  0  0  0  0
   10.1874  -16.4475   27.5764 C   0  0  0  0  0  0  0  0  0  0  0  0
    9.4339  -15.5336   27.8738 O   0  0  0  0  0  0  0  0  0  0  0  0
   13.8631  -16.9945   27.9895 O   0  0  0  0  0  0  0  0  0  0  0  0
   10.5538  -17.3718   28.5373 O   0  0  0  0  0  0  0  0  0  0  0  0
  2  1  1  6
  2  6  1  0
  3  2  1  0
  4  3  1  0
  5  4  2  0
  6  7  2  0
  6  9  1  0
  8  4  1  0
  9 10  1  0
 10 11  1  1
 11 12  1  0
 12 13  2  0
 12 17  1  0
 13 14  1  0
 14 15  2  0
 16 15  1  0
 17 16  2  0
 18 20  1  0
 18 10  1  0
 19 18  2  0
 21 20  1  0
 21 25  1  0
 22 23  1  0
 21 22  1  1
 23 24  2  0
 25 28  1  0
 26 25  2  0
 27 23  1  0
M  END
$$$$
