DFD.pdb
     RDKit          3D

 28 28  0  0  1  0  0  0  0  0999 V2000
   10.0793  -16.6817   19.1121 N   0  0  0  0  0  0  0  0  0  0  0  0
    9.0473  -16.8879   20.0703 C   0  0  1  0  0  0  0  0  0  0  0  0
    8.7143  -18.3192   20.3764 C   0  0  0  0  0  0  0  0  0  0  0  0
    8.3543  -19.1118   19.1841 C   0  0  0  0  0  0  0  0  0  0  0  0
    9.1276  -19.9476   18.6976 O   0  0  0  0  0  0  0  0  0  0  0  0
    9.1926  -16.0992   21.3236 C   0  0  0  0  0  0  0  0  0  0  0  0
   10.3339  -16.0309   21.8373 O   0  0  0  0  0  0  0  0  0  0  0  0
    7.1130  -18.9184   18.5870 O   0  0  0  0  0  0  0  0  0  0  0  0
    8.1494  -15.4273   21.9739 N   0  0  0  0  0  0  0  0  0  0  0  0
    8.3443  -14.8026   23.2769 C   0  0  1  0  0  0  0  0  0  0  0  0
    7.2337  -13.8400   23.4770 C   0  0  0  0  0  0  0  0  0  0  0  0
    7.2275  -13.1639   24.7966 C   0  0  0  0  0  0  0  0  0  0  0  0
    8.2322  -12.2599   25.1318 C   0  0  0  0  0  0  0  0  0  0  0  0
    8.2327  -11.6188   26.3527 C   0  0  0  0  0  0  0  0  0  0  0  0
    7.2079  -11.8985   27.2348 C   0  0  0  0  0  0  0  0  0  0  0  0
    6.1928  -12.7997   26.9185 C   0  0  0  0  0  0  0  0  0  0  0  0
    6.2158  -13.4316   25.6828 C   0  0  0  0  0  0  0  0  0  0  0  0
    8.5422  -15.7999   24.3409 C   0  0  0  0  0  0  0  0  0  0  0  0
    7.7540  -16.8059   24.3262 O   0  0  0  0  0  0  0  0  0  0  0  0
    9.5236  -15.7030   25.3415 N   0  0  0  0  0  0  0  0  0  0  0  0
    9.9264  -16.9158   26.0627 C   0  0  1  0  0  0  0  0  0  0  0  0
   11.2520  -17.4082   25.5641 C   0  0  0  0  0  0  0  0  0  0  0  0
   11.7256  -18.5395   26.3675 C   0  0  0  0  0  0  0  0  0  0  0  0
   11.0178  -19.5150   26.6906 O   0  0  0  0  0  0  0  0  0  0  0  0
   10.1004  -16.5334   27.5013 C   0  0  0  0  0  0  0  0  0  0  0  0
   10.4121  -17.3437   28.3603 O   0  0  0  0  0  0  0  0  0  0  0  0
   13.0469  -18.5423   26.8086 O   0  0  0  0  0  0  0  0  0  0  0  0
    9.8975  -15.2109   27.8504 O   0  0  0  0  0  0  0  0  0  0  0  0
  2  1  1  1
  2  6  1  0
  3  2  1  0
  4  3  1  0
  5  4  2  0
  6  7  2  0
  6  9  1  0
  8  4  1  0
  9 10  1  0
 10 11  1  1
 11 12  1  0
 12 13  2  0
 12 17  1  0
 13 14  1  0
 14 15  2  0
 16 15  1  0
 17 16  2  0
 18 20  1  0
 18 10  1  0
 19 18  2  0
 21 20  1  0
 21 25  1  0
 22 23  1  0
 21 22  1  6
 23 24  2  0
 25 28  1  0
 26 25  2  0
 27 23  1  0
M  END
$$$$
