DFD.pdb
     RDKit          3D

 28 28  0  0  1  0  0  0  0  0999 V2000
   10.0528  -16.3065   19.1959 N   0  0  0  0  0  0  0  0  0  0  0  0
    9.1543  -16.7518   20.2059 C   0  0  1  0  0  0  0  0  0  0  0  0
    9.0881  -18.2368   20.4150 C   0  0  0  0  0  0  0  0  0  0  0  0
    8.6647  -18.9858   19.2154 C   0  0  0  0  0  0  0  0  0  0  0  0
    9.1652  -18.7737   18.1028 O   0  0  0  0  0  0  0  0  0  0  0  0
    9.2746  -16.0396   21.5066 C   0  0  0  0  0  0  0  0  0  0  0  0
   10.4288  -15.8000   21.9325 O   0  0  0  0  0  0  0  0  0  0  0  0
    7.6770  -19.9580   19.3327 O   0  0  0  0  0  0  0  0  0  0  0  0
    8.1946  -15.6168   22.2925 N   0  0  0  0  0  0  0  0  0  0  0  0
    8.4012  -14.9867   23.5911 C   0  0  1  0  0  0  0  0  0  0  0  0
    7.1738  -14.2174   23.9102 C   0  0  0  0  0  0  0  0  0  0  0  0
    7.1938  -13.5330   25.2254 C   0  0  0  0  0  0  0  0  0  0  0  0
    8.3765  -13.4372   25.9540 C   0  0  0  0  0  0  0  0  0  0  0  0
    8.4092  -12.7960   27.1744 C   0  0  0  0  0  0  0  0  0  0  0  0
    7.2350  -12.2508   27.6545 C   0  0  0  0  0  0  0  0  0  0  0  0
    6.0409  -12.3355   26.9408 C   0  0  0  0  0  0  0  0  0  0  0  0
    6.0352  -12.9863   25.7148 C   0  0  0  0  0  0  0  0  0  0  0  0
    8.8469  -15.9538   24.6069 C   0  0  0  0  0  0  0  0  0  0  0  0
    8.0242  -16.8877   24.8975 O   0  0  0  0  0  0  0  0  0  0  0  0
   10.0929  -15.9019   25.2537 N   0  0  0  0  0  0  0  0  0  0  0  0
   10.5044  -17.0303   26.0967 C   0  0  1  0  0  0  0  0  0  0  0  0
   11.9936  -17.2000   26.0578 C   0  0  0  0  0  0  0  0  0  0  0  0
   12.4569  -17.4417   24.6878 C   0  0  0  0  0  0  0  0  0  0  0  0
   11.9742  -18.3043   23.9263 O   0  0  0  0  0  0  0  0  0  0  0  0
   10.1274  -16.6859   27.5058 C   0  0  0  0  0  0  0  0  0  0  0  0
   10.3146  -17.4515   28.4386 O   0  0  0  0  0  0  0  0  0  0  0  0
   13.5027  -16.6695   24.1874 O   0  0  0  0  0  0  0  0  0  0  0  0
    9.5484  -15.4521   27.7394 O   0  0  0  0  0  0  0  0  0  0  0  0
  2  1  1  6
  2  6  1  0
  3  2  1  0
  4  3  1  0
  5  4  2  0
  6  7  2  0
  6  9  1  0
  8  4  1  0
  9 10  1  0
 10 11  1  1
 11 12  1  0
 12 13  2  0
 12 17  1  0
 13 14  1  0
 14 15  2  0
 16 15  1  0
 17 16  2  0
 18 20  1  0
 18 10  1  0
 19 18  2  0
 21 20  1  0
 21 25  1  0
 22 23  1  0
 21 22  1  1
 23 24  2  0
 25 28  1  0
 26 25  2  0
 27 23  1  0
M  END
$$$$
