DFD.pdb
     RDKit          3D

 28 28  0  0  1  0  0  0  0  0999 V2000
    9.9027  -16.7169   18.9178 N   0  0  0  0  0  0  0  0  0  0  0  0
    8.9383  -16.9812   19.9306 C   0  0  1  0  0  0  0  0  0  0  0  0
    8.6583  -18.4300   20.2062 C   0  0  0  0  0  0  0  0  0  0  0  0
    8.2718  -19.1975   19.0058 C   0  0  0  0  0  0  0  0  0  0  0  0
    7.2554  -18.9226   18.3543 O   0  0  0  0  0  0  0  0  0  0  0  0
    9.1441  -16.2318   21.1994 C   0  0  0  0  0  0  0  0  0  0  0  0
   10.2975  -16.2274   21.6902 O   0  0  0  0  0  0  0  0  0  0  0  0
    9.0683  -20.2596   18.5909 O   0  0  0  0  0  0  0  0  0  0  0  0
    8.1455  -15.5308   21.8880 N   0  0  0  0  0  0  0  0  0  0  0  0
    8.4075  -14.9108   23.1814 C   0  0  1  0  0  0  0  0  0  0  0  0
    7.3106  -13.9464   23.4403 C   0  0  0  0  0  0  0  0  0  0  0  0
    7.3207  -13.3426   24.7945 C   0  0  0  0  0  0  0  0  0  0  0  0
    6.2005  -13.4328   25.6165 C   0  0  0  0  0  0  0  0  0  0  0  0
    6.2009  -12.8823   26.8809 C   0  0  0  0  0  0  0  0  0  0  0  0
    7.3445  -12.2384   27.3097 C   0  0  0  0  0  0  0  0  0  0  0  0
    8.4763  -12.1375   26.5027 C   0  0  0  0  0  0  0  0  0  0  0  0
    8.4498  -12.7002   25.2341 C   0  0  0  0  0  0  0  0  0  0  0  0
    8.6565  -15.9119   24.2309 C   0  0  0  0  0  0  0  0  0  0  0  0
    7.7638  -16.8154   24.3734 O   0  0  0  0  0  0  0  0  0  0  0  0
    9.7913  -15.9223   25.0590 N   0  0  0  0  0  0  0  0  0  0  0  0
   10.0774  -17.1188   25.8588 C   0  0  1  0  0  0  0  0  0  0  0  0
   11.4801  -17.5900   25.6168 C   0  0  0  0  0  0  0  0  0  0  0  0
   11.8140  -18.7132   26.4980 C   0  0  0  0  0  0  0  0  0  0  0  0
   11.3947  -19.8777   26.3392 O   0  0  0  0  0  0  0  0  0  0  0  0
    9.9797  -16.7174   27.2995 C   0  0  0  0  0  0  0  0  0  0  0  0
   10.1393  -15.5646   27.6695 O   0  0  0  0  0  0  0  0  0  0  0  0
   12.6503  -18.4847   27.5884 O   0  0  0  0  0  0  0  0  0  0  0  0
    9.6971  -17.7011   28.2294 O   0  0  0  0  0  0  0  0  0  0  0  0
  2  1  1  6
  2  6  1  0
  3  2  1  0
  4  3  1  0
  5  4  2  0
  6  7  2  0
  6  9  1  0
  8  4  1  0
  9 10  1  0
 10 11  1  1
 11 12  1  0
 12 13  2  0
 12 17  1  0
 13 14  1  0
 14 15  2  0
 16 15  1  0
 17 16  2  0
 18 20  1  0
 18 10  1  0
 19 18  2  0
 21 20  1  0
 21 25  1  0
 22 23  1  0
 21 22  1  1
 23 24  2  0
 25 28  1  0
 26 25  2  0
 27 23  1  0
M  END
$$$$
