DFD.pdb
     RDKit          3D

 28 28  0  0  1  0  0  0  0  0999 V2000
   10.4376  -16.5278   19.4223 N   0  0  0  0  0  0  0  0  0  0  0  0
    9.4021  -16.8745   20.3351 C   0  0  1  0  0  0  0  0  0  0  0  0
    9.1844  -18.3440   20.5511 C   0  0  0  0  0  0  0  0  0  0  0  0
    8.5494  -19.0237   19.4048 C   0  0  0  0  0  0  0  0  0  0  0  0
    8.8112  -18.7135   18.2349 O   0  0  0  0  0  0  0  0  0  0  0  0
    9.4464  -16.1501   21.6339 C   0  0  0  0  0  0  0  0  0  0  0  0
   10.5515  -16.0787   22.2212 O   0  0  0  0  0  0  0  0  0  0  0  0
    7.6313  -20.0417   19.6398 O   0  0  0  0  0  0  0  0  0  0  0  0
    8.3456  -15.5418   22.2511 N   0  0  0  0  0  0  0  0  0  0  0  0
    8.4615  -14.9126   23.5613 C   0  0  1  0  0  0  0  0  0  0  0  0
    7.2736  -14.0428   23.7414 C   0  0  0  0  0  0  0  0  0  0  0  0
    7.1764  -13.3907   25.0695 C   0  0  0  0  0  0  0  0  0  0  0  0
    6.1783  -13.7610   25.9670 C   0  0  0  0  0  0  0  0  0  0  0  0
    6.0829  -13.1675   27.2081 C   0  0  0  0  0  0  0  0  0  0  0  0
    7.0058  -12.1945   27.5366 C   0  0  0  0  0  0  0  0  0  0  0  0
    8.0126  -11.8097   26.6529 C   0  0  0  0  0  0  0  0  0  0  0  0
    8.0865  -12.4228   25.4098 C   0  0  0  0  0  0  0  0  0  0  0  0
    8.7149  -15.8983   24.6244 C   0  0  0  0  0  0  0  0  0  0  0  0
    7.9280  -16.9047   24.6611 O   0  0  0  0  0  0  0  0  0  0  0  0
    9.7463  -15.7902   25.5720 N   0  0  0  0  0  0  0  0  0  0  0  0
   10.0600  -16.9479   26.4173 C   0  0  1  0  0  0  0  0  0  0  0  0
   11.3712  -17.5534   26.0143 C   0  0  0  0  0  0  0  0  0  0  0  0
   11.7475  -18.6395   26.9244 C   0  0  0  0  0  0  0  0  0  0  0  0
   12.5730  -18.5220   27.8527 O   0  0  0  0  0  0  0  0  0  0  0  0
   10.2109  -16.4397   27.8192 C   0  0  0  0  0  0  0  0  0  0  0  0
   10.1930  -15.2487   28.0885 O   0  0  0  0  0  0  0  0  0  0  0  0
   11.1572  -19.8900   26.7567 O   0  0  0  0  0  0  0  0  0  0  0  0
   10.3747  -17.3673   28.8315 O   0  0  0  0  0  0  0  0  0  0  0  0
  2  1  1  1
  2  6  1  0
  3  2  1  0
  4  3  1  0
  5  4  2  0
  6  7  2  0
  6  9  1  0
  8  4  1  0
  9 10  1  0
 10 11  1  1
 11 12  1  0
 12 13  2  0
 12 17  1  0
 13 14  1  0
 14 15  2  0
 16 15  1  0
 17 16  2  0
 18 20  1  0
 18 10  1  0
 19 18  2  0
 21 20  1  0
 21 25  1  0
 22 23  1  0
 21 22  1  6
 23 24  2  0
 25 28  1  0
 26 25  2  0
 27 23  1  0
M  END
$$$$
