DFD.pdb
     RDKit          3D

 28 28  0  0  1  0  0  0  0  0999 V2000
   10.5039  -16.4476   19.2292 N   0  0  0  0  0  0  0  0  0  0  0  0
    9.4251  -16.7582   20.1041 C   0  0  1  0  0  0  0  0  0  0  0  0
    9.1256  -18.2184   20.2816 C   0  0  0  0  0  0  0  0  0  0  0  0
    8.8275  -18.9201   19.0174 C   0  0  0  0  0  0  0  0  0  0  0  0
    9.6320  -19.7083   18.5027 O   0  0  0  0  0  0  0  0  0  0  0  0
    9.4681  -16.0637   21.4191 C   0  0  0  0  0  0  0  0  0  0  0  0
   10.5426  -16.1062   22.0631 O   0  0  0  0  0  0  0  0  0  0  0  0
    7.6107  -18.6933   18.3830 O   0  0  0  0  0  0  0  0  0  0  0  0
    8.3974  -15.3658   21.9930 N   0  0  0  0  0  0  0  0  0  0  0  0
    8.4847  -14.8155   23.3404 C   0  0  1  0  0  0  0  0  0  0  0  0
    7.3139  -13.9251   23.5317 C   0  0  0  0  0  0  0  0  0  0  0  0
    7.1851  -13.3518   24.8931 C   0  0  0  0  0  0  0  0  0  0  0  0
    8.1108  -12.4216   25.3583 C   0  0  0  0  0  0  0  0  0  0  0  0
    7.9968  -11.8754   26.6194 C   0  0  0  0  0  0  0  0  0  0  0  0
    6.9378  -12.2770   27.4090 C   0  0  0  0  0  0  0  0  0  0  0  0
    6.0003  -13.2065   26.9621 C   0  0  0  0  0  0  0  0  0  0  0  0
    6.1380  -13.7411   25.6886 C   0  0  0  0  0  0  0  0  0  0  0  0
    8.6766  -15.8666   24.3524 C   0  0  0  0  0  0  0  0  0  0  0  0
    7.8713  -16.8575   24.2977 O   0  0  0  0  0  0  0  0  0  0  0  0
    9.6697  -15.8347   25.3456 N   0  0  0  0  0  0  0  0  0  0  0  0
    9.8789  -17.0229   26.1808 C   0  0  1  0  0  0  0  0  0  0  0  0
   11.1569  -17.7113   25.8053 C   0  0  0  0  0  0  0  0  0  0  0  0
   11.4549  -18.8047   26.7355 C   0  0  0  0  0  0  0  0  0  0  0  0
   12.2963  -18.7339   27.6543 O   0  0  0  0  0  0  0  0  0  0  0  0
   10.0231  -16.5458   27.5943 C   0  0  0  0  0  0  0  0  0  0  0  0
   10.0979  -15.3609   27.8802 O   0  0  0  0  0  0  0  0  0  0  0  0
   10.7657  -20.0076   26.5996 O   0  0  0  0  0  0  0  0  0  0  0  0
   10.0708  -17.4957   28.5980 O   0  0  0  0  0  0  0  0  0  0  0  0
  2  1  1  1
  2  6  1  0
  3  2  1  0
  4  3  1  0
  5  4  2  0
  6  7  2  0
  6  9  1  0
  8  4  1  0
  9 10  1  0
 10 11  1  1
 11 12  1  0
 12 13  2  0
 12 17  1  0
 13 14  1  0
 14 15  2  0
 16 15  1  0
 17 16  2  0
 18 20  1  0
 18 10  1  0
 19 18  2  0
 21 20  1  0
 21 25  1  0
 22 23  1  0
 21 22  1  6
 23 24  2  0
 25 28  1  0
 26 25  2  0
 27 23  1  0
M  END
$$$$
