DFD.pdb
     RDKit          3D

 28 28  0  0  1  0  0  0  0  0999 V2000
   10.4230  -17.1212   19.4790 N   0  0  0  0  0  0  0  0  0  0  0  0
    9.3326  -17.1056   20.3937 C   0  0  1  0  0  0  0  0  0  0  0  0
    8.7819  -18.4479   20.7789 C   0  0  0  0  0  0  0  0  0  0  0  0
    9.2416  -19.5487   19.9094 C   0  0  0  0  0  0  0  0  0  0  0  0
    9.3733  -20.7046   20.3337 O   0  0  0  0  0  0  0  0  0  0  0  0
    9.5384  -16.2537   21.5959 C   0  0  0  0  0  0  0  0  0  0  0  0
   10.6416  -16.3380   22.1850 O   0  0  0  0  0  0  0  0  0  0  0  0
    9.5360  -19.2857   18.5757 O   0  0  0  0  0  0  0  0  0  0  0  0
    8.5915  -15.3642   22.1203 N   0  0  0  0  0  0  0  0  0  0  0  0
    8.6402  -14.9381   23.5139 C   0  0  1  0  0  0  0  0  0  0  0  0
    7.4181  -14.1393   23.7756 C   0  0  0  0  0  0  0  0  0  0  0  0
    7.4105  -13.4221   25.0733 C   0  0  0  0  0  0  0  0  0  0  0  0
    8.5987  -13.1992   25.7642 C   0  0  0  0  0  0  0  0  0  0  0  0
    8.6051  -12.5263   26.9679 C   0  0  0  0  0  0  0  0  0  0  0  0
    7.3991  -12.0792   27.4698 C   0  0  0  0  0  0  0  0  0  0  0  0
    6.1989  -12.2917   26.7938 C   0  0  0  0  0  0  0  0  0  0  0  0
    6.2200  -12.9719   25.5839 C   0  0  0  0  0  0  0  0  0  0  0  0
    8.8892  -16.0662   24.4257 C   0  0  0  0  0  0  0  0  0  0  0  0
    7.9363  -16.9077   24.5569 O   0  0  0  0  0  0  0  0  0  0  0  0
   10.0851  -16.2570   25.1377 N   0  0  0  0  0  0  0  0  0  0  0  0
   10.2135  -17.4285   26.0119 C   0  0  1  0  0  0  0  0  0  0  0  0
   11.6210  -17.9448   25.9960 C   0  0  0  0  0  0  0  0  0  0  0  0
   11.9859  -18.4278   24.6606 C   0  0  0  0  0  0  0  0  0  0  0  0
   11.2147  -19.0563   23.9074 O   0  0  0  0  0  0  0  0  0  0  0  0
    9.9184  -16.9689   27.4076 C   0  0  0  0  0  0  0  0  0  0  0  0
    9.8433  -17.7433   28.3490 O   0  0  0  0  0  0  0  0  0  0  0  0
   13.2718  -18.1798   24.1858 O   0  0  0  0  0  0  0  0  0  0  0  0
    9.7279  -15.6157   27.6186 O   0  0  0  0  0  0  0  0  0  0  0  0
  2  1  1  1
  2  6  1  0
  3  2  1  0
  4  3  1  0
  5  4  2  0
  6  7  2  0
  6  9  1  0
  8  4  1  0
  9 10  1  0
 10 11  1  1
 11 12  1  0
 12 13  2  0
 12 17  1  0
 13 14  1  0
 14 15  2  0
 16 15  1  0
 17 16  2  0
 18 20  1  0
 18 10  1  0
 19 18  2  0
 21 20  1  0
 21 25  1  0
 22 23  1  0
 21 22  1  1
 23 24  2  0
 25 28  1  0
 26 25  2  0
 27 23  1  0
M  END
$$$$
