RLR.pdb
     RDKit          3D

 31 30  0  0  1  0  0  0  0  0999 V2000
    6.0696  -19.7024   18.2820 N   0  0  0  0  0  0  0  0  0  0  0  0
    6.6090  -19.0260   17.1331 C   0  0  0  0  0  0  0  0  0  0  0  0
    5.9770  -19.0632   16.0224 N   0  0  0  0  0  0  0  0  0  0  0  0
    7.8296  -18.3137   17.1939 N   0  0  0  0  0  0  0  0  0  0  0  0
    8.2974  -17.6181   18.3736 C   0  0  0  0  0  0  0  0  0  0  0  0
    7.6071  -16.3102   18.5783 C   0  0  0  0  0  0  0  0  0  0  0  0
    8.1402  -15.4634   19.6815 C   0  0  0  0  0  0  0  0  0  0  0  0
    8.1722  -16.1254   21.0329 C   0  0  2  0  0  0  0  0  0  0  0  0
    6.9434  -16.7947   21.3839 N   0  0  0  0  0  0  0  0  0  0  0  0
    8.6285  -15.1997   22.0942 C   0  0  0  0  0  0  0  0  0  0  0  0
    9.7253  -14.6411   21.9976 O   0  0  0  0  0  0  0  0  0  0  0  0
    6.3779  -18.6390   15.1587 C   0  0  0  0  0  0  0  0  0  0  0  0
    7.6924  -11.5078   25.9755 C   0  0  2  0  0  0  0  0  0  0  0  0
    7.1451  -12.8863   26.2570 C   0  0  0  0  0  0  0  0  0  0  0  0
    5.7425  -12.6568   26.8488 C   0  0  0  0  0  0  0  0  0  0  0  0
    7.0170  -13.6532   25.0090 C   0  0  1  0  0  0  0  0  0  0  0  0
    8.2251  -14.2541   24.4020 N   0  0  0  0  0  0  0  0  0  0  0  0
    7.8315  -14.9503   23.2051 C   0  0  0  0  0  0  0  0  0  0  0  0
    9.1678  -14.9434   25.2584 O   0  0  0  0  0  0  0  0  0  0  0  0
    9.7264  -14.4083   26.2819 N   0  0  0  0  0  0  0  0  0  0  0  0
   10.6291  -20.4913   31.2523 C   0  0  0  0  0  0  0  0  0  0  0  0
   11.5730  -20.3681   30.2103 N   0  0  0  0  0  0  0  0  0  0  0  0
   12.6930  -19.7988   30.4502 N   0  0  0  0  0  0  0  0  0  0  0  0
   11.2562  -20.8762   28.9362 C   0  0  0  0  0  0  0  0  0  0  0  0
   10.2963  -20.1517   28.1087 C   0  0  0  0  0  0  0  0  0  0  0  0
   10.9374  -18.9726   27.4558 C   0  0  0  0  0  0  0  0  0  0  0  0
   10.0176  -18.1594   26.6414 C   0  0  1  0  0  0  0  0  0  0  0  0
   10.5368  -16.9641   25.9445 N   0  0  0  0  0  0  0  0  0  0  0  0
    9.5903  -16.2905   25.0780 C   0  0  0  0  0  0  0  0  0  0  0  0
   11.8083  -17.1866   25.2382 O   0  0  0  0  0  0  0  0  0  0  0  0
   11.7965  -17.3015   23.9767 O   0  0  0  0  0  0  0  0  0  0  0  0
  2  1  1  0
  2  3  2  0
  4  2  1  0
  5  4  1  0
  6  5  1  0
  7  6  1  0
  8  7  1  0
  8  9  1  1
 10  8  1  0
 10 11  2  0
 13 12  1  1
 14 13  1  0
 16 15  1  6
 15 13  1  0
 17 16  1  0
 17 10  1  0
 18 16  1  0
 19 18  2  0
 21 20  1  0
 21 22  2  0
 23 21  1  0
 24 23  1  0
 25 24  1  0
 25 26  1  0
 27 26  1  1
 27 28  1  0
 28 18  1  0
 29 31  1  0
 29 27  1  0
 30 29  2  0
M  END
$$$$
