RLR.pdb
     RDKit          3D

 31 30  0  0  1  0  0  0  0  0999 V2000
   10.1796  -18.1676   18.7783 N   0  0  0  0  0  0  0  0  0  0  0  0
    9.2320  -19.1688   19.1885 C   0  0  0  0  0  0  0  0  0  0  0  0
    9.4840  -20.4037   18.9751 N   0  0  0  0  0  0  0  0  0  0  0  0
    8.0170  -18.8263   19.8270 N   0  0  0  0  0  0  0  0  0  0  0  0
    7.0414  -17.9170   19.2653 C   0  0  0  0  0  0  0  0  0  0  0  0
    7.3327  -16.4902   19.5944 C   0  0  0  0  0  0  0  0  0  0  0  0
    7.3147  -16.1439   21.0429 C   0  0  0  0  0  0  0  0  0  0  0  0
    7.4578  -14.6768   21.3479 C   0  0  2  0  0  0  0  0  0  0  0  0
    8.0648  -13.9161   20.2831 N   0  0  0  0  0  0  0  0  0  0  0  0
    8.1197  -14.4426   22.6512 C   0  0  0  0  0  0  0  0  0  0  0  0
    9.3515  -14.4642   22.7315 O   0  0  0  0  0  0  0  0  0  0  0  0
    8.8278  -21.1506   19.2883 C   0  0  0  0  0  0  0  0  0  0  0  0
    5.6640  -11.5062   26.5869 C   0  0  2  0  0  0  0  0  0  0  0  0
    6.7499  -12.0981   25.7213 C   0  0  0  0  0  0  0  0  0  0  0  0
    8.0372  -11.3481   26.1095 C   0  0  0  0  0  0  0  0  0  0  0  0
    6.9223  -13.5278   26.0187 C   0  0  2  0  0  0  0  0  0  0  0  0
    7.8038  -14.3448   25.1559 N   0  0  0  0  0  0  0  0  0  0  0  0
    7.3659  -14.1969   23.7926 C   0  0  0  0  0  0  0  0  0  0  0  0
    8.1388  -15.6902   25.5743 O   0  0  0  0  0  0  0  0  0  0  0  0
    7.5993  -16.7458   25.0838 N   0  0  0  0  0  0  0  0  0  0  0  0
   14.2250  -20.7004   24.4138 C   0  0  0  0  0  0  0  0  0  0  0  0
   13.1492  -21.0127   23.5553 N   0  0  0  0  0  0  0  0  0  0  0  0
   13.1258  -22.1537   22.9777 N   0  0  0  0  0  0  0  0  0  0  0  0
   12.1312  -20.0603   23.3596 C   0  0  0  0  0  0  0  0  0  0  0  0
   12.2981  -18.7255   23.9268 C   0  0  0  0  0  0  0  0  0  0  0  0
   11.5781  -18.6049   25.2285 C   0  0  0  0  0  0  0  0  0  0  0  0
   10.6491  -17.4637   25.3010 C   0  0  1  0  0  0  0  0  0  0  0  0
    9.9115  -17.2133   26.5569 N   0  0  0  0  0  0  0  0  0  0  0  0
    9.1015  -16.0116   26.5722 C   0  0  0  0  0  0  0  0  0  0  0  0
   10.7462  -17.2829   27.7668 O   0  0  0  0  0  0  0  0  0  0  0  0
   10.8878  -16.2416   28.4741 O   0  0  0  0  0  0  0  0  0  0  0  0
  2  1  1  0
  2  3  2  0
  4  2  1  0
  5  4  1  0
  6  5  1  0
  7  6  1  0
  8  7  1  0
  8  9  1  6
 10  8  1  0
 10 11  2  0
 13 12  1  6
 14 13  1  0
 16 15  1  6
 15 13  1  0
 17 16  1  0
 17 10  1  0
 18 16  1  0
 19 18  2  0
 21 20  1  0
 21 22  2  0
 23 21  1  0
 24 23  1  0
 25 24  1  0
 25 26  1  0
 27 26  1  6
 27 28  1  0
 28 18  1  0
 29 31  1  0
 29 27  1  0
 30 29  2  0
M  END
$$$$
