RLR.pdb
     RDKit          3D

 31 30  0  0  1  0  0  0  0  0999 V2000
    9.8622  -17.5817   10.6137 N   0  0  0  0  0  0  0  0  0  0  0  0
    9.4078  -17.7476   11.9682 C   0  0  0  0  0  0  0  0  0  0  0  0
    9.0098  -18.8955   12.3658 N   0  0  0  0  0  0  0  0  0  0  0  0
    9.3868  -16.6693   12.8835 N   0  0  0  0  0  0  0  0  0  0  0  0
   10.3967  -16.4550   13.8976 C   0  0  0  0  0  0  0  0  0  0  0  0
   10.0146  -17.0377   15.2181 C   0  0  0  0  0  0  0  0  0  0  0  0
   10.9439  -16.7490   16.3456 C   0  0  0  0  0  0  0  0  0  0  0  0
   10.5185  -17.3040   17.6785 C   0  0  2  0  0  0  0  0  0  0  0  0
    9.2092  -17.9094   17.6673 N   0  0  0  0  0  0  0  0  0  0  0  0
   10.6671  -16.3112   18.7665 C   0  0  0  0  0  0  0  0  0  0  0  0
   11.7568  -15.7639   18.9593 O   0  0  0  0  0  0  0  0  0  0  0  0
    8.7536  -19.0627   13.3623 C   0  0  0  0  0  0  0  0  0  0  0  0
    6.4228  -13.2329   19.6700 C   0  0  1  0  0  0  0  0  0  0  0  0
    7.8421  -13.7163   19.4943 C   0  0  0  0  0  0  0  0  0  0  0  0
    8.6745  -12.4507   19.2192 C   0  0  0  0  0  0  0  0  0  0  0  0
    8.3272  -14.3472   20.7307 C   0  0  2  0  0  0  0  0  0  0  0  0
    9.6040  -15.0943   20.7087 N   0  0  0  0  0  0  0  0  0  0  0  0
    9.5872  -15.9858   19.5785 C   0  0  0  0  0  0  0  0  0  0  0  0
   10.1114  -15.6468   21.9475 O   0  0  0  0  0  0  0  0  0  0  0  0
    9.5379  -16.5946   22.5946 N   0  0  0  0  0  0  0  0  0  0  0  0
   10.8068  -19.9324   27.9922 C   0  0  0  0  0  0  0  0  0  0  0  0
   11.9497  -20.4895   27.3797 N   0  0  0  0  0  0  0  0  0  0  0  0
   12.8060  -21.1044   28.1042 N   0  0  0  0  0  0  0  0  0  0  0  0
   12.1151  -20.3541   25.9883 C   0  0  0  0  0  0  0  0  0  0  0  0
   11.2885  -19.3868   25.2725 C   0  0  0  0  0  0  0  0  0  0  0  0
   12.0904  -18.1946   24.8688 C   0  0  0  0  0  0  0  0  0  0  0  0
   11.3510  -17.2196   24.0483 C   0  0  1  0  0  0  0  0  0  0  0  0
   12.0613  -16.0359   23.5206 N   0  0  0  0  0  0  0  0  0  0  0  0
   11.3011  -15.2154   22.5990 C   0  0  0  0  0  0  0  0  0  0  0  0
   13.3907  -16.3328   22.9641 O   0  0  0  0  0  0  0  0  0  0  0  0
   14.4049  -16.2391   23.7172 O   0  0  0  0  0  0  0  0  0  0  0  0
  2  1  1  0
  2  3  2  0
  4  2  1  0
  5  4  1  0
  6  5  1  0
  7  6  1  0
  8  7  1  0
  8  9  1  6
 10  8  1  0
 10 11  2  0
 13 12  1  6
 14 13  1  0
 16 15  1  6
 15 13  1  0
 17 16  1  0
 17 10  1  0
 18 16  1  0
 19 18  2  0
 21 20  1  0
 21 22  2  0
 23 21  1  0
 24 23  1  0
 25 24  1  0
 25 26  1  0
 27 26  1  1
 27 28  1  0
 28 18  1  0
 29 31  1  0
 29 27  1  0
 30 29  2  0
M  END
$$$$
