RLR.pdb
     RDKit          3D

 31 30  0  0  1  0  0  0  0  0999 V2000
   17.1087  -15.3301   19.2914 N   0  0  0  0  0  0  0  0  0  0  0  0
   16.3334  -14.5629   18.3540 C   0  0  0  0  0  0  0  0  0  0  0  0
   16.7375  -14.4432   17.1471 N   0  0  0  0  0  0  0  0  0  0  0  0
   15.1255  -13.9296   18.7294 N   0  0  0  0  0  0  0  0  0  0  0  0
   13.8189  -14.3562   18.2768 C   0  0  0  0  0  0  0  0  0  0  0  0
   13.4315  -15.6907   18.8229 C   0  0  0  0  0  0  0  0  0  0  0  0
   12.1371  -16.2396   18.3314 C   0  0  0  0  0  0  0  0  0  0  0  0
   11.3231  -16.9712   19.3647 C   0  0  2  0  0  0  0  0  0  0  0  0
   10.2712  -17.7867   18.8086 N   0  0  0  0  0  0  0  0  0  0  0  0
   10.8276  -16.0647   20.4251 C   0  0  0  0  0  0  0  0  0  0  0  0
   11.6218  -15.3666   21.0624 O   0  0  0  0  0  0  0  0  0  0  0  0
   16.1733  -13.9289   16.4373 C   0  0  0  0  0  0  0  0  0  0  0  0
    6.7249  -13.1620   19.0383 C   0  0  1  0  0  0  0  0  0  0  0  0
    8.0026  -13.7026   19.6335 C   0  0  0  0  0  0  0  0  0  0  0  0
    8.8728  -12.4667   19.9259 C   0  0  0  0  0  0  0  0  0  0  0  0
    7.7257  -14.4013   20.8973 C   0  0  2  0  0  0  0  0  0  0  0  0
    8.8364  -15.0643   21.6155 N   0  0  0  0  0  0  0  0  0  0  0  0
    9.4701  -15.9898   20.7132 C   0  0  0  0  0  0  0  0  0  0  0  0
    8.6092  -15.5438   22.9630 O   0  0  0  0  0  0  0  0  0  0  0  0
    8.0796  -14.8362   23.8931 N   0  0  0  0  0  0  0  0  0  0  0  0
   14.5612  -21.3036   22.2938 C   0  0  0  0  0  0  0  0  0  0  0  0
   13.9954  -20.4044   21.3647 N   0  0  0  0  0  0  0  0  0  0  0  0
   14.6108  -20.1757   20.2670 N   0  0  0  0  0  0  0  0  0  0  0  0
   12.7689  -19.7851   21.6713 C   0  0  0  0  0  0  0  0  0  0  0  0
   12.6434  -19.0585   22.9313 C   0  0  0  0  0  0  0  0  0  0  0  0
   11.2843  -18.4571   23.0675 C   0  0  0  0  0  0  0  0  0  0  0  0
   11.0774  -17.7107   24.3208 C   0  0  2  0  0  0  0  0  0  0  0  0
    9.7539  -17.1123   24.5933 N   0  0  0  0  0  0  0  0  0  0  0  0
    8.9388  -16.8494   23.4241 C   0  0  0  0  0  0  0  0  0  0  0  0
    9.7995  -15.9257   25.4623 O   0  0  0  0  0  0  0  0  0  0  0  0
    9.3248  -14.8328   25.0323 O   0  0  0  0  0  0  0  0  0  0  0  0
  2  1  1  0
  2  3  2  0
  4  2  1  0
  5  4  1  0
  6  5  1  0
  7  6  1  0
  8  7  1  0
  8  9  1  6
 10  8  1  0
 10 11  2  0
 13 12  1  6
 14 13  1  0
 16 15  1  6
 15 13  1  0
 17 16  1  0
 17 10  1  0
 18 16  1  0
 19 18  2  0
 21 20  1  0
 21 22  2  0
 23 21  1  0
 24 23  1  0
 25 24  1  0
 25 26  1  0
 27 26  1  1
 27 28  1  0
 28 18  1  0
 29 31  1  0
 29 27  1  0
 30 29  2  0
M  END
$$$$
