RLR.pdb
     RDKit          3D

 31 30  0  0  1  0  0  0  0  0999 V2000
    8.6348  -12.6526   15.3054 N   0  0  0  0  0  0  0  0  0  0  0  0
    8.6654  -14.0225   15.7424 C   0  0  0  0  0  0  0  0  0  0  0  0
    7.7282  -14.8189   15.3937 N   0  0  0  0  0  0  0  0  0  0  0  0
    9.7106  -14.5214   16.5547 N   0  0  0  0  0  0  0  0  0  0  0  0
    9.9236  -14.1196   17.9285 C   0  0  0  0  0  0  0  0  0  0  0  0
    9.1431  -14.9480   18.8947 C   0  0  0  0  0  0  0  0  0  0  0  0
    9.7354  -15.0857   20.2544 C   0  0  0  0  0  0  0  0  0  0  0  0
    8.9114  -15.8835   21.2292 C   0  0  2  0  0  0  0  0  0  0  0  0
    7.5265  -16.0187   20.8488 N   0  0  0  0  0  0  0  0  0  0  0  0
    9.0654  -15.3937   22.6177 C   0  0  0  0  0  0  0  0  0  0  0  0
   10.1907  -15.2866   23.1141 O   0  0  0  0  0  0  0  0  0  0  0  0
    7.7781  -15.8378   15.6079 C   0  0  0  0  0  0  0  0  0  0  0  0
    7.6437  -11.8215   26.4173 C   0  0  2  0  0  0  0  0  0  0  0  0
    6.6738  -12.9596   26.2096 C   0  0  0  0  0  0  0  0  0  0  0  0
    5.2756  -12.3157   26.2365 C   0  0  0  0  0  0  0  0  0  0  0  0
    6.8869  -13.5832   24.8951 C   0  0  1  0  0  0  0  0  0  0  0  0
    7.9495  -14.6012   24.7413 N   0  0  0  0  0  0  0  0  0  0  0  0
    7.9508  -15.0507   23.3738 C   0  0  0  0  0  0  0  0  0  0  0  0
    8.0806  -15.6319   25.7501 O   0  0  0  0  0  0  0  0  0  0  0  0
    7.0840  -16.1932   26.3314 N   0  0  0  0  0  0  0  0  0  0  0  0
   12.5115  -22.1526   23.8604 C   0  0  0  0  0  0  0  0  0  0  0  0
   13.0031  -20.8764   23.5120 N   0  0  0  0  0  0  0  0  0  0  0  0
   13.7836  -20.7643   22.5049 N   0  0  0  0  0  0  0  0  0  0  0  0
   12.6198  -19.7619   24.2820 C   0  0  0  0  0  0  0  0  0  0  0  0
   11.3924  -19.8388   25.0686 C   0  0  0  0  0  0  0  0  0  0  0  0
   11.1577  -18.5692   25.8171 C   0  0  0  0  0  0  0  0  0  0  0  0
    9.8879  -18.5345   26.5635 C   0  0  1  0  0  0  0  0  0  0  0  0
    9.4315  -17.2573   27.1506 N   0  0  0  0  0  0  0  0  0  0  0  0
    9.3194  -16.1515   26.2205 C   0  0  0  0  0  0  0  0  0  0  0  0
   10.1820  -16.8451   28.3473 O   0  0  0  0  0  0  0  0  0  0  0  0
   10.3714  -17.6893   29.2726 O   0  0  0  0  0  0  0  0  0  0  0  0
  2  1  1  0
  2  3  2  0
  4  2  1  0
  5  4  1  0
  6  5  1  0
  7  6  1  0
  8  7  1  0
  8  9  1  6
 10  8  1  0
 10 11  2  0
 13 12  1  1
 14 13  1  0
 16 15  1  6
 15 13  1  0
 17 16  1  0
 17 10  1  0
 18 16  1  0
 19 18  2  0
 21 20  1  0
 21 22  2  0
 23 21  1  0
 24 23  1  0
 25 24  1  0
 25 26  1  0
 27 26  1  6
 27 28  1  0
 28 18  1  0
 29 31  1  0
 29 27  1  0
 30 29  2  0
M  END
$$$$
