RLR.pdb
     RDKit          3D

 31 30  0  0  1  0  0  0  0  0999 V2000
    8.9383  -14.6392   15.2813 N   0  0  0  0  0  0  0  0  0  0  0  0
    8.3821  -13.7760   16.2883 C   0  0  0  0  0  0  0  0  0  0  0  0
    8.5035  -12.5087   16.1725 N   0  0  0  0  0  0  0  0  0  0  0  0
    7.6983  -14.2906   17.4146 N   0  0  0  0  0  0  0  0  0  0  0  0
    8.3264  -15.1003   18.4364 C   0  0  0  0  0  0  0  0  0  0  0  0
    8.9260  -14.2789   19.5295 C   0  0  0  0  0  0  0  0  0  0  0  0
    8.0767  -14.0928   20.7388 C   0  0  0  0  0  0  0  0  0  0  0  0
    8.0000  -15.2870   21.6520 C   0  0  2  0  0  0  0  0  0  0  0  0
    6.6879  -15.8819   21.7254 N   0  0  0  0  0  0  0  0  0  0  0  0
    8.5597  -14.9984   22.9918 C   0  0  0  0  0  0  0  0  0  0  0  0
    9.7462  -14.6782   23.1101 O   0  0  0  0  0  0  0  0  0  0  0  0
    8.0847  -11.8601   16.8730 C   0  0  0  0  0  0  0  0  0  0  0  0
    5.3691  -12.3117   26.0439 C   0  0  1  0  0  0  0  0  0  0  0  0
    6.5953  -12.8544   25.3505 C   0  0  0  0  0  0  0  0  0  0  0  0
    7.5981  -11.6867   25.3187 C   0  0  0  0  0  0  0  0  0  0  0  0
    7.1761  -13.9614   26.1247 C   0  0  2  0  0  0  0  0  0  0  0  0
    8.1727  -14.8475   25.4838 N   0  0  0  0  0  0  0  0  0  0  0  0
    7.7600  -15.0843   24.1252 C   0  0  0  0  0  0  0  0  0  0  0  0
    8.6519  -16.0027   26.2139 O   0  0  0  0  0  0  0  0  0  0  0  0
    7.9135  -17.0018   26.5343 N   0  0  0  0  0  0  0  0  0  0  0  0
   11.0476  -19.8402   22.2686 C   0  0  0  0  0  0  0  0  0  0  0  0
   11.7075  -20.9376   22.8619 N   0  0  0  0  0  0  0  0  0  0  0  0
   11.3456  -22.1238   22.5491 N   0  0  0  0  0  0  0  0  0  0  0  0
   12.7466  -20.6962   23.7805 C   0  0  0  0  0  0  0  0  0  0  0  0
   12.8401  -19.3810   24.4073 C   0  0  0  0  0  0  0  0  0  0  0  0
   11.7030  -19.1557   25.3472 C   0  0  0  0  0  0  0  0  0  0  0  0
   11.7046  -17.8299   25.9897 C   0  0  2  0  0  0  0  0  0  0  0  0
   10.6005  -17.4706   26.9041 N   0  0  0  0  0  0  0  0  0  0  0  0
    9.9909  -16.1779   26.6636 C   0  0  0  0  0  0  0  0  0  0  0  0
   10.9289  -17.6239   28.3302 O   0  0  0  0  0  0  0  0  0  0  0  0
   11.4534  -18.7072   28.7251 O   0  0  0  0  0  0  0  0  0  0  0  0
  2  1  1  0
  2  3  2  0
  4  2  1  0
  5  4  1  0
  6  5  1  0
  7  6  1  0
  8  7  1  0
  8  9  1  1
 10  8  1  0
 10 11  2  0
 13 12  1  6
 14 13  1  0
 16 15  1  6
 15 13  1  0
 17 16  1  0
 17 10  1  0
 18 16  1  0
 19 18  2  0
 21 20  1  0
 21 22  2  0
 23 21  1  0
 24 23  1  0
 25 24  1  0
 25 26  1  0
 27 26  1  6
 27 28  1  0
 28 18  1  0
 29 31  1  0
 29 27  1  0
 30 29  2  0
M  END
$$$$
