RLR.pdb
     RDKit          3D

 31 30  0  0  1  0  0  0  0  0999 V2000
    7.5027  -14.4996   15.8021 N   0  0  0  0  0  0  0  0  0  0  0  0
    8.5127  -13.6874   16.4255 C   0  0  0  0  0  0  0  0  0  0  0  0
    9.6203  -13.4808   15.8215 N   0  0  0  0  0  0  0  0  0  0  0  0
    8.3173  -13.1043   17.6995 N   0  0  0  0  0  0  0  0  0  0  0  0
    7.2841  -13.5189   18.6241 C   0  0  0  0  0  0  0  0  0  0  0  0
    7.4888  -14.9105   19.1248 C   0  0  0  0  0  0  0  0  0  0  0  0
    8.7602  -15.1519   19.8621 C   0  0  0  0  0  0  0  0  0  0  0  0
    8.6129  -15.9162   21.1505 C   0  0  2  0  0  0  0  0  0  0  0  0
    7.3052  -16.4951   21.3392 N   0  0  0  0  0  0  0  0  0  0  0  0
    9.0471  -15.1205   22.3210 C   0  0  0  0  0  0  0  0  0  0  0  0
   10.1543  -14.5743   22.3207 O   0  0  0  0  0  0  0  0  0  0  0  0
   10.3585  -12.8751   16.2397 C   0  0  0  0  0  0  0  0  0  0  0  0
    7.8773  -11.3202   25.8754 C   0  0  2  0  0  0  0  0  0  0  0  0
    7.0943  -12.5935   26.0868 C   0  0  0  0  0  0  0  0  0  0  0  0
    5.6356  -12.1472   26.2945 C   0  0  0  0  0  0  0  0  0  0  0  0
    7.1670  -13.4462   24.8911 C   0  0  1  0  0  0  0  0  0  0  0  0
    8.4410  -14.1223   24.5613 N   0  0  0  0  0  0  0  0  0  0  0  0
    8.2175  -14.9802   23.4271 C   0  0  0  0  0  0  0  0  0  0  0  0
    9.2333  -14.6824   25.6365 O   0  0  0  0  0  0  0  0  0  0  0  0
   10.4613  -14.3793   25.8515 N   0  0  0  0  0  0  0  0  0  0  0  0
    6.8876  -22.4084   28.5423 C   0  0  0  0  0  0  0  0  0  0  0  0
    8.1603  -22.5339   27.9454 N   0  0  0  0  0  0  0  0  0  0  0  0
    8.9276  -23.4892   28.3123 N   0  0  0  0  0  0  0  0  0  0  0  0
    8.5495  -21.6049   26.9619 C   0  0  0  0  0  0  0  0  0  0  0  0
    8.1250  -20.2149   27.0999 C   0  0  0  0  0  0  0  0  0  0  0  0
    8.5782  -19.4002   25.9344 C   0  0  0  0  0  0  0  0  0  0  0  0
    8.2127  -17.9753   26.0155 C   0  0  1  0  0  0  0  0  0  0  0  0
    9.1663  -17.0196   26.6168 N   0  0  0  0  0  0  0  0  0  0  0  0
    8.7558  -15.6300   26.5851 C   0  0  0  0  0  0  0  0  0  0  0  0
   10.5453  -17.1571   26.1223 O   0  0  0  0  0  0  0  0  0  0  0  0
   10.7436  -17.2346   24.8736 O   0  0  0  0  0  0  0  0  0  0  0  0
  2  1  1  0
  2  3  2  0
  4  2  1  0
  5  4  1  0
  6  5  1  0
  7  6  1  0
  8  7  1  0
  8  9  1  1
 10  8  1  0
 10 11  2  0
 13 12  1  1
 14 13  1  0
 16 15  1  6
 15 13  1  0
 17 16  1  0
 17 10  1  0
 18 16  1  0
 19 18  2  0
 21 20  1  0
 21 22  2  0
 23 21  1  0
 24 23  1  0
 25 24  1  0
 25 26  1  0
 27 26  1  1
 27 28  1  0
 28 18  1  0
 29 31  1  0
 29 27  1  0
 30 29  2  0
M  END
$$$$
