RLR.pdb
     RDKit          3D

 31 30  0  0  1  0  0  0  0  0999 V2000
    9.4846  -13.2623   15.7408 N   0  0  0  0  0  0  0  0  0  0  0  0
    8.3662  -13.4403   16.6274 C   0  0  0  0  0  0  0  0  0  0  0  0
    7.5786  -12.4599   16.8570 N   0  0  0  0  0  0  0  0  0  0  0  0
    8.1078  -14.6788   17.2601 N   0  0  0  0  0  0  0  0  0  0  0  0
    8.8916  -15.1996   18.3594 C   0  0  0  0  0  0  0  0  0  0  0  0
    8.6243  -14.4844   19.6424 C   0  0  0  0  0  0  0  0  0  0  0  0
    9.3894  -14.9694   20.8247 C   0  0  0  0  0  0  0  0  0  0  0  0
    8.6241  -15.8792   21.7479 C   0  0  2  0  0  0  0  0  0  0  0  0
    7.2071  -15.9233   21.4811 N   0  0  0  0  0  0  0  0  0  0  0  0
    8.9173  -15.5998   23.1718 C   0  0  0  0  0  0  0  0  0  0  0  0
   10.0844  -15.4450   23.5437 O   0  0  0  0  0  0  0  0  0  0  0  0
    6.7702  -12.5578   17.5078 C   0  0  0  0  0  0  0  0  0  0  0  0
    5.7358  -12.1632   25.5968 C   0  0  1  0  0  0  0  0  0  0  0  0
    6.9461  -12.9568   25.1676 C   0  0  0  0  0  0  0  0  0  0  0  0
    8.1606  -12.1003   25.5695 C   0  0  0  0  0  0  0  0  0  0  0  0
    7.0044  -14.2363   25.8897 C   0  0  2  0  0  0  0  0  0  0  0  0
    8.0254  -15.2366   25.5075 N   0  0  0  0  0  0  0  0  0  0  0  0
    7.8876  -15.5089   24.1007 C   0  0  0  0  0  0  0  0  0  0  0  0
    8.2291  -16.3882   26.3617 O   0  0  0  0  0  0  0  0  0  0  0  0
    7.3827  -17.3443   26.4852 N   0  0  0  0  0  0  0  0  0  0  0  0
   15.4372  -19.7589   24.8583 C   0  0  0  0  0  0  0  0  0  0  0  0
   14.6700  -20.9421   24.9167 N   0  0  0  0  0  0  0  0  0  0  0  0
   15.2360  -22.0627   24.6720 N   0  0  0  0  0  0  0  0  0  0  0  0
   13.3034  -20.8562   25.2437 C   0  0  0  0  0  0  0  0  0  0  0  0
   12.6908  -19.5367   25.3654 C   0  0  0  0  0  0  0  0  0  0  0  0
   11.2647  -19.6475   25.7912 C   0  0  0  0  0  0  0  0  0  0  0  0
   10.5562  -18.3582   25.8695 C   0  0  2  0  0  0  0  0  0  0  0  0
   10.1281  -17.8499   27.1895 N   0  0  0  0  0  0  0  0  0  0  0  0
    9.3840  -16.6065   27.1645 C   0  0  0  0  0  0  0  0  0  0  0  0
   11.2098  -17.7788   28.1845 O   0  0  0  0  0  0  0  0  0  0  0  0
   11.8495  -16.6935   28.3175 O   0  0  0  0  0  0  0  0  0  0  0  0
  2  1  1  0
  2  3  2  0
  4  2  1  0
  5  4  1  0
  6  5  1  0
  7  6  1  0
  8  7  1  0
  8  9  1  1
 10  8  1  0
 10 11  2  0
 13 12  1  6
 14 13  1  0
 16 15  1  6
 15 13  1  0
 17 16  1  0
 17 10  1  0
 18 16  1  0
 19 18  2  0
 21 20  1  0
 21 22  2  0
 23 21  1  0
 24 23  1  0
 25 24  1  0
 25 26  1  0
 27 26  1  6
 27 28  1  0
 28 18  1  0
 29 31  1  0
 29 27  1  0
 30 29  2  0
M  END
$$$$
