RLR.pdb
     RDKit          3D

 31 30  0  0  1  0  0  0  0  0999 V2000
    8.2598  -14.5902   15.7374 N   0  0  0  0  0  0  0  0  0  0  0  0
    8.8393  -15.8099   16.2324 C   0  0  0  0  0  0  0  0  0  0  0  0
    9.9184  -16.2548   15.7111 N   0  0  0  0  0  0  0  0  0  0  0  0
    8.2462  -16.5407   17.2885 N   0  0  0  0  0  0  0  0  0  0  0  0
    6.9948  -16.1750   17.9164 C   0  0  0  0  0  0  0  0  0  0  0  0
    7.0884  -14.8926   18.6753 C   0  0  0  0  0  0  0  0  0  0  0  0
    7.7796  -14.9696   19.9924 C   0  0  0  0  0  0  0  0  0  0  0  0
    7.8505  -13.6711   20.7503 C   0  0  2  0  0  0  0  0  0  0  0  0
    8.5303  -12.6165   20.0386 N   0  0  0  0  0  0  0  0  0  0  0  0
    8.3822  -13.8556   22.1196 C   0  0  0  0  0  0  0  0  0  0  0  0
    9.5938  -14.0141   22.2960 O   0  0  0  0  0  0  0  0  0  0  0  0
   10.4017  -17.0916   16.1019 C   0  0  0  0  0  0  0  0  0  0  0  0
    5.8163  -11.5522   26.3906 C   0  0  1  0  0  0  0  0  0  0  0  0
    6.9154  -12.0570   25.4871 C   0  0  0  0  0  0  0  0  0  0  0  0
    8.2248  -11.5304   26.1019 C   0  0  0  0  0  0  0  0  0  0  0  0
    6.9457  -13.5271   25.4863 C   0  0  2  0  0  0  0  0  0  0  0  0
    7.8632  -14.2311   24.5635 N   0  0  0  0  0  0  0  0  0  0  0  0
    7.5279  -13.8523   23.2158 C   0  0  0  0  0  0  0  0  0  0  0  0
    8.1296  -15.6377   24.7817 O   0  0  0  0  0  0  0  0  0  0  0  0
    7.4370  -16.5847   24.2623 N   0  0  0  0  0  0  0  0  0  0  0  0
   13.7574  -20.3150   21.1853 C   0  0  0  0  0  0  0  0  0  0  0  0
   13.1170  -21.2981   21.9698 N   0  0  0  0  0  0  0  0  0  0  0  0
   13.3041  -22.5329   21.6937 N   0  0  0  0  0  0  0  0  0  0  0  0
   12.2910  -20.8924   23.0352 C   0  0  0  0  0  0  0  0  0  0  0  0
   11.8166  -19.5122   23.0713 C   0  0  0  0  0  0  0  0  0  0  0  0
   11.0153  -19.2553   24.3039 C   0  0  0  0  0  0  0  0  0  0  0  0
   10.4811  -17.8858   24.4020 C   0  0  1  0  0  0  0  0  0  0  0  0
    9.6364  -17.5228   25.5591 N   0  0  0  0  0  0  0  0  0  0  0  0
    9.1848  -16.1460   25.5904 C   0  0  0  0  0  0  0  0  0  0  0  0
   10.2065  -17.9038   26.8610 O   0  0  0  0  0  0  0  0  0  0  0  0
   10.5966  -19.0966   27.0334 O   0  0  0  0  0  0  0  0  0  0  0  0
  2  1  1  0
  2  3  2  0
  4  2  1  0
  5  4  1  0
  6  5  1  0
  7  6  1  0
  8  7  1  0
  8  9  1  6
 10  8  1  0
 10 11  2  0
 13 12  1  6
 14 13  1  0
 16 15  1  1
 15 13  1  0
 17 16  1  0
 17 10  1  0
 18 16  1  0
 19 18  2  0
 21 20  1  0
 21 22  2  0
 23 21  1  0
 24 23  1  0
 25 24  1  0
 25 26  1  0
 27 26  1  6
 27 28  1  0
 28 18  1  0
 29 31  1  0
 29 27  1  0
 30 29  2  0
M  END
$$$$
