RLR.pdb
     RDKit          3D

 31 30  0  0  1  0  0  0  0  0999 V2000
    7.9188  -12.6429   15.7208 N   0  0  0  0  0  0  0  0  0  0  0  0
    8.7766  -13.6513   16.2830 C   0  0  0  0  0  0  0  0  0  0  0  0
    9.8559  -13.9727   15.6781 N   0  0  0  0  0  0  0  0  0  0  0  0
    8.4600  -14.3056   17.4965 N   0  0  0  0  0  0  0  0  0  0  0  0
    7.1451  -14.2882   18.1007 C   0  0  0  0  0  0  0  0  0  0  0  0
    7.0791  -15.1009   19.3515 C   0  0  0  0  0  0  0  0  0  0  0  0
    8.1542  -14.8410   20.3490 C   0  0  0  0  0  0  0  0  0  0  0  0
    8.1669  -15.7760   21.5285 C   0  0  2  0  0  0  0  0  0  0  0  0
    6.8635  -16.2786   21.8886 N   0  0  0  0  0  0  0  0  0  0  0  0
    8.8841  -15.1982   22.6876 C   0  0  0  0  0  0  0  0  0  0  0  0
   10.0439  -14.7953   22.5585 O   0  0  0  0  0  0  0  0  0  0  0  0
   10.4467  -14.7640   16.0118 C   0  0  0  0  0  0  0  0  0  0  0  0
    5.7421  -12.8055   26.4771 C   0  0  1  0  0  0  0  0  0  0  0  0
    6.8532  -13.0724   25.4906 C   0  0  0  0  0  0  0  0  0  0  0  0
    7.6161  -11.7412   25.3635 C   0  0  0  0  0  0  0  0  0  0  0  0
    7.7679  -14.0989   26.0119 C   0  0  2  0  0  0  0  0  0  0  0  0
    8.8521  -14.6095   25.1442 N   0  0  0  0  0  0  0  0  0  0  0  0
    8.2628  -15.1032   23.9271 C   0  0  0  0  0  0  0  0  0  0  0  0
    9.8861  -15.4360   25.7316 O   0  0  0  0  0  0  0  0  0  0  0  0
   10.4310  -15.1977   26.8684 N   0  0  0  0  0  0  0  0  0  0  0  0
   10.8206  -21.8658   30.9031 C   0  0  0  0  0  0  0  0  0  0  0  0
   10.1842  -20.6065   30.8729 N   0  0  0  0  0  0  0  0  0  0  0  0
    9.1315  -20.4249   31.5764 N   0  0  0  0  0  0  0  0  0  0  0  0
   10.7262  -19.5849   30.0702 C   0  0  0  0  0  0  0  0  0  0  0  0
   10.6819  -19.7326   28.6185 C   0  0  0  0  0  0  0  0  0  0  0  0
   11.1605  -18.4920   27.9409 C   0  0  0  0  0  0  0  0  0  0  0  0
   11.1400  -18.5616   26.4694 C   0  0  2  0  0  0  0  0  0  0  0  0
   11.5256  -17.3694   25.6858 N   0  0  0  0  0  0  0  0  0  0  0  0
   10.4241  -16.6085   25.1305 C   0  0  0  0  0  0  0  0  0  0  0  0
   12.5380  -17.6333   24.6512 O   0  0  0  0  0  0  0  0  0  0  0  0
   13.6134  -18.2160   24.9809 O   0  0  0  0  0  0  0  0  0  0  0  0
  2  1  1  0
  2  3  2  0
  4  2  1  0
  5  4  1  0
  6  5  1  0
  7  6  1  0
  8  7  1  0
  8  9  1  1
 10  8  1  0
 10 11  2  0
 13 12  1  6
 14 13  1  0
 16 15  1  6
 15 13  1  0
 17 16  1  0
 17 10  1  0
 18 16  1  0
 19 18  2  0
 21 20  1  0
 21 22  2  0
 23 21  1  0
 24 23  1  0
 25 24  1  0
 25 26  1  0
 27 26  1  1
 27 28  1  0
 28 18  1  0
 29 31  1  0
 29 27  1  0
 30 29  2  0
M  END
$$$$
