RLR.pdb
     RDKit          3D

 31 30  0  0  1  0  0  0  0  0999 V2000
    8.7078  -15.1221   16.7736 N   0  0  0  0  0  0  0  0  0  0  0  0
    8.3118  -13.8606   16.2076 C   0  0  0  0  0  0  0  0  0  0  0  0
    8.3438  -13.6980   14.9400 N   0  0  0  0  0  0  0  0  0  0  0  0
    7.8840  -12.7829   17.0178 N   0  0  0  0  0  0  0  0  0  0  0  0
    7.9673  -12.7799   18.4626 C   0  0  0  0  0  0  0  0  0  0  0  0
    7.0496  -13.7760   19.0909 C   0  0  0  0  0  0  0  0  0  0  0  0
    7.0679  -13.8231   20.5794 C   0  0  0  0  0  0  0  0  0  0  0  0
    7.6199  -15.0934   21.1688 C   0  0  2  0  0  0  0  0  0  0  0  0
    6.6434  -16.1465   21.3038 N   0  0  0  0  0  0  0  0  0  0  0  0
    8.3555  -14.8468   22.4297 C   0  0  0  0  0  0  0  0  0  0  0  0
    9.5491  -14.5331   22.3977 O   0  0  0  0  0  0  0  0  0  0  0  0
    8.1276  -12.7740   14.5087 C   0  0  0  0  0  0  0  0  0  0  0  0
    5.4375  -13.2646   26.5776 C   0  0  1  0  0  0  0  0  0  0  0  0
    6.6600  -13.3402   25.6951 C   0  0  0  0  0  0  0  0  0  0  0  0
    7.5208  -12.1243   26.0832 C   0  0  0  0  0  0  0  0  0  0  0  0
    7.4181  -14.5695   25.9711 C   0  0  2  0  0  0  0  0  0  0  0  0
    8.3453  -15.0934   24.9440 N   0  0  0  0  0  0  0  0  0  0  0  0
    7.7138  -14.9650   23.6568 C   0  0  0  0  0  0  0  0  0  0  0  0
    9.0308  -16.3441   25.1948 O   0  0  0  0  0  0  0  0  0  0  0  0
    8.6433  -17.4762   24.7318 N   0  0  0  0  0  0  0  0  0  0  0  0
   14.7980  -14.6048   20.2455 C   0  0  0  0  0  0  0  0  0  0  0  0
   15.4418  -15.7503   20.7605 N   0  0  0  0  0  0  0  0  0  0  0  0
   16.5510  -16.1246   20.2451 N   0  0  0  0  0  0  0  0  0  0  0  0
   14.8459  -16.4485   21.8279 C   0  0  0  0  0  0  0  0  0  0  0  0
   13.6539  -15.8876   22.4571 C   0  0  0  0  0  0  0  0  0  0  0  0
   13.2097  -16.7308   23.6055 C   0  0  0  0  0  0  0  0  0  0  0  0
   11.9420  -16.2968   24.2181 C   0  0  2  0  0  0  0  0  0  0  0  0
   11.4774  -16.9555   25.4568 N   0  0  0  0  0  0  0  0  0  0  0  0
   10.2122  -16.4771   25.9774 C   0  0  0  0  0  0  0  0  0  0  0  0
   12.4864  -17.0009   26.5268 O   0  0  0  0  0  0  0  0  0  0  0  0
   13.6127  -17.5277   26.2848 O   0  0  0  0  0  0  0  0  0  0  0  0
  2  1  1  0
  2  3  2  0
  4  2  1  0
  5  4  1  0
  6  5  1  0
  7  6  1  0
  8  7  1  0
  8  9  1  1
 10  8  1  0
 10 11  2  0
 13 12  1  6
 14 13  1  0
 16 15  1  6
 15 13  1  0
 17 16  1  0
 17 10  1  0
 18 16  1  0
 19 18  2  0
 21 20  1  0
 21 22  2  0
 23 21  1  0
 24 23  1  0
 25 24  1  0
 25 26  1  0
 27 26  1  6
 27 28  1  0
 28 18  1  0
 29 31  1  0
 29 27  1  0
 30 29  2  0
M  END
$$$$
