RLR.pdb
     RDKit          3D

 31 30  0  0  1  0  0  0  0  0999 V2000
   10.6802  -20.6795   14.8261 N   0  0  0  0  0  0  0  0  0  0  0  0
   12.0925  -20.5614   14.5809 C   0  0  0  0  0  0  0  0  0  0  0  0
   12.6550  -21.3381   13.7356 N   0  0  0  0  0  0  0  0  0  0  0  0
   12.8869  -19.6031   15.2529 N   0  0  0  0  0  0  0  0  0  0  0  0
   12.3792  -18.7081   16.2704 C   0  0  0  0  0  0  0  0  0  0  0  0
   11.3287  -17.7846   15.7481 C   0  0  0  0  0  0  0  0  0  0  0  0
   10.7949  -16.7942   16.7242 C   0  0  0  0  0  0  0  0  0  0  0  0
   10.0017  -17.3840   17.8593 C   0  0  2  0  0  0  0  0  0  0  0  0
    8.6227  -17.6509   17.5305 N   0  0  0  0  0  0  0  0  0  0  0  0
   10.1377  -16.5917   19.1025 C   0  0  0  0  0  0  0  0  0  0  0  0
   11.2436  -16.4643   19.6362 O   0  0  0  0  0  0  0  0  0  0  0  0
   13.6671  -21.2428   13.5052 C   0  0  0  0  0  0  0  0  0  0  0  0
    6.2740  -12.8645   19.7738 C   0  0  1  0  0  0  0  0  0  0  0  0
    7.6174  -13.5491   19.6985 C   0  0  0  0  0  0  0  0  0  0  0  0
    8.6527  -12.4121   19.6258 C   0  0  0  0  0  0  0  0  0  0  0  0
    7.8607  -14.3392   20.9145 C   0  0  2  0  0  0  0  0  0  0  0  0
    8.9891  -15.2957   20.9419 N   0  0  0  0  0  0  0  0  0  0  0  0
    9.0279  -15.9858   19.6792 C   0  0  0  0  0  0  0  0  0  0  0  0
    9.1824  -16.1143   22.1208 O   0  0  0  0  0  0  0  0  0  0  0  0
    8.3774  -17.0451   22.4838 N   0  0  0  0  0  0  0  0  0  0  0  0
   13.7827  -22.1674   20.3971 C   0  0  0  0  0  0  0  0  0  0  0  0
   13.7715  -22.4252   21.7846 N   0  0  0  0  0  0  0  0  0  0  0  0
   14.2618  -23.5247   22.2166 N   0  0  0  0  0  0  0  0  0  0  0  0
   13.2221  -21.4646   22.6548 C   0  0  0  0  0  0  0  0  0  0  0  0
   12.4970  -20.3326   22.0854 C   0  0  0  0  0  0  0  0  0  0  0  0
   12.1292  -19.3472   23.1442 C   0  0  0  0  0  0  0  0  0  0  0  0
   11.4018  -18.1675   22.6445 C   0  0  1  0  0  0  0  0  0  0  0  0
   10.9756  -17.1248   23.6011 N   0  0  0  0  0  0  0  0  0  0  0  0
   10.2804  -15.9945   23.0185 C   0  0  0  0  0  0  0  0  0  0  0  0
   12.0455  -16.6603   24.4981 O   0  0  0  0  0  0  0  0  0  0  0  0
   12.3983  -15.4445   24.4527 O   0  0  0  0  0  0  0  0  0  0  0  0
  2  1  1  0
  2  3  2  0
  4  2  1  0
  5  4  1  0
  6  5  1  0
  7  6  1  0
  8  7  1  0
  8  9  1  6
 10  8  1  0
 10 11  2  0
 13 12  1  6
 14 13  1  0
 16 15  1  6
 15 13  1  0
 17 16  1  0
 17 10  1  0
 18 16  1  0
 19 18  2  0
 21 20  1  0
 21 22  2  0
 23 21  1  0
 24 23  1  0
 25 24  1  0
 25 26  1  0
 27 26  1  1
 27 28  1  0
 28 18  1  0
 29 31  1  0
 29 27  1  0
 30 29  2  0
M  END
$$$$
