RLR.pdb
     RDKit          3D

 31 30  0  0  1  0  0  0  0  0999 V2000
    5.9036  -18.4504   16.3447 N   0  0  0  0  0  0  0  0  0  0  0  0
    7.1256  -18.0833   15.6811 C   0  0  0  0  0  0  0  0  0  0  0  0
    7.0776  -17.4788   14.5557 N   0  0  0  0  0  0  0  0  0  0  0  0
    8.3922  -18.3734   16.2402 N   0  0  0  0  0  0  0  0  0  0  0  0
    8.8423  -17.8673   17.5190 C   0  0  0  0  0  0  0  0  0  0  0  0
    7.7500  -17.8298   18.5362 C   0  0  0  0  0  0  0  0  0  0  0  0
    8.1706  -17.4922   19.9246 C   0  0  0  0  0  0  0  0  0  0  0  0
    8.7653  -16.1197   20.0929 C   0  0  2  0  0  0  0  0  0  0  0  0
    9.9101  -15.8725   19.2507 N   0  0  0  0  0  0  0  0  0  0  0  0
    9.0361  -15.8022   21.5133 C   0  0  0  0  0  0  0  0  0  0  0  0
   10.1348  -16.0710   22.0081 O   0  0  0  0  0  0  0  0  0  0  0  0
    7.9479  -17.2325   14.0376 C   0  0  0  0  0  0  0  0  0  0  0  0
    8.0688  -12.4556   25.7937 C   0  0  2  0  0  0  0  0  0  0  0  0
    6.9813  -13.4353   25.4242 C   0  0  0  0  0  0  0  0  0  0  0  0
    5.6626  -12.6516   25.5559 C   0  0  0  0  0  0  0  0  0  0  0  0
    7.1377  -13.8754   24.0300 C   0  0  1  0  0  0  0  0  0  0  0  0
    8.1686  -14.8846   23.7015 N   0  0  0  0  0  0  0  0  0  0  0  0
    8.0618  -15.2012   22.3013 C   0  0  0  0  0  0  0  0  0  0  0  0
    8.3557  -16.0084   24.5956 O   0  0  0  0  0  0  0  0  0  0  0  0
    7.5874  -16.2651   25.5905 N   0  0  0  0  0  0  0  0  0  0  0  0
   12.7426  -14.6480   30.4591 C   0  0  0  0  0  0  0  0  0  0  0  0
   11.3412  -14.4917   30.4006 N   0  0  0  0  0  0  0  0  0  0  0  0
   10.7260  -14.0140   31.4151 N   0  0  0  0  0  0  0  0  0  0  0  0
   10.6594  -14.8649   29.2268 C   0  0  0  0  0  0  0  0  0  0  0  0
   11.0577  -16.0909   28.5415 C   0  0  0  0  0  0  0  0  0  0  0  0
   10.2003  -16.3360   27.3448 C   0  0  0  0  0  0  0  0  0  0  0  0
   10.5380  -17.5623   26.6013 C   0  0  1  0  0  0  0  0  0  0  0  0
    9.6754  -17.9851   25.4783 N   0  0  0  0  0  0  0  0  0  0  0  0
    9.4042  -16.9646   24.4855 C   0  0  0  0  0  0  0  0  0  0  0  0
    8.4246  -18.6381   25.8956 O   0  0  0  0  0  0  0  0  0  0  0  0
    7.3200  -18.1039   25.5806 O   0  0  0  0  0  0  0  0  0  0  0  0
  2  1  1  0
  2  3  2  0
  4  2  1  0
  5  4  1  0
  6  5  1  0
  7  6  1  0
  8  7  1  0
  8  9  1  6
 10  8  1  0
 10 11  2  0
 13 12  1  1
 14 13  1  0
 16 15  1  6
 15 13  1  0
 17 16  1  0
 17 10  1  0
 18 16  1  0
 19 18  2  0
 21 20  1  0
 21 22  2  0
 23 21  1  0
 24 23  1  0
 25 24  1  0
 25 26  1  0
 27 26  1  6
 27 28  1  0
 28 18  1  0
 29 31  1  0
 29 27  1  0
 30 29  2  0
M  END
$$$$
