RLR.pdb
     RDKit          3D

 31 30  0  0  1  0  0  0  0  0999 V2000
    7.5727  -14.6993   16.1384 N   0  0  0  0  0  0  0  0  0  0  0  0
    8.2496  -13.6370   16.8325 C   0  0  0  0  0  0  0  0  0  0  0  0
    8.2576  -12.4598   16.3340 N   0  0  0  0  0  0  0  0  0  0  0  0
    8.9141  -13.8561   18.0619 N   0  0  0  0  0  0  0  0  0  0  0  0
    9.2978  -15.1644   18.5471 C   0  0  0  0  0  0  0  0  0  0  0  0
    8.4611  -15.6161   19.6982 C   0  0  0  0  0  0  0  0  0  0  0  0
    8.8434  -15.0687   21.0296 C   0  0  0  0  0  0  0  0  0  0  0  0
    8.4603  -15.9282   22.2044 C   0  0  2  0  0  0  0  0  0  0  0  0
    7.2055  -16.6198   22.0367 N   0  0  0  0  0  0  0  0  0  0  0  0
    8.5222  -15.1825   23.4818 C   0  0  0  0  0  0  0  0  0  0  0  0
    8.5128  -13.9479   23.4778 O   0  0  0  0  0  0  0  0  0  0  0  0
    8.6950  -11.6615   16.8419 C   0  0  0  0  0  0  0  0  0  0  0  0
    6.2953  -12.1326   25.7885 C   0  0  1  0  0  0  0  0  0  0  0  0
    7.5188  -12.9721   25.5111 C   0  0  0  0  0  0  0  0  0  0  0  0
    8.6552  -12.3189   26.3187 C   0  0  0  0  0  0  0  0  0  0  0  0
    7.3194  -14.3467   25.9937 C   0  0  2  0  0  0  0  0  0  0  0  0
    8.4653  -15.2825   26.0056 N   0  0  0  0  0  0  0  0  0  0  0  0
    8.5912  -15.8603   24.6931 C   0  0  0  0  0  0  0  0  0  0  0  0
    8.6092  -16.1964   27.1197 O   0  0  0  0  0  0  0  0  0  0  0  0
    8.8958  -15.8266   28.3143 N   0  0  0  0  0  0  0  0  0  0  0  0
   13.9286  -21.5715   23.1930 C   0  0  0  0  0  0  0  0  0  0  0  0
   13.3753  -20.4485   22.5414 N   0  0  0  0  0  0  0  0  0  0  0  0
   14.0267  -19.8999   21.5872 N   0  0  0  0  0  0  0  0  0  0  0  0
   12.1212  -19.9641   22.9591 C   0  0  0  0  0  0  0  0  0  0  0  0
   12.0599  -19.0754   24.1156 C   0  0  0  0  0  0  0  0  0  0  0  0
   11.1196  -19.6049   25.1465 C   0  0  0  0  0  0  0  0  0  0  0  0
    9.9804  -18.7170   25.4373 C   0  0  1  0  0  0  0  0  0  0  0  0
    9.5479  -18.5347   26.8387 N   0  0  0  0  0  0  0  0  0  0  0  0
    8.4508  -17.6083   27.0343 C   0  0  0  0  0  0  0  0  0  0  0  0
   10.6456  -18.2318   27.7706 O   0  0  0  0  0  0  0  0  0  0  0  0
   10.6545  -17.1125   28.3636 O   0  0  0  0  0  0  0  0  0  0  0  0
  2  1  1  0
  2  3  2  0
  4  2  1  0
  5  4  1  0
  6  5  1  0
  7  6  1  0
  8  7  1  0
  8  9  1  6
 10  8  1  0
 10 11  2  0
 13 12  1  6
 14 13  1  0
 16 15  1  6
 15 13  1  0
 17 16  1  0
 17 10  1  0
 18 16  1  0
 19 18  2  0
 21 20  1  0
 21 22  2  0
 23 21  1  0
 24 23  1  0
 25 24  1  0
 25 26  1  0
 27 26  1  6
 27 28  1  0
 28 18  1  0
 29 31  1  0
 29 27  1  0
 30 29  2  0
M  END
$$$$
