RLR.pdb
     RDKit          3D

 31 30  0  0  1  0  0  0  0  0999 V2000
    8.1420  -15.4086   16.5819 N   0  0  0  0  0  0  0  0  0  0  0  0
    7.9184  -14.2127   17.3491 C   0  0  0  0  0  0  0  0  0  0  0  0
    8.2865  -13.0820   16.8801 N   0  0  0  0  0  0  0  0  0  0  0  0
    7.2977  -14.2489   18.6198 N   0  0  0  0  0  0  0  0  0  0  0  0
    7.7693  -15.0585   19.7227 C   0  0  0  0  0  0  0  0  0  0  0  0
    8.3691  -14.2401   20.8180 C   0  0  0  0  0  0  0  0  0  0  0  0
    9.5540  -14.8359   21.4958 C   0  0  0  0  0  0  0  0  0  0  0  0
    9.2348  -15.7447   22.6525 C   0  0  2  0  0  0  0  0  0  0  0  0
    7.9375  -16.3691   22.5631 N   0  0  0  0  0  0  0  0  0  0  0  0
    9.4468  -15.0781   23.9573 C   0  0  0  0  0  0  0  0  0  0  0  0
   10.5596  -14.6302   24.2490 O   0  0  0  0  0  0  0  0  0  0  0  0
    8.1212  -12.1987   17.4083 C   0  0  0  0  0  0  0  0  0  0  0  0
    5.1971  -12.2357   25.9530 C   0  0  1  0  0  0  0  0  0  0  0  0
    6.5491  -12.7055   25.4730 C   0  0  0  0  0  0  0  0  0  0  0  0
    7.4451  -11.4536   25.4845 C   0  0  0  0  0  0  0  0  0  0  0  0
    7.1069  -13.7003   26.4011 C   0  0  2  0  0  0  0  0  0  0  0  0
    8.4455  -14.2701   26.1316 N   0  0  0  0  0  0  0  0  0  0  0  0
    8.4008  -14.9499   24.8634 C   0  0  0  0  0  0  0  0  0  0  0  0
    9.1387  -14.9603   27.1994 O   0  0  0  0  0  0  0  0  0  0  0  0
    9.3181  -14.4671   28.3702 N   0  0  0  0  0  0  0  0  0  0  0  0
   13.0119  -23.3774   30.7169 C   0  0  0  0  0  0  0  0  0  0  0  0
   12.4812  -22.6636   29.6213 N   0  0  0  0  0  0  0  0  0  0  0  0
   12.3055  -23.2713   28.5096 N   0  0  0  0  0  0  0  0  0  0  0  0
   12.1587  -21.3027   29.7826 C   0  0  0  0  0  0  0  0  0  0  0  0
   11.5705  -20.5810   28.6581 C   0  0  0  0  0  0  0  0  0  0  0  0
   11.2829  -19.1634   29.0255 C   0  0  0  0  0  0  0  0  0  0  0  0
   10.6880  -18.3669   27.9382 C   0  0  2  0  0  0  0  0  0  0  0  0
   10.3976  -16.9362   28.1683 N   0  0  0  0  0  0  0  0  0  0  0  0
    9.7027  -16.2624   27.0896 C   0  0  0  0  0  0  0  0  0  0  0  0
   11.5647  -16.1486   28.5958 O   0  0  0  0  0  0  0  0  0  0  0  0
   12.3153  -15.6370   27.7129 O   0  0  0  0  0  0  0  0  0  0  0  0
  2  1  1  0
  2  3  2  0
  4  2  1  0
  5  4  1  0
  6  5  1  0
  7  6  1  0
  8  7  1  0
  8  9  1  6
 10  8  1  0
 10 11  2  0
 13 12  1  6
 14 13  1  0
 16 15  1  6
 15 13  1  0
 17 16  1  0
 17 10  1  0
 18 16  1  0
 19 18  2  0
 21 20  1  0
 21 22  2  0
 23 21  1  0
 24 23  1  0
 25 24  1  0
 25 26  1  0
 27 26  1  1
 27 28  1  0
 28 18  1  0
 29 31  1  0
 29 27  1  0
 30 29  2  0
M  END
$$$$
