IKQ.pdb
     RDKit          3D

 27 26  0  0  1  0  0  0  0  0999 V2000
   26.9189  -22.0315  -23.9611 C   0  0  0  0  0  0  0  0  0  0  0  0
   26.6316  -22.4240  -22.5557 C   0  0  0  0  0  0  0  0  0  0  0  0
   26.2664  -23.8884  -22.3616 C   0  0  2  0  0  0  0  0  0  0  0  0
   24.9461  -24.0511  -23.1184 C   0  0  0  0  0  0  0  0  0  0  0  0
   26.1505  -24.1519  -20.9054 C   0  0  2  0  0  0  0  0  0  0  0  0
   27.4367  -23.7674  -20.2992 N   0  0  0  0  0  0  0  0  0  0  0  0
   25.8726  -25.5223  -20.4873 C   0  0  0  0  0  0  0  0  0  0  0  0
   24.8071  -26.1009  -20.9097 O   0  0  0  0  0  0  0  0  0  0  0  0
   26.6533  -26.3435  -19.6414 N   0  0  0  0  0  0  0  0  0  0  0  0
   26.2499  -27.6883  -19.2547 C   0  0  1  0  0  0  0  0  0  0  0  0
   27.3179  -28.3181  -18.3950 C   0  0  0  0  0  0  0  0  0  0  0  0
   27.0399  -29.7100  -17.9610 C   0  0  0  0  0  0  0  0  0  0  0  0
   28.1072  -30.2698  -17.0456 C   0  0  0  0  0  0  0  0  0  0  0  0
   27.8375  -31.7088  -16.7008 C   0  0  0  0  0  0  0  0  0  0  0  0
   28.9172  -32.2836  -15.9004 N   0  0  0  0  0  0  0  0  0  0  0  0
   24.9740  -27.7109  -18.5379 C   0  0  0  0  0  0  0  0  0  0  0  0
   24.7845  -26.9081  -17.5902 O   0  0  0  0  0  0  0  0  0  0  0  0
   20.5064  -24.7916  -18.7999 N   0  0  0  0  0  0  0  0  0  0  0  0
   19.9674  -25.7849  -17.9522 C   0  0  0  0  0  0  0  0  0  0  0  0
   18.8578  -25.5590  -17.3907 O   0  0  0  0  0  0  0  0  0  0  0  0
   20.6325  -27.0773  -17.6857 C   0  0  0  0  0  0  0  0  0  0  0  0
   22.0262  -27.0954  -18.2737 C   0  0  0  0  0  0  0  0  0  0  0  0
   22.6144  -28.4884  -18.1237 C   0  0  2  0  0  0  0  0  0  0  0  0
   23.8810  -28.5849  -18.8159 N   0  0  0  0  0  0  0  0  0  0  0  0
   21.7110  -29.5266  -18.6447 C   0  0  0  0  0  0  0  0  0  0  0  0
   20.5617  -29.8594  -17.9686 O   0  0  0  0  0  0  0  0  0  0  0  0
   21.9885  -30.1121  -19.7103 O   0  0  0  0  0  0  0  0  0  0  0  0
  2  3  1  0
  2  1  1  0
  3  5  1  0
  3  4  1  6
  5  6  1  1
  7  5  1  0
  8  7  2  0
  9  7  1  0
 10  9  1  0
 10 11  1  1
 11 12  1  0
 12 13  1  0
 13 14  1  0
 14 15  1  0
 16 10  1  0
 17 16  2  0
 18 19  1  0
 19 21  1  0
 20 19  2  0
 22 21  1  0
 23 22  1  6
 23 24  1  0
 24 16  1  0
 25 23  1  0
 25 26  1  0
 27 25  2  0
M  END
$$$$
