IKQ.pdb
     RDKit          3D

 27 26  0  0  1  0  0  0  0  0999 V2000
   28.6554  -17.8202  -18.5631 C   0  0  0  0  0  0  0  0  0  0  0  0
   28.8652  -18.9110  -17.5742 C   0  0  0  0  0  0  0  0  0  0  0  0
   27.6618  -19.2186  -16.6952 C   0  0  2  0  0  0  0  0  0  0  0  0
   27.3636  -17.8947  -15.9876 C   0  0  0  0  0  0  0  0  0  0  0  0
   28.0302  -20.3164  -15.7664 C   0  0  2  0  0  0  0  0  0  0  0  0
   28.3270  -21.4958  -16.5974 N   0  0  0  0  0  0  0  0  0  0  0  0
   27.0371  -20.7270  -14.7789 C   0  0  0  0  0  0  0  0  0  0  0  0
   26.0419  -21.4459  -15.1545 O   0  0  0  0  0  0  0  0  0  0  0  0
   27.0186  -20.4304  -13.3964 N   0  0  0  0  0  0  0  0  0  0  0  0
   25.9024  -20.7801  -12.5288 C   0  0  1  0  0  0  0  0  0  0  0  0
   26.2989  -20.6017  -11.0840 C   0  0  0  0  0  0  0  0  0  0  0  0
   25.2620  -20.9831  -10.0929 C   0  0  0  0  0  0  0  0  0  0  0  0
   25.7255  -20.8275   -8.6606 C   0  0  0  0  0  0  0  0  0  0  0  0
   24.6666  -21.2697   -7.6881 C   0  0  0  0  0  0  0  0  0  0  0  0
   25.0437  -20.9726   -6.3074 N   0  0  0  0  0  0  0  0  0  0  0  0
   24.7032  -19.9874  -12.8044 C   0  0  0  0  0  0  0  0  0  0  0  0
   24.8243  -18.7876  -13.1568 O   0  0  0  0  0  0  0  0  0  0  0  0
   23.5506  -18.9531  -17.2550 N   0  0  0  0  0  0  0  0  0  0  0  0
   22.2485  -19.4973  -17.1918 C   0  0  0  0  0  0  0  0  0  0  0  0
   21.4180  -19.1755  -18.0885 O   0  0  0  0  0  0  0  0  0  0  0  0
   21.8036  -20.4250  -16.1310 C   0  0  0  0  0  0  0  0  0  0  0  0
   22.8920  -20.6226  -15.0991 C   0  0  0  0  0  0  0  0  0  0  0  0
   22.3726  -20.1962  -13.7363 C   0  0  2  0  0  0  0  0  0  0  0  0
   23.3588  -20.4558  -12.7102 N   0  0  0  0  0  0  0  0  0  0  0  0
   21.1257  -20.8917  -13.3800 C   0  0  0  0  0  0  0  0  0  0  0  0
   21.1304  -22.2354  -13.0916 O   0  0  0  0  0  0  0  0  0  0  0  0
   20.0524  -20.2580  -13.3385 O   0  0  0  0  0  0  0  0  0  0  0  0
  2  3  1  0
  2  1  1  0
  3  5  1  0
  3  4  1  1
  5  6  1  6
  7  5  1  0
  8  7  2  0
  9  7  1  0
 10  9  1  0
 10 11  1  1
 11 12  1  0
 12 13  1  0
 13 14  1  0
 14 15  1  0
 16 10  1  0
 17 16  2  0
 18 19  1  0
 19 21  1  0
 20 19  2  0
 22 21  1  0
 23 22  1  6
 23 24  1  0
 24 16  1  0
 25 23  1  0
 25 26  1  0
 27 25  2  0
M  END
$$$$
