IKQ.pdb
     RDKit          3D

 27 26  0  0  1  0  0  0  0  0999 V2000
   29.6080  -13.0012  -16.5432 C   0  0  0  0  0  0  0  0  0  0  0  0
   28.2431  -13.5902  -16.5879 C   0  0  0  0  0  0  0  0  0  0  0  0
   27.1140  -12.5801  -16.7300 C   0  0  2  0  0  0  0  0  0  0  0  0
   27.1775  -11.7597  -15.4396 C   0  0  0  0  0  0  0  0  0  0  0  0
   25.8402  -13.3236  -16.8968 C   0  0  2  0  0  0  0  0  0  0  0  0
   26.0016  -14.1851  -18.0806 N   0  0  0  0  0  0  0  0  0  0  0  0
   24.6239  -12.5425  -17.0980 C   0  0  0  0  0  0  0  0  0  0  0  0
   24.4964  -11.8492  -18.1710 O   0  0  0  0  0  0  0  0  0  0  0  0
   23.5095  -12.4395  -16.2336 N   0  0  0  0  0  0  0  0  0  0  0  0
   22.3569  -11.5995  -16.5280 C   0  0  1  0  0  0  0  0  0  0  0  0
   21.0979  -12.2579  -16.0201 C   0  0  0  0  0  0  0  0  0  0  0  0
   20.6459  -13.4394  -16.7963 C   0  0  0  0  0  0  0  0  0  0  0  0
   19.2943  -13.9573  -16.3542 C   0  0  0  0  0  0  0  0  0  0  0  0
   18.8797  -15.1642  -17.1504 C   0  0  0  0  0  0  0  0  0  0  0  0
   17.5782  -15.6729  -16.7214 N   0  0  0  0  0  0  0  0  0  0  0  0
   22.4717  -10.2602  -15.9490 C   0  0  0  0  0  0  0  0  0  0  0  0
   22.8803  -10.1316  -14.7679 O   0  0  0  0  0  0  0  0  0  0  0  0
   23.1525   -5.0594  -19.3357 N   0  0  0  0  0  0  0  0  0  0  0  0
   21.8426   -5.4801  -19.0149 C   0  0  0  0  0  0  0  0  0  0  0  0
   20.8878   -5.0799  -19.7399 O   0  0  0  0  0  0  0  0  0  0  0  0
   21.5274   -6.3652  -17.8742 C   0  0  0  0  0  0  0  0  0  0  0  0
   22.7844   -6.7356  -17.1185 C   0  0  0  0  0  0  0  0  0  0  0  0
   22.4381   -7.7432  -16.0351 C   0  0  2  0  0  0  0  0  0  0  0  0
   22.1549   -9.0383  -16.6141 N   0  0  0  0  0  0  0  0  0  0  0  0
   21.2764   -7.3176  -15.2384 C   0  0  0  0  0  0  0  0  0  0  0  0
   21.3770   -6.2673  -14.3578 O   0  0  0  0  0  0  0  0  0  0  0  0
   20.1881   -7.9143  -15.3615 O   0  0  0  0  0  0  0  0  0  0  0  0
  2  3  1  0
  2  1  1  0
  3  5  1  0
  3  4  1  1
  5  6  1  6
  7  5  1  0
  8  7  2  0
  9  7  1  0
 10  9  1  0
 10 11  1  1
 11 12  1  0
 12 13  1  0
 13 14  1  0
 14 15  1  0
 16 10  1  0
 17 16  2  0
 18 19  1  0
 19 21  1  0
 20 19  2  0
 22 21  1  0
 23 22  1  6
 23 24  1  0
 24 16  1  0
 25 23  1  0
 25 26  1  0
 27 25  2  0
M  END
$$$$
