IKQ.pdb
     RDKit          3D

 27 26  0  0  1  0  0  0  0  0999 V2000
   17.8865  -14.4103  -20.3704 C   0  0  0  0  0  0  0  0  0  0  0  0
   19.3612  -14.5811  -20.2807 C   0  0  0  0  0  0  0  0  0  0  0  0
   20.1227  -13.3447  -19.8260 C   0  0  2  0  0  0  0  0  0  0  0  0
   19.7910  -12.2881  -20.8823 C   0  0  0  0  0  0  0  0  0  0  0  0
   21.5665  -13.6833  -19.7601 C   0  0  2  0  0  0  0  0  0  0  0  0
   21.7195  -14.6914  -18.6972 N   0  0  0  0  0  0  0  0  0  0  0  0
   22.5005  -12.6020  -19.4628 C   0  0  0  0  0  0  0  0  0  0  0  0
   22.5816  -12.1587  -18.2606 O   0  0  0  0  0  0  0  0  0  0  0  0
   23.3739  -11.9430  -20.3586 N   0  0  0  0  0  0  0  0  0  0  0  0
   24.1599  -10.7768  -19.9808 C   0  0  1  0  0  0  0  0  0  0  0  0
   25.1752  -10.4714  -21.0542 C   0  0  0  0  0  0  0  0  0  0  0  0
   25.9865   -9.2495  -20.8267 C   0  0  0  0  0  0  0  0  0  0  0  0
   27.4766   -9.5084  -20.8832 C   0  0  0  0  0  0  0  0  0  0  0  0
   28.2638   -8.2540  -20.6204 C   0  0  0  0  0  0  0  0  0  0  0  0
   29.6752   -8.4207  -20.9623 N   0  0  0  0  0  0  0  0  0  0  0  0
   23.3339   -9.5921  -19.7429 C   0  0  0  0  0  0  0  0  0  0  0  0
   22.4379   -9.2886  -20.5698 O   0  0  0  0  0  0  0  0  0  0  0  0
   18.7081   -8.0301  -16.6836 N   0  0  0  0  0  0  0  0  0  0  0  0
   19.8449   -7.8231  -15.8708 C   0  0  0  0  0  0  0  0  0  0  0  0
   19.6817   -7.7305  -14.6209 O   0  0  0  0  0  0  0  0  0  0  0  0
   21.2182   -7.7087  -16.4044 C   0  0  0  0  0  0  0  0  0  0  0  0
   21.2394   -7.9721  -17.8938 C   0  0  0  0  0  0  0  0  0  0  0  0
   22.5895   -7.5592  -18.4557 C   0  0  2  0  0  0  0  0  0  0  0  0
   23.4461   -8.7126  -18.6251 N   0  0  0  0  0  0  0  0  0  0  0  0
   23.2728   -6.5866  -17.5882 C   0  0  0  0  0  0  0  0  0  0  0  0
   22.7439   -5.3342  -17.3866 O   0  0  0  0  0  0  0  0  0  0  0  0
   24.3428   -6.8991  -17.0289 O   0  0  0  0  0  0  0  0  0  0  0  0
  2  3  1  0
  2  1  1  0
  3  5  1  0
  3  4  1  6
  5  6  1  1
  7  5  1  0
  8  7  2  0
  9  7  1  0
 10  9  1  0
 10 11  1  6
 11 12  1  0
 12 13  1  0
 13 14  1  0
 14 15  1  0
 16 10  1  0
 17 16  2  0
 18 19  1  0
 19 21  1  0
 20 19  2  0
 22 21  1  0
 23 22  1  1
 23 24  1  0
 24 16  1  0
 25 23  1  0
 25 26  1  0
 27 25  2  0
M  END
$$$$
