IKQ.pdb
     RDKit          3D

 27 26  0  0  1  0  0  0  0  0999 V2000
   27.6679  -17.2830  -16.4450 C   0  0  0  0  0  0  0  0  0  0  0  0
   26.6307  -16.3201  -16.9019 C   0  0  0  0  0  0  0  0  0  0  0  0
   25.1970  -16.8123  -16.7690 C   0  0  2  0  0  0  0  0  0  0  0  0
   25.0092  -17.0249  -15.2651 C   0  0  0  0  0  0  0  0  0  0  0  0
   25.0547  -18.0570  -17.5652 C   0  0  2  0  0  0  0  0  0  0  0  0
   25.4223  -17.7204  -18.9513 N   0  0  0  0  0  0  0  0  0  0  0  0
   23.7367  -18.6820  -17.6112 C   0  0  0  0  0  0  0  0  0  0  0  0
   22.7209  -17.9748  -17.9525 O   0  0  0  0  0  0  0  0  0  0  0  0
   23.4063  -20.0257  -17.3199 N   0  0  0  0  0  0  0  0  0  0  0  0
   22.0349  -20.5154  -17.3010 C   0  0  1  0  0  0  0  0  0  0  0  0
   21.8667  -21.6125  -18.3229 C   0  0  0  0  0  0  0  0  0  0  0  0
   21.8591  -21.1624  -19.7372 C   0  0  0  0  0  0  0  0  0  0  0  0
   21.6954  -22.3011  -20.7207 C   0  0  0  0  0  0  0  0  0  0  0  0
   21.7914  -21.8190  -22.1422 C   0  0  0  0  0  0  0  0  0  0  0  0
   21.7259  -22.9269  -23.0936 N   0  0  0  0  0  0  0  0  0  0  0  0
   21.6308  -21.0119  -15.9848 C   0  0  0  0  0  0  0  0  0  0  0  0
   22.4349  -21.7060  -15.3138 O   0  0  0  0  0  0  0  0  0  0  0  0
   19.4739  -19.6974   -9.3029 N   0  0  0  0  0  0  0  0  0  0  0  0
   19.6417  -19.4918  -10.6904 C   0  0  0  0  0  0  0  0  0  0  0  0
   19.8221  -18.3119  -11.1061 O   0  0  0  0  0  0  0  0  0  0  0  0
   19.6178  -20.5847  -11.6849 C   0  0  0  0  0  0  0  0  0  0  0  0
   20.0367  -20.0798  -13.0479 C   0  0  0  0  0  0  0  0  0  0  0  0
   20.0656  -21.2431  -14.0251 C   0  0  2  0  0  0  0  0  0  0  0  0
   20.3685  -20.7796  -15.3616 N   0  0  0  0  0  0  0  0  0  0  0  0
   18.7858  -21.9686  -14.0554 C   0  0  0  0  0  0  0  0  0  0  0  0
   18.5080  -22.9395  -13.1232 O   0  0  0  0  0  0  0  0  0  0  0  0
   17.9426  -21.7020  -14.9349 O   0  0  0  0  0  0  0  0  0  0  0  0
  2  3  1  0
  2  1  1  0
  3  5  1  0
  3  4  1  1
  5  6  1  6
  7  5  1  0
  8  7  2  0
  9  7  1  0
 10  9  1  0
 10 11  1  6
 11 12  1  0
 12 13  1  0
 13 14  1  0
 14 15  1  0
 16 10  1  0
 17 16  2  0
 18 19  1  0
 19 21  1  0
 20 19  2  0
 22 21  1  0
 23 22  1  1
 23 24  1  0
 24 16  1  0
 25 23  1  0
 25 26  1  0
 27 25  2  0
M  END
$$$$
