IKQ.pdb
     RDKit          3D

 27 26  0  0  1  0  0  0  0  0999 V2000
   29.2872  -18.5457  -16.3661 C   0  0  0  0  0  0  0  0  0  0  0  0
   28.3395  -19.1202  -17.3579 C   0  0  0  0  0  0  0  0  0  0  0  0
   26.9587  -19.4481  -16.8090 C   0  0  2  0  0  0  0  0  0  0  0  0
   26.3815  -18.0896  -16.4046 C   0  0  0  0  0  0  0  0  0  0  0  0
   27.1195  -20.3860  -15.6698 C   0  0  2  0  0  0  0  0  0  0  0  0
   27.7124  -21.6196  -16.2140 N   0  0  0  0  0  0  0  0  0  0  0  0
   25.9167  -20.7744  -14.9402 C   0  0  0  0  0  0  0  0  0  0  0  0
   25.0001  -21.4335  -15.5515 O   0  0  0  0  0  0  0  0  0  0  0  0
   25.6056  -20.5150  -13.5854 N   0  0  0  0  0  0  0  0  0  0  0  0
   24.3261  -20.8696  -12.9872 C   0  0  1  0  0  0  0  0  0  0  0  0
   24.4104  -20.7517  -11.4854 C   0  0  0  0  0  0  0  0  0  0  0  0
   23.1630  -21.0877  -10.7545 C   0  0  0  0  0  0  0  0  0  0  0  0
   23.2780  -20.8808   -9.2597 C   0  0  0  0  0  0  0  0  0  0  0  0
   21.9776  -21.1718   -8.5619 C   0  0  0  0  0  0  0  0  0  0  0  0
   22.0492  -20.8613   -7.1354 N   0  0  0  0  0  0  0  0  0  0  0  0
   23.2242  -20.0405  -13.4779 C   0  0  0  0  0  0  0  0  0  0  0  0
   23.4150  -18.8144  -13.6749 O   0  0  0  0  0  0  0  0  0  0  0  0
   22.7781  -19.0071  -18.1607 N   0  0  0  0  0  0  0  0  0  0  0  0
   21.9276  -18.0159  -17.6223 C   0  0  0  0  0  0  0  0  0  0  0  0
   21.9152  -16.8745  -18.1651 O   0  0  0  0  0  0  0  0  0  0  0  0
   21.0492  -18.2420  -16.4556 C   0  0  0  0  0  0  0  0  0  0  0  0
   21.1910  -19.6581  -15.9429 C   0  0  0  0  0  0  0  0  0  0  0  0
   20.9278  -19.6771  -14.4465 C   0  0  2  0  0  0  0  0  0  0  0  0
   21.9046  -20.4997  -13.7668 N   0  0  0  0  0  0  0  0  0  0  0  0
   19.5825  -20.1827  -14.1305 C   0  0  0  0  0  0  0  0  0  0  0  0
   18.5127  -19.3241  -14.0467 O   0  0  0  0  0  0  0  0  0  0  0  0
   19.4083  -21.4023  -13.9364 O   0  0  0  0  0  0  0  0  0  0  0  0
  2  3  1  0
  2  1  1  0
  3  5  1  0
  3  4  1  1
  5  6  1  6
  7  5  1  0
  8  7  2  0
  9  7  1  0
 10  9  1  0
 10 11  1  1
 11 12  1  0
 12 13  1  0
 13 14  1  0
 14 15  1  0
 16 10  1  0
 17 16  2  0
 18 19  1  0
 19 21  1  0
 20 19  2  0
 22 21  1  0
 23 22  1  6
 23 24  1  0
 24 16  1  0
 25 23  1  0
 25 26  1  0
 27 25  2  0
M  END
$$$$
