IKQ.pdb
     RDKit          3D

 27 26  0  0  1  0  0  0  0  0999 V2000
   18.3504  -27.2664  -10.6108 C   0  0  0  0  0  0  0  0  0  0  0  0
   18.4656  -26.3918   -9.4135 C   0  0  0  0  0  0  0  0  0  0  0  0
   17.9240  -24.9816   -9.5961 C   0  0  2  0  0  0  0  0  0  0  0  0
   18.8422  -24.3587  -10.6502 C   0  0  0  0  0  0  0  0  0  0  0  0
   17.9732  -24.2888   -8.2842 C   0  0  2  0  0  0  0  0  0  0  0  0
   19.3914  -24.2171   -7.8932 N   0  0  0  0  0  0  0  0  0  0  0  0
   17.2522  -24.8984   -7.1714 C   0  0  0  0  0  0  0  0  0  0  0  0
   15.9693  -24.9370   -7.2036 O   0  0  0  0  0  0  0  0  0  0  0  0
   17.7970  -25.4839   -6.0051 N   0  0  0  0  0  0  0  0  0  0  0  0
   16.9812  -25.8817   -4.8663 C   0  0  1  0  0  0  0  0  0  0  0  0
   17.8061  -26.7001   -3.9039 C   0  0  0  0  0  0  0  0  0  0  0  0
   17.0749  -27.2011   -2.7134 C   0  0  0  0  0  0  0  0  0  0  0  0
   17.9610  -27.9616   -1.7504 C   0  0  0  0  0  0  0  0  0  0  0  0
   17.1699  -28.5243   -0.6015 C   0  0  0  0  0  0  0  0  0  0  0  0
   18.0372  -29.1428    0.3994 N   0  0  0  0  0  0  0  0  0  0  0  0
   16.4030  -24.7381   -4.1591 C   0  0  0  0  0  0  0  0  0  0  0  0
   17.1413  -23.7731   -3.8391 O   0  0  0  0  0  0  0  0  0  0  0  0
   10.8994  -21.9910   -5.0307 N   0  0  0  0  0  0  0  0  0  0  0  0
   12.1382  -21.9308   -5.7071 C   0  0  0  0  0  0  0  0  0  0  0  0
   12.1609  -21.4603   -6.8800 O   0  0  0  0  0  0  0  0  0  0  0  0
   13.4126  -22.3894   -5.1159 C   0  0  0  0  0  0  0  0  0  0  0  0
   13.1805  -23.0150   -3.7583 C   0  0  0  0  0  0  0  0  0  0  0  0
   14.5180  -23.4053   -3.1520 C   0  0  2  0  0  0  0  0  0  0  0  0
   15.0340  -24.6015   -3.7812 N   0  0  0  0  0  0  0  0  0  0  0  0
   14.4181  -23.6394   -1.7026 C   0  0  0  0  0  0  0  0  0  0  0  0
   14.4659  -22.5888   -0.8179 O   0  0  0  0  0  0  0  0  0  0  0  0
   14.2888  -24.8019   -1.2698 O   0  0  0  0  0  0  0  0  0  0  0  0
  2  3  1  0
  2  1  1  0
  3  5  1  0
  3  4  1  6
  5  6  1  1
  7  5  1  0
  8  7  2  0
  9  7  1  0
 10  9  1  0
 10 11  1  1
 11 12  1  0
 12 13  1  0
 13 14  1  0
 14 15  1  0
 16 10  1  0
 17 16  2  0
 18 19  1  0
 19 21  1  0
 20 19  2  0
 22 21  1  0
 23 22  1  6
 23 24  1  0
 24 16  1  0
 25 23  1  0
 25 26  1  0
 27 25  2  0
M  END
$$$$
