IKQ.pdb
     RDKit          3D

 27 26  0  0  1  0  0  0  0  0999 V2000
   27.6739  -22.9445  -16.5736 C   0  0  0  0  0  0  0  0  0  0  0  0
   27.9929  -21.8700  -15.5961 C   0  0  0  0  0  0  0  0  0  0  0  0
   26.7821  -21.1918  -14.9721 C   0  0  2  0  0  0  0  0  0  0  0  0
   25.9441  -22.3483  -14.4221 C   0  0  0  0  0  0  0  0  0  0  0  0
   26.0905  -20.4084  -16.0263 C   0  0  2  0  0  0  0  0  0  0  0  0
   27.0779  -19.4595  -16.5687 N   0  0  0  0  0  0  0  0  0  0  0  0
   24.9206  -19.6304  -15.6313 C   0  0  0  0  0  0  0  0  0  0  0  0
   24.8991  -19.0782  -14.4725 O   0  0  0  0  0  0  0  0  0  0  0  0
   23.7498  -19.3860  -16.3857 N   0  0  0  0  0  0  0  0  0  0  0  0
   22.6218  -18.6240  -15.8681 C   0  0  1  0  0  0  0  0  0  0  0  0
   22.2623  -17.5197  -16.8312 C   0  0  0  0  0  0  0  0  0  0  0  0
   21.1604  -16.6294  -16.3883 C   0  0  0  0  0  0  0  0  0  0  0  0
   20.7404  -15.6339  -17.4481 C   0  0  0  0  0  0  0  0  0  0  0  0
   19.5990  -14.7756  -16.9759 C   0  0  0  0  0  0  0  0  0  0  0  0
   19.1074  -13.8993  -18.0375 N   0  0  0  0  0  0  0  0  0  0  0  0
   21.4433  -19.4565  -15.6224 C   0  0  0  0  0  0  0  0  0  0  0  0
   21.2458  -20.4720  -16.3354 O   0  0  0  0  0  0  0  0  0  0  0  0
   18.1826  -23.4382  -11.0659 N   0  0  0  0  0  0  0  0  0  0  0  0
   19.2824  -22.7312  -11.6012 C   0  0  0  0  0  0  0  0  0  0  0  0
   20.2986  -22.5566  -10.8702 O   0  0  0  0  0  0  0  0  0  0  0  0
   19.3090  -22.1832  -12.9734 C   0  0  0  0  0  0  0  0  0  0  0  0
   19.4296  -20.6756  -12.9475 C   0  0  0  0  0  0  0  0  0  0  0  0
   19.3693  -20.1443  -14.3698 C   0  0  2  0  0  0  0  0  0  0  0  0
   20.4576  -19.2239  -14.6174 N   0  0  0  0  0  0  0  0  0  0  0  0
   18.0976  -19.4579  -14.6477 C   0  0  0  0  0  0  0  0  0  0  0  0
   17.3147  -19.8365  -15.7119 O   0  0  0  0  0  0  0  0  0  0  0  0
   17.7240  -18.5229  -13.9119 O   0  0  0  0  0  0  0  0  0  0  0  0
  2  3  1  0
  2  1  1  0
  3  5  1  0
  3  4  1  6
  5  6  1  1
  7  5  1  0
  8  7  2  0
  9  7  1  0
 10  9  1  0
 10 11  1  6
 11 12  1  0
 12 13  1  0
 13 14  1  0
 14 15  1  0
 16 10  1  0
 17 16  2  0
 18 19  1  0
 19 21  1  0
 20 19  2  0
 22 21  1  0
 23 22  1  1
 23 24  1  0
 24 16  1  0
 25 23  1  0
 25 26  1  0
 27 25  2  0
M  END
$$$$
