IKQ.pdb
     RDKit          3D

 27 26  0  0  1  0  0  0  0  0999 V2000
   28.4632  -20.7670   -4.3579 C   0  0  0  0  0  0  0  0  0  0  0  0
   28.4721  -19.8765   -5.5489 C   0  0  0  0  0  0  0  0  0  0  0  0
   27.3992  -20.1809   -6.5841 C   0  0  2  0  0  0  0  0  0  0  0  0
   27.6345  -21.6480   -6.9508 C   0  0  0  0  0  0  0  0  0  0  0  0
   27.5747  -19.2495   -7.7266 C   0  0  2  0  0  0  0  0  0  0  0  0
   27.4532  -17.8847   -7.1862 N   0  0  0  0  0  0  0  0  0  0  0  0
   26.6323  -19.3566   -8.8359 C   0  0  0  0  0  0  0  0  0  0  0  0
   25.4388  -18.9072   -8.6879 O   0  0  0  0  0  0  0  0  0  0  0  0
   26.8627  -19.9122  -10.1157 N   0  0  0  0  0  0  0  0  0  0  0  0
   25.8666  -19.8884  -11.1777 C   0  0  1  0  0  0  0  0  0  0  0  0
   26.5454  -19.9881  -12.5215 C   0  0  0  0  0  0  0  0  0  0  0  0
   25.6334  -19.9721  -13.6924 C   0  0  0  0  0  0  0  0  0  0  0  0
   26.3669  -20.0154  -15.0155 C   0  0  0  0  0  0  0  0  0  0  0  0
   25.4179  -19.8890  -16.1756 C   0  0  0  0  0  0  0  0  0  0  0  0
   25.8731  -18.8883  -17.1389 N   0  0  0  0  0  0  0  0  0  0  0  0
   24.8806  -20.9627  -11.0511 C   0  0  0  0  0  0  0  0  0  0  0  0
   25.2626  -22.1162  -10.7318 O   0  0  0  0  0  0  0  0  0  0  0  0
   20.9034  -22.4796   -7.2171 N   0  0  0  0  0  0  0  0  0  0  0  0
   20.2530  -21.6702   -8.1749 C   0  0  0  0  0  0  0  0  0  0  0  0
   19.1763  -21.0959   -7.8456 O   0  0  0  0  0  0  0  0  0  0  0  0
   20.7648  -21.4581   -9.5450 C   0  0  0  0  0  0  0  0  0  0  0  0
   22.1017  -22.1412   -9.7307 C   0  0  0  0  0  0  0  0  0  0  0  0
   22.5663  -21.9499  -11.1647 C   0  0  2  0  0  0  0  0  0  0  0  0
   23.4757  -20.8291  -11.2614 N   0  0  0  0  0  0  0  0  0  0  0  0
   21.4389  -21.7242  -12.0832 C   0  0  0  0  0  0  0  0  0  0  0  0
   20.6858  -22.7786  -12.5411 O   0  0  0  0  0  0  0  0  0  0  0  0
   21.1618  -20.5654  -12.4515 O   0  0  0  0  0  0  0  0  0  0  0  0
  2  3  1  0
  2  1  1  0
  3  5  1  0
  3  4  1  6
  5  6  1  1
  7  5  1  0
  8  7  2  0
  9  7  1  0
 10  9  1  0
 10 11  1  6
 11 12  1  0
 12 13  1  0
 13 14  1  0
 14 15  1  0
 16 10  1  0
 17 16  2  0
 18 19  1  0
 19 21  1  0
 20 19  2  0
 22 21  1  0
 23 22  1  1
 23 24  1  0
 24 16  1  0
 25 23  1  0
 25 26  1  0
 27 25  2  0
M  END
$$$$
