IKQ.pdb
     RDKit          3D

 27 26  0  0  1  0  0  0  0  0999 V2000
   26.0879  -11.1619  -15.2452 C   0  0  0  0  0  0  0  0  0  0  0  0
   24.6865  -11.6595  -15.2628 C   0  0  0  0  0  0  0  0  0  0  0  0
   23.6260  -10.5807  -15.4269 C   0  0  2  0  0  0  0  0  0  0  0  0
   23.7559   -9.7289  -14.1621 C   0  0  0  0  0  0  0  0  0  0  0  0
   22.3039  -11.2419  -15.5623 C   0  0  2  0  0  0  0  0  0  0  0  0
   22.4125  -12.1846  -16.6888 N   0  0  0  0  0  0  0  0  0  0  0  0
   21.1475  -10.3914  -15.8252 C   0  0  0  0  0  0  0  0  0  0  0  0
   21.0306   -9.8329  -16.9753 O   0  0  0  0  0  0  0  0  0  0  0  0
   20.0832  -10.0831  -14.9465 N   0  0  0  0  0  0  0  0  0  0  0  0
   19.0318   -9.1331  -15.2825 C   0  0  1  0  0  0  0  0  0  0  0  0
   17.6954   -9.6620  -14.8237 C   0  0  0  0  0  0  0  0  0  0  0  0
   17.1273  -10.7509  -15.6570 C   0  0  0  0  0  0  0  0  0  0  0  0
   15.8341  -11.3085  -15.1024 C   0  0  0  0  0  0  0  0  0  0  0  0
   15.2664  -12.3762  -15.9970 C   0  0  0  0  0  0  0  0  0  0  0  0
   14.0090  -12.9067  -15.4734 N   0  0  0  0  0  0  0  0  0  0  0  0
   19.2575   -7.8108  -14.6970 C   0  0  0  0  0  0  0  0  0  0  0  0
   19.7605   -7.7220  -13.5492 O   0  0  0  0  0  0  0  0  0  0  0  0
   23.4216   -4.1142  -15.3844 N   0  0  0  0  0  0  0  0  0  0  0  0
   22.5303   -3.2783  -14.6754 C   0  0  0  0  0  0  0  0  0  0  0  0
   22.9607   -2.1727  -14.2396 O   0  0  0  0  0  0  0  0  0  0  0  0
   21.1182   -3.6276  -14.4150 C   0  0  0  0  0  0  0  0  0  0  0  0
   20.7722   -4.9633  -15.0350 C   0  0  0  0  0  0  0  0  0  0  0  0
   19.3197   -5.2932  -14.7344 C   0  0  2  0  0  0  0  0  0  0  0  0
   18.9531   -6.5640  -15.3204 N   0  0  0  0  0  0  0  0  0  0  0  0
   18.4041   -4.2581  -15.2400 C   0  0  0  0  0  0  0  0  0  0  0  0
   18.2619   -3.0631  -14.5763 O   0  0  0  0  0  0  0  0  0  0  0  0
   17.7490   -4.4646  -16.2810 O   0  0  0  0  0  0  0  0  0  0  0  0
  2  3  1  0
  2  1  1  0
  3  5  1  0
  3  4  1  1
  5  6  1  6
  7  5  1  0
  8  7  2  0
  9  7  1  0
 10  9  1  0
 10 11  1  1
 11 12  1  0
 12 13  1  0
 13 14  1  0
 14 15  1  0
 16 10  1  0
 17 16  2  0
 18 19  1  0
 19 21  1  0
 20 19  2  0
 22 21  1  0
 23 22  1  6
 23 24  1  0
 24 16  1  0
 25 23  1  0
 25 26  1  0
 27 25  2  0
M  END
$$$$
