IKQ.pdb
     RDKit          3D

 27 26  0  0  1  0  0  0  0  0999 V2000
   21.6858  -20.3228   -8.5263 C   0  0  0  0  0  0  0  0  0  0  0  0
   23.0520  -20.7834   -8.8913 C   0  0  0  0  0  0  0  0  0  0  0  0
   23.5474  -20.3062  -10.2486 C   0  0  2  0  0  0  0  0  0  0  0  0
   22.5235  -20.8627  -11.2407 C   0  0  0  0  0  0  0  0  0  0  0  0
   24.9198  -20.8324  -10.4564 C   0  0  2  0  0  0  0  0  0  0  0  0
   25.7619  -20.2578   -9.3933 N   0  0  0  0  0  0  0  0  0  0  0  0
   25.5718  -20.5343  -11.7276 C   0  0  0  0  0  0  0  0  0  0  0  0
   25.9461  -19.3306  -11.9712 O   0  0  0  0  0  0  0  0  0  0  0  0
   25.8655  -21.4318  -12.7802 N   0  0  0  0  0  0  0  0  0  0  0  0
   26.3393  -20.9909  -14.0847 C   0  0  1  0  0  0  0  0  0  0  0  0
   27.2712  -22.0235  -14.6691 C   0  0  0  0  0  0  0  0  0  0  0  0
   27.8873  -21.6550  -15.9681 C   0  0  0  0  0  0  0  0  0  0  0  0
   28.1928  -22.8535  -16.8405 C   0  0  0  0  0  0  0  0  0  0  0  0
   28.9811  -22.4605  -18.0597 C   0  0  0  0  0  0  0  0  0  0  0  0
   29.4662  -23.6306  -18.7892 N   0  0  0  0  0  0  0  0  0  0  0  0
   25.2473  -20.7350  -15.0251 C   0  0  0  0  0  0  0  0  0  0  0  0
   24.2225  -21.4611  -14.9928 O   0  0  0  0  0  0  0  0  0  0  0  0
   20.2966  -18.0711  -16.5894 N   0  0  0  0  0  0  0  0  0  0  0  0
   21.3219  -17.0999  -16.6244 C   0  0  0  0  0  0  0  0  0  0  0  0
   21.0010  -15.8934  -16.8215 O   0  0  0  0  0  0  0  0  0  0  0  0
   22.7533  -17.4191  -16.4424 C   0  0  0  0  0  0  0  0  0  0  0  0
   22.9348  -18.8695  -16.0531 C   0  0  0  0  0  0  0  0  0  0  0  0
   24.0778  -19.4644  -16.8585 C   0  0  2  0  0  0  0  0  0  0  0  0
   25.2265  -19.7058  -16.0131 N   0  0  0  0  0  0  0  0  0  0  0  0
   24.4839  -18.5876  -17.9684 C   0  0  0  0  0  0  0  0  0  0  0  0
   23.6643  -18.4096  -19.0571 O   0  0  0  0  0  0  0  0  0  0  0  0
   25.5825  -17.9989  -17.9234 O   0  0  0  0  0  0  0  0  0  0  0  0
  2  3  1  0
  2  1  1  0
  3  5  1  0
  3  4  1  6
  5  6  1  1
  7  5  1  0
  8  7  2  0
  9  7  1  0
 10  9  1  0
 10 11  1  6
 11 12  1  0
 12 13  1  0
 13 14  1  0
 14 15  1  0
 16 10  1  0
 17 16  2  0
 18 19  1  0
 19 21  1  0
 20 19  2  0
 22 21  1  0
 23 22  1  1
 23 24  1  0
 24 16  1  0
 25 23  1  0
 25 26  1  0
 27 25  2  0
M  END
$$$$
