IKQ.pdb
     RDKit          3D

 27 26  0  0  1  0  0  0  0  0999 V2000
   27.1674  -19.2754   -8.0086 C   0  0  0  0  0  0  0  0  0  0  0  0
   26.8482  -19.6060   -9.4230 C   0  0  0  0  0  0  0  0  0  0  0  0
   26.8414  -21.0927   -9.7472 C   0  0  2  0  0  0  0  0  0  0  0  0
   28.3001  -21.5227   -9.5755 C   0  0  0  0  0  0  0  0  0  0  0  0
   26.3317  -21.2669  -11.1305 C   0  0  2  0  0  0  0  0  0  0  0  0
   27.2311  -20.5063  -12.0148 N   0  0  0  0  0  0  0  0  0  0  0  0
   24.9725  -20.8154  -11.4109 C   0  0  0  0  0  0  0  0  0  0  0  0
   24.5952  -19.6648  -10.9841 O   0  0  0  0  0  0  0  0  0  0  0  0
   23.9633  -21.5019  -12.1249 N   0  0  0  0  0  0  0  0  0  0  0  0
   22.6667  -20.9105  -12.4248 C   0  0  1  0  0  0  0  0  0  0  0  0
   22.6880  -20.2968  -13.8030 C   0  0  0  0  0  0  0  0  0  0  0  0
   21.4748  -19.5240  -14.1689 C   0  0  0  0  0  0  0  0  0  0  0  0
   21.5555  -18.9139  -15.5516 C   0  0  0  0  0  0  0  0  0  0  0  0
   20.3145  -18.1303  -15.8809 C   0  0  0  0  0  0  0  0  0  0  0  0
   19.1138  -18.9596  -15.7951 N   0  0  0  0  0  0  0  0  0  0  0  0
   21.5718  -21.8783  -12.3414 C   0  0  0  0  0  0  0  0  0  0  0  0
   21.6766  -22.9810  -12.9344 O   0  0  0  0  0  0  0  0  0  0  0  0
   18.8382  -23.7053   -7.1984 N   0  0  0  0  0  0  0  0  0  0  0  0
   18.1086  -24.3803   -8.2022 C   0  0  0  0  0  0  0  0  0  0  0  0
   17.2583  -25.2459   -7.8486 O   0  0  0  0  0  0  0  0  0  0  0  0
   18.2863  -24.1284   -9.6475 C   0  0  0  0  0  0  0  0  0  0  0  0
   19.3067  -23.0363   -9.8809 C   0  0  0  0  0  0  0  0  0  0  0  0
   19.4263  -22.7738  -11.3727 C   0  0  2  0  0  0  0  0  0  0  0  0
   20.3505  -21.6906  -11.6280 N   0  0  0  0  0  0  0  0  0  0  0  0
   18.1276  -22.4394  -11.9788 C   0  0  0  0  0  0  0  0  0  0  0  0
   17.3583  -23.4130  -12.5694 O   0  0  0  0  0  0  0  0  0  0  0  0
   17.7185  -21.2615  -11.9576 O   0  0  0  0  0  0  0  0  0  0  0  0
  2  3  1  0
  2  1  1  0
  3  5  1  0
  3  4  1  6
  5  6  1  6
  7  5  1  0
  8  7  2  0
  9  7  1  0
 10  9  1  0
 10 11  1  6
 11 12  1  0
 12 13  1  0
 13 14  1  0
 14 15  1  0
 16 10  1  0
 17 16  2  0
 18 19  1  0
 19 21  1  0
 20 19  2  0
 22 21  1  0
 23 22  1  1
 23 24  1  0
 24 16  1  0
 25 23  1  0
 25 26  1  0
 27 25  2  0
M  END
$$$$
