IKQ.pdb
     RDKit          3D

 27 26  0  0  1  0  0  0  0  0999 V2000
   24.7403  -20.2047   -7.3448 C   0  0  0  0  0  0  0  0  0  0  0  0
   25.5092  -20.6604   -8.5335 C   0  0  0  0  0  0  0  0  0  0  0  0
   24.9251  -20.2393   -9.8740 C   0  0  2  0  0  0  0  0  0  0  0  0
   23.4790  -20.7383   -9.8286 C   0  0  0  0  0  0  0  0  0  0  0  0
   25.7329  -20.8626  -10.9521 C   0  0  2  0  0  0  0  0  0  0  0  0
   27.1076  -20.3556  -10.8017 N   0  0  0  0  0  0  0  0  0  0  0  0
   25.3304  -20.6065  -12.3314 C   0  0  0  0  0  0  0  0  0  0  0  0
   25.3879  -19.4076  -12.7871 O   0  0  0  0  0  0  0  0  0  0  0  0
   24.8645  -21.5419  -13.2841 N   0  0  0  0  0  0  0  0  0  0  0  0
   24.4876  -21.1670  -14.6398 C   0  0  1  0  0  0  0  0  0  0  0  0
   25.0110  -22.1878  -15.6198 C   0  0  0  0  0  0  0  0  0  0  0  0
   26.4862  -22.2089  -15.7821 C   0  0  0  0  0  0  0  0  0  0  0  0
   26.9708  -23.3514  -16.6484 C   0  0  0  0  0  0  0  0  0  0  0  0
   28.4721  -23.3759  -16.7382 C   0  0  0  0  0  0  0  0  0  0  0  0
   28.9451  -24.4808  -17.5701 N   0  0  0  0  0  0  0  0  0  0  0  0
   23.0397  -21.0321  -14.8064 C   0  0  0  0  0  0  0  0  0  0  0  0
   22.2699  -21.7344  -14.1046 O   0  0  0  0  0  0  0  0  0  0  0  0
   19.1601  -18.7475  -12.2833 N   0  0  0  0  0  0  0  0  0  0  0  0
   18.6122  -18.2265  -13.4766 C   0  0  0  0  0  0  0  0  0  0  0  0
   17.4388  -17.7578  -13.4452 O   0  0  0  0  0  0  0  0  0  0  0  0
   19.3387  -18.1998  -14.7632 C   0  0  0  0  0  0  0  0  0  0  0  0
   20.7419  -18.7405  -14.5990 C   0  0  0  0  0  0  0  0  0  0  0  0
   20.9787  -19.8371  -15.6238 C   0  0  2  0  0  0  0  0  0  0  0  0
   22.3877  -20.1507  -15.7195 N   0  0  0  0  0  0  0  0  0  0  0  0
   20.4870  -19.4591  -16.9582 C   0  0  0  0  0  0  0  0  0  0  0  0
   21.2974  -18.7823  -17.8380 O   0  0  0  0  0  0  0  0  0  0  0  0
   19.3237  -19.7545  -17.2970 O   0  0  0  0  0  0  0  0  0  0  0  0
  2  3  1  0
  2  1  1  0
  3  5  1  0
  3  4  1  1
  5  6  1  6
  7  5  1  0
  8  7  2  0
  9  7  1  0
 10  9  1  0
 10 11  1  6
 11 12  1  0
 12 13  1  0
 13 14  1  0
 14 15  1  0
 16 10  1  0
 17 16  2  0
 18 19  1  0
 19 21  1  0
 20 19  2  0
 22 21  1  0
 23 22  1  1
 23 24  1  0
 24 16  1  0
 25 23  1  0
 25 26  1  0
 27 25  2  0
M  END
$$$$
