IKQ.pdb
     RDKit          3D

 27 26  0  0  1  0  0  0  0  0999 V2000
   -0.2487  -54.4732  -43.6032 C   0  0  0  0  0  0  0  0  0  0  0  0
    0.3968  -53.1613  -43.3310 C   0  0  0  0  0  0  0  0  0  0  0  0
    0.3951  -52.1912  -44.5034 C   0  0  2  0  0  0  0  0  0  0  0  0
    0.2981  -53.0913  -45.7373 C   0  0  0  0  0  0  0  0  0  0  0  0
    1.6449  -51.3921  -44.4503 C   0  0  2  0  0  0  0  0  0  0  0  0
    1.4332  -50.3365  -43.4451 N   0  0  0  0  0  0  0  0  0  0  0  0
    2.0778  -50.7335  -45.6786 C   0  0  0  0  0  0  0  0  0  0  0  0
    3.3335  -50.5724  -45.8926 O   0  0  0  0  0  0  0  0  0  0  0  0
    1.2666  -50.2246  -46.7190 N   0  0  0  0  0  0  0  0  0  0  0  0
    1.5154  -50.5091  -48.1254 C   0  0  1  0  0  0  0  0  0  0  0  0
    0.9755  -49.3890  -48.9799 C   0  0  0  0  0  0  0  0  0  0  0  0
   -0.1734  -49.7532  -49.8462 C   0  0  0  0  0  0  0  0  0  0  0  0
   -0.1114  -51.1813  -50.3436 C   0  0  0  0  0  0  0  0  0  0  0  0
   -1.3591  -51.5575  -51.0945 C   0  0  0  0  0  0  0  0  0  0  0  0
   -2.3613  -50.4946  -51.0430 N   0  0  0  0  0  0  0  0  0  0  0  0
    2.9362  -50.7023  -48.4196 C   0  0  0  0  0  0  0  0  0  0  0  0
    3.7717  -49.8595  -48.0072 O   0  0  0  0  0  0  0  0  0  0  0  0
   -1.5316  -53.2357  -48.4609 N   0  0  0  0  0  0  0  0  0  0  0  0
   -0.3785  -52.6528  -49.0322 C   0  0  0  0  0  0  0  0  0  0  0  0
   -0.3248  -52.5335  -50.2894 O   0  0  0  0  0  0  0  0  0  0  0  0
    0.7715  -52.1737  -48.2373 C   0  0  0  0  0  0  0  0  0  0  0  0
    1.8293  -53.2488  -48.1211 C   0  0  0  0  0  0  0  0  0  0  0  0
    2.8392  -53.0803  -49.2438 C   0  0  2  0  0  0  0  0  0  0  0  0
    3.4910  -51.7919  -49.1550 N   0  0  0  0  0  0  0  0  0  0  0  0
    2.2136  -53.2029  -50.5701 C   0  0  0  0  0  0  0  0  0  0  0  0
    2.5748  -54.2168  -51.4246 O   0  0  0  0  0  0  0  0  0  0  0  0
    1.3467  -52.3796  -50.9251 O   0  0  0  0  0  0  0  0  0  0  0  0
  2  3  1  0
  2  1  1  0
  3  5  1  0
  3  4  1  6
  5  6  1  1
  7  5  1  0
  8  7  2  0
  9  7  1  0
 10  9  1  0
 10 11  1  6
 11 12  1  0
 12 13  1  0
 13 14  1  0
 14 15  1  0
 16 10  1  0
 17 16  2  0
 18 19  1  0
 19 21  1  0
 20 19  2  0
 22 21  1  0
 23 22  1  1
 23 24  1  0
 24 16  1  0
 25 23  1  0
 25 26  1  0
 27 25  2  0
M  END
$$$$
