FYV.pdb
     RDKit          3D

 31 32  0  0  1  0  0  0  0  0999 V2000
   26.5690  -19.2008  -10.0589 N   0  0  0  0  0  0  0  0  0  0  0  0
   25.7553  -20.3424   -9.7368 C   0  0  1  0  0  0  0  0  0  0  0  0
   25.7409  -20.6186   -8.2443 C   0  0  0  0  0  0  0  0  0  0  0  0
   27.0657  -20.2913   -7.6533 C   0  0  0  0  0  0  0  0  0  0  0  0
   28.1977  -21.0238   -8.0130 C   0  0  0  0  0  0  0  0  0  0  0  0
   29.4204  -20.7248   -7.4699 C   0  0  0  0  0  0  0  0  0  0  0  0
   29.5748  -19.7032   -6.5608 C   0  0  0  0  0  0  0  0  0  0  0  0
   28.4887  -18.9693   -6.1891 C   0  0  0  0  0  0  0  0  0  0  0  0
   27.2645  -19.2784   -6.7412 C   0  0  0  0  0  0  0  0  0  0  0  0
   24.3752  -20.2030  -10.2218 C   0  0  0  0  0  0  0  0  0  0  0  0
   23.5811  -19.4402   -9.6403 O   0  0  0  0  0  0  0  0  0  0  0  0
   18.0006  -18.2684  -15.6455 O   0  0  0  0  0  0  0  0  0  0  0  0
   19.2012  -18.6804  -15.0474 C   0  0  0  0  0  0  0  0  0  0  0  0
   19.8342  -19.8420  -15.4276 C   0  0  0  0  0  0  0  0  0  0  0  0
   21.0077  -20.2294  -14.8318 C   0  0  0  0  0  0  0  0  0  0  0  0
   21.6157  -19.4865  -13.8282 C   0  0  0  0  0  0  0  0  0  0  0  0
   22.8861  -19.9597  -13.2228 C   0  0  0  0  0  0  0  0  0  0  0  0
   22.6436  -20.6842  -11.9030 C   0  0  2  0  0  0  0  0  0  0  0  0
   23.9519  -20.9360  -11.3513 N   0  0  0  0  0  0  0  0  0  0  0  0
   21.8098  -21.8763  -12.0745 C   0  0  0  0  0  0  0  0  0  0  0  0
   22.2311  -22.9495  -12.5712 O   0  0  0  0  0  0  0  0  0  0  0  0
   20.9855  -18.3246  -13.4457 C   0  0  0  0  0  0  0  0  0  0  0  0
   19.7893  -17.9291  -14.0525 C   0  0  0  0  0  0  0  0  0  0  0  0
   17.7247  -24.0541  -10.5531 C   0  0  0  0  0  0  0  0  0  0  0  0
   18.7111  -22.9313  -10.4694 C   0  0  1  0  0  0  0  0  0  0  0  0
   19.5562  -23.1097   -9.2385 C   0  0  0  0  0  0  0  0  0  0  0  0
   19.5605  -22.9605  -11.7452 C   0  0  2  0  0  0  0  0  0  0  0  0
   20.4550  -21.8316  -11.6614 N   0  0  0  0  0  0  0  0  0  0  0  0
   18.6087  -22.7251  -12.8554 C   0  0  0  0  0  0  0  0  0  0  0  0
   18.2900  -23.7282  -13.7536 O   0  0  0  0  0  0  0  0  0  0  0  0
   18.0489  -21.5995  -13.0290 O   0  0  0  0  0  0  0  0  0  0  0  0
  2  1  1  1
  2  3  1  0
  2 10  1  0
  3  4  1  0
  4  9  1  0
  4  5  2  0
  5  6  1  0
  6  7  2  0
  8  7  1  0
  9  8  2  0
 10 11  2  0
 13 12  1  0
 13 14  2  0
 15 14  1  0
 16 15  2  0
 17 16  1  0
 18 17  1  6
 19 18  1  0
 19 10  1  0
 20 28  1  0
 20 18  1  0
 21 20  2  0
 22 23  2  0
 22 16  1  0
 23 13  1  0
 25 24  1  6
 26 25  1  0
 27 28  1  1
 27 25  1  0
 29 27  1  0
 30 29  1  0
 31 29  2  0
M  END
$$$$
