FYV.pdb
     RDKit          3D

 31 32  0  0  1  0  0  0  0  0999 V2000
   26.2698  -19.4896  -16.2752 N   0  0  0  0  0  0  0  0  0  0  0  0
   27.1197  -19.3108  -15.1286 C   0  0  1  0  0  0  0  0  0  0  0  0
   27.9514  -18.0458  -15.2380 C   0  0  0  0  0  0  0  0  0  0  0  0
   28.7666  -18.0784  -16.4813 C   0  0  0  0  0  0  0  0  0  0  0  0
   29.8721  -18.9244  -16.5766 C   0  0  0  0  0  0  0  0  0  0  0  0
   30.6259  -18.9569  -17.7213 C   0  0  0  0  0  0  0  0  0  0  0  0
   30.3234  -18.1656  -18.8059 C   0  0  0  0  0  0  0  0  0  0  0  0
   29.2500  -17.3287  -18.7442 C   0  0  0  0  0  0  0  0  0  0  0  0
   28.4994  -17.3041  -17.5888 C   0  0  0  0  0  0  0  0  0  0  0  0
   26.3652  -19.2928  -13.8678 C   0  0  0  0  0  0  0  0  0  0  0  0
   25.4191  -18.4975  -13.7154 O   0  0  0  0  0  0  0  0  0  0  0  0
   19.4246  -19.3372  -11.5998 O   0  0  0  0  0  0  0  0  0  0  0  0
   20.7177  -19.8311  -11.8297 C   0  0  0  0  0  0  0  0  0  0  0  0
   21.3719  -20.6008  -10.8947 C   0  0  0  0  0  0  0  0  0  0  0  0
   22.6361  -21.0753  -11.1364 C   0  0  0  0  0  0  0  0  0  0  0  0
   23.3187  -20.8124  -12.3170 C   0  0  0  0  0  0  0  0  0  0  0  0
   24.6859  -21.3551  -12.5186 C   0  0  0  0  0  0  0  0  0  0  0  0
   25.7378  -20.5017  -11.8181 C   0  0  2  0  0  0  0  0  0  0  0  0
   26.7154  -20.1817  -12.8289 N   0  0  0  0  0  0  0  0  0  0  0  0
   26.2791  -21.1620  -10.6278 C   0  0  0  0  0  0  0  0  0  0  0  0
   26.6802  -22.3517  -10.6189 O   0  0  0  0  0  0  0  0  0  0  0  0
   22.6676  -20.0432  -13.2540 C   0  0  0  0  0  0  0  0  0  0  0  0
   21.3789  -19.5592  -13.0083 C   0  0  0  0  0  0  0  0  0  0  0  0
   28.7480  -19.7866   -8.0434 C   0  0  0  0  0  0  0  0  0  0  0  0
   27.4452  -20.0038   -7.3389 C   0  0  1  0  0  0  0  0  0  0  0  0
   26.7116  -18.6944   -7.2468 C   0  0  0  0  0  0  0  0  0  0  0  0
   26.6491  -21.0407   -8.1396 C   0  0  2  0  0  0  0  0  0  0  0  0
   26.3619  -20.4324   -9.4159 N   0  0  0  0  0  0  0  0  0  0  0  0
   25.3756  -21.2116   -7.4028 C   0  0  0  0  0  0  0  0  0  0  0  0
   25.2945  -22.0264   -6.2874 O   0  0  0  0  0  0  0  0  0  0  0  0
   24.3110  -20.6216   -7.7617 O   0  0  0  0  0  0  0  0  0  0  0  0
  2  1  1  6
  2  3  1  0
  2 10  1  0
  3  4  1  0
  4  9  1  0
  4  5  2  0
  5  6  1  0
  6  7  2  0
  8  7  1  0
  9  8  2  0
 10 11  2  0
 13 12  1  0
 13 14  2  0
 15 14  1  0
 16 15  2  0
 17 16  1  0
 18 17  1  6
 19 18  1  0
 19 10  1  0
 20 28  1  0
 20 18  1  0
 21 20  2  0
 22 23  2  0
 22 16  1  0
 23 13  1  0
 25 24  1  6
 26 25  1  0
 27 28  1  6
 27 25  1  0
 29 27  1  0
 30 29  1  0
 31 29  2  0
M  END
$$$$
