FYV.pdb
     RDKit          3D

 31 32  0  0  1  0  0  0  0  0999 V2000
   28.3480  -19.6838  -18.5930 N   0  0  0  0  0  0  0  0  0  0  0  0
   28.0189  -20.0519  -17.2420 C   0  0  1  0  0  0  0  0  0  0  0  0
   28.9563  -19.4040  -16.2393 C   0  0  0  0  0  0  0  0  0  0  0  0
   28.4628  -19.6383  -14.8561 C   0  0  0  0  0  0  0  0  0  0  0  0
   28.7107  -20.8533  -14.2162 C   0  0  0  0  0  0  0  0  0  0  0  0
   28.2572  -21.0726  -12.9412 C   0  0  0  0  0  0  0  0  0  0  0  0
   27.5490  -20.1137  -12.2534 C   0  0  0  0  0  0  0  0  0  0  0  0
   27.2905  -18.9167  -12.8507 C   0  0  0  0  0  0  0  0  0  0  0  0
   27.7511  -18.7070  -14.1324 C   0  0  0  0  0  0  0  0  0  0  0  0
   26.6290  -19.7258  -16.8939 C   0  0  0  0  0  0  0  0  0  0  0  0
   26.1480  -18.6205  -17.2064 O   0  0  0  0  0  0  0  0  0  0  0  0
   18.3322  -18.5479  -16.2746 O   0  0  0  0  0  0  0  0  0  0  0  0
   19.6481  -18.9871  -16.4851 C   0  0  0  0  0  0  0  0  0  0  0  0
   20.6927  -18.0996  -16.6098 C   0  0  0  0  0  0  0  0  0  0  0  0
   21.9732  -18.5469  -16.8153 C   0  0  0  0  0  0  0  0  0  0  0  0
   22.2861  -19.8968  -16.9081 C   0  0  0  0  0  0  0  0  0  0  0  0
   23.6924  -20.3174  -17.1314 C   0  0  0  0  0  0  0  0  0  0  0  0
   24.4904  -20.3216  -15.8319 C   0  0  2  0  0  0  0  0  0  0  0  0
   25.8390  -20.6708  -16.2046 N   0  0  0  0  0  0  0  0  0  0  0  0
   23.8885  -21.1920  -14.8190 C   0  0  0  0  0  0  0  0  0  0  0  0
   23.8545  -22.4433  -14.9142 O   0  0  0  0  0  0  0  0  0  0  0  0
   21.2441  -20.7869  -16.7839 C   0  0  0  0  0  0  0  0  0  0  0  0
   19.9386  -20.3317  -16.5744 C   0  0  0  0  0  0  0  0  0  0  0  0
   24.7689  -20.8690  -11.2860 C   0  0  0  0  0  0  0  0  0  0  0  0
   23.2782  -20.7337  -11.2874 C   0  0  1  0  0  0  0  0  0  0  0  0
   22.9165  -19.2764  -11.2047 C   0  0  0  0  0  0  0  0  0  0  0  0
   22.7530  -21.3724  -12.5782 C   0  0  2  0  0  0  0  0  0  0  0  0
   23.3118  -20.6056  -13.6651 N   0  0  0  0  0  0  0  0  0  0  0  0
   21.2879  -21.1563  -12.5547 C   0  0  0  0  0  0  0  0  0  0  0  0
   20.4419  -22.0379  -11.9053 O   0  0  0  0  0  0  0  0  0  0  0  0
   20.7496  -20.1593  -13.1263 O   0  0  0  0  0  0  0  0  0  0  0  0
  2  1  1  6
  2  3  1  0
  2 10  1  0
  3  4  1  0
  4  9  1  0
  4  5  2  0
  5  6  1  0
  6  7  2  0
  8  7  1  0
  9  8  2  0
 10 11  2  0
 13 12  1  0
 13 14  2  0
 15 14  1  0
 16 15  2  0
 17 16  1  0
 18 17  1  6
 19 18  1  0
 19 10  1  0
 20 28  1  0
 20 18  1  0
 21 20  2  0
 22 23  2  0
 22 16  1  0
 23 13  1  0
 25 24  1  6
 26 25  1  0
 27 28  1  6
 27 25  1  0
 29 27  1  0
 30 29  1  0
 31 29  2  0
M  END
$$$$
