FYV.pdb
     RDKit          3D

 31 32  0  0  1  0  0  0  0  0999 V2000
   24.4085  -18.2251  -17.9205 N   0  0  0  0  0  0  0  0  0  0  0  0
   24.3973  -18.7117  -16.5669 C   0  0  1  0  0  0  0  0  0  0  0  0
   25.1490  -17.7835  -15.6302 C   0  0  0  0  0  0  0  0  0  0  0  0
   26.5804  -17.7101  -16.0268 C   0  0  0  0  0  0  0  0  0  0  0  0
   27.3994  -18.8347  -15.9196 C   0  0  0  0  0  0  0  0  0  0  0  0
   28.7194  -18.7705  -16.2842 C   0  0  0  0  0  0  0  0  0  0  0  0
   29.2789  -17.6081  -16.7638 C   0  0  0  0  0  0  0  0  0  0  0  0
   28.5053  -16.4925  -16.8804 C   0  0  0  0  0  0  0  0  0  0  0  0
   27.1799  -16.5684  -16.5111 C   0  0  0  0  0  0  0  0  0  0  0  0
   23.0353  -18.9228  -16.0574 C   0  0  0  0  0  0  0  0  0  0  0  0
   22.2456  -17.9644  -15.9652 O   0  0  0  0  0  0  0  0  0  0  0  0
   19.5956  -17.6947  -20.7652 O   0  0  0  0  0  0  0  0  0  0  0  0
   19.8313  -18.5418  -19.6717 C   0  0  0  0  0  0  0  0  0  0  0  0
   18.9476  -18.6233  -18.6197 C   0  0  0  0  0  0  0  0  0  0  0  0
   19.1942  -19.4571  -17.5586 C   0  0  0  0  0  0  0  0  0  0  0  0
   20.3292  -20.2539  -17.4839 C   0  0  0  0  0  0  0  0  0  0  0  0
   20.5389  -21.1358  -16.3081 C   0  0  0  0  0  0  0  0  0  0  0  0
   21.2796  -20.4124  -15.1884 C   0  0  2  0  0  0  0  0  0  0  0  0
   22.6235  -20.2172  -15.6736 N   0  0  0  0  0  0  0  0  0  0  0  0
   21.1849  -21.1278  -13.9137 C   0  0  0  0  0  0  0  0  0  0  0  0
   21.7806  -22.2081  -13.6809 O   0  0  0  0  0  0  0  0  0  0  0  0
   21.2149  -20.1750  -18.5340 C   0  0  0  0  0  0  0  0  0  0  0  0
   20.9642  -19.3252  -19.6160 C   0  0  0  0  0  0  0  0  0  0  0  0
   21.1206  -19.0778  -10.6412 C   0  0  0  0  0  0  0  0  0  0  0  0
   19.9621  -20.0250  -10.6028 C   0  0  1  0  0  0  0  0  0  0  0  0
   18.7118  -19.2891  -10.9985 C   0  0  0  0  0  0  0  0  0  0  0  0
   20.2683  -21.1757  -11.5683 C   0  0  2  0  0  0  0  0  0  0  0  0
   20.3840  -20.5838  -12.8790 N   0  0  0  0  0  0  0  0  0  0  0  0
   19.0637  -22.0373  -11.5460 C   0  0  0  0  0  0  0  0  0  0  0  0
   18.9044  -23.0250  -10.5902 O   0  0  0  0  0  0  0  0  0  0  0  0
   18.1323  -21.9069  -12.3980 O   0  0  0  0  0  0  0  0  0  0  0  0
  2  1  1  6
  2  3  1  0
  2 10  1  0
  3  4  1  0
  4  9  1  0
  4  5  2  0
  5  6  1  0
  6  7  2  0
  8  7  1  0
  9  8  2  0
 10 11  2  0
 13 12  1  0
 13 14  2  0
 15 14  1  0
 16 15  2  0
 17 16  1  0
 18 17  1  6
 19 18  1  0
 19 10  1  0
 20 28  1  0
 20 18  1  0
 21 20  2  0
 22 23  2  0
 22 16  1  0
 23 13  1  0
 25 24  1  6
 26 25  1  0
 27 28  1  6
 27 25  1  0
 29 27  1  0
 30 29  1  0
 31 29  2  0
M  END
$$$$
