FYV.pdb
     RDKit          3D

 31 32  0  0  1  0  0  0  0  0999 V2000
   25.6452  -21.4204   -6.8433 N   0  0  0  0  0  0  0  0  0  0  0  0
   26.2584  -20.5707   -7.8287 C   0  0  1  0  0  0  0  0  0  0  0  0
   27.7686  -20.5376   -7.6802 C   0  0  0  0  0  0  0  0  0  0  0  0
   28.1394  -19.8945   -6.3916 C   0  0  0  0  0  0  0  0  0  0  0  0
   27.8361  -18.5520   -6.1616 C   0  0  0  0  0  0  0  0  0  0  0  0
   28.1765  -17.9560   -4.9749 C   0  0  0  0  0  0  0  0  0  0  0  0
   28.8224  -18.6516   -3.9783 C   0  0  0  0  0  0  0  0  0  0  0  0
   29.1325  -19.9641   -4.1723 C   0  0  0  0  0  0  0  0  0  0  0  0
   28.7856  -20.5531   -5.3688 C   0  0  0  0  0  0  0  0  0  0  0  0
   25.9104  -20.9614   -9.2018 C   0  0  0  0  0  0  0  0  0  0  0  0
   26.3575  -22.0187   -9.6845 O   0  0  0  0  0  0  0  0  0  0  0  0
   21.9959  -21.0011  -17.1047 O   0  0  0  0  0  0  0  0  0  0  0  0
   22.3337  -20.8114  -15.7561 C   0  0  0  0  0  0  0  0  0  0  0  0
   22.4979  -19.5524  -15.2246 C   0  0  0  0  0  0  0  0  0  0  0  0
   22.8283  -19.3857  -13.9036 C   0  0  0  0  0  0  0  0  0  0  0  0
   23.0133  -20.4572  -13.0398 C   0  0  0  0  0  0  0  0  0  0  0  0
   23.3702  -20.2108  -11.6199 C   0  0  0  0  0  0  0  0  0  0  0  0
   24.8550  -20.4473  -11.3648 C   0  0  2  0  0  0  0  0  0  0  0  0
   25.0654  -20.1345   -9.9729 N   0  0  0  0  0  0  0  0  0  0  0  0
   25.7001  -19.6974  -12.2971 C   0  0  0  0  0  0  0  0  0  0  0  0
   25.9116  -18.4638  -12.1999 O   0  0  0  0  0  0  0  0  0  0  0  0
   22.8499  -21.7174  -13.5678 C   0  0  0  0  0  0  0  0  0  0  0  0
   22.5131  -21.8881  -14.9143 C   0  0  0  0  0  0  0  0  0  0  0  0
   29.1121  -20.3288  -12.8723 C   0  0  0  0  0  0  0  0  0  0  0  0
   28.5321  -20.5381  -14.2363 C   0  0  1  0  0  0  0  0  0  0  0  0
   28.3147  -22.0095  -14.4577 C   0  0  0  0  0  0  0  0  0  0  0  0
   27.2152  -19.7568  -14.3081 C   0  0  2  0  0  0  0  0  0  0  0  0
   26.3194  -20.3870  -13.3690 N   0  0  0  0  0  0  0  0  0  0  0  0
   26.6980  -19.9850  -15.6772 C   0  0  0  0  0  0  0  0  0  0  0  0
   27.2289  -19.3171  -16.7664 O   0  0  0  0  0  0  0  0  0  0  0  0
   25.7512  -20.7980  -15.9075 O   0  0  0  0  0  0  0  0  0  0  0  0
  2  1  1  1
  2  3  1  0
  2 10  1  0
  3  4  1  0
  4  9  1  0
  4  5  2  0
  5  6  1  0
  6  7  2  0
  8  7  1  0
  9  8  2  0
 10 11  2  0
 13 12  1  0
 13 14  2  0
 15 14  1  0
 16 15  2  0
 17 16  1  0
 18 17  1  6
 19 18  1  0
 19 10  1  0
 20 28  1  0
 20 18  1  0
 21 20  2  0
 22 23  2  0
 22 16  1  0
 23 13  1  0
 25 24  1  1
 26 25  1  0
 27 28  1  1
 27 25  1  0
 29 27  1  0
 30 29  1  0
 31 29  2  0
M  END
$$$$
