FYV.pdb
     RDKit          3D

 31 32  0  0  1  0  0  0  0  0999 V2000
   28.7949  -22.9589  -12.8556 N   0  0  0  0  0  0  0  0  0  0  0  0
   28.2989  -22.1267  -11.7924 C   0  0  1  0  0  0  0  0  0  0  0  0
   29.1551  -20.8877  -11.6032 C   0  0  0  0  0  0  0  0  0  0  0  0
   30.3093  -21.1969  -10.7179 C   0  0  0  0  0  0  0  0  0  0  0  0
   30.2110  -21.0041   -9.3394 C   0  0  0  0  0  0  0  0  0  0  0  0
   31.2732  -21.2880   -8.5204 C   0  0  0  0  0  0  0  0  0  0  0  0
   32.4616  -21.7679   -9.0218 C   0  0  0  0  0  0  0  0  0  0  0  0
   32.5892  -21.9669  -10.3637 C   0  0  0  0  0  0  0  0  0  0  0  0
   31.5153  -21.6782  -11.1775 C   0  0  0  0  0  0  0  0  0  0  0  0
   26.8997  -21.7278  -11.9977 C   0  0  0  0  0  0  0  0  0  0  0  0
   26.3679  -21.8616  -13.1157 O   0  0  0  0  0  0  0  0  0  0  0  0
   18.5636  -19.9955   -9.5317 O   0  0  0  0  0  0  0  0  0  0  0  0
   19.9616  -20.1043   -9.5849 C   0  0  0  0  0  0  0  0  0  0  0  0
   20.6379  -21.0612   -8.8629 C   0  0  0  0  0  0  0  0  0  0  0  0
   22.0052  -21.1531   -8.9271 C   0  0  0  0  0  0  0  0  0  0  0  0
   22.7742  -20.3019   -9.7098 C   0  0  0  0  0  0  0  0  0  0  0  0
   24.2510  -20.4525   -9.7365 C   0  0  0  0  0  0  0  0  0  0  0  0
   24.7330  -21.0270  -11.0644 C   0  0  2  0  0  0  0  0  0  0  0  0
   26.1584  -21.1931  -10.9221 N   0  0  0  0  0  0  0  0  0  0  0  0
   24.3217  -20.2021  -12.2029 C   0  0  0  0  0  0  0  0  0  0  0  0
   24.7714  -19.0504  -12.4209 O   0  0  0  0  0  0  0  0  0  0  0  0
   22.1013  -19.3439  -10.4330 C   0  0  0  0  0  0  0  0  0  0  0  0
   20.7076  -19.2497  -10.3681 C   0  0  0  0  0  0  0  0  0  0  0  0
   24.6196  -20.6833  -15.7132 C   0  0  0  0  0  0  0  0  0  0  0  0
   23.1418  -20.7538  -15.4858 C   0  0  1  0  0  0  0  0  0  0  0  0
   22.7333  -22.1946  -15.3500 C   0  0  0  0  0  0  0  0  0  0  0  0
   22.8268  -19.9566  -14.2149 C   0  0  2  0  0  0  0  0  0  0  0  0
   23.3682  -20.7179  -13.1154 N   0  0  0  0  0  0  0  0  0  0  0  0
   21.3496  -19.9591  -14.1065 C   0  0  0  0  0  0  0  0  0  0  0  0
   20.5788  -19.0208  -14.7699 O   0  0  0  0  0  0  0  0  0  0  0  0
   20.7321  -20.8168  -13.4041 O   0  0  0  0  0  0  0  0  0  0  0  0
  2  1  1  6
  2  3  1  0
  2 10  1  0
  3  4  1  0
  4  9  1  0
  4  5  2  0
  5  6  1  0
  6  7  2  0
  8  7  1  0
  9  8  2  0
 10 11  2  0
 13 12  1  0
 13 14  2  0
 15 14  1  0
 16 15  2  0
 17 16  1  0
 18 17  1  1
 19 18  1  0
 19 10  1  0
 20 28  1  0
 20 18  1  0
 21 20  2  0
 22 23  2  0
 22 16  1  0
 23 13  1  0
 25 24  1  1
 26 25  1  0
 27 28  1  1
 27 25  1  0
 29 27  1  0
 30 29  1  0
 31 29  2  0
M  END
$$$$
