FYV.pdb
     RDKit          3D

 31 32  0  0  1  0  0  0  0  0999 V2000
   22.5999   -9.7664  -16.8593 N   0  0  0  0  0  0  0  0  0  0  0  0
   22.7669   -9.1044  -15.5932 C   0  0  1  0  0  0  0  0  0  0  0  0
   23.9572   -8.1625  -15.6047 C   0  0  0  0  0  0  0  0  0  0  0  0
   25.2097   -8.9280  -15.8429 C   0  0  0  0  0  0  0  0  0  0  0  0
   25.9693   -8.6963  -16.9902 C   0  0  0  0  0  0  0  0  0  0  0  0
   27.1244   -9.4003  -17.2130 C   0  0  0  0  0  0  0  0  0  0  0  0
   27.5721  -10.3504  -16.3236 C   0  0  0  0  0  0  0  0  0  0  0  0
   26.8528  -10.5999  -15.1937 C   0  0  0  0  0  0  0  0  0  0  0  0
   25.6934   -9.8865  -14.9798 C   0  0  0  0  0  0  0  0  0  0  0  0
   21.5640   -8.3676  -15.1818 C   0  0  0  0  0  0  0  0  0  0  0  0
   20.7111   -8.0389  -16.0275 O   0  0  0  0  0  0  0  0  0  0  0  0
   15.2215   -5.2018   -9.9592 O   0  0  0  0  0  0  0  0  0  0  0  0
   16.3905   -5.8041  -10.4485 C   0  0  0  0  0  0  0  0  0  0  0  0
   16.3425   -6.8530  -11.3384 C   0  0  0  0  0  0  0  0  0  0  0  0
   17.4958   -7.4298  -11.8065 C   0  0  0  0  0  0  0  0  0  0  0  0
   18.7572   -6.9980  -11.4176 C   0  0  0  0  0  0  0  0  0  0  0  0
   19.9680   -7.6642  -11.9603 C   0  0  0  0  0  0  0  0  0  0  0  0
   20.1843   -7.3244  -13.4311 C   0  0  2  0  0  0  0  0  0  0  0  0
   21.3769   -8.0341  -13.8231 N   0  0  0  0  0  0  0  0  0  0  0  0
   20.2266   -5.8785  -13.6617 C   0  0  0  0  0  0  0  0  0  0  0  0
   21.1798   -5.1474  -13.2968 O   0  0  0  0  0  0  0  0  0  0  0  0
   18.8089   -5.9495  -10.5280 C   0  0  0  0  0  0  0  0  0  0  0  0
   17.6337   -5.3610  -10.0504 C   0  0  0  0  0  0  0  0  0  0  0  0
   17.7571   -4.4168  -16.5779 C   0  0  0  0  0  0  0  0  0  0  0  0
   18.9901   -3.6988  -16.1252 C   0  0  1  0  0  0  0  0  0  0  0  0
   18.8996   -2.2563  -16.5402 C   0  0  0  0  0  0  0  0  0  0  0  0
   19.0805   -3.8423  -14.6016 C   0  0  2  0  0  0  0  0  0  0  0  0
   19.1430   -5.2582  -14.3319 N   0  0  0  0  0  0  0  0  0  0  0  0
   17.7953   -3.3207  -14.0817 C   0  0  0  0  0  0  0  0  0  0  0  0
   16.7277   -4.1636  -13.8282 O   0  0  0  0  0  0  0  0  0  0  0  0
   17.6200   -2.0857  -13.8487 O   0  0  0  0  0  0  0  0  0  0  0  0
  2  1  1  6
  2  3  1  0
  2 10  1  0
  3  4  1  0
  4  9  1  0
  4  5  2  0
  5  6  1  0
  6  7  2  0
  8  7  1  0
  9  8  2  0
 10 11  2  0
 13 12  1  0
 13 14  2  0
 15 14  1  0
 16 15  2  0
 17 16  1  0
 18 17  1  1
 19 18  1  0
 19 10  1  0
 20 28  1  0
 20 18  1  0
 21 20  2  0
 22 23  2  0
 22 16  1  0
 23 13  1  0
 25 24  1  1
 26 25  1  0
 27 28  1  6
 27 25  1  0
 29 27  1  0
 30 29  1  0
 31 29  2  0
M  END
$$$$
