FYV.pdb
     RDKit          3D

 31 32  0  0  1  0  0  0  0  0999 V2000
   26.5079  -23.2457  -18.6130 N   0  0  0  0  0  0  0  0  0  0  0  0
   26.0624  -21.9941  -18.0616 C   0  0  1  0  0  0  0  0  0  0  0  0
   25.0932  -21.2847  -18.9897 C   0  0  0  0  0  0  0  0  0  0  0  0
   25.8026  -20.8290  -20.2147 C   0  0  0  0  0  0  0  0  0  0  0  0
   26.4946  -19.6173  -20.2181 C   0  0  0  0  0  0  0  0  0  0  0  0
   27.1496  -19.1941  -21.3456 C   0  0  0  0  0  0  0  0  0  0  0  0
   27.1487  -19.9400  -22.5022 C   0  0  0  0  0  0  0  0  0  0  0  0
   26.4820  -21.1279  -22.5310 C   0  0  0  0  0  0  0  0  0  0  0  0
   25.8272  -21.5436  -21.3920 C   0  0  0  0  0  0  0  0  0  0  0  0
   25.4451  -22.1519  -16.7375 C   0  0  0  0  0  0  0  0  0  0  0  0
   24.6343  -23.0740  -16.5304 O   0  0  0  0  0  0  0  0  0  0  0  0
   23.6938  -20.8661   -8.1822 O   0  0  0  0  0  0  0  0  0  0  0  0
   24.2382  -20.7959   -9.4735 C   0  0  0  0  0  0  0  0  0  0  0  0
   25.1952  -21.6877   -9.9015 C   0  0  0  0  0  0  0  0  0  0  0  0
   25.7166  -21.6041  -11.1677 C   0  0  0  0  0  0  0  0  0  0  0  0
   25.3173  -20.6327  -12.0763 C   0  0  0  0  0  0  0  0  0  0  0  0
   25.9198  -20.5950  -13.4327 C   0  0  0  0  0  0  0  0  0  0  0  0
   25.0529  -21.3254  -14.4528 C   0  0  2  0  0  0  0  0  0  0  0  0
   25.7753  -21.2548  -15.6989 N   0  0  0  0  0  0  0  0  0  0  0  0
   23.6905  -20.7895  -14.5018 C   0  0  0  0  0  0  0  0  0  0  0  0
   23.4125  -19.6452  -14.9368 O   0  0  0  0  0  0  0  0  0  0  0  0
   24.3606  -19.7394  -11.6517 C   0  0  0  0  0  0  0  0  0  0  0  0
   23.8287  -19.8240  -10.3612 C   0  0  0  0  0  0  0  0  0  0  0  0
   18.9893  -21.7337  -14.6885 C   0  0  0  0  0  0  0  0  0  0  0  0
   20.4277  -22.1334  -14.7977 C   0  0  1  0  0  0  0  0  0  0  0  0
   20.8326  -22.1227  -16.2458 C   0  0  0  0  0  0  0  0  0  0  0  0
   21.2524  -21.1371  -13.9746 C   0  0  2  0  0  0  0  0  0  0  0  0
   22.6195  -21.5937  -14.0388 N   0  0  0  0  0  0  0  0  0  0  0  0
   20.7715  -21.2865  -12.5817 C   0  0  0  0  0  0  0  0  0  0  0  0
   21.2728  -22.2724  -11.7503 O   0  0  0  0  0  0  0  0  0  0  0  0
   19.8840  -20.5212  -12.0948 O   0  0  0  0  0  0  0  0  0  0  0  0
  2  1  1  6
  2  3  1  0
  2 10  1  0
  3  4  1  0
  4  9  1  0
  4  5  2  0
  5  6  1  0
  6  7  2  0
  8  7  1  0
  9  8  2  0
 10 11  2  0
 13 12  1  0
 13 14  2  0
 15 14  1  0
 16 15  2  0
 17 16  1  0
 18 17  1  1
 19 18  1  0
 19 10  1  0
 20 28  1  0
 20 18  1  0
 21 20  2  0
 22 23  2  0
 22 16  1  0
 23 13  1  0
 25 24  1  6
 26 25  1  0
 27 28  1  1
 27 25  1  0
 29 27  1  0
 30 29  1  0
 31 29  2  0
M  END
$$$$
