FYV.pdb
     RDKit          3D

 31 32  0  0  1  0  0  0  0  0999 V2000
   21.6392   -8.9438  -19.3623 N   0  0  0  0  0  0  0  0  0  0  0  0
   21.6176   -7.5070  -19.4273 C   0  0  1  0  0  0  0  0  0  0  0  0
   20.7414   -7.0094  -20.5625 C   0  0  0  0  0  0  0  0  0  0  0  0
   21.3563   -7.3585  -21.8708 C   0  0  0  0  0  0  0  0  0  0  0  0
   22.6573   -6.9512  -22.1685 C   0  0  0  0  0  0  0  0  0  0  0  0
   23.2271   -7.2712  -23.3736 C   0  0  0  0  0  0  0  0  0  0  0  0
   22.5450   -7.9973  -24.3231 C   0  0  0  0  0  0  0  0  0  0  0  0
   21.2728   -8.4098  -24.0626 C   0  0  0  0  0  0  0  0  0  0  0  0
   20.7099   -8.0826  -22.8481 C   0  0  0  0  0  0  0  0  0  0  0  0
   21.1788   -6.8944  -18.1659 C   0  0  0  0  0  0  0  0  0  0  0  0
   20.3094   -7.4503  -17.4689 O   0  0  0  0  0  0  0  0  0  0  0  0
   23.9913  -10.5834  -14.4417 O   0  0  0  0  0  0  0  0  0  0  0  0
   23.6328   -9.2550  -14.7168 C   0  0  0  0  0  0  0  0  0  0  0  0
   24.2345   -8.5408  -15.7278 C   0  0  0  0  0  0  0  0  0  0  0  0
   23.8714   -7.2426  -15.9827 C   0  0  0  0  0  0  0  0  0  0  0  0
   22.8931   -6.5839  -15.2495 C   0  0  0  0  0  0  0  0  0  0  0  0
   22.5450   -5.1777  -15.5747 C   0  0  0  0  0  0  0  0  0  0  0  0
   21.3284   -5.0978  -16.4907 C   0  0  2  0  0  0  0  0  0  0  0  0
   21.7473   -5.6729  -17.7450 N   0  0  0  0  0  0  0  0  0  0  0  0
   20.7998   -3.7350  -16.5863 C   0  0  0  0  0  0  0  0  0  0  0  0
   21.4608   -2.7666  -17.0350 O   0  0  0  0  0  0  0  0  0  0  0  0
   22.2894   -7.2949  -14.2378 C   0  0  0  0  0  0  0  0  0  0  0  0
   22.6590   -8.6182  -13.9774 C   0  0  0  0  0  0  0  0  0  0  0  0
   17.8370   -2.8595  -18.4459 C   0  0  0  0  0  0  0  0  0  0  0  0
   17.5029   -2.4776  -17.0376 C   0  0  1  0  0  0  0  0  0  0  0  0
   16.7339   -3.5979  -16.3935 C   0  0  0  0  0  0  0  0  0  0  0  0
   18.8205   -2.2034  -16.3036 C   0  0  2  0  0  0  0  0  0  0  0  0
   19.4740   -3.4811  -16.1552 N   0  0  0  0  0  0  0  0  0  0  0  0
   18.4274   -1.7173  -14.9608 C   0  0  0  0  0  0  0  0  0  0  0  0
   18.1177   -0.3869  -14.7405 O   0  0  0  0  0  0  0  0  0  0  0  0
   18.3590   -2.4962  -13.9612 O   0  0  0  0  0  0  0  0  0  0  0  0
  2  1  1  1
  2  3  1  0
  2 10  1  0
  3  4  1  0
  4  9  1  0
  4  5  2  0
  5  6  1  0
  6  7  2  0
  8  7  1  0
  9  8  2  0
 10 11  2  0
 13 12  1  0
 13 14  2  0
 15 14  1  0
 16 15  2  0
 17 16  1  0
 18 17  1  1
 19 18  1  0
 19 10  1  0
 20 28  1  0
 20 18  1  0
 21 20  2  0
 22 23  2  0
 22 16  1  0
 23 13  1  0
 25 24  1  6
 26 25  1  0
 27 28  1  1
 27 25  1  0
 29 27  1  0
 30 29  1  0
 31 29  2  0
M  END
$$$$
