FYV.pdb
     RDKit          3D

 31 32  0  0  1  0  0  0  0  0999 V2000
   21.7030   -8.9209  -19.5176 N   0  0  0  0  0  0  0  0  0  0  0  0
   22.0532   -7.5415  -19.7266 C   0  0  1  0  0  0  0  0  0  0  0  0
   21.4875   -7.0099  -21.0309 C   0  0  0  0  0  0  0  0  0  0  0  0
   22.1450   -7.6827  -22.1827 C   0  0  0  0  0  0  0  0  0  0  0  0
   23.4577   -7.3615  -22.5303 C   0  0  0  0  0  0  0  0  0  0  0  0
   24.0668   -7.9797  -23.5916 C   0  0  0  0  0  0  0  0  0  0  0  0
   23.4137   -8.9289  -24.3443 C   0  0  0  0  0  0  0  0  0  0  0  0
   22.1311   -9.2646  -24.0303 C   0  0  0  0  0  0  0  0  0  0  0  0
   21.5286   -8.6370  -22.9617 C   0  0  0  0  0  0  0  0  0  0  0  0
   21.6216   -6.6785  -18.6184 C   0  0  0  0  0  0  0  0  0  0  0  0
   20.5656   -6.9260  -18.0066 O   0  0  0  0  0  0  0  0  0  0  0  0
   22.3924  -10.0479  -13.5236 O   0  0  0  0  0  0  0  0  0  0  0  0
   22.5446   -8.7968  -14.1406 C   0  0  0  0  0  0  0  0  0  0  0  0
   23.4331   -8.6066  -15.1744 C   0  0  0  0  0  0  0  0  0  0  0  0
   23.5688   -7.3763  -15.7660 C   0  0  0  0  0  0  0  0  0  0  0  0
   22.8315   -6.2699  -15.3646 C   0  0  0  0  0  0  0  0  0  0  0  0
   23.0244   -4.9647  -16.0454 C   0  0  0  0  0  0  0  0  0  0  0  0
   21.9873   -4.7442  -17.1414 C   0  0  2  0  0  0  0  0  0  0  0  0
   22.4092   -5.5673  -18.2477 N   0  0  0  0  0  0  0  0  0  0  0  0
   21.8180   -3.3249  -17.4617 C   0  0  0  0  0  0  0  0  0  0  0  0
   22.7284   -2.6131  -17.9521 O   0  0  0  0  0  0  0  0  0  0  0  0
   21.9423   -6.4566  -14.3312 C   0  0  0  0  0  0  0  0  0  0  0  0
   21.8034   -7.7104  -13.7277 C   0  0  0  0  0  0  0  0  0  0  0  0
   19.0291   -2.1740  -19.5698 C   0  0  0  0  0  0  0  0  0  0  0  0
   18.8740   -1.4222  -18.2847 C   0  0  1  0  0  0  0  0  0  0  0  0
   17.8673   -2.1291  -17.4197 C   0  0  0  0  0  0  0  0  0  0  0  0
   20.2500   -1.3597  -17.6118 C   0  0  2  0  0  0  0  0  0  0  0  0
   20.5662   -2.7094  -17.2120 N   0  0  0  0  0  0  0  0  0  0  0  0
   20.0535   -0.5418  -16.3927 C   0  0  0  0  0  0  0  0  0  0  0  0
   20.1035    0.8402  -16.4388 O   0  0  0  0  0  0  0  0  0  0  0  0
   19.8328   -1.0711  -15.2607 O   0  0  0  0  0  0  0  0  0  0  0  0
  2  1  1  1
  2  3  1  0
  2 10  1  0
  3  4  1  0
  4  9  1  0
  4  5  2  0
  5  6  1  0
  6  7  2  0
  8  7  1  0
  9  8  2  0
 10 11  2  0
 13 12  1  0
 13 14  2  0
 15 14  1  0
 16 15  2  0
 17 16  1  0
 18 17  1  1
 19 18  1  0
 19 10  1  0
 20 28  1  0
 20 18  1  0
 21 20  2  0
 22 23  2  0
 22 16  1  0
 23 13  1  0
 25 24  1  6
 26 25  1  0
 27 28  1  1
 27 25  1  0
 29 27  1  0
 30 29  1  0
 31 29  2  0
M  END
$$$$
