FYV.pdb
     RDKit          3D

 31 32  0  0  1  0  0  0  0  0999 V2000
   25.5370  -20.4407  -14.5162 N   0  0  0  0  0  0  0  0  0  0  0  0
   26.7058  -20.3743  -13.6805 C   0  0  1  0  0  0  0  0  0  0  0  0
   27.8694  -19.7102  -14.3940 C   0  0  0  0  0  0  0  0  0  0  0  0
   28.2925  -20.5365  -15.5558 C   0  0  0  0  0  0  0  0  0  0  0  0
   28.8996  -21.7766  -15.3541 C   0  0  0  0  0  0  0  0  0  0  0  0
   29.2910  -22.5409  -16.4229 C   0  0  0  0  0  0  0  0  0  0  0  0
   29.1019  -22.1181  -17.7189 C   0  0  0  0  0  0  0  0  0  0  0  0
   28.5118  -20.9117  -17.9490 C   0  0  0  0  0  0  0  0  0  0  0  0
   28.1223  -20.1518  -16.8675 C   0  0  0  0  0  0  0  0  0  0  0  0
   26.4497  -19.6798  -12.4111 C   0  0  0  0  0  0  0  0  0  0  0  0
   26.2696  -18.4477  -12.3966 O   0  0  0  0  0  0  0  0  0  0  0  0
   21.0003  -22.8408  -11.8106 O   0  0  0  0  0  0  0  0  0  0  0  0
   21.9565  -21.9239  -11.3481 C   0  0  0  0  0  0  0  0  0  0  0  0
   22.6693  -21.1272  -12.2151 C   0  0  0  0  0  0  0  0  0  0  0  0
   23.6004  -20.2361  -11.7451 C   0  0  0  0  0  0  0  0  0  0  0  0
   23.8743  -20.0873  -10.3918 C   0  0  0  0  0  0  0  0  0  0  0  0
   24.8943  -19.1047   -9.9462 C   0  0  0  0  0  0  0  0  0  0  0  0
   26.2954  -19.7066   -9.9551 C   0  0  2  0  0  0  0  0  0  0  0  0
   26.4070  -20.4143  -11.2066 N   0  0  0  0  0  0  0  0  0  0  0  0
   26.5527  -20.5203   -8.7646 C   0  0  0  0  0  0  0  0  0  0  0  0
   26.2227  -21.7277   -8.6674 O   0  0  0  0  0  0  0  0  0  0  0  0
   23.1634  -20.8823   -9.5221 C   0  0  0  0  0  0  0  0  0  0  0  0
   22.2141  -21.7909  -10.0004 C   0  0  0  0  0  0  0  0  0  0  0  0
   28.8412  -20.4591   -4.3891 C   0  0  0  0  0  0  0  0  0  0  0  0
   28.5126  -19.7598   -5.6712 C   0  0  1  0  0  0  0  0  0  0  0  0
   29.7810  -19.5317   -6.4461 C   0  0  0  0  0  0  0  0  0  0  0  0
   27.5300  -20.6448   -6.4467 C   0  0  2  0  0  0  0  0  0  0  0  0
   27.2090  -19.9281   -7.6570 N   0  0  0  0  0  0  0  0  0  0  0  0
   26.3140  -20.7125   -5.6036 C   0  0  0  0  0  0  0  0  0  0  0  0
   25.2065  -19.9290   -5.8756 O   0  0  0  0  0  0  0  0  0  0  0  0
   26.2374  -21.4873   -4.6015 O   0  0  0  0  0  0  0  0  0  0  0  0
  2  1  1  6
  2  3  1  0
  2 10  1  0
  3  4  1  0
  4  9  1  0
  4  5  2  0
  5  6  1  0
  6  7  2  0
  8  7  1  0
  9  8  2  0
 10 11  2  0
 13 12  1  0
 13 14  2  0
 15 14  1  0
 16 15  2  0
 17 16  1  0
 18 17  1  1
 19 18  1  0
 19 10  1  0
 20 28  1  0
 20 18  1  0
 21 20  2  0
 22 23  2  0
 22 16  1  0
 23 13  1  0
 25 24  1  1
 26 25  1  0
 27 28  1  6
 27 25  1  0
 29 27  1  0
 30 29  1  0
 31 29  2  0
M  END
$$$$
