FYV.pdb
     RDKit          3D

 31 32  0  0  1  0  0  0  0  0999 V2000
   25.9804  -18.6413   -7.5790 N   0  0  0  0  0  0  0  0  0  0  0  0
   26.7566  -19.6599   -8.2340 C   0  0  1  0  0  0  0  0  0  0  0  0
   26.9380  -20.8819   -7.3520 C   0  0  0  0  0  0  0  0  0  0  0  0
   27.7681  -20.5360   -6.1676 C   0  0  0  0  0  0  0  0  0  0  0  0
   29.1419  -20.3340   -6.3052 C   0  0  0  0  0  0  0  0  0  0  0  0
   29.9101  -20.0152   -5.2154 C   0  0  0  0  0  0  0  0  0  0  0  0
   29.3612  -19.8842   -3.9602 C   0  0  0  0  0  0  0  0  0  0  0  0
   28.0225  -20.0752   -3.7929 C   0  0  0  0  0  0  0  0  0  0  0  0
   27.2599  -20.3953   -4.8951 C   0  0  0  0  0  0  0  0  0  0  0  0
   26.1764  -20.0673   -9.5211 C   0  0  0  0  0  0  0  0  0  0  0  0
   24.9410  -20.1527   -9.6522 O   0  0  0  0  0  0  0  0  0  0  0  0
   27.1472  -17.7390  -17.9707 O   0  0  0  0  0  0  0  0  0  0  0  0
   27.3481  -18.1752  -16.6523 C   0  0  0  0  0  0  0  0  0  0  0  0
   27.7989  -19.4456  -16.3743 C   0  0  0  0  0  0  0  0  0  0  0  0
   27.9897  -19.8551  -15.0790 C   0  0  0  0  0  0  0  0  0  0  0  0
   27.7441  -19.0276  -13.9910 C   0  0  0  0  0  0  0  0  0  0  0  0
   27.9703  -19.5301  -12.6124 C   0  0  0  0  0  0  0  0  0  0  0  0
   26.6594  -19.9038  -11.9287 C   0  0  2  0  0  0  0  0  0  0  0  0
   27.0245  -20.3608  -10.6106 N   0  0  0  0  0  0  0  0  0  0  0  0
   25.8810  -20.8621  -12.7169 C   0  0  0  0  0  0  0  0  0  0  0  0
   26.2121  -22.0635  -12.8687 O   0  0  0  0  0  0  0  0  0  0  0  0
   27.2933  -17.7568  -14.2653 C   0  0  0  0  0  0  0  0  0  0  0  0
   27.0986  -17.3386  -15.5854 C   0  0  0  0  0  0  0  0  0  0  0  0
   22.3389  -21.5036  -12.1303 C   0  0  0  0  0  0  0  0  0  0  0  0
   22.3944  -21.0308  -13.5495 C   0  0  1  0  0  0  0  0  0  0  0  0
   22.0614  -19.5650  -13.5929 C   0  0  0  0  0  0  0  0  0  0  0  0
   23.8077  -21.3035  -14.0770 C   0  0  2  0  0  0  0  0  0  0  0  0
   24.6886  -20.4254  -13.3460 N   0  0  0  0  0  0  0  0  0  0  0  0
   23.7865  -20.8749  -15.4947 C   0  0  0  0  0  0  0  0  0  0  0  0
   23.5140  -21.7717  -16.5125 O   0  0  0  0  0  0  0  0  0  0  0  0
   24.0166  -19.6738  -15.8336 O   0  0  0  0  0  0  0  0  0  0  0  0
  2  1  1  1
  2  3  1  0
  2 10  1  0
  3  4  1  0
  4  9  1  0
  4  5  2  0
  5  6  1  0
  6  7  2  0
  8  7  1  0
  9  8  2  0
 10 11  2  0
 13 12  1  0
 13 14  2  0
 15 14  1  0
 16 15  2  0
 17 16  1  0
 18 17  1  6
 19 18  1  0
 19 10  1  0
 20 28  1  0
 20 18  1  0
 21 20  2  0
 22 23  2  0
 22 16  1  0
 23 13  1  0
 25 24  1  1
 26 25  1  0
 27 28  1  1
 27 25  1  0
 29 27  1  0
 30 29  1  0
 31 29  2  0
M  END
$$$$
