FYV.pdb
     RDKit          3D

 31 32  0  0  1  0  0  0  0  0999 V2000
   27.1199  -22.6141  -11.1245 N   0  0  0  0  0  0  0  0  0  0  0  0
   26.2722  -21.5584  -10.6387 C   0  0  1  0  0  0  0  0  0  0  0  0
   27.0141  -20.2369  -10.5537 C   0  0  0  0  0  0  0  0  0  0  0  0
   27.5137  -20.0217   -9.1696 C   0  0  0  0  0  0  0  0  0  0  0  0
   26.7369  -19.3287   -8.2403 C   0  0  0  0  0  0  0  0  0  0  0  0
   27.1945  -19.1285   -6.9636 C   0  0  0  0  0  0  0  0  0  0  0  0
   28.4224  -19.5980   -6.5562 C   0  0  0  0  0  0  0  0  0  0  0  0
   29.2046  -20.2786   -7.4402 C   0  0  0  0  0  0  0  0  0  0  0  0
   28.7349  -20.4741   -8.7208 C   0  0  0  0  0  0  0  0  0  0  0  0
   25.0626  -21.3887  -11.4555 C   0  0  0  0  0  0  0  0  0  0  0  0
   24.9360  -22.0144  -12.5247 O   0  0  0  0  0  0  0  0  0  0  0  0
   19.3260  -24.0824   -7.5471 O   0  0  0  0  0  0  0  0  0  0  0  0
   19.9286  -23.0720   -8.3119 C   0  0  0  0  0  0  0  0  0  0  0  0
   19.5126  -22.7936   -9.5940 C   0  0  0  0  0  0  0  0  0  0  0  0
   20.1135  -21.8020  -10.3273 C   0  0  0  0  0  0  0  0  0  0  0  0
   21.1579  -21.0342   -9.8290 C   0  0  0  0  0  0  0  0  0  0  0  0
   21.7667  -19.9751  -10.6729 C   0  0  0  0  0  0  0  0  0  0  0  0
   22.7571  -20.5565  -11.6762 C   0  0  2  0  0  0  0  0  0  0  0  0
   24.0423  -20.5143  -11.0234 N   0  0  0  0  0  0  0  0  0  0  0  0
   22.7015  -19.8672  -12.9674 C   0  0  0  0  0  0  0  0  0  0  0  0
   23.0306  -18.6659  -13.1250 O   0  0  0  0  0  0  0  0  0  0  0  0
   21.5764  -21.3098   -8.5475 C   0  0  0  0  0  0  0  0  0  0  0  0
   20.9644  -22.3204   -7.7994 C   0  0  0  0  0  0  0  0  0  0  0  0
   24.1612  -21.0932  -16.2173 C   0  0  0  0  0  0  0  0  0  0  0  0
   22.6786  -21.0191  -16.4103 C   0  0  1  0  0  0  0  0  0  0  0  0
   22.0839  -22.3807  -16.1788 C   0  0  0  0  0  0  0  0  0  0  0  0
   22.1299  -19.9881  -15.4173 C   0  0  2  0  0  0  0  0  0  0  0  0
   22.2564  -20.5807  -14.1080 N   0  0  0  0  0  0  0  0  0  0  0  0
   20.6897  -19.8616  -15.7392 C   0  0  0  0  0  0  0  0  0  0  0  0
   20.2547  -19.0722  -16.7890 O   0  0  0  0  0  0  0  0  0  0  0  0
   19.7989  -20.4682  -15.0692 O   0  0  0  0  0  0  0  0  0  0  0  0
  2  1  1  6
  2  3  1  0
  2 10  1  0
  3  4  1  0
  4  9  1  0
  4  5  2  0
  5  6  1  0
  6  7  2  0
  8  7  1  0
  9  8  2  0
 10 11  2  0
 13 12  1  0
 13 14  2  0
 15 14  1  0
 16 15  2  0
 17 16  1  0
 18 17  1  1
 19 18  1  0
 19 10  1  0
 20 28  1  0
 20 18  1  0
 21 20  2  0
 22 23  2  0
 22 16  1  0
 23 13  1  0
 25 24  1  1
 26 25  1  0
 27 28  1  1
 27 25  1  0
 29 27  1  0
 30 29  1  0
 31 29  2  0
M  END
$$$$
