FYV.pdb
     RDKit          3D

 31 32  0  0  1  0  0  0  0  0999 V2000
   26.5820  -19.9031  -19.4419 N   0  0  0  0  0  0  0  0  0  0  0  0
   26.0916  -19.0146  -18.4226 C   0  0  1  0  0  0  0  0  0  0  0  0
   24.9522  -18.1504  -18.9316 C   0  0  0  0  0  0  0  0  0  0  0  0
   25.4478  -17.2220  -19.9824 C   0  0  0  0  0  0  0  0  0  0  0  0
   26.1462  -16.0668  -19.6291 C   0  0  0  0  0  0  0  0  0  0  0  0
   26.6042  -15.2088  -20.5952 C   0  0  0  0  0  0  0  0  0  0  0  0
   26.3946  -15.4522  -21.9334 C   0  0  0  0  0  0  0  0  0  0  0  0
   25.7160  -16.5718  -22.3108 C   0  0  0  0  0  0  0  0  0  0  0  0
   25.2601  -17.4273  -21.3315 C   0  0  0  0  0  0  0  0  0  0  0  0
   25.6604  -19.7302  -17.2138 C   0  0  0  0  0  0  0  0  0  0  0  0
   25.1052  -20.8408  -17.3081 O   0  0  0  0  0  0  0  0  0  0  0  0
   24.8310  -21.8336   -8.6829 O   0  0  0  0  0  0  0  0  0  0  0  0
   25.1993  -21.2418   -9.9007 C   0  0  0  0  0  0  0  0  0  0  0  0
   26.0833  -21.8529  -10.7606 C   0  0  0  0  0  0  0  0  0  0  0  0
   26.4320  -21.2596  -11.9474 C   0  0  0  0  0  0  0  0  0  0  0  0
   25.9235  -20.0299  -12.3445 C   0  0  0  0  0  0  0  0  0  0  0  0
   26.3403  -19.4401  -13.6417 C   0  0  0  0  0  0  0  0  0  0  0  0
   25.3943  -19.8383  -14.7696 C   0  0  2  0  0  0  0  0  0  0  0  0
   25.8790  -19.1551  -15.9434 N   0  0  0  0  0  0  0  0  0  0  0  0
   23.9942  -19.5669  -14.4355 C   0  0  0  0  0  0  0  0  0  0  0  0
   23.5450  -18.4142  -14.2217 O   0  0  0  0  0  0  0  0  0  0  0  0
   25.0394  -19.4161  -11.4872 C   0  0  0  0  0  0  0  0  0  0  0  0
   24.6834  -20.0202  -10.2773 C   0  0  0  0  0  0  0  0  0  0  0  0
   21.0809  -20.2104  -16.3020 C   0  0  0  0  0  0  0  0  0  0  0  0
   20.8696  -21.0805  -15.1024 C   0  0  1  0  0  0  0  0  0  0  0  0
   21.2838  -22.4871  -15.4359 C   0  0  0  0  0  0  0  0  0  0  0  0
   21.7063  -20.5037  -13.9546 C   0  0  2  0  0  0  0  0  0  0  0  0
   23.0869  -20.6518  -14.3467 N   0  0  0  0  0  0  0  0  0  0  0  0
   21.4484  -21.3910  -12.7970 C   0  0  0  0  0  0  0  0  0  0  0  0
   20.4336  -21.1203  -11.8962 O   0  0  0  0  0  0  0  0  0  0  0  0
   22.1437  -22.4309  -12.5835 O   0  0  0  0  0  0  0  0  0  0  0  0
  2  1  1  6
  2  3  1  0
  2 10  1  0
  3  4  1  0
  4  9  1  0
  4  5  2  0
  5  6  1  0
  6  7  2  0
  8  7  1  0
  9  8  2  0
 10 11  2  0
 13 12  1  0
 13 14  2  0
 15 14  1  0
 16 15  2  0
 17 16  1  0
 18 17  1  1
 19 18  1  0
 19 10  1  0
 20 28  1  0
 20 18  1  0
 21 20  2  0
 22 23  2  0
 22 16  1  0
 23 13  1  0
 25 24  1  6
 26 25  1  0
 27 28  1  6
 27 25  1  0
 29 27  1  0
 30 29  1  0
 31 29  2  0
M  END
$$$$
