VYK.pdb
     RDKit          3D

 29 29  0  0  1  0  0  0  0  0999 V2000
    7.3857  -12.6733   19.1493 C   0  0  0  0  0  0  0  0  0  0  0  0
    8.3245  -13.6443   18.5218 C   0  0  2  0  0  0  0  0  0  0  0  0
    7.9418  -13.8859   17.0944 C   0  0  0  0  0  0  0  0  0  0  0  0
    8.4566  -14.9431   19.2623 C   0  0  2  0  0  0  0  0  0  0  0  0
    7.2523  -15.7144   19.0158 N   0  0  0  0  0  0  0  0  0  0  0  0
    8.7251  -14.7721   20.7026 C   0  0  0  0  0  0  0  0  0  0  0  0
    9.9137  -14.5446   21.0458 O   0  0  0  0  0  0  0  0  0  0  0  0
    7.7193  -12.9512   29.3299 O   0  0  0  0  0  0  0  0  0  0  0  0
    7.5247  -13.1827   27.9749 C   0  0  0  0  0  0  0  0  0  0  0  0
    8.1194  -12.4071   27.0183 C   0  0  0  0  0  0  0  0  0  0  0  0
    7.8851  -12.6893   25.6684 C   0  0  0  0  0  0  0  0  0  0  0  0
    7.0716  -13.7273   25.2602 C   0  0  0  0  0  0  0  0  0  0  0  0
    6.8791  -13.9587   23.8336 C   0  0  0  0  0  0  0  0  0  0  0  0
    8.0145  -14.6446   23.1267 C   0  0  2  0  0  0  0  0  0  0  0  0
    7.7273  -14.8488   21.7137 N   0  0  0  0  0  0  0  0  0  0  0  0
    8.3710  -15.9647   23.7030 C   0  0  0  0  0  0  0  0  0  0  0  0
    7.6713  -16.9791   23.4665 O   0  0  0  0  0  0  0  0  0  0  0  0
    6.4954  -14.4797   26.2630 C   0  0  0  0  0  0  0  0  0  0  0  0
    6.7136  -14.2176   27.5868 C   0  0  0  0  0  0  0  0  0  0  0  0
    9.5094  -16.1468   24.5417 N   0  0  0  0  0  0  0  0  0  0  0  0
    9.9147  -17.4426   25.0646 C   0  0  1  0  0  0  0  0  0  0  0  0
   10.8056  -18.1635   24.1183 C   0  0  0  0  0  0  0  0  0  0  0  0
   11.1518  -19.5339   24.5753 C   0  0  0  0  0  0  0  0  0  0  0  0
   11.9758  -20.2952   23.5405 C   0  0  0  0  0  0  0  0  0  0  0  0
   12.1797  -21.6986   24.0686 C   0  0  0  0  0  0  0  0  0  0  0  0
   12.8047  -22.5644   23.1112 N   0  0  0  0  0  0  0  0  0  0  0  0
   10.5563  -17.3153   26.3886 C   0  0  0  0  0  0  0  0  0  0  0  0
   10.9532  -18.3905   26.9549 O   0  0  0  0  0  0  0  0  0  0  0  0
   10.7733  -16.1553   27.0785 O   0  0  0  0  0  0  0  0  0  0  0  0
  2  3  1  6
  2  1  1  0
  4  2  1  0
  4  5  1  1
  6 15  1  0
  6  4  1  0
  7  6  2  0
  8  9  1  0
  9 19  2  0
  9 10  1  0
 10 11  2  0
 11 12  1  0
 12 13  1  0
 14 13  1  1
 14 16  1  0
 14 15  1  0
 16 20  1  0
 17 16  2  0
 18 12  2  0
 19 18  1  0
 20 21  1  0
 21 27  1  0
 21 22  1  6
 23 22  1  0
 24 25  1  0
 24 23  1  0
 26 25  1  0
 27 28  2  0
 27 29  1  0
M  END
$$$$
