VYK.pdb
     RDKit          3D

 29 29  0  0  1  0  0  0  0  0999 V2000
    7.8156  -18.6013   18.1623 C   0  0  0  0  0  0  0  0  0  0  0  0
    8.1376  -18.0036   19.4878 C   0  0  2  0  0  0  0  0  0  0  0  0
    7.0969  -18.3855   20.4945 C   0  0  0  0  0  0  0  0  0  0  0  0
    8.3313  -16.5154   19.4642 C   0  0  2  0  0  0  0  0  0  0  0  0
    9.3522  -16.2204   18.4758 N   0  0  0  0  0  0  0  0  0  0  0  0
    8.6525  -15.9451   20.7860 C   0  0  0  0  0  0  0  0  0  0  0  0
    9.7973  -16.1769   21.2527 O   0  0  0  0  0  0  0  0  0  0  0  0
    7.4334  -12.0245   28.7607 O   0  0  0  0  0  0  0  0  0  0  0  0
    7.3139  -12.4282   27.4378 C   0  0  0  0  0  0  0  0  0  0  0  0
    6.1166  -12.3909   26.7779 C   0  0  0  0  0  0  0  0  0  0  0  0
    6.0589  -12.8108   25.4448 C   0  0  0  0  0  0  0  0  0  0  0  0
    7.1705  -13.2647   24.7637 C   0  0  0  0  0  0  0  0  0  0  0  0
    7.0290  -13.6830   23.3741 C   0  0  0  0  0  0  0  0  0  0  0  0
    8.0867  -14.6228   22.8667 C   0  0  2  0  0  0  0  0  0  0  0  0
    7.7510  -15.1567   21.5540 N   0  0  0  0  0  0  0  0  0  0  0  0
    8.3450  -15.7768   23.7630 C   0  0  0  0  0  0  0  0  0  0  0  0
    7.4397  -16.6074   24.0182 O   0  0  0  0  0  0  0  0  0  0  0  0
    8.3538  -13.2832   25.4731 C   0  0  0  0  0  0  0  0  0  0  0  0
    8.4278  -12.8764   26.7761 C   0  0  0  0  0  0  0  0  0  0  0  0
    9.6152  -15.9990   24.3710 N   0  0  0  0  0  0  0  0  0  0  0  0
    9.9127  -17.1623   25.1926 C   0  0  1  0  0  0  0  0  0  0  0  0
   11.0602  -17.9377   24.6532 C   0  0  0  0  0  0  0  0  0  0  0  0
   11.4202  -19.1062   25.4969 C   0  0  0  0  0  0  0  0  0  0  0  0
   12.6230  -19.8664   24.9451 C   0  0  0  0  0  0  0  0  0  0  0  0
   12.8957  -21.0229   25.8824 C   0  0  0  0  0  0  0  0  0  0  0  0
   14.0564  -21.7770   25.5070 N   0  0  0  0  0  0  0  0  0  0  0  0
   10.1559  -16.7839   26.5991 C   0  0  0  0  0  0  0  0  0  0  0  0
   10.1748  -17.7237   27.4656 O   0  0  0  0  0  0  0  0  0  0  0  0
   10.3664  -15.5202   27.0759 O   0  0  0  0  0  0  0  0  0  0  0  0
  2  3  1  1
  2  1  1  0
  4  2  1  0
  4  5  1  6
  6 15  1  0
  6  4  1  0
  7  6  2  0
  8  9  1  0
  9 19  2  0
  9 10  1  0
 10 11  2  0
 11 12  1  0
 12 13  1  0
 14 13  1  1
 14 16  1  0
 14 15  1  0
 16 20  1  0
 17 16  2  0
 18 12  2  0
 19 18  1  0
 20 21  1  0
 21 27  1  0
 21 22  1  6
 23 22  1  0
 24 25  1  0
 24 23  1  0
 26 25  1  0
 27 28  2  0
 27 29  1  0
M  END
$$$$
