VYK.pdb
     RDKit          3D

 29 29  0  0  1  0  0  0  0  0999 V2000
    7.5564  -12.4990   20.6969 C   0  0  0  0  0  0  0  0  0  0  0  0
    8.2144  -13.4493   19.7578 C   0  0  2  0  0  0  0  0  0  0  0  0
    7.4720  -13.4902   18.4581 C   0  0  0  0  0  0  0  0  0  0  0  0
    8.3981  -14.8339   20.3072 C   0  0  2  0  0  0  0  0  0  0  0  0
    7.0837  -15.4376   20.4265 N   0  0  0  0  0  0  0  0  0  0  0  0
    9.1446  -14.8657   21.5789 C   0  0  0  0  0  0  0  0  0  0  0  0
   10.3901  -14.6995   21.5222 O   0  0  0  0  0  0  0  0  0  0  0  0
   11.0181  -14.9651   30.3018 O   0  0  0  0  0  0  0  0  0  0  0  0
   10.3848  -14.9098   29.0675 C   0  0  0  0  0  0  0  0  0  0  0  0
   10.3798  -13.7711   28.3101 C   0  0  0  0  0  0  0  0  0  0  0  0
    9.7246  -13.7765   27.0743 C   0  0  0  0  0  0  0  0  0  0  0  0
    9.0781  -14.8937   26.5849 C   0  0  0  0  0  0  0  0  0  0  0  0
    8.4196  -14.8202   25.2861 C   0  0  0  0  0  0  0  0  0  0  0  0
    9.3004  -15.0742   24.0949 C   0  0  2  0  0  0  0  0  0  0  0  0
    8.5425  -15.0712   22.8514 N   0  0  0  0  0  0  0  0  0  0  0  0
   10.0429  -16.3573   24.1596 C   0  0  0  0  0  0  0  0  0  0  0  0
    9.4316  -17.4529   24.1824 O   0  0  0  0  0  0  0  0  0  0  0  0
    9.1117  -16.0165   27.3862 C   0  0  0  0  0  0  0  0  0  0  0  0
    9.7473  -16.0284   28.5965 C   0  0  0  0  0  0  0  0  0  0  0  0
   11.4670  -16.4117   24.1979 N   0  0  0  0  0  0  0  0  0  0  0  0
   12.2147  -17.6563   24.2914 C   0  0  1  0  0  0  0  0  0  0  0  0
   13.4728  -17.6028   23.5021 C   0  0  0  0  0  0  0  0  0  0  0  0
   13.2390  -17.4110   22.0477 C   0  0  0  0  0  0  0  0  0  0  0  0
   14.5438  -17.2949   21.2648 C   0  0  0  0  0  0  0  0  0  0  0  0
   14.1839  -16.9637   19.8327 C   0  0  0  0  0  0  0  0  0  0  0  0
   15.3369  -16.7278   19.0131 N   0  0  0  0  0  0  0  0  0  0  0  0
   12.4967  -18.0142   25.6961 C   0  0  0  0  0  0  0  0  0  0  0  0
   13.0472  -19.1471   25.9146 O   0  0  0  0  0  0  0  0  0  0  0  0
   12.2288  -17.2516   26.7986 O   0  0  0  0  0  0  0  0  0  0  0  0
  2  3  1  6
  2  1  1  0
  4  2  1  0
  4  5  1  1
  6 15  1  0
  6  4  1  0
  7  6  2  0
  8  9  1  0
  9 19  2  0
  9 10  1  0
 10 11  2  0
 11 12  1  0
 12 13  1  0
 14 13  1  1
 14 16  1  0
 14 15  1  0
 16 20  1  0
 17 16  2  0
 18 12  2  0
 19 18  1  0
 20 21  1  0
 21 27  1  0
 21 22  1  6
 23 22  1  0
 24 25  1  0
 24 23  1  0
 26 25  1  0
 27 28  2  0
 27 29  1  0
M  END
$$$$
