VYK.pdb
     RDKit          3D

 29 29  0  0  1  0  0  0  0  0999 V2000
    8.9331  -17.8895   19.6562 C   0  0  0  0  0  0  0  0  0  0  0  0
    7.6203  -17.2357   19.9152 C   0  0  2  0  0  0  0  0  0  0  0  0
    6.6761  -17.5043   18.7843 C   0  0  0  0  0  0  0  0  0  0  0  0
    7.7073  -15.7637   20.1948 C   0  0  2  0  0  0  0  0  0  0  0  0
    8.2548  -15.1232   19.0133 N   0  0  0  0  0  0  0  0  0  0  0  0
    8.4772  -15.4427   21.4114 C   0  0  0  0  0  0  0  0  0  0  0  0
    9.6780  -15.0994   21.2615 O   0  0  0  0  0  0  0  0  0  0  0  0
   10.5822  -14.2995   30.0274 O   0  0  0  0  0  0  0  0  0  0  0  0
    9.9143  -14.4672   28.8219 C   0  0  0  0  0  0  0  0  0  0  0  0
    9.4109  -15.6799   28.4392 C   0  0  0  0  0  0  0  0  0  0  0  0
    8.7473  -15.7867   27.2124 C   0  0  0  0  0  0  0  0  0  0  0  0
    8.5790  -14.7090   26.3664 C   0  0  0  0  0  0  0  0  0  0  0  0
    7.8734  -14.9010   25.1049 C   0  0  0  0  0  0  0  0  0  0  0  0
    8.7386  -15.2164   23.9170 C   0  0  2  0  0  0  0  0  0  0  0  0
    7.9445  -15.4988   22.7293 N   0  0  0  0  0  0  0  0  0  0  0  0
    9.6498  -16.3687   24.1266 C   0  0  0  0  0  0  0  0  0  0  0  0
    9.2257  -17.5467   24.0423 O   0  0  0  0  0  0  0  0  0  0  0  0
    9.1047  -13.5084   26.7977 C   0  0  0  0  0  0  0  0  0  0  0  0
    9.7560  -13.3865   27.9934 C   0  0  0  0  0  0  0  0  0  0  0  0
   11.0327  -16.2004   24.4292 N   0  0  0  0  0  0  0  0  0  0  0  0
   11.9686  -17.3104   24.5234 C   0  0  1  0  0  0  0  0  0  0  0  0
   13.2528  -17.0067   23.8397 C   0  0  0  0  0  0  0  0  0  0  0  0
   14.1667  -18.1759   23.7731 C   0  0  0  0  0  0  0  0  0  0  0  0
   15.4597  -17.8548   23.0287 C   0  0  0  0  0  0  0  0  0  0  0  0
   16.2874  -19.1212   22.9932 C   0  0  0  0  0  0  0  0  0  0  0  0
   17.4779  -18.9818   22.2058 N   0  0  0  0  0  0  0  0  0  0  0  0
   12.2065  -17.7002   25.9278 C   0  0  0  0  0  0  0  0  0  0  0  0
   11.8701  -18.8840   26.2739 O   0  0  0  0  0  0  0  0  0  0  0  0
   12.7558  -16.9193   26.9060 O   0  0  0  0  0  0  0  0  0  0  0  0
  2  3  1  6
  2  1  1  0
  4  2  1  0
  4  5  1  6
  6 15  1  0
  6  4  1  0
  7  6  2  0
  8  9  1  0
  9 19  2  0
  9 10  1  0
 10 11  2  0
 11 12  1  0
 12 13  1  0
 14 13  1  1
 14 16  1  0
 14 15  1  0
 16 20  1  0
 17 16  2  0
 18 12  2  0
 19 18  1  0
 20 21  1  0
 21 27  1  0
 21 22  1  1
 23 22  1  0
 24 25  1  0
 24 23  1  0
 26 25  1  0
 27 28  2  0
 27 29  1  0
M  END
$$$$
