VYK.pdb
     RDKit          3D

 29 29  0  0  1  0  0  0  0  0999 V2000
    6.3890  -13.2920   18.9731 C   0  0  0  0  0  0  0  0  0  0  0  0
    7.3054  -13.3239   20.1467 C   0  0  2  0  0  0  0  0  0  0  0  0
    8.4403  -12.3685   19.9434 C   0  0  0  0  0  0  0  0  0  0  0  0
    7.8189  -14.6911   20.4929 C   0  0  2  0  0  0  0  0  0  0  0  0
    6.6814  -15.5914   20.5312 N   0  0  0  0  0  0  0  0  0  0  0  0
    8.5998  -14.7244   21.7439 C   0  0  0  0  0  0  0  0  0  0  0  0
    9.7992  -14.3499   21.6866 O   0  0  0  0  0  0  0  0  0  0  0  0
   10.8406  -15.1284   30.3495 O   0  0  0  0  0  0  0  0  0  0  0  0
   10.1546  -15.0825   29.1434 C   0  0  0  0  0  0  0  0  0  0  0  0
    9.9835  -13.9130   28.4554 C   0  0  0  0  0  0  0  0  0  0  0  0
    9.2829  -13.9298   27.2448 C   0  0  0  0  0  0  0  0  0  0  0  0
    8.7535  -15.0884   26.7128 C   0  0  0  0  0  0  0  0  0  0  0  0
    8.0378  -15.0239   25.4441 C   0  0  0  0  0  0  0  0  0  0  0  0
    8.8804  -15.2011   24.2120 C   0  0  2  0  0  0  0  0  0  0  0  0
    8.0790  -15.1513   22.9971 N   0  0  0  0  0  0  0  0  0  0  0  0
    9.6476  -16.4710   24.1865 C   0  0  0  0  0  0  0  0  0  0  0  0
    9.0754  -17.5627   23.9517 O   0  0  0  0  0  0  0  0  0  0  0  0
    8.9531  -16.2410   27.4444 C   0  0  0  0  0  0  0  0  0  0  0  0
    9.6352  -16.2424   28.6292 C   0  0  0  0  0  0  0  0  0  0  0  0
   11.0527  -16.5163   24.4231 N   0  0  0  0  0  0  0  0  0  0  0  0
   11.8149  -17.7550   24.4604 C   0  0  1  0  0  0  0  0  0  0  0  0
   12.9715  -17.7175   23.5278 C   0  0  0  0  0  0  0  0  0  0  0  0
   13.7514  -18.9818   23.5177 C   0  0  0  0  0  0  0  0  0  0  0  0
   14.9276  -18.9253   22.5469 C   0  0  0  0  0  0  0  0  0  0  0  0
   15.6051  -20.2782   22.5783 C   0  0  0  0  0  0  0  0  0  0  0  0
   16.8321  -20.2996   21.8360 N   0  0  0  0  0  0  0  0  0  0  0  0
   12.2622  -18.0743   25.8311 C   0  0  0  0  0  0  0  0  0  0  0  0
   11.9834  -19.2367   26.2843 O   0  0  0  0  0  0  0  0  0  0  0  0
   12.9517  -17.2482   26.6742 O   0  0  0  0  0  0  0  0  0  0  0  0
  2  3  1  6
  2  1  1  0
  4  2  1  0
  4  5  1  1
  6 15  1  0
  6  4  1  0
  7  6  2  0
  8  9  1  0
  9 19  2  0
  9 10  1  0
 10 11  2  0
 11 12  1  0
 12 13  1  0
 14 13  1  1
 14 16  1  0
 14 15  1  0
 16 20  1  0
 17 16  2  0
 18 12  2  0
 19 18  1  0
 20 21  1  0
 21 27  1  0
 21 22  1  6
 23 22  1  0
 24 25  1  0
 24 23  1  0
 26 25  1  0
 27 28  2  0
 27 29  1  0
M  END
$$$$
