VYK.pdb
     RDKit          3D

 29 29  0  0  1  0  0  0  0  0999 V2000
    8.0857  -19.0857   18.1592 C   0  0  0  0  0  0  0  0  0  0  0  0
    8.3541  -18.3972   19.4523 C   0  0  2  0  0  0  0  0  0  0  0  0
    7.3484  -18.8152   20.4799 C   0  0  0  0  0  0  0  0  0  0  0  0
    8.4208  -16.9010   19.3537 C   0  0  2  0  0  0  0  0  0  0  0  0
    9.4191  -16.5702   18.3537 N   0  0  0  0  0  0  0  0  0  0  0  0
    8.6840  -16.2396   20.6456 C   0  0  0  0  0  0  0  0  0  0  0  0
    9.8093  -16.4310   21.1741 O   0  0  0  0  0  0  0  0  0  0  0  0
    7.4321  -11.6509   28.2064 O   0  0  0  0  0  0  0  0  0  0  0  0
    7.3269  -12.1693   26.9228 C   0  0  0  0  0  0  0  0  0  0  0  0
    7.9925  -11.6147   25.8646 C   0  0  0  0  0  0  0  0  0  0  0  0
    7.8469  -12.1818   24.5941 C   0  0  0  0  0  0  0  0  0  0  0  0
    7.0525  -13.2871   24.3642 C   0  0  0  0  0  0  0  0  0  0  0  0
    6.9543  -13.8208   23.0109 C   0  0  0  0  0  0  0  0  0  0  0  0
    8.0055  -14.8253   22.6299 C   0  0  2  0  0  0  0  0  0  0  0  0
    7.7479  -15.4072   21.3199 N   0  0  0  0  0  0  0  0  0  0  0  0
    8.1441  -15.9449   23.5938 C   0  0  0  0  0  0  0  0  0  0  0  0
    7.3888  -16.9449   23.5300 O   0  0  0  0  0  0  0  0  0  0  0  0
    6.4025  -13.8090   25.4637 C   0  0  0  0  0  0  0  0  0  0  0  0
    6.5336  -13.2673   26.7120 C   0  0  0  0  0  0  0  0  0  0  0  0
    9.1272  -15.9432   24.6262 N   0  0  0  0  0  0  0  0  0  0  0  0
    9.3912  -17.0935   25.4771 C   0  0  1  0  0  0  0  0  0  0  0  0
    9.8421  -18.2695   24.6880 C   0  0  0  0  0  0  0  0  0  0  0  0
   10.2735  -19.4090   25.5378 C   0  0  0  0  0  0  0  0  0  0  0  0
   10.6724  -20.6270   24.7091 C   0  0  0  0  0  0  0  0  0  0  0  0
   10.9585  -21.7567   25.6745 C   0  0  0  0  0  0  0  0  0  0  0  0
   11.1837  -23.0078   25.0107 N   0  0  0  0  0  0  0  0  0  0  0  0
   10.3695  -16.7711   26.5352 C   0  0  0  0  0  0  0  0  0  0  0  0
   11.2128  -15.8416   26.2922 O   0  0  0  0  0  0  0  0  0  0  0  0
   10.4674  -17.3684   27.7609 O   0  0  0  0  0  0  0  0  0  0  0  0
  2  3  1  1
  2  1  1  0
  4  2  1  0
  4  5  1  6
  6 15  1  0
  6  4  1  0
  7  6  2  0
  8  9  1  0
  9 19  2  0
  9 10  1  0
 10 11  2  0
 11 12  1  0
 12 13  1  0
 14 13  1  1
 14 16  1  0
 14 15  1  0
 16 20  1  0
 17 16  2  0
 18 12  2  0
 19 18  1  0
 20 21  1  0
 21 27  1  0
 21 22  1  6
 23 22  1  0
 24 25  1  0
 24 23  1  0
 26 25  1  0
 27 28  2  0
 27 29  1  0
M  END
$$$$
