VYK.pdb
     RDKit          3D

 29 29  0  0  1  0  0  0  0  0999 V2000
   10.0423  -19.3820   20.6771 C   0  0  0  0  0  0  0  0  0  0  0  0
    8.7911  -18.8210   20.0961 C   0  0  2  0  0  0  0  0  0  0  0  0
    8.3762  -19.6147   18.8960 C   0  0  0  0  0  0  0  0  0  0  0  0
    8.8647  -17.3589   19.7650 C   0  0  2  0  0  0  0  0  0  0  0  0
    9.9108  -17.1844   18.7744 N   0  0  0  0  0  0  0  0  0  0  0  0
    9.0658  -16.4996   20.9469 C   0  0  0  0  0  0  0  0  0  0  0  0
   10.2417  -16.1321   21.2008 O   0  0  0  0  0  0  0  0  0  0  0  0
    7.4414  -11.5344   28.2100 O   0  0  0  0  0  0  0  0  0  0  0  0
    7.3426  -12.2369   27.0166 C   0  0  0  0  0  0  0  0  0  0  0  0
    7.0080  -11.6203   25.8427 C   0  0  0  0  0  0  0  0  0  0  0  0
    6.9240  -12.3814   24.6720 C   0  0  0  0  0  0  0  0  0  0  0  0
    7.1674  -13.7401   24.6543 C   0  0  0  0  0  0  0  0  0  0  0  0
    7.0616  -14.4632   23.3926 C   0  0  0  0  0  0  0  0  0  0  0  0
    8.2539  -15.2992   23.0199 C   0  0  2  0  0  0  0  0  0  0  0  0
    8.0172  -16.0680   21.8059 N   0  0  0  0  0  0  0  0  0  0  0  0
    8.6718  -16.2540   24.0761 C   0  0  0  0  0  0  0  0  0  0  0  0
    7.9257  -17.2044   24.4148 O   0  0  0  0  0  0  0  0  0  0  0  0
    7.5010  -14.3148   25.8635 C   0  0  0  0  0  0  0  0  0  0  0  0
    7.5874  -13.5858   27.0168 C   0  0  0  0  0  0  0  0  0  0  0  0
    9.9231  -16.1437   24.7503 N   0  0  0  0  0  0  0  0  0  0  0  0
   10.3492  -17.0625   25.7948 C   0  0  1  0  0  0  0  0  0  0  0  0
   11.6484  -17.7049   25.4657 C   0  0  0  0  0  0  0  0  0  0  0  0
   11.6221  -18.4430   24.1768 C   0  0  0  0  0  0  0  0  0  0  0  0
   12.9550  -19.1220   23.8744 C   0  0  0  0  0  0  0  0  0  0  0  0
   13.5710  -18.4033   22.6937 C   0  0  0  0  0  0  0  0  0  0  0  0
   14.8960  -18.8640   22.3956 N   0  0  0  0  0  0  0  0  0  0  0  0
   10.4180  -16.3934   27.1094 C   0  0  0  0  0  0  0  0  0  0  0  0
   10.7235  -17.1140   28.1201 O   0  0  0  0  0  0  0  0  0  0  0  0
   10.1878  -15.0696   27.3605 O   0  0  0  0  0  0  0  0  0  0  0  0
  2  3  1  6
  2  1  1  0
  4  2  1  0
  4  5  1  6
  6 15  1  0
  6  4  1  0
  7  6  2  0
  8  9  1  0
  9 19  2  0
  9 10  1  0
 10 11  2  0
 11 12  1  0
 12 13  1  0
 14 13  1  1
 14 16  1  0
 14 15  1  0
 16 20  1  0
 17 16  2  0
 18 12  2  0
 19 18  1  0
 20 21  1  0
 21 27  1  0
 21 22  1  6
 23 22  1  0
 24 25  1  0
 24 23  1  0
 26 25  1  0
 27 28  2  0
 27 29  1  0
M  END
$$$$
