VYK.pdb
     RDKit          3D

 29 29  0  0  1  0  0  0  0  0999 V2000
    6.6829  -14.5740   17.9217 C   0  0  0  0  0  0  0  0  0  0  0  0
    7.4494  -14.6934   19.1930 C   0  0  2  0  0  0  0  0  0  0  0  0
    7.0446  -15.9342   19.9271 C   0  0  0  0  0  0  0  0  0  0  0  0
    7.3527  -13.4925   20.0882 C   0  0  2  0  0  0  0  0  0  0  0  0
    7.7700  -12.3353   19.3182 N   0  0  0  0  0  0  0  0  0  0  0  0
    8.1160  -13.6335   21.3425 C   0  0  0  0  0  0  0  0  0  0  0  0
    9.3678  -13.5316   21.2718 O   0  0  0  0  0  0  0  0  0  0  0  0
   10.0463  -14.9214   29.9789 O   0  0  0  0  0  0  0  0  0  0  0  0
    9.4371  -14.6036   28.7726 C   0  0  0  0  0  0  0  0  0  0  0  0
    9.4126  -13.3232   28.2927 C   0  0  0  0  0  0  0  0  0  0  0  0
    8.7834  -13.0645   27.0704 C   0  0  0  0  0  0  0  0  0  0  0  0
    8.1818  -14.0576   26.3236 C   0  0  0  0  0  0  0  0  0  0  0  0
    7.5483  -13.7079   25.0578 C   0  0  0  0  0  0  0  0  0  0  0  0
    8.3046  -14.1037   23.8206 C   0  0  2  0  0  0  0  0  0  0  0  0
    7.5234  -13.8753   22.6130 N   0  0  0  0  0  0  0  0  0  0  0  0
    8.7361  -15.5234   23.8087 C   0  0  0  0  0  0  0  0  0  0  0  0
    7.9107  -16.4440   23.5948 O   0  0  0  0  0  0  0  0  0  0  0  0
    8.2337  -15.3317   26.8506 C   0  0  0  0  0  0  0  0  0  0  0  0
    8.8443  -15.6018   28.0435 C   0  0  0  0  0  0  0  0  0  0  0  0
   10.0895  -15.9095   24.0356 N   0  0  0  0  0  0  0  0  0  0  0  0
   10.5163  -17.2969   24.1353 C   0  0  1  0  0  0  0  0  0  0  0  0
   11.5715  -17.6206   23.1399 C   0  0  0  0  0  0  0  0  0  0  0  0
   12.0435  -19.0263   23.2294 C   0  0  0  0  0  0  0  0  0  0  0  0
   13.1239  -19.3380   22.1975 C   0  0  0  0  0  0  0  0  0  0  0  0
   13.4854  -20.7997   22.3488 C   0  0  0  0  0  0  0  0  0  0  0  0
   14.5748  -21.1905   21.5019 N   0  0  0  0  0  0  0  0  0  0  0  0
   10.9709  -17.6267   25.5010 C   0  0  0  0  0  0  0  0  0  0  0  0
   10.3885  -18.5970   26.0957 O   0  0  0  0  0  0  0  0  0  0  0  0
   11.9607  -16.9968   26.2025 O   0  0  0  0  0  0  0  0  0  0  0  0
  2  3  1  1
  2  1  1  0
  4  2  1  0
  4  5  1  6
  6 15  1  0
  6  4  1  0
  7  6  2  0
  8  9  1  0
  9 19  2  0
  9 10  1  0
 10 11  2  0
 11 12  1  0
 12 13  1  0
 14 13  1  1
 14 16  1  0
 14 15  1  0
 16 20  1  0
 17 16  2  0
 18 12  2  0
 19 18  1  0
 20 21  1  0
 21 27  1  0
 21 22  1  6
 23 22  1  0
 24 25  1  0
 24 23  1  0
 26 25  1  0
 27 28  2  0
 27 29  1  0
M  END
$$$$
