VYK.pdb
     RDKit          3D

 29 29  0  0  1  0  0  0  0  0999 V2000
    6.7253  -17.4055   18.4885 C   0  0  0  0  0  0  0  0  0  0  0  0
    7.4426  -17.1296   19.7641 C   0  0  2  0  0  0  0  0  0  0  0  0
    6.8534  -17.9420   20.8755 C   0  0  0  0  0  0  0  0  0  0  0  0
    7.4981  -15.6777   20.1405 C   0  0  2  0  0  0  0  0  0  0  0  0
    8.0551  -14.9523   19.0138 N   0  0  0  0  0  0  0  0  0  0  0  0
    8.2401  -15.4240   21.3898 C   0  0  0  0  0  0  0  0  0  0  0  0
    9.4947  -15.5011   21.3426 O   0  0  0  0  0  0  0  0  0  0  0  0
    9.9328  -13.9633   30.0444 O   0  0  0  0  0  0  0  0  0  0  0  0
    9.3362  -14.0627   28.7947 C   0  0  0  0  0  0  0  0  0  0  0  0
    8.6752  -15.1927   28.3991 C   0  0  0  0  0  0  0  0  0  0  0  0
    8.0941  -15.2334   27.1273 C   0  0  0  0  0  0  0  0  0  0  0  0
    8.1616  -14.1704   26.2491 C   0  0  0  0  0  0  0  0  0  0  0  0
    7.5280  -14.2896   24.9413 C   0  0  0  0  0  0  0  0  0  0  0  0
    8.3785  -14.8936   23.8591 C   0  0  2  0  0  0  0  0  0  0  0  0
    7.6241  -15.1008   22.6308 N   0  0  0  0  0  0  0  0  0  0  0  0
    8.9890  -16.1941   24.2303 C   0  0  0  0  0  0  0  0  0  0  0  0
    8.2895  -17.2328   24.3098 O   0  0  0  0  0  0  0  0  0  0  0  0
    8.8390  -13.0542   26.6951 C   0  0  0  0  0  0  0  0  0  0  0  0
    9.4127  -12.9978   27.9347 C   0  0  0  0  0  0  0  0  0  0  0  0
   10.3801  -16.3295   24.5112 N   0  0  0  0  0  0  0  0  0  0  0  0
   11.0077  -17.6018   24.8341 C   0  0  1  0  0  0  0  0  0  0  0  0
   12.2863  -17.7866   24.0993 C   0  0  0  0  0  0  0  0  0  0  0  0
   12.9012  -19.1193   24.3285 C   0  0  0  0  0  0  0  0  0  0  0  0
   14.2147  -19.2860   23.5695 C   0  0  0  0  0  0  0  0  0  0  0  0
   14.7264  -20.6818   23.8524 C   0  0  0  0  0  0  0  0  0  0  0  0
   16.0220  -20.9212   23.2862 N   0  0  0  0  0  0  0  0  0  0  0  0
   11.2178  -17.7481   26.2885 C   0  0  0  0  0  0  0  0  0  0  0  0
   11.5350  -16.6979   26.9448 O   0  0  0  0  0  0  0  0  0  0  0  0
   11.1059  -18.9014   27.0138 O   0  0  0  0  0  0  0  0  0  0  0  0
  2  3  1  1
  2  1  1  0
  4  2  1  0
  4  5  1  6
  6 15  1  0
  6  4  1  0
  7  6  2  0
  8  9  1  0
  9 19  2  0
  9 10  1  0
 10 11  2  0
 11 12  1  0
 12 13  1  0
 14 13  1  1
 14 16  1  0
 14 15  1  0
 16 20  1  0
 17 16  2  0
 18 12  2  0
 19 18  1  0
 20 21  1  0
 21 27  1  0
 21 22  1  6
 23 22  1  0
 24 25  1  0
 24 23  1  0
 26 25  1  0
 27 28  2  0
 27 29  1  0
M  END
$$$$
