VYK.pdb
     RDKit          3D

 29 29  0  0  1  0  0  0  0  0999 V2000
    8.4473  -18.9089   20.2413 C   0  0  0  0  0  0  0  0  0  0  0  0
    7.7725  -17.7803   19.5421 C   0  0  2  0  0  0  0  0  0  0  0  0
    7.4148  -18.1776   18.1434 C   0  0  0  0  0  0  0  0  0  0  0  0
    8.5507  -16.4969   19.5460 C   0  0  2  0  0  0  0  0  0  0  0  0
    9.7937  -16.7341   18.8356 N   0  0  0  0  0  0  0  0  0  0  0  0
    8.7756  -15.9518   20.8980 C   0  0  0  0  0  0  0  0  0  0  0  0
    9.8670  -16.2289   21.4587 O   0  0  0  0  0  0  0  0  0  0  0  0
    7.4641  -11.7957   28.6816 O   0  0  0  0  0  0  0  0  0  0  0  0
    7.3686  -12.2435   27.3710 C   0  0  0  0  0  0  0  0  0  0  0  0
    8.2604  -11.8550   26.4096 C   0  0  0  0  0  0  0  0  0  0  0  0
    8.1125  -12.3398   25.1059 C   0  0  0  0  0  0  0  0  0  0  0  0
    7.0949  -13.2014   24.7482 C   0  0  0  0  0  0  0  0  0  0  0  0
    7.0097  -13.6644   23.3682 C   0  0  0  0  0  0  0  0  0  0  0  0
    8.0774  -14.6315   22.9394 C   0  0  2  0  0  0  0  0  0  0  0  0
    7.8387  -15.1398   21.5957 N   0  0  0  0  0  0  0  0  0  0  0  0
    8.2229  -15.8031   23.8383 C   0  0  0  0  0  0  0  0  0  0  0  0
    7.3003  -16.6464   23.9491 O   0  0  0  0  0  0  0  0  0  0  0  0
    6.2220  -13.5632   25.7536 C   0  0  0  0  0  0  0  0  0  0  0  0
    6.3519  -13.0987   27.0327 C   0  0  0  0  0  0  0  0  0  0  0  0
    9.3999  -16.0287   24.6104 N   0  0  0  0  0  0  0  0  0  0  0  0
    9.5168  -17.0969   25.5913 C   0  0  1  0  0  0  0  0  0  0  0  0
   10.5391  -18.0997   25.1934 C   0  0  0  0  0  0  0  0  0  0  0  0
   10.2657  -18.7144   23.8690 C   0  0  0  0  0  0  0  0  0  0  0  0
   11.3278  -19.7386   23.4789 C   0  0  0  0  0  0  0  0  0  0  0  0
   11.0018  -20.2181   22.0811 C   0  0  0  0  0  0  0  0  0  0  0  0
   11.9360  -21.1937   21.5992 N   0  0  0  0  0  0  0  0  0  0  0  0
    9.8062  -16.5655   26.9384 C   0  0  0  0  0  0  0  0  0  0  0  0
    9.6822  -17.3681   27.9257 O   0  0  0  0  0  0  0  0  0  0  0  0
   10.1983  -15.2918   27.2427 O   0  0  0  0  0  0  0  0  0  0  0  0
  2  3  1  6
  2  1  1  0
  4  2  1  0
  4  5  1  1
  6 15  1  0
  6  4  1  0
  7  6  2  0
  8  9  1  0
  9 19  2  0
  9 10  1  0
 10 11  2  0
 11 12  1  0
 12 13  1  0
 14 13  1  1
 14 16  1  0
 14 15  1  0
 16 20  1  0
 17 16  2  0
 18 12  2  0
 19 18  1  0
 20 21  1  0
 21 27  1  0
 21 22  1  6
 23 22  1  0
 24 25  1  0
 24 23  1  0
 26 25  1  0
 27 28  2  0
 27 29  1  0
M  END
$$$$
