VYK.pdb
     RDKit          3D

 29 29  0  0  1  0  0  0  0  0999 V2000
    8.2139  -15.7745   19.4048 C   0  0  0  0  0  0  0  0  0  0  0  0
    7.0644  -14.9234   19.8199 C   0  0  2  0  0  0  0  0  0  0  0  0
    6.1796  -14.6398   18.6456 C   0  0  0  0  0  0  0  0  0  0  0  0
    7.4561  -13.6486   20.5086 C   0  0  2  0  0  0  0  0  0  0  0  0
    8.1364  -12.8142   19.5355 N   0  0  0  0  0  0  0  0  0  0  0  0
    8.2652  -13.8632   21.7231 C   0  0  0  0  0  0  0  0  0  0  0  0
    9.5154  -13.7915   21.6047 O   0  0  0  0  0  0  0  0  0  0  0  0
   10.6029  -15.1713   30.2372 O   0  0  0  0  0  0  0  0  0  0  0  0
    9.9088  -14.9117   29.0632 C   0  0  0  0  0  0  0  0  0  0  0  0
    9.9068  -13.6719   28.4860 C   0  0  0  0  0  0  0  0  0  0  0  0
    9.1884  -13.4714   27.3025 C   0  0  0  0  0  0  0  0  0  0  0  0
    8.4763  -14.4826   26.6894 C   0  0  0  0  0  0  0  0  0  0  0  0
    7.7544  -14.1944   25.4558 C   0  0  0  0  0  0  0  0  0  0  0  0
    8.5409  -14.3665   24.1865 C   0  0  2  0  0  0  0  0  0  0  0  0
    7.7178  -14.1435   23.0059 N   0  0  0  0  0  0  0  0  0  0  0  0
    9.1679  -15.7039   24.0449 C   0  0  0  0  0  0  0  0  0  0  0  0
    8.4732  -16.7142   23.7779 O   0  0  0  0  0  0  0  0  0  0  0  0
    8.5098  -15.7141   27.3107 C   0  0  0  0  0  0  0  0  0  0  0  0
    9.2066  -15.9272   28.4674 C   0  0  0  0  0  0  0  0  0  0  0  0
   10.5701  -15.9077   24.2018 N   0  0  0  0  0  0  0  0  0  0  0  0
   11.2011  -17.2151   24.1046 C   0  0  1  0  0  0  0  0  0  0  0  0
   12.3559  -17.2004   23.1692 C   0  0  0  0  0  0  0  0  0  0  0  0
   12.9777  -18.5378   22.9921 C   0  0  0  0  0  0  0  0  0  0  0  0
   14.1315  -18.5091   21.9935 C   0  0  0  0  0  0  0  0  0  0  0  0
   14.6371  -19.9278   21.8459 C   0  0  0  0  0  0  0  0  0  0  0  0
   15.6673  -20.0474   20.8554 N   0  0  0  0  0  0  0  0  0  0  0  0
   11.6124  -17.7175   25.4309 C   0  0  0  0  0  0  0  0  0  0  0  0
   11.2140  -18.8850   25.7664 O   0  0  0  0  0  0  0  0  0  0  0  0
   12.3840  -17.0579   26.3464 O   0  0  0  0  0  0  0  0  0  0  0  0
  2  3  1  6
  2  1  1  0
  4  2  1  0
  4  5  1  6
  6 15  1  0
  6  4  1  0
  7  6  2  0
  8  9  1  0
  9 19  2  0
  9 10  1  0
 10 11  2  0
 11 12  1  0
 12 13  1  0
 14 13  1  1
 14 16  1  0
 14 15  1  0
 16 20  1  0
 17 16  2  0
 18 12  2  0
 19 18  1  0
 20 21  1  0
 21 27  1  0
 21 22  1  6
 23 22  1  0
 24 25  1  0
 24 23  1  0
 26 25  1  0
 27 28  2  0
 27 29  1  0
M  END
$$$$
