VYK.pdb
     RDKit          3D

 29 29  0  0  1  0  0  0  0  0999 V2000
    9.1089  -19.1853   20.0229 C   0  0  0  0  0  0  0  0  0  0  0  0
    8.0787  -18.3014   19.4101 C   0  0  2  0  0  0  0  0  0  0  0  0
    7.6208  -18.8694   18.1024 C   0  0  0  0  0  0  0  0  0  0  0  0
    8.5084  -16.8727   19.2460 C   0  0  2  0  0  0  0  0  0  0  0  0
    9.6602  -16.8585   18.3633 N   0  0  0  0  0  0  0  0  0  0  0  0
    8.7775  -16.1909   20.5260 C   0  0  0  0  0  0  0  0  0  0  0  0
    9.9364  -16.2949   21.0038 O   0  0  0  0  0  0  0  0  0  0  0  0
    7.3945  -11.8994   28.2516 O   0  0  0  0  0  0  0  0  0  0  0  0
    7.2669  -12.4317   26.9757 C   0  0  0  0  0  0  0  0  0  0  0  0
    6.4662  -13.5108   26.7215 C   0  0  0  0  0  0  0  0  0  0  0  0
    6.3782  -14.0024   25.4148 C   0  0  0  0  0  0  0  0  0  0  0  0
    7.0725  -13.4375   24.3638 C   0  0  0  0  0  0  0  0  0  0  0  0
    6.9261  -14.0067   23.0295 C   0  0  0  0  0  0  0  0  0  0  0  0
    8.0683  -14.8628   22.5585 C   0  0  2  0  0  0  0  0  0  0  0  0
    7.8114  -15.4310   21.2424 N   0  0  0  0  0  0  0  0  0  0  0  0
    8.3934  -15.9862   23.4718 C   0  0  0  0  0  0  0  0  0  0  0  0
    7.6566  -17.0002   23.5307 O   0  0  0  0  0  0  0  0  0  0  0  0
    7.8661  -12.3517   24.6720 C   0  0  0  0  0  0  0  0  0  0  0  0
    7.9635  -11.8586   25.9433 C   0  0  0  0  0  0  0  0  0  0  0  0
    9.5419  -15.9727   24.3163 N   0  0  0  0  0  0  0  0  0  0  0  0
    9.8826  -17.0646   25.2155 C   0  0  1  0  0  0  0  0  0  0  0  0
   10.8448  -18.0106   24.5924 C   0  0  0  0  0  0  0  0  0  0  0  0
   11.1540  -19.1786   25.4565 C   0  0  0  0  0  0  0  0  0  0  0  0
   12.1510  -20.1312   24.8025 C   0  0  0  0  0  0  0  0  0  0  0  0
   12.1990  -21.3857   25.6475 C   0  0  0  0  0  0  0  0  0  0  0  0
   13.0001  -22.4191   25.0584 N   0  0  0  0  0  0  0  0  0  0  0  0
   10.4056  -16.5631   26.5023 C   0  0  0  0  0  0  0  0  0  0  0  0
   10.6559  -17.4264   27.4113 O   0  0  0  0  0  0  0  0  0  0  0  0
   10.6537  -15.2582   26.8255 O   0  0  0  0  0  0  0  0  0  0  0  0
  2  3  1  6
  2  1  1  0
  4  2  1  0
  4  5  1  6
  6 15  1  0
  6  4  1  0
  7  6  2  0
  8  9  1  0
  9 19  2  0
  9 10  1  0
 10 11  2  0
 11 12  1  0
 12 13  1  0
 14 13  1  1
 14 16  1  0
 14 15  1  0
 16 20  1  0
 17 16  2  0
 18 12  2  0
 19 18  1  0
 20 21  1  0
 21 27  1  0
 21 22  1  6
 23 22  1  0
 24 25  1  0
 24 23  1  0
 26 25  1  0
 27 28  2  0
 27 29  1  0
M  END
$$$$
