VYK.pdb
     RDKit          3D

 29 29  0  0  1  0  0  0  0  0999 V2000
    6.6333  -14.6259   18.2380 C   0  0  0  0  0  0  0  0  0  0  0  0
    7.4182  -14.8259   19.4877 C   0  0  2  0  0  0  0  0  0  0  0  0
    6.9016  -16.0137   20.2391 C   0  0  0  0  0  0  0  0  0  0  0  0
    7.4787  -13.6200   20.3793 C   0  0  2  0  0  0  0  0  0  0  0  0
    7.9934  -12.5156   19.5909 N   0  0  0  0  0  0  0  0  0  0  0  0
    8.2612  -13.8397   21.6102 C   0  0  0  0  0  0  0  0  0  0  0  0
    9.5146  -13.8497   21.5042 O   0  0  0  0  0  0  0  0  0  0  0  0
   10.3972  -15.0727   30.1902 O   0  0  0  0  0  0  0  0  0  0  0  0
    9.7298  -14.8282   28.9977 C   0  0  0  0  0  0  0  0  0  0  0  0
    9.1633  -15.8370   28.2685 C   0  0  0  0  0  0  0  0  0  0  0  0
    8.5036  -15.5284   27.0742 C   0  0  0  0  0  0  0  0  0  0  0  0
    8.4007  -14.2365   26.5988 C   0  0  0  0  0  0  0  0  0  0  0  0
    7.6947  -13.9959   25.3460 C   0  0  0  0  0  0  0  0  0  0  0  0
    8.4814  -14.2651   24.0938 C   0  0  2  0  0  0  0  0  0  0  0  0
    7.6851  -14.0386   22.8957 N   0  0  0  0  0  0  0  0  0  0  0  0
    9.0262  -15.6428   24.0113 C   0  0  0  0  0  0  0  0  0  0  0  0
    8.3033  -16.5984   23.6388 O   0  0  0  0  0  0  0  0  0  0  0  0
    8.9884  -13.2551   27.3704 C   0  0  0  0  0  0  0  0  0  0  0  0
    9.6369  -13.5393   28.5398 C   0  0  0  0  0  0  0  0  0  0  0  0
   10.3783  -15.9480   24.3449 N   0  0  0  0  0  0  0  0  0  0  0  0
   10.9865  -17.2463   24.0976 C   0  0  1  0  0  0  0  0  0  0  0  0
   11.6235  -17.3088   22.7563 C   0  0  0  0  0  0  0  0  0  0  0  0
   12.1500  -18.6578   22.4250 C   0  0  0  0  0  0  0  0  0  0  0  0
   12.7758  -18.7064   21.0339 C   0  0  0  0  0  0  0  0  0  0  0  0
   13.2027  -20.1358   20.7798 C   0  0  0  0  0  0  0  0  0  0  0  0
   13.6125  -20.3578   19.4235 N   0  0  0  0  0  0  0  0  0  0  0  0
   11.9586  -17.5984   25.1520 C   0  0  0  0  0  0  0  0  0  0  0  0
   11.6489  -18.5557   25.9407 O   0  0  0  0  0  0  0  0  0  0  0  0
   13.1684  -17.0019   25.3741 O   0  0  0  0  0  0  0  0  0  0  0  0
  2  3  1  1
  2  1  1  0
  4  2  1  0
  4  5  1  6
  6 15  1  0
  6  4  1  0
  7  6  2  0
  8  9  1  0
  9 19  2  0
  9 10  1  0
 10 11  2  0
 11 12  1  0
 12 13  1  0
 14 13  1  1
 14 16  1  0
 14 15  1  0
 16 20  1  0
 17 16  2  0
 18 12  2  0
 19 18  1  0
 20 21  1  0
 21 27  1  0
 21 22  1  6
 23 22  1  0
 24 25  1  0
 24 23  1  0
 26 25  1  0
 27 28  2  0
 27 29  1  0
M  END
$$$$
