SLI.pdb
     RDKit          3D

 23 22  0  0  1  0  0  0  0  0999 V2000
    9.2385  -19.0202   22.7171 O   0  0  0  0  0  0  0  0  0  0  0  0
    8.0001  -18.5541   22.3525 C   0  0  0  0  0  0  0  0  0  0  0  0
    8.0360  -17.2169   21.6588 C   0  0  2  0  0  0  0  0  0  0  0  0
    8.7093  -17.3284   20.3787 N   0  0  0  0  0  0  0  0  0  0  0  0
    8.6320  -16.1500   22.4527 C   0  0  0  0  0  0  0  0  0  0  0  0
    9.7738  -15.7082   22.1665 O   0  0  0  0  0  0  0  0  0  0  0  0
    7.2666  -11.6620   24.4113 C   0  0  0  0  0  0  0  0  0  0  0  0
    6.6759  -12.9680   24.8116 C   0  0  2  0  0  0  0  0  0  0  0  0
    5.6199  -12.6635   25.8916 C   0  0  0  0  0  0  0  0  0  0  0  0
    7.5816  -13.9751   25.3926 C   0  0  0  0  0  0  0  0  0  0  0  0
    8.5301  -14.6893   24.5133 C   0  0  2  0  0  0  0  0  0  0  0  0
    7.9223  -15.6031   23.5576 N   0  0  0  0  0  0  0  0  0  0  0  0
    9.6659  -15.3196   25.2094 C   0  0  0  0  0  0  0  0  0  0  0  0
   10.8336  -15.0988   24.8489 O   0  0  0  0  0  0  0  0  0  0  0  0
   10.2709  -13.4829   29.4708 C   0  0  0  0  0  0  0  0  0  0  0  0
   10.5194  -14.3112   28.2323 C   0  0  0  0  0  0  0  0  0  0  0  0
   10.3138  -15.7679   28.4530 C   0  0  2  0  0  0  0  0  0  0  0  0
   11.1170  -16.3084   29.6137 C   0  0  0  0  0  0  0  0  0  0  0  0
   10.4521  -16.6271   27.2208 C   0  0  2  0  0  0  0  0  0  0  0  0
    9.4166  -16.1810   26.2957 N   0  0  0  0  0  0  0  0  0  0  0  0
   10.3969  -18.0671   27.4543 C   0  0  0  0  0  0  0  0  0  0  0  0
   11.5506  -18.8091   27.6296 O   0  0  0  0  0  0  0  0  0  0  0  0
    9.3133  -18.7096   27.5082 O   0  0  0  0  0  0  0  0  0  0  0  0
  2  1  1  0
  3  2  1  0
  3  4  1  6
  5  6  2  0
  5  3  1  0
  8  7  1  1
  8 10  1  0
  9  8  1  0
 11 10  1  1
 11 12  1  0
 12  5  1  0
 13 11  1  0
 13 20  1  0
 14 13  2  0
 16 15  1  0
 17 19  1  0
 17 16  1  0
 17 18  1  1
 19 20  1  6
 19 21  1  0
 21 23  2  0
 21 22  1  0
M  END
$$$$
