SLI.pdb
     RDKit          3D

 23 22  0  0  1  0  0  0  0  0999 V2000
    9.4935  -18.4269   21.4871 O   0  0  0  0  0  0  0  0  0  0  0  0
    8.5159  -17.6318   20.9431 C   0  0  0  0  0  0  0  0  0  0  0  0
    8.8356  -16.1600   20.9910 C   0  0  2  0  0  0  0  0  0  0  0  0
    9.9437  -15.8534   20.1063 N   0  0  0  0  0  0  0  0  0  0  0  0
    9.1021  -15.6517   22.3306 C   0  0  0  0  0  0  0  0  0  0  0  0
   10.2654  -15.3047   22.6577 O   0  0  0  0  0  0  0  0  0  0  0  0
    7.3168  -12.0665   24.9617 C   0  0  0  0  0  0  0  0  0  0  0  0
    6.4472  -13.2717   24.8830 C   0  0  2  0  0  0  0  0  0  0  0  0
    5.2469  -13.0126   25.8138 C   0  0  0  0  0  0  0  0  0  0  0  0
    7.0274  -14.5585   25.3066 C   0  0  0  0  0  0  0  0  0  0  0  0
    8.2427  -15.0616   24.6335 C   0  0  2  0  0  0  0  0  0  0  0  0
    8.0442  -15.5462   23.2756 N   0  0  0  0  0  0  0  0  0  0  0  0
    9.0440  -16.0090   25.4285 C   0  0  0  0  0  0  0  0  0  0  0  0
    9.1950  -17.1834   25.0543 O   0  0  0  0  0  0  0  0  0  0  0  0
   10.6042  -13.3887   29.7775 C   0  0  0  0  0  0  0  0  0  0  0  0
   11.0246  -14.2141   28.5845 C   0  0  0  0  0  0  0  0  0  0  0  0
   10.7182  -15.6616   28.7387 C   0  0  2  0  0  0  0  0  0  0  0  0
   11.6847  -16.3753   29.6559 C   0  0  0  0  0  0  0  0  0  0  0  0
   10.5058  -16.4115   27.4471 C   0  0  2  0  0  0  0  0  0  0  0  0
    9.6430  -15.5702   26.6256 N   0  0  0  0  0  0  0  0  0  0  0  0
    9.9781  -17.7651   27.5904 C   0  0  0  0  0  0  0  0  0  0  0  0
    8.6179  -17.9983   27.6762 O   0  0  0  0  0  0  0  0  0  0  0  0
   10.7180  -18.7847   27.6448 O   0  0  0  0  0  0  0  0  0  0  0  0
  2  1  1  0
  3  2  1  0
  3  4  1  6
  5  6  2  0
  5  3  1  0
  8  7  1  1
  8 10  1  0
  9  8  1  0
 11 10  1  1
 11 12  1  0
 12  5  1  0
 13 11  1  0
 13 20  1  0
 14 13  2  0
 16 15  1  0
 17 19  1  0
 17 16  1  0
 17 18  1  6
 19 20  1  6
 19 21  1  0
 21 23  2  0
 21 22  1  0
M  END
$$$$
