SLI.pdb
     RDKit          3D

 23 22  0  0  1  0  0  0  0  0999 V2000
    9.9603  -18.6649   21.6431 O   0  0  0  0  0  0  0  0  0  0  0  0
    8.9420  -18.0586   20.9509 C   0  0  0  0  0  0  0  0  0  0  0  0
    9.1106  -16.5681   20.8068 C   0  0  2  0  0  0  0  0  0  0  0  0
   10.2536  -16.2667   19.9658 N   0  0  0  0  0  0  0  0  0  0  0  0
    9.2127  -15.8551   22.0737 C   0  0  0  0  0  0  0  0  0  0  0  0
   10.3246  -15.4234   22.4710 O   0  0  0  0  0  0  0  0  0  0  0  0
    5.5349  -13.3553   26.5418 C   0  0  0  0  0  0  0  0  0  0  0  0
    6.8508  -13.6654   25.9195 C   0  0  2  0  0  0  0  0  0  0  0  0
    7.5045  -12.3144   25.5707 C   0  0  0  0  0  0  0  0  0  0  0  0
    6.8459  -14.4549   24.6749 C   0  0  0  0  0  0  0  0  0  0  0  0
    8.1018  -15.0768   24.2069 C   0  0  2  0  0  0  0  0  0  0  0  0
    8.0514  -15.6444   22.8678 N   0  0  0  0  0  0  0  0  0  0  0  0
    8.7237  -16.0113   25.1617 C   0  0  0  0  0  0  0  0  0  0  0  0
    8.5011  -17.2312   25.0931 O   0  0  0  0  0  0  0  0  0  0  0  0
   10.8322  -13.8605   30.0377 C   0  0  0  0  0  0  0  0  0  0  0  0
   10.0770  -14.7185   29.0502 C   0  0  0  0  0  0  0  0  0  0  0  0
   10.9664  -15.4173   28.0840 C   0  0  2  0  0  0  0  0  0  0  0  0
   11.9101  -14.4803   27.3658 C   0  0  0  0  0  0  0  0  0  0  0  0
   10.2654  -16.3536   27.1313 C   0  0  2  0  0  0  0  0  0  0  0  0
    9.5796  -15.5081   26.1609 N   0  0  0  0  0  0  0  0  0  0  0  0
    9.3635  -17.3180   27.7541 C   0  0  0  0  0  0  0  0  0  0  0  0
    9.8497  -18.4369   28.4051 O   0  0  0  0  0  0  0  0  0  0  0  0
    8.1090  -17.1915   27.7350 O   0  0  0  0  0  0  0  0  0  0  0  0
  2  1  1  0
  3  2  1  0
  3  4  1  6
  5  6  2  0
  5  3  1  0
  8  7  1  6
  8 10  1  0
  9  8  1  0
 11 10  1  1
 11 12  1  0
 12  5  1  0
 13 11  1  0
 13 20  1  0
 14 13  2  0
 16 15  1  0
 17 19  1  0
 17 16  1  0
 17 18  1  6
 19 20  1  6
 19 21  1  0
 21 23  2  0
 21 22  1  0
M  END
$$$$
