SLI.pdb
     RDKit          3D

 23 22  0  0  1  0  0  0  0  0999 V2000
    7.0320  -18.5376   24.4666 O   0  0  0  0  0  0  0  0  0  0  0  0
    6.2456  -18.6028   23.3436 C   0  0  0  0  0  0  0  0  0  0  0  0
    7.0143  -18.4548   22.0561 C   0  0  2  0  0  0  0  0  0  0  0  0
    7.6676  -19.7029   21.7099 N   0  0  0  0  0  0  0  0  0  0  0  0
    7.9794  -17.3629   22.0609 C   0  0  0  0  0  0  0  0  0  0  0  0
    9.2111  -17.6051   22.1311 O   0  0  0  0  0  0  0  0  0  0  0  0
    8.7159  -13.9289   18.9095 C   0  0  0  0  0  0  0  0  0  0  0  0
    7.5970  -13.7380   19.8721 C   0  0  2  0  0  0  0  0  0  0  0  0
    6.9356  -12.3916   19.5200 C   0  0  0  0  0  0  0  0  0  0  0  0
    7.9360  -13.6689   21.3047 C   0  0  0  0  0  0  0  0  0  0  0  0
    8.4385  -14.8781   21.9891 C   0  0  2  0  0  0  0  0  0  0  0  0
    7.5303  -16.0152   21.9861 N   0  0  0  0  0  0  0  0  0  0  0  0
    8.9975  -14.6425   23.3322 C   0  0  0  0  0  0  0  0  0  0  0  0
   10.0639  -14.0228   23.4766 O   0  0  0  0  0  0  0  0  0  0  0  0
    5.9487  -12.2407   26.2102 C   0  0  0  0  0  0  0  0  0  0  0  0
    7.1564  -12.9293   25.6195 C   0  0  0  0  0  0  0  0  0  0  0  0
    7.6702  -14.0374   26.4686 C   0  0  2  0  0  0  0  0  0  0  0  0
    8.0558  -13.5862   27.8586 C   0  0  0  0  0  0  0  0  0  0  0  0
    8.7423  -14.8865   25.8320 C   0  0  2  0  0  0  0  0  0  0  0  0
    8.3087  -15.1286   24.4607 N   0  0  0  0  0  0  0  0  0  0  0  0
    9.0568  -16.1264   26.5356 C   0  0  0  0  0  0  0  0  0  0  0  0
    8.8076  -17.3592   25.9609 O   0  0  0  0  0  0  0  0  0  0  0  0
    9.5644  -16.1473   27.6897 O   0  0  0  0  0  0  0  0  0  0  0  0
  2  1  1  0
  3  2  1  0
  3  4  1  1
  5  6  2  0
  5  3  1  0
  8  7  1  6
  8 10  1  0
  9  8  1  0
 11 10  1  1
 11 12  1  0
 12  5  1  0
 13 11  1  0
 13 20  1  0
 14 13  2  0
 16 15  1  0
 17 19  1  0
 17 16  1  0
 17 18  1  1
 19 20  1  6
 19 21  1  0
 21 23  2  0
 21 22  1  0
M  END
$$$$
