SLI.pdb
     RDKit          3D

 23 22  0  0  1  0  0  0  0  0999 V2000
    9.9212  -18.7145   21.8242 O   0  0  0  0  0  0  0  0  0  0  0  0
    8.9815  -18.1479   20.9998 C   0  0  0  0  0  0  0  0  0  0  0  0
    9.1402  -16.6586   20.8338 C   0  0  2  0  0  0  0  0  0  0  0  0
   10.2728  -16.3623   19.9772 N   0  0  0  0  0  0  0  0  0  0  0  0
    9.2509  -15.9279   22.0899 C   0  0  0  0  0  0  0  0  0  0  0  0
   10.3711  -15.5214   22.4908 O   0  0  0  0  0  0  0  0  0  0  0  0
    5.5688  -13.2058   26.4245 C   0  0  0  0  0  0  0  0  0  0  0  0
    6.8882  -13.5733   25.8422 C   0  0  2  0  0  0  0  0  0  0  0  0
    7.5923  -12.2532   25.4738 C   0  0  0  0  0  0  0  0  0  0  0  0
    6.8870  -14.3955   24.6190 C   0  0  0  0  0  0  0  0  0  0  0  0
    8.1400  -15.0453   24.1819 C   0  0  2  0  0  0  0  0  0  0  0  0
    8.0889  -15.6711   22.8691 N   0  0  0  0  0  0  0  0  0  0  0  0
    8.7540  -15.9404   25.1786 C   0  0  0  0  0  0  0  0  0  0  0  0
    8.4872  -17.1532   25.1929 O   0  0  0  0  0  0  0  0  0  0  0  0
   10.7882  -13.5437   29.9334 C   0  0  0  0  0  0  0  0  0  0  0  0
   10.0557  -14.4389   28.9619 C   0  0  0  0  0  0  0  0  0  0  0  0
   10.9690  -15.2240   28.0887 C   0  0  2  0  0  0  0  0  0  0  0  0
   11.9720  -14.3621   27.3569 C   0  0  0  0  0  0  0  0  0  0  0  0
   10.2868  -16.2043   27.1672 C   0  0  2  0  0  0  0  0  0  0  0  0
    9.6532  -15.4074   26.1228 N   0  0  0  0  0  0  0  0  0  0  0  0
    9.3447  -17.1149   27.8111 C   0  0  0  0  0  0  0  0  0  0  0  0
    9.7848  -18.2192   28.5174 O   0  0  0  0  0  0  0  0  0  0  0  0
    8.0953  -16.9526   27.7618 O   0  0  0  0  0  0  0  0  0  0  0  0
  2  1  1  0
  3  2  1  0
  3  4  1  6
  5  6  2  0
  5  3  1  0
  8  7  1  6
  8 10  1  0
  9  8  1  0
 11 10  1  1
 11 12  1  0
 12  5  1  0
 13 11  1  0
 13 20  1  0
 14 13  2  0
 16 15  1  0
 17 19  1  0
 17 16  1  0
 17 18  1  6
 19 20  1  6
 19 21  1  0
 21 23  2  0
 21 22  1  0
M  END
$$$$
