SLI.pdb
     RDKit          3D

 23 22  0  0  1  0  0  0  0  0999 V2000
    7.7247  -19.0956   24.5444 O   0  0  0  0  0  0  0  0  0  0  0  0
    7.6366  -19.3696   23.2024 C   0  0  0  0  0  0  0  0  0  0  0  0
    7.2977  -18.1675   22.3594 C   0  0  2  0  0  0  0  0  0  0  0  0
    7.3728  -18.5002   20.9494 N   0  0  0  0  0  0  0  0  0  0  0  0
    8.1095  -16.9915   22.6457 C   0  0  0  0  0  0  0  0  0  0  0  0
    9.1873  -16.7988   22.0277 O   0  0  0  0  0  0  0  0  0  0  0  0
    6.0086  -13.9047   26.2344 C   0  0  0  0  0  0  0  0  0  0  0  0
    7.2564  -13.3493   25.6432 C   0  0  2  0  0  0  0  0  0  0  0  0
    7.1459  -11.8154   25.7376 C   0  0  0  0  0  0  0  0  0  0  0  0
    7.5348  -13.6567   24.2290 C   0  0  0  0  0  0  0  0  0  0  0  0
    8.3930  -14.8119   23.8942 C   0  0  2  0  0  0  0  0  0  0  0  0
    7.6842  -16.0547   23.6280 N   0  0  0  0  0  0  0  0  0  0  0  0
    9.5268  -15.0275   24.8107 C   0  0  0  0  0  0  0  0  0  0  0  0
   10.5172  -14.2788   24.7829 O   0  0  0  0  0  0  0  0  0  0  0  0
    9.1063  -13.6415   29.2703 C   0  0  0  0  0  0  0  0  0  0  0  0
    9.7931  -14.1964   28.0448 C   0  0  0  0  0  0  0  0  0  0  0  0
    9.8543  -15.6827   28.0323 C   0  0  2  0  0  0  0  0  0  0  0  0
   10.4552  -16.2596   29.2934 C   0  0  0  0  0  0  0  0  0  0  0  0
   10.4593  -16.2874   26.7897 C   0  0  2  0  0  0  0  0  0  0  0  0
    9.4796  -16.0969   25.7262 N   0  0  0  0  0  0  0  0  0  0  0  0
   10.8733  -17.6820   26.9119 C   0  0  0  0  0  0  0  0  0  0  0  0
   10.2592  -18.6787   26.1759 O   0  0  0  0  0  0  0  0  0  0  0  0
   11.7985  -18.0551   27.6831 O   0  0  0  0  0  0  0  0  0  0  0  0
  2  1  1  0
  3  2  1  0
  3  4  1  6
  5  6  2  0
  5  3  1  0
  8  7  1  6
  8 10  1  0
  9  8  1  0
 11 10  1  1
 11 12  1  0
 12  5  1  0
 13 11  1  0
 13 20  1  0
 14 13  2  0
 16 15  1  0
 17 19  1  0
 17 16  1  0
 17 18  1  1
 19 20  1  6
 19 21  1  0
 21 23  2  0
 21 22  1  0
M  END
$$$$
