SLI.pdb
     RDKit          3D

 23 22  0  0  1  0  0  0  0  0999 V2000
   11.7683  -19.4623   21.5352 O   0  0  0  0  0  0  0  0  0  0  0  0
   11.3693  -18.8370   20.3804 C   0  0  0  0  0  0  0  0  0  0  0  0
   11.7768  -17.3884   20.3038 C   0  0  2  0  0  0  0  0  0  0  0  0
   13.2154  -17.2740   20.1563 N   0  0  0  0  0  0  0  0  0  0  0  0
   11.3176  -16.5804   21.4264 C   0  0  0  0  0  0  0  0  0  0  0  0
   12.1398  -16.1399   22.2694 O   0  0  0  0  0  0  0  0  0  0  0  0
    8.3229  -12.9613   21.0386 C   0  0  0  0  0  0  0  0  0  0  0  0
    7.6839  -14.2864   21.2637 C   0  0  2  0  0  0  0  0  0  0  0  0
    6.1635  -14.0413   21.3154 C   0  0  0  0  0  0  0  0  0  0  0  0
    8.0280  -15.0063   22.5028 C   0  0  0  0  0  0  0  0  0  0  0  0
    9.4031  -15.5146   22.6870 C   0  0  2  0  0  0  0  0  0  0  0  0
    9.9335  -16.2864   21.5730 N   0  0  0  0  0  0  0  0  0  0  0  0
    9.6457  -16.1931   23.9725 C   0  0  0  0  0  0  0  0  0  0  0  0
    9.9780  -17.3893   24.0066 O   0  0  0  0  0  0  0  0  0  0  0  0
    9.5671  -12.5225   28.0924 C   0  0  0  0  0  0  0  0  0  0  0  0
   10.0192  -13.6119   27.1487 C   0  0  0  0  0  0  0  0  0  0  0  0
    9.4574  -14.9473   27.4864 C   0  0  2  0  0  0  0  0  0  0  0  0
    9.7614  -15.3745   28.9040 C   0  0  0  0  0  0  0  0  0  0  0  0
    9.7593  -16.0387   26.4898 C   0  0  2  0  0  0  0  0  0  0  0  0
    9.4974  -15.4704   25.1724 N   0  0  0  0  0  0  0  0  0  0  0  0
    9.0413  -17.2923   26.6999 C   0  0  0  0  0  0  0  0  0  0  0  0
    9.5923  -18.3167   27.4477 O   0  0  0  0  0  0  0  0  0  0  0  0
    7.8964  -17.5128   26.2198 O   0  0  0  0  0  0  0  0  0  0  0  0
  2  1  1  0
  3  2  1  0
  3  4  1  1
  5  6  2  0
  5  3  1  0
  8  7  1  1
  8 10  1  0
  9  8  1  0
 11 10  1  6
 11 12  1  0
 12  5  1  0
 13 11  1  0
 13 20  1  0
 14 13  2  0
 16 15  1  0
 17 19  1  0
 17 16  1  0
 17 18  1  1
 19 20  1  6
 19 21  1  0
 21 23  2  0
 21 22  1  0
M  END
$$$$
