SLI.pdb
     RDKit          3D

 23 22  0  0  1  0  0  0  0  0999 V2000
    8.0577  -17.7159   21.4770 O   0  0  0  0  0  0  0  0  0  0  0  0
    7.2624  -16.6256   21.2267 C   0  0  0  0  0  0  0  0  0  0  0  0
    7.9719  -15.3068   21.3940 C   0  0  2  0  0  0  0  0  0  0  0  0
    8.9844  -15.1426   20.3682 N   0  0  0  0  0  0  0  0  0  0  0  0
    8.5534  -15.1069   22.7153 C   0  0  0  0  0  0  0  0  0  0  0  0
    9.7942  -15.2166   22.8857 O   0  0  0  0  0  0  0  0  0  0  0  0
    7.9101  -11.5265   26.0318 C   0  0  0  0  0  0  0  0  0  0  0  0
    6.8873  -12.5947   25.8653 C   0  0  2  0  0  0  0  0  0  0  0  0
    5.7592  -12.2874   26.8688 C   0  0  0  0  0  0  0  0  0  0  0  0
    7.3051  -13.9836   26.1269 C   0  0  0  0  0  0  0  0  0  0  0  0
    8.2188  -14.6557   25.1800 C   0  0  2  0  0  0  0  0  0  0  0  0
    7.7169  -14.7860   23.8202 N   0  0  0  0  0  0  0  0  0  0  0  0
    8.7889  -15.9253   25.6646 C   0  0  0  0  0  0  0  0  0  0  0  0
    8.1046  -16.9614   25.6868 O   0  0  0  0  0  0  0  0  0  0  0  0
   13.7604  -16.8258   24.1853 C   0  0  0  0  0  0  0  0  0  0  0  0
   12.3246  -16.9404   24.6401 C   0  0  0  0  0  0  0  0  0  0  0  0
   12.1907  -17.1262   26.1100 C   0  0  2  0  0  0  0  0  0  0  0  0
   13.0092  -18.2829   26.6359 C   0  0  0  0  0  0  0  0  0  0  0  0
   10.7729  -17.1568   26.6242 C   0  0  2  0  0  0  0  0  0  0  0  0
   10.1263  -15.9567   26.1057 N   0  0  0  0  0  0  0  0  0  0  0  0
   10.6365  -17.2719   28.0731 C   0  0  0  0  0  0  0  0  0  0  0  0
   10.4011  -16.1603   28.8611 O   0  0  0  0  0  0  0  0  0  0  0  0
   10.7246  -18.3723   28.6824 O   0  0  0  0  0  0  0  0  0  0  0  0
  2  1  1  0
  3  2  1  0
  3  4  1  6
  5  6  2  0
  5  3  1  0
  8  7  1  1
  8 10  1  0
  9  8  1  0
 11 10  1  1
 11 12  1  0
 12  5  1  0
 13 11  1  0
 13 20  1  0
 14 13  2  0
 16 15  1  0
 17 19  1  0
 17 16  1  0
 17 18  1  6
 19 20  1  1
 19 21  1  0
 21 23  2  0
 21 22  1  0
M  END
$$$$
