SLI.pdb
     RDKit          3D

 23 22  0  0  1  0  0  0  0  0999 V2000
    7.7397  -19.1669   19.6152 O   0  0  0  0  0  0  0  0  0  0  0  0
    8.1859  -19.7628   20.7683 C   0  0  0  0  0  0  0  0  0  0  0  0
    7.9366  -18.9446   22.0089 C   0  0  2  0  0  0  0  0  0  0  0  0
    6.5130  -18.7511   22.2103 N   0  0  0  0  0  0  0  0  0  0  0  0
    8.6288  -17.6622   22.0256 C   0  0  0  0  0  0  0  0  0  0  0  0
    9.8842  -17.6182   21.9729 O   0  0  0  0  0  0  0  0  0  0  0  0
    8.9786  -13.5375   19.3783 C   0  0  0  0  0  0  0  0  0  0  0  0
    7.6836  -13.8702   20.0319 C   0  0  2  0  0  0  0  0  0  0  0  0
    6.7315  -12.6913   19.7525 C   0  0  0  0  0  0  0  0  0  0  0  0
    7.6878  -14.0596   21.4935 C   0  0  0  0  0  0  0  0  0  0  0  0
    8.5090  -15.1378   22.0818 C   0  0  2  0  0  0  0  0  0  0  0  0
    7.8847  -16.4523   22.1018 N   0  0  0  0  0  0  0  0  0  0  0  0
    9.1164  -14.8133   23.3846 C   0  0  0  0  0  0  0  0  0  0  0  0
   10.1856  -14.1847   23.4480 O   0  0  0  0  0  0  0  0  0  0  0  0
    5.9932  -12.3552   26.2717 C   0  0  0  0  0  0  0  0  0  0  0  0
    7.2243  -12.9943   25.6739 C   0  0  0  0  0  0  0  0  0  0  0  0
    7.7975  -14.0691   26.5279 C   0  0  2  0  0  0  0  0  0  0  0  0
    8.1407  -13.5959   27.9217 C   0  0  0  0  0  0  0  0  0  0  0  0
    8.9263  -14.8497   25.9018 C   0  0  2  0  0  0  0  0  0  0  0  0
    8.4711  -15.2237   24.5676 N   0  0  0  0  0  0  0  0  0  0  0  0
    9.3881  -16.0033   26.6681 C   0  0  0  0  0  0  0  0  0  0  0  0
   10.2798  -15.8575   27.7149 O   0  0  0  0  0  0  0  0  0  0  0  0
    9.0092  -17.1812   26.4251 O   0  0  0  0  0  0  0  0  0  0  0  0
  2  1  1  0
  3  2  1  0
  3  4  1  6
  5  6  2  0
  5  3  1  0
  8  7  1  1
  8 10  1  0
  9  8  1  0
 11 10  1  1
 11 12  1  0
 12  5  1  0
 13 11  1  0
 13 20  1  0
 14 13  2  0
 16 15  1  0
 17 19  1  0
 17 16  1  0
 17 18  1  1
 19 20  1  6
 19 21  1  0
 21 23  2  0
 21 22  1  0
M  END
$$$$
