SLI.pdb
     RDKit          3D

 23 22  0  0  1  0  0  0  0  0999 V2000
    9.6214  -18.3388   21.5051 O   0  0  0  0  0  0  0  0  0  0  0  0
    8.6110  -17.6027   20.9385 C   0  0  0  0  0  0  0  0  0  0  0  0
    8.8708  -16.1184   20.9357 C   0  0  2  0  0  0  0  0  0  0  0  0
    9.9772  -15.7995   20.0534 N   0  0  0  0  0  0  0  0  0  0  0  0
    9.0990  -15.5513   22.2587 C   0  0  0  0  0  0  0  0  0  0  0  0
   10.2359  -15.1181   22.5758 O   0  0  0  0  0  0  0  0  0  0  0  0
    7.4819  -12.0052   25.1072 C   0  0  0  0  0  0  0  0  0  0  0  0
    6.5219  -13.1226   24.8955 C   0  0  2  0  0  0  0  0  0  0  0  0
    5.3190  -12.8535   25.8200 C   0  0  0  0  0  0  0  0  0  0  0  0
    6.9853  -14.4864   25.2080 C   0  0  0  0  0  0  0  0  0  0  0  0
    8.2091  -15.0018   24.5600 C   0  0  2  0  0  0  0  0  0  0  0  0
    8.0335  -15.4856   23.1988 N   0  0  0  0  0  0  0  0  0  0  0  0
    8.9850  -15.9560   25.3719 C   0  0  0  0  0  0  0  0  0  0  0  0
    9.1193  -17.1362   25.0093 O   0  0  0  0  0  0  0  0  0  0  0  0
   10.7667  -13.2818   29.6556 C   0  0  0  0  0  0  0  0  0  0  0  0
   11.0418  -14.1544   28.4538 C   0  0  0  0  0  0  0  0  0  0  0  0
   10.6796  -15.5806   28.6725 C   0  0  2  0  0  0  0  0  0  0  0  0
   11.6370  -16.2981   29.5961 C   0  0  0  0  0  0  0  0  0  0  0  0
   10.4061  -16.3706   27.4169 C   0  0  2  0  0  0  0  0  0  0  0  0
    9.5785  -15.5175   26.5716 N   0  0  0  0  0  0  0  0  0  0  0  0
    9.8066  -17.6854   27.6246 C   0  0  0  0  0  0  0  0  0  0  0  0
    8.4346  -17.8450   27.6898 O   0  0  0  0  0  0  0  0  0  0  0  0
   10.4917  -18.7358   27.7559 O   0  0  0  0  0  0  0  0  0  0  0  0
  2  1  1  0
  3  2  1  0
  3  4  1  6
  5  6  2  0
  5  3  1  0
  8  7  1  1
  8 10  1  0
  9  8  1  0
 11 10  1  1
 11 12  1  0
 12  5  1  0
 13 11  1  0
 13 20  1  0
 14 13  2  0
 16 15  1  0
 17 19  1  0
 17 16  1  0
 17 18  1  6
 19 20  1  6
 19 21  1  0
 21 23  2  0
 21 22  1  0
M  END
$$$$
