DFI.pdb
     RDKit          3D

 28 28  0  0  1  0  0  0  0  0999 V2000
   11.7135  -16.6042   19.4507 N   0  0  0  0  0  0  0  0  0  0  0  0
   11.2449  -17.4411   20.5379 C   0  0  1  0  0  0  0  0  0  0  0  0
   12.2742  -18.4445   20.9440 C   0  0  0  0  0  0  0  0  0  0  0  0
   12.7739  -19.2095   19.7723 C   0  0  0  0  0  0  0  0  0  0  0  0
   11.9378  -19.7183   18.9796 O   0  0  0  0  0  0  0  0  0  0  0  0
   10.7629  -16.5862   21.6399 C   0  0  0  0  0  0  0  0  0  0  0  0
   11.5214  -15.6160   21.9600 O   0  0  0  0  0  0  0  0  0  0  0  0
   14.1168  -19.4008   19.4936 O   0  0  0  0  0  0  0  0  0  0  0  0
    9.5663  -16.7486   22.3491 N   0  0  0  0  0  0  0  0  0  0  0  0
    9.1691  -15.8997   23.4569 C   0  0  1  0  0  0  0  0  0  0  0  0
    7.7815  -15.4172   23.3777 C   0  0  0  0  0  0  0  0  0  0  0  0
    7.2950  -14.4714   24.3619 C   0  0  0  0  0  0  0  0  0  0  0  0
    7.4676  -13.1078   24.2381 C   0  0  0  0  0  0  0  0  0  0  0  0
    7.0235  -12.2057   25.1753 C   0  0  0  0  0  0  0  0  0  0  0  0
    6.3717  -12.6739   26.3000 C   0  0  0  0  0  0  0  0  0  0  0  0
    6.1817  -14.0097   26.4594 C   0  0  0  0  0  0  0  0  0  0  0  0
    6.6426  -14.9065   25.4918 C   0  0  0  0  0  0  0  0  0  0  0  0
    9.6090  -16.4756   24.7610 C   0  0  0  0  0  0  0  0  0  0  0  0
    9.6897  -17.7335   24.8703 O   0  0  0  0  0  0  0  0  0  0  0  0
   10.2311  -12.7408   28.9681 C   0  0  0  0  0  0  0  0  0  0  0  0
   10.4648  -13.7442   27.8998 C   0  0  0  0  0  0  0  0  0  0  0  0
   10.2115  -15.1772   28.2475 C   0  0  2  0  0  0  0  0  0  0  0  0
   10.8886  -15.4579   29.5674 C   0  0  0  0  0  0  0  0  0  0  0  0
   10.3367  -16.1761   27.1919 C   0  0  2  0  0  0  0  0  0  0  0  0
    9.9411  -15.6886   25.8674 N   0  0  0  0  0  0  0  0  0  0  0  0
    9.8412  -17.5420   27.4276 C   0  0  0  0  0  0  0  0  0  0  0  0
    8.6793  -17.9522   27.2878 O   0  0  0  0  0  0  0  0  0  0  0  0
   10.7495  -18.5368   27.8661 O   0  0  0  0  0  0  0  0  0  0  0  0
  2  1  1  6
  2  6  1  0
  3  2  1  0
  4  3  1  0
  5  4  2  0
  6  9  1  0
  6  7  2  0
  8  4  1  0
  9 10  1  0
 10 18  1  0
 10 11  1  1
 11 12  1  0
 12 17  2  0
 13 12  1  0
 13 14  2  0
 14 15  1  0
 15 16  2  0
 17 16  1  0
 18 19  2  0
 21 20  1  0
 22 21  1  0
 22 23  1  1
 24 22  1  0
 24 25  1  6
 25 18  1  0
 26 28  1  0
 26 24  1  0
 27 26  2  0
M  END
$$$$
