DFI.pdb
     RDKit          3D

 28 28  0  0  1  0  0  0  0  0999 V2000
    9.3912  -18.8154   20.9824 N   0  0  0  0  0  0  0  0  0  0  0  0
   10.5624  -17.9625   21.0373 C   0  0  1  0  0  0  0  0  0  0  0  0
   11.0031  -17.5433   19.6731 C   0  0  0  0  0  0  0  0  0  0  0  0
   11.1903  -18.7174   18.7818 C   0  0  0  0  0  0  0  0  0  0  0  0
   11.9258  -19.6628   19.1715 O   0  0  0  0  0  0  0  0  0  0  0  0
   10.3082  -16.8423   21.9637 C   0  0  0  0  0  0  0  0  0  0  0  0
   11.2645  -16.0154   22.1076 O   0  0  0  0  0  0  0  0  0  0  0  0
   10.6001  -18.8394   17.5350 O   0  0  0  0  0  0  0  0  0  0  0  0
    9.1282  -16.6165   22.6833 N   0  0  0  0  0  0  0  0  0  0  0  0
    8.8969  -15.4357   23.4942 C   0  0  1  0  0  0  0  0  0  0  0  0
    7.4758  -15.1388   23.7332 C   0  0  0  0  0  0  0  0  0  0  0  0
    7.1104  -14.0619   24.6313 C   0  0  0  0  0  0  0  0  0  0  0  0
    6.2576  -14.2377   25.7020 C   0  0  0  0  0  0  0  0  0  0  0  0
    5.8935  -13.2177   26.5483 C   0  0  0  0  0  0  0  0  0  0  0  0
    6.3987  -11.9508   26.3273 C   0  0  0  0  0  0  0  0  0  0  0  0
    7.2416  -11.7361   25.2836 C   0  0  0  0  0  0  0  0  0  0  0  0
    7.5967  -12.7901   24.4375 C   0  0  0  0  0  0  0  0  0  0  0  0
    9.7991  -15.4132   24.6821 C   0  0  0  0  0  0  0  0  0  0  0  0
   10.6398  -14.4732   24.7854 O   0  0  0  0  0  0  0  0  0  0  0  0
   10.3427  -12.7522   28.1770 C   0  0  0  0  0  0  0  0  0  0  0  0
   10.6620  -13.8949   27.2853 C   0  0  0  0  0  0  0  0  0  0  0  0
   10.3326  -15.2637   27.7917 C   0  0  2  0  0  0  0  0  0  0  0  0
   10.8285  -15.3606   29.2143 C   0  0  0  0  0  0  0  0  0  0  0  0
   10.5681  -16.4012   26.9094 C   0  0  2  0  0  0  0  0  0  0  0  0
    9.7555  -16.3809   25.6897 N   0  0  0  0  0  0  0  0  0  0  0  0
   10.6392  -17.7559   27.4808 C   0  0  0  0  0  0  0  0  0  0  0  0
   11.4610  -18.1780   28.3082 O   0  0  0  0  0  0  0  0  0  0  0  0
    9.6895  -18.7248   27.0734 O   0  0  0  0  0  0  0  0  0  0  0  0
  2  1  1  6
  2  6  1  0
  3  2  1  0
  4  3  1  0
  5  4  2  0
  6  9  1  0
  6  7  2  0
  8  4  1  0
  9 10  1  0
 10 18  1  0
 10 11  1  1
 11 12  1  0
 12 17  2  0
 13 12  1  0
 13 14  2  0
 14 15  1  0
 15 16  2  0
 17 16  1  0
 18 19  2  0
 21 20  1  0
 22 21  1  0
 22 23  1  1
 24 22  1  0
 24 25  1  6
 25 18  1  0
 26 28  1  0
 26 24  1  0
 27 26  2  0
M  END
$$$$
