DFI.pdb
     RDKit          3D

 28 28  0  0  1  0  0  0  0  0999 V2000
   10.1953  -18.0667   20.2349 N   0  0  0  0  0  0  0  0  0  0  0  0
   11.2884  -17.2727   20.7610 C   0  0  1  0  0  0  0  0  0  0  0  0
   11.9707  -16.4930   19.6851 C   0  0  0  0  0  0  0  0  0  0  0  0
   12.3581  -17.3674   18.5478 C   0  0  0  0  0  0  0  0  0  0  0  0
   11.9140  -18.5455   18.5108 O   0  0  0  0  0  0  0  0  0  0  0  0
   10.7997  -16.4536   21.8870 C   0  0  0  0  0  0  0  0  0  0  0  0
   11.6639  -15.7007   22.4396 O   0  0  0  0  0  0  0  0  0  0  0  0
   13.1862  -16.9640   17.5139 O   0  0  0  0  0  0  0  0  0  0  0  0
    9.4924  -16.4347   22.3889 N   0  0  0  0  0  0  0  0  0  0  0  0
    9.0901  -15.6626   23.5498 C   0  0  1  0  0  0  0  0  0  0  0  0
    7.7658  -15.0339   23.4248 C   0  0  0  0  0  0  0  0  0  0  0  0
    7.2589  -14.2112   24.5046 C   0  0  0  0  0  0  0  0  0  0  0  0
    7.5514  -12.8676   24.6219 C   0  0  0  0  0  0  0  0  0  0  0  0
    7.0879  -12.0845   25.6521 C   0  0  0  0  0  0  0  0  0  0  0  0
    6.2900  -12.6582   26.6234 C   0  0  0  0  0  0  0  0  0  0  0  0
    5.9790  -13.9783   26.5442 C   0  0  0  0  0  0  0  0  0  0  0  0
    6.4627  -14.7531   25.4864 C   0  0  0  0  0  0  0  0  0  0  0  0
    9.3667  -16.4062   24.8132 C   0  0  0  0  0  0  0  0  0  0  0  0
    9.3594  -17.6712   24.7845 O   0  0  0  0  0  0  0  0  0  0  0  0
   10.1568  -14.4372   30.0806 C   0  0  0  0  0  0  0  0  0  0  0  0
   10.3646  -14.2634   28.6214 C   0  0  0  0  0  0  0  0  0  0  0  0
   11.1379  -15.3311   27.9140 C   0  0  2  0  0  0  0  0  0  0  0  0
   12.3274  -14.6774   27.2527 C   0  0  0  0  0  0  0  0  0  0  0  0
   10.3971  -16.3287   27.1500 C   0  0  2  0  0  0  0  0  0  0  0  0
    9.6385  -15.7695   26.0275 N   0  0  0  0  0  0  0  0  0  0  0  0
    9.6167  -17.3523   27.8643 C   0  0  0  0  0  0  0  0  0  0  0  0
    8.3898  -17.5268   27.8180 O   0  0  0  0  0  0  0  0  0  0  0  0
   10.2917  -18.2629   28.7139 O   0  0  0  0  0  0  0  0  0  0  0  0
  2  1  1  6
  2  6  1  0
  3  2  1  0
  4  3  1  0
  5  4  2  0
  6  9  1  0
  6  7  2  0
  8  4  1  0
  9 10  1  0
 10 18  1  0
 10 11  1  6
 11 12  1  0
 12 17  2  0
 13 12  1  0
 13 14  2  0
 14 15  1  0
 15 16  2  0
 17 16  1  0
 18 19  2  0
 21 20  1  0
 22 21  1  0
 22 23  1  6
 24 22  1  0
 24 25  1  6
 25 18  1  0
 26 28  1  0
 26 24  1  0
 27 26  2  0
M  END
$$$$
