DFI.pdb
     RDKit          3D

 28 28  0  0  1  0  0  0  0  0999 V2000
   10.3876  -17.4396   19.0578 N   0  0  0  0  0  0  0  0  0  0  0  0
   10.2781  -17.9220   20.4207 C   0  0  1  0  0  0  0  0  0  0  0  0
   11.4801  -18.7117   20.8240 C   0  0  0  0  0  0  0  0  0  0  0  0
   11.6532  -19.9093   19.9616 C   0  0  0  0  0  0  0  0  0  0  0  0
   12.7971  -20.4281   19.8678 O   0  0  0  0  0  0  0  0  0  0  0  0
    9.9669  -16.7909   21.3159 C   0  0  0  0  0  0  0  0  0  0  0  0
   10.7976  -15.8272   21.2992 O   0  0  0  0  0  0  0  0  0  0  0  0
   10.6241  -20.4981   19.2460 O   0  0  0  0  0  0  0  0  0  0  0  0
    8.8578  -16.6900   22.1650 N   0  0  0  0  0  0  0  0  0  0  0  0
    8.7019  -15.6452   23.1598 C   0  0  1  0  0  0  0  0  0  0  0  0
    7.3029  -15.3422   23.5000 C   0  0  0  0  0  0  0  0  0  0  0  0
    7.0066  -14.2523   24.4078 C   0  0  0  0  0  0  0  0  0  0  0  0
    6.2602  -14.4178   25.5567 C   0  0  0  0  0  0  0  0  0  0  0  0
    5.9612  -13.3858   26.4140 C   0  0  0  0  0  0  0  0  0  0  0  0
    6.4241  -12.1170   26.1227 C   0  0  0  0  0  0  0  0  0  0  0  0
    7.1625  -11.9122   25.0008 C   0  0  0  0  0  0  0  0  0  0  0  0
    7.4532  -12.9783   24.1452 C   0  0  0  0  0  0  0  0  0  0  0  0
    9.6451  -15.8413   24.2989 C   0  0  0  0  0  0  0  0  0  0  0  0
   10.8821  -15.6684   24.0965 O   0  0  0  0  0  0  0  0  0  0  0  0
   10.5290  -13.9244   29.7830 C   0  0  0  0  0  0  0  0  0  0  0  0
   10.9346  -14.9218   28.7616 C   0  0  0  0  0  0  0  0  0  0  0  0
   10.1150  -14.9851   27.5116 C   0  0  2  0  0  0  0  0  0  0  0  0
    8.8149  -14.2645   27.7758 C   0  0  0  0  0  0  0  0  0  0  0  0
   10.0575  -16.2499   26.7871 C   0  0  2  0  0  0  0  0  0  0  0  0
    9.2247  -16.2030   25.5819 N   0  0  0  0  0  0  0  0  0  0  0  0
    9.8461  -17.5008   27.5336 C   0  0  0  0  0  0  0  0  0  0  0  0
    8.7872  -18.1366   27.6460 O   0  0  0  0  0  0  0  0  0  0  0  0
   10.9389  -18.0851   28.2201 O   0  0  0  0  0  0  0  0  0  0  0  0
  2  1  1  6
  2  6  1  0
  3  2  1  0
  4  3  1  0
  5  4  2  0
  6  9  1  0
  6  7  2  0
  8  4  1  0
  9 10  1  0
 10 18  1  0
 10 11  1  1
 11 12  1  0
 12 17  2  0
 13 12  1  0
 13 14  2  0
 14 15  1  0
 15 16  2  0
 17 16  1  0
 18 19  2  0
 21 20  1  0
 22 21  1  0
 22 23  1  1
 24 22  1  0
 24 25  1  6
 25 18  1  0
 26 28  1  0
 26 24  1  0
 27 26  2  0
M  END
$$$$
