DFI.pdb
     RDKit          3D

 28 28  0  0  1  0  0  0  0  0999 V2000
   10.4676  -16.2499   19.5526 N   0  0  0  0  0  0  0  0  0  0  0  0
    9.6067  -16.8631   20.5451 C   0  0  1  0  0  0  0  0  0  0  0  0
    9.9981  -18.2791   20.8148 C   0  0  0  0  0  0  0  0  0  0  0  0
    9.8063  -19.1305   19.6121 C   0  0  0  0  0  0  0  0  0  0  0  0
    8.6363  -19.4651   19.2870 O   0  0  0  0  0  0  0  0  0  0  0  0
    9.5592  -16.0074   21.7464 C   0  0  0  0  0  0  0  0  0  0  0  0
   10.6834  -15.5964   22.1779 O   0  0  0  0  0  0  0  0  0  0  0  0
   10.8450  -19.5847   18.8168 O   0  0  0  0  0  0  0  0  0  0  0  0
    8.4056  -15.6172   22.4379 N   0  0  0  0  0  0  0  0  0  0  0  0
    8.4306  -14.9088   23.7041 C   0  0  1  0  0  0  0  0  0  0  0  0
    7.2285  -14.1020   23.9660 C   0  0  0  0  0  0  0  0  0  0  0  0
    7.0727  -13.4444   25.2479 C   0  0  0  0  0  0  0  0  0  0  0  0
    6.3805  -14.0099   26.2993 C   0  0  0  0  0  0  0  0  0  0  0  0
    6.2144  -13.3854   27.5125 C   0  0  0  0  0  0  0  0  0  0  0  0
    6.7620  -12.1309   27.7010 C   0  0  0  0  0  0  0  0  0  0  0  0
    7.4509  -11.5396   26.6903 C   0  0  0  0  0  0  0  0  0  0  0  0
    7.6060  -12.1956   25.4661 C   0  0  0  0  0  0  0  0  0  0  0  0
    8.9008  -15.7956   24.8079 C   0  0  0  0  0  0  0  0  0  0  0  0
    8.2862  -16.8822   25.0142 O   0  0  0  0  0  0  0  0  0  0  0  0
   13.6174  -17.2454   24.3684 C   0  0  0  0  0  0  0  0  0  0  0  0
   12.2230  -17.3002   24.8737 C   0  0  0  0  0  0  0  0  0  0  0  0
   11.9791  -16.7713   26.2517 C   0  0  2  0  0  0  0  0  0  0  0  0
   12.7299  -17.6505   27.2226 C   0  0  0  0  0  0  0  0  0  0  0  0
   10.6227  -16.3685   26.6065 C   0  0  2  0  0  0  0  0  0  0  0  0
    9.9929  -15.4834   25.6224 N   0  0  0  0  0  0  0  0  0  0  0  0
   10.3366  -15.9273   27.9813 C   0  0  0  0  0  0  0  0  0  0  0  0
   10.4427  -16.5961   29.0203 O   0  0  0  0  0  0  0  0  0  0  0  0
    9.8847  -14.6024   28.1983 O   0  0  0  0  0  0  0  0  0  0  0  0
  2  1  1  6
  2  6  1  0
  3  2  1  0
  4  3  1  0
  5  4  2  0
  6  9  1  0
  6  7  2  0
  8  4  1  0
  9 10  1  0
 10 18  1  0
 10 11  1  1
 11 12  1  0
 12 17  2  0
 13 12  1  0
 13 14  2  0
 14 15  1  0
 15 16  2  0
 17 16  1  0
 18 19  2  0
 21 20  1  0
 22 21  1  0
 22 23  1  1
 24 22  1  0
 24 25  1  6
 25 18  1  0
 26 28  1  0
 26 24  1  0
 27 26  2  0
M  END
$$$$
