DFI.pdb
     RDKit          3D

 28 28  0  0  1  0  0  0  0  0999 V2000
   10.3558  -17.0629   19.4785 N   0  0  0  0  0  0  0  0  0  0  0  0
   11.2002  -17.3185   20.6290 C   0  0  1  0  0  0  0  0  0  0  0  0
   12.6448  -17.1141   20.3086 C   0  0  0  0  0  0  0  0  0  0  0  0
   13.1502  -18.1725   19.3963 C   0  0  0  0  0  0  0  0  0  0  0  0
   13.1304  -17.9623   18.1546 O   0  0  0  0  0  0  0  0  0  0  0  0
   10.7155  -16.5275   21.7765 C   0  0  0  0  0  0  0  0  0  0  0  0
   11.5722  -15.7606   22.3214 O   0  0  0  0  0  0  0  0  0  0  0  0
   13.6477  -19.3899   19.8302 O   0  0  0  0  0  0  0  0  0  0  0  0
    9.4192  -16.5486   22.3061 N   0  0  0  0  0  0  0  0  0  0  0  0
    9.0013  -15.7398   23.4361 C   0  0  1  0  0  0  0  0  0  0  0  0
    7.6371  -15.2013   23.3188 C   0  0  0  0  0  0  0  0  0  0  0  0
    7.1188  -14.3320   24.3559 C   0  0  0  0  0  0  0  0  0  0  0  0
    6.3113  -14.7866   25.3784 C   0  0  0  0  0  0  0  0  0  0  0  0
    5.8024  -13.9653   26.3562 C   0  0  0  0  0  0  0  0  0  0  0  0
    6.1066  -12.6180   26.3249 C   0  0  0  0  0  0  0  0  0  0  0  0
    6.8986  -12.1306   25.3344 C   0  0  0  0  0  0  0  0  0  0  0  0
    7.4037  -12.9865   24.3519 C   0  0  0  0  0  0  0  0  0  0  0  0
    9.3586  -16.3944   24.7282 C   0  0  0  0  0  0  0  0  0  0  0  0
    9.3835  -17.6585   24.7792 O   0  0  0  0  0  0  0  0  0  0  0  0
   10.6352  -12.8168   28.8726 C   0  0  0  0  0  0  0  0  0  0  0  0
   10.7331  -13.8788   27.8404 C   0  0  0  0  0  0  0  0  0  0  0  0
   10.2570  -15.2442   28.2241 C   0  0  2  0  0  0  0  0  0  0  0  0
   10.9968  -15.6561   29.4740 C   0  0  0  0  0  0  0  0  0  0  0  0
   10.0935  -16.2396   27.1703 C   0  0  2  0  0  0  0  0  0  0  0  0
    9.6723  -15.6752   25.8849 N   0  0  0  0  0  0  0  0  0  0  0  0
    9.3767  -17.4913   27.4641 C   0  0  0  0  0  0  0  0  0  0  0  0
    8.1636  -17.7098   27.3278 O   0  0  0  0  0  0  0  0  0  0  0  0
   10.1045  -18.5999   27.9622 O   0  0  0  0  0  0  0  0  0  0  0  0
  2  1  1  6
  2  6  1  0
  3  2  1  0
  4  3  1  0
  5  4  2  0
  6  9  1  0
  6  7  2  0
  8  4  1  0
  9 10  1  0
 10 18  1  0
 10 11  1  1
 11 12  1  0
 12 17  2  0
 13 12  1  0
 13 14  2  0
 14 15  1  0
 15 16  2  0
 17 16  1  0
 18 19  2  0
 21 20  1  0
 22 21  1  0
 22 23  1  1
 24 22  1  0
 24 25  1  6
 25 18  1  0
 26 28  1  0
 26 24  1  0
 27 26  2  0
M  END
$$$$
