DFI.pdb
     RDKit          3D

 28 28  0  0  1  0  0  0  0  0999 V2000
   11.4293  -16.8801   19.5632 N   0  0  0  0  0  0  0  0  0  0  0  0
   10.6606  -17.6222   20.5432 C   0  0  1  0  0  0  0  0  0  0  0  0
   11.3737  -18.8595   20.9810 C   0  0  0  0  0  0  0  0  0  0  0  0
   11.5811  -19.7937   19.8443 C   0  0  0  0  0  0  0  0  0  0  0  0
   10.6573  -19.9347   18.9997 O   0  0  0  0  0  0  0  0  0  0  0  0
   10.2758  -16.7211   21.6467 C   0  0  0  0  0  0  0  0  0  0  0  0
   11.1628  -15.8862   22.0142 O   0  0  0  0  0  0  0  0  0  0  0  0
   12.7394  -20.5279   19.6525 O   0  0  0  0  0  0  0  0  0  0  0  0
    9.0426  -16.7070   22.3103 N   0  0  0  0  0  0  0  0  0  0  0  0
    8.7415  -15.8275   23.4245 C   0  0  1  0  0  0  0  0  0  0  0  0
    7.3811  -15.2677   23.3984 C   0  0  0  0  0  0  0  0  0  0  0  0
    6.9873  -14.2963   24.3990 C   0  0  0  0  0  0  0  0  0  0  0  0
    6.3575  -14.6479   25.5756 C   0  0  0  0  0  0  0  0  0  0  0  0
    5.9662  -13.7309   26.5218 C   0  0  0  0  0  0  0  0  0  0  0  0
    6.2092  -12.3896   26.2960 C   0  0  0  0  0  0  0  0  0  0  0  0
    6.8270  -12.0023   25.1497 C   0  0  0  0  0  0  0  0  0  0  0  0
    7.2154  -12.9543   24.2032 C   0  0  0  0  0  0  0  0  0  0  0  0
    9.2035  -16.4161   24.7151 C   0  0  0  0  0  0  0  0  0  0  0  0
    9.0600  -17.6598   24.8985 O   0  0  0  0  0  0  0  0  0  0  0  0
   10.8909  -13.2453   29.4929 C   0  0  0  0  0  0  0  0  0  0  0  0
   10.1675  -14.1020   28.5205 C   0  0  0  0  0  0  0  0  0  0  0  0
   10.9642  -15.1588   27.8228 C   0  0  2  0  0  0  0  0  0  0  0  0
   12.1656  -14.4924   27.1968 C   0  0  0  0  0  0  0  0  0  0  0  0
   10.2482  -16.1537   27.0320 C   0  0  2  0  0  0  0  0  0  0  0  0
    9.7926  -15.6572   25.7304 N   0  0  0  0  0  0  0  0  0  0  0  0
    9.2178  -16.9838   27.6770 C   0  0  0  0  0  0  0  0  0  0  0  0
    9.3841  -17.8172   28.5802 O   0  0  0  0  0  0  0  0  0  0  0  0
    7.8710  -16.8586   27.2559 O   0  0  0  0  0  0  0  0  0  0  0  0
  2  1  1  6
  2  6  1  0
  3  2  1  0
  4  3  1  0
  5  4  2  0
  6  9  1  0
  6  7  2  0
  8  4  1  0
  9 10  1  0
 10 18  1  0
 10 11  1  1
 11 12  1  0
 12 17  2  0
 13 12  1  0
 13 14  2  0
 14 15  1  0
 15 16  2  0
 17 16  1  0
 18 19  2  0
 21 20  1  0
 22 21  1  0
 22 23  1  6
 24 22  1  0
 24 25  1  6
 25 18  1  0
 26 28  1  0
 26 24  1  0
 27 26  2  0
M  END
$$$$
