DFI.pdb
     RDKit          3D

 28 28  0  0  1  0  0  0  0  0999 V2000
   10.2516  -18.3965   20.2662 N   0  0  0  0  0  0  0  0  0  0  0  0
   11.2027  -17.3319   20.5196 C   0  0  1  0  0  0  0  0  0  0  0  0
   11.6427  -16.6733   19.2532 C   0  0  0  0  0  0  0  0  0  0  0  0
   12.1496  -17.6698   18.2744 C   0  0  0  0  0  0  0  0  0  0  0  0
   12.1122  -18.8914   18.5790 O   0  0  0  0  0  0  0  0  0  0  0  0
   10.6435  -16.4054   21.5228 C   0  0  0  0  0  0  0  0  0  0  0  0
   11.3725  -15.4059   21.8201 O   0  0  0  0  0  0  0  0  0  0  0  0
   12.6666  -17.3363   17.0338 O   0  0  0  0  0  0  0  0  0  0  0  0
    9.4039  -16.5301   22.1625 N   0  0  0  0  0  0  0  0  0  0  0  0
    8.9672  -15.6630   23.2409 C   0  0  1  0  0  0  0  0  0  0  0  0
    7.5956  -15.1539   23.0856 C   0  0  0  0  0  0  0  0  0  0  0  0
    7.0315  -14.2931   24.1058 C   0  0  0  0  0  0  0  0  0  0  0  0
    6.2979  -14.7762   25.1702 C   0  0  0  0  0  0  0  0  0  0  0  0
    5.7459  -13.9648   26.1326 C   0  0  0  0  0  0  0  0  0  0  0  0
    5.9268  -12.5981   26.0413 C   0  0  0  0  0  0  0  0  0  0  0  0
    6.6429  -12.0825   25.0083 C   0  0  0  0  0  0  0  0  0  0  0  0
    7.1942  -12.9289   24.0425 C   0  0  0  0  0  0  0  0  0  0  0  0
    9.3273  -16.2348   24.5709 C   0  0  0  0  0  0  0  0  0  0  0  0
    9.5640  -17.4751   24.6520 O   0  0  0  0  0  0  0  0  0  0  0  0
   10.8212  -13.9409   30.2557 C   0  0  0  0  0  0  0  0  0  0  0  0
   10.9287  -15.0004   29.2219 C   0  0  0  0  0  0  0  0  0  0  0  0
   10.3000  -14.7191   27.8937 C   0  0  2  0  0  0  0  0  0  0  0  0
    9.1268  -13.7974   28.1250 C   0  0  0  0  0  0  0  0  0  0  0  0
   10.1205  -15.8302   26.9658 C   0  0  2  0  0  0  0  0  0  0  0  0
    9.4200  -15.4621   25.7320 N   0  0  0  0  0  0  0  0  0  0  0  0
    9.6547  -17.1297   27.4766 C   0  0  0  0  0  0  0  0  0  0  0  0
   10.2862  -17.9251   28.1883 O   0  0  0  0  0  0  0  0  0  0  0  0
    8.3493  -17.5703   27.1469 O   0  0  0  0  0  0  0  0  0  0  0  0
  2  1  1  6
  2  6  1  0
  3  2  1  0
  4  3  1  0
  5  4  2  0
  6  9  1  0
  6  7  2  0
  8  4  1  0
  9 10  1  0
 10 18  1  0
 10 11  1  1
 11 12  1  0
 12 17  2  0
 13 12  1  0
 13 14  2  0
 14 15  1  0
 15 16  2  0
 17 16  1  0
 18 19  2  0
 21 20  1  0
 22 21  1  0
 22 23  1  1
 24 22  1  0
 24 25  1  6
 25 18  1  0
 26 28  1  0
 26 24  1  0
 27 26  2  0
M  END
$$$$
