DFI.pdb
     RDKit          3D

 28 28  0  0  1  0  0  0  0  0999 V2000
   10.2343  -17.9508   19.9524 N   0  0  0  0  0  0  0  0  0  0  0  0
   11.3572  -17.4742   20.7361 C   0  0  1  0  0  0  0  0  0  0  0  0
   12.3788  -16.7988   19.8810 C   0  0  0  0  0  0  0  0  0  0  0  0
   12.9060  -17.7197   18.8407 C   0  0  0  0  0  0  0  0  0  0  0  0
   14.0067  -17.4475   18.2922 O   0  0  0  0  0  0  0  0  0  0  0  0
   10.8585  -16.6481   21.8525 C   0  0  0  0  0  0  0  0  0  0  0  0
   11.7280  -15.9284   22.4398 O   0  0  0  0  0  0  0  0  0  0  0  0
   12.2559  -18.8719   18.4314 O   0  0  0  0  0  0  0  0  0  0  0  0
    9.5366  -16.5901   22.3113 N   0  0  0  0  0  0  0  0  0  0  0  0
    9.1075  -15.7545   23.4174 C   0  0  1  0  0  0  0  0  0  0  0  0
    7.7279  -15.2579   23.2964 C   0  0  0  0  0  0  0  0  0  0  0  0
    7.2147  -14.3231   24.2775 C   0  0  0  0  0  0  0  0  0  0  0  0
    6.4168  -14.7111   25.3346 C   0  0  0  0  0  0  0  0  0  0  0  0
    5.9128  -13.8281   26.2596 C   0  0  0  0  0  0  0  0  0  0  0  0
    6.2120  -12.4849   26.1363 C   0  0  0  0  0  0  0  0  0  0  0  0
    6.9945  -12.0622   25.1093 C   0  0  0  0  0  0  0  0  0  0  0  0
    7.4949  -12.9800   24.1818 C   0  0  0  0  0  0  0  0  0  0  0  0
    9.4956  -16.3540   24.7272 C   0  0  0  0  0  0  0  0  0  0  0  0
    9.5793  -17.6135   24.8148 O   0  0  0  0  0  0  0  0  0  0  0  0
   10.8998  -12.6228   28.7293 C   0  0  0  0  0  0  0  0  0  0  0  0
   10.8287  -13.6913   27.7017 C   0  0  0  0  0  0  0  0  0  0  0  0
   10.4149  -15.0523   28.1652 C   0  0  2  0  0  0  0  0  0  0  0  0
   11.2337  -15.3919   29.3873 C   0  0  0  0  0  0  0  0  0  0  0  0
   10.2237  -16.0943   27.1625 C   0  0  2  0  0  0  0  0  0  0  0  0
    9.7761  -15.5877   25.8620 N   0  0  0  0  0  0  0  0  0  0  0  0
    9.5085  -17.3274   27.5297 C   0  0  0  0  0  0  0  0  0  0  0  0
    8.2836  -17.5198   27.5020 O   0  0  0  0  0  0  0  0  0  0  0  0
   10.2530  -18.4482   27.9728 O   0  0  0  0  0  0  0  0  0  0  0  0
  2  1  1  6
  2  6  1  0
  3  2  1  0
  4  3  1  0
  5  4  2  0
  6  9  1  0
  6  7  2  0
  8  4  1  0
  9 10  1  0
 10 18  1  0
 10 11  1  1
 11 12  1  0
 12 17  2  0
 13 12  1  0
 13 14  2  0
 14 15  1  0
 15 16  2  0
 17 16  1  0
 18 19  2  0
 21 20  1  0
 22 21  1  0
 22 23  1  1
 24 22  1  0
 24 25  1  6
 25 18  1  0
 26 28  1  0
 26 24  1  0
 27 26  2  0
M  END
$$$$
