DFI.pdb
     RDKit          3D

 28 28  0  0  1  0  0  0  0  0999 V2000
    9.6804  -18.3975   20.1572 N   0  0  0  0  0  0  0  0  0  0  0  0
   10.5179  -17.2357   19.9315 C   0  0  1  0  0  0  0  0  0  0  0  0
   10.2561  -16.6186   18.5967 C   0  0  0  0  0  0  0  0  0  0  0  0
   10.9079  -17.3913   17.5077 C   0  0  0  0  0  0  0  0  0  0  0  0
   11.6595  -18.3544   17.8143 O   0  0  0  0  0  0  0  0  0  0  0  0
   10.3788  -16.3048   21.0681 C   0  0  0  0  0  0  0  0  0  0  0  0
   10.2412  -15.0770   20.7641 O   0  0  0  0  0  0  0  0  0  0  0  0
   10.7392  -17.1163   16.1610 O   0  0  0  0  0  0  0  0  0  0  0  0
   10.3854  -16.6507   22.4251 N   0  0  0  0  0  0  0  0  0  0  0  0
    9.5438  -16.0119   23.4197 C   0  0  1  0  0  0  0  0  0  0  0  0
    8.1515  -15.8096   22.9893 C   0  0  0  0  0  0  0  0  0  0  0  0
    7.8430  -14.7698   22.0283 C   0  0  0  0  0  0  0  0  0  0  0  0
    8.3419  -13.4870   22.1282 C   0  0  0  0  0  0  0  0  0  0  0  0
    8.0406  -12.4912   21.2300 C   0  0  0  0  0  0  0  0  0  0  0  0
    7.1989  -12.7753   20.1718 C   0  0  0  0  0  0  0  0  0  0  0  0
    6.6865  -14.0264   20.0378 C   0  0  0  0  0  0  0  0  0  0  0  0
    7.0084  -15.0217   20.9646 C   0  0  0  0  0  0  0  0  0  0  0  0
    9.7515  -16.6149   24.7683 C   0  0  0  0  0  0  0  0  0  0  0  0
    8.9648  -16.2892   25.7042 O   0  0  0  0  0  0  0  0  0  0  0  0
   11.6789  -21.3353   23.4484 C   0  0  0  0  0  0  0  0  0  0  0  0
   10.9919  -20.1468   24.0124 C   0  0  0  0  0  0  0  0  0  0  0  0
   11.1426  -19.9093   25.4818 C   0  0  2  0  0  0  0  0  0  0  0  0
   10.6864  -21.1567   26.1996 C   0  0  0  0  0  0  0  0  0  0  0  0
   10.7199  -18.6210   26.0197 C   0  0  2  0  0  0  0  0  0  0  0  0
   10.7733  -17.5277   25.0449 N   0  0  0  0  0  0  0  0  0  0  0  0
   11.2200  -18.1883   27.3349 C   0  0  0  0  0  0  0  0  0  0  0  0
   11.1224  -18.7969   28.4110 O   0  0  0  0  0  0  0  0  0  0  0  0
   11.8927  -16.9460   27.4400 O   0  0  0  0  0  0  0  0  0  0  0  0
  2  1  1  1
  2  6  1  0
  3  2  1  0
  4  3  1  0
  5  4  2  0
  6  9  1  0
  6  7  2  0
  8  4  1  0
  9 10  1  0
 10 18  1  0
 10 11  1  6
 11 12  1  0
 12 17  2  0
 13 12  1  0
 13 14  2  0
 14 15  1  0
 15 16  2  0
 17 16  1  0
 18 19  2  0
 21 20  1  0
 22 21  1  0
 22 23  1  1
 24 22  1  0
 24 25  1  6
 25 18  1  0
 26 28  1  0
 26 24  1  0
 27 26  2  0
M  END
$$$$
