DFI.pdb
     RDKit          3D

 28 28  0  0  1  0  0  0  0  0999 V2000
   11.3154  -16.5805   19.2781 N   0  0  0  0  0  0  0  0  0  0  0  0
   10.9304  -17.3876   20.4193 C   0  0  1  0  0  0  0  0  0  0  0  0
   12.0136  -18.3377   20.8130 C   0  0  0  0  0  0  0  0  0  0  0  0
   12.3765  -19.2384   19.6883 C   0  0  0  0  0  0  0  0  0  0  0  0
   11.4646  -19.8959   19.1202 O   0  0  0  0  0  0  0  0  0  0  0  0
   10.4716  -16.5052   21.5095 C   0  0  0  0  0  0  0  0  0  0  0  0
   11.2692  -15.5693   21.8367 O   0  0  0  0  0  0  0  0  0  0  0  0
   13.6692  -19.4026   19.2197 O   0  0  0  0  0  0  0  0  0  0  0  0
    9.2579  -16.6080   22.2006 N   0  0  0  0  0  0  0  0  0  0  0  0
    8.9052  -15.7696   23.3312 C   0  0  1  0  0  0  0  0  0  0  0  0
    7.5694  -15.1607   23.2351 C   0  0  0  0  0  0  0  0  0  0  0  0
    7.0604  -14.3728   24.3398 C   0  0  0  0  0  0  0  0  0  0  0  0
    6.1985  -14.8842   25.2885 C   0  0  0  0  0  0  0  0  0  0  0  0
    5.6986  -14.1387   26.3295 C   0  0  0  0  0  0  0  0  0  0  0  0
    6.0692  -12.8125   26.4427 C   0  0  0  0  0  0  0  0  0  0  0  0
    6.9161  -12.2711   25.5288 C   0  0  0  0  0  0  0  0  0  0  0  0
    7.4108  -13.0502   24.4794 C   0  0  0  0  0  0  0  0  0  0  0  0
    9.2526  -16.4323   24.6219 C   0  0  0  0  0  0  0  0  0  0  0  0
    9.1898  -17.6942   24.6901 O   0  0  0  0  0  0  0  0  0  0  0  0
   10.6155  -13.6861   29.8243 C   0  0  0  0  0  0  0  0  0  0  0  0
    9.9196  -14.4701   28.7737 C   0  0  0  0  0  0  0  0  0  0  0  0
   10.7681  -15.3439   27.9049 C   0  0  2  0  0  0  0  0  0  0  0  0
   11.8585  -14.4846   27.3116 C   0  0  0  0  0  0  0  0  0  0  0  0
   10.1021  -16.3006   27.0280 C   0  0  2  0  0  0  0  0  0  0  0  0
    9.6493  -15.7231   25.7592 N   0  0  0  0  0  0  0  0  0  0  0  0
    9.0927  -17.2135   27.5891 C   0  0  0  0  0  0  0  0  0  0  0  0
    7.8793  -17.2369   27.3342 O   0  0  0  0  0  0  0  0  0  0  0  0
    9.4977  -18.1912   28.5308 O   0  0  0  0  0  0  0  0  0  0  0  0
  2  1  1  6
  2  6  1  0
  3  2  1  0
  4  3  1  0
  5  4  2  0
  6  9  1  0
  6  7  2  0
  8  4  1  0
  9 10  1  0
 10 18  1  0
 10 11  1  1
 11 12  1  0
 12 17  2  0
 13 12  1  0
 13 14  2  0
 14 15  1  0
 15 16  2  0
 17 16  1  0
 18 19  2  0
 21 20  1  0
 22 21  1  0
 22 23  1  6
 24 22  1  0
 24 25  1  6
 25 18  1  0
 26 28  1  0
 26 24  1  0
 27 26  2  0
M  END
$$$$
