DFI.pdb
     RDKit          3D

 28 28  0  0  1  0  0  0  0  0999 V2000
   10.1137  -18.0472   20.0871 N   0  0  0  0  0  0  0  0  0  0  0  0
   11.2509  -17.3750   20.6846 C   0  0  1  0  0  0  0  0  0  0  0  0
   12.1141  -16.7283   19.6513 C   0  0  0  0  0  0  0  0  0  0  0  0
   12.6970  -17.7357   18.7275 C   0  0  0  0  0  0  0  0  0  0  0  0
   12.1064  -18.8389   18.5834 O   0  0  0  0  0  0  0  0  0  0  0  0
   10.7778  -16.4585   21.7399 C   0  0  0  0  0  0  0  0  0  0  0  0
   11.6585  -15.6878   22.2392 O   0  0  0  0  0  0  0  0  0  0  0  0
   13.8623  -17.5360   18.0065 O   0  0  0  0  0  0  0  0  0  0  0  0
    9.4686  -16.3668   22.2288 N   0  0  0  0  0  0  0  0  0  0  0  0
    9.0920  -15.5440   23.3632 C   0  0  1  0  0  0  0  0  0  0  0  0
    7.7812  -14.8905   23.2236 C   0  0  0  0  0  0  0  0  0  0  0  0
    7.2731  -14.0672   24.3025 C   0  0  0  0  0  0  0  0  0  0  0  0
    7.5880  -12.7302   24.4351 C   0  0  0  0  0  0  0  0  0  0  0  0
    7.1232  -11.9470   25.4647 C   0  0  0  0  0  0  0  0  0  0  0  0
    6.3005  -12.5137   26.4191 C   0  0  0  0  0  0  0  0  0  0  0  0
    5.9669  -13.8273   26.3244 C   0  0  0  0  0  0  0  0  0  0  0  0
    6.4524  -14.6023   25.2677 C   0  0  0  0  0  0  0  0  0  0  0  0
    9.3608  -16.2472   24.6512 C   0  0  0  0  0  0  0  0  0  0  0  0
    9.2858  -17.5100   24.6779 O   0  0  0  0  0  0  0  0  0  0  0  0
    9.7666  -13.7082   30.0014 C   0  0  0  0  0  0  0  0  0  0  0  0
    9.4090  -14.5191   28.8109 C   0  0  0  0  0  0  0  0  0  0  0  0
   10.5272  -15.2206   28.1067 C   0  0  2  0  0  0  0  0  0  0  0  0
   11.5923  -14.1961   27.7979 C   0  0  0  0  0  0  0  0  0  0  0  0
   10.1899  -16.1868   27.0672 C   0  0  2  0  0  0  0  0  0  0  0  0
    9.6967  -15.5752   25.8299 N   0  0  0  0  0  0  0  0  0  0  0  0
    9.4083  -17.3833   27.4195 C   0  0  0  0  0  0  0  0  0  0  0  0
    9.7489  -18.3049   28.1763 O   0  0  0  0  0  0  0  0  0  0  0  0
    8.1186  -17.5521   26.8582 O   0  0  0  0  0  0  0  0  0  0  0  0
  2  1  1  6
  2  6  1  0
  3  2  1  0
  4  3  1  0
  5  4  2  0
  6  9  1  0
  6  7  2  0
  8  4  1  0
  9 10  1  0
 10 18  1  0
 10 11  1  6
 11 12  1  0
 12 17  2  0
 13 12  1  0
 13 14  2  0
 14 15  1  0
 15 16  2  0
 17 16  1  0
 18 19  2  0
 21 20  1  0
 22 21  1  0
 22 23  1  6
 24 22  1  0
 24 25  1  6
 25 18  1  0
 26 28  1  0
 26 24  1  0
 27 26  2  0
M  END
$$$$
