DFI.pdb
     RDKit          3D

 28 28  0  0  1  0  0  0  0  0999 V2000
   10.7146  -16.4268   19.7171 N   0  0  0  0  0  0  0  0  0  0  0  0
    9.7735  -16.9992   20.6599 C   0  0  1  0  0  0  0  0  0  0  0  0
   10.0782  -18.4344   20.9401 C   0  0  0  0  0  0  0  0  0  0  0  0
    9.8825  -19.2740   19.7298 C   0  0  0  0  0  0  0  0  0  0  0  0
    9.3671  -18.7509   18.7064 O   0  0  0  0  0  0  0  0  0  0  0  0
    9.7073  -16.1470   21.8628 C   0  0  0  0  0  0  0  0  0  0  0  0
   10.8241  -15.8648   22.4032 O   0  0  0  0  0  0  0  0  0  0  0  0
   10.2350  -20.6111   19.6551 O   0  0  0  0  0  0  0  0  0  0  0  0
    8.5435  -15.6329   22.4482 N   0  0  0  0  0  0  0  0  0  0  0  0
    8.5302  -14.9135   23.7083 C   0  0  1  0  0  0  0  0  0  0  0  0
    7.3744  -14.0192   23.8783 C   0  0  0  0  0  0  0  0  0  0  0  0
    7.2056  -13.2959   25.1226 C   0  0  0  0  0  0  0  0  0  0  0  0
    7.8589  -12.1109   25.3934 C   0  0  0  0  0  0  0  0  0  0  0  0
    7.7166  -11.4276   26.5776 C   0  0  0  0  0  0  0  0  0  0  0  0
    6.8823  -11.9415   27.5518 C   0  0  0  0  0  0  0  0  0  0  0  0
    6.2208  -13.1062   27.3241 C   0  0  0  0  0  0  0  0  0  0  0  0
    6.3823  -13.7818   26.1114 C   0  0  0  0  0  0  0  0  0  0  0  0
    8.8552  -15.8190   24.8486 C   0  0  0  0  0  0  0  0  0  0  0  0
    8.1251  -16.8341   25.0420 O   0  0  0  0  0  0  0  0  0  0  0  0
   13.2565  -18.2327   24.7015 C   0  0  0  0  0  0  0  0  0  0  0  0
   11.8982  -17.7478   25.0516 C   0  0  0  0  0  0  0  0  0  0  0  0
   11.7284  -17.1182   26.3981 C   0  0  2  0  0  0  0  0  0  0  0  0
   12.3677  -18.0301   27.4174 C   0  0  0  0  0  0  0  0  0  0  0  0
   10.4345  -16.5303   26.7269 C   0  0  2  0  0  0  0  0  0  0  0  0
    9.9331  -15.6001   25.7112 N   0  0  0  0  0  0  0  0  0  0  0  0
   10.2000  -16.0142   28.0854 C   0  0  0  0  0  0  0  0  0  0  0  0
   10.0130  -16.6768   29.1169 O   0  0  0  0  0  0  0  0  0  0  0  0
   10.1725  -14.6132   28.2935 O   0  0  0  0  0  0  0  0  0  0  0  0
  2  1  1  6
  2  6  1  0
  3  2  1  0
  4  3  1  0
  5  4  2  0
  6  9  1  0
  6  7  2  0
  8  4  1  0
  9 10  1  0
 10 18  1  0
 10 11  1  1
 11 12  1  0
 12 17  2  0
 13 12  1  0
 13 14  2  0
 14 15  1  0
 15 16  2  0
 17 16  1  0
 18 19  2  0
 21 20  1  0
 22 21  1  0
 22 23  1  1
 24 22  1  0
 24 25  1  6
 25 18  1  0
 26 28  1  0
 26 24  1  0
 27 26  2  0
M  END
$$$$
