DFI.pdb
     RDKit          3D

 28 28  0  0  1  0  0  0  0  0999 V2000
   11.6736  -16.7367   19.8522 N   0  0  0  0  0  0  0  0  0  0  0  0
   10.5671  -17.3374   20.5712 C   0  0  1  0  0  0  0  0  0  0  0  0
   10.8457  -18.7628   20.9203 C   0  0  0  0  0  0  0  0  0  0  0  0
   10.9401  -19.6083   19.7020 C   0  0  0  0  0  0  0  0  0  0  0  0
   12.0251  -20.1992   19.4572 O   0  0  0  0  0  0  0  0  0  0  0  0
   10.2153  -16.4877   21.7252 C   0  0  0  0  0  0  0  0  0  0  0  0
   11.1917  -15.9260   22.3169 O   0  0  0  0  0  0  0  0  0  0  0  0
    9.8980  -19.7898   18.8083 O   0  0  0  0  0  0  0  0  0  0  0  0
    8.9245  -16.2518   22.2147 N   0  0  0  0  0  0  0  0  0  0  0  0
    8.6500  -15.4844   23.4153 C   0  0  1  0  0  0  0  0  0  0  0  0
    7.3297  -14.8352   23.4255 C   0  0  0  0  0  0  0  0  0  0  0  0
    6.9732  -13.9548   24.5199 C   0  0  0  0  0  0  0  0  0  0  0  0
    7.3864  -12.6398   24.5870 C   0  0  0  0  0  0  0  0  0  0  0  0
    7.0660  -11.8035   25.6297 C   0  0  0  0  0  0  0  0  0  0  0  0
    6.2938  -12.2907   26.6667 C   0  0  0  0  0  0  0  0  0  0  0  0
    5.8668  -13.5802   26.6383 C   0  0  0  0  0  0  0  0  0  0  0  0
    6.2060  -14.4104   25.5665 C   0  0  0  0  0  0  0  0  0  0  0  0
    9.0373  -16.2435   24.6398 C   0  0  0  0  0  0  0  0  0  0  0  0
    8.9372  -17.5048   24.6265 O   0  0  0  0  0  0  0  0  0  0  0  0
   11.3803  -13.1380   28.7131 C   0  0  0  0  0  0  0  0  0  0  0  0
   11.0486  -14.1171   27.6482 C   0  0  0  0  0  0  0  0  0  0  0  0
   10.3834  -15.3869   28.0768 C   0  0  2  0  0  0  0  0  0  0  0  0
   11.1921  -15.9713   29.2098 C   0  0  0  0  0  0  0  0  0  0  0  0
    9.9023  -16.2969   27.0433 C   0  0  2  0  0  0  0  0  0  0  0  0
    9.5107  -15.6255   25.8007 N   0  0  0  0  0  0  0  0  0  0  0  0
    8.9450  -17.3560   27.4023 C   0  0  0  0  0  0  0  0  0  0  0  0
    7.7093  -17.3130   27.3064 O   0  0  0  0  0  0  0  0  0  0  0  0
    9.4356  -18.5792   27.9216 O   0  0  0  0  0  0  0  0  0  0  0  0
  2  1  1  1
  2  6  1  0
  3  2  1  0
  4  3  1  0
  5  4  2  0
  6  9  1  0
  6  7  2  0
  8  4  1  0
  9 10  1  0
 10 18  1  0
 10 11  1  1
 11 12  1  0
 12 17  2  0
 13 12  1  0
 13 14  2  0
 14 15  1  0
 15 16  2  0
 17 16  1  0
 18 19  2  0
 21 20  1  0
 22 21  1  0
 22 23  1  6
 24 22  1  0
 24 25  1  6
 25 18  1  0
 26 28  1  0
 26 24  1  0
 27 26  2  0
M  END
$$$$
