DFI.pdb
     RDKit          3D

 28 28  0  0  1  0  0  0  0  0999 V2000
   11.5823  -16.7820   19.4947 N   0  0  0  0  0  0  0  0  0  0  0  0
   10.8974  -17.5445   20.5202 C   0  0  1  0  0  0  0  0  0  0  0  0
   11.7080  -18.7157   20.9698 C   0  0  0  0  0  0  0  0  0  0  0  0
   11.9310  -19.6764   19.8583 C   0  0  0  0  0  0  0  0  0  0  0  0
   10.9592  -19.9824   19.1178 O   0  0  0  0  0  0  0  0  0  0  0  0
   10.4846  -16.6384   21.6092 C   0  0  0  0  0  0  0  0  0  0  0  0
   11.2891  -15.6888   21.8739 O   0  0  0  0  0  0  0  0  0  0  0  0
   13.1544  -20.2634   19.5819 O   0  0  0  0  0  0  0  0  0  0  0  0
    9.3068  -16.7327   22.3610 N   0  0  0  0  0  0  0  0  0  0  0  0
    8.9755  -15.8314   23.4490 C   0  0  1  0  0  0  0  0  0  0  0  0
    7.6395  -15.2245   23.3418 C   0  0  0  0  0  0  0  0  0  0  0  0
    7.1715  -14.3346   24.3853 C   0  0  0  0  0  0  0  0  0  0  0  0
    7.5471  -13.0089   24.4618 C   0  0  0  0  0  0  0  0  0  0  0  0
    7.1206  -12.1630   25.4577 C   0  0  0  0  0  0  0  0  0  0  0  0
    6.2749  -12.6512   26.4352 C   0  0  0  0  0  0  0  0  0  0  0  0
    5.8817  -13.9511   26.3956 C   0  0  0  0  0  0  0  0  0  0  0  0
    6.3293  -14.7909   25.3722 C   0  0  0  0  0  0  0  0  0  0  0  0
    9.3434  -16.4222   24.7685 C   0  0  0  0  0  0  0  0  0  0  0  0
    9.2244  -17.6720   24.9260 O   0  0  0  0  0  0  0  0  0  0  0  0
    9.8583  -12.8299   29.0607 C   0  0  0  0  0  0  0  0  0  0  0  0
   10.2508  -13.7734   27.9843 C   0  0  0  0  0  0  0  0  0  0  0  0
   10.0223  -15.2295   28.2414 C   0  0  2  0  0  0  0  0  0  0  0  0
   10.6253  -15.5606   29.5853 C   0  0  0  0  0  0  0  0  0  0  0  0
   10.2439  -16.1669   27.1460 C   0  0  2  0  0  0  0  0  0  0  0  0
    9.8188  -15.6587   25.8385 N   0  0  0  0  0  0  0  0  0  0  0  0
    9.8681  -17.5798   27.3173 C   0  0  0  0  0  0  0  0  0  0  0  0
   10.6106  -18.5186   27.6418 O   0  0  0  0  0  0  0  0  0  0  0  0
    8.5228  -17.9651   27.0973 O   0  0  0  0  0  0  0  0  0  0  0  0
  2  1  1  6
  2  6  1  0
  3  2  1  0
  4  3  1  0
  5  4  2  0
  6  9  1  0
  6  7  2  0
  8  4  1  0
  9 10  1  0
 10 18  1  0
 10 11  1  1
 11 12  1  0
 12 17  2  0
 13 12  1  0
 13 14  2  0
 14 15  1  0
 15 16  2  0
 17 16  1  0
 18 19  2  0
 21 20  1  0
 22 21  1  0
 22 23  1  1
 24 22  1  0
 24 25  1  6
 25 18  1  0
 26 28  1  0
 26 24  1  0
 27 26  2  0
M  END
$$$$
