DFI.pdb
     RDKit          3D

 28 28  0  0  1  0  0  0  0  0999 V2000
    9.6495  -18.8779   21.4826 N   0  0  0  0  0  0  0  0  0  0  0  0
   10.6514  -17.9479   20.9994 C   0  0  1  0  0  0  0  0  0  0  0  0
   10.6322  -17.8422   19.5096 C   0  0  0  0  0  0  0  0  0  0  0  0
   11.3323  -18.9907   18.8780 C   0  0  0  0  0  0  0  0  0  0  0  0
   11.8098  -19.8908   19.6184 O   0  0  0  0  0  0  0  0  0  0  0  0
   10.5003  -16.6587   21.7011 C   0  0  0  0  0  0  0  0  0  0  0  0
   11.3371  -15.7543   21.3834 O   0  0  0  0  0  0  0  0  0  0  0  0
   11.4947  -19.1356   17.5104 O   0  0  0  0  0  0  0  0  0  0  0  0
    9.5341  -16.3520   22.6674 N   0  0  0  0  0  0  0  0  0  0  0  0
    9.3463  -15.0236   23.2204 C   0  0  1  0  0  0  0  0  0  0  0  0
    7.9931  -14.4786   23.0303 C   0  0  0  0  0  0  0  0  0  0  0  0
    7.5872  -14.0103   21.7204 C   0  0  0  0  0  0  0  0  0  0  0  0
    6.6995  -14.7013   20.9210 C   0  0  0  0  0  0  0  0  0  0  0  0
    6.3226  -14.2719   19.6708 C   0  0  0  0  0  0  0  0  0  0  0  0
    6.8506  -13.0935   19.1794 C   0  0  0  0  0  0  0  0  0  0  0  0
    7.7281  -12.3835   19.9355 C   0  0  0  0  0  0  0  0  0  0  0  0
    8.0954  -12.8413   21.2038 C   0  0  0  0  0  0  0  0  0  0  0  0
    9.9265  -14.9242   24.5913 C   0  0  0  0  0  0  0  0  0  0  0  0
    9.9985  -13.7847   25.1364 O   0  0  0  0  0  0  0  0  0  0  0  0
   10.7571  -13.1507   28.7979 C   0  0  0  0  0  0  0  0  0  0  0  0
   10.6040  -14.6270   28.7957 C   0  0  0  0  0  0  0  0  0  0  0  0
    9.9769  -15.2426   27.5848 C   0  0  2  0  0  0  0  0  0  0  0  0
    8.6401  -15.8108   27.9965 C   0  0  0  0  0  0  0  0  0  0  0  0
   10.8177  -16.0478   26.7059 C   0  0  2  0  0  0  0  0  0  0  0  0
   10.3904  -16.0336   25.3039 N   0  0  0  0  0  0  0  0  0  0  0  0
   11.2172  -17.4002   27.1284 C   0  0  0  0  0  0  0  0  0  0  0  0
   11.8376  -17.7115   28.1560 O   0  0  0  0  0  0  0  0  0  0  0  0
   10.8833  -18.5042   26.3059 O   0  0  0  0  0  0  0  0  0  0  0  0
  2  1  1  1
  2  6  1  0
  3  2  1  0
  4  3  1  0
  5  4  2  0
  6  9  1  0
  6  7  2  0
  8  4  1  0
  9 10  1  0
 10 18  1  0
 10 11  1  1
 11 12  1  0
 12 17  2  0
 13 12  1  0
 13 14  2  0
 14 15  1  0
 15 16  2  0
 17 16  1  0
 18 19  2  0
 21 20  1  0
 22 21  1  0
 22 23  1  1
 24 22  1  0
 24 25  1  6
 25 18  1  0
 26 28  1  0
 26 24  1  0
 27 26  2  0
M  END
$$$$
