WPS.pdb
     RDKit          3D

 28 30  0  0  1  0  0  0  0  0999 V2000
   23.5754  -20.2444  -18.3621 N   0  0  0  0  0  0  0  0  0  0  0  0
   23.7841  -19.2719  -17.2938 C   0  0  1  0  0  0  0  0  0  0  0  0
   22.4502  -18.8483  -16.7687 C   0  0  0  0  0  0  0  0  0  0  0  0
   21.9006  -17.6987  -17.4843 C   0  0  0  0  0  0  0  0  0  0  0  0
   22.1297  -17.3239  -18.8018 C   0  0  0  0  0  0  0  0  0  0  0  0
   21.4572  -16.1895  -19.0626 N   0  0  0  0  0  0  0  0  0  0  0  0
   20.7948  -15.8087  -17.9655 C   0  0  0  0  0  0  0  0  0  0  0  0
   19.9498  -14.7339  -17.7084 C   0  0  0  0  0  0  0  0  0  0  0  0
   19.3758  -14.5902  -16.4775 C   0  0  0  0  0  0  0  0  0  0  0  0
   19.6133  -15.4944  -15.4700 C   0  0  0  0  0  0  0  0  0  0  0  0
   20.4542  -16.5569  -15.7354 C   0  0  0  0  0  0  0  0  0  0  0  0
   21.0486  -16.7305  -16.9600 C   0  0  0  0  0  0  0  0  0  0  0  0
   24.7244  -19.8159  -16.2936 C   0  0  0  0  0  0  0  0  0  0  0  0
   24.6017  -21.0375  -15.9876 O   0  0  0  0  0  0  0  0  0  0  0  0
   25.7380  -19.0506  -15.6844 N   0  0  0  0  0  0  0  0  0  0  0  0
   26.1679  -17.7401  -16.1076 C   0  0  0  0  0  0  0  0  0  0  0  0
   27.6368  -17.6480  -15.7244 C   0  0  0  0  0  0  0  0  0  0  0  0
   27.8783  -18.7293  -14.7364 C   0  0  0  0  0  0  0  0  0  0  0  0
   26.5573  -19.4497  -14.5986 C   0  0  1  0  0  0  0  0  0  0  0  0
   26.0669  -19.2761  -13.2440 C   0  0  0  0  0  0  0  0  0  0  0  0
   25.5825  -18.1271  -12.9551 O   0  0  0  0  0  0  0  0  0  0  0  0
   23.8971  -21.3016  -10.8045 O   0  0  0  0  0  0  0  0  0  0  0  0
   24.3700  -20.0870  -10.3620 C   0  0  0  0  0  0  0  0  0  0  0  0
   25.7848  -19.8754  -10.8183 C   0  0  2  0  0  0  0  0  0  0  0  0
   26.0497  -20.2117  -12.1823 N   0  0  0  0  0  0  0  0  0  0  0  0
   26.6766  -20.5862   -9.8469 C   0  0  0  0  0  0  0  0  0  0  0  0
   26.5912  -20.4045   -8.4796 O   0  0  0  0  0  0  0  0  0  0  0  0
   27.5305  -21.3764  -10.3189 O   0  0  0  0  0  0  0  0  0  0  0  0
  2  1  1  6
  3  4  1  0
  3  2  1  0
  4  5  2  0
  5  6  1  0
  7  8  2  0
  7  6  1  0
  9  8  1  0
 10  9  2  0
 11 10  1  0
 11 12  2  0
 12  4  1  0
 12  7  1  0
 13  2  1  0
 14 13  2  0
 15 13  1  0
 16 15  1  0
 17 16  1  0
 18 17  1  0
 18 19  1  0
 19 15  1  0
 19 20  1  1
 20 25  1  0
 20 21  2  0
 23 22  1  0
 24 23  1  1
 25 24  1  0
 26 24  1  0
 26 27  1  0
 28 26  2  0
M  END
$$$$
