WPS.pdb
     RDKit          3D

 28 30  0  0  1  0  0  0  0  0999 V2000
   24.4521  -20.4034   -9.2115 N   0  0  0  0  0  0  0  0  0  0  0  0
   25.6923  -20.1059   -9.9216 C   0  0  1  0  0  0  0  0  0  0  0  0
   26.8366  -20.6518   -9.1297 C   0  0  0  0  0  0  0  0  0  0  0  0
   27.0557  -19.9264   -7.8801 C   0  0  0  0  0  0  0  0  0  0  0  0
   26.3248  -18.8601   -7.3724 C   0  0  0  0  0  0  0  0  0  0  0  0
   26.8712  -18.4624   -6.2103 N   0  0  0  0  0  0  0  0  0  0  0  0
   27.9314  -19.2297   -5.9374 C   0  0  0  0  0  0  0  0  0  0  0  0
   28.8219  -19.2495   -4.8687 C   0  0  0  0  0  0  0  0  0  0  0  0
   29.8261  -20.1743   -4.8282 C   0  0  0  0  0  0  0  0  0  0  0  0
   29.9823  -21.1017   -5.8304 C   0  0  0  0  0  0  0  0  0  0  0  0
   29.0938  -21.0727   -6.8869 C   0  0  0  0  0  0  0  0  0  0  0  0
   28.0748  -20.1565   -6.9599 C   0  0  0  0  0  0  0  0  0  0  0  0
   25.5977  -20.5737  -11.3190 C   0  0  0  0  0  0  0  0  0  0  0  0
   24.5998  -21.2895  -11.6239 O   0  0  0  0  0  0  0  0  0  0  0  0
   26.5472  -20.2560  -12.3098 N   0  0  0  0  0  0  0  0  0  0  0  0
   27.8114  -19.6002  -12.0797 C   0  0  0  0  0  0  0  0  0  0  0  0
   28.1098  -18.8281  -13.3556 C   0  0  0  0  0  0  0  0  0  0  0  0
   27.2270  -19.3984  -14.4039 C   0  0  0  0  0  0  0  0  0  0  0  0
   26.4080  -20.4591  -13.7058 C   0  0  1  0  0  0  0  0  0  0  0  0
   26.7419  -21.7550  -14.2666 C   0  0  0  0  0  0  0  0  0  0  0  0
   27.9881  -22.0184  -14.3930 O   0  0  0  0  0  0  0  0  0  0  0  0
   24.0825  -24.8929  -15.2450 O   0  0  0  0  0  0  0  0  0  0  0  0
   25.3482  -25.2047  -14.8028 C   0  0  0  0  0  0  0  0  0  0  0  0
   26.3016  -24.0846  -15.1045 C   0  0  2  0  0  0  0  0  0  0  0  0
   25.8710  -22.7826  -14.7006 N   0  0  0  0  0  0  0  0  0  0  0  0
   26.6448  -24.1722  -16.5600 C   0  0  0  0  0  0  0  0  0  0  0  0
   27.2255  -25.2907  -17.1272 O   0  0  0  0  0  0  0  0  0  0  0  0
   26.3839  -23.1742  -17.2757 O   0  0  0  0  0  0  0  0  0  0  0  0
  2  1  1  1
  3  4  1  0
  3  2  1  0
  4  5  2  0
  5  6  1  0
  7  8  2  0
  7  6  1  0
  9  8  1  0
 10  9  2  0
 11 10  1  0
 11 12  2  0
 12  4  1  0
 12  7  1  0
 13  2  1  0
 14 13  2  0
 15 13  1  0
 16 15  1  0
 17 16  1  0
 18 17  1  0
 18 19  1  0
 19 15  1  0
 19 20  1  1
 20 25  1  0
 20 21  2  0
 23 22  1  0
 24 23  1  6
 25 24  1  0
 26 24  1  0
 26 27  1  0
 28 26  2  0
M  END
$$$$
