WPS.pdb
     RDKit          3D

 28 30  0  0  1  0  0  0  0  0999 V2000
   27.0067  -22.1301  -11.0739 N   0  0  0  0  0  0  0  0  0  0  0  0
   26.1230  -21.5227  -10.0835 C   0  0  1  0  0  0  0  0  0  0  0  0
   26.7756  -20.2840   -9.5599 C   0  0  0  0  0  0  0  0  0  0  0  0
   27.9491  -20.5686   -8.7367 C   0  0  0  0  0  0  0  0  0  0  0  0
   29.0904  -21.2757   -9.0924 C   0  0  0  0  0  0  0  0  0  0  0  0
   29.9208  -21.3354   -8.0369 N   0  0  0  0  0  0  0  0  0  0  0  0
   29.3666  -20.6922   -7.0042 C   0  0  0  0  0  0  0  0  0  0  0  0
   29.8084  -20.4483   -5.7078 C   0  0  0  0  0  0  0  0  0  0  0  0
   29.0347  -19.7289   -4.8422 C   0  0  0  0  0  0  0  0  0  0  0  0
   27.8122  -19.2304   -5.2241 C   0  0  0  0  0  0  0  0  0  0  0  0
   27.3828  -19.4790   -6.5126 C   0  0  0  0  0  0  0  0  0  0  0  0
   28.1340  -20.1991   -7.4072 C   0  0  0  0  0  0  0  0  0  0  0  0
   24.7730  -21.3447  -10.6545 C   0  0  0  0  0  0  0  0  0  0  0  0
   24.6776  -21.3081  -11.9157 O   0  0  0  0  0  0  0  0  0  0  0  0
   23.6085  -21.2255   -9.8710 N   0  0  0  0  0  0  0  0  0  0  0  0
   23.5646  -20.7957   -8.4945 C   0  0  0  0  0  0  0  0  0  0  0  0
   22.3638  -21.5013   -7.8837 C   0  0  0  0  0  0  0  0  0  0  0  0
   21.5338  -21.9715   -9.0212 C   0  0  0  0  0  0  0  0  0  0  0  0
   22.2898  -21.5653  -10.2648 C   0  0  1  0  0  0  0  0  0  0  0  0
   21.5002  -20.5934  -10.9979 C   0  0  0  0  0  0  0  0  0  0  0  0
   21.6443  -19.3678  -10.6582 O   0  0  0  0  0  0  0  0  0  0  0  0
   19.5732  -21.1387  -14.6547 O   0  0  0  0  0  0  0  0  0  0  0  0
   19.9236  -19.8712  -14.2480 C   0  0  0  0  0  0  0  0  0  0  0  0
   19.8942  -19.7725  -12.7499 C   0  0  2  0  0  0  0  0  0  0  0  0
   20.5793  -20.8137  -12.0497 N   0  0  0  0  0  0  0  0  0  0  0  0
   18.4604  -19.6254  -12.3418 C   0  0  0  0  0  0  0  0  0  0  0  0
   17.6504  -18.6053  -12.8036 O   0  0  0  0  0  0  0  0  0  0  0  0
   17.9966  -20.4778  -11.5451 O   0  0  0  0  0  0  0  0  0  0  0  0
  2  1  1  6
  3  4  1  0
  3  2  1  0
  4  5  2  0
  5  6  1  0
  7  8  2  0
  7  6  1  0
  9  8  1  0
 10  9  2  0
 11 10  1  0
 11 12  2  0
 12  4  1  0
 12  7  1  0
 13  2  1  0
 14 13  2  0
 15 13  1  0
 16 15  1  0
 17 16  1  0
 18 17  1  0
 18 19  1  0
 19 15  1  0
 19 20  1  1
 20 25  1  0
 20 21  2  0
 23 22  1  0
 24 23  1  6
 25 24  1  0
 26 24  1  0
 26 27  1  0
 28 26  2  0
M  END
$$$$
