WPS.pdb
     RDKit          3D

 28 30  0  0  1  0  0  0  0  0999 V2000
   22.6456  -20.2700  -15.3210 N   0  0  0  0  0  0  0  0  0  0  0  0
   23.8330  -20.5624  -14.5240 C   0  0  1  0  0  0  0  0  0  0  0  0
   23.5851  -21.8117  -13.7416 C   0  0  0  0  0  0  0  0  0  0  0  0
   22.3173  -21.7811  -13.0153 C   0  0  0  0  0  0  0  0  0  0  0  0
   21.8371  -20.7827  -12.1776 C   0  0  0  0  0  0  0  0  0  0  0  0
   20.6431  -21.1548  -11.6849 N   0  0  0  0  0  0  0  0  0  0  0  0
   20.3227  -22.3587  -12.1701 C   0  0  0  0  0  0  0  0  0  0  0  0
   19.2083  -23.1725  -11.9935 C   0  0  0  0  0  0  0  0  0  0  0  0
   19.1248  -24.3729  -12.6394 C   0  0  0  0  0  0  0  0  0  0  0  0
   20.1279  -24.8050  -13.4738 C   0  0  0  0  0  0  0  0  0  0  0  0
   21.2299  -23.9902  -13.6413 C   0  0  0  0  0  0  0  0  0  0  0  0
   21.3467  -22.7791  -13.0066 C   0  0  0  0  0  0  0  0  0  0  0  0
   25.0301  -20.5734  -15.3885 C   0  0  0  0  0  0  0  0  0  0  0  0
   24.8786  -20.9631  -16.5827 O   0  0  0  0  0  0  0  0  0  0  0  0
   26.3065  -20.1679  -14.9519 N   0  0  0  0  0  0  0  0  0  0  0  0
   26.5945  -19.5088  -13.7012 C   0  0  0  0  0  0  0  0  0  0  0  0
   27.8144  -18.6407  -13.9678 C   0  0  0  0  0  0  0  0  0  0  0  0
   28.4205  -19.1483  -15.2243 C   0  0  0  0  0  0  0  0  0  0  0  0
   27.5180  -20.2710  -15.6805 C   0  0  1  0  0  0  0  0  0  0  0  0
   28.2612  -21.5166  -15.6404 C   0  0  0  0  0  0  0  0  0  0  0  0
   28.2744  -22.1378  -14.5213 O   0  0  0  0  0  0  0  0  0  0  0  0
   27.4629  -24.6727  -17.6544 O   0  0  0  0  0  0  0  0  0  0  0  0
   28.1567  -24.4788  -16.4814 C   0  0  0  0  0  0  0  0  0  0  0  0
   29.3091  -23.5416  -16.7007 C   0  0  2  0  0  0  0  0  0  0  0  0
   28.9846  -22.1495  -16.6791 N   0  0  0  0  0  0  0  0  0  0  0  0
   29.9992  -23.9716  -17.9588 C   0  0  0  0  0  0  0  0  0  0  0  0
   30.5563  -25.2265  -18.1168 O   0  0  0  0  0  0  0  0  0  0  0  0
   30.0614  -23.1392  -18.8966 O   0  0  0  0  0  0  0  0  0  0  0  0
  2  1  1  6
  3  4  1  0
  3  2  1  0
  4  5  2  0
  5  6  1  0
  7  8  2  0
  7  6  1  0
  9  8  1  0
 10  9  2  0
 11 10  1  0
 11 12  2  0
 12  4  1  0
 12  7  1  0
 13  2  1  0
 14 13  2  0
 15 13  1  0
 16 15  1  0
 17 16  1  0
 18 17  1  0
 18 19  1  0
 19 15  1  0
 19 20  1  1
 20 25  1  0
 20 21  2  0
 23 22  1  0
 24 23  1  6
 25 24  1  0
 26 24  1  0
 26 27  1  0
 28 26  2  0
M  END
$$$$
