WPS.pdb
     RDKit          3D

 28 30  0  0  1  0  0  0  0  0999 V2000
   27.2994  -20.2181  -12.3052 N   0  0  0  0  0  0  0  0  0  0  0  0
   26.3339  -21.2242  -11.8738 C   0  0  1  0  0  0  0  0  0  0  0  0
   26.2060  -21.1536  -10.3862 C   0  0  0  0  0  0  0  0  0  0  0  0
   27.5005  -21.1286   -9.7085 C   0  0  0  0  0  0  0  0  0  0  0  0
   28.7116  -21.6352  -10.1620 C   0  0  0  0  0  0  0  0  0  0  0  0
   29.6542  -21.4338   -9.2250 N   0  0  0  0  0  0  0  0  0  0  0  0
   29.1059  -20.8126   -8.1758 C   0  0  0  0  0  0  0  0  0  0  0  0
   29.6374  -20.3658   -6.9702 C   0  0  0  0  0  0  0  0  0  0  0  0
   28.8408  -19.7281   -6.0625 C   0  0  0  0  0  0  0  0  0  0  0  0
   27.5068  -19.5113   -6.3126 C   0  0  0  0  0  0  0  0  0  0  0  0
   26.9892  -19.9596   -7.5116 C   0  0  0  0  0  0  0  0  0  0  0  0
   27.7608  -20.6051   -8.4450 C   0  0  0  0  0  0  0  0  0  0  0  0
   25.0768  -21.0750  -12.6339 C   0  0  0  0  0  0  0  0  0  0  0  0
   24.5479  -19.9257  -12.6588 O   0  0  0  0  0  0  0  0  0  0  0  0
   24.4581  -22.1342  -13.3264 N   0  0  0  0  0  0  0  0  0  0  0  0
   24.9709  -23.4784  -13.4337 C   0  0  0  0  0  0  0  0  0  0  0  0
   24.4663  -24.0033  -14.7689 C   0  0  0  0  0  0  0  0  0  0  0  0
   23.3559  -23.1063  -15.1765 C   0  0  0  0  0  0  0  0  0  0  0  0
   23.2672  -22.0585  -14.0915 C   0  0  1  0  0  0  0  0  0  0  0  0
   21.9877  -22.1861  -13.4190 C   0  0  0  0  0  0  0  0  0  0  0  0
   22.0110  -22.6718  -12.2350 O   0  0  0  0  0  0  0  0  0  0  0  0
   19.2945  -19.2540  -11.7271 O   0  0  0  0  0  0  0  0  0  0  0  0
   20.2510  -19.8159  -12.5422 C   0  0  0  0  0  0  0  0  0  0  0  0
   19.7406  -21.0899  -13.1513 C   0  0  2  0  0  0  0  0  0  0  0  0
   20.6995  -21.8451  -13.8956 N   0  0  0  0  0  0  0  0  0  0  0  0
   18.5138  -20.7460  -13.9392 C   0  0  0  0  0  0  0  0  0  0  0  0
   17.2340  -20.9178  -13.4467 O   0  0  0  0  0  0  0  0  0  0  0  0
   18.6805  -20.2831  -15.0943 O   0  0  0  0  0  0  0  0  0  0  0  0
  2  1  1  6
  3  4  1  0
  3  2  1  0
  4  5  2  0
  5  6  1  0
  7  8  2  0
  7  6  1  0
  9  8  1  0
 10  9  2  0
 11 10  1  0
 11 12  2  0
 12  4  1  0
 12  7  1  0
 13  2  1  0
 14 13  2  0
 15 13  1  0
 16 15  1  0
 17 16  1  0
 18 17  1  0
 18 19  1  0
 19 15  1  0
 19 20  1  1
 20 25  1  0
 20 21  2  0
 23 22  1  0
 24 23  1  6
 25 24  1  0
 26 24  1  0
 26 27  1  0
 28 26  2  0
M  END
$$$$
