WPS.pdb
     RDKit          3D

 28 30  0  0  1  0  0  0  0  0999 V2000
   17.6681  -15.0598    4.4591 N   0  0  0  0  0  0  0  0  0  0  0  0
   17.9862  -16.2695    5.2115 C   0  0  1  0  0  0  0  0  0  0  0  0
   19.1425  -16.9495    4.5521 C   0  0  0  0  0  0  0  0  0  0  0  0
   18.8924  -17.2514    3.1443 C   0  0  0  0  0  0  0  0  0  0  0  0
   17.7204  -17.7234    2.5674 C   0  0  0  0  0  0  0  0  0  0  0  0
   17.9151  -17.8974    1.2487 N   0  0  0  0  0  0  0  0  0  0  0  0
   19.1703  -17.5553    0.9405 C   0  0  0  0  0  0  0  0  0  0  0  0
   19.8647  -17.5325   -0.2648 C   0  0  0  0  0  0  0  0  0  0  0  0
   21.1626  -17.1089   -0.3020 C   0  0  0  0  0  0  0  0  0  0  0  0
   21.8111  -16.6967    0.8375 C   0  0  0  0  0  0  0  0  0  0  0  0
   21.1131  -16.7242    2.0285 C   0  0  0  0  0  0  0  0  0  0  0  0
   19.8091  -17.1453    2.1018 C   0  0  0  0  0  0  0  0  0  0  0  0
   18.1637  -15.9423    6.6404 C   0  0  0  0  0  0  0  0  0  0  0  0
   18.5034  -14.7571    6.9253 O   0  0  0  0  0  0  0  0  0  0  0  0
   17.9660  -16.8720    7.6799 N   0  0  0  0  0  0  0  0  0  0  0  0
   17.1968  -18.0885    7.5815 C   0  0  0  0  0  0  0  0  0  0  0  0
   16.6477  -18.3393    8.9774 C   0  0  0  0  0  0  0  0  0  0  0  0
   17.4543  -17.5007    9.8994 C   0  0  0  0  0  0  0  0  0  0  0  0
   18.4248  -16.7521    9.0158 C   0  0  1  0  0  0  0  0  0  0  0  0
   19.7751  -17.1744    9.3383 C   0  0  0  0  0  0  0  0  0  0  0  0
   20.2452  -18.1519    8.6586 O   0  0  0  0  0  0  0  0  0  0  0  0
   23.0361  -15.1708    9.7208 O   0  0  0  0  0  0  0  0  0  0  0  0
   23.0256  -16.0694   10.7636 C   0  0  0  0  0  0  0  0  0  0  0  0
   21.9861  -17.1285   10.5349 C   0  0  2  0  0  0  0  0  0  0  0  0
   20.6572  -16.6506   10.3132 N   0  0  0  0  0  0  0  0  0  0  0  0
   22.0862  -18.1023   11.6688 C   0  0  0  0  0  0  0  0  0  0  0  0
   23.2735  -18.7079   12.0343 O   0  0  0  0  0  0  0  0  0  0  0  0
   21.0328  -18.3637   12.2999 O   0  0  0  0  0  0  0  0  0  0  0  0
  2  1  1  6
  3  4  1  0
  3  2  1  0
  4  5  2  0
  5  6  1  0
  7  8  2  0
  7  6  1  0
  9  8  1  0
 10  9  2  0
 11 10  1  0
 11 12  2  0
 12  4  1  0
 12  7  1  0
 13  2  1  0
 14 13  2  0
 15 13  1  0
 16 15  1  0
 17 16  1  0
 18 17  1  0
 18 19  1  0
 19 15  1  0
 19 20  1  6
 20 25  1  0
 20 21  2  0
 23 22  1  0
 24 23  1  1
 25 24  1  0
 26 24  1  0
 26 27  1  0
 28 26  2  0
M  END
$$$$
