WPS.pdb
     RDKit          3D

 28 30  0  0  1  0  0  0  0  0999 V2000
   25.0660  -20.8433  -15.6546 N   0  0  0  0  0  0  0  0  0  0  0  0
   26.0611  -20.1420  -14.8490 C   0  0  1  0  0  0  0  0  0  0  0  0
   25.6415  -18.7139  -14.7121 C   0  0  0  0  0  0  0  0  0  0  0  0
   25.7653  -17.9665  -15.9618 C   0  0  0  0  0  0  0  0  0  0  0  0
   24.7530  -17.3769  -16.7080 C   0  0  0  0  0  0  0  0  0  0  0  0
   25.2845  -16.8107  -17.8053 N   0  0  0  0  0  0  0  0  0  0  0  0
   26.6071  -17.0060  -17.8044 C   0  0  0  0  0  0  0  0  0  0  0  0
   27.6110  -16.6163  -18.6851 C   0  0  0  0  0  0  0  0  0  0  0  0
   28.9133  -16.9376  -18.4281 C   0  0  0  0  0  0  0  0  0  0  0  0
   29.2644  -17.6459  -17.3038 C   0  0  0  0  0  0  0  0  0  0  0  0
   28.2603  -18.0286  -16.4368 C   0  0  0  0  0  0  0  0  0  0  0  0
   26.9419  -17.7239  -16.6654 C   0  0  0  0  0  0  0  0  0  0  0  0
   26.2881  -20.8685  -13.5837 C   0  0  0  0  0  0  0  0  0  0  0  0
   25.4029  -21.6988  -13.2256 O   0  0  0  0  0  0  0  0  0  0  0  0
   27.4297  -20.6871  -12.7787 N   0  0  0  0  0  0  0  0  0  0  0  0
   28.6209  -19.9696  -13.1628 C   0  0  0  0  0  0  0  0  0  0  0  0
   29.7598  -20.6306  -12.4020 C   0  0  0  0  0  0  0  0  0  0  0  0
   29.1312  -21.4153  -11.3098 C   0  0  0  0  0  0  0  0  0  0  0  0
   27.6424  -21.2260  -11.4850 C   0  0  1  0  0  0  0  0  0  0  0  0
   27.1202  -20.5175  -10.3313 C   0  0  0  0  0  0  0  0  0  0  0  0
   27.1456  -19.2390  -10.3870 O   0  0  0  0  0  0  0  0  0  0  0  0
   24.4865  -21.9365   -7.5412 O   0  0  0  0  0  0  0  0  0  0  0  0
   24.6649  -20.5747   -7.6338 C   0  0  0  0  0  0  0  0  0  0  0  0
   26.0682  -20.2560   -8.0625 C   0  0  2  0  0  0  0  0  0  0  0  0
   26.5802  -21.0491   -9.1361 N   0  0  0  0  0  0  0  0  0  0  0  0
   26.9270  -20.2910   -6.8356 C   0  0  0  0  0  0  0  0  0  0  0  0
   26.6708  -19.5179   -5.7190 O   0  0  0  0  0  0  0  0  0  0  0  0
   27.9164  -21.0637   -6.8454 O   0  0  0  0  0  0  0  0  0  0  0  0
  2  1  1  1
  3  4  1  0
  3  2  1  0
  4  5  2  0
  5  6  1  0
  7  8  2  0
  7  6  1  0
  9  8  1  0
 10  9  2  0
 11 10  1  0
 11 12  2  0
 12  4  1  0
 12  7  1  0
 13  2  1  0
 14 13  2  0
 15 13  1  0
 16 15  1  0
 17 16  1  0
 18 17  1  0
 18 19  1  0
 19 15  1  0
 19 20  1  1
 20 25  1  0
 20 21  2  0
 23 22  1  0
 24 23  1  1
 25 24  1  0
 26 24  1  0
 26 27  1  0
 28 26  2  0
M  END
$$$$
