WPS.pdb
     RDKit          3D

 28 30  0  0  1  0  0  0  0  0999 V2000
   23.1773  -16.8747  -19.5072 N   0  0  0  0  0  0  0  0  0  0  0  0
   23.1203  -17.2117  -18.0881 C   0  0  1  0  0  0  0  0  0  0  0  0
   21.8221  -17.9004  -17.8145 C   0  0  0  0  0  0  0  0  0  0  0  0
   21.5229  -17.9954  -16.3872 C   0  0  0  0  0  0  0  0  0  0  0  0
   21.0453  -16.9982  -15.5467 C   0  0  0  0  0  0  0  0  0  0  0  0
   20.9312  -17.4875  -14.2998 N   0  0  0  0  0  0  0  0  0  0  0  0
   21.3144  -18.7683  -14.2930 C   0  0  0  0  0  0  0  0  0  0  0  0
   21.3710  -19.7227  -13.2825 C   0  0  0  0  0  0  0  0  0  0  0  0
   21.7909  -20.9925  -13.5593 C   0  0  0  0  0  0  0  0  0  0  0  0
   22.1638  -21.3590  -14.8304 C   0  0  0  0  0  0  0  0  0  0  0  0
   22.1049  -20.4039  -15.8258 C   0  0  0  0  0  0  0  0  0  0  0  0
   21.6894  -19.1189  -15.5820 C   0  0  0  0  0  0  0  0  0  0  0  0
   24.3355  -17.9539  -17.6971 C   0  0  0  0  0  0  0  0  0  0  0  0
   24.7924  -18.7945  -18.5252 O   0  0  0  0  0  0  0  0  0  0  0  0
   25.0000  -17.7633  -16.4698 N   0  0  0  0  0  0  0  0  0  0  0  0
   24.6353  -16.8000  -15.4597 C   0  0  0  0  0  0  0  0  0  0  0  0
   25.9337  -16.4302  -14.7594 C   0  0  0  0  0  0  0  0  0  0  0  0
   26.9123  -17.4903  -15.1091 C   0  0  0  0  0  0  0  0  0  0  0  0
   26.1743  -18.4282  -16.0356 C   0  0  1  0  0  0  0  0  0  0  0  0
   26.0546  -19.7242  -15.3940 C   0  0  0  0  0  0  0  0  0  0  0  0
   25.1293  -19.8441  -14.5177 O   0  0  0  0  0  0  0  0  0  0  0  0
   28.6913  -22.9978  -15.6299 O   0  0  0  0  0  0  0  0  0  0  0  0
   27.3576  -23.3109  -15.4961 C   0  0  0  0  0  0  0  0  0  0  0  0
   26.5946  -22.1393  -14.9484 C   0  0  2  0  0  0  0  0  0  0  0  0
   26.8288  -20.8903  -15.6032 N   0  0  0  0  0  0  0  0  0  0  0  0
   26.8485  -22.0935  -13.4728 C   0  0  0  0  0  0  0  0  0  0  0  0
   26.4977  -23.1226  -12.6196 O   0  0  0  0  0  0  0  0  0  0  0  0
   27.4054  -21.0659  -13.0144 O   0  0  0  0  0  0  0  0  0  0  0  0
  2  1  1  6
  3  4  1  0
  3  2  1  0
  4  5  2  0
  5  6  1  0
  7  8  2  0
  7  6  1  0
  9  8  1  0
 10  9  2  0
 11 10  1  0
 11 12  2  0
 12  4  1  0
 12  7  1  0
 13  2  1  0
 14 13  2  0
 15 13  1  0
 16 15  1  0
 17 16  1  0
 18 17  1  0
 18 19  1  0
 19 15  1  0
 19 20  1  1
 20 25  1  0
 20 21  2  0
 23 22  1  0
 24 23  1  6
 25 24  1  0
 26 24  1  0
 26 27  1  0
 28 26  2  0
M  END
$$$$
