WPS.pdb
     RDKit          3D

 28 30  0  0  1  0  0  0  0  0999 V2000
   25.4856  -17.1982  -18.1263 N   0  0  0  0  0  0  0  0  0  0  0  0
   25.2989  -17.1929  -16.6785 C   0  0  1  0  0  0  0  0  0  0  0  0
   24.3997  -16.0542  -16.3190 C   0  0  0  0  0  0  0  0  0  0  0  0
   24.9355  -14.7591  -16.7328 C   0  0  0  0  0  0  0  0  0  0  0  0
   24.3527  -13.8251  -17.5796 C   0  0  0  0  0  0  0  0  0  0  0  0
   25.1848  -12.7794  -17.7247 N   0  0  0  0  0  0  0  0  0  0  0  0
   26.2898  -12.9930  -17.0030 C   0  0  0  0  0  0  0  0  0  0  0  0
   27.4341  -12.2294  -16.7956 C   0  0  0  0  0  0  0  0  0  0  0  0
   28.4251  -12.6858  -15.9740 C   0  0  0  0  0  0  0  0  0  0  0  0
   28.3199  -13.8982  -15.3353 C   0  0  0  0  0  0  0  0  0  0  0  0
   27.1806  -14.6485  -15.5488 C   0  0  0  0  0  0  0  0  0  0  0  0
   26.1668  -14.2208  -16.3688 C   0  0  0  0  0  0  0  0  0  0  0  0
   24.8593  -18.5267  -16.2222 C   0  0  0  0  0  0  0  0  0  0  0  0
   24.2732  -19.2640  -17.0672 O   0  0  0  0  0  0  0  0  0  0  0  0
   25.0686  -19.0076  -14.9149 N   0  0  0  0  0  0  0  0  0  0  0  0
   25.8808  -18.3703  -13.9072 C   0  0  0  0  0  0  0  0  0  0  0  0
   26.4111  -19.4982  -13.0357 C   0  0  0  0  0  0  0  0  0  0  0  0
   25.5585  -20.6800  -13.3192 C   0  0  0  0  0  0  0  0  0  0  0  0
   24.5802  -20.2247  -14.3768 C   0  0  1  0  0  0  0  0  0  0  0  0
   23.2392  -20.2635  -13.8239 C   0  0  0  0  0  0  0  0  0  0  0  0
   22.8426  -19.2105  -13.2137 O   0  0  0  0  0  0  0  0  0  0  0  0
   20.2836  -23.2085  -14.6032 O   0  0  0  0  0  0  0  0  0  0  0  0
   19.9743  -21.8686  -14.5415 C   0  0  0  0  0  0  0  0  0  0  0  0
   20.9001  -21.1580  -13.5968 C   0  0  2  0  0  0  0  0  0  0  0  0
   22.2954  -21.3174  -13.8641 N   0  0  0  0  0  0  0  0  0  0  0  0
   20.5116  -21.5595  -12.2068 C   0  0  0  0  0  0  0  0  0  0  0  0
   19.2321  -21.3978  -11.7099 O   0  0  0  0  0  0  0  0  0  0  0  0
   21.4036  -22.0626  -11.4806 O   0  0  0  0  0  0  0  0  0  0  0  0
  2  1  1  6
  3  4  1  0
  3  2  1  0
  4  5  2  0
  5  6  1  0
  7  8  2  0
  7  6  1  0
  9  8  1  0
 10  9  2  0
 11 10  1  0
 11 12  2  0
 12  4  1  0
 12  7  1  0
 13  2  1  0
 14 13  2  0
 15 13  1  0
 16 15  1  0
 17 16  1  0
 18 17  1  0
 18 19  1  0
 19 15  1  0
 19 20  1  1
 20 25  1  0
 20 21  2  0
 23 22  1  0
 24 23  1  6
 25 24  1  0
 26 24  1  0
 26 27  1  0
 28 26  2  0
M  END
$$$$
