WPS.pdb
     RDKit          3D

 28 30  0  0  1  0  0  0  0  0999 V2000
   14.2645  -22.2346   -1.8755 N   0  0  0  0  0  0  0  0  0  0  0  0
   13.4202  -21.9982   -0.7084 C   0  0  1  0  0  0  0  0  0  0  0  0
   12.8645  -23.3080   -0.2501 C   0  0  0  0  0  0  0  0  0  0  0  0
   12.2602  -24.0763   -1.3365 C   0  0  0  0  0  0  0  0  0  0  0  0
   11.3766  -23.6287   -2.3101 C   0  0  0  0  0  0  0  0  0  0  0  0
   11.0365  -24.6575   -3.1057 N   0  0  0  0  0  0  0  0  0  0  0  0
   11.6658  -25.7615   -2.6905 C   0  0  0  0  0  0  0  0  0  0  0  0
   11.6751  -27.0685   -3.1668 C   0  0  0  0  0  0  0  0  0  0  0  0
   12.4412  -28.0181   -2.5531 C   0  0  0  0  0  0  0  0  0  0  0  0
   13.2168  -27.7118   -1.4607 C   0  0  0  0  0  0  0  0  0  0  0  0
   13.1997  -26.4119   -0.9954 C   0  0  0  0  0  0  0  0  0  0  0  0
   12.4405  -25.4339   -1.5871 C   0  0  0  0  0  0  0  0  0  0  0  0
   14.1669  -21.2275    0.3060 C   0  0  0  0  0  0  0  0  0  0  0  0
   15.4302  -21.2543    0.2396 O   0  0  0  0  0  0  0  0  0  0  0  0
   13.5452  -20.4713    1.3188 N   0  0  0  0  0  0  0  0  0  0  0  0
   12.1239  -20.2683    1.4608 C   0  0  0  0  0  0  0  0  0  0  0  0
   11.9690  -18.9059    2.1185 C   0  0  0  0  0  0  0  0  0  0  0  0
   13.2932  -18.5710    2.7002 C   0  0  0  0  0  0  0  0  0  0  0  0
   14.1965  -19.7252    2.3329 C   0  0  1  0  0  0  0  0  0  0  0  0
   14.6132  -20.4004    3.5479 C   0  0  0  0  0  0  0  0  0  0  0  0
   13.9902  -21.4785    3.8442 O   0  0  0  0  0  0  0  0  0  0  0  0
   18.3002  -20.9672    5.2257 O   0  0  0  0  0  0  0  0  0  0  0  0
   17.3648  -20.5606    6.1501 C   0  0  0  0  0  0  0  0  0  0  0  0
   15.9756  -20.7846    5.6261 C   0  0  2  0  0  0  0  0  0  0  0  0
   15.6252  -20.0284    4.4646 N   0  0  0  0  0  0  0  0  0  0  0  0
   15.0307  -20.5865    6.7716 C   0  0  0  0  0  0  0  0  0  0  0  0
   15.0786  -21.3492    7.9232 O   0  0  0  0  0  0  0  0  0  0  0  0
   14.1669  -19.6826    6.6577 O   0  0  0  0  0  0  0  0  0  0  0  0
  2  1  1  6
  3  4  1  0
  3  2  1  0
  4  5  2  0
  5  6  1  0
  7  8  2  0
  7  6  1  0
  9  8  1  0
 10  9  2  0
 11 10  1  0
 11 12  2  0
 12  4  1  0
 12  7  1  0
 13  2  1  0
 14 13  2  0
 15 13  1  0
 16 15  1  0
 17 16  1  0
 18 17  1  0
 18 19  1  0
 19 15  1  0
 19 20  1  1
 20 25  1  0
 20 21  2  0
 23 22  1  0
 24 23  1  1
 25 24  1  0
 26 24  1  0
 26 27  1  0
 28 26  2  0
M  END
$$$$
