WPS.pdb
     RDKit          3D

 28 30  0  0  1  0  0  0  0  0999 V2000
   25.6019  -18.1445  -18.4100 N   0  0  0  0  0  0  0  0  0  0  0  0
   25.8607  -18.6563  -17.0677 C   0  0  1  0  0  0  0  0  0  0  0  0
   26.0051  -17.4964  -16.1360 C   0  0  0  0  0  0  0  0  0  0  0  0
   27.1034  -16.6068  -16.5075 C   0  0  0  0  0  0  0  0  0  0  0  0
   27.0334  -15.2656  -16.8613 C   0  0  0  0  0  0  0  0  0  0  0  0
   28.2668  -14.8215  -17.1590 N   0  0  0  0  0  0  0  0  0  0  0  0
   29.1419  -15.8214  -17.0115 C   0  0  0  0  0  0  0  0  0  0  0  0
   30.5221  -15.8884  -17.1727 C   0  0  0  0  0  0  0  0  0  0  0  0
   31.1863  -17.0568  -16.9299 C   0  0  0  0  0  0  0  0  0  0  0  0
   30.5171  -18.1861  -16.5228 C   0  0  0  0  0  0  0  0  0  0  0  0
   29.1474  -18.1091  -16.3668 C   0  0  0  0  0  0  0  0  0  0  0  0
   28.4488  -16.9519  -16.6036 C   0  0  0  0  0  0  0  0  0  0  0  0
   24.8326  -19.6505  -16.7005 C   0  0  0  0  0  0  0  0  0  0  0  0
   23.7029  -19.5499  -17.2617 O   0  0  0  0  0  0  0  0  0  0  0  0
   25.0539  -20.6911  -15.7772 N   0  0  0  0  0  0  0  0  0  0  0  0
   26.3188  -21.0103  -15.1611 C   0  0  0  0  0  0  0  0  0  0  0  0
   26.2791  -22.5075  -14.8974 C   0  0  0  0  0  0  0  0  0  0  0  0
   24.8526  -22.9087  -14.9867 C   0  0  0  0  0  0  0  0  0  0  0  0
   24.1017  -21.6459  -15.3400 C   0  0  1  0  0  0  0  0  0  0  0  0
   23.2137  -21.3055  -14.2441 C   0  0  0  0  0  0  0  0  0  0  0  0
   23.7561  -20.7739  -13.2138 O   0  0  0  0  0  0  0  0  0  0  0  0
   19.8099  -19.4568  -14.2807 O   0  0  0  0  0  0  0  0  0  0  0  0
   20.4965  -19.6600  -13.1050 C   0  0  0  0  0  0  0  0  0  0  0  0
   21.0204  -21.0656  -13.0380 C   0  0  2  0  0  0  0  0  0  0  0  0
   21.8125  -21.4823  -14.1527 N   0  0  0  0  0  0  0  0  0  0  0  0
   19.8517  -21.9637  -12.7705 C   0  0  0  0  0  0  0  0  0  0  0  0
   19.0998  -21.8909  -11.6132 O   0  0  0  0  0  0  0  0  0  0  0  0
   19.5616  -22.8111  -13.6503 O   0  0  0  0  0  0  0  0  0  0  0  0
  2  1  1  6
  3  4  1  0
  3  2  1  0
  4  5  2  0
  5  6  1  0
  7  8  2  0
  7  6  1  0
  9  8  1  0
 10  9  2  0
 11 10  1  0
 11 12  2  0
 12  4  1  0
 12  7  1  0
 13  2  1  0
 14 13  2  0
 15 13  1  0
 16 15  1  0
 17 16  1  0
 18 17  1  0
 18 19  1  0
 19 15  1  0
 19 20  1  1
 20 25  1  0
 20 21  2  0
 23 22  1  0
 24 23  1  6
 25 24  1  0
 26 24  1  0
 26 27  1  0
 28 26  2  0
M  END
$$$$
