WPS.pdb
     RDKit          3D

 28 30  0  0  1  0  0  0  0  0999 V2000
   24.2026  -20.5385  -11.0922 N   0  0  0  0  0  0  0  0  0  0  0  0
   25.5892  -20.4177  -11.5320 C   0  0  1  0  0  0  0  0  0  0  0  0
   26.4498  -21.2330  -10.6215 C   0  0  0  0  0  0  0  0  0  0  0  0
   26.5243  -20.6810   -9.2704 C   0  0  0  0  0  0  0  0  0  0  0  0
   25.4847  -20.1951   -8.4880 C   0  0  0  0  0  0  0  0  0  0  0  0
   25.9800  -19.7520   -7.3195 N   0  0  0  0  0  0  0  0  0  0  0  0
   27.3048  -19.9313   -7.3069 C   0  0  0  0  0  0  0  0  0  0  0  0
   28.2760  -19.6651   -6.3471 C   0  0  0  0  0  0  0  0  0  0  0  0
   29.5842  -19.9738   -6.5893 C   0  0  0  0  0  0  0  0  0  0  0  0
   29.9730  -20.5510   -7.7745 C   0  0  0  0  0  0  0  0  0  0  0  0
   29.0013  -20.8101   -8.7206 C   0  0  0  0  0  0  0  0  0  0  0  0
   27.6786  -20.5113   -8.5106 C   0  0  0  0  0  0  0  0  0  0  0  0
   25.6917  -20.7384  -12.9697 C   0  0  0  0  0  0  0  0  0  0  0  0
   24.6879  -21.2830  -13.5147 O   0  0  0  0  0  0  0  0  0  0  0  0
   26.8330  -20.4611  -13.7473 N   0  0  0  0  0  0  0  0  0  0  0  0
   28.0458  -19.8454  -13.2663 C   0  0  0  0  0  0  0  0  0  0  0  0
   28.6235  -19.0952  -14.4564 C   0  0  0  0  0  0  0  0  0  0  0  0
   27.9531  -19.6455  -15.6613 C   0  0  0  0  0  0  0  0  0  0  0  0
   26.9736  -20.6722  -15.1420 C   0  0  1  0  0  0  0  0  0  0  0  0
   27.3701  -21.9834  -15.6204 C   0  0  0  0  0  0  0  0  0  0  0  0
   28.6013  -22.2985  -15.4679 O   0  0  0  0  0  0  0  0  0  0  0  0
   24.7677  -25.0655  -16.6300 O   0  0  0  0  0  0  0  0  0  0  0  0
   26.0128  -25.3895  -16.1403 C   0  0  0  0  0  0  0  0  0  0  0  0
   27.0076  -24.3178  -16.4818 C   0  0  2  0  0  0  0  0  0  0  0  0
   26.5757  -22.9763  -16.2417 N   0  0  0  0  0  0  0  0  0  0  0  0
   27.4512  -24.5559  -17.8927 C   0  0  0  0  0  0  0  0  0  0  0  0
   28.0204  -25.7444  -18.3091 O   0  0  0  0  0  0  0  0  0  0  0  0
   27.2885  -23.6208  -18.7145 O   0  0  0  0  0  0  0  0  0  0  0  0
  2  1  1  1
  3  4  1  0
  3  2  1  0
  4  5  2  0
  5  6  1  0
  7  8  2  0
  7  6  1  0
  9  8  1  0
 10  9  2  0
 11 10  1  0
 11 12  2  0
 12  4  1  0
 12  7  1  0
 13  2  1  0
 14 13  2  0
 15 13  1  0
 16 15  1  0
 17 16  1  0
 18 17  1  0
 18 19  1  0
 19 15  1  0
 19 20  1  1
 20 25  1  0
 20 21  2  0
 23 22  1  0
 24 23  1  6
 25 24  1  0
 26 24  1  0
 26 27  1  0
 28 26  2  0
M  END
$$$$
