WPS.pdb
     RDKit          3D

 28 30  0  0  1  0  0  0  0  0999 V2000
   26.4911  -19.2876  -12.0215 N   0  0  0  0  0  0  0  0  0  0  0  0
   26.0386  -20.6695  -12.1499 C   0  0  1  0  0  0  0  0  0  0  0  0
   25.5959  -21.1519  -10.8062 C   0  0  0  0  0  0  0  0  0  0  0  0
   26.4559  -20.6772   -9.7241 C   0  0  0  0  0  0  0  0  0  0  0  0
   26.1057  -19.8791   -8.6427 C   0  0  0  0  0  0  0  0  0  0  0  0
   27.1967  -19.6469   -7.8925 N   0  0  0  0  0  0  0  0  0  0  0  0
   28.2477  -20.2646   -8.4413 C   0  0  0  0  0  0  0  0  0  0  0  0
   29.5825  -20.3571   -8.0605 C   0  0  0  0  0  0  0  0  0  0  0  0
   30.4614  -21.0874   -8.8085 C   0  0  0  0  0  0  0  0  0  0  0  0
   30.0557  -21.7451   -9.9450 C   0  0  0  0  0  0  0  0  0  0  0  0
   28.7290  -21.6460  -10.3146 C   0  0  0  0  0  0  0  0  0  0  0  0
   27.8200  -20.9197   -9.5871 C   0  0  0  0  0  0  0  0  0  0  0  0
   25.0383  -20.7739  -13.2310 C   0  0  0  0  0  0  0  0  0  0  0  0
   24.4622  -19.7068  -13.5922 O   0  0  0  0  0  0  0  0  0  0  0  0
   24.7110  -21.9852  -13.8712 N   0  0  0  0  0  0  0  0  0  0  0  0
   25.3180  -23.2661  -13.6025 C   0  0  0  0  0  0  0  0  0  0  0  0
   25.2482  -24.0347  -14.9130 C   0  0  0  0  0  0  0  0  0  0  0  0
   24.2444  -23.3351  -15.7536 C   0  0  0  0  0  0  0  0  0  0  0  0
   23.7842  -22.1545  -14.9304 C   0  0  1  0  0  0  0  0  0  0  0  0
   22.3773  -22.3207  -14.6166 C   0  0  0  0  0  0  0  0  0  0  0  0
   22.1040  -22.9286  -13.5239 O   0  0  0  0  0  0  0  0  0  0  0  0
   19.2629  -20.1614  -16.2497 O   0  0  0  0  0  0  0  0  0  0  0  0
   19.0852  -20.7393  -15.0130 C   0  0  0  0  0  0  0  0  0  0  0  0
   19.8998  -21.9953  -14.8973 C   0  0  2  0  0  0  0  0  0  0  0  0
   21.2490  -21.9002  -15.3602 N   0  0  0  0  0  0  0  0  0  0  0  0
   19.1214  -23.0927  -15.5561 C   0  0  0  0  0  0  0  0  0  0  0  0
   17.8488  -23.4537  -15.1557 O   0  0  0  0  0  0  0  0  0  0  0  0
   19.6693  -23.6960  -16.5111 O   0  0  0  0  0  0  0  0  0  0  0  0
  2  1  1  1
  3  4  1  0
  3  2  1  0
  4  5  2  0
  5  6  1  0
  7  8  2  0
  7  6  1  0
  9  8  1  0
 10  9  2  0
 11 10  1  0
 11 12  2  0
 12  4  1  0
 12  7  1  0
 13  2  1  0
 14 13  2  0
 15 13  1  0
 16 15  1  0
 17 16  1  0
 18 17  1  0
 18 19  1  0
 19 15  1  0
 19 20  1  1
 20 25  1  0
 20 21  2  0
 23 22  1  0
 24 23  1  6
 25 24  1  0
 26 24  1  0
 26 27  1  0
 28 26  2  0
M  END
$$$$
