WPS.pdb
     RDKit          3D

 28 30  0  0  1  0  0  0  0  0999 V2000
   27.9522  -20.4663  -12.3552 N   0  0  0  0  0  0  0  0  0  0  0  0
   26.7612  -21.1106  -11.8103 C   0  0  1  0  0  0  0  0  0  0  0  0
   26.5763  -20.6532  -10.3992 C   0  0  0  0  0  0  0  0  0  0  0  0
   27.7859  -20.8050   -9.5932 C   0  0  0  0  0  0  0  0  0  0  0  0
   28.9634  -21.4573   -9.9351 C   0  0  0  0  0  0  0  0  0  0  0  0
   29.8212  -21.3925   -8.9020 N   0  0  0  0  0  0  0  0  0  0  0  0
   29.2499  -20.7205   -7.8973 C   0  0  0  0  0  0  0  0  0  0  0  0
   29.7052  -20.3631   -6.6323 C   0  0  0  0  0  0  0  0  0  0  0  0
   28.9057  -19.6408   -5.7930 C   0  0  0  0  0  0  0  0  0  0  0  0
   27.6435  -19.2501   -6.1713 C   0  0  0  0  0  0  0  0  0  0  0  0
   27.2010  -19.6109   -7.4284 C   0  0  0  0  0  0  0  0  0  0  0  0
   27.9774  -20.3373   -8.2959 C   0  0  0  0  0  0  0  0  0  0  0  0
   25.6124  -20.8915  -12.7118 C   0  0  0  0  0  0  0  0  0  0  0  0
   25.4027  -19.7073  -13.1054 O   0  0  0  0  0  0  0  0  0  0  0  0
   24.7623  -21.9251  -13.1510 N   0  0  0  0  0  0  0  0  0  0  0  0
   24.8539  -23.3101  -12.7576 C   0  0  0  0  0  0  0  0  0  0  0  0
   24.3251  -24.1071  -13.9400 C   0  0  0  0  0  0  0  0  0  0  0  0
   23.5728  -23.1473  -14.7864 C   0  0  0  0  0  0  0  0  0  0  0  0
   23.7155  -21.8089  -14.0998 C   0  0  1  0  0  0  0  0  0  0  0  0
   22.4067  -21.3673  -13.6553 C   0  0  0  0  0  0  0  0  0  0  0  0
   22.0652  -21.6994  -12.4673 O   0  0  0  0  0  0  0  0  0  0  0  0
   19.7136  -18.9515  -15.7803 O   0  0  0  0  0  0  0  0  0  0  0  0
   19.6878  -18.8576  -14.4072 C   0  0  0  0  0  0  0  0  0  0  0  0
   20.2327  -20.1104  -13.7840 C   0  0  2  0  0  0  0  0  0  0  0  0
   21.4408  -20.6113  -14.3612 N   0  0  0  0  0  0  0  0  0  0  0  0
   19.1225  -21.1159  -13.7628 C   0  0  0  0  0  0  0  0  0  0  0  0
   17.9532  -20.9267  -13.0508 O   0  0  0  0  0  0  0  0  0  0  0  0
   19.2839  -22.1681  -14.4285 O   0  0  0  0  0  0  0  0  0  0  0  0
  2  1  1  6
  3  4  1  0
  3  2  1  0
  4  5  2  0
  5  6  1  0
  7  8  2  0
  7  6  1  0
  9  8  1  0
 10  9  2  0
 11 10  1  0
 11 12  2  0
 12  4  1  0
 12  7  1  0
 13  2  1  0
 14 13  2  0
 15 13  1  0
 16 15  1  0
 17 16  1  0
 18 17  1  0
 18 19  1  0
 19 15  1  0
 19 20  1  1
 20 25  1  0
 20 21  2  0
 23 22  1  0
 24 23  1  6
 25 24  1  0
 26 24  1  0
 26 27  1  0
 28 26  2  0
M  END
$$$$
