WPS.pdb
     RDKit          3D

 28 30  0  0  1  0  0  0  0  0999 V2000
   24.9549  -20.7594  -15.9765 N   0  0  0  0  0  0  0  0  0  0  0  0
   25.7534  -19.9931  -15.0247 C   0  0  1  0  0  0  0  0  0  0  0  0
   25.1873  -18.6128  -14.9315 C   0  0  0  0  0  0  0  0  0  0  0  0
   25.2720  -17.8811  -16.1937 C   0  0  0  0  0  0  0  0  0  0  0  0
   24.2355  -17.5342  -17.0507 C   0  0  0  0  0  0  0  0  0  0  0  0
   24.7401  -16.8902  -18.1174 N   0  0  0  0  0  0  0  0  0  0  0  0
   26.0679  -16.8010  -17.9899 C   0  0  0  0  0  0  0  0  0  0  0  0
   27.0484  -16.2252  -18.7915 C   0  0  0  0  0  0  0  0  0  0  0  0
   28.3581  -16.2583  -18.4058 C   0  0  0  0  0  0  0  0  0  0  0  0
   28.7395  -16.8538  -17.2273 C   0  0  0  0  0  0  0  0  0  0  0  0
   27.7588  -17.4231  -16.4396 C   0  0  0  0  0  0  0  0  0  0  0  0
   26.4341  -17.4090  -16.7977 C   0  0  0  0  0  0  0  0  0  0  0  0
   25.8620  -20.7298  -13.7497 C   0  0  0  0  0  0  0  0  0  0  0  0
   24.9572  -21.5756  -13.4906 O   0  0  0  0  0  0  0  0  0  0  0  0
   26.9137  -20.5418  -12.8318 N   0  0  0  0  0  0  0  0  0  0  0  0
   28.2131  -19.9989  -13.1454 C   0  0  0  0  0  0  0  0  0  0  0  0
   29.1753  -20.6471  -12.1621 C   0  0  0  0  0  0  0  0  0  0  0  0
   28.3405  -21.2072  -11.0698 C   0  0  0  0  0  0  0  0  0  0  0  0
   26.9123  -20.9084  -11.4625 C   0  0  1  0  0  0  0  0  0  0  0  0
   26.3385  -19.9980  -10.4892 C   0  0  0  0  0  0  0  0  0  0  0  0
   26.9804  -18.9114  -10.2760 O   0  0  0  0  0  0  0  0  0  0  0  0
   24.6059  -21.9852   -6.6148 O   0  0  0  0  0  0  0  0  0  0  0  0
   24.7341  -21.8496   -7.9786 C   0  0  0  0  0  0  0  0  0  0  0  0
   25.1235  -20.4434   -8.3332 C   0  0  2  0  0  0  0  0  0  0  0  0
   25.1525  -20.1454   -9.7311 N   0  0  0  0  0  0  0  0  0  0  0  0
   26.4167  -20.1507   -7.6361 C   0  0  0  0  0  0  0  0  0  0  0  0
   26.5426  -19.1695   -6.6709 O   0  0  0  0  0  0  0  0  0  0  0  0
   27.4154  -20.8395   -7.9591 O   0  0  0  0  0  0  0  0  0  0  0  0
  2  1  1  6
  3  4  1  0
  3  2  1  0
  4  5  2  0
  5  6  1  0
  7  8  2  0
  7  6  1  0
  9  8  1  0
 10  9  2  0
 11 10  1  0
 11 12  2  0
 12  4  1  0
 12  7  1  0
 13  2  1  0
 14 13  2  0
 15 13  1  0
 16 15  1  0
 17 16  1  0
 18 17  1  0
 18 19  1  0
 19 15  1  0
 19 20  1  1
 20 25  1  0
 20 21  2  0
 23 22  1  0
 24 23  1  6
 25 24  1  0
 26 24  1  0
 26 27  1  0
 28 26  2  0
M  END
$$$$
