AFA.pdb
     RDKit          3D

 22 22  0  0  1  0  0  0  0  0999 V2000
   17.6022   -9.8170  -14.9895 C   0  0  0  0  0  0  0  0  0  0  0  0
   16.8832  -10.7019  -13.9642 C   0  0  2  0  0  0  0  0  0  0  0  0
   16.1503  -11.6901  -14.6800 N   0  0  0  0  0  0  0  0  0  0  0  0
   16.0305   -9.7952  -13.1626 C   0  0  0  0  0  0  0  0  0  0  0  0
   14.9208   -9.4438  -13.6385 O   0  0  0  0  0  0  0  0  0  0  0  0
   16.3900   -9.2997  -11.8915 N   0  0  0  0  0  0  0  0  0  0  0  0
   15.5415   -8.5360  -11.0315 C   0  0  1  0  0  0  0  0  0  0  0  0
   15.7845   -8.8331   -9.5639 C   0  0  0  0  0  0  0  0  0  0  0  0
   14.7929   -8.0997   -8.7168 C   0  0  0  0  0  0  0  0  0  0  0  0
   15.1928   -7.0329   -7.9342 C   0  0  0  0  0  0  0  0  0  0  0  0
   14.3197   -6.3311   -7.1422 C   0  0  0  0  0  0  0  0  0  0  0  0
   12.9828   -6.6733   -7.0986 C   0  0  0  0  0  0  0  0  0  0  0  0
   12.5648   -7.7514   -7.8861 C   0  0  0  0  0  0  0  0  0  0  0  0
   13.4577   -8.4454   -8.6765 C   0  0  0  0  0  0  0  0  0  0  0  0
   15.8237   -7.0909  -11.2281 C   0  0  0  0  0  0  0  0  0  0  0  0
   16.9946   -6.6380  -11.0077 O   0  0  0  0  0  0  0  0  0  0  0  0
   13.9661   -4.3774  -13.0011 C   0  0  0  0  0  0  0  0  0  0  0  0
   15.0708   -4.8137  -12.0306 C   0  0  2  0  0  0  0  0  0  0  0  0
   14.8048   -6.1889  -11.6622 N   0  0  0  0  0  0  0  0  0  0  0  0
   15.0390   -3.9696  -10.8093 C   0  0  0  0  0  0  0  0  0  0  0  0
   14.3213   -4.3467   -9.6827 O   0  0  0  0  0  0  0  0  0  0  0  0
   15.6600   -2.8950  -10.7659 O   0  0  0  0  0  0  0  0  0  0  0  0
  2  1  1  6
  2  3  1  0
  4  6  1  0
  4  2  1  0
  5  4  2  0
  7  6  1  0
  7 15  1  0
  7  8  1  1
  9  8  1  0
  9 14  2  0
 10  9  1  0
 11 10  2  0
 11 12  1  0
 12 13  2  0
 13 14  1  0
 15 19  1  0
 16 15  2  0
 18 17  1  6
 18 20  1  0
 19 18  1  0
 20 21  1  0
 22 20  2  0
M  END
$$$$
