AFA.pdb
     RDKit          3D

 22 22  0  0  1  0  0  0  0  0999 V2000
   27.4703  -21.3124  -18.7059 C   0  0  0  0  0  0  0  0  0  0  0  0
   28.4371  -21.7880  -17.6149 C   0  0  2  0  0  0  0  0  0  0  0  0
   29.0374  -22.9985  -18.0628 N   0  0  0  0  0  0  0  0  0  0  0  0
   27.6269  -21.9464  -16.3861 C   0  0  0  0  0  0  0  0  0  0  0  0
   26.9971  -23.0223  -16.2212 O   0  0  0  0  0  0  0  0  0  0  0  0
   27.5187  -20.9584  -15.3848 N   0  0  0  0  0  0  0  0  0  0  0  0
   26.7233  -21.0635  -14.2019 C   0  0  1  0  0  0  0  0  0  0  0  0
   27.2257  -20.1699  -13.0837 C   0  0  0  0  0  0  0  0  0  0  0  0
   26.4293  -20.4024  -11.8386 C   0  0  0  0  0  0  0  0  0  0  0  0
   25.2787  -19.6757  -11.5966 C   0  0  0  0  0  0  0  0  0  0  0  0
   24.5170  -19.8545  -10.4697 C   0  0  0  0  0  0  0  0  0  0  0  0
   24.8810  -20.7864   -9.5181 C   0  0  0  0  0  0  0  0  0  0  0  0
   26.0436  -21.5287   -9.7509 C   0  0  0  0  0  0  0  0  0  0  0  0
   26.7971  -21.3349  -10.8904 C   0  0  0  0  0  0  0  0  0  0  0  0
   25.3366  -20.6277  -14.5079 C   0  0  0  0  0  0  0  0  0  0  0  0
   25.1335  -19.4872  -15.0396 O   0  0  0  0  0  0  0  0  0  0  0  0
   22.2333  -22.1901  -15.3671 C   0  0  0  0  0  0  0  0  0  0  0  0
   22.8485  -21.0810  -14.5043 C   0  0  2  0  0  0  0  0  0  0  0  0
   24.2156  -21.4639  -14.2178 N   0  0  0  0  0  0  0  0  0  0  0  0
   22.1020  -20.9557  -13.2268 C   0  0  0  0  0  0  0  0  0  0  0  0
   20.9606  -20.1726  -13.1249 O   0  0  0  0  0  0  0  0  0  0  0  0
   22.4847  -21.5547  -12.2083 O   0  0  0  0  0  0  0  0  0  0  0  0
  2  1  1  6
  2  3  1  0
  4  6  1  0
  4  2  1  0
  5  4  2  0
  7  6  1  0
  7 15  1  0
  7  8  1  1
  9  8  1  0
  9 14  2  0
 10  9  1  0
 11 10  2  0
 11 12  1  0
 12 13  2  0
 13 14  1  0
 15 19  1  0
 16 15  2  0
 18 17  1  6
 18 20  1  0
 19 18  1  0
 20 21  1  0
 22 20  2  0
M  END
$$$$
