AFA.pdb
     RDKit          3D

 22 22  0  0  1  0  0  0  0  0999 V2000
   18.3493  -10.6045  -20.7900 C   0  0  0  0  0  0  0  0  0  0  0  0
   18.0250   -9.9050  -19.4646 C   0  0  2  0  0  0  0  0  0  0  0  0
   17.4009   -8.6625  -19.7695 N   0  0  0  0  0  0  0  0  0  0  0  0
   19.3123   -9.7624  -18.7475 C   0  0  0  0  0  0  0  0  0  0  0  0
   19.9471  -10.8057  -18.4479 O   0  0  0  0  0  0  0  0  0  0  0  0
   19.8717   -8.5208  -18.3788 N   0  0  0  0  0  0  0  0  0  0  0  0
   21.1553   -8.3382  -17.7772 C   0  0  1  0  0  0  0  0  0  0  0  0
   21.9429   -7.2128  -18.4211 C   0  0  0  0  0  0  0  0  0  0  0  0
   22.3786   -7.6080  -19.7969 C   0  0  0  0  0  0  0  0  0  0  0  0
   23.4192   -8.5004  -19.9732 C   0  0  0  0  0  0  0  0  0  0  0  0
   23.8527   -8.8916  -21.2147 C   0  0  0  0  0  0  0  0  0  0  0  0
   23.2519   -8.3969  -22.3551 C   0  0  0  0  0  0  0  0  0  0  0  0
   22.1972   -7.4926  -22.1905 C   0  0  0  0  0  0  0  0  0  0  0  0
   21.7749   -7.1108  -20.9337 C   0  0  0  0  0  0  0  0  0  0  0  0
   20.9754   -7.9722  -16.3489 C   0  0  0  0  0  0  0  0  0  0  0  0
   20.0680   -7.1408  -16.0171 O   0  0  0  0  0  0  0  0  0  0  0  0
   22.4252   -9.2430  -13.1185 C   0  0  0  0  0  0  0  0  0  0  0  0
   21.6979   -8.1658  -13.9329 C   0  0  2  0  0  0  0  0  0  0  0  0
   21.8027   -8.5349  -15.3295 N   0  0  0  0  0  0  0  0  0  0  0  0
   22.3489   -6.8467  -13.7296 C   0  0  0  0  0  0  0  0  0  0  0  0
   23.1034   -6.2463  -14.7279 O   0  0  0  0  0  0  0  0  0  0  0  0
   22.2328   -6.2428  -12.6506 O   0  0  0  0  0  0  0  0  0  0  0  0
  2  1  1  6
  2  3  1  0
  4  6  1  0
  4  2  1  0
  5  4  2  0
  7  6  1  0
  7 15  1  0
  7  8  1  6
  9  8  1  0
  9 14  2  0
 10  9  1  0
 11 10  2  0
 11 12  1  0
 12 13  2  0
 13 14  1  0
 15 19  1  0
 16 15  2  0
 18 17  1  1
 18 20  1  0
 19 18  1  0
 20 21  1  0
 22 20  2  0
M  END
$$$$
