AFA.pdb
     RDKit          3D

 22 22  0  0  1  0  0  0  0  0999 V2000
   28.3030  -21.0357  -16.5174 C   0  0  0  0  0  0  0  0  0  0  0  0
   27.0146  -20.5126  -17.1639 C   0  0  2  0  0  0  0  0  0  0  0  0
   27.3762  -19.5038  -18.1006 N   0  0  0  0  0  0  0  0  0  0  0  0
   26.1684  -20.0169  -16.0548 C   0  0  0  0  0  0  0  0  0  0  0  0
   26.2775  -18.8115  -15.7138 O   0  0  0  0  0  0  0  0  0  0  0  0
   25.2430  -20.8196  -15.3549 N   0  0  0  0  0  0  0  0  0  0  0  0
   24.3695  -20.3631  -14.3197 C   0  0  1  0  0  0  0  0  0  0  0  0
   22.9165  -20.6999  -14.5964 C   0  0  0  0  0  0  0  0  0  0  0  0
   22.3958  -19.8594  -15.7194 C   0  0  0  0  0  0  0  0  0  0  0  0
   22.2887  -20.3818  -16.9946 C   0  0  0  0  0  0  0  0  0  0  0  0
   21.8172  -19.6492  -18.0543 C   0  0  0  0  0  0  0  0  0  0  0  0
   21.4249  -18.3370  -17.8802 C   0  0  0  0  0  0  0  0  0  0  0  0
   21.5282  -17.7959  -16.5942 C   0  0  0  0  0  0  0  0  0  0  0  0
   22.0049  -18.5482  -15.5404 C   0  0  0  0  0  0  0  0  0  0  0  0
   24.7303  -21.0376  -13.0463 C   0  0  0  0  0  0  0  0  0  0  0  0
   24.6834  -22.3089  -12.9671 O   0  0  0  0  0  0  0  0  0  0  0  0
   25.9413  -19.8048   -9.6874 C   0  0  0  0  0  0  0  0  0  0  0  0
   25.3598  -20.8909  -10.6012 C   0  0  2  0  0  0  0  0  0  0  0  0
   25.1320  -20.2885  -11.8984 N   0  0  0  0  0  0  0  0  0  0  0  0
   24.0658  -21.3755  -10.0575 C   0  0  0  0  0  0  0  0  0  0  0  0
   22.8608  -21.0906  -10.6845 O   0  0  0  0  0  0  0  0  0  0  0  0
   24.0300  -22.0543   -9.0181 O   0  0  0  0  0  0  0  0  0  0  0  0
  2  1  1  1
  2  3  1  0
  4  6  1  0
  4  2  1  0
  5  4  2  0
  7  6  1  0
  7 15  1  0
  7  8  1  6
  9  8  1  0
  9 14  2  0
 10  9  1  0
 11 10  2  0
 11 12  1  0
 12 13  2  0
 13 14  1  0
 15 19  1  0
 16 15  2  0
 18 17  1  1
 18 20  1  0
 19 18  1  0
 20 21  1  0
 22 20  2  0
M  END
$$$$
