AFA.pdb
     RDKit          3D

 22 22  0  0  1  0  0  0  0  0999 V2000
   15.1930    0.9677  -11.3585 C   0  0  0  0  0  0  0  0  0  0  0  0
   15.9358    1.3299  -12.6501 C   0  0  2  0  0  0  0  0  0  0  0  0
   15.8750    0.2032  -13.5178 N   0  0  0  0  0  0  0  0  0  0  0  0
   17.3127    1.6941  -12.2459 C   0  0  0  0  0  0  0  0  0  0  0  0
   17.4654    2.6455  -11.4379 O   0  0  0  0  0  0  0  0  0  0  0  0
   18.4684    1.0347  -12.7149 N   0  0  0  0  0  0  0  0  0  0  0  0
   19.8103    1.3472  -12.3347 C   0  0  1  0  0  0  0  0  0  0  0  0
   20.4773    0.2146  -11.5772 C   0  0  0  0  0  0  0  0  0  0  0  0
   20.0001    0.1894  -10.1594 C   0  0  0  0  0  0  0  0  0  0  0  0
   20.4617    1.1201   -9.2478 C   0  0  0  0  0  0  0  0  0  0  0  0
   20.0525    1.1357   -7.9384 C   0  0  0  0  0  0  0  0  0  0  0  0
   19.1461    0.2024   -7.4761 C   0  0  0  0  0  0  0  0  0  0  0  0
   18.6709   -0.7454   -8.3888 C   0  0  0  0  0  0  0  0  0  0  0  0
   19.0940   -0.7454   -9.7020 C   0  0  0  0  0  0  0  0  0  0  0  0
   20.6206    1.5798  -13.5577 C   0  0  0  0  0  0  0  0  0  0  0  0
   20.4406    0.8484  -14.5859 O   0  0  0  0  0  0  0  0  0  0  0  0
   23.0403    4.2819  -14.5753 C   0  0  0  0  0  0  0  0  0  0  0  0
   22.3625    2.9251  -14.8037 C   0  0  2  0  0  0  0  0  0  0  0  0
   21.6056    2.6130  -13.6091 N   0  0  0  0  0  0  0  0  0  0  0  0
   23.3880    1.8724  -15.0169 C   0  0  0  0  0  0  0  0  0  0  0  0
   23.8620    1.5646  -16.2846 O   0  0  0  0  0  0  0  0  0  0  0  0
   23.8511    1.2357  -14.0565 O   0  0  0  0  0  0  0  0  0  0  0  0
  2  1  1  1
  2  3  1  0
  4  6  1  0
  4  2  1  0
  5  4  2  0
  7  6  1  0
  7 15  1  0
  7  8  1  6
  9  8  1  0
  9 14  2  0
 10  9  1  0
 11 10  2  0
 11 12  1  0
 12 13  2  0
 13 14  1  0
 15 19  1  0
 16 15  2  0
 18 17  1  1
 18 20  1  0
 19 18  1  0
 20 21  1  0
 22 20  2  0
M  END
$$$$
