AFA.pdb
     RDKit          3D

 22 22  0  0  1  0  0  0  0  0999 V2000
   21.6583  -21.7357  -13.9816 C   0  0  0  0  0  0  0  0  0  0  0  0
   22.0075  -21.3343  -12.5435 C   0  0  2  0  0  0  0  0  0  0  0  0
   20.9715  -20.4835  -12.0653 N   0  0  0  0  0  0  0  0  0  0  0  0
   23.3325  -20.6771  -12.6088 C   0  0  0  0  0  0  0  0  0  0  0  0
   23.3747  -19.4397  -12.8286 O   0  0  0  0  0  0  0  0  0  0  0  0
   24.5558  -21.3591  -12.4383 N   0  0  0  0  0  0  0  0  0  0  0  0
   25.8496  -20.7516  -12.4491 C   0  0  1  0  0  0  0  0  0  0  0  0
   26.7330  -21.2483  -11.3203 C   0  0  0  0  0  0  0  0  0  0  0  0
   26.2056  -20.7726  -10.0034 C   0  0  0  0  0  0  0  0  0  0  0  0
   25.4181  -21.5988   -9.2239 C   0  0  0  0  0  0  0  0  0  0  0  0
   24.9127  -21.2059   -8.0105 C   0  0  0  0  0  0  0  0  0  0  0  0
   25.1789  -19.9449   -7.5154 C   0  0  0  0  0  0  0  0  0  0  0  0
   25.9749  -19.0985   -8.2946 C   0  0  0  0  0  0  0  0  0  0  0  0
   26.4744  -19.5112   -9.5128 C   0  0  0  0  0  0  0  0  0  0  0  0
   26.5397  -21.0996  -13.7176 C   0  0  0  0  0  0  0  0  0  0  0  0
   27.7182  -20.6666  -13.9375 O   0  0  0  0  0  0  0  0  0  0  0  0
   26.2514  -23.6756  -16.3057 C   0  0  0  0  0  0  0  0  0  0  0  0
   26.5009  -22.1940  -15.9974 C   0  0  2  0  0  0  0  0  0  0  0  0
   25.9082  -21.9151  -14.7057 N   0  0  0  0  0  0  0  0  0  0  0  0
   25.8485  -21.3427  -17.0244 C   0  0  0  0  0  0  0  0  0  0  0  0
   24.8096  -20.4807  -16.7018 O   0  0  0  0  0  0  0  0  0  0  0  0
   26.2204  -21.3817  -18.2086 O   0  0  0  0  0  0  0  0  0  0  0  0
  2  1  1  6
  2  3  1  0
  4  6  1  0
  4  2  1  0
  5  4  2  0
  7  6  1  0
  7 15  1  0
  7  8  1  1
  9  8  1  0
  9 14  2  0
 10  9  1  0
 11 10  2  0
 11 12  1  0
 12 13  2  0
 13 14  1  0
 15 19  1  0
 16 15  2  0
 18 17  1  6
 18 20  1  0
 19 18  1  0
 20 21  1  0
 22 20  2  0
M  END
$$$$
