AFA.pdb
     RDKit          3D

 22 22  0  0  1  0  0  0  0  0999 V2000
   14.1041  -15.1069    8.3346 C   0  0  0  0  0  0  0  0  0  0  0  0
   15.3885  -14.4045    7.8783 C   0  0  2  0  0  0  0  0  0  0  0  0
   15.1479  -13.0017    7.8976 N   0  0  0  0  0  0  0  0  0  0  0  0
   15.6929  -14.9361    6.5306 C   0  0  0  0  0  0  0  0  0  0  0  0
   15.0953  -14.4368    5.5432 O   0  0  0  0  0  0  0  0  0  0  0  0
   16.6173  -15.9737    6.2867 N   0  0  0  0  0  0  0  0  0  0  0  0
   16.9377  -16.5105    5.0014 C   0  0  1  0  0  0  0  0  0  0  0  0
   18.3966  -16.3106    4.6366 C   0  0  0  0  0  0  0  0  0  0  0  0
   18.6476  -14.8809    4.2736 C   0  0  0  0  0  0  0  0  0  0  0  0
   19.1990  -14.0103    5.1946 C   0  0  0  0  0  0  0  0  0  0  0  0
   19.4468  -12.6920    4.9068 C   0  0  0  0  0  0  0  0  0  0  0  0
   19.1476  -12.1784    3.6606 C   0  0  0  0  0  0  0  0  0  0  0  0
   18.5889  -13.0492    2.7189 C   0  0  0  0  0  0  0  0  0  0  0  0
   18.3468  -14.3722    3.0267 C   0  0  0  0  0  0  0  0  0  0  0  0
   16.6961  -17.9761    5.0124 C   0  0  0  0  0  0  0  0  0  0  0  0
   17.0846  -18.6751    6.0049 O   0  0  0  0  0  0  0  0  0  0  0  0
   14.9676  -20.3406    2.6219 C   0  0  0  0  0  0  0  0  0  0  0  0
   15.7045  -20.0368    3.9324 C   0  0  2  0  0  0  0  0  0  0  0  0
   16.0328  -18.6263    3.9273 N   0  0  0  0  0  0  0  0  0  0  0  0
   16.9597  -20.8268    4.0063 C   0  0  0  0  0  0  0  0  0  0  0  0
   16.9478  -22.1878    4.2779 O   0  0  0  0  0  0  0  0  0  0  0  0
   18.0616  -20.2832    3.8252 O   0  0  0  0  0  0  0  0  0  0  0  0
  2  1  1  6
  2  3  1  0
  4  6  1  0
  4  2  1  0
  5  4  2  0
  7  6  1  0
  7 15  1  0
  7  8  1  1
  9  8  1  0
  9 14  2  0
 10  9  1  0
 11 10  2  0
 11 12  1  0
 12 13  2  0
 13 14  1  0
 15 19  1  0
 16 15  2  0
 18 17  1  6
 18 20  1  0
 19 18  1  0
 20 21  1  0
 22 20  2  0
M  END
$$$$
