AFA.pdb
     RDKit          3D

 22 22  0  0  1  0  0  0  0  0999 V2000
   26.7706  -21.3428  -18.5223 C   0  0  0  0  0  0  0  0  0  0  0  0
   27.8193  -21.6266  -17.4401 C   0  0  2  0  0  0  0  0  0  0  0  0
   28.5757  -22.7593  -17.8534 N   0  0  0  0  0  0  0  0  0  0  0  0
   27.0673  -21.8415  -16.1831 C   0  0  0  0  0  0  0  0  0  0  0  0
   26.5450  -22.9682  -15.9854 O   0  0  0  0  0  0  0  0  0  0  0  0
   26.9009  -20.8536  -15.1897 N   0  0  0  0  0  0  0  0  0  0  0  0
   26.2046  -21.0323  -13.9543 C   0  0  1  0  0  0  0  0  0  0  0  0
   26.6820  -20.0780  -12.8760 C   0  0  0  0  0  0  0  0  0  0  0  0
   25.9677  -20.3517  -11.5901 C   0  0  0  0  0  0  0  0  0  0  0  0
   26.5021  -21.2277  -10.6642 C   0  0  0  0  0  0  0  0  0  0  0  0
   25.8832  -21.5092   -9.4726 C   0  0  0  0  0  0  0  0  0  0  0  0
   24.6796  -20.9145   -9.1502 C   0  0  0  0  0  0  0  0  0  0  0  0
   24.1277  -20.0256  -10.0789 C   0  0  0  0  0  0  0  0  0  0  0  0
   24.7649  -19.7549  -11.2724 C   0  0  0  0  0  0  0  0  0  0  0  0
   24.7610  -20.7527  -14.1648 C   0  0  0  0  0  0  0  0  0  0  0  0
   24.3958  -19.6264  -14.6369 O   0  0  0  0  0  0  0  0  0  0  0  0
   21.7640  -22.8205  -14.6084 C   0  0  0  0  0  0  0  0  0  0  0  0
   22.3492  -21.5082  -14.0717 C   0  0  2  0  0  0  0  0  0  0  0  0
   23.7636  -21.7248  -13.8479 N   0  0  0  0  0  0  0  0  0  0  0  0
   21.7033  -21.1514  -12.7831 C   0  0  0  0  0  0  0  0  0  0  0  0
   22.1649  -21.6536  -11.5743 O   0  0  0  0  0  0  0  0  0  0  0  0
   20.7246  -20.3873  -12.7554 O   0  0  0  0  0  0  0  0  0  0  0  0
  2  1  1  6
  2  3  1  0
  4  6  1  0
  4  2  1  0
  5  4  2  0
  7  6  1  0
  7 15  1  0
  7  8  1  1
  9  8  1  0
  9 14  2  0
 10  9  1  0
 11 10  2  0
 11 12  1  0
 12 13  2  0
 13 14  1  0
 15 19  1  0
 16 15  2  0
 18 17  1  1
 18 20  1  0
 19 18  1  0
 20 21  1  0
 22 20  2  0
M  END
$$$$
