AFA.pdb
     RDKit          3D

 22 22  0  0  1  0  0  0  0  0999 V2000
   38.7048  -31.9208  -16.1105 C   0  0  0  0  0  0  0  0  0  0  0  0
   37.9810  -31.1424  -15.0054 C   0  0  2  0  0  0  0  0  0  0  0  0
   37.4403  -32.0883  -14.0894 N   0  0  0  0  0  0  0  0  0  0  0  0
   36.9543  -30.3200  -15.6846 C   0  0  0  0  0  0  0  0  0  0  0  0
   35.7782  -30.7614  -15.7418 O   0  0  0  0  0  0  0  0  0  0  0  0
   37.2177  -29.0655  -16.2739 N   0  0  0  0  0  0  0  0  0  0  0  0
   36.2389  -28.2076  -16.8645 C   0  0  1  0  0  0  0  0  0  0  0  0
   36.5003  -26.7420  -16.5724 C   0  0  0  0  0  0  0  0  0  0  0  0
   36.0194  -26.3948  -15.1988 C   0  0  0  0  0  0  0  0  0  0  0  0
   36.9205  -26.2004  -14.1690 C   0  0  0  0  0  0  0  0  0  0  0  0
   36.5261  -25.8809  -12.8944 C   0  0  0  0  0  0  0  0  0  0  0  0
   35.1869  -25.7395  -12.5898 C   0  0  0  0  0  0  0  0  0  0  0  0
   34.2642  -25.9337  -13.6232 C   0  0  0  0  0  0  0  0  0  0  0  0
   34.6798  -26.2546  -14.8992 C   0  0  0  0  0  0  0  0  0  0  0  0
   36.2823  -28.3642  -18.3410 C   0  0  0  0  0  0  0  0  0  0  0  0
   37.4021  -28.3342  -18.9489 O   0  0  0  0  0  0  0  0  0  0  0  0
   33.6444  -29.1567  -20.9256 C   0  0  0  0  0  0  0  0  0  0  0  0
   35.0921  -28.8562  -20.5177 C   0  0  2  0  0  0  0  0  0  0  0  0
   35.0879  -28.5493  -19.1023 N   0  0  0  0  0  0  0  0  0  0  0  0
   35.5993  -27.6793  -21.2677 C   0  0  0  0  0  0  0  0  0  0  0  0
   35.2564  -26.3836  -20.9068 O   0  0  0  0  0  0  0  0  0  0  0  0
   36.3500  -27.8272  -22.2459 O   0  0  0  0  0  0  0  0  0  0  0  0
  2  1  1  6
  2  3  1  0
  4  6  1  0
  4  2  1  0
  5  4  2  0
  7  6  1  0
  7 15  1  0
  7  8  1  6
  9  8  1  0
  9 14  2  0
 10  9  1  0
 11 10  2  0
 11 12  1  0
 12 13  2  0
 13 14  1  0
 15 19  1  0
 16 15  2  0
 18 17  1  6
 18 20  1  0
 19 18  1  0
 20 21  1  0
 22 20  2  0
M  END
$$$$
