AFA.pdb
     RDKit          3D

 22 22  0  0  1  0  0  0  0  0999 V2000
   24.4594  -20.5393  -12.3836 C   0  0  0  0  0  0  0  0  0  0  0  0
   25.8705  -21.1243  -12.2499 C   0  0  2  0  0  0  0  0  0  0  0  0
   25.9145  -22.3312  -13.0032 N   0  0  0  0  0  0  0  0  0  0  0  0
   26.1001  -21.3206  -10.8006 C   0  0  0  0  0  0  0  0  0  0  0  0
   25.7511  -22.4125  -10.2836 O   0  0  0  0  0  0  0  0  0  0  0  0
   26.6895  -20.3518   -9.9613 N   0  0  0  0  0  0  0  0  0  0  0  0
   26.9528  -20.5165   -8.5661 C   0  0  1  0  0  0  0  0  0  0  0  0
   27.9469  -19.4988   -8.0393 C   0  0  0  0  0  0  0  0  0  0  0  0
   28.1674  -19.7023   -6.5735 C   0  0  0  0  0  0  0  0  0  0  0  0
   28.9611  -20.7397   -6.1215 C   0  0  0  0  0  0  0  0  0  0  0  0
   29.1916  -20.9648   -4.7880 C   0  0  0  0  0  0  0  0  0  0  0  0
   28.6267  -20.1456   -3.8308 C   0  0  0  0  0  0  0  0  0  0  0  0
   27.8210  -19.0917   -4.2750 C   0  0  0  0  0  0  0  0  0  0  0  0
   27.6006  -18.8809   -5.6206 C   0  0  0  0  0  0  0  0  0  0  0  0
   25.6922  -20.3165   -7.8063 C   0  0  0  0  0  0  0  0  0  0  0  0
   24.9637  -19.2979   -8.0439 O   0  0  0  0  0  0  0  0  0  0  0  0
   23.1851  -22.3695   -6.4108 C   0  0  0  0  0  0  0  0  0  0  0  0
   24.0219  -21.1252   -6.0880 C   0  0  2  0  0  0  0  0  0  0  0  0
   25.2733  -21.2470   -6.8069 N   0  0  0  0  0  0  0  0  0  0  0  0
   24.3034  -21.0641   -4.6312 C   0  0  0  0  0  0  0  0  0  0  0  0
   23.3702  -20.5707   -3.7301 O   0  0  0  0  0  0  0  0  0  0  0  0
   25.3915  -21.4570   -4.1795 O   0  0  0  0  0  0  0  0  0  0  0  0
  2  1  1  1
  2  3  1  0
  4  6  1  0
  4  2  1  0
  5  4  2  0
  7  6  1  0
  7 15  1  0
  7  8  1  1
  9  8  1  0
  9 14  2  0
 10  9  1  0
 11 10  2  0
 11 12  1  0
 12 13  2  0
 13 14  1  0
 15 19  1  0
 16 15  2  0
 18 17  1  1
 18 20  1  0
 19 18  1  0
 20 21  1  0
 22 20  2  0
M  END
$$$$
