AFA.pdb
     RDKit          3D

 22 22  0  0  1  0  0  0  0  0999 V2000
   19.7739   -8.3540  -21.1030 C   0  0  0  0  0  0  0  0  0  0  0  0
   20.4406   -9.3161  -20.1126 C   0  0  2  0  0  0  0  0  0  0  0  0
   20.0754  -10.6418  -20.4805 N   0  0  0  0  0  0  0  0  0  0  0  0
   19.9633   -8.9204  -18.7682 C   0  0  0  0  0  0  0  0  0  0  0  0
   18.7429   -8.6543  -18.6227 O   0  0  0  0  0  0  0  0  0  0  0  0
   20.7993   -8.8237  -17.6358 N   0  0  0  0  0  0  0  0  0  0  0  0
   20.3661   -8.4960  -16.3138 C   0  0  1  0  0  0  0  0  0  0  0  0
   20.5703   -9.6384  -15.3367 C   0  0  0  0  0  0  0  0  0  0  0  0
   19.6296  -10.7595  -15.6482 C   0  0  0  0  0  0  0  0  0  0  0  0
   20.0514  -11.8399  -16.4000 C   0  0  0  0  0  0  0  0  0  0  0  0
   19.2249  -12.8900  -16.7103 C   0  0  0  0  0  0  0  0  0  0  0  0
   17.9153  -12.9043  -16.2731 C   0  0  0  0  0  0  0  0  0  0  0  0
   17.4757  -11.8166  -15.5111 C   0  0  0  0  0  0  0  0  0  0  0  0
   18.3216  -10.7693  -15.2090 C   0  0  0  0  0  0  0  0  0  0  0  0
   21.1680   -7.3522  -15.8086 C   0  0  0  0  0  0  0  0  0  0  0  0
   22.4359   -7.3605  -15.9389 O   0  0  0  0  0  0  0  0  0  0  0  0
   20.2139   -3.9568  -14.4791 C   0  0  0  0  0  0  0  0  0  0  0  0
   21.2605   -5.0209  -14.8325 C   0  0  2  0  0  0  0  0  0  0  0  0
   20.5462   -6.2334  -15.1748 N   0  0  0  0  0  0  0  0  0  0  0  0
   22.1332   -5.2864  -13.6608 C   0  0  0  0  0  0  0  0  0  0  0  0
   21.9660   -6.4146  -12.8699 O   0  0  0  0  0  0  0  0  0  0  0  0
   23.0430   -4.4975  -13.3572 O   0  0  0  0  0  0  0  0  0  0  0  0
  2  1  1  6
  2  3  1  0
  4  6  1  0
  4  2  1  0
  5  4  2  0
  7  6  1  0
  7 15  1  0
  7  8  1  1
  9  8  1  0
  9 14  2  0
 10  9  1  0
 11 10  2  0
 11 12  1  0
 12 13  2  0
 13 14  1  0
 15 19  1  0
 16 15  2  0
 18 17  1  1
 18 20  1  0
 19 18  1  0
 20 21  1  0
 22 20  2  0
M  END
$$$$
