AFA.pdb
     RDKit          3D

 22 22  0  0  1  0  0  0  0  0999 V2000
   18.4607   -9.3488  -18.7484 C   0  0  0  0  0  0  0  0  0  0  0  0
   19.7999   -9.3012  -18.0032 C   0  0  2  0  0  0  0  0  0  0  0  0
   20.1925  -10.6414  -17.7275 N   0  0  0  0  0  0  0  0  0  0  0  0
   19.5669   -8.4890  -16.7875 C   0  0  0  0  0  0  0  0  0  0  0  0
   18.8090   -8.9515  -15.8971 O   0  0  0  0  0  0  0  0  0  0  0  0
   20.1469   -7.2218  -16.5675 N   0  0  0  0  0  0  0  0  0  0  0  0
   19.9546   -6.4154  -15.4033 C   0  0  1  0  0  0  0  0  0  0  0  0
   21.2413   -6.1972  -14.6299 C   0  0  0  0  0  0  0  0  0  0  0  0
   21.6475   -7.4588  -13.9356 C   0  0  0  0  0  0  0  0  0  0  0  0
   21.0496   -7.8275  -12.7453 C   0  0  0  0  0  0  0  0  0  0  0  0
   21.3894   -8.9745  -12.0737 C   0  0  0  0  0  0  0  0  0  0  0  0
   22.3610   -9.8182  -12.5741 C   0  0  0  0  0  0  0  0  0  0  0  0
   22.9742   -9.4566  -13.7784 C   0  0  0  0  0  0  0  0  0  0  0  0
   22.6192   -8.2988  -14.4398 C   0  0  0  0  0  0  0  0  0  0  0  0
   19.4703   -5.0731  -15.8159 C   0  0  0  0  0  0  0  0  0  0  0  0
   20.1006   -4.4192  -16.7103 O   0  0  0  0  0  0  0  0  0  0  0  0
   16.3374   -3.1263  -15.0286 C   0  0  0  0  0  0  0  0  0  0  0  0
   17.7045   -3.2656  -15.7100 C   0  0  2  0  0  0  0  0  0  0  0  0
   18.3046   -4.4928  -15.2289 N   0  0  0  0  0  0  0  0  0  0  0  0
   18.5769   -2.1219  -15.3411 C   0  0  0  0  0  0  0  0  0  0  0  0
   18.6748   -0.9934  -16.1431 O   0  0  0  0  0  0  0  0  0  0  0  0
   19.2467   -2.1478  -14.2956 O   0  0  0  0  0  0  0  0  0  0  0  0
  2  1  1  1
  2  3  1  0
  4  6  1  0
  4  2  1  0
  5  4  2  0
  7  6  1  0
  7 15  1  0
  7  8  1  6
  9  8  1  0
  9 14  2  0
 10  9  1  0
 11 10  2  0
 11 12  1  0
 12 13  2  0
 13 14  1  0
 15 19  1  0
 16 15  2  0
 18 17  1  1
 18 20  1  0
 19 18  1  0
 20 21  1  0
 22 20  2  0
M  END
$$$$
