AFA.pdb
     RDKit          3D

 22 22  0  0  1  0  0  0  0  0999 V2000
   19.0542  -11.5924  -17.9508 C   0  0  0  0  0  0  0  0  0  0  0  0
   20.3366  -11.4751  -17.1184 C   0  0  2  0  0  0  0  0  0  0  0  0
   20.6258  -12.7610  -16.5809 N   0  0  0  0  0  0  0  0  0  0  0  0
   20.0666  -10.4477  -16.0873 C   0  0  0  0  0  0  0  0  0  0  0  0
   19.1756  -10.6812  -15.2313 O   0  0  0  0  0  0  0  0  0  0  0  0
   20.7522   -9.2172  -16.0073 N   0  0  0  0  0  0  0  0  0  0  0  0
   20.5324   -8.2111  -15.0161 C   0  0  1  0  0  0  0  0  0  0  0  0
   21.5361   -8.2860  -13.8811 C   0  0  0  0  0  0  0  0  0  0  0  0
   22.8996   -8.5917  -14.4161 C   0  0  0  0  0  0  0  0  0  0  0  0
   23.4966   -9.8112  -14.1580 C   0  0  0  0  0  0  0  0  0  0  0  0
   24.7443  -10.1356  -14.6274 C   0  0  0  0  0  0  0  0  0  0  0  0
   25.4620   -9.2359  -15.3901 C   0  0  0  0  0  0  0  0  0  0  0  0
   24.8691   -7.9976  -15.6588 C   0  0  0  0  0  0  0  0  0  0  0  0
   23.6131   -7.6892  -15.1780 C   0  0  0  0  0  0  0  0  0  0  0  0
   20.6898   -6.8719  -15.6392 C   0  0  0  0  0  0  0  0  0  0  0  0
   21.5860   -6.6871  -16.5265 O   0  0  0  0  0  0  0  0  0  0  0  0
   18.6797   -3.6973  -15.5408 C   0  0  0  0  0  0  0  0  0  0  0  0
   19.9829   -4.4514  -15.8336 C   0  0  2  0  0  0  0  0  0  0  0  0
   19.8532   -5.7767  -15.2641 N   0  0  0  0  0  0  0  0  0  0  0  0
   21.1284   -3.7577  -15.1919 C   0  0  0  0  0  0  0  0  0  0  0  0
   21.7292   -2.6516  -15.7767 O   0  0  0  0  0  0  0  0  0  0  0  0
   21.5811   -4.1544  -14.1056 O   0  0  0  0  0  0  0  0  0  0  0  0
  2  1  1  6
  2  3  1  0
  4  6  1  0
  4  2  1  0
  5  4  2  0
  7  6  1  0
  7 15  1  0
  7  8  1  1
  9  8  1  0
  9 14  2  0
 10  9  1  0
 11 10  2  0
 11 12  1  0
 12 13  2  0
 13 14  1  0
 15 19  1  0
 16 15  2  0
 18 17  1  1
 18 20  1  0
 19 18  1  0
 20 21  1  0
 22 20  2  0
M  END
$$$$
