AFA.pdb
     RDKit          3D

 22 22  0  0  1  0  0  0  0  0999 V2000
   27.6407  -18.7348  -15.0759 C   0  0  0  0  0  0  0  0  0  0  0  0
   28.2723  -19.8284  -14.2062 C   0  0  2  0  0  0  0  0  0  0  0  0
   29.0604  -20.6573  -15.0534 N   0  0  0  0  0  0  0  0  0  0  0  0
   27.1480  -20.5407  -13.5579 C   0  0  0  0  0  0  0  0  0  0  0  0
   26.6695  -21.5505  -14.1346 O   0  0  0  0  0  0  0  0  0  0  0  0
   26.5790  -20.1526  -12.3266 N   0  0  0  0  0  0  0  0  0  0  0  0
   25.5337  -20.8477  -11.6431 C   0  0  1  0  0  0  0  0  0  0  0  0
   25.3306  -20.3427  -10.2271 C   0  0  0  0  0  0  0  0  0  0  0  0
   26.5731  -20.5522   -9.4203 C   0  0  0  0  0  0  0  0  0  0  0  0
   26.7631  -19.8668   -8.2352 C   0  0  0  0  0  0  0  0  0  0  0  0
   27.8856  -20.0267   -7.4627 C   0  0  0  0  0  0  0  0  0  0  0  0
   28.8854  -20.8963   -7.8505 C   0  0  0  0  0  0  0  0  0  0  0  0
   28.7054  -21.5965   -9.0482 C   0  0  0  0  0  0  0  0  0  0  0  0
   27.5696  -21.4226   -9.8120 C   0  0  0  0  0  0  0  0  0  0  0  0
   24.2529  -20.6297  -12.3632 C   0  0  0  0  0  0  0  0  0  0  0  0
   23.8586  -19.4430  -12.6101 O   0  0  0  0  0  0  0  0  0  0  0  0
   21.9514  -22.9009  -14.2623 C   0  0  0  0  0  0  0  0  0  0  0  0
   22.2327  -21.5647  -13.5636 C   0  0  2  0  0  0  0  0  0  0  0  0
   23.4456  -21.7283  -12.7893 N   0  0  0  0  0  0  0  0  0  0  0  0
   21.1149  -21.2231  -12.6476 C   0  0  0  0  0  0  0  0  0  0  0  0
   21.2246  -21.3859  -11.2736 O   0  0  0  0  0  0  0  0  0  0  0  0
   20.0441  -20.7791  -13.0933 O   0  0  0  0  0  0  0  0  0  0  0  0
  2  1  1  6
  2  3  1  0
  4  6  1  0
  4  2  1  0
  5  4  2  0
  7  6  1  0
  7 15  1  0
  7  8  1  1
  9  8  1  0
  9 14  2  0
 10  9  1  0
 11 10  2  0
 11 12  1  0
 12 13  2  0
 13 14  1  0
 15 19  1  0
 16 15  2  0
 18 17  1  1
 18 20  1  0
 19 18  1  0
 20 21  1  0
 22 20  2  0
M  END
$$$$
