AFA.pdb
     RDKit          3D

 22 22  0  0  1  0  0  0  0  0999 V2000
   19.3969   -8.5419  -19.4729 C   0  0  0  0  0  0  0  0  0  0  0  0
   20.6700   -8.7029  -18.6336 C   0  0  2  0  0  0  0  0  0  0  0  0
   20.9130  -10.0964  -18.4743 N   0  0  0  0  0  0  0  0  0  0  0  0
   20.4157   -7.9952  -17.3583 C   0  0  0  0  0  0  0  0  0  0  0  0
   19.5672   -8.4789  -16.5663 O   0  0  0  0  0  0  0  0  0  0  0  0
   21.0712   -6.8055  -16.9771 N   0  0  0  0  0  0  0  0  0  0  0  0
   20.8909   -6.1241  -15.7336 C   0  0  1  0  0  0  0  0  0  0  0  0
   22.1901   -5.9614  -14.9676 C   0  0  0  0  0  0  0  0  0  0  0  0
   22.7099   -7.2981  -14.5415 C   0  0  0  0  0  0  0  0  0  0  0  0
   23.7675   -7.8847  -15.2107 C   0  0  0  0  0  0  0  0  0  0  0  0
   24.2773   -9.1080  -14.8558 C   0  0  0  0  0  0  0  0  0  0  0  0
   23.7401   -9.8104  -13.7955 C   0  0  0  0  0  0  0  0  0  0  0  0
   22.6691   -9.2278  -13.1096 C   0  0  0  0  0  0  0  0  0  0  0  0
   22.1697   -7.9964  -13.4810 C   0  0  0  0  0  0  0  0  0  0  0  0
   20.3761   -4.7562  -15.9988 C   0  0  0  0  0  0  0  0  0  0  0  0
   20.8545   -4.0751  -16.9642 O   0  0  0  0  0  0  0  0  0  0  0  0
   17.4793   -2.7726  -14.6431 C   0  0  0  0  0  0  0  0  0  0  0  0
   18.7851   -2.8707  -15.4418 C   0  0  2  0  0  0  0  0  0  0  0  0
   19.3486   -4.1810  -15.1904 N   0  0  0  0  0  0  0  0  0  0  0  0
   19.7434   -1.8341  -14.9813 C   0  0  0  0  0  0  0  0  0  0  0  0
   19.7086   -0.5388  -15.4787 O   0  0  0  0  0  0  0  0  0  0  0  0
   20.6080   -2.1037  -14.1315 O   0  0  0  0  0  0  0  0  0  0  0  0
  2  1  1  6
  2  3  1  0
  4  6  1  0
  4  2  1  0
  5  4  2  0
  7  6  1  0
  7 15  1  0
  7  8  1  6
  9  8  1  0
  9 14  2  0
 10  9  1  0
 11 10  2  0
 11 12  1  0
 12 13  2  0
 13 14  1  0
 15 19  1  0
 16 15  2  0
 18 17  1  1
 18 20  1  0
 19 18  1  0
 20 21  1  0
 22 20  2  0
M  END
$$$$
