CEM.pdb
     RDKit          3D

 24 23  0  0  1  0  0  0  0  0999 V2000
    6.4613  -15.8269   19.3579 N   0  0  0  0  0  0  0  0  0  0  0  0
    7.4331  -15.0010   20.0378 C   0  0  1  0  0  0  0  0  0  0  0  0
    6.7903  -13.7398   20.5872 C   0  0  0  0  0  0  0  0  0  0  0  0
    8.0723  -12.8116   21.4595 S   0  0  0  0  0  0  0  0  0  0  0  0
    8.0254  -15.7934   21.1487 C   0  0  0  0  0  0  0  0  0  0  0  0
    7.2406  -16.4395   21.8812 O   0  0  0  0  0  0  0  0  0  0  0  0
    9.4398  -15.8151   21.3700 N   0  0  0  0  0  0  0  0  0  0  0  0
   10.0243  -16.6582   22.4362 C   0  0  1  0  0  0  0  0  0  0  0  0
   11.3067  -17.1875   21.9106 C   0  0  0  0  0  0  0  0  0  0  0  0
   12.1167  -18.0568   22.7889 C   0  0  0  0  0  0  0  0  0  0  0  0
   13.4279  -18.4695   22.2445 C   0  0  0  0  0  0  0  0  0  0  0  0
   14.3791  -17.6618   22.2175 O   0  0  0  0  0  0  0  0  0  0  0  0
   10.0930  -15.8577   23.6623 C   0  0  0  0  0  0  0  0  0  0  0  0
   10.8286  -14.8018   23.6777 O   0  0  0  0  0  0  0  0  0  0  0  0
   13.6322  -19.7471   21.7563 O   0  0  0  0  0  0  0  0  0  0  0  0
    6.7808  -11.7207   26.2548 C   0  0  0  0  0  0  0  0  0  0  0  0
    6.3753  -13.3773   26.8329 S   0  0  0  0  0  0  0  0  0  0  0  0
    7.4728  -14.6395   26.2032 C   0  0  0  0  0  0  0  0  0  0  0  0
    8.9224  -14.3763   26.5505 C   0  0  0  0  0  0  0  0  0  0  0  0
    9.8236  -15.4876   26.1296 C   0  0  2  0  0  0  0  0  0  0  0  0
    9.4267  -16.1036   24.8795 N   0  0  0  0  0  0  0  0  0  0  0  0
    9.8182  -16.5196   27.2178 C   0  0  0  0  0  0  0  0  0  0  0  0
    9.3978  -17.6691   26.9608 O   0  0  0  0  0  0  0  0  0  0  0  0
   10.2665  -16.2353   28.5013 O   0  0  0  0  0  0  0  0  0  0  0  0
  2  1  1  1
  2  5  1  0
  3  2  1  0
  4  3  1  0
  5  6  2  0
  7  5  1  0
  7  8  1  0
  8  9  1  6
 10  9  1  0
 10 11  1  0
 11 15  1  0
 11 12  2  0
 13  8  1  0
 13 21  1  0
 14 13  2  0
 16 17  1  0
 18 17  1  0
 19 18  1  0
 20 21  1  0
 20 19  1  1
 22 24  1  0
 22 20  1  0
 23 22  2  0
M  END
$$$$
