CEM.pdb
     RDKit          3D

 24 23  0  0  1  0  0  0  0  0999 V2000
   11.0857  -15.8166   18.1379 N   0  0  0  0  0  0  0  0  0  0  0  0
   11.7535  -15.6411   19.4075 C   0  0  1  0  0  0  0  0  0  0  0  0
   12.0653  -14.1773   19.6638 C   0  0  0  0  0  0  0  0  0  0  0  0
   13.5638  -13.7704   18.7392 S   0  0  0  0  0  0  0  0  0  0  0  0
   10.8657  -16.1655   20.4797 C   0  0  0  0  0  0  0  0  0  0  0  0
    9.6326  -15.9846   20.3501 O   0  0  0  0  0  0  0  0  0  0  0  0
   11.4031  -16.8511   21.6160 N   0  0  0  0  0  0  0  0  0  0  0  0
   10.5097  -17.3844   22.6681 C   0  0  1  0  0  0  0  0  0  0  0  0
   11.1224  -18.6454   23.1531 C   0  0  0  0  0  0  0  0  0  0  0  0
   10.5299  -19.3001   24.3378 C   0  0  0  0  0  0  0  0  0  0  0  0
   11.2250  -20.5171   24.8086 C   0  0  0  0  0  0  0  0  0  0  0  0
   10.7520  -21.1860   25.7502 O   0  0  0  0  0  0  0  0  0  0  0  0
   10.2971  -16.3282   23.6621 C   0  0  0  0  0  0  0  0  0  0  0  0
   11.2905  -15.5857   24.0057 O   0  0  0  0  0  0  0  0  0  0  0  0
   12.4045  -20.9413   24.2244 O   0  0  0  0  0  0  0  0  0  0  0  0
    5.8930  -11.0171   27.5579 C   0  0  0  0  0  0  0  0  0  0  0  0
    6.0094  -12.3217   26.3221 S   0  0  0  0  0  0  0  0  0  0  0  0
    7.5219  -13.2681   26.4264 C   0  0  0  0  0  0  0  0  0  0  0  0
    7.6934  -14.2211   25.2630 C   0  0  0  0  0  0  0  0  0  0  0  0
    8.9954  -14.9473   25.3040 C   0  0  2  0  0  0  0  0  0  0  0  0
    9.0924  -16.0043   24.3176 N   0  0  0  0  0  0  0  0  0  0  0  0
    9.1522  -15.5305   26.6768 C   0  0  0  0  0  0  0  0  0  0  0  0
    8.8142  -16.7185   26.8727 O   0  0  0  0  0  0  0  0  0  0  0  0
    9.6616  -14.7896   27.7354 O   0  0  0  0  0  0  0  0  0  0  0  0
  2  1  1  6
  2  5  1  0
  3  2  1  0
  4  3  1  0
  5  6  2  0
  7  5  1  0
  7  8  1  0
  8  9  1  1
 10  9  1  0
 10 11  1  0
 11 15  1  0
 11 12  2  0
 13  8  1  0
 13 21  1  0
 14 13  2  0
 16 17  1  0
 18 17  1  0
 19 18  1  0
 20 21  1  0
 20 19  1  1
 22 24  1  0
 22 20  1  0
 23 22  2  0
M  END
$$$$
