CEM.pdb
     RDKit          3D

 24 23  0  0  1  0  0  0  0  0999 V2000
    7.5683  -14.9669   17.7477 N   0  0  0  0  0  0  0  0  0  0  0  0
    8.2568  -14.3344   18.8498 C   0  0  1  0  0  0  0  0  0  0  0  0
    7.6360  -12.9892   19.1828 C   0  0  0  0  0  0  0  0  0  0  0  0
    8.4206  -12.3876   20.6955 S   0  0  0  0  0  0  0  0  0  0  0  0
    8.1771  -15.2356   20.0305 C   0  0  0  0  0  0  0  0  0  0  0  0
    7.0950  -15.8352   20.2290 O   0  0  0  0  0  0  0  0  0  0  0  0
    9.2970  -15.4093   20.9056 N   0  0  0  0  0  0  0  0  0  0  0  0
    9.2521  -16.4032   22.0009 C   0  0  1  0  0  0  0  0  0  0  0  0
   10.1834  -17.4961   21.6276 C   0  0  0  0  0  0  0  0  0  0  0  0
   10.3582  -18.6187   22.5720 C   0  0  0  0  0  0  0  0  0  0  0  0
   11.3402  -19.6468   22.1662 C   0  0  0  0  0  0  0  0  0  0  0  0
   12.5633  -19.4301   22.2886 O   0  0  0  0  0  0  0  0  0  0  0  0
    9.5248  -15.7042   23.2603 C   0  0  0  0  0  0  0  0  0  0  0  0
   10.4635  -14.8245   23.2950 O   0  0  0  0  0  0  0  0  0  0  0  0
   10.9336  -20.8619   21.6462 O   0  0  0  0  0  0  0  0  0  0  0  0
    6.2256  -11.4862   25.7204 C   0  0  0  0  0  0  0  0  0  0  0  0
    7.2826  -11.7000   27.1626 S   0  0  0  0  0  0  0  0  0  0  0  0
    8.4279  -13.0635   27.0098 C   0  0  0  0  0  0  0  0  0  0  0  0
    8.1126  -13.9591   25.8310 C   0  0  0  0  0  0  0  0  0  0  0  0
    9.1224  -15.0410   25.6468 C   0  0  2  0  0  0  0  0  0  0  0  0
    8.8617  -15.8763   24.4918 N   0  0  0  0  0  0  0  0  0  0  0  0
    9.1191  -15.8871   26.8850 C   0  0  0  0  0  0  0  0  0  0  0  0
    8.5755  -17.0128   26.8483 O   0  0  0  0  0  0  0  0  0  0  0  0
    9.7021  -15.4566   28.0699 O   0  0  0  0  0  0  0  0  0  0  0  0
  2  1  1  6
  2  5  1  0
  3  2  1  0
  4  3  1  0
  5  6  2  0
  7  5  1  0
  7  8  1  0
  8  9  1  6
 10  9  1  0
 10 11  1  0
 11 15  1  0
 11 12  2  0
 13  8  1  0
 13 21  1  0
 14 13  2  0
 16 17  1  0
 18 17  1  0
 19 18  1  0
 20 21  1  0
 20 19  1  1
 22 24  1  0
 22 20  1  0
 23 22  2  0
M  END
$$$$
