CEM.pdb
     RDKit          3D

 24 23  0  0  1  0  0  0  0  0999 V2000
    5.2698  -13.8894   26.2051 N   0  0  0  0  0  0  0  0  0  0  0  0
    6.2028  -13.3859   25.2229 C   0  0  1  0  0  0  0  0  0  0  0  0
    7.0983  -12.3138   25.8184 C   0  0  0  0  0  0  0  0  0  0  0  0
    6.0410  -10.9331   26.3099 S   0  0  0  0  0  0  0  0  0  0  0  0
    7.0287  -14.5231   24.7357 C   0  0  0  0  0  0  0  0  0  0  0  0
    7.3013  -15.4325   25.5535 O   0  0  0  0  0  0  0  0  0  0  0  0
    7.4931  -14.5739   23.3823 N   0  0  0  0  0  0  0  0  0  0  0  0
    8.3114  -15.7114   22.9071 C   0  0  1  0  0  0  0  0  0  0  0  0
    8.2350  -15.7062   21.4256 C   0  0  0  0  0  0  0  0  0  0  0  0
    9.0640  -16.6751   20.6793 C   0  0  0  0  0  0  0  0  0  0  0  0
    8.8811  -16.6744   19.2122 C   0  0  0  0  0  0  0  0  0  0  0  0
    9.0055  -17.7333   18.5632 O   0  0  0  0  0  0  0  0  0  0  0  0
    9.6465  -15.5900   23.5002 C   0  0  0  0  0  0  0  0  0  0  0  0
   10.1735  -14.4217   23.6167 O   0  0  0  0  0  0  0  0  0  0  0  0
    8.5710  -15.5132   18.5282 O   0  0  0  0  0  0  0  0  0  0  0  0
   10.4501  -13.2781   28.6236 C   0  0  0  0  0  0  0  0  0  0  0  0
   10.6681  -15.0394   28.9290 S   0  0  0  0  0  0  0  0  0  0  0  0
   11.4563  -15.9039   27.5779 C   0  0  0  0  0  0  0  0  0  0  0  0
   10.5721  -15.9989   26.3531 C   0  0  0  0  0  0  0  0  0  0  0  0
   11.3072  -16.4902   25.1521 C   0  0  2  0  0  0  0  0  0  0  0  0
   10.4630  -16.6322   23.9829 N   0  0  0  0  0  0  0  0  0  0  0  0
   11.9106  -17.8195   25.4957 C   0  0  0  0  0  0  0  0  0  0  0  0
   11.3497  -18.8621   25.0926 O   0  0  0  0  0  0  0  0  0  0  0  0
   13.0734  -17.9254   26.2481 O   0  0  0  0  0  0  0  0  0  0  0  0
  2  1  1  1
  2  5  1  0
  3  2  1  0
  4  3  1  0
  5  6  2  0
  7  5  1  0
  7  8  1  0
  8  9  1  6
 10  9  1  0
 10 11  1  0
 11 15  1  0
 11 12  2  0
 13  8  1  0
 13 21  1  0
 14 13  2  0
 16 17  1  0
 18 17  1  0
 19 18  1  0
 20 21  1  0
 20 19  1  1
 22 24  1  0
 22 20  1  0
 23 22  2  0
M  END
$$$$
