CEM.pdb
     RDKit          3D

 24 23  0  0  1  0  0  0  0  0999 V2000
    6.9301  -15.6789   18.9564 N   0  0  0  0  0  0  0  0  0  0  0  0
    8.1257  -15.0370   19.4536 C   0  0  1  0  0  0  0  0  0  0  0  0
    7.8946  -13.5542   19.6848 C   0  0  0  0  0  0  0  0  0  0  0  0
    7.7526  -12.7666   18.0645 S   0  0  0  0  0  0  0  0  0  0  0  0
    8.5136  -15.6947   20.7302 C   0  0  0  0  0  0  0  0  0  0  0  0
    7.5917  -16.0906   21.4808 O   0  0  0  0  0  0  0  0  0  0  0  0
    9.8899  -15.8675   21.0852 N   0  0  0  0  0  0  0  0  0  0  0  0
   10.2661  -16.5936   22.3183 C   0  0  1  0  0  0  0  0  0  0  0  0
   11.5370  -17.3020   22.0289 C   0  0  0  0  0  0  0  0  0  0  0  0
   12.1741  -18.0689   23.1193 C   0  0  0  0  0  0  0  0  0  0  0  0
   13.4913  -18.6591   22.7992 C   0  0  0  0  0  0  0  0  0  0  0  0
   14.4326  -18.5739   23.6145 O   0  0  0  0  0  0  0  0  0  0  0  0
   10.2828  -15.6322   23.4247 C   0  0  0  0  0  0  0  0  0  0  0  0
   10.4189  -14.3799   23.1611 O   0  0  0  0  0  0  0  0  0  0  0  0
   13.7124  -19.3136   21.6013 O   0  0  0  0  0  0  0  0  0  0  0  0
    6.7661  -11.6110   27.4200 C   0  0  0  0  0  0  0  0  0  0  0  0
    7.8472  -12.7543   26.5441 S   0  0  0  0  0  0  0  0  0  0  0  0
    6.9723  -14.0981   25.7549 C   0  0  0  0  0  0  0  0  0  0  0  0
    7.8882  -14.9966   24.9517 C   0  0  0  0  0  0  0  0  0  0  0  0
    9.1780  -15.2705   25.6487 C   0  0  2  0  0  0  0  0  0  0  0  0
   10.1614  -15.9131   24.8004 N   0  0  0  0  0  0  0  0  0  0  0  0
    8.8847  -16.1506   26.8271 C   0  0  0  0  0  0  0  0  0  0  0  0
    8.4578  -17.3090   26.6270 O   0  0  0  0  0  0  0  0  0  0  0  0
    9.0736  -15.7162   28.1328 O   0  0  0  0  0  0  0  0  0  0  0  0
  2  1  1  1
  2  5  1  0
  3  2  1  0
  4  3  1  0
  5  6  2  0
  7  5  1  0
  7  8  1  0
  8  9  1  6
 10  9  1  0
 10 11  1  0
 11 15  1  0
 11 12  2  0
 13  8  1  0
 13 21  1  0
 14 13  2  0
 16 17  1  0
 18 17  1  0
 19 18  1  0
 20 21  1  0
 20 19  1  6
 22 24  1  0
 22 20  1  0
 23 22  2  0
M  END
$$$$
