CEM.pdb
     RDKit          3D

 24 23  0  0  1  0  0  0  0  0999 V2000
    7.1811  -14.4866   18.0996 N   0  0  0  0  0  0  0  0  0  0  0  0
    8.5304  -14.5629   18.6116 C   0  0  1  0  0  0  0  0  0  0  0  0
    9.1039  -13.1774   18.8508 C   0  0  0  0  0  0  0  0  0  0  0  0
    8.0187  -12.3349   20.0249 S   0  0  0  0  0  0  0  0  0  0  0  0
    8.5044  -15.3279   19.8871 C   0  0  0  0  0  0  0  0  0  0  0  0
    7.4090  -15.4115   20.4897 O   0  0  0  0  0  0  0  0  0  0  0  0
    9.6885  -15.9448   20.4042 N   0  0  0  0  0  0  0  0  0  0  0  0
    9.6370  -16.7640   21.6353 C   0  0  1  0  0  0  0  0  0  0  0  0
   10.7685  -17.7208   21.5622 C   0  0  0  0  0  0  0  0  0  0  0  0
   11.0295  -18.5856   22.7313 C   0  0  0  0  0  0  0  0  0  0  0  0
   12.1572  -19.5307   22.5867 C   0  0  0  0  0  0  0  0  0  0  0  0
   13.0827  -19.5369   23.4242 O   0  0  0  0  0  0  0  0  0  0  0  0
    9.6135  -15.8553   22.7852 C   0  0  0  0  0  0  0  0  0  0  0  0
   10.5213  -14.9483   22.8823 O   0  0  0  0  0  0  0  0  0  0  0  0
   12.2154  -20.4225   21.5315 O   0  0  0  0  0  0  0  0  0  0  0  0
    6.0775  -10.7753   27.4745 C   0  0  0  0  0  0  0  0  0  0  0  0
    5.9886  -12.1083   26.2670 S   0  0  0  0  0  0  0  0  0  0  0  0
    7.5034  -13.0469   26.1301 C   0  0  0  0  0  0  0  0  0  0  0  0
    7.4391  -14.1005   25.0452 C   0  0  0  0  0  0  0  0  0  0  0  0
    8.7159  -14.8587   24.9061 C   0  0  2  0  0  0  0  0  0  0  0  0
    8.6835  -15.8438   23.8440 N   0  0  0  0  0  0  0  0  0  0  0  0
    8.9876  -15.5430   26.2127 C   0  0  0  0  0  0  0  0  0  0  0  0
    8.8742  -16.7866   26.2806 O   0  0  0  0  0  0  0  0  0  0  0  0
    9.3613  -14.8356   27.3481 O   0  0  0  0  0  0  0  0  0  0  0  0
  2  1  1  1
  2  5  1  0
  3  2  1  0
  4  3  1  0
  5  6  2  0
  7  5  1  0
  7  8  1  0
  8  9  1  1
 10  9  1  0
 10 11  1  0
 11 15  1  0
 11 12  2  0
 13  8  1  0
 13 21  1  0
 14 13  2  0
 16 17  1  0
 18 17  1  0
 19 18  1  0
 20 21  1  0
 20 19  1  1
 22 24  1  0
 22 20  1  0
 23 22  2  0
M  END
$$$$
