CEM.pdb
     RDKit          3D

 24 23  0  0  1  0  0  0  0  0999 V2000
    7.1016  -15.0080   19.0631 N   0  0  0  0  0  0  0  0  0  0  0  0
    8.3198  -14.5449   19.6876 C   0  0  1  0  0  0  0  0  0  0  0  0
    8.1982  -13.0925   20.1137 C   0  0  0  0  0  0  0  0  0  0  0  0
    8.0936  -12.0921   18.6124 S   0  0  0  0  0  0  0  0  0  0  0  0
    8.5919  -15.4001   20.8740 C   0  0  0  0  0  0  0  0  0  0  0  0
    7.6100  -15.7664   21.5608 O   0  0  0  0  0  0  0  0  0  0  0  0
    9.9270  -15.7886   21.2156 N   0  0  0  0  0  0  0  0  0  0  0  0
   10.1736  -16.7947   22.2721 C   0  0  1  0  0  0  0  0  0  0  0  0
   11.2641  -17.6732   21.7826 C   0  0  0  0  0  0  0  0  0  0  0  0
   11.8320  -18.6686   22.7151 C   0  0  0  0  0  0  0  0  0  0  0  0
   12.9293  -19.4978   22.1726 C   0  0  0  0  0  0  0  0  0  0  0  0
   13.2207  -20.5850   22.7122 O   0  0  0  0  0  0  0  0  0  0  0  0
   10.4137  -16.0825   23.5307 C   0  0  0  0  0  0  0  0  0  0  0  0
   11.2727  -15.1244   23.5514 O   0  0  0  0  0  0  0  0  0  0  0  0
   13.6534  -19.0949   21.0656 O   0  0  0  0  0  0  0  0  0  0  0  0
    5.8371  -12.7385   27.1899 C   0  0  0  0  0  0  0  0  0  0  0  0
    7.6337  -12.8607   27.1705 S   0  0  0  0  0  0  0  0  0  0  0  0
    8.2395  -14.3086   26.3157 C   0  0  0  0  0  0  0  0  0  0  0  0
    9.7509  -14.3542   26.2472 C   0  0  0  0  0  0  0  0  0  0  0  0
   10.2727  -15.7312   26.0114 C   0  0  2  0  0  0  0  0  0  0  0  0
    9.7971  -16.3195   24.7755 N   0  0  0  0  0  0  0  0  0  0  0  0
    9.8472  -16.5871   27.1671 C   0  0  0  0  0  0  0  0  0  0  0  0
    9.0816  -17.5533   26.9562 O   0  0  0  0  0  0  0  0  0  0  0  0
   10.2787  -16.3374   28.4635 O   0  0  0  0  0  0  0  0  0  0  0  0
  2  1  1  1
  2  5  1  0
  3  2  1  0
  4  3  1  0
  5  6  2  0
  7  5  1  0
  7  8  1  0
  8  9  1  6
 10  9  1  0
 10 11  1  0
 11 15  1  0
 11 12  2  0
 13  8  1  0
 13 21  1  0
 14 13  2  0
 16 17  1  0
 18 17  1  0
 19 18  1  0
 20 21  1  0
 20 19  1  1
 22 24  1  0
 22 20  1  0
 23 22  2  0
M  END
$$$$
