CEM.pdb
     RDKit          3D

 24 23  0  0  1  0  0  0  0  0999 V2000
    9.8387  -13.5745   18.2526 N   0  0  0  0  0  0  0  0  0  0  0  0
    8.7190  -13.1858   19.0795 C   0  0  1  0  0  0  0  0  0  0  0  0
    7.4272  -13.1758   18.2815 C   0  0  0  0  0  0  0  0  0  0  0  0
    7.1992  -14.8319   17.5949 S   0  0  0  0  0  0  0  0  0  0  0  0
    8.6116  -14.1514   20.2059 C   0  0  0  0  0  0  0  0  0  0  0  0
    7.6551  -14.0075   21.0024 O   0  0  0  0  0  0  0  0  0  0  0  0
    9.5670  -15.2050   20.3710 N   0  0  0  0  0  0  0  0  0  0  0  0
    9.3787  -16.2384   21.4131 C   0  0  1  0  0  0  0  0  0  0  0  0
   10.3254  -17.3379   21.1037 C   0  0  0  0  0  0  0  0  0  0  0  0
   10.4376  -18.4550   22.0641 C   0  0  0  0  0  0  0  0  0  0  0  0
   11.3762  -19.5320   21.6833 C   0  0  0  0  0  0  0  0  0  0  0  0
   12.5433  -19.2550   21.3382 O   0  0  0  0  0  0  0  0  0  0  0  0
    9.5193  -15.5944   22.7224 C   0  0  0  0  0  0  0  0  0  0  0  0
   10.4385  -14.7088   22.8867 O   0  0  0  0  0  0  0  0  0  0  0  0
   10.9897  -20.8596   21.6994 O   0  0  0  0  0  0  0  0  0  0  0  0
    5.9871  -11.4917   28.2626 C   0  0  0  0  0  0  0  0  0  0  0  0
    6.0021  -12.4752   26.7542 S   0  0  0  0  0  0  0  0  0  0  0  0
    7.5217  -13.3842   26.5121 C   0  0  0  0  0  0  0  0  0  0  0  0
    7.5369  -14.1563   25.2103 C   0  0  0  0  0  0  0  0  0  0  0  0
    8.7807  -14.9605   25.0354 C   0  0  2  0  0  0  0  0  0  0  0  0
    8.7428  -15.8277   23.8751 N   0  0  0  0  0  0  0  0  0  0  0  0
    8.9686  -15.7892   26.2712 C   0  0  0  0  0  0  0  0  0  0  0  0
    8.8174  -17.0285   26.1987 O   0  0  0  0  0  0  0  0  0  0  0  0
    9.3056  -15.2199   27.4925 O   0  0  0  0  0  0  0  0  0  0  0  0
  2  1  1  6
  2  5  1  0
  3  2  1  0
  4  3  1  0
  5  6  2  0
  7  5  1  0
  7  8  1  0
  8  9  1  6
 10  9  1  0
 10 11  1  0
 11 15  1  0
 11 12  2  0
 13  8  1  0
 13 21  1  0
 14 13  2  0
 16 17  1  0
 18 17  1  0
 19 18  1  0
 20 21  1  0
 20 19  1  1
 22 24  1  0
 22 20  1  0
 23 22  2  0
M  END
$$$$
