CEM.pdb
     RDKit          3D

 24 23  0  0  1  0  0  0  0  0999 V2000
    5.4691  -13.9621   25.6873 N   0  0  0  0  0  0  0  0  0  0  0  0
    6.3358  -13.6162   24.5838 C   0  0  1  0  0  0  0  0  0  0  0  0
    7.1733  -12.3921   24.9091 C   0  0  0  0  0  0  0  0  0  0  0  0
    7.2456  -12.2449   26.7088 S   0  0  0  0  0  0  0  0  0  0  0  0
    7.2225  -14.7771   24.3034 C   0  0  0  0  0  0  0  0  0  0  0  0
    7.3488  -15.6397   25.2035 O   0  0  0  0  0  0  0  0  0  0  0  0
    7.9048  -14.9016   23.0508 N   0  0  0  0  0  0  0  0  0  0  0  0
    8.8375  -16.0241   22.8073 C   0  0  1  0  0  0  0  0  0  0  0  0
    9.1310  -16.0310   21.3531 C   0  0  0  0  0  0  0  0  0  0  0  0
   10.1189  -17.0045   20.8439 C   0  0  0  0  0  0  0  0  0  0  0  0
    9.6192  -17.9423   19.8160 C   0  0  0  0  0  0  0  0  0  0  0  0
    9.5789  -19.1677   20.0502 O   0  0  0  0  0  0  0  0  0  0  0  0
    9.9810  -15.8691   23.7114 C   0  0  0  0  0  0  0  0  0  0  0  0
   10.6105  -14.7469   23.7343 O   0  0  0  0  0  0  0  0  0  0  0  0
    9.1881  -17.4913   18.5819 O   0  0  0  0  0  0  0  0  0  0  0  0
   11.0511  -13.8506   30.6291 C   0  0  0  0  0  0  0  0  0  0  0  0
   10.1135  -14.5062   29.2384 S   0  0  0  0  0  0  0  0  0  0  0  0
   11.1114  -15.4319   28.0802 C   0  0  0  0  0  0  0  0  0  0  0  0
   10.3506  -15.8073   26.8267 C   0  0  0  0  0  0  0  0  0  0  0  0
   11.2138  -16.4763   25.8110 C   0  0  2  0  0  0  0  0  0  0  0  0
   10.5021  -16.8310   24.5997 N   0  0  0  0  0  0  0  0  0  0  0  0
   11.7819  -17.7154   26.4365 C   0  0  0  0  0  0  0  0  0  0  0  0
   10.9995  -18.5706   26.9060 O   0  0  0  0  0  0  0  0  0  0  0  0
   13.1507  -17.9397   26.5090 O   0  0  0  0  0  0  0  0  0  0  0  0
  2  1  1  1
  2  5  1  0
  3  2  1  0
  4  3  1  0
  5  6  2  0
  7  5  1  0
  7  8  1  0
  8  9  1  6
 10  9  1  0
 10 11  1  0
 11 15  1  0
 11 12  2  0
 13  8  1  0
 13 21  1  0
 14 13  2  0
 16 17  1  0
 18 17  1  0
 19 18  1  0
 20 21  1  0
 20 19  1  1
 22 24  1  0
 22 20  1  0
 23 22  2  0
M  END
$$$$
