QWF.pdb
     RDKit          3D

 35 37  0  0  1  0  0  0  0  0999 V2000
   18.8043  -15.6495  -14.6041 N   0  0  0  0  0  0  0  0  0  0  0  0
   17.4356  -15.7718  -15.0087 C   0  0  0  0  0  0  0  0  0  0  0  0
   16.8357  -16.8341  -14.6905 O   0  0  0  0  0  0  0  0  0  0  0  0
   16.8225  -14.6595  -15.7601 C   0  0  0  0  0  0  0  0  0  0  0  0
   17.6927  -13.4904  -15.9946 C   0  0  0  0  0  0  0  0  0  0  0  0
   17.2651  -12.1626  -15.5066 C   0  0  2  0  0  0  0  0  0  0  0  0
   15.8920  -11.8268  -15.8208 N   0  0  0  0  0  0  0  0  0  0  0  0
   18.1976  -11.0362  -15.7463 C   0  0  0  0  0  0  0  0  0  0  0  0
   19.3983  -11.0212  -15.3875 O   0  0  0  0  0  0  0  0  0  0  0  0
   17.7246   -9.8869  -16.4312 N   0  0  0  0  0  0  0  0  0  0  0  0
   18.5550   -8.7478  -16.7337 C   0  0  1  0  0  0  0  0  0  0  0  0
   17.8638   -7.9092  -17.7581 C   0  0  0  0  0  0  0  0  0  0  0  0
   18.6769   -6.7622  -18.2595 C   0  0  0  0  0  0  0  0  0  0  0  0
   20.0077   -6.6961  -18.5291 C   0  0  0  0  0  0  0  0  0  0  0  0
   20.3201   -5.4697  -18.9763 N   0  0  0  0  0  0  0  0  0  0  0  0
   19.1882   -4.7039  -19.0080 C   0  0  0  0  0  0  0  0  0  0  0  0
   18.9834   -3.3905  -19.3741 C   0  0  0  0  0  0  0  0  0  0  0  0
   17.6896   -2.8721  -19.2841 C   0  0  0  0  0  0  0  0  0  0  0  0
   16.6855   -3.6989  -18.8344 C   0  0  0  0  0  0  0  0  0  0  0  0
   16.8943   -5.0268  -18.4648 C   0  0  0  0  0  0  0  0  0  0  0  0
   18.1632   -5.5066  -18.5622 C   0  0  0  0  0  0  0  0  0  0  0  0
   18.9246   -7.9441  -15.5281 C   0  0  0  0  0  0  0  0  0  0  0  0
   18.0008   -7.6053  -14.7482 O   0  0  0  0  0  0  0  0  0  0  0  0
   20.2521   -7.5473  -15.2181 N   0  0  0  0  0  0  0  0  0  0  0  0
   20.6061   -6.7254  -14.0573 C   0  0  1  0  0  0  0  0  0  0  0  0
   21.7102   -7.3517  -13.2781 C   0  0  0  0  0  0  0  0  0  0  0  0
   22.8575   -7.7177  -14.1087 C   0  0  0  0  0  0  0  0  0  0  0  0
   23.7493   -6.7985  -14.6094 C   0  0  0  0  0  0  0  0  0  0  0  0
   24.8377   -7.1274  -15.3704 C   0  0  0  0  0  0  0  0  0  0  0  0
   25.0725   -8.4814  -15.6667 C   0  0  0  0  0  0  0  0  0  0  0  0
   24.2049   -9.4090  -15.1825 C   0  0  0  0  0  0  0  0  0  0  0  0
   23.1124   -9.0325  -14.4145 C   0  0  0  0  0  0  0  0  0  0  0  0
   20.9708   -5.3570  -14.4757 C   0  0  0  0  0  0  0  0  0  0  0  0
   21.1471   -4.9802  -15.6556 O   0  0  0  0  0  0  0  0  0  0  0  0
   21.1295   -4.3899  -13.4612 O   0  0  0  0  0  0  0  0  0  0  0  0
  2  1  1  0
  3  2  2  0
  4  2  1  0
  5  4  1  0
  6  5  1  0
  6  7  1  6
  8  9  2  0
  8  6  1  0
 10  8  1  0
 11 10  1  0
 11 12  1  6
 12 13  1  0
 13 14  2  0
 13 21  1  0
 14 15  1  0
 15 16  1  0
 16 17  2  0
 18 17  1  0
 19 18  2  0
 20 19  1  0
 21 20  2  0
 21 16  1  0
 22 11  1  0
 23 22  2  0
 24 22  1  0
 25 26  1  6
 25 24  1  0
 26 27  1  0
 27 32  1  0
 28 27  2  0
 28 29  1  0
 29 30  2  0
 30 31  1  0
 32 31  2  0
 33 35  1  0
 33 25  1  0
 34 33  2  0
M  END
$$$$
