QWF.pdb
     RDKit          3D

 35 37  0  0  1  0  0  0  0  0999 V2000
   24.2818  -25.6468  -14.7535 N   0  0  0  0  0  0  0  0  0  0  0  0
   25.5303  -24.9461  -14.8015 C   0  0  0  0  0  0  0  0  0  0  0  0
   26.5699  -25.6371  -14.9787 O   0  0  0  0  0  0  0  0  0  0  0  0
   25.5195  -23.4788  -14.6450 C   0  0  0  0  0  0  0  0  0  0  0  0
   24.1973  -22.8726  -14.3933 C   0  0  0  0  0  0  0  0  0  0  0  0
   23.1032  -23.0994  -15.3604 C   0  0  2  0  0  0  0  0  0  0  0  0
   23.3867  -22.6301  -16.7007 N   0  0  0  0  0  0  0  0  0  0  0  0
   21.7361  -22.7476  -14.9096 C   0  0  0  0  0  0  0  0  0  0  0  0
   21.4017  -21.6221  -14.4717 O   0  0  0  0  0  0  0  0  0  0  0  0
   20.7171  -23.7333  -14.9729 N   0  0  0  0  0  0  0  0  0  0  0  0
   19.3666  -23.5060  -14.5226 C   0  0  1  0  0  0  0  0  0  0  0  0
   18.4238  -23.9371  -15.5977 C   0  0  0  0  0  0  0  0  0  0  0  0
   18.3097  -22.9750  -16.7332 C   0  0  0  0  0  0  0  0  0  0  0  0
   19.2385  -22.6109  -17.6568 C   0  0  0  0  0  0  0  0  0  0  0  0
   18.7056  -21.7235  -18.5114 N   0  0  0  0  0  0  0  0  0  0  0  0
   17.4058  -21.4890  -18.1591 C   0  0  0  0  0  0  0  0  0  0  0  0
   16.4460  -20.6627  -18.7042 C   0  0  0  0  0  0  0  0  0  0  0  0
   15.1859  -20.6248  -18.1030 C   0  0  0  0  0  0  0  0  0  0  0  0
   14.9670  -21.4140  -16.9971 C   0  0  0  0  0  0  0  0  0  0  0  0
   15.9385  -22.2491  -16.4472 C   0  0  0  0  0  0  0  0  0  0  0  0
   17.1565  -22.2673  -17.0520 C   0  0  0  0  0  0  0  0  0  0  0  0
   19.0533  -24.1722  -13.2211 C   0  0  0  0  0  0  0  0  0  0  0  0
   19.5715  -25.2945  -13.0017 O   0  0  0  0  0  0  0  0  0  0  0  0
   18.2099  -23.6097  -12.2270 N   0  0  0  0  0  0  0  0  0  0  0  0
   17.8771  -24.2806  -10.9671 C   0  0  1  0  0  0  0  0  0  0  0  0
   18.6077  -23.6628   -9.8256 C   0  0  0  0  0  0  0  0  0  0  0  0
   18.1686  -24.1710   -8.5259 C   0  0  0  0  0  0  0  0  0  0  0  0
   17.1586  -23.5935   -7.7928 C   0  0  0  0  0  0  0  0  0  0  0  0
   16.7236  -24.0690   -6.5860 C   0  0  0  0  0  0  0  0  0  0  0  0
   17.3351  -25.2157   -6.0498 C   0  0  0  0  0  0  0  0  0  0  0  0
   18.3358  -25.8048   -6.7562 C   0  0  0  0  0  0  0  0  0  0  0  0
   18.7472  -25.2896   -7.9771 C   0  0  0  0  0  0  0  0  0  0  0  0
   16.4197  -24.2577  -10.7303 C   0  0  0  0  0  0  0  0  0  0  0  0
   15.7686  -25.1333  -10.1183 O   0  0  0  0  0  0  0  0  0  0  0  0
   15.6992  -23.1532  -11.2313 O   0  0  0  0  0  0  0  0  0  0  0  0
  2  1  1  0
  3  2  2  0
  4  2  1  0
  5  4  1  0
  6  5  1  0
  6  7  1  6
  8  9  2  0
  8  6  1  0
 10  8  1  0
 11 10  1  0
 11 12  1  6
 12 13  1  0
 13 14  2  0
 13 21  1  0
 14 15  1  0
 15 16  1  0
 16 17  2  0
 18 17  1  0
 19 18  2  0
 20 19  1  0
 21 20  2  0
 21 16  1  0
 22 11  1  0
 23 22  2  0
 24 22  1  0
 25 26  1  1
 25 24  1  0
 26 27  1  0
 27 32  1  0
 28 27  2  0
 28 29  1  0
 29 30  2  0
 30 31  1  0
 32 31  2  0
 33 35  1  0
 33 25  1  0
 34 33  2  0
M  END
$$$$
