QWF.pdb
     RDKit          3D

 35 37  0  0  1  0  0  0  0  0999 V2000
   44.6351  -12.9020   -6.5853 N   0  0  0  0  0  0  0  0  0  0  0  0
   45.8324  -12.2154   -6.9686 C   0  0  0  0  0  0  0  0  0  0  0  0
   46.9279  -12.7814   -6.7058 O   0  0  0  0  0  0  0  0  0  0  0  0
   45.7083  -10.9074   -7.6404 C   0  0  0  0  0  0  0  0  0  0  0  0
   44.3349  -10.3808   -7.7654 C   0  0  0  0  0  0  0  0  0  0  0  0
   43.6221  -10.5214   -9.0522 C   0  0  2  0  0  0  0  0  0  0  0  0
   44.4908  -10.6883  -10.1988 N   0  0  0  0  0  0  0  0  0  0  0  0
   42.5182   -9.5661   -9.3066 C   0  0  0  0  0  0  0  0  0  0  0  0
   42.6099   -8.5567  -10.0435 O   0  0  0  0  0  0  0  0  0  0  0  0
   41.2601   -9.7904   -8.6895 N   0  0  0  0  0  0  0  0  0  0  0  0
   40.2485   -8.7713   -8.5609 C   0  0  1  0  0  0  0  0  0  0  0  0
   38.9908   -9.4044   -8.0633 C   0  0  0  0  0  0  0  0  0  0  0  0
   37.9143   -8.4320   -7.7113 C   0  0  0  0  0  0  0  0  0  0  0  0
   37.5459   -7.2832   -8.3378 C   0  0  0  0  0  0  0  0  0  0  0  0
   36.5145   -6.7219   -7.6876 N   0  0  0  0  0  0  0  0  0  0  0  0
   36.1859   -7.5012   -6.6137 C   0  0  0  0  0  0  0  0  0  0  0  0
   35.2200   -7.3560   -5.6406 C   0  0  0  0  0  0  0  0  0  0  0  0
   35.1341   -8.3292   -4.6424 C   0  0  0  0  0  0  0  0  0  0  0  0
   36.0183   -9.3830   -4.6812 C   0  0  0  0  0  0  0  0  0  0  0  0
   36.9943   -9.5285   -5.6661 C   0  0  0  0  0  0  0  0  0  0  0  0
   37.0561   -8.5672   -6.6262 C   0  0  0  0  0  0  0  0  0  0  0  0
   40.6645   -7.6262   -7.6938 C   0  0  0  0  0  0  0  0  0  0  0  0
   41.0829   -7.8913   -6.5400 O   0  0  0  0  0  0  0  0  0  0  0  0
   40.6142   -6.2668   -8.1002 N   0  0  0  0  0  0  0  0  0  0  0  0
   41.1082   -5.1542   -7.2837 C   0  0  1  0  0  0  0  0  0  0  0  0
   42.4917   -4.7737   -7.6832 C   0  0  0  0  0  0  0  0  0  0  0  0
   42.5815   -4.3297   -9.0742 C   0  0  0  0  0  0  0  0  0  0  0  0
   43.0443   -5.1297  -10.0925 C   0  0  0  0  0  0  0  0  0  0  0  0
   43.1150   -4.7353  -11.4006 C   0  0  0  0  0  0  0  0  0  0  0  0
   42.6931   -3.4381  -11.7406 C   0  0  0  0  0  0  0  0  0  0  0  0
   42.2312   -2.6285  -10.7512 C   0  0  0  0  0  0  0  0  0  0  0  0
   42.1764   -3.0679   -9.4363 C   0  0  0  0  0  0  0  0  0  0  0  0
   40.1990   -3.9941   -7.3740 C   0  0  0  0  0  0  0  0  0  0  0  0
   40.3207   -2.9237   -6.7379 O   0  0  0  0  0  0  0  0  0  0  0  0
   39.1024   -4.0973   -8.2554 O   0  0  0  0  0  0  0  0  0  0  0  0
  2  1  1  0
  3  2  2  0
  4  2  1  0
  5  4  1  0
  6  5  1  0
  6  7  1  6
  8  9  2  0
  8  6  1  0
 10  8  1  0
 11 10  1  0
 11 12  1  1
 12 13  1  0
 13 14  2  0
 13 21  1  0
 14 15  1  0
 15 16  1  0
 16 17  2  0
 18 17  1  0
 19 18  2  0
 20 19  1  0
 21 20  2  0
 21 16  1  0
 22 11  1  0
 23 22  2  0
 24 22  1  0
 25 26  1  6
 25 24  1  0
 26 27  1  0
 27 32  1  0
 28 27  2  0
 28 29  1  0
 29 30  2  0
 30 31  1  0
 32 31  2  0
 33 35  1  0
 33 25  1  0
 34 33  2  0
M  END
$$$$
