QWF.pdb
     RDKit          3D

 35 37  0  0  1  0  0  0  0  0999 V2000
   30.3375  -24.4016  -15.7029 N   0  0  0  0  0  0  0  0  0  0  0  0
   30.3885  -23.2030  -16.4856 C   0  0  0  0  0  0  0  0  0  0  0  0
   31.2627  -23.1463  -17.3924 O   0  0  0  0  0  0  0  0  0  0  0  0
   29.4250  -22.1261  -16.1860 C   0  0  0  0  0  0  0  0  0  0  0  0
   28.4869  -22.3977  -15.0791 C   0  0  0  0  0  0  0  0  0  0  0  0
   27.5170  -21.3556  -14.6826 C   0  0  2  0  0  0  0  0  0  0  0  0
   28.0666  -20.0166  -14.6389 N   0  0  0  0  0  0  0  0  0  0  0  0
   26.6586  -21.6590  -13.5133 C   0  0  0  0  0  0  0  0  0  0  0  0
   26.1331  -22.7746  -13.2901 O   0  0  0  0  0  0  0  0  0  0  0  0
   26.4034  -20.6350  -12.5646 N   0  0  0  0  0  0  0  0  0  0  0  0
   25.4938  -20.7907  -11.4570 C   0  0  1  0  0  0  0  0  0  0  0  0
   25.9855  -19.9659  -10.3132 C   0  0  0  0  0  0  0  0  0  0  0  0
   27.2485  -20.4674   -9.6957 C   0  0  0  0  0  0  0  0  0  0  0  0
   28.2301  -21.2378  -10.2352 C   0  0  0  0  0  0  0  0  0  0  0  0
   29.1977  -21.4420   -9.3275 N   0  0  0  0  0  0  0  0  0  0  0  0
   28.8634  -20.8024   -8.1666 C   0  0  0  0  0  0  0  0  0  0  0  0
   29.5092  -20.7174   -6.9514 C   0  0  0  0  0  0  0  0  0  0  0  0
   28.9005  -19.9881   -5.9276 C   0  0  0  0  0  0  0  0  0  0  0  0
   27.6870  -19.3919   -6.1841 C   0  0  0  0  0  0  0  0  0  0  0  0
   27.0353  -19.4786   -7.4136 C   0  0  0  0  0  0  0  0  0  0  0  0
   27.6499  -20.1944   -8.3932 C   0  0  0  0  0  0  0  0  0  0  0  0
   24.0764  -20.4601  -11.8001 C   0  0  0  0  0  0  0  0  0  0  0  0
   23.7617  -19.2466  -11.8688 O   0  0  0  0  0  0  0  0  0  0  0  0
   23.0751  -21.4346  -12.0519 N   0  0  0  0  0  0  0  0  0  0  0  0
   21.6760  -21.1082  -12.3420 C   0  0  1  0  0  0  0  0  0  0  0  0
   21.2996  -21.5494  -13.7140 C   0  0  0  0  0  0  0  0  0  0  0  0
   21.9905  -20.7998  -14.7632 C   0  0  0  0  0  0  0  0  0  0  0  0
   23.1508  -21.2337  -15.3603 C   0  0  0  0  0  0  0  0  0  0  0  0
   23.7969  -20.5539  -16.3563 C   0  0  0  0  0  0  0  0  0  0  0  0
   23.2552  -19.3376  -16.8076 C   0  0  0  0  0  0  0  0  0  0  0  0
   22.1085  -18.8879  -16.2330 C   0  0  0  0  0  0  0  0  0  0  0  0
   21.4848  -19.6086  -15.2246 C   0  0  0  0  0  0  0  0  0  0  0  0
   20.7783  -21.7074  -11.3342 C   0  0  0  0  0  0  0  0  0  0  0  0
   21.1329  -22.4625  -10.4019 O   0  0  0  0  0  0  0  0  0  0  0  0
   19.4046  -21.3996  -11.4254 O   0  0  0  0  0  0  0  0  0  0  0  0
  2  1  1  0
  3  2  2  0
  4  2  1  0
  5  4  1  0
  6  5  1  0
  6  7  1  1
  8  9  2  0
  8  6  1  0
 10  8  1  0
 11 10  1  0
 11 12  1  1
 12 13  1  0
 13 14  2  0
 13 21  1  0
 14 15  1  0
 15 16  1  0
 16 17  2  0
 18 17  1  0
 19 18  2  0
 20 19  1  0
 21 20  2  0
 21 16  1  0
 22 11  1  0
 23 22  2  0
 24 22  1  0
 25 26  1  6
 25 24  1  0
 26 27  1  0
 27 32  1  0
 28 27  2  0
 28 29  1  0
 29 30  2  0
 30 31  1  0
 32 31  2  0
 33 35  1  0
 33 25  1  0
 34 33  2  0
M  END
$$$$
