QWF.pdb
     RDKit          3D

 35 37  0  0  1  0  0  0  0  0999 V2000
   23.3318  -14.6779  -19.3575 N   0  0  0  0  0  0  0  0  0  0  0  0
   22.0437  -15.1933  -19.0007 C   0  0  0  0  0  0  0  0  0  0  0  0
   21.8228  -16.4092  -19.2501 O   0  0  0  0  0  0  0  0  0  0  0  0
   21.0714  -14.2802  -18.3695 C   0  0  0  0  0  0  0  0  0  0  0  0
   21.4678  -12.8591  -18.3204 C   0  0  0  0  0  0  0  0  0  0  0  0
   20.6209  -11.8984  -17.5831 C   0  0  2  0  0  0  0  0  0  0  0  0
   19.2028  -12.1853  -17.6449 N   0  0  0  0  0  0  0  0  0  0  0  0
   20.9217  -10.4609  -17.7814 C   0  0  0  0  0  0  0  0  0  0  0  0
   22.0773   -9.9786  -17.8294 O   0  0  0  0  0  0  0  0  0  0  0  0
   19.8455   -9.5489  -17.9351 N   0  0  0  0  0  0  0  0  0  0  0  0
   20.0301   -8.1443  -18.2026 C   0  0  1  0  0  0  0  0  0  0  0  0
   19.0189   -7.7118  -19.2130 C   0  0  0  0  0  0  0  0  0  0  0  0
   19.3767   -8.0531  -20.6213 C   0  0  0  0  0  0  0  0  0  0  0  0
   19.8310   -9.2247  -21.1401 C   0  0  0  0  0  0  0  0  0  0  0  0
   20.0128   -9.0952  -22.4637 N   0  0  0  0  0  0  0  0  0  0  0  0
   19.6770   -7.8242  -22.8385 C   0  0  0  0  0  0  0  0  0  0  0  0
   19.6989   -7.1977  -24.0665 C   0  0  0  0  0  0  0  0  0  0  0  0
   19.3035   -5.8598  -24.1345 C   0  0  0  0  0  0  0  0  0  0  0  0
   18.9125   -5.2355  -22.9721 C   0  0  0  0  0  0  0  0  0  0  0  0
   18.8907   -5.8706  -21.7311 C   0  0  0  0  0  0  0  0  0  0  0  0
   19.2802   -7.1730  -21.6930 C   0  0  0  0  0  0  0  0  0  0  0  0
   19.9751   -7.2926  -16.9748 C   0  0  0  0  0  0  0  0  0  0  0  0
   18.9672   -7.4026  -16.2342 O   0  0  0  0  0  0  0  0  0  0  0  0
   20.9922   -6.3746  -16.6023 N   0  0  0  0  0  0  0  0  0  0  0  0
   20.9073   -5.4965  -15.4318 C   0  0  1  0  0  0  0  0  0  0  0  0
   21.9368   -5.8590  -14.4183 C   0  0  0  0  0  0  0  0  0  0  0  0
   21.7310   -7.1904  -13.8481 C   0  0  0  0  0  0  0  0  0  0  0  0
   20.8624   -7.4407  -12.8117 C   0  0  0  0  0  0  0  0  0  0  0  0
   20.6446   -8.6830  -12.2817 C   0  0  0  0  0  0  0  0  0  0  0  0
   21.3422   -9.7796  -12.8175 C   0  0  0  0  0  0  0  0  0  0  0  0
   22.2064   -9.5576  -13.8429 C   0  0  0  0  0  0  0  0  0  0  0  0
   22.3984   -8.2808  -14.3510 C   0  0  0  0  0  0  0  0  0  0  0  0
   21.0388   -4.0802  -15.8288 C   0  0  0  0  0  0  0  0  0  0  0  0
   20.9229   -3.0969  -15.0639 O   0  0  0  0  0  0  0  0  0  0  0  0
   21.3245   -3.8109  -17.1837 O   0  0  0  0  0  0  0  0  0  0  0  0
  2  1  1  0
  3  2  2  0
  4  2  1  0
  5  4  1  0
  6  5  1  0
  6  7  1  6
  8  9  2  0
  8  6  1  0
 10  8  1  0
 11 10  1  0
 11 12  1  6
 12 13  1  0
 13 14  2  0
 13 21  1  0
 14 15  1  0
 15 16  1  0
 16 17  2  0
 18 17  1  0
 19 18  2  0
 20 19  1  0
 21 20  2  0
 21 16  1  0
 22 11  1  0
 23 22  2  0
 24 22  1  0
 25 26  1  1
 25 24  1  0
 26 27  1  0
 27 32  1  0
 28 27  2  0
 28 29  1  0
 29 30  2  0
 30 31  1  0
 32 31  2  0
 33 35  1  0
 33 25  1  0
 34 33  2  0
M  END
$$$$
