QWF.pdb
     RDKit          3D

 35 37  0  0  1  0  0  0  0  0999 V2000
   29.4748  -17.3288  -16.3746 N   0  0  0  0  0  0  0  0  0  0  0  0
   28.5556  -17.9029  -17.3114 C   0  0  0  0  0  0  0  0  0  0  0  0
   28.6685  -17.5498  -18.5164 O   0  0  0  0  0  0  0  0  0  0  0  0
   27.5499  -18.8607  -16.8125 C   0  0  0  0  0  0  0  0  0  0  0  0
   27.5970  -19.1403  -15.3638 C   0  0  0  0  0  0  0  0  0  0  0  0
   27.9474  -20.4996  -14.9019 C   0  0  2  0  0  0  0  0  0  0  0  0
   28.3351  -21.4070  -15.9617 N   0  0  0  0  0  0  0  0  0  0  0  0
   27.0273  -21.1250  -13.9230 C   0  0  0  0  0  0  0  0  0  0  0  0
   26.4011  -22.1924  -14.1203 O   0  0  0  0  0  0  0  0  0  0  0  0
   26.8286  -20.4945  -12.6672 N   0  0  0  0  0  0  0  0  0  0  0  0
   25.8818  -20.9639  -11.6867 C   0  0  1  0  0  0  0  0  0  0  0  0
   26.1844  -20.3120  -10.3775 C   0  0  0  0  0  0  0  0  0  0  0  0
   27.5320  -20.6421   -9.8269 C   0  0  0  0  0  0  0  0  0  0  0  0
   28.5511  -21.3420  -10.3922 C   0  0  0  0  0  0  0  0  0  0  0  0
   29.5936  -21.3882   -9.5479 N   0  0  0  0  0  0  0  0  0  0  0  0
   29.2723  -20.7122   -8.4040 C   0  0  0  0  0  0  0  0  0  0  0  0
   29.9857  -20.4841   -7.2464 C   0  0  0  0  0  0  0  0  0  0  0  0
   29.3734  -19.7559   -6.2239 C   0  0  0  0  0  0  0  0  0  0  0  0
   28.0892  -19.3036   -6.4242 C   0  0  0  0  0  0  0  0  0  0  0  0
   27.3693  -19.5350   -7.5954 C   0  0  0  0  0  0  0  0  0  0  0  0
   27.9889  -20.2463   -8.5751 C   0  0  0  0  0  0  0  0  0  0  0  0
   24.4566  -20.7518  -12.0865 C   0  0  0  0  0  0  0  0  0  0  0  0
   24.0726  -19.5705  -12.2695 O   0  0  0  0  0  0  0  0  0  0  0  0
   23.5213  -21.8041  -12.2707 N   0  0  0  0  0  0  0  0  0  0  0  0
   22.1648  -21.6061  -12.7892 C   0  0  1  0  0  0  0  0  0  0  0  0
   21.6365  -22.8616  -13.3918 C   0  0  0  0  0  0  0  0  0  0  0  0
   20.2953  -22.7033  -13.9543 C   0  0  0  0  0  0  0  0  0  0  0  0
   19.1495  -23.0615  -13.2836 C   0  0  0  0  0  0  0  0  0  0  0  0
   17.8880  -22.9009  -13.7884 C   0  0  0  0  0  0  0  0  0  0  0  0
   17.7372  -22.3373  -15.0674 C   0  0  0  0  0  0  0  0  0  0  0  0
   18.8552  -21.9747  -15.7500 C   0  0  0  0  0  0  0  0  0  0  0  0
   20.1168  -22.1554  -15.2014 C   0  0  0  0  0  0  0  0  0  0  0  0
   21.2642  -21.1154  -11.7268 C   0  0  0  0  0  0  0  0  0  0  0  0
   21.2587  -21.5086  -10.5392 O   0  0  0  0  0  0  0  0  0  0  0  0
   20.3337  -20.1146  -12.0772 O   0  0  0  0  0  0  0  0  0  0  0  0
  2  1  1  0
  3  2  2  0
  4  2  1  0
  5  4  1  0
  6  5  1  0
  6  7  1  6
  8  9  2  0
  8  6  1  0
 10  8  1  0
 11 10  1  0
 11 12  1  1
 12 13  1  0
 13 14  2  0
 13 21  1  0
 14 15  1  0
 15 16  1  0
 16 17  2  0
 18 17  1  0
 19 18  2  0
 20 19  1  0
 21 20  2  0
 21 16  1  0
 22 11  1  0
 23 22  2  0
 24 22  1  0
 25 26  1  1
 25 24  1  0
 26 27  1  0
 27 32  1  0
 28 27  2  0
 28 29  1  0
 29 30  2  0
 30 31  1  0
 32 31  2  0
 33 35  1  0
 33 25  1  0
 34 33  2  0
M  END
$$$$
