QWF.pdb
     RDKit          3D

 35 37  0  0  1  0  0  0  0  0999 V2000
   28.1135  -22.5485  -18.6001 N   0  0  0  0  0  0  0  0  0  0  0  0
   28.2185  -21.2328  -18.0434 C   0  0  0  0  0  0  0  0  0  0  0  0
   27.9121  -20.2663  -18.7929 O   0  0  0  0  0  0  0  0  0  0  0  0
   28.6701  -21.0949  -16.6454 C   0  0  0  0  0  0  0  0  0  0  0  0
   27.6601  -21.4035  -15.6140 C   0  0  0  0  0  0  0  0  0  0  0  0
   27.9603  -21.1067  -14.1978 C   0  0  2  0  0  0  0  0  0  0  0  0
   29.2697  -21.5457  -13.7623 N   0  0  0  0  0  0  0  0  0  0  0  0
   26.8967  -21.4203  -13.2147 C   0  0  0  0  0  0  0  0  0  0  0  0
   26.0902  -22.3734  -13.3227 O   0  0  0  0  0  0  0  0  0  0  0  0
   26.7651  -20.6039  -12.0614 N   0  0  0  0  0  0  0  0  0  0  0  0
   25.7074  -20.7636  -11.0950 C   0  0  1  0  0  0  0  0  0  0  0  0
   26.1125  -20.0897   -9.8252 C   0  0  0  0  0  0  0  0  0  0  0  0
   27.4211  -20.5535   -9.2771 C   0  0  0  0  0  0  0  0  0  0  0  0
   28.3455  -21.3842   -9.8280 C   0  0  0  0  0  0  0  0  0  0  0  0
   29.3877  -21.5213   -8.9933 N   0  0  0  0  0  0  0  0  0  0  0  0
   29.1619  -20.7752   -7.8704 C   0  0  0  0  0  0  0  0  0  0  0  0
   29.9128  -20.5918   -6.7287 C   0  0  0  0  0  0  0  0  0  0  0  0
   29.4022  -19.7644   -5.7260 C   0  0  0  0  0  0  0  0  0  0  0  0
   28.1753  -19.1748   -5.9289 C   0  0  0  0  0  0  0  0  0  0  0  0
   27.4173  -19.3612   -7.0840 C   0  0  0  0  0  0  0  0  0  0  0  0
   27.9378  -20.1712   -8.0446 C   0  0  0  0  0  0  0  0  0  0  0  0
   24.3812  -20.2692  -11.5773 C   0  0  0  0  0  0  0  0  0  0  0  0
   24.3628  -19.2023  -12.2390 O   0  0  0  0  0  0  0  0  0  0  0  0
   23.1514  -20.9349  -11.3317 N   0  0  0  0  0  0  0  0  0  0  0  0
   21.9750  -20.8176  -12.1980 C   0  0  1  0  0  0  0  0  0  0  0  0
   22.3083  -21.1879  -13.6017 C   0  0  0  0  0  0  0  0  0  0  0  0
   21.1680  -21.0640  -14.5098 C   0  0  0  0  0  0  0  0  0  0  0  0
   20.3843  -22.1297  -14.8855 C   0  0  0  0  0  0  0  0  0  0  0  0
   19.3032  -22.0260  -15.7175 C   0  0  0  0  0  0  0  0  0  0  0  0
   18.9596  -20.7616  -16.2269 C   0  0  0  0  0  0  0  0  0  0  0  0
   19.7191  -19.6925  -15.8695 C   0  0  0  0  0  0  0  0  0  0  0  0
   20.8084  -19.8415  -15.0230 C   0  0  0  0  0  0  0  0  0  0  0  0
   20.8638  -21.6454  -11.6875 C   0  0  0  0  0  0  0  0  0  0  0  0
   19.6760  -21.2722  -11.5645 O   0  0  0  0  0  0  0  0  0  0  0  0
   21.1635  -22.9714  -11.3110 O   0  0  0  0  0  0  0  0  0  0  0  0
  2  1  1  0
  3  2  2  0
  4  2  1  0
  5  4  1  0
  6  5  1  0
  6  7  1  1
  8  9  2  0
  8  6  1  0
 10  8  1  0
 11 10  1  0
 11 12  1  1
 12 13  1  0
 13 14  2  0
 13 21  1  0
 14 15  1  0
 15 16  1  0
 16 17  2  0
 18 17  1  0
 19 18  2  0
 20 19  1  0
 21 20  2  0
 21 16  1  0
 22 11  1  0
 23 22  2  0
 24 22  1  0
 25 26  1  6
 25 24  1  0
 26 27  1  0
 27 32  1  0
 28 27  2  0
 28 29  1  0
 29 30  2  0
 30 31  1  0
 32 31  2  0
 33 35  1  0
 33 25  1  0
 34 33  2  0
M  END
$$$$
