QWF.pdb
     RDKit          3D

 35 37  0  0  1  0  0  0  0  0999 V2000
   27.0655  -21.0029  -17.5156 N   0  0  0  0  0  0  0  0  0  0  0  0
   28.0605  -20.1159  -16.9909 C   0  0  0  0  0  0  0  0  0  0  0  0
   28.0479  -18.9268  -17.4100 O   0  0  0  0  0  0  0  0  0  0  0  0
   29.0224  -20.6434  -16.0040 C   0  0  0  0  0  0  0  0  0  0  0  0
   28.4301  -21.3020  -14.8231 C   0  0  0  0  0  0  0  0  0  0  0  0
   27.6825  -20.4885  -13.8418 C   0  0  2  0  0  0  0  0  0  0  0  0
   28.3791  -19.2976  -13.4020 N   0  0  0  0  0  0  0  0  0  0  0  0
   27.0419  -21.2208  -12.7241 C   0  0  0  0  0  0  0  0  0  0  0  0
   26.6322  -22.4031  -12.7937 O   0  0  0  0  0  0  0  0  0  0  0  0
   26.8741  -20.5623  -11.4782 N   0  0  0  0  0  0  0  0  0  0  0  0
   25.8095  -20.8713  -10.5565 C   0  0  1  0  0  0  0  0  0  0  0  0
   26.1837  -20.3614   -9.2036 C   0  0  0  0  0  0  0  0  0  0  0  0
   27.5781  -20.6949   -8.7883 C   0  0  0  0  0  0  0  0  0  0  0  0
   28.5206  -21.4334   -9.4322 C   0  0  0  0  0  0  0  0  0  0  0  0
   29.6473  -21.4669   -8.7034 N   0  0  0  0  0  0  0  0  0  0  0  0
   29.4606  -20.7436   -7.5586 C   0  0  0  0  0  0  0  0  0  0  0  0
   30.2978  -20.4857   -6.4938 C   0  0  0  0  0  0  0  0  0  0  0  0
   29.8094  -19.7094   -5.4404 C   0  0  0  0  0  0  0  0  0  0  0  0
   28.5174  -19.2420   -5.5192 C   0  0  0  0  0  0  0  0  0  0  0  0
   27.6723  -19.5036   -6.5967 C   0  0  0  0  0  0  0  0  0  0  0  0
   28.1727  -20.2615   -7.6089 C   0  0  0  0  0  0  0  0  0  0  0  0
   24.4774  -20.3477  -10.9890 C   0  0  0  0  0  0  0  0  0  0  0  0
   24.4399  -19.2011  -11.4993 O   0  0  0  0  0  0  0  0  0  0  0  0
   23.2622  -21.0700  -10.8568 N   0  0  0  0  0  0  0  0  0  0  0  0
   22.1538  -20.9804  -11.8117 C   0  0  1  0  0  0  0  0  0  0  0  0
   22.6276  -21.2263  -13.2022 C   0  0  0  0  0  0  0  0  0  0  0  0
   22.7064  -20.0039  -14.0020 C   0  0  0  0  0  0  0  0  0  0  0  0
   21.6966  -19.0720  -14.0560 C   0  0  0  0  0  0  0  0  0  0  0  0
   21.7640  -17.9150  -14.7831 C   0  0  0  0  0  0  0  0  0  0  0  0
   22.9282  -17.6480  -15.5244 C   0  0  0  0  0  0  0  0  0  0  0  0
   23.9407  -18.5542  -15.4867 C   0  0  0  0  0  0  0  0  0  0  0  0
   23.8313  -19.7161  -14.7362 C   0  0  0  0  0  0  0  0  0  0  0  0
   21.0747  -21.9218  -11.4517 C   0  0  0  0  0  0  0  0  0  0  0  0
   21.1956  -23.1631  -11.3526 O   0  0  0  0  0  0  0  0  0  0  0  0
   19.7996  -21.3771  -11.1919 O   0  0  0  0  0  0  0  0  0  0  0  0
  2  1  1  0
  3  2  2  0
  4  2  1  0
  5  4  1  0
  6  5  1  0
  6  7  1  1
  8  9  2  0
  8  6  1  0
 10  8  1  0
 11 10  1  0
 11 12  1  1
 12 13  1  0
 13 14  2  0
 13 21  1  0
 14 15  1  0
 15 16  1  0
 16 17  2  0
 18 17  1  0
 19 18  2  0
 20 19  1  0
 21 20  2  0
 21 16  1  0
 22 11  1  0
 23 22  2  0
 24 22  1  0
 25 26  1  6
 25 24  1  0
 26 27  1  0
 27 32  1  0
 28 27  2  0
 28 29  1  0
 29 30  2  0
 30 31  1  0
 32 31  2  0
 33 35  1  0
 33 25  1  0
 34 33  2  0
M  END
$$$$
