QWF.pdb
     RDKit          3D

 35 37  0  0  1  0  0  0  0  0999 V2000
   23.8668  -25.9194  -15.7730 N   0  0  0  0  0  0  0  0  0  0  0  0
   24.2429  -26.2787  -17.1077 C   0  0  0  0  0  0  0  0  0  0  0  0
   23.3615  -26.8245  -17.8252 O   0  0  0  0  0  0  0  0  0  0  0  0
   25.6196  -25.9881  -17.5526 C   0  0  0  0  0  0  0  0  0  0  0  0
   26.4461  -25.2116  -16.6075 C   0  0  0  0  0  0  0  0  0  0  0  0
   26.6245  -23.7612  -16.8275 C   0  0  2  0  0  0  0  0  0  0  0  0
   27.4295  -23.4293  -17.9846 N   0  0  0  0  0  0  0  0  0  0  0  0
   26.9713  -22.9479  -15.6383 C   0  0  0  0  0  0  0  0  0  0  0  0
   28.0375  -23.0598  -14.9893 O   0  0  0  0  0  0  0  0  0  0  0  0
   26.0526  -21.9651  -15.1868 N   0  0  0  0  0  0  0  0  0  0  0  0
   26.1684  -21.2985  -13.9138 C   0  0  1  0  0  0  0  0  0  0  0  0
   26.4957  -19.8612  -14.1533 C   0  0  0  0  0  0  0  0  0  0  0  0
   27.9581  -19.5701  -14.2225 C   0  0  0  0  0  0  0  0  0  0  0  0
   28.6578  -18.8632  -15.1492 C   0  0  0  0  0  0  0  0  0  0  0  0
   29.9576  -18.8382  -14.8151 N   0  0  0  0  0  0  0  0  0  0  0  0
   30.1334  -19.5348  -13.6522 C   0  0  0  0  0  0  0  0  0  0  0  0
   31.2645  -19.8079  -12.9125 C   0  0  0  0  0  0  0  0  0  0  0  0
   31.1282  -20.5735  -11.7523 C   0  0  0  0  0  0  0  0  0  0  0  0
   29.8718  -21.0163  -11.4070 C   0  0  0  0  0  0  0  0  0  0  0  0
   28.7290  -20.7392  -12.1560 C   0  0  0  0  0  0  0  0  0  0  0  0
   28.8896  -19.9916  -13.2807 C   0  0  0  0  0  0  0  0  0  0  0  0
   24.9555  -21.4468  -13.0520 C   0  0  0  0  0  0  0  0  0  0  0  0
   23.8463  -21.5790  -13.6252 O   0  0  0  0  0  0  0  0  0  0  0  0
   24.9885  -21.4478  -11.6325 N   0  0  0  0  0  0  0  0  0  0  0  0
   23.7948  -21.5680  -10.7905 C   0  0  1  0  0  0  0  0  0  0  0  0
   24.1647  -21.9017   -9.3868 C   0  0  0  0  0  0  0  0  0  0  0  0
   25.0897  -20.9347   -8.7960 C   0  0  0  0  0  0  0  0  0  0  0  0
   24.6755  -19.8227   -8.1009 C   0  0  0  0  0  0  0  0  0  0  0  0
   25.5284  -18.9208   -7.5258 C   0  0  0  0  0  0  0  0  0  0  0  0
   26.9138  -19.1289   -7.6431 C   0  0  0  0  0  0  0  0  0  0  0  0
   27.3479  -20.2214   -8.3253 C   0  0  0  0  0  0  0  0  0  0  0  0
   26.4485  -21.1118   -8.8942 C   0  0  0  0  0  0  0  0  0  0  0  0
   22.9916  -20.3299  -10.8405 C   0  0  0  0  0  0  0  0  0  0  0  0
   23.3925  -19.2192  -11.2540 O   0  0  0  0  0  0  0  0  0  0  0  0
   21.6572  -20.4045  -10.3890 O   0  0  0  0  0  0  0  0  0  0  0  0
  2  1  1  0
  3  2  2  0
  4  2  1  0
  5  4  1  0
  6  5  1  0
  6  7  1  6
  8  9  2  0
  8  6  1  0
 10  8  1  0
 11 10  1  0
 11 12  1  6
 12 13  1  0
 13 14  2  0
 13 21  1  0
 14 15  1  0
 15 16  1  0
 16 17  2  0
 18 17  1  0
 19 18  2  0
 20 19  1  0
 21 20  2  0
 21 16  1  0
 22 11  1  0
 23 22  2  0
 24 22  1  0
 25 26  1  1
 25 24  1  0
 26 27  1  0
 27 32  1  0
 28 27  2  0
 28 29  1  0
 29 30  2  0
 30 31  1  0
 32 31  2  0
 33 35  1  0
 33 25  1  0
 34 33  2  0
M  END
$$$$
