QWF.pdb
     RDKit          3D

 35 37  0  0  1  0  0  0  0  0999 V2000
   28.8106  -24.2816  -18.3584 N   0  0  0  0  0  0  0  0  0  0  0  0
   28.4700  -22.9338  -18.0124 C   0  0  0  0  0  0  0  0  0  0  0  0
   27.6889  -22.3215  -18.7900 O   0  0  0  0  0  0  0  0  0  0  0  0
   29.0456  -22.3569  -16.7822 C   0  0  0  0  0  0  0  0  0  0  0  0
   28.2421  -22.5340  -15.5565 C   0  0  0  0  0  0  0  0  0  0  0  0
   27.8768  -21.3474  -14.7551 C   0  0  2  0  0  0  0  0  0  0  0  0
   28.9503  -20.3905  -14.5848 N   0  0  0  0  0  0  0  0  0  0  0  0
   27.1319  -21.5993  -13.4990 C   0  0  0  0  0  0  0  0  0  0  0  0
   26.1649  -22.3894  -13.3947 O   0  0  0  0  0  0  0  0  0  0  0  0
   27.5240  -20.9154  -12.3191 N   0  0  0  0  0  0  0  0  0  0  0  0
   26.8098  -21.0167  -11.0709 C   0  0  1  0  0  0  0  0  0  0  0  0
   27.6570  -20.4383   -9.9854 C   0  0  0  0  0  0  0  0  0  0  0  0
   27.0206  -20.4602   -8.6354 C   0  0  0  0  0  0  0  0  0  0  0  0
   25.7616  -20.8271   -8.2770 C   0  0  0  0  0  0  0  0  0  0  0  0
   25.6139  -20.7057   -6.9485 N   0  0  0  0  0  0  0  0  0  0  0  0
   26.7853  -20.2531   -6.4083 C   0  0  0  0  0  0  0  0  0  0  0  0
   27.1387  -19.9591   -5.1084 C   0  0  0  0  0  0  0  0  0  0  0  0
   28.4318  -19.4915   -4.8634 C   0  0  0  0  0  0  0  0  0  0  0  0
   29.2868  -19.3479   -5.9322 C   0  0  0  0  0  0  0  0  0  0  0  0
   28.9278  -19.6458   -7.2460 C   0  0  0  0  0  0  0  0  0  0  0  0
   27.6632  -20.0996   -7.4567 C   0  0  0  0  0  0  0  0  0  0  0  0
   25.4570  -20.3808  -11.1061 C   0  0  0  0  0  0  0  0  0  0  0  0
   25.4000  -19.1285  -11.0351 O   0  0  0  0  0  0  0  0  0  0  0  0
   24.2429  -21.1087  -11.2160 N   0  0  0  0  0  0  0  0  0  0  0  0
   22.9203  -20.4806  -11.2835 C   0  0  1  0  0  0  0  0  0  0  0  0
   22.3390  -20.6087  -12.6488 C   0  0  0  0  0  0  0  0  0  0  0  0
   23.0734  -19.8418  -13.6552 C   0  0  0  0  0  0  0  0  0  0  0  0
   23.9824  -20.4071  -14.5184 C   0  0  0  0  0  0  0  0  0  0  0  0
   24.6615  -19.7067  -15.4775 C   0  0  0  0  0  0  0  0  0  0  0  0
   24.4272  -18.3261  -15.6011 C   0  0  0  0  0  0  0  0  0  0  0  0
   23.5326  -17.7443  -14.7592 C   0  0  0  0  0  0  0  0  0  0  0  0
   22.8651  -18.4916  -13.7993 C   0  0  0  0  0  0  0  0  0  0  0  0
   22.0135  -21.0586  -10.2715 C   0  0  0  0  0  0  0  0  0  0  0  0
   22.2752  -22.0341   -9.5332 O   0  0  0  0  0  0  0  0  0  0  0  0
   20.7461  -20.4584  -10.1190 O   0  0  0  0  0  0  0  0  0  0  0  0
  2  1  1  0
  3  2  2  0
  4  2  1  0
  5  4  1  0
  6  5  1  0
  6  7  1  1
  8  9  2  0
  8  6  1  0
 10  8  1  0
 11 10  1  0
 11 12  1  1
 12 13  1  0
 13 14  2  0
 13 21  1  0
 14 15  1  0
 15 16  1  0
 16 17  2  0
 18 17  1  0
 19 18  2  0
 20 19  1  0
 21 20  2  0
 21 16  1  0
 22 11  1  0
 23 22  2  0
 24 22  1  0
 25 26  1  6
 25 24  1  0
 26 27  1  0
 27 32  1  0
 28 27  2  0
 28 29  1  0
 29 30  2  0
 30 31  1  0
 32 31  2  0
 33 35  1  0
 33 25  1  0
 34 33  2  0
M  END
$$$$
