QWF.pdb
     RDKit          3D

 35 37  0  0  1  0  0  0  0  0999 V2000
   23.9018  -20.5170  -21.1097 N   0  0  0  0  0  0  0  0  0  0  0  0
   24.5064  -19.2358  -21.3217 C   0  0  0  0  0  0  0  0  0  0  0  0
   25.4231  -19.1694  -22.1848 O   0  0  0  0  0  0  0  0  0  0  0  0
   24.0217  -18.0898  -20.5285 C   0  0  0  0  0  0  0  0  0  0  0  0
   22.9777  -18.3985  -19.5314 C   0  0  0  0  0  0  0  0  0  0  0  0
   23.2392  -18.1227  -18.1033 C   0  0  2  0  0  0  0  0  0  0  0  0
   23.9195  -16.8689  -17.8540 N   0  0  0  0  0  0  0  0  0  0  0  0
   23.7906  -19.2407  -17.3022 C   0  0  0  0  0  0  0  0  0  0  0  0
   23.3026  -20.3943  -17.2649 O   0  0  0  0  0  0  0  0  0  0  0  0
   24.9530  -19.0168  -16.5195 N   0  0  0  0  0  0  0  0  0  0  0  0
   25.3960  -19.9172  -15.4844 C   0  0  1  0  0  0  0  0  0  0  0  0
   26.8747  -20.0909  -15.6007 C   0  0  0  0  0  0  0  0  0  0  0  0
   27.4738  -20.9581  -14.5437 C   0  0  0  0  0  0  0  0  0  0  0  0
   27.2164  -22.2583  -14.2413 C   0  0  0  0  0  0  0  0  0  0  0  0
   27.9962  -22.6504  -13.2216 N   0  0  0  0  0  0  0  0  0  0  0  0
   28.7858  -21.6037  -12.8349 C   0  0  0  0  0  0  0  0  0  0  0  0
   29.7340  -21.4930  -11.8400 C   0  0  0  0  0  0  0  0  0  0  0  0
   30.3783  -20.2652  -11.6730 C   0  0  0  0  0  0  0  0  0  0  0  0
   30.0335  -19.2285  -12.5099 C   0  0  0  0  0  0  0  0  0  0  0  0
   29.0745  -19.3421  -13.5155 C   0  0  0  0  0  0  0  0  0  0  0  0
   28.4626  -20.5484  -13.6569 C   0  0  0  0  0  0  0  0  0  0  0  0
   25.0031  -19.4819  -14.1089 C   0  0  0  0  0  0  0  0  0  0  0  0
   25.5049  -18.4184  -13.6689 O   0  0  0  0  0  0  0  0  0  0  0  0
   24.0999  -20.1981  -13.2799 N   0  0  0  0  0  0  0  0  0  0  0  0
   24.4310  -20.6694  -11.9321 C   0  0  1  0  0  0  0  0  0  0  0  0
   24.8845  -19.5425  -11.0702 C   0  0  0  0  0  0  0  0  0  0  0  0
   25.0715  -19.9333   -9.6729 C   0  0  0  0  0  0  0  0  0  0  0  0
   24.0273  -20.1775   -8.8122 C   0  0  0  0  0  0  0  0  0  0  0  0
   24.1865  -20.5630   -7.5092 C   0  0  0  0  0  0  0  0  0  0  0  0
   25.4889  -20.7238   -7.0050 C   0  0  0  0  0  0  0  0  0  0  0  0
   26.5378  -20.4885   -7.8369 C   0  0  0  0  0  0  0  0  0  0  0  0
   26.3322  -20.0984   -9.1525 C   0  0  0  0  0  0  0  0  0  0  0  0
   23.2797  -21.3648  -11.3227 C   0  0  0  0  0  0  0  0  0  0  0  0
   23.2989  -21.9923  -10.2405 O   0  0  0  0  0  0  0  0  0  0  0  0
   22.0516  -21.3142  -12.0150 O   0  0  0  0  0  0  0  0  0  0  0  0
  2  1  1  0
  3  2  2  0
  4  2  1  0
  5  4  1  0
  6  5  1  0
  6  7  1  6
  8  9  2  0
  8  6  1  0
 10  8  1  0
 11 10  1  0
 11 12  1  1
 12 13  1  0
 13 14  2  0
 13 21  1  0
 14 15  1  0
 15 16  1  0
 16 17  2  0
 18 17  1  0
 19 18  2  0
 20 19  1  0
 21 20  2  0
 21 16  1  0
 22 11  1  0
 23 22  2  0
 24 22  1  0
 25 26  1  1
 25 24  1  0
 26 27  1  0
 27 32  1  0
 28 27  2  0
 28 29  1  0
 29 30  2  0
 30 31  1  0
 32 31  2  0
 33 35  1  0
 33 25  1  0
 34 33  2  0
M  END
$$$$
