QWF.pdb
     RDKit          3D

 35 37  0  0  1  0  0  0  0  0999 V2000
   30.2564  -21.8706  -16.2451 N   0  0  0  0  0  0  0  0  0  0  0  0
   29.6572  -21.5852  -17.5146 C   0  0  0  0  0  0  0  0  0  0  0  0
   30.2133  -22.0745  -18.5349 O   0  0  0  0  0  0  0  0  0  0  0  0
   28.4414  -20.7495  -17.5461 C   0  0  0  0  0  0  0  0  0  0  0  0
   27.9270  -20.3196  -16.2309 C   0  0  0  0  0  0  0  0  0  0  0  0
   27.4049  -21.3351  -15.2929 C   0  0  2  0  0  0  0  0  0  0  0  0
   26.5074  -22.2978  -15.8968 N   0  0  0  0  0  0  0  0  0  0  0  0
   26.9149  -20.8400  -13.9849 C   0  0  0  0  0  0  0  0  0  0  0  0
   27.3074  -19.7850  -13.4341 O   0  0  0  0  0  0  0  0  0  0  0  0
   25.9304  -21.5908  -13.2914 N   0  0  0  0  0  0  0  0  0  0  0  0
   25.2379  -21.1019  -12.1253 C   0  0  1  0  0  0  0  0  0  0  0  0
   23.8636  -21.6860  -12.1039 C   0  0  0  0  0  0  0  0  0  0  0  0
   22.8215  -20.8211  -12.7316 C   0  0  0  0  0  0  0  0  0  0  0  0
   22.6077  -20.5356  -14.0434 C   0  0  0  0  0  0  0  0  0  0  0  0
   21.5474  -19.7215  -14.1642 N   0  0  0  0  0  0  0  0  0  0  0  0
   21.0432  -19.4573  -12.9214 C   0  0  0  0  0  0  0  0  0  0  0  0
   19.9818  -18.6780  -12.5125 C   0  0  0  0  0  0  0  0  0  0  0  0
   19.7138  -18.5891  -11.1446 C   0  0  0  0  0  0  0  0  0  0  0  0
   20.5231  -19.2839  -10.2750 C   0  0  0  0  0  0  0  0  0  0  0  0
   21.5959  -20.0716  -10.6901 C   0  0  0  0  0  0  0  0  0  0  0  0
   21.8347  -20.1411  -12.0272 C   0  0  0  0  0  0  0  0  0  0  0  0
   25.9652  -21.3682  -10.8462 C   0  0  0  0  0  0  0  0  0  0  0  0
   26.3122  -22.5513  -10.6089 O   0  0  0  0  0  0  0  0  0  0  0  0
   26.2837  -20.3651   -9.8933 N   0  0  0  0  0  0  0  0  0  0  0  0
   26.9302  -20.6401   -8.6069 C   0  0  1  0  0  0  0  0  0  0  0  0
   27.8263  -19.5183   -8.2106 C   0  0  0  0  0  0  0  0  0  0  0  0
   28.3632  -19.6684   -6.8581 C   0  0  0  0  0  0  0  0  0  0  0  0
   29.4833  -20.4123   -6.5699 C   0  0  0  0  0  0  0  0  0  0  0  0
   30.0086  -20.5454   -5.3137 C   0  0  0  0  0  0  0  0  0  0  0  0
   29.3776  -19.8885   -4.2428 C   0  0  0  0  0  0  0  0  0  0  0  0
   28.2687  -19.1466   -4.5027 C   0  0  0  0  0  0  0  0  0  0  0  0
   27.7682  -19.0382   -5.7922 C   0  0  0  0  0  0  0  0  0  0  0  0
   25.9227  -20.9010   -7.5593 C   0  0  0  0  0  0  0  0  0  0  0  0
   24.7941  -20.3661   -7.4865 O   0  0  0  0  0  0  0  0  0  0  0  0
   26.2569  -21.8363   -6.5576 O   0  0  0  0  0  0  0  0  0  0  0  0
  2  1  1  0
  3  2  2  0
  4  2  1  0
  5  4  1  0
  6  5  1  0
  6  7  1  6
  8  9  2  0
  8  6  1  0
 10  8  1  0
 11 10  1  0
 11 12  1  1
 12 13  1  0
 13 14  2  0
 13 21  1  0
 14 15  1  0
 15 16  1  0
 16 17  2  0
 18 17  1  0
 19 18  2  0
 20 19  1  0
 21 20  2  0
 21 16  1  0
 22 11  1  0
 23 22  2  0
 24 22  1  0
 25 26  1  1
 25 24  1  0
 26 27  1  0
 27 32  1  0
 28 27  2  0
 28 29  1  0
 29 30  2  0
 30 31  1  0
 32 31  2  0
 33 35  1  0
 33 25  1  0
 34 33  2  0
M  END
$$$$
