REL.pdb
     RDKit          3D

 29 28  0  0  1  0  0  0  0  0999 V2000
   29.4787  -26.1629  -15.5731 N   0  0  0  0  0  0  0  0  0  0  0  0
   29.9376  -25.6325  -16.8036 C   0  0  0  0  0  0  0  0  0  0  0  0
   30.4102  -26.4203  -17.7198 N   0  0  0  0  0  0  0  0  0  0  0  0
   29.8928  -24.2191  -17.0688 N   0  0  0  0  0  0  0  0  0  0  0  0
   28.9477  -23.3579  -16.4057 C   0  0  0  0  0  0  0  0  0  0  0  0
   27.6655  -23.2465  -17.1954 C   0  0  0  0  0  0  0  0  0  0  0  0
   26.8129  -22.1727  -16.6062 C   0  0  0  0  0  0  0  0  0  0  0  0
   25.8658  -22.6987  -15.5450 C   0  0  2  0  0  0  0  0  0  0  0  0
   25.7231  -24.1198  -15.6040 N   0  0  0  0  0  0  0  0  0  0  0  0
   24.5574  -21.9905  -15.7114 C   0  0  0  0  0  0  0  0  0  0  0  0
   24.5309  -20.7338  -15.6838 O   0  0  0  0  0  0  0  0  0  0  0  0
   30.7043  -26.0438  -18.6453 N   0  0  0  0  0  0  0  0  0  0  0  0
   23.3300  -22.6698  -15.9010 C   0  0  1  0  0  0  0  0  0  0  0  0
   22.0453  -21.9873  -15.9218 C   0  0  0  0  0  0  0  0  0  0  0  0
   21.1716  -22.5471  -17.0511 C   0  0  0  0  0  0  0  0  0  0  0  0
   21.5927  -21.9580  -18.3700 C   0  0  0  0  0  0  0  0  0  0  0  0
   20.7126  -22.4872  -19.4323 O   0  0  0  0  0  0  0  0  0  0  0  0
   19.4768  -22.2837  -19.3593 C   0  0  0  0  0  0  0  0  0  0  0  0
   21.3474  -22.2084  -14.6314 O   0  0  0  0  0  0  0  0  0  0  0  0
   21.8043  -23.0163  -13.8003 O   0  0  0  0  0  0  0  0  0  0  0  0
   21.2694  -23.1925  -20.4793 C   0  0  0  0  0  0  0  0  0  0  0  0
   20.4480  -21.3165  -10.0330 C   0  0  2  0  0  0  0  0  0  0  0  0
   20.4834  -20.0088  -10.8891 C   0  0  0  0  0  0  0  0  0  0  0  0
   21.5607  -19.1816  -10.2211 C   0  0  0  0  0  0  0  0  0  0  0  0
   20.7847  -20.4853  -12.2574 C   0  0  1  0  0  0  0  0  0  0  0  0
   19.7222  -21.1969  -12.9740 N   0  0  0  0  0  0  0  0  0  0  0  0
   20.1624  -21.4949  -14.3563 C   0  0  0  0  0  0  0  0  0  0  0  0
   18.4217  -20.5880  -13.0798 O   0  0  0  0  0  0  0  0  0  0  0  0
   17.4738  -20.7535  -12.2706 O   0  0  0  0  0  0  0  0  0  0  0  0
  2  1  1  0
  2  3  2  0
  4  2  1  0
  5  4  1  0
  6  5  1  0
  7  6  1  0
  8  7  1  0
  8  9  1  6
 10  8  1  0
 10 12  1  0
 11 10  2  0
 13 12  1  0
 13 14  1  6
 15 14  1  0
 16 15  1  0
 17 16  2  0
 18 19  2  0
 18 13  1  0
 20 16  1  0
 22 21  1  1
 22 24  1  0
 23 22  1  0
 25 24  1  1
 25 26  1  0
 25 27  1  0
 26 18  1  0
 27 29  1  0
 28 27  2  0
M  END
$$$$
