REL.pdb
     RDKit          3D

 29 28  0  0  1  0  0  0  0  0999 V2000
   14.4092  -15.3189  -18.8001 N   0  0  0  0  0  0  0  0  0  0  0  0
   13.7378  -15.6200  -17.5899 C   0  0  0  0  0  0  0  0  0  0  0  0
   13.0501  -16.7145  -17.4783 N   0  0  0  0  0  0  0  0  0  0  0  0
   13.7992  -14.7290  -16.4620 N   0  0  0  0  0  0  0  0  0  0  0  0
   14.4944  -13.4696  -16.5339 C   0  0  0  0  0  0  0  0  0  0  0  0
   15.9882  -13.6761  -16.6112 C   0  0  0  0  0  0  0  0  0  0  0  0
   16.6629  -12.3548  -16.7735 C   0  0  0  0  0  0  0  0  0  0  0  0
   17.1500  -11.7848  -15.4553 C   0  0  2  0  0  0  0  0  0  0  0  0
   16.1001  -11.6781  -14.4913 N   0  0  0  0  0  0  0  0  0  0  0  0
   17.7935  -10.4636  -15.7408 C   0  0  0  0  0  0  0  0  0  0  0  0
   18.6979  -10.3959  -16.6115 O   0  0  0  0  0  0  0  0  0  0  0  0
   12.5629  -16.9484  -16.5880 N   0  0  0  0  0  0  0  0  0  0  0  0
   17.4330   -9.2685  -15.0733 C   0  0  1  0  0  0  0  0  0  0  0  0
   18.0514   -7.9843  -15.3650 C   0  0  0  0  0  0  0  0  0  0  0  0
   17.0516   -6.8499  -15.1088 C   0  0  0  0  0  0  0  0  0  0  0  0
   15.8630   -6.9937  -16.0199 C   0  0  0  0  0  0  0  0  0  0  0  0
   14.8596   -5.9700  -15.6613 O   0  0  0  0  0  0  0  0  0  0  0  0
   15.0855   -5.2067  -14.6916 C   0  0  0  0  0  0  0  0  0  0  0  0
   19.2248   -7.7882  -14.4787 O   0  0  0  0  0  0  0  0  0  0  0  0
   19.1257   -7.9843  -13.2523 O   0  0  0  0  0  0  0  0  0  0  0  0
   13.6982   -5.8770  -16.4004 C   0  0  0  0  0  0  0  0  0  0  0  0
   24.1365   -9.6685  -15.7065 C   0  0  1  0  0  0  0  0  0  0  0  0
   22.7812   -9.3206  -15.0093 C   0  0  0  0  0  0  0  0  0  0  0  0
   22.8435  -10.0998  -13.7133 C   0  0  0  0  0  0  0  0  0  0  0  0
   22.8121   -7.8463  -14.8833 C   0  0  2  0  0  0  0  0  0  0  0  0
   21.6744   -7.2011  -14.2213 N   0  0  0  0  0  0  0  0  0  0  0  0
   20.4523   -7.3780  -15.0390 C   0  0  0  0  0  0  0  0  0  0  0  0
   21.7550   -5.7995  -13.9017 O   0  0  0  0  0  0  0  0  0  0  0  0
   21.2176   -4.8721  -14.5590 O   0  0  0  0  0  0  0  0  0  0  0  0
  2  1  1  0
  2  3  2  0
  4  2  1  0
  5  4  1  0
  6  5  1  0
  7  6  1  0
  8  7  1  0
  8  9  1  1
 10  8  1  0
 10 12  1  0
 11 10  2  0
 13 12  1  0
 13 14  1  6
 15 14  1  0
 16 15  1  0
 17 16  2  0
 18 19  2  0
 18 13  1  0
 20 16  1  0
 22 21  1  6
 22 24  1  0
 23 22  1  0
 25 24  1  1
 25 26  1  0
 25 27  1  0
 26 18  1  0
 27 29  1  0
 28 27  2  0
M  END
$$$$
