REL.pdb
     RDKit          3D

 29 28  0  0  1  0  0  0  0  0999 V2000
   14.5024  -12.6146  -19.6065 N   0  0  0  0  0  0  0  0  0  0  0  0
   14.6110  -14.0063  -19.8463 C   0  0  0  0  0  0  0  0  0  0  0  0
   13.9009  -14.8460  -19.1579 N   0  0  0  0  0  0  0  0  0  0  0  0
   15.5032  -14.5221  -20.8503 N   0  0  0  0  0  0  0  0  0  0  0  0
   16.9247  -14.3000  -20.7806 C   0  0  0  0  0  0  0  0  0  0  0  0
   17.5455  -14.3119  -22.1570 C   0  0  0  0  0  0  0  0  0  0  0  0
   17.7058  -12.9090  -22.6399 C   0  0  0  0  0  0  0  0  0  0  0  0
   18.8470  -12.1842  -21.9526 C   0  0  2  0  0  0  0  0  0  0  0  0
   19.8965  -13.0734  -21.5643 N   0  0  0  0  0  0  0  0  0  0  0  0
   18.2760  -11.4383  -20.7869 C   0  0  0  0  0  0  0  0  0  0  0  0
   17.2590  -10.7187  -20.9563 O   0  0  0  0  0  0  0  0  0  0  0  0
   13.9683  -15.8702  -19.3347 N   0  0  0  0  0  0  0  0  0  0  0  0
   18.8277  -11.5006  -19.4848 C   0  0  1  0  0  0  0  0  0  0  0  0
   18.2270  -10.8325  -18.3405 C   0  0  0  0  0  0  0  0  0  0  0  0
   18.5534  -11.6002  -17.0535 C   0  0  0  0  0  0  0  0  0  0  0  0
   17.7050  -12.8394  -16.9622 C   0  0  0  0  0  0  0  0  0  0  0  0
   18.0603  -13.5717  -15.7290 O   0  0  0  0  0  0  0  0  0  0  0  0
   19.2694  -13.6910  -15.4164 C   0  0  0  0  0  0  0  0  0  0  0  0
   18.7785   -9.4602  -18.2240 O   0  0  0  0  0  0  0  0  0  0  0  0
   19.9948   -9.2548  -18.3993 O   0  0  0  0  0  0  0  0  0  0  0  0
   17.0551  -14.1072  -14.9502 C   0  0  0  0  0  0  0  0  0  0  0  0
   17.3975   -4.0406  -19.7066 C   0  0  2  0  0  0  0  0  0  0  0  0
   17.8343   -4.6279  -18.3251 C   0  0  0  0  0  0  0  0  0  0  0  0
   17.0037   -3.8434  -17.3324 C   0  0  0  0  0  0  0  0  0  0  0  0
   17.5237   -6.0707  -18.4357 C   0  0  1  0  0  0  0  0  0  0  0  0
   18.4006   -7.0066  -17.7257 N   0  0  0  0  0  0  0  0  0  0  0  0
   17.9118   -8.3919  -17.9132 C   0  0  0  0  0  0  0  0  0  0  0  0
   18.6092   -6.8329  -16.3117 O   0  0  0  0  0  0  0  0  0  0  0  0
   19.4485   -6.0548  -15.7911 O   0  0  0  0  0  0  0  0  0  0  0  0
  2  1  1  0
  2  3  2  0
  4  2  1  0
  5  4  1  0
  6  5  1  0
  7  6  1  0
  8  7  1  0
  8  9  1  1
 10  8  1  0
 10 12  1  0
 11 10  2  0
 13 12  1  0
 13 14  1  1
 15 14  1  0
 16 15  1  0
 17 16  2  0
 18 19  2  0
 18 13  1  0
 20 16  1  0
 22 21  1  1
 22 24  1  0
 23 22  1  0
 25 24  1  6
 25 26  1  0
 25 27  1  0
 26 18  1  0
 27 29  1  0
 28 27  2  0
M  END
$$$$
