REL.pdb
     RDKit          3D

 29 28  0  0  1  0  0  0  0  0999 V2000
   26.0669   -7.9443  -20.6725 N   0  0  0  0  0  0  0  0  0  0  0  0
   26.3601   -9.3283  -20.6038 C   0  0  0  0  0  0  0  0  0  0  0  0
   25.6301  -10.1845  -21.2498 N   0  0  0  0  0  0  0  0  0  0  0  0
   27.4651   -9.8181  -19.8232 N   0  0  0  0  0  0  0  0  0  0  0  0
   28.2851   -8.9309  -19.0389 C   0  0  0  0  0  0  0  0  0  0  0  0
   29.3608   -9.6927  -18.3024 C   0  0  0  0  0  0  0  0  0  0  0  0
   30.7013   -9.2406  -18.7778 C   0  0  0  0  0  0  0  0  0  0  0  0
   31.8393   -9.9416  -18.0612 C   0  0  2  0  0  0  0  0  0  0  0  0
   31.4476  -11.2128  -17.5382 N   0  0  0  0  0  0  0  0  0  0  0  0
   32.3412   -9.0199  -16.9936 C   0  0  0  0  0  0  0  0  0  0  0  0
   31.5279   -8.5408  -16.1631 O   0  0  0  0  0  0  0  0  0  0  0  0
   25.8499  -11.2021  -21.2183 N   0  0  0  0  0  0  0  0  0  0  0  0
   33.7027   -8.6533  -16.8669 C   0  0  1  0  0  0  0  0  0  0  0  0
   34.2135   -7.8941  -15.7359 C   0  0  0  0  0  0  0  0  0  0  0  0
   35.6028   -8.4104  -15.3415 C   0  0  0  0  0  0  0  0  0  0  0  0
   35.4738   -9.6682  -14.5261 C   0  0  0  0  0  0  0  0  0  0  0  0
   36.8260  -10.1714  -14.2071 O   0  0  0  0  0  0  0  0  0  0  0  0
   37.3589   -9.8435  -13.1197 C   0  0  0  0  0  0  0  0  0  0  0  0
   34.3311   -6.4641  -16.1134 O   0  0  0  0  0  0  0  0  0  0  0  0
   34.4062   -6.1350  -17.3127 O   0  0  0  0  0  0  0  0  0  0  0  0
   37.4710  -10.9897  -15.1116 C   0  0  0  0  0  0  0  0  0  0  0  0
   32.1368   -2.2025  -17.7802 C   0  0  2  0  0  0  0  0  0  0  0  0
   33.3133   -2.2373  -16.7512 C   0  0  0  0  0  0  0  0  0  0  0  0
   32.8830   -1.2445  -15.6930 C   0  0  0  0  0  0  0  0  0  0  0  0
   33.3752   -3.6537  -16.3267 C   0  0  1  0  0  0  0  0  0  0  0  0
   34.4487   -4.0361  -15.4046 N   0  0  0  0  0  0  0  0  0  0  0  0
   34.3571   -5.4827  -15.1009 C   0  0  0  0  0  0  0  0  0  0  0  0
   34.5582   -3.3573  -14.1396 O   0  0  0  0  0  0  0  0  0  0  0  0
   34.0481   -3.7477  -13.0588 O   0  0  0  0  0  0  0  0  0  0  0  0
  2  1  1  0
  2  3  2  0
  4  2  1  0
  5  4  1  0
  6  5  1  0
  7  6  1  0
  8  7  1  0
  8  9  1  1
 10  8  1  0
 10 12  1  0
 11 10  2  0
 13 12  1  0
 13 14  1  1
 15 14  1  0
 16 15  1  0
 17 16  2  0
 18 19  2  0
 18 13  1  0
 20 16  1  0
 22 21  1  6
 22 24  1  0
 23 22  1  0
 25 24  1  6
 25 26  1  0
 25 27  1  0
 26 18  1  0
 27 29  1  0
 28 27  2  0
M  END
$$$$
