REL.pdb
     RDKit          3D

 29 28  0  0  1  0  0  0  0  0999 V2000
   31.6930  -22.9407  -10.9678 N   0  0  0  0  0  0  0  0  0  0  0  0
   31.4069  -22.2730   -9.7519 C   0  0  0  0  0  0  0  0  0  0  0  0
   32.1040  -22.5258   -8.6872 N   0  0  0  0  0  0  0  0  0  0  0  0
   30.3458  -21.3054   -9.6648 N   0  0  0  0  0  0  0  0  0  0  0  0
   28.9990  -21.6266  -10.0618 C   0  0  0  0  0  0  0  0  0  0  0  0
   28.8781  -21.7025  -11.5650 C   0  0  0  0  0  0  0  0  0  0  0  0
   27.6371  -20.9957  -11.9981 C   0  0  0  0  0  0  0  0  0  0  0  0
   26.3800  -21.7861  -11.6902 C   0  0  2  0  0  0  0  0  0  0  0  0
   26.6246  -23.1935  -11.6413 N   0  0  0  0  0  0  0  0  0  0  0  0
   25.3523  -21.4249  -12.7172 C   0  0  0  0  0  0  0  0  0  0  0  0
   25.6758  -21.4114  -13.9320 O   0  0  0  0  0  0  0  0  0  0  0  0
   31.8986  -22.0403   -7.7890 N   0  0  0  0  0  0  0  0  0  0  0  0
   24.0159  -21.0928  -12.3891 C   0  0  2  0  0  0  0  0  0  0  0  0
   23.0353  -20.6907  -13.3858 C   0  0  0  0  0  0  0  0  0  0  0  0
   21.6235  -20.7589  -12.7906 C   0  0  0  0  0  0  0  0  0  0  0  0
   20.6003  -20.4648  -13.8537 C   0  0  0  0  0  0  0  0  0  0  0  0
   19.4803  -19.7175  -13.2450 O   0  0  0  0  0  0  0  0  0  0  0  0
   19.5391  -19.4116  -12.0297 C   0  0  0  0  0  0  0  0  0  0  0  0
   23.3030  -19.2935  -13.8067 O   0  0  0  0  0  0  0  0  0  0  0  0
   23.8863  -18.5062  -13.0371 O   0  0  0  0  0  0  0  0  0  0  0  0
   18.3963  -19.3736  -14.0262 C   0  0  0  0  0  0  0  0  0  0  0  0
   27.4739  -18.0868  -16.0459 C   0  0  2  0  0  0  0  0  0  0  0  0
   26.1536  -17.6483  -15.3327 C   0  0  0  0  0  0  0  0  0  0  0  0
   26.0605  -16.1703  -15.6453 C   0  0  0  0  0  0  0  0  0  0  0  0
   25.1151  -18.5083  -15.9427 C   0  0  2  0  0  0  0  0  0  0  0  0
   23.7377  -18.0066  -15.9436 N   0  0  0  0  0  0  0  0  0  0  0  0
   22.8904  -18.8667  -15.0860 C   0  0  0  0  0  0  0  0  0  0  0  0
   23.0451  -17.8686  -17.1983 O   0  0  0  0  0  0  0  0  0  0  0  0
   22.4724  -18.8004  -17.8186 O   0  0  0  0  0  0  0  0  0  0  0  0
  2  1  1  0
  2  3  2  0
  4  2  1  0
  5  4  1  0
  6  5  1  0
  7  6  1  0
  8  7  1  0
  8  9  1  6
 10  8  1  0
 10 12  1  0
 11 10  2  0
 13 12  1  0
 13 14  1  1
 15 14  1  0
 16 15  1  0
 17 16  2  0
 18 19  2  0
 18 13  1  0
 20 16  1  0
 22 21  1  1
 22 24  1  0
 23 22  1  0
 25 24  1  1
 25 26  1  0
 25 27  1  0
 26 18  1  0
 27 29  1  0
 28 27  2  0
M  END
$$$$
