REL.pdb
     RDKit          3D

 29 28  0  0  1  0  0  0  0  0999 V2000
    9.9254  -12.1477  -13.2915 N   0  0  0  0  0  0  0  0  0  0  0  0
   11.1281  -12.2910  -12.5574 C   0  0  0  0  0  0  0  0  0  0  0  0
   11.6541  -13.4647  -12.3863 N   0  0  0  0  0  0  0  0  0  0  0  0
   11.7933  -11.1501  -11.9866 N   0  0  0  0  0  0  0  0  0  0  0  0
   12.7050  -10.3455  -12.7586 C   0  0  0  0  0  0  0  0  0  0  0  0
   13.2425  -11.1152  -13.9414 C   0  0  0  0  0  0  0  0  0  0  0  0
   14.1979  -10.2549  -14.6991 C   0  0  0  0  0  0  0  0  0  0  0  0
   15.6128  -10.8004  -14.6798 C   0  0  2  0  0  0  0  0  0  0  0  0
   15.6524  -12.2094  -14.9165 N   0  0  0  0  0  0  0  0  0  0  0  0
   16.2257  -10.4292  -13.3653 C   0  0  0  0  0  0  0  0  0  0  0  0
   16.2646  -11.2823  -12.4426 O   0  0  0  0  0  0  0  0  0  0  0  0
   12.5600  -13.5738  -11.8841 N   0  0  0  0  0  0  0  0  0  0  0  0
   16.7720   -9.1502  -13.1014 C   0  0  1  0  0  0  0  0  0  0  0  0
   17.3275   -8.7808  -11.8085 C   0  0  0  0  0  0  0  0  0  0  0  0
   18.7576   -8.2549  -11.9824 C   0  0  0  0  0  0  0  0  0  0  0  0
   19.0942   -8.1483  -13.4449 C   0  0  0  0  0  0  0  0  0  0  0  0
   20.5029   -7.7235  -13.5812 O   0  0  0  0  0  0  0  0  0  0  0  0
   21.1999   -7.5791  -12.5481 C   0  0  0  0  0  0  0  0  0  0  0  0
   16.5004   -7.7078  -11.2038 O   0  0  0  0  0  0  0  0  0  0  0  0
   16.0086   -6.8146  -11.9197 O   0  0  0  0  0  0  0  0  0  0  0  0
   21.0191   -7.4956  -14.8403 C   0  0  0  0  0  0  0  0  0  0  0  0
   12.6075   -8.6635   -7.5568 C   0  0  1  0  0  0  0  0  0  0  0  0
   13.4042   -8.1514   -8.8007 C   0  0  0  0  0  0  0  0  0  0  0  0
   12.3674   -7.3785   -9.5871 C   0  0  0  0  0  0  0  0  0  0  0  0
   14.5049   -7.3531   -8.2165 C   0  0  2  0  0  0  0  0  0  0  0  0
   15.4288   -6.6953   -9.1452 N   0  0  0  0  0  0  0  0  0  0  0  0
   16.2772   -7.7101   -9.8112 C   0  0  0  0  0  0  0  0  0  0  0  0
   16.3194   -5.6810   -8.6438 O   0  0  0  0  0  0  0  0  0  0  0  0
   17.5569   -5.8211   -8.4716 O   0  0  0  0  0  0  0  0  0  0  0  0
  2  1  1  0
  2  3  2  0
  4  2  1  0
  5  4  1  0
  6  5  1  0
  7  6  1  0
  8  7  1  0
  8  9  1  1
 10  8  1  0
 10 12  1  0
 11 10  2  0
 13 12  1  0
 13 14  1  1
 15 14  1  0
 16 15  1  0
 17 16  2  0
 18 19  2  0
 18 13  1  0
 20 16  1  0
 22 21  1  6
 22 24  1  0
 23 22  1  0
 25 24  1  6
 25 26  1  0
 25 27  1  0
 26 18  1  0
 27 29  1  0
 28 27  2  0
M  END
$$$$
