REL.pdb
     RDKit          3D

 29 28  0  0  1  0  0  0  0  0999 V2000
   17.0006  -16.4987  -17.4360 N   0  0  0  0  0  0  0  0  0  0  0  0
   17.1264  -15.6198  -16.3325 C   0  0  0  0  0  0  0  0  0  0  0  0
   17.4572  -16.0789  -15.1650 N   0  0  0  0  0  0  0  0  0  0  0  0
   16.8931  -14.2072  -16.4745 N   0  0  0  0  0  0  0  0  0  0  0  0
   16.1118  -13.6785  -17.5629 C   0  0  0  0  0  0  0  0  0  0  0  0
   16.9957  -13.0408  -18.6080 C   0  0  0  0  0  0  0  0  0  0  0  0
   16.3477  -11.7940  -19.1106 C   0  0  0  0  0  0  0  0  0  0  0  0
   17.1437  -11.1305  -20.2179 C   0  0  2  0  0  0  0  0  0  0  0  0
   17.6094  -12.0716  -21.1877 N   0  0  0  0  0  0  0  0  0  0  0  0
   18.2658  -10.3720  -19.5799 C   0  0  0  0  0  0  0  0  0  0  0  0
   19.2973  -10.9916  -19.2153 O   0  0  0  0  0  0  0  0  0  0  0  0
   17.5266  -15.4429  -14.3431 N   0  0  0  0  0  0  0  0  0  0  0  0
   18.2273   -8.9739  -19.3618 C   0  0  2  0  0  0  0  0  0  0  0  0
   19.3191   -8.2423  -18.7377 C   0  0  0  0  0  0  0  0  0  0  0  0
   18.9704   -6.7512  -18.6518 C   0  0  0  0  0  0  0  0  0  0  0  0
   20.1225   -5.9848  -18.0611 C   0  0  0  0  0  0  0  0  0  0  0  0
   19.7725   -4.5497  -18.0239 O   0  0  0  0  0  0  0  0  0  0  0  0
   18.6522   -4.1829  -18.4534 C   0  0  0  0  0  0  0  0  0  0  0  0
   19.5359   -8.7561  -17.3629 O   0  0  0  0  0  0  0  0  0  0  0  0
   18.5696   -9.1367  -16.6746 O   0  0  0  0  0  0  0  0  0  0  0  0
   20.6849   -3.6466  -17.5182 C   0  0  0  0  0  0  0  0  0  0  0  0
   23.3173   -9.8764  -13.5763 C   0  0  2  0  0  0  0  0  0  0  0  0
   22.5682  -11.0357  -14.3105 C   0  0  0  0  0  0  0  0  0  0  0  0
   21.4795  -11.4239  -13.3333 C   0  0  0  0  0  0  0  0  0  0  0  0
   22.1146  -10.4217  -15.5784 C   0  0  2  0  0  0  0  0  0  0  0  0
   21.1397   -9.3306  -15.4896 N   0  0  0  0  0  0  0  0  0  0  0  0
   20.8463   -8.8090  -16.8443 C   0  0  0  0  0  0  0  0  0  0  0  0
   21.4423   -8.1884  -14.6667 O   0  0  0  0  0  0  0  0  0  0  0  0
   22.0696   -7.1664  -15.0444 O   0  0  0  0  0  0  0  0  0  0  0  0
  2  1  1  0
  2  3  2  0
  4  2  1  0
  5  4  1  0
  6  5  1  0
  7  6  1  0
  8  7  1  0
  8  9  1  6
 10  8  1  0
 10 12  1  0
 11 10  2  0
 13 12  1  0
 13 14  1  6
 15 14  1  0
 16 15  1  0
 17 16  2  0
 18 19  2  0
 18 13  1  0
 20 16  1  0
 22 21  1  1
 22 24  1  0
 23 22  1  0
 25 24  1  6
 25 26  1  0
 25 27  1  0
 26 18  1  0
 27 29  1  0
 28 27  2  0
M  END
$$$$
