REL.pdb
     RDKit          3D

 29 28  0  0  1  0  0  0  0  0999 V2000
   23.7383  -23.2728  -13.9631 N   0  0  0  0  0  0  0  0  0  0  0  0
   24.9246  -23.4212  -14.7226 C   0  0  0  0  0  0  0  0  0  0  0  0
   25.3943  -24.6034  -14.9777 N   0  0  0  0  0  0  0  0  0  0  0  0
   25.6346  -22.2761  -15.2272 N   0  0  0  0  0  0  0  0  0  0  0  0
   25.2317  -20.9336  -14.8953 C   0  0  0  0  0  0  0  0  0  0  0  0
   25.2008  -20.0553  -16.1232 C   0  0  0  0  0  0  0  0  0  0  0  0
   23.8006  -19.6037  -16.3736 C   0  0  0  0  0  0  0  0  0  0  0  0
   22.9926  -20.6210  -17.1560 C   0  0  2  0  0  0  0  0  0  0  0  0
   23.5459  -20.8716  -18.4498 N   0  0  0  0  0  0  0  0  0  0  0  0
   21.5827  -20.1229  -17.2295 C   0  0  0  0  0  0  0  0  0  0  0  0
   21.2592  -19.3266  -18.1470 O   0  0  0  0  0  0  0  0  0  0  0  0
   26.2630  -24.7209  -15.5403 N   0  0  0  0  0  0  0  0  0  0  0  0
   20.5791  -20.5060  -16.3076 C   0  0  1  0  0  0  0  0  0  0  0  0
   19.2083  -20.0253  -16.3883 C   0  0  0  0  0  0  0  0  0  0  0  0
   18.2745  -20.9705  -15.6223 C   0  0  0  0  0  0  0  0  0  0  0  0
   16.8501  -20.5025  -15.7477 C   0  0  0  0  0  0  0  0  0  0  0  0
   15.9780  -21.4156  -14.9803 O   0  0  0  0  0  0  0  0  0  0  0  0
   16.4998  -22.3386  -14.3096 C   0  0  0  0  0  0  0  0  0  0  0  0
   19.1208  -18.6768  -15.7759 O   0  0  0  0  0  0  0  0  0  0  0  0
   19.7633  -18.4136  -14.7414 O   0  0  0  0  0  0  0  0  0  0  0  0
   14.6110  -21.2326  -15.0189 C   0  0  0  0  0  0  0  0  0  0  0  0
   19.3676  -13.7126  -18.1915 C   0  0  2  0  0  0  0  0  0  0  0  0
   19.5958  -14.7862  -17.0781 C   0  0  0  0  0  0  0  0  0  0  0  0
   20.2186  -13.9934  -15.9492 C   0  0  0  0  0  0  0  0  0  0  0  0
   18.2429  -15.3288  -16.8220 C   0  0  2  0  0  0  0  0  0  0  0  0
   18.1122  -16.3543  -15.7827 N   0  0  0  0  0  0  0  0  0  0  0  0
   18.3032  -17.6973  -16.3769 C   0  0  0  0  0  0  0  0  0  0  0  0
   16.8983  -16.4161  -15.0107 O   0  0  0  0  0  0  0  0  0  0  0  0
   15.8986  -17.1277  -15.2841 O   0  0  0  0  0  0  0  0  0  0  0  0
  2  1  1  0
  2  3  2  0
  4  2  1  0
  5  4  1  0
  6  5  1  0
  7  6  1  0
  8  7  1  0
  8  9  1  6
 10  8  1  0
 10 12  1  0
 11 10  2  0
 13 12  1  0
 13 14  1  6
 15 14  1  0
 16 15  1  0
 17 16  2  0
 18 19  2  0
 18 13  1  0
 20 16  1  0
 22 21  1  6
 22 24  1  0
 23 22  1  0
 25 24  1  1
 25 26  1  0
 25 27  1  0
 26 18  1  0
 27 29  1  0
 28 27  2  0
M  END
$$$$
