RNE.pdb
     RDKit          3D

 29 28  0  0  1  0  0  0  0  0999 V2000
   29.2363  -19.3040  -20.4061 N   0  0  0  0  0  0  0  0  0  0  0  0
   29.1201  -18.0561  -19.7518 C   0  0  0  0  0  0  0  0  0  0  0  0
   29.2986  -16.9676  -20.4540 N   0  0  0  0  0  0  0  0  0  0  0  0
   28.8220  -17.9217  -18.3804 N   0  0  0  0  0  0  0  0  0  0  0  0
   28.5129  -19.1074  -17.5698 C   0  0  0  0  0  0  0  0  0  0  0  0
   27.1682  -19.6786  -17.9803 C   0  0  0  0  0  0  0  0  0  0  0  0
   26.3304  -20.0598  -16.8167 C   0  0  0  0  0  0  0  0  0  0  0  0
   27.0800  -20.5818  -15.6131 C   0  0  2  0  0  0  0  0  0  0  0  0
   27.8040  -21.7561  -16.0929 N   0  0  0  0  0  0  0  0  0  0  0  0
   26.1989  -20.9445  -14.4775 C   0  0  0  0  0  0  0  0  0  0  0  0
   25.4329  -21.9707  -14.5524 O   0  0  0  0  0  0  0  0  0  0  0  0
   29.3049  -16.0435  -20.0123 N   0  0  0  0  0  0  0  0  0  0  0  0
   23.9906  -21.4361   -9.6695 C   0  0  0  0  0  0  0  0  0  0  0  0
   25.2778  -20.7663   -9.6359 O   0  0  0  0  0  0  0  0  0  0  0  0
   25.7391  -20.6166   -8.4960 C   0  0  0  0  0  0  0  0  0  0  0  0
   25.8649  -20.3588  -10.8916 C   0  0  2  0  0  0  0  0  0  0  0  0
   25.1711  -20.6554  -12.1829 N   0  0  0  0  0  0  0  0  0  0  0  0
   26.1291  -20.2325  -13.2762 C   0  0  0  0  0  0  0  0  0  0  0  0
   23.9051  -19.9620  -12.4233 O   0  0  0  0  0  0  0  0  0  0  0  0
   23.8443  -19.2018  -13.4759 N   0  0  0  0  0  0  0  0  0  0  0  0
   22.7186  -20.0091  -11.6623 C   0  0  1  0  0  0  0  0  0  0  0  0
   21.4064  -19.9944  -12.3282 C   0  0  0  0  0  0  0  0  0  0  0  0
   21.6338  -20.2385  -13.7810 C   0  0  0  0  0  0  0  0  0  0  0  0
   21.1840  -19.1745  -14.7131 C   0  0  0  0  0  0  0  0  0  0  0  0
   20.8916  -19.6575  -16.0718 O   0  0  0  0  0  0  0  0  0  0  0  0
   21.8179  -19.8712  -16.8725 C   0  0  0  0  0  0  0  0  0  0  0  0
   20.5268  -21.0288  -11.7643 O   0  0  0  0  0  0  0  0  0  0  0  0
   20.9607  -22.0606  -11.1957 O   0  0  0  0  0  0  0  0  0  0  0  0
   19.5890  -19.8823  -16.4832 O   0  0  0  0  0  0  0  0  0  0  0  0
  1  2  1  0
  2  3  2  0
  4  5  1  0
  4  2  1  0
  6  5  1  0
  7  6  1  0
  8 10  1  0
  8  7  1  0
  8  9  1  6
 10 11  2  0
 12 13  1  0
 13 14  2  0
 15 13  1  0
 16 15  1  6
 17 16  1  0
 17 10  1  0
 18 16  1  0
 18 19  2  0
 20 18  1  0
 21 20  1  0
 21 22  1  1
 22 23  1  0
 23 24  1  0
 24 28  1  0
 25 24  2  0
 26 21  1  0
 27 26  2  0
 29 26  1  0
M  END
$$$$
