RNE.pdb
     RDKit          3D

 29 28  0  0  1  0  0  0  0  0999 V2000
   26.3922  -17.0106  -16.9049 N   0  0  0  0  0  0  0  0  0  0  0  0
   27.6498  -16.4556  -17.2360 C   0  0  0  0  0  0  0  0  0  0  0  0
   27.7994  -15.1597  -17.1475 N   0  0  0  0  0  0  0  0  0  0  0  0
   28.7530  -17.2255  -17.6578 N   0  0  0  0  0  0  0  0  0  0  0  0
   28.6370  -18.6857  -17.7721 C   0  0  0  0  0  0  0  0  0  0  0  0
   28.8966  -19.3324  -16.4241 C   0  0  0  0  0  0  0  0  0  0  0  0
   28.9297  -20.8139  -16.4984 C   0  0  0  0  0  0  0  0  0  0  0  0
   27.5897  -21.4911  -16.6685 C   0  0  2  0  0  0  0  0  0  0  0  0
   26.8134  -20.5946  -17.5211 N   0  0  0  0  0  0  0  0  0  0  0  0
   26.8809  -21.7327  -15.3892 C   0  0  0  0  0  0  0  0  0  0  0  0
   27.3797  -22.5222  -14.5100 O   0  0  0  0  0  0  0  0  0  0  0  0
   28.6770  -14.7050  -17.4163 N   0  0  0  0  0  0  0  0  0  0  0  0
   25.4538  -22.0771  -10.9505 C   0  0  0  0  0  0  0  0  0  0  0  0
   25.5554  -20.6950  -11.3820 O   0  0  0  0  0  0  0  0  0  0  0  0
   25.8243  -19.9004  -10.4705 C   0  0  0  0  0  0  0  0  0  0  0  0
   25.3396  -20.4020  -12.7803 C   0  0  2  0  0  0  0  0  0  0  0  0
   24.9797  -21.4949  -13.7357 N   0  0  0  0  0  0  0  0  0  0  0  0
   25.6603  -21.1457  -15.0422 C   0  0  0  0  0  0  0  0  0  0  0  0
   23.5561  -21.6747  -14.0227 O   0  0  0  0  0  0  0  0  0  0  0  0
   23.0507  -20.9356  -14.9650 N   0  0  0  0  0  0  0  0  0  0  0  0
   22.6411  -22.5581  -13.4133 C   0  0  1  0  0  0  0  0  0  0  0  0
   21.2304  -22.5736  -13.8316 C   0  0  0  0  0  0  0  0  0  0  0  0
   20.5920  -23.7762  -13.2249 C   0  0  0  0  0  0  0  0  0  0  0  0
   19.1278  -23.9226  -13.4201 C   0  0  0  0  0  0  0  0  0  0  0  0
   18.5525  -25.0997  -12.7507 O   0  0  0  0  0  0  0  0  0  0  0  0
   19.2692  -25.8314  -12.0466 C   0  0  0  0  0  0  0  0  0  0  0  0
   20.5449  -21.3498  -13.3909 O   0  0  0  0  0  0  0  0  0  0  0  0
   20.8890  -20.7018  -12.3722 O   0  0  0  0  0  0  0  0  0  0  0  0
   17.2114  -25.4141  -12.8900 O   0  0  0  0  0  0  0  0  0  0  0  0
  1  2  1  0
  2  3  2  0
  4  5  1  0
  4  2  1  0
  6  5  1  0
  7  6  1  0
  8 10  1  0
  8  7  1  0
  8  9  1  6
 10 11  2  0
 12 13  1  0
 13 14  2  0
 15 13  1  0
 16 15  1  1
 17 16  1  0
 17 10  1  0
 18 16  1  0
 18 19  2  0
 20 18  1  0
 21 20  1  0
 21 22  1  1
 22 23  1  0
 23 24  1  0
 24 28  1  0
 25 24  2  0
 26 21  1  0
 27 26  2  0
 29 26  1  0
M  END
$$$$
