RNE.pdb
     RDKit          3D

 29 28  0  0  1  0  0  0  0  0999 V2000
   29.5163  -22.9772  -16.7227 N   0  0  0  0  0  0  0  0  0  0  0  0
   28.9449  -23.1185  -18.0082 C   0  0  0  0  0  0  0  0  0  0  0  0
   29.3344  -24.1193  -18.7543 N   0  0  0  0  0  0  0  0  0  0  0  0
   27.9765  -22.2369  -18.5303 N   0  0  0  0  0  0  0  0  0  0  0  0
   27.1439  -21.4317  -17.6265 C   0  0  0  0  0  0  0  0  0  0  0  0
   26.4469  -22.3332  -16.6244 C   0  0  0  0  0  0  0  0  0  0  0  0
   25.5275  -21.5885  -15.7291 C   0  0  0  0  0  0  0  0  0  0  0  0
   24.8001  -22.4207  -14.6987 C   0  0  2  0  0  0  0  0  0  0  0  0
   24.8103  -23.7815  -15.2294 N   0  0  0  0  0  0  0  0  0  0  0  0
   23.4094  -21.9723  -14.4490 C   0  0  0  0  0  0  0  0  0  0  0  0
   22.4450  -22.4171  -15.1682 O   0  0  0  0  0  0  0  0  0  0  0  0
   28.9905  -24.2353  -19.7121 N   0  0  0  0  0  0  0  0  0  0  0  0
   19.0244  -20.9983  -12.0317 C   0  0  0  0  0  0  0  0  0  0  0  0
   20.1193  -20.5162  -11.2099 O   0  0  0  0  0  0  0  0  0  0  0  0
   19.8047  -20.2873  -10.0338 C   0  0  0  0  0  0  0  0  0  0  0  0
   21.4156  -20.3595  -11.8285 C   0  0  2  0  0  0  0  0  0  0  0  0
   21.5977  -20.6419  -13.2859 N   0  0  0  0  0  0  0  0  0  0  0  0
   23.0418  -21.0658  -13.4499 C   0  0  0  0  0  0  0  0  0  0  0  0
   21.3656  -19.5275  -14.2053 O   0  0  0  0  0  0  0  0  0  0  0  0
   22.2815  -18.6063  -14.2521 N   0  0  0  0  0  0  0  0  0  0  0  0
   20.2707  -19.3127  -15.0679 C   0  0  1  0  0  0  0  0  0  0  0  0
   20.2052  -18.1007  -15.8999 C   0  0  0  0  0  0  0  0  0  0  0  0
   20.2747  -18.5272  -17.3264 C   0  0  0  0  0  0  0  0  0  0  0  0
   20.0576  -17.4723  -18.3480 C   0  0  0  0  0  0  0  0  0  0  0  0
   20.1334  -17.9606  -19.7338 O   0  0  0  0  0  0  0  0  0  0  0  0
   19.3004  -18.7819  -20.1540 C   0  0  0  0  0  0  0  0  0  0  0  0
   18.9599  -17.3622  -15.6439 O   0  0  0  0  0  0  0  0  0  0  0  0
   17.9079  -17.9143  -15.2379 O   0  0  0  0  0  0  0  0  0  0  0  0
   21.1262  -17.5189  -20.5917 O   0  0  0  0  0  0  0  0  0  0  0  0
  1  2  1  0
  2  3  2  0
  4  5  1  0
  4  2  1  0
  6  5  1  0
  7  6  1  0
  8 10  1  0
  8  7  1  0
  8  9  1  6
 10 11  2  0
 12 13  1  0
 13 14  2  0
 15 13  1  0
 16 15  1  1
 17 16  1  0
 17 10  1  0
 18 16  1  0
 18 19  2  0
 20 18  1  0
 21 20  1  0
 21 22  1  1
 22 23  1  0
 23 24  1  0
 24 28  1  0
 25 24  2  0
 26 21  1  0
 27 26  2  0
 29 26  1  0
M  END
$$$$
