RNE.pdb
     RDKit          3D

 29 28  0  0  1  0  0  0  0  0999 V2000
   30.5194  -21.7434   -9.6094 N   0  0  0  0  0  0  0  0  0  0  0  0
   30.9022  -22.1251  -10.9159 C   0  0  0  0  0  0  0  0  0  0  0  0
   32.0901  -22.6438  -11.0885 N   0  0  0  0  0  0  0  0  0  0  0  0
   30.0709  -21.9760  -12.0448 N   0  0  0  0  0  0  0  0  0  0  0  0
   28.6791  -21.5328  -11.8866 C   0  0  0  0  0  0  0  0  0  0  0  0
   28.6188  -20.0167  -11.8600 C   0  0  0  0  0  0  0  0  0  0  0  0
   27.8600  -19.4552  -13.0047 C   0  0  0  0  0  0  0  0  0  0  0  0
   26.4677  -20.0082  -13.2016 C   0  0  2  0  0  0  0  0  0  0  0  0
   26.6448  -21.4517  -13.3364 N   0  0  0  0  0  0  0  0  0  0  0  0
   25.7740  -19.4579  -14.3905 C   0  0  0  0  0  0  0  0  0  0  0  0
   25.5041  -18.2060  -14.4628 O   0  0  0  0  0  0  0  0  0  0  0  0
   32.4299  -22.8988  -12.0204 N   0  0  0  0  0  0  0  0  0  0  0  0
   26.8730  -17.8089  -18.4056 C   0  0  0  0  0  0  0  0  0  0  0  0
   26.8744  -19.2040  -18.0049 O   0  0  0  0  0  0  0  0  0  0  0  0
   28.0056  -19.6778  -17.8308 C   0  0  0  0  0  0  0  0  0  0  0  0
   25.6007  -19.8698  -17.8566 C   0  0  2  0  0  0  0  0  0  0  0  0
   24.7185  -19.5641  -16.6883 N   0  0  0  0  0  0  0  0  0  0  0  0
   25.3718  -20.2210  -15.4909 C   0  0  0  0  0  0  0  0  0  0  0  0
   23.3426  -20.0575  -16.7567 O   0  0  0  0  0  0  0  0  0  0  0  0
   23.1844  -21.3105  -17.0645 N   0  0  0  0  0  0  0  0  0  0  0  0
   22.1432  -19.3527  -16.5250 C   0  0  1  0  0  0  0  0  0  0  0  0
   20.8463  -20.0429  -16.6087 C   0  0  0  0  0  0  0  0  0  0  0  0
   20.4134  -20.3623  -15.2186 C   0  0  0  0  0  0  0  0  0  0  0  0
   19.0583  -20.9472  -15.0611 C   0  0  0  0  0  0  0  0  0  0  0  0
   18.6934  -21.2378  -13.6656 O   0  0  0  0  0  0  0  0  0  0  0  0
   19.4877  -20.9803  -12.7449 C   0  0  0  0  0  0  0  0  0  0  0  0
   19.8486  -19.1936  -17.2758 O   0  0  0  0  0  0  0  0  0  0  0  0
   19.9663  -17.9475  -17.3737 O   0  0  0  0  0  0  0  0  0  0  0  0
   17.4676  -21.7994  -13.3518 O   0  0  0  0  0  0  0  0  0  0  0  0
  1  2  1  0
  2  3  2  0
  4  5  1  0
  4  2  1  0
  6  5  1  0
  7  6  1  0
  8 10  1  0
  8  7  1  0
  8  9  1  6
 10 11  2  0
 12 13  1  0
 13 14  2  0
 15 13  1  0
 16 15  1  1
 17 16  1  0
 17 10  1  0
 18 16  1  0
 18 19  2  0
 20 18  1  0
 21 20  1  0
 21 22  1  6
 22 23  1  0
 23 24  1  0
 24 28  1  0
 25 24  2  0
 26 21  1  0
 27 26  2  0
 29 26  1  0
M  END
$$$$
