RNE.pdb
     RDKit          3D

 29 28  0  0  1  0  0  0  0  0999 V2000
   28.6912  -23.9434  -15.8507 N   0  0  0  0  0  0  0  0  0  0  0  0
   27.5940  -23.6885  -16.7053 C   0  0  0  0  0  0  0  0  0  0  0  0
   27.0165  -24.7032  -17.2942 N   0  0  0  0  0  0  0  0  0  0  0  0
   27.0883  -22.3968  -16.9576 N   0  0  0  0  0  0  0  0  0  0  0  0
   27.5777  -21.2460  -16.1865 C   0  0  0  0  0  0  0  0  0  0  0  0
   26.5469  -20.8428  -15.1484 C   0  0  0  0  0  0  0  0  0  0  0  0
   25.1932  -20.6613  -15.7281 C   0  0  0  0  0  0  0  0  0  0  0  0
   24.0916  -20.3623  -14.7381 C   0  0  2  0  0  0  0  0  0  0  0  0
   24.0719  -21.5065  -13.8305 N   0  0  0  0  0  0  0  0  0  0  0  0
   22.7625  -20.1776  -15.3681 C   0  0  0  0  0  0  0  0  0  0  0  0
   22.5856  -19.2685  -16.2555 O   0  0  0  0  0  0  0  0  0  0  0  0
   26.1835  -24.5777  -17.8767 N   0  0  0  0  0  0  0  0  0  0  0  0
   19.6767  -22.9300  -18.4252 C   0  0  0  0  0  0  0  0  0  0  0  0
   21.1029  -23.0274  -18.1742 O   0  0  0  0  0  0  0  0  0  0  0  0
   21.7145  -23.7195  -18.9998 C   0  0  0  0  0  0  0  0  0  0  0  0
   21.6404  -22.3311  -17.0279 C   0  0  2  0  0  0  0  0  0  0  0  0
   20.7516  -21.4892  -16.1688 N   0  0  0  0  0  0  0  0  0  0  0  0
   21.6339  -20.9454  -15.0652 C   0  0  0  0  0  0  0  0  0  0  0  0
   19.6234  -22.1662  -15.5283 O   0  0  0  0  0  0  0  0  0  0  0  0
   19.9103  -23.0546  -14.6238 N   0  0  0  0  0  0  0  0  0  0  0  0
   18.2437  -21.9815  -15.7546 C   0  0  1  0  0  0  0  0  0  0  0  0
   17.2792  -22.1588  -14.6574 C   0  0  0  0  0  0  0  0  0  0  0  0
   18.0276  -22.6758  -13.4766 C   0  0  0  0  0  0  0  0  0  0  0  0
   17.5460  -23.9512  -12.8895 C   0  0  0  0  0  0  0  0  0  0  0  0
   18.3503  -24.4246  -11.7520 O   0  0  0  0  0  0  0  0  0  0  0  0
   18.1829  -23.9362  -10.6214 C   0  0  0  0  0  0  0  0  0  0  0  0
   16.6228  -20.8839  -14.3325 O   0  0  0  0  0  0  0  0  0  0  0  0
   15.6924  -20.7871  -13.4951 O   0  0  0  0  0  0  0  0  0  0  0  0
   19.3027  -25.4158  -11.9163 O   0  0  0  0  0  0  0  0  0  0  0  0
  1  2  1  0
  2  3  2  0
  4  5  1  0
  4  2  1  0
  6  5  1  0
  7  6  1  0
  8 10  1  0
  8  7  1  0
  8  9  1  1
 10 11  2  0
 12 13  1  0
 13 14  2  0
 15 13  1  0
 16 15  1  6
 17 16  1  0
 17 10  1  0
 18 16  1  0
 18 19  2  0
 20 18  1  0
 21 20  1  0
 21 22  1  6
 22 23  1  0
 23 24  1  0
 24 28  1  0
 25 24  2  0
 26 21  1  0
 27 26  2  0
 29 26  1  0
M  END
$$$$
