RNE.pdb
     RDKit          3D

 29 28  0  0  1  0  0  0  0  0999 V2000
   12.2113   -9.6424  -10.7675 N   0  0  0  0  0  0  0  0  0  0  0  0
   11.8417  -10.9855  -11.0092 C   0  0  0  0  0  0  0  0  0  0  0  0
   10.5795  -11.2539  -11.2203 N   0  0  0  0  0  0  0  0  0  0  0  0
   12.7622  -12.0531  -11.0345 N   0  0  0  0  0  0  0  0  0  0  0  0
   14.2031  -11.7917  -10.9170 C   0  0  0  0  0  0  0  0  0  0  0  0
   14.7319  -11.2141  -12.2169 C   0  0  0  0  0  0  0  0  0  0  0  0
   16.2011  -11.0085  -12.1947 C   0  0  0  0  0  0  0  0  0  0  0  0
   16.8207  -10.5701  -13.5012 C   0  0  2  0  0  0  0  0  0  0  0  0
   17.6717  -11.6833  -13.9136 N   0  0  0  0  0  0  0  0  0  0  0  0
   17.6150   -9.3234  -13.3917 C   0  0  0  0  0  0  0  0  0  0  0  0
   17.0321   -8.1973  -13.1983 O   0  0  0  0  0  0  0  0  0  0  0  0
   10.2497  -12.2181  -11.3231 N   0  0  0  0  0  0  0  0  0  0  0  0
   21.6293   -5.8836  -12.6102 C   0  0  0  0  0  0  0  0  0  0  0  0
   21.8905   -7.2299  -12.1348 O   0  0  0  0  0  0  0  0  0  0  0  0
   22.9534   -7.3468  -11.5096 C   0  0  0  0  0  0  0  0  0  0  0  0
   20.9171   -8.2559  -12.4307 C   0  0  1  0  0  0  0  0  0  0  0  0
   19.7420   -7.9545  -13.3053 N   0  0  0  0  0  0  0  0  0  0  0  0
   19.0091   -9.2672  -13.4837 C   0  0  0  0  0  0  0  0  0  0  0  0
   20.0335   -7.4354  -14.6420 O   0  0  0  0  0  0  0  0  0  0  0  0
   20.5451   -8.2710  -15.4962 N   0  0  0  0  0  0  0  0  0  0  0  0
   19.8274   -6.1335  -15.1439 C   0  0  1  0  0  0  0  0  0  0  0  0
   20.2172   -5.7969  -16.5223 C   0  0  0  0  0  0  0  0  0  0  0  0
   18.9723   -5.4879  -17.2816 C   0  0  0  0  0  0  0  0  0  0  0  0
   19.1442   -5.0204  -18.6800 C   0  0  0  0  0  0  0  0  0  0  0  0
   17.8769   -4.7975  -19.3934 O   0  0  0  0  0  0  0  0  0  0  0  0
   16.7925   -4.9926  -18.8181 C   0  0  0  0  0  0  0  0  0  0  0  0
   21.1284   -4.6431  -16.5368 O   0  0  0  0  0  0  0  0  0  0  0  0
   21.1244   -3.7567  -15.6477 O   0  0  0  0  0  0  0  0  0  0  0  0
   17.8661   -4.3691  -20.7099 O   0  0  0  0  0  0  0  0  0  0  0  0
  1  2  1  0
  2  3  2  0
  4  5  1  0
  4  2  1  0
  6  5  1  0
  7  6  1  0
  8 10  1  0
  8  7  1  0
  8  9  1  1
 10 11  2  0
 12 13  1  0
 13 14  2  0
 15 13  1  0
 16 15  1  1
 17 16  1  0
 17 10  1  0
 18 16  1  0
 18 19  2  0
 20 18  1  0
 21 20  1  0
 21 22  1  6
 22 23  1  0
 23 24  1  0
 24 28  1  0
 25 24  2  0
 26 21  1  0
 27 26  2  0
 29 26  1  0
M  END
$$$$
