RNE.pdb
     RDKit          3D

 29 28  0  0  1  0  0  0  0  0999 V2000
   24.8647  -21.2955   -8.2954 N   0  0  0  0  0  0  0  0  0  0  0  0
   24.5650  -20.9942   -9.6439 C   0  0  0  0  0  0  0  0  0  0  0  0
   23.3405  -21.1783  -10.0640 N   0  0  0  0  0  0  0  0  0  0  0  0
   25.5170  -20.5056  -10.5618 N   0  0  0  0  0  0  0  0  0  0  0  0
   26.4274  -21.4318  -11.2486 C   0  0  0  0  0  0  0  0  0  0  0  0
   27.7827  -20.7773  -11.4416 C   0  0  0  0  0  0  0  0  0  0  0  0
   27.8860  -20.0464  -12.7286 C   0  0  0  0  0  0  0  0  0  0  0  0
   26.5783  -19.5727  -13.3194 C   0  0  2  0  0  0  0  0  0  0  0  0
   25.6663  -20.7060  -13.1881 N   0  0  0  0  0  0  0  0  0  0  0  0
   26.6853  -19.1552  -14.7377 C   0  0  0  0  0  0  0  0  0  0  0  0
   27.4824  -18.2094  -15.0774 O   0  0  0  0  0  0  0  0  0  0  0  0
   22.6027  -21.5004   -9.4308 N   0  0  0  0  0  0  0  0  0  0  0  0
   26.1021  -21.2297  -20.3369 C   0  0  0  0  0  0  0  0  0  0  0  0
   26.4720  -20.0971  -19.5079 O   0  0  0  0  0  0  0  0  0  0  0  0
   26.7697  -19.0792  -20.1479 C   0  0  0  0  0  0  0  0  0  0  0  0
   26.4545  -20.2703  -18.0735 C   0  0  2  0  0  0  0  0  0  0  0  0
   26.0259  -19.1494  -17.1811 N   0  0  0  0  0  0  0  0  0  0  0  0
   25.9600  -19.7313  -15.7851 C   0  0  0  0  0  0  0  0  0  0  0  0
   24.7221  -18.5473  -17.4620 O   0  0  0  0  0  0  0  0  0  0  0  0
   23.6734  -19.2467  -17.1449 N   0  0  0  0  0  0  0  0  0  0  0  0
   24.4394  -17.2890  -18.0330 C   0  0  1  0  0  0  0  0  0  0  0  0
   23.0465  -16.8593  -18.2346 C   0  0  0  0  0  0  0  0  0  0  0  0
   23.0138  -15.3721  -18.1393 C   0  0  0  0  0  0  0  0  0  0  0  0
   23.2332  -14.6193  -19.3997 C   0  0  0  0  0  0  0  0  0  0  0  0
   23.8658  -13.3051  -19.2061 O   0  0  0  0  0  0  0  0  0  0  0  0
   24.2044  -12.9355  -18.0688 C   0  0  0  0  0  0  0  0  0  0  0  0
   22.5517  -17.3016  -19.5465 O   0  0  0  0  0  0  0  0  0  0  0  0
   23.3122  -17.6472  -20.4838 O   0  0  0  0  0  0  0  0  0  0  0  0
   24.0952  -12.4599  -20.2783 O   0  0  0  0  0  0  0  0  0  0  0  0
  1  2  1  0
  2  3  2  0
  4  5  1  0
  4  2  1  0
  6  5  1  0
  7  6  1  0
  8 10  1  0
  8  7  1  0
  8  9  1  6
 10 11  2  0
 12 13  1  0
 13 14  2  0
 15 13  1  0
 16 15  1  1
 17 16  1  0
 17 10  1  0
 18 16  1  0
 18 19  2  0
 20 18  1  0
 21 20  1  0
 21 22  1  6
 22 23  1  0
 23 24  1  0
 24 28  1  0
 25 24  2  0
 26 21  1  0
 27 26  2  0
 29 26  1  0
M  END
$$$$
