GGY.pdb
     RDKit          3D

 21 21  0  0  1  0  0  0  0  0999 V2000
    5.0129  -19.3662   19.6805 N   0  0  0  0  0  0  0  0  0  0  0  0
    5.2086  -18.4447   20.7563 C   0  0  0  0  0  0  0  0  0  0  0  0
    6.2879  -17.4501   20.4499 C   0  0  0  0  0  0  0  0  0  0  0  0
    6.3878  -17.0670   19.2526 O   0  0  0  0  0  0  0  0  0  0  0  0
    7.1599  -16.9525   21.4308 N   0  0  0  0  0  0  0  0  0  0  0  0
    8.1239  -15.9347   21.1214 C   0  0  0  0  0  0  0  0  0  0  0  0
    8.8954  -15.6273   22.3617 C   0  0  0  0  0  0  0  0  0  0  0  0
    9.8492  -14.8091   22.3115 O   0  0  0  0  0  0  0  0  0  0  0  0
    6.3309  -10.8183   26.6153 O   0  0  0  0  0  0  0  0  0  0  0  0
    6.8644  -12.0919   26.4772 C   0  0  0  0  0  0  0  0  0  0  0  0
    5.9981  -13.1794   26.5163 C   0  0  0  0  0  0  0  0  0  0  0  0
    6.5458  -14.4245   26.3782 C   0  0  0  0  0  0  0  0  0  0  0  0
    7.8966  -14.6528   26.2046 C   0  0  0  0  0  0  0  0  0  0  0  0
    8.4699  -15.9964   26.0577 C   0  0  0  0  0  0  0  0  0  0  0  0
    9.3040  -16.0855   24.8261 C   0  0  2  0  0  0  0  0  0  0  0  0
    8.5683  -16.2457   23.5999 N   0  0  0  0  0  0  0  0  0  0  0  0
   10.3855  -17.1192   24.9235 C   0  0  0  0  0  0  0  0  0  0  0  0
   11.5037  -16.9546   25.7097 O   0  0  0  0  0  0  0  0  0  0  0  0
    8.7525  -13.5610   26.1670 C   0  0  0  0  0  0  0  0  0  0  0  0
    8.2233  -12.2834   26.3048 C   0  0  0  0  0  0  0  0  0  0  0  0
   10.2556  -18.1779   24.2580 O   0  0  0  0  0  0  0  0  0  0  0  0
  2  1  1  0
  3  2  1  0
  4  3  2  0
  5  3  1  0
  6  5  1  0
  7 16  1  0
  7  6  1  0
  8  7  2  0
  9 10  1  0
 10 11  2  0
 10 20  1  0
 11 12  1  0
 12 13  2  0
 13 14  1  0
 15 14  1  1
 15 16  1  0
 15 17  1  0
 17 18  1  0
 19 13  1  0
 20 19  2  0
 21 17  2  0
M  END
$$$$
