GGY.pdb
     RDKit          3D

 21 21  0  0  1  0  0  0  0  0999 V2000
    5.4029  -20.2684   20.8563 N   0  0  0  0  0  0  0  0  0  0  0  0
    5.3054  -18.8497   20.7063 C   0  0  0  0  0  0  0  0  0  0  0  0
    5.5460  -18.1336   22.0014 C   0  0  0  0  0  0  0  0  0  0  0  0
    5.7757  -16.8955   21.9349 O   0  0  0  0  0  0  0  0  0  0  0  0
    5.5225  -18.7868   23.2436 N   0  0  0  0  0  0  0  0  0  0  0  0
    5.8188  -18.0831   24.4593 C   0  0  0  0  0  0  0  0  0  0  0  0
    7.2271  -17.5937   24.3862 C   0  0  0  0  0  0  0  0  0  0  0  0
    8.0216  -18.1129   23.5610 O   0  0  0  0  0  0  0  0  0  0  0  0
    5.6342  -11.2497   27.7010 O   0  0  0  0  0  0  0  0  0  0  0  0
    6.4764  -12.0685   26.9621 C   0  0  0  0  0  0  0  0  0  0  0  0
    7.7667  -12.2869   27.4333 C   0  0  0  0  0  0  0  0  0  0  0  0
    8.5788  -13.0968   26.6892 C   0  0  0  0  0  0  0  0  0  0  0  0
    8.1875  -13.7001   25.5102 C   0  0  0  0  0  0  0  0  0  0  0  0
    9.0715  -14.5677   24.7220 C   0  0  0  0  0  0  0  0  0  0  0  0
    9.0037  -15.9750   25.2070 C   0  0  2  0  0  0  0  0  0  0  0  0
    7.6844  -16.5488   25.2356 N   0  0  0  0  0  0  0  0  0  0  0  0
    9.6872  -16.1743   26.5264 C   0  0  0  0  0  0  0  0  0  0  0  0
    9.0281  -16.6360   27.6436 O   0  0  0  0  0  0  0  0  0  0  0  0
    6.8980  -13.4758   25.0487 C   0  0  0  0  0  0  0  0  0  0  0  0
    6.0506  -12.6567   25.7848 C   0  0  0  0  0  0  0  0  0  0  0  0
   10.9134  -15.9085   26.6053 O   0  0  0  0  0  0  0  0  0  0  0  0
  2  1  1  0
  3  2  1  0
  4  3  2  0
  5  3  1  0
  6  5  1  0
  7 16  1  0
  7  6  1  0
  8  7  2  0
  9 10  1  0
 10 11  2  0
 10 20  1  0
 11 12  1  0
 12 13  2  0
 13 14  1  0
 15 14  1  1
 15 16  1  0
 15 17  1  0
 17 18  1  0
 19 13  1  0
 20 19  2  0
 21 17  2  0
M  END
$$$$
