GGY.pdb
     RDKit          3D

 21 21  0  0  1  0  0  0  0  0999 V2000
    5.0537  -19.4941   23.6503 N   0  0  0  0  0  0  0  0  0  0  0  0
    5.5281  -18.1456   23.6150 C   0  0  0  0  0  0  0  0  0  0  0  0
    6.7459  -18.0047   22.7517 C   0  0  0  0  0  0  0  0  0  0  0  0
    7.4861  -19.0194   22.6392 O   0  0  0  0  0  0  0  0  0  0  0  0
    7.0700  -16.8109   22.0885 N   0  0  0  0  0  0  0  0  0  0  0  0
    8.2680  -16.6971   21.3056 C   0  0  0  0  0  0  0  0  0  0  0  0
    9.3566  -16.1809   22.1869 C   0  0  0  0  0  0  0  0  0  0  0  0
   10.5037  -15.9902   21.7080 O   0  0  0  0  0  0  0  0  0  0  0  0
    5.1303  -12.5101   26.8933 O   0  0  0  0  0  0  0  0  0  0  0  0
    6.3670  -12.9077   26.4052 C   0  0  0  0  0  0  0  0  0  0  0  0
    7.2896  -13.4420   27.2984 C   0  0  0  0  0  0  0  0  0  0  0  0
    8.5012  -13.8269   26.7954 C   0  0  0  0  0  0  0  0  0  0  0  0
    8.8496  -13.7132   25.4640 C   0  0  0  0  0  0  0  0  0  0  0  0
   10.1553  -14.1311   24.9387 C   0  0  0  0  0  0  0  0  0  0  0  0
   10.1276  -15.5628   24.5265 C   0  0  2  0  0  0  0  0  0  0  0  0
    9.1163  -15.9014   23.5605 N   0  0  0  0  0  0  0  0  0  0  0  0
   10.0738  -16.5072   25.6897 C   0  0  0  0  0  0  0  0  0  0  0  0
    9.0582  -17.4211   25.8599 O   0  0  0  0  0  0  0  0  0  0  0  0
    7.9219  -13.1787   24.5808 C   0  0  0  0  0  0  0  0  0  0  0  0
    6.6820  -12.7790   25.0645 C   0  0  0  0  0  0  0  0  0  0  0  0
   11.0002  -16.4565   26.5381 O   0  0  0  0  0  0  0  0  0  0  0  0
  2  1  1  0
  3  2  1  0
  4  3  2  0
  5  3  1  0
  6  5  1  0
  7 16  1  0
  7  6  1  0
  8  7  2  0
  9 10  1  0
 10 11  2  0
 10 20  1  0
 11 12  1  0
 12 13  2  0
 13 14  1  0
 15 14  1  1
 15 16  1  0
 15 17  1  0
 17 18  1  0
 19 13  1  0
 20 19  2  0
 21 17  2  0
M  END
$$$$
