GGY.pdb
     RDKit          3D

 21 21  0  0  1  0  0  0  0  0999 V2000
    7.5950  -13.0492   17.8843 N   0  0  0  0  0  0  0  0  0  0  0  0
    8.5058  -14.0476   18.3518 C   0  0  0  0  0  0  0  0  0  0  0  0
    8.1415  -14.5380   19.7211 C   0  0  0  0  0  0  0  0  0  0  0  0
    8.2023  -13.7007   20.6620 O   0  0  0  0  0  0  0  0  0  0  0  0
    7.7479  -15.8618   19.9715 N   0  0  0  0  0  0  0  0  0  0  0  0
    7.3415  -16.2812   21.2829 C   0  0  0  0  0  0  0  0  0  0  0  0
    8.5172  -16.1700   22.1959 C   0  0  0  0  0  0  0  0  0  0  0  0
    9.6554  -16.5129   21.7852 O   0  0  0  0  0  0  0  0  0  0  0  0
    4.9926  -11.9325   27.2274 O   0  0  0  0  0  0  0  0  0  0  0  0
    6.1354  -12.4395   26.6252 C   0  0  0  0  0  0  0  0  0  0  0  0
    7.1587  -12.9112   27.4408 C   0  0  0  0  0  0  0  0  0  0  0  0
    8.2749  -13.4062   26.8259 C   0  0  0  0  0  0  0  0  0  0  0  0
    8.4348  -13.4603   25.4553 C   0  0  0  0  0  0  0  0  0  0  0  0
    9.6401  -13.9949   24.8095 C   0  0  0  0  0  0  0  0  0  0  0  0
    9.4520  -15.4254   24.4368 C   0  0  2  0  0  0  0  0  0  0  0  0
    8.3700  -15.6819   23.5235 N   0  0  0  0  0  0  0  0  0  0  0  0
    9.3564  -16.3337   25.6258 C   0  0  0  0  0  0  0  0  0  0  0  0
    8.2464  -17.1059   25.8851 O   0  0  0  0  0  0  0  0  0  0  0  0
    7.4080  -12.9872   24.6504 C   0  0  0  0  0  0  0  0  0  0  0  0
    6.2615  -12.4783   25.2484 C   0  0  0  0  0  0  0  0  0  0  0  0
   10.3364  -16.3874   26.4114 O   0  0  0  0  0  0  0  0  0  0  0  0
  2  1  1  0
  3  2  1  0
  4  3  2  0
  5  3  1  0
  6  5  1  0
  7 16  1  0
  7  6  1  0
  8  7  2  0
  9 10  1  0
 10 11  2  0
 10 20  1  0
 11 12  1  0
 12 13  2  0
 13 14  1  0
 15 14  1  1
 15 16  1  0
 15 17  1  0
 17 18  1  0
 19 13  1  0
 20 19  2  0
 21 17  2  0
M  END
$$$$
