GGY.pdb
     RDKit          3D

 21 21  0  0  1  0  0  0  0  0999 V2000
    5.8032  -17.0669   19.3583 N   0  0  0  0  0  0  0  0  0  0  0  0
    6.4007  -16.9874   20.6550 C   0  0  0  0  0  0  0  0  0  0  0  0
    7.8843  -16.7866   20.5746 C   0  0  0  0  0  0  0  0  0  0  0  0
    8.3849  -16.6854   19.4216 O   0  0  0  0  0  0  0  0  0  0  0  0
    8.7012  -16.7113   21.7136 N   0  0  0  0  0  0  0  0  0  0  0  0
   10.1181  -16.5100   21.6003 C   0  0  0  0  0  0  0  0  0  0  0  0
   10.6913  -16.4277   22.9760 C   0  0  0  0  0  0  0  0  0  0  0  0
   11.9360  -16.3246   23.1237 O   0  0  0  0  0  0  0  0  0  0  0  0
    5.4870  -12.6477   24.7924 O   0  0  0  0  0  0  0  0  0  0  0  0
    6.6103  -13.3603   25.1874 C   0  0  0  0  0  0  0  0  0  0  0  0
    6.4763  -14.2910   26.2124 C   0  0  0  0  0  0  0  0  0  0  0  0
    7.5960  -14.9812   26.5850 C   0  0  0  0  0  0  0  0  0  0  0  0
    8.8355  -14.8030   26.0028 C   0  0  0  0  0  0  0  0  0  0  0  0
   10.0293  -15.5522   26.4142 C   0  0  0  0  0  0  0  0  0  0  0  0
   10.3009  -16.6754   25.4733 C   0  0  2  0  0  0  0  0  0  0  0  0
    9.8511  -16.4640   24.1229 N   0  0  0  0  0  0  0  0  0  0  0  0
    9.8141  -17.9986   25.9833 C   0  0  0  0  0  0  0  0  0  0  0  0
    8.9178  -18.7797   25.2889 O   0  0  0  0  0  0  0  0  0  0  0  0
    8.9587  -13.8721   24.9810 C   0  0  0  0  0  0  0  0  0  0  0  0
    7.8368  -13.1559   24.5816 C   0  0  0  0  0  0  0  0  0  0  0  0
   10.2499  -18.4041   27.0906 O   0  0  0  0  0  0  0  0  0  0  0  0
  2  1  1  0
  3  2  1  0
  4  3  2  0
  5  3  1  0
  6  5  1  0
  7 16  1  0
  7  6  1  0
  8  7  2  0
  9 10  1  0
 10 11  2  0
 10 20  1  0
 11 12  1  0
 12 13  2  0
 13 14  1  0
 15 14  1  1
 15 16  1  0
 15 17  1  0
 17 18  1  0
 19 13  1  0
 20 19  2  0
 21 17  2  0
M  END
$$$$
