GGY.pdb
     RDKit          3D

 21 21  0  0  1  0  0  0  0  0999 V2000
    4.5809  -20.8066   20.6111 N   0  0  0  0  0  0  0  0  0  0  0  0
    5.1878  -21.8001   21.4414 C   0  0  0  0  0  0  0  0  0  0  0  0
    6.1502  -21.1972   22.4205 C   0  0  0  0  0  0  0  0  0  0  0  0
    7.3761  -21.2700   22.1342 O   0  0  0  0  0  0  0  0  0  0  0  0
    5.7328  -20.5751   23.6074 N   0  0  0  0  0  0  0  0  0  0  0  0
    6.6764  -19.9505   24.4909 C   0  0  0  0  0  0  0  0  0  0  0  0
    6.6064  -18.4740   24.2834 C   0  0  0  0  0  0  0  0  0  0  0  0
    5.4949  -17.9325   24.0528 O   0  0  0  0  0  0  0  0  0  0  0  0
    6.7953  -10.4139   26.8381 O   0  0  0  0  0  0  0  0  0  0  0  0
    6.8821  -11.7846   26.6397 C   0  0  0  0  0  0  0  0  0  0  0  0
    8.1318  -12.3882   26.7325 C   0  0  0  0  0  0  0  0  0  0  0  0
    8.1934  -13.7394   26.5333 C   0  0  0  0  0  0  0  0  0  0  0  0
    7.0927  -14.5233   26.2488 C   0  0  0  0  0  0  0  0  0  0  0  0
    7.1750  -15.9739   26.0374 C   0  0  0  0  0  0  0  0  0  0  0  0
    7.8129  -16.2836   24.7268 C   0  0  2  0  0  0  0  0  0  0  0  0
    7.7778  -17.6698   24.3423 N   0  0  0  0  0  0  0  0  0  0  0  0
    9.2078  -15.7463   24.6118 C   0  0  0  0  0  0  0  0  0  0  0  0
    9.5284  -14.6739   23.8101 O   0  0  0  0  0  0  0  0  0  0  0  0
    5.8504  -13.9114   26.1584 C   0  0  0  0  0  0  0  0  0  0  0  0
    5.7580  -12.5391   26.3563 C   0  0  0  0  0  0  0  0  0  0  0  0
   10.1148  -16.3031   25.2808 O   0  0  0  0  0  0  0  0  0  0  0  0
  2  1  1  0
  3  2  1  0
  4  3  2  0
  5  3  1  0
  6  5  1  0
  7 16  1  0
  7  6  1  0
  8  7  2  0
  9 10  1  0
 10 11  2  0
 10 20  1  0
 11 12  1  0
 12 13  2  0
 13 14  1  0
 15 14  1  1
 15 16  1  0
 15 17  1  0
 17 18  1  0
 19 13  1  0
 20 19  2  0
 21 17  2  0
M  END
$$$$
