GGY.pdb
     RDKit          3D

 21 21  0  0  1  0  0  0  0  0999 V2000
    5.7600  -19.4937   24.4795 N   0  0  0  0  0  0  0  0  0  0  0  0
    6.2637  -19.8149   23.1803 C   0  0  0  0  0  0  0  0  0  0  0  0
    7.4702  -18.9960   22.8313 C   0  0  0  0  0  0  0  0  0  0  0  0
    8.5967  -19.5012   23.0883 O   0  0  0  0  0  0  0  0  0  0  0  0
    7.3784  -17.7239   22.2454 N   0  0  0  0  0  0  0  0  0  0  0  0
    8.4740  -17.1659   21.5043 C   0  0  0  0  0  0  0  0  0  0  0  0
    9.4017  -16.5025   22.4673 C   0  0  0  0  0  0  0  0  0  0  0  0
   10.5154  -16.0797   22.0639 O   0  0  0  0  0  0  0  0  0  0  0  0
    4.8658  -12.5129   26.7258 O   0  0  0  0  0  0  0  0  0  0  0  0
    6.1047  -12.9633   26.2921 C   0  0  0  0  0  0  0  0  0  0  0  0
    7.2059  -12.7673   27.1190 C   0  0  0  0  0  0  0  0  0  0  0  0
    8.4162  -13.2191   26.6714 C   0  0  0  0  0  0  0  0  0  0  0  0
    8.5971  -13.8511   25.4570 C   0  0  0  0  0  0  0  0  0  0  0  0
    9.9038  -14.3308   24.9900 C   0  0  0  0  0  0  0  0  0  0  0  0
    9.9080  -15.8152   24.8592 C   0  0  2  0  0  0  0  0  0  0  0  0
    9.0454  -16.3410   23.8346 N   0  0  0  0  0  0  0  0  0  0  0  0
    9.6614  -16.5194   26.1596 C   0  0  0  0  0  0  0  0  0  0  0  0
    8.6196  -17.4008   26.3427 O   0  0  0  0  0  0  0  0  0  0  0  0
    7.4920  -14.0418   24.6394 C   0  0  0  0  0  0  0  0  0  0  0  0
    6.2491  -13.5926   25.0690 C   0  0  0  0  0  0  0  0  0  0  0  0
   10.4451  -16.2909   27.1157 O   0  0  0  0  0  0  0  0  0  0  0  0
  2  1  1  0
  3  2  1  0
  4  3  2  0
  5  3  1  0
  6  5  1  0
  7 16  1  0
  7  6  1  0
  8  7  2  0
  9 10  1  0
 10 11  2  0
 10 20  1  0
 11 12  1  0
 12 13  2  0
 13 14  1  0
 15 14  1  1
 15 16  1  0
 15 17  1  0
 17 18  1  0
 19 13  1  0
 20 19  2  0
 21 17  2  0
M  END
$$$$
