GGY.pdb
     RDKit          3D

 21 21  0  0  1  0  0  0  0  0999 V2000
    8.1910  -17.3769   18.2336 N   0  0  0  0  0  0  0  0  0  0  0  0
    7.3536  -18.3669   18.8367 C   0  0  0  0  0  0  0  0  0  0  0  0
    7.1475  -18.1078   20.2990 C   0  0  0  0  0  0  0  0  0  0  0  0
    7.5159  -19.0128   21.0963 O   0  0  0  0  0  0  0  0  0  0  0  0
    6.5739  -16.9224   20.7847 N   0  0  0  0  0  0  0  0  0  0  0  0
    6.3198  -16.7391   22.1856 C   0  0  0  0  0  0  0  0  0  0  0  0
    7.6092  -16.3964   22.8550 C   0  0  0  0  0  0  0  0  0  0  0  0
    8.5567  -15.9291   22.1726 O   0  0  0  0  0  0  0  0  0  0  0  0
    5.9077  -10.8403   26.4432 O   0  0  0  0  0  0  0  0  0  0  0  0
    6.5815  -12.0535   26.4333 C   0  0  0  0  0  0  0  0  0  0  0  0
    7.9717  -12.0379   26.4740 C   0  0  0  0  0  0  0  0  0  0  0  0
    8.6143  -13.2447   26.4633 C   0  0  0  0  0  0  0  0  0  0  0  0
    7.9613  -14.4605   26.4147 C   0  0  0  0  0  0  0  0  0  0  0  0
    8.6656  -15.7486   26.4038 C   0  0  0  0  0  0  0  0  0  0  0  0
    8.9411  -16.1907   25.0076 C   0  0  2  0  0  0  0  0  0  0  0  0
    7.7828  -16.5902   24.2531 N   0  0  0  0  0  0  0  0  0  0  0  0
   10.0053  -17.2435   24.9249 C   0  0  0  0  0  0  0  0  0  0  0  0
   11.3493  -16.9486   24.9737 O   0  0  0  0  0  0  0  0  0  0  0  0
    6.5740  -14.4651   26.3743 C   0  0  0  0  0  0  0  0  0  0  0  0
    5.8945  -13.2530   26.3841 C   0  0  0  0  0  0  0  0  0  0  0  0
    9.6456  -18.4425   24.8087 O   0  0  0  0  0  0  0  0  0  0  0  0
  2  1  1  0
  3  2  1  0
  4  3  2  0
  5  3  1  0
  6  5  1  0
  7 16  1  0
  7  6  1  0
  8  7  2  0
  9 10  1  0
 10 11  2  0
 10 20  1  0
 11 12  1  0
 12 13  2  0
 13 14  1  0
 15 14  1  1
 15 16  1  0
 15 17  1  0
 17 18  1  0
 19 13  1  0
 20 19  2  0
 21 17  2  0
M  END
$$$$
