GGY.pdb
     RDKit          3D

 21 21  0  0  1  0  0  0  0  0999 V2000
    9.1604  -21.0494   21.6079 N   0  0  0  0  0  0  0  0  0  0  0  0
    9.3431  -20.0924   22.6545 C   0  0  0  0  0  0  0  0  0  0  0  0
    8.0907  -19.3130   22.9231 C   0  0  0  0  0  0  0  0  0  0  0  0
    7.6654  -18.5774   21.9913 O   0  0  0  0  0  0  0  0  0  0  0  0
    7.4041  -19.3807   24.1455 N   0  0  0  0  0  0  0  0  0  0  0  0
    6.1819  -18.6567   24.3527 C   0  0  0  0  0  0  0  0  0  0  0  0
    6.5170  -17.2133   24.5328 C   0  0  0  0  0  0  0  0  0  0  0  0
    5.5928  -16.3813   24.7210 O   0  0  0  0  0  0  0  0  0  0  0  0
   10.8038  -15.8942   30.3556 O   0  0  0  0  0  0  0  0  0  0  0  0
   10.0533  -15.5945   29.2275 C   0  0  0  0  0  0  0  0  0  0  0  0
   10.2037  -14.3391   28.6477 C   0  0  0  0  0  0  0  0  0  0  0  0
    9.4543  -14.0659   27.5373 C   0  0  0  0  0  0  0  0  0  0  0  0
    8.5685  -14.9612   26.9709 C   0  0  0  0  0  0  0  0  0  0  0  0
    7.7704  -14.6529   25.7778 C   0  0  0  0  0  0  0  0  0  0  0  0
    8.2851  -15.3911   24.5901 C   0  0  2  0  0  0  0  0  0  0  0  0
    7.8659  -16.7643   24.4950 N   0  0  0  0  0  0  0  0  0  0  0  0
    9.7728  -15.2888   24.4353 C   0  0  0  0  0  0  0  0  0  0  0  0
   10.4122  -14.1018   24.1563 O   0  0  0  0  0  0  0  0  0  0  0  0
    8.4257  -16.2110   27.5570 C   0  0  0  0  0  0  0  0  0  0  0  0
    9.1750  -16.5162   28.6869 C   0  0  0  0  0  0  0  0  0  0  0  0
   10.4564  -16.3353   24.5700 O   0  0  0  0  0  0  0  0  0  0  0  0
  2  1  1  0
  3  2  1  0
  4  3  2  0
  5  3  1  0
  6  5  1  0
  7 16  1  0
  7  6  1  0
  8  7  2  0
  9 10  1  0
 10 11  2  0
 10 20  1  0
 11 12  1  0
 12 13  2  0
 13 14  1  0
 15 14  1  1
 15 16  1  0
 15 17  1  0
 17 18  1  0
 19 13  1  0
 20 19  2  0
 21 17  2  0
M  END
$$$$
