GGY.pdb
     RDKit          3D

 21 21  0  0  1  0  0  0  0  0999 V2000
    5.2863  -19.2788   20.8343 N   0  0  0  0  0  0  0  0  0  0  0  0
    5.3420  -18.1683   21.7335 C   0  0  0  0  0  0  0  0  0  0  0  0
    6.3661  -17.1583   21.3103 C   0  0  0  0  0  0  0  0  0  0  0  0
    7.3049  -17.5706   20.5762 O   0  0  0  0  0  0  0  0  0  0  0  0
    6.3066  -15.8109   21.6989 N   0  0  0  0  0  0  0  0  0  0  0  0
    7.3416  -14.8854   21.3338 C   0  0  0  0  0  0  0  0  0  0  0  0
    8.3511  -14.8539   22.4329 C   0  0  0  0  0  0  0  0  0  0  0  0
    9.3836  -14.1471   22.3060 O   0  0  0  0  0  0  0  0  0  0  0  0
    5.9362  -10.7625   26.9391 O   0  0  0  0  0  0  0  0  0  0  0  0
    6.5857  -11.9699   26.7245 C   0  0  0  0  0  0  0  0  0  0  0  0
    5.8193  -13.0841   26.3988 C   0  0  0  0  0  0  0  0  0  0  0  0
    6.4803  -14.2628   26.1919 C   0  0  0  0  0  0  0  0  0  0  0  0
    7.8510  -14.4004   26.2888 C   0  0  0  0  0  0  0  0  0  0  0  0
    8.5465  -15.6736   26.0636 C   0  0  0  0  0  0  0  0  0  0  0  0
    9.1207  -15.7285   24.6896 C   0  0  2  0  0  0  0  0  0  0  0  0
    8.1632  -15.6112   23.6219 N   0  0  0  0  0  0  0  0  0  0  0  0
   10.0026  -16.9208   24.4697 C   0  0  0  0  0  0  0  0  0  0  0  0
    9.7093  -17.9042   23.5518 O   0  0  0  0  0  0  0  0  0  0  0  0
    8.6065  -13.2827   26.6143 C   0  0  0  0  0  0  0  0  0  0  0  0
    7.9611  -12.0712   26.8301 C   0  0  0  0  0  0  0  0  0  0  0  0
   11.0524  -17.0164   25.1547 O   0  0  0  0  0  0  0  0  0  0  0  0
  2  1  1  0
  3  2  1  0
  4  3  2  0
  5  3  1  0
  6  5  1  0
  7 16  1  0
  7  6  1  0
  8  7  2  0
  9 10  1  0
 10 11  2  0
 10 20  1  0
 11 12  1  0
 12 13  2  0
 13 14  1  0
 15 14  1  1
 15 16  1  0
 15 17  1  0
 17 18  1  0
 19 13  1  0
 20 19  2  0
 21 17  2  0
M  END
$$$$
