GGY.pdb
     RDKit          3D

 21 21  0  0  1  0  0  0  0  0999 V2000
    1.6060  -19.6836   21.0173 N   0  0  0  0  0  0  0  0  0  0  0  0
    2.9243  -19.2018   20.7439 C   0  0  0  0  0  0  0  0  0  0  0  0
    3.6306  -18.7688   21.9935 C   0  0  0  0  0  0  0  0  0  0  0  0
    3.0093  -18.9171   23.0808 O   0  0  0  0  0  0  0  0  0  0  0  0
    4.9228  -18.2209   21.9819 N   0  0  0  0  0  0  0  0  0  0  0  0
    5.6294  -17.9568   23.2033 C   0  0  0  0  0  0  0  0  0  0  0  0
    6.8901  -17.2314   22.8681 C   0  0  0  0  0  0  0  0  0  0  0  0
    7.4897  -17.4944   21.7943 O   0  0  0  0  0  0  0  0  0  0  0  0
    6.2178  -12.1621   28.3119 O   0  0  0  0  0  0  0  0  0  0  0  0
    6.7621  -12.6138   27.1180 C   0  0  0  0  0  0  0  0  0  0  0  0
    5.9133  -12.7947   26.0310 C   0  0  0  0  0  0  0  0  0  0  0  0
    6.4713  -13.2404   24.8652 C   0  0  0  0  0  0  0  0  0  0  0  0
    7.8162  -13.5159   24.7152 C   0  0  0  0  0  0  0  0  0  0  0  0
    8.4008  -13.9941   23.4562 C   0  0  0  0  0  0  0  0  0  0  0  0
    8.6084  -15.4692   23.4944 C   0  0  2  0  0  0  0  0  0  0  0  0
    7.4239  -16.2469   23.7447 N   0  0  0  0  0  0  0  0  0  0  0  0
    9.7092  -15.8828   24.4244 C   0  0  0  0  0  0  0  0  0  0  0  0
   11.0356  -15.6103   24.1752 O   0  0  0  0  0  0  0  0  0  0  0  0
    8.6546  -13.3321   25.8058 C   0  0  0  0  0  0  0  0  0  0  0  0
    8.1146  -12.8799   27.0037 C   0  0  0  0  0  0  0  0  0  0  0  0
    9.3980  -16.5013   25.4737 O   0  0  0  0  0  0  0  0  0  0  0  0
  2  1  1  0
  3  2  1  0
  4  3  2  0
  5  3  1  0
  6  5  1  0
  7 16  1  0
  7  6  1  0
  8  7  2  0
  9 10  1  0
 10 11  2  0
 10 20  1  0
 11 12  1  0
 12 13  2  0
 13 14  1  0
 15 14  1  1
 15 16  1  0
 15 17  1  0
 17 18  1  0
 19 13  1  0
 20 19  2  0
 21 17  2  0
M  END
$$$$
