GGY.pdb
     RDKit          3D

 21 21  0  0  1  0  0  0  0  0999 V2000
    5.7848  -19.9635   24.5397 N   0  0  0  0  0  0  0  0  0  0  0  0
    5.5469  -20.2302   23.1551 C   0  0  0  0  0  0  0  0  0  0  0  0
    6.0376  -19.1163   22.2797 C   0  0  0  0  0  0  0  0  0  0  0  0
    5.4254  -18.9327   21.1926 O   0  0  0  0  0  0  0  0  0  0  0  0
    7.1252  -18.3010   22.6298 N   0  0  0  0  0  0  0  0  0  0  0  0
    7.5337  -17.2072   21.7944 C   0  0  0  0  0  0  0  0  0  0  0  0
    8.6810  -16.5168   22.4539 C   0  0  0  0  0  0  0  0  0  0  0  0
    9.6671  -16.1548   21.7623 O   0  0  0  0  0  0  0  0  0  0  0  0
    5.1806  -12.1306   27.0180 O   0  0  0  0  0  0  0  0  0  0  0  0
    6.3324  -12.6489   26.4432 C   0  0  0  0  0  0  0  0  0  0  0  0
    6.2945  -13.0160   25.1021 C   0  0  0  0  0  0  0  0  0  0  0  0
    7.4407  -13.5241   24.5570 C   0  0  0  0  0  0  0  0  0  0  0  0
    8.6171  -13.6887   25.2613 C   0  0  0  0  0  0  0  0  0  0  0  0
    9.8403  -14.2361   24.6616 C   0  0  0  0  0  0  0  0  0  0  0  0
    9.7815  -15.7238   24.6011 C   0  0  2  0  0  0  0  0  0  0  0  0
    8.6763  -16.2620   23.8530 N   0  0  0  0  0  0  0  0  0  0  0  0
    9.8597  -16.3694   25.9520 C   0  0  0  0  0  0  0  0  0  0  0  0
    8.9111  -17.2566   26.4088 O   0  0  0  0  0  0  0  0  0  0  0  0
    8.6445  -13.3193   26.5988 C   0  0  0  0  0  0  0  0  0  0  0  0
    7.4937  -12.7998   27.1792 C   0  0  0  0  0  0  0  0  0  0  0  0
   10.8368  -16.0844   26.6898 O   0  0  0  0  0  0  0  0  0  0  0  0
  2  1  1  0
  3  2  1  0
  4  3  2  0
  5  3  1  0
  6  5  1  0
  7 16  1  0
  7  6  1  0
  8  7  2  0
  9 10  1  0
 10 11  2  0
 10 20  1  0
 11 12  1  0
 12 13  2  0
 13 14  1  0
 15 14  1  1
 15 16  1  0
 15 17  1  0
 17 18  1  0
 19 13  1  0
 20 19  2  0
 21 17  2  0
M  END
$$$$
