GGY.pdb
     RDKit          3D

 21 21  0  0  1  0  0  0  0  0999 V2000
    3.1210  -19.0484   20.5997 N   0  0  0  0  0  0  0  0  0  0  0  0
    4.3991  -19.4767   21.0769 C   0  0  0  0  0  0  0  0  0  0  0  0
    4.8736  -18.6416   22.2281 C   0  0  0  0  0  0  0  0  0  0  0  0
    4.8372  -17.3900   22.0784 O   0  0  0  0  0  0  0  0  0  0  0  0
    5.3413  -19.2010   23.4275 N   0  0  0  0  0  0  0  0  0  0  0  0
    5.7670  -18.3709   24.5187 C   0  0  0  0  0  0  0  0  0  0  0  0
    7.1107  -17.8123   24.1862 C   0  0  0  0  0  0  0  0  0  0  0  0
    7.8760  -18.4526   23.4208 O   0  0  0  0  0  0  0  0  0  0  0  0
    6.0511  -11.5542   28.0707 O   0  0  0  0  0  0  0  0  0  0  0  0
    6.7052  -12.2747   27.0813 C   0  0  0  0  0  0  0  0  0  0  0  0
    5.9538  -12.7809   26.0259 C   0  0  0  0  0  0  0  0  0  0  0  0
    6.6190  -13.4873   25.0628 C   0  0  0  0  0  0  0  0  0  0  0  0
    7.9800  -13.7200   25.0854 C   0  0  0  0  0  0  0  0  0  0  0  0
    8.6804  -14.4809   24.0433 C   0  0  0  0  0  0  0  0  0  0  0  0
    8.7876  -15.9191   24.4182 C   0  0  2  0  0  0  0  0  0  0  0  0
    7.5389  -16.5664   24.7219 N   0  0  0  0  0  0  0  0  0  0  0  0
    9.7825  -16.1676   25.5120 C   0  0  0  0  0  0  0  0  0  0  0  0
    9.4396  -16.7489   26.7120 O   0  0  0  0  0  0  0  0  0  0  0  0
    8.7207  -13.2107   26.1428 C   0  0  0  0  0  0  0  0  0  0  0  0
    8.0706  -12.4885   27.1361 C   0  0  0  0  0  0  0  0  0  0  0  0
   10.9773  -15.8299   25.3148 O   0  0  0  0  0  0  0  0  0  0  0  0
  2  1  1  0
  3  2  1  0
  4  3  2  0
  5  3  1  0
  6  5  1  0
  7 16  1  0
  7  6  1  0
  8  7  2  0
  9 10  1  0
 10 11  2  0
 10 20  1  0
 11 12  1  0
 12 13  2  0
 13 14  1  0
 15 14  1  1
 15 16  1  0
 15 17  1  0
 17 18  1  0
 19 13  1  0
 20 19  2  0
 21 17  2  0
M  END
$$$$
