QAM.pdb
     RDKit          3D

 23 22  0  0  1  0  0  0  0  0999 V2000
   11.6027  -20.6142   18.3877 N   0  0  0  0  0  0  0  0  0  0  0  0
   10.2371  -21.0446   18.6484 C   0  0  0  0  0  0  0  0  0  0  0  0
    9.9778  -22.2474   18.3919 O   0  0  0  0  0  0  0  0  0  0  0  0
    9.2843  -20.0767   19.1716 C   0  0  0  0  0  0  0  0  0  0  0  0
    9.7935  -18.6880   19.3912 C   0  0  0  0  0  0  0  0  0  0  0  0
    9.3750  -18.1808   20.7404 C   0  0  2  0  0  0  0  0  0  0  0  0
    8.0898  -18.6655   21.0932 N   0  0  0  0  0  0  0  0  0  0  0  0
    9.3541  -16.6728   20.7585 C   0  0  0  0  0  0  0  0  0  0  0  0
   10.4256  -16.0263   20.6362 O   0  0  0  0  0  0  0  0  0  0  0  0
    6.8499  -13.9764   20.4882 C   0  0  0  0  0  0  0  0  0  0  0  0
    8.2026  -14.4816   20.9451 C   0  0  2  0  0  0  0  0  0  0  0  0
    8.1520  -15.9330   20.9102 N   0  0  0  0  0  0  0  0  0  0  0  0
    8.5822  -13.9613   22.2626 C   0  0  0  0  0  0  0  0  0  0  0  0
    8.6508  -12.7116   22.4509 O   0  0  0  0  0  0  0  0  0  0  0  0
    5.2548  -12.3233   27.4594 C   0  0  0  0  0  0  0  0  0  0  0  0
    6.8528  -11.6927   26.9161 S   0  0  0  0  0  0  0  0  0  0  0  0
    7.9381  -13.1563   26.5987 C   0  0  0  0  0  0  0  0  0  0  0  0
    7.8380  -13.5570   25.1563 C   0  0  0  0  0  0  0  0  0  0  0  0
    9.0295  -14.3301   24.7190 C   0  0  2  0  0  0  0  0  0  0  0  0
    8.8776  -14.8036   23.3406 N   0  0  0  0  0  0  0  0  0  0  0  0
    9.2410  -15.5010   25.5662 C   0  0  0  0  0  0  0  0  0  0  0  0
    9.1488  -16.7705   25.0237 O   0  0  0  0  0  0  0  0  0  0  0  0
    9.5057  -15.4200   26.7794 O   0  0  0  0  0  0  0  0  0  0  0  0
  1  2  1  0
  2  4  1  0
  3  2  2  0
  4  5  1  0
  5  6  1  0
  6  8  1  0
  6  7  1  6
  8  9  2  0
 11 10  1  1
 11 13  1  0
 12  8  1  0
 12 11  1  0
 13 14  2  0
 16 15  1  0
 17 16  1  0
 17 18  1  0
 19 18  1  1
 19 21  1  0
 20 19  1  0
 20 13  1  0
 21 23  2  0
 21 22  1  0
M  END
$$$$
