QAM.pdb
     RDKit          3D

 23 22  0  0  1  0  0  0  0  0999 V2000
   13.9484  -15.3343   19.3337 N   0  0  0  0  0  0  0  0  0  0  0  0
   13.0338  -14.3154   18.8404 C   0  0  0  0  0  0  0  0  0  0  0  0
   13.3243  -13.1263   19.1262 O   0  0  0  0  0  0  0  0  0  0  0  0
   11.8696  -14.7305   18.0719 C   0  0  0  0  0  0  0  0  0  0  0  0
   11.1095  -15.9084   18.5923 C   0  0  0  0  0  0  0  0  0  0  0  0
    9.6343  -15.6331   18.5744 C   0  0  2  0  0  0  0  0  0  0  0  0
    9.3497  -14.4118   17.9120 N   0  0  0  0  0  0  0  0  0  0  0  0
    9.0880  -15.5699   19.9788 C   0  0  0  0  0  0  0  0  0  0  0  0
    8.8675  -14.4564   20.5195 O   0  0  0  0  0  0  0  0  0  0  0  0
    7.3120  -17.9118   22.1827 C   0  0  0  0  0  0  0  0  0  0  0  0
    8.0802  -16.6210   21.9891 C   0  0  2  0  0  0  0  0  0  0  0  0
    8.8045  -16.7373   20.7352 N   0  0  0  0  0  0  0  0  0  0  0  0
    8.9588  -16.3135   23.1224 C   0  0  0  0  0  0  0  0  0  0  0  0
   10.1747  -16.6634   23.0905 O   0  0  0  0  0  0  0  0  0  0  0  0
    6.2676  -11.4974   25.8589 C   0  0  0  0  0  0  0  0  0  0  0  0
    7.1297  -12.3832   27.1699 S   0  0  0  0  0  0  0  0  0  0  0  0
    7.5446  -14.0618   26.5134 C   0  0  0  0  0  0  0  0  0  0  0  0
    8.9813  -14.0955   26.0825 C   0  0  0  0  0  0  0  0  0  0  0  0
    9.3303  -15.3903   25.4418 C   0  0  2  0  0  0  0  0  0  0  0  0
    8.5013  -15.6369   24.2589 N   0  0  0  0  0  0  0  0  0  0  0  0
    9.1290  -16.5072   26.3614 C   0  0  0  0  0  0  0  0  0  0  0  0
   10.0321  -16.7282   27.3861 O   0  0  0  0  0  0  0  0  0  0  0  0
    8.1671  -17.2918   26.2733 O   0  0  0  0  0  0  0  0  0  0  0  0
  1  2  1  0
  2  4  1  0
  3  2  2  0
  4  5  1  0
  5  6  1  0
  6  8  1  0
  6  7  1  1
  8  9  2  0
 11 10  1  1
 11 13  1  0
 12  8  1  0
 12 11  1  0
 13 14  2  0
 16 15  1  0
 17 16  1  0
 17 18  1  0
 19 18  1  1
 19 21  1  0
 20 19  1  0
 20 13  1  0
 21 23  2  0
 21 22  1  0
M  END
$$$$
