QAM.pdb
     RDKit          3D

 23 22  0  0  1  0  0  0  0  0999 V2000
    9.3658  -13.3653   15.2294 N   0  0  0  0  0  0  0  0  0  0  0  0
    8.3008  -14.0111   15.9821 C   0  0  0  0  0  0  0  0  0  0  0  0
    7.2033  -14.1443   15.3841 O   0  0  0  0  0  0  0  0  0  0  0  0
    8.5686  -14.4449   17.3453 C   0  0  0  0  0  0  0  0  0  0  0  0
    7.3798  -14.6419   18.2306 C   0  0  0  0  0  0  0  0  0  0  0  0
    7.6646  -14.1374   19.6151 C   0  0  2  0  0  0  0  0  0  0  0  0
    8.6788  -13.1461   19.6000 N   0  0  0  0  0  0  0  0  0  0  0  0
    8.0957  -15.2684   20.5150 C   0  0  0  0  0  0  0  0  0  0  0  0
    7.2948  -16.1995   20.7844 O   0  0  0  0  0  0  0  0  0  0  0  0
   11.1420  -16.8412   21.6916 C   0  0  0  0  0  0  0  0  0  0  0  0
    9.7242  -16.4085   22.0017 C   0  0  2  0  0  0  0  0  0  0  0  0
    9.3946  -15.3313   21.0844 N   0  0  0  0  0  0  0  0  0  0  0  0
    9.5463  -16.0279   23.4068 C   0  0  0  0  0  0  0  0  0  0  0  0
    9.8779  -16.8334   24.3249 O   0  0  0  0  0  0  0  0  0  0  0  0
    6.3184  -10.4220   26.0776 C   0  0  0  0  0  0  0  0  0  0  0  0
    5.6512  -12.0224   26.5678 S   0  0  0  0  0  0  0  0  0  0  0  0
    7.0635  -13.2162   26.5994 C   0  0  0  0  0  0  0  0  0  0  0  0
    7.4102  -13.6270   25.1986 C   0  0  0  0  0  0  0  0  0  0  0  0
    8.6464  -14.4510   25.1600 C   0  0  2  0  0  0  0  0  0  0  0  0
    9.0155  -14.7886   23.7827 N   0  0  0  0  0  0  0  0  0  0  0  0
    8.4700  -15.7045   25.8886 C   0  0  0  0  0  0  0  0  0  0  0  0
    9.1338  -15.9056   27.0859 O   0  0  0  0  0  0  0  0  0  0  0  0
    7.7384  -16.6261   25.4835 O   0  0  0  0  0  0  0  0  0  0  0  0
  1  2  1  0
  2  4  1  0
  3  2  2  0
  4  5  1  0
  5  6  1  0
  6  8  1  0
  6  7  1  6
  8  9  2  0
 11 10  1  1
 11 13  1  0
 12  8  1  0
 12 11  1  0
 13 14  2  0
 16 15  1  0
 17 16  1  0
 17 18  1  0
 19 18  1  6
 19 21  1  0
 20 19  1  0
 20 13  1  0
 21 23  2  0
 21 22  1  0
M  END
$$$$
