QAM.pdb
     RDKit          3D

 23 22  0  0  1  0  0  0  0  0999 V2000
    8.7472  -12.3482   17.4420 N   0  0  0  0  0  0  0  0  0  0  0  0
    8.3822  -13.4853   16.6103 C   0  0  0  0  0  0  0  0  0  0  0  0
    9.0964  -13.6792   15.5943 O   0  0  0  0  0  0  0  0  0  0  0  0
    7.2401  -14.3000   16.9977 C   0  0  0  0  0  0  0  0  0  0  0  0
    7.0170  -14.4851   18.4646 C   0  0  0  0  0  0  0  0  0  0  0  0
    8.2457  -15.0479   19.1174 C   0  0  2  0  0  0  0  0  0  0  0  0
    8.8349  -16.0576   18.3144 N   0  0  0  0  0  0  0  0  0  0  0  0
    7.9118  -15.6271   20.4694 C   0  0  0  0  0  0  0  0  0  0  0  0
    7.1963  -14.9774   21.2737 O   0  0  0  0  0  0  0  0  0  0  0  0
    8.5879  -18.7969   22.3221 C   0  0  0  0  0  0  0  0  0  0  0  0
    8.0794  -17.3735   22.2254 C   0  0  2  0  0  0  0  0  0  0  0  0
    8.3788  -16.9017   20.8845 N   0  0  0  0  0  0  0  0  0  0  0  0
    8.6364  -16.5047   23.2673 C   0  0  0  0  0  0  0  0  0  0  0  0
    9.8240  -16.0794   23.1650 O   0  0  0  0  0  0  0  0  0  0  0  0
    6.6294  -10.4109   27.5902 C   0  0  0  0  0  0  0  0  0  0  0  0
    6.0835  -11.7828   26.5576 S   0  0  0  0  0  0  0  0  0  0  0  0
    7.5211  -12.9314   26.3709 C   0  0  0  0  0  0  0  0  0  0  0  0
    7.1292  -14.0970   25.5112 C   0  0  0  0  0  0  0  0  0  0  0  0
    8.2777  -15.0081   25.2677 C   0  0  2  0  0  0  0  0  0  0  0  0
    7.8966  -16.1187   24.3910 N   0  0  0  0  0  0  0  0  0  0  0  0
    8.7719  -15.5824   26.5165 C   0  0  0  0  0  0  0  0  0  0  0  0
    9.6314  -14.8526   27.3186 O   0  0  0  0  0  0  0  0  0  0  0  0
    8.4565  -16.7199   26.9102 O   0  0  0  0  0  0  0  0  0  0  0  0
  1  2  1  0
  2  4  1  0
  3  2  2  0
  4  5  1  0
  5  6  1  0
  6  8  1  0
  6  7  1  6
  8  9  2  0
 11 10  1  6
 11 13  1  0
 12  8  1  0
 12 11  1  0
 13 14  2  0
 16 15  1  0
 17 16  1  0
 17 18  1  0
 19 18  1  1
 19 21  1  0
 20 19  1  0
 20 13  1  0
 21 23  2  0
 21 22  1  0
M  END
$$$$
