QAM.pdb
     RDKit          3D

 23 22  0  0  1  0  0  0  0  0999 V2000
    6.9711  -14.2913   15.6140 N   0  0  0  0  0  0  0  0  0  0  0  0
    8.1213  -13.9024   16.4164 C   0  0  0  0  0  0  0  0  0  0  0  0
    9.2276  -14.3872   16.0685 O   0  0  0  0  0  0  0  0  0  0  0  0
    7.9190  -13.0041   17.5435 C   0  0  0  0  0  0  0  0  0  0  0  0
    7.5285  -13.6360   18.8412 C   0  0  0  0  0  0  0  0  0  0  0  0
    8.7279  -14.2307   19.5196 C   0  0  2  0  0  0  0  0  0  0  0  0
    9.3283  -15.2310   18.7132 N   0  0  0  0  0  0  0  0  0  0  0  0
    8.3432  -14.8344   20.8471 C   0  0  0  0  0  0  0  0  0  0  0  0
    7.6725  -14.1645   21.6732 O   0  0  0  0  0  0  0  0  0  0  0  0
    8.4006  -18.2134   22.3845 C   0  0  0  0  0  0  0  0  0  0  0  0
    8.2333  -16.7105   22.4688 C   0  0  2  0  0  0  0  0  0  0  0  0
    8.7118  -16.1551   21.2147 N   0  0  0  0  0  0  0  0  0  0  0  0
    8.9083  -16.1336   23.6360 C   0  0  0  0  0  0  0  0  0  0  0  0
   10.1479  -15.8830   23.5873 O   0  0  0  0  0  0  0  0  0  0  0  0
    6.2119  -10.5551   25.8781 C   0  0  0  0  0  0  0  0  0  0  0  0
    6.3996  -12.0839   26.8131 S   0  0  0  0  0  0  0  0  0  0  0  0
    7.6627  -13.1099   25.9341 C   0  0  0  0  0  0  0  0  0  0  0  0
    7.9482  -14.3506   26.7280 C   0  0  0  0  0  0  0  0  0  0  0  0
    8.8721  -15.2628   26.0046 C   0  0  2  0  0  0  0  0  0  0  0  0
    8.2272  -15.8429   24.8236 N   0  0  0  0  0  0  0  0  0  0  0  0
    9.3023  -16.3668   26.8586 C   0  0  0  0  0  0  0  0  0  0  0  0
    8.8608  -17.6522   26.5989 O   0  0  0  0  0  0  0  0  0  0  0  0
   10.0625  -16.2136   27.8319 O   0  0  0  0  0  0  0  0  0  0  0  0
  1  2  1  0
  2  4  1  0
  3  2  2  0
  4  5  1  0
  5  6  1  0
  6  8  1  0
  6  7  1  6
  8  9  2  0
 11 10  1  6
 11 13  1  0
 12  8  1  0
 12 11  1  0
 13 14  2  0
 16 15  1  0
 17 16  1  0
 17 18  1  0
 19 18  1  1
 19 21  1  0
 20 19  1  0
 20 13  1  0
 21 23  2  0
 21 22  1  0
M  END
$$$$
