QAM.pdb
     RDKit          3D

 23 22  0  0  1  0  0  0  0  0999 V2000
    9.0380  -18.9693   16.8285 N   0  0  0  0  0  0  0  0  0  0  0  0
    7.7190  -18.6479   17.3530 C   0  0  0  0  0  0  0  0  0  0  0  0
    6.9066  -18.1451   16.5363 O   0  0  0  0  0  0  0  0  0  0  0  0
    7.4363  -18.9189   18.7548 C   0  0  0  0  0  0  0  0  0  0  0  0
    8.5457  -19.5203   19.5570 C   0  0  0  0  0  0  0  0  0  0  0  0
    8.4483  -19.0945   20.9928 C   0  0  2  0  0  0  0  0  0  0  0  0
    7.1581  -19.3594   21.5187 N   0  0  0  0  0  0  0  0  0  0  0  0
    8.7434  -17.6219   21.1320 C   0  0  0  0  0  0  0  0  0  0  0  0
    9.9334  -17.2214   21.1990 O   0  0  0  0  0  0  0  0  0  0  0  0
    6.7701  -14.4631   21.4120 C   0  0  0  0  0  0  0  0  0  0  0  0
    8.0662  -15.2411   21.3186 C   0  0  2  0  0  0  0  0  0  0  0  0
    7.7151  -16.6450   21.1917 N   0  0  0  0  0  0  0  0  0  0  0  0
    8.9607  -14.9828   22.4516 C   0  0  0  0  0  0  0  0  0  0  0  0
   10.0020  -14.2829   22.2859 O   0  0  0  0  0  0  0  0  0  0  0  0
    5.6148  -12.0486   27.4018 C   0  0  0  0  0  0  0  0  0  0  0  0
    7.3548  -12.1289   26.9408 S   0  0  0  0  0  0  0  0  0  0  0  0
    7.5598  -13.5983   25.8365 C   0  0  0  0  0  0  0  0  0  0  0  0
    8.9532  -13.6227   25.2804 C   0  0  0  0  0  0  0  0  0  0  0  0
    9.3825  -15.0042   24.9400 C   0  0  2  0  0  0  0  0  0  0  0  0
    8.7070  -15.4868   23.7325 N   0  0  0  0  0  0  0  0  0  0  0  0
    9.0722  -15.9364   26.0207 C   0  0  0  0  0  0  0  0  0  0  0  0
    8.2368  -17.0137   25.7837 O   0  0  0  0  0  0  0  0  0  0  0  0
    9.5276  -15.8139   27.1723 O   0  0  0  0  0  0  0  0  0  0  0  0
  1  2  1  0
  2  4  1  0
  3  2  2  0
  4  5  1  0
  5  6  1  0
  6  8  1  0
  6  7  1  6
  8  9  2  0
 11 10  1  1
 11 13  1  0
 12  8  1  0
 12 11  1  0
 13 14  2  0
 16 15  1  0
 17 16  1  0
 17 18  1  0
 19 18  1  1
 19 21  1  0
 20 19  1  0
 20 13  1  0
 21 23  2  0
 21 22  1  0
M  END
$$$$
