QAM.pdb
     RDKit          3D

 23 22  0  0  1  0  0  0  0  0999 V2000
   12.0101  -14.1266   20.3393 N   0  0  0  0  0  0  0  0  0  0  0  0
   11.8824  -13.3170   19.1367 C   0  0  0  0  0  0  0  0  0  0  0  0
   12.8713  -13.3194   18.3608 O   0  0  0  0  0  0  0  0  0  0  0  0
   10.6505  -12.5730   18.9194 C   0  0  0  0  0  0  0  0  0  0  0  0
    9.5446  -12.8095   19.8975 C   0  0  0  0  0  0  0  0  0  0  0  0
    8.8423  -14.1013   19.5965 C   0  0  2  0  0  0  0  0  0  0  0  0
    7.7533  -13.8975   18.7112 N   0  0  0  0  0  0  0  0  0  0  0  0
    8.3324  -14.7376   20.8653 C   0  0  0  0  0  0  0  0  0  0  0  0
    7.4798  -14.1407   21.5709 O   0  0  0  0  0  0  0  0  0  0  0  0
    8.3490  -18.0458   22.4787 C   0  0  0  0  0  0  0  0  0  0  0  0
    8.3054  -16.5351   22.5771 C   0  0  2  0  0  0  0  0  0  0  0  0
    8.7810  -16.0093   21.3092 N   0  0  0  0  0  0  0  0  0  0  0  0
    9.0661  -16.0234   23.7217 C   0  0  0  0  0  0  0  0  0  0  0  0
   10.2894  -15.7290   23.5847 O   0  0  0  0  0  0  0  0  0  0  0  0
    5.6904  -11.4448   25.9050 C   0  0  0  0  0  0  0  0  0  0  0  0
    6.9652  -12.1647   26.9553 S   0  0  0  0  0  0  0  0  0  0  0  0
    7.7543  -13.5346   25.9953 C   0  0  0  0  0  0  0  0  0  0  0  0
    8.6253  -14.3521   26.9032 C   0  0  0  0  0  0  0  0  0  0  0  0
    9.2508  -15.4911   26.1819 C   0  0  2  0  0  0  0  0  0  0  0  0
    8.4860  -15.8433   24.9826 N   0  0  0  0  0  0  0  0  0  0  0  0
    9.3174  -16.6805   27.0270 C   0  0  0  0  0  0  0  0  0  0  0  0
   10.1763  -16.7088   28.1114 O   0  0  0  0  0  0  0  0  0  0  0  0
    8.6284  -17.6962   26.8219 O   0  0  0  0  0  0  0  0  0  0  0  0
  1  2  1  0
  2  4  1  0
  3  2  2  0
  4  5  1  0
  5  6  1  0
  6  8  1  0
  6  7  1  6
  8  9  2  0
 11 10  1  6
 11 13  1  0
 12  8  1  0
 12 11  1  0
 13 14  2  0
 16 15  1  0
 17 16  1  0
 17 18  1  0
 19 18  1  1
 19 21  1  0
 20 19  1  0
 20 13  1  0
 21 23  2  0
 21 22  1  0
M  END
$$$$
