QAM.pdb
     RDKit          3D

 23 22  0  0  1  0  0  0  0  0999 V2000
    7.4395  -15.3991   15.4142 N   0  0  0  0  0  0  0  0  0  0  0  0
    8.2770  -14.2581   15.7529 C   0  0  0  0  0  0  0  0  0  0  0  0
    9.3914  -14.1991   15.1745 O   0  0  0  0  0  0  0  0  0  0  0  0
    7.7832  -13.2873   16.7182 C   0  0  0  0  0  0  0  0  0  0  0  0
    7.4052  -13.8157   18.0650 C   0  0  0  0  0  0  0  0  0  0  0  0
    8.5984  -13.8399   18.9752 C   0  0  2  0  0  0  0  0  0  0  0  0
    9.7352  -14.3715   18.3146 N   0  0  0  0  0  0  0  0  0  0  0  0
    8.3128  -14.6658   20.2045 C   0  0  0  0  0  0  0  0  0  0  0  0
    7.2959  -14.4244   20.9035 O   0  0  0  0  0  0  0  0  0  0  0  0
    9.6450  -17.7748   21.7477 C   0  0  0  0  0  0  0  0  0  0  0  0
    8.8031  -16.5164   21.7847 C   0  0  2  0  0  0  0  0  0  0  0  0
    9.1591  -15.7282   20.6175 N   0  0  0  0  0  0  0  0  0  0  0  0
    8.9592  -15.7713   23.0382 C   0  0  0  0  0  0  0  0  0  0  0  0
   10.0210  -15.1176   23.2549 O   0  0  0  0  0  0  0  0  0  0  0  0
    7.3018  -10.9639   27.9017 C   0  0  0  0  0  0  0  0  0  0  0  0
    7.2764  -11.9587   26.3996 S   0  0  0  0  0  0  0  0  0  0  0  0
    6.6736  -13.6428   26.8702 C   0  0  0  0  0  0  0  0  0  0  0  0
    6.6398  -14.5252   25.6572 C   0  0  0  0  0  0  0  0  0  0  0  0
    8.0088  -14.8789   25.1993 C   0  0  2  0  0  0  0  0  0  0  0  0
    7.9653  -15.7523   24.0235 N   0  0  0  0  0  0  0  0  0  0  0  0
    8.7509  -15.5816   26.2427 C   0  0  0  0  0  0  0  0  0  0  0  0
    8.8461  -16.9617   26.2111 O   0  0  0  0  0  0  0  0  0  0  0  0
    9.3168  -14.9951   27.1831 O   0  0  0  0  0  0  0  0  0  0  0  0
  1  2  1  0
  2  4  1  0
  3  2  2  0
  4  5  1  0
  5  6  1  0
  6  8  1  0
  6  7  1  6
  8  9  2  0
 11 10  1  1
 11 13  1  0
 12  8  1  0
 12 11  1  0
 13 14  2  0
 16 15  1  0
 17 16  1  0
 17 18  1  0
 19 18  1  1
 19 21  1  0
 20 19  1  0
 20 13  1  0
 21 23  2  0
 21 22  1  0
M  END
$$$$
