QAM.pdb
     RDKit          3D

 23 22  0  0  1  0  0  0  0  0999 V2000
    8.1078  -19.9340   16.0226 N   0  0  0  0  0  0  0  0  0  0  0  0
    7.1216  -19.7172   17.0707 C   0  0  0  0  0  0  0  0  0  0  0  0
    6.1063  -20.4575   17.0363 O   0  0  0  0  0  0  0  0  0  0  0  0
    7.3676  -18.6803   18.0619 C   0  0  0  0  0  0  0  0  0  0  0  0
    8.4948  -18.9194   19.0148 C   0  0  0  0  0  0  0  0  0  0  0  0
    8.1897  -18.3148   20.3541 C   0  0  2  0  0  0  0  0  0  0  0  0
    6.8061  -18.4043   20.6527 N   0  0  0  0  0  0  0  0  0  0  0  0
    8.6083  -16.8663   20.3916 C   0  0  0  0  0  0  0  0  0  0  0  0
    9.8211  -16.5577   20.2701 O   0  0  0  0  0  0  0  0  0  0  0  0
    7.1097  -13.5743   19.9449 C   0  0  0  0  0  0  0  0  0  0  0  0
    8.1460  -14.4393   20.6315 C   0  0  2  0  0  0  0  0  0  0  0  0
    7.6738  -15.8112   20.5612 N   0  0  0  0  0  0  0  0  0  0  0  0
    8.4199  -14.0060   22.0056 C   0  0  0  0  0  0  0  0  0  0  0  0
    8.9005  -12.8550   22.2197 O   0  0  0  0  0  0  0  0  0  0  0  0
    6.6854  -11.3549   28.5100 C   0  0  0  0  0  0  0  0  0  0  0  0
    6.1837  -12.0203   26.9125 S   0  0  0  0  0  0  0  0  0  0  0  0
    7.3506  -13.3955   26.5030 C   0  0  0  0  0  0  0  0  0  0  0  0
    7.1418  -13.8301   25.0822 C   0  0  0  0  0  0  0  0  0  0  0  0
    8.3817  -14.4043   24.4976 C   0  0  2  0  0  0  0  0  0  0  0  0
    8.1676  -14.8268   23.1109 N   0  0  0  0  0  0  0  0  0  0  0  0
    8.8296  -15.5732   25.2501 C   0  0  0  0  0  0  0  0  0  0  0  0
    9.3020  -15.4224   26.5418 O   0  0  0  0  0  0  0  0  0  0  0  0
    8.8107  -16.7268   24.7836 O   0  0  0  0  0  0  0  0  0  0  0  0
  1  2  1  0
  2  4  1  0
  3  2  2  0
  4  5  1  0
  5  6  1  0
  6  8  1  0
  6  7  1  6
  8  9  2  0
 11 10  1  1
 11 13  1  0
 12  8  1  0
 12 11  1  0
 13 14  2  0
 16 15  1  0
 17 16  1  0
 17 18  1  0
 19 18  1  1
 19 21  1  0
 20 19  1  0
 20 13  1  0
 21 23  2  0
 21 22  1  0
M  END
$$$$
