QAM.pdb
     RDKit          3D

 23 22  0  0  1  0  0  0  0  0999 V2000
    8.2231  -12.5187   18.2091 N   0  0  0  0  0  0  0  0  0  0  0  0
    8.4847  -13.7743   17.5213 C   0  0  0  0  0  0  0  0  0  0  0  0
    9.2183  -13.7046   16.5031 O   0  0  0  0  0  0  0  0  0  0  0  0
    7.8905  -14.9966   18.0421 C   0  0  0  0  0  0  0  0  0  0  0  0
    8.7170  -15.7833   19.0084 C   0  0  0  0  0  0  0  0  0  0  0  0
    7.9801  -17.0131   19.4526 C   0  0  2  0  0  0  0  0  0  0  0  0
    6.6439  -17.0085   18.9774 N   0  0  0  0  0  0  0  0  0  0  0  0
    7.9666  -17.1104   20.9577 C   0  0  0  0  0  0  0  0  0  0  0  0
    6.9746  -16.6919   21.6071 O   0  0  0  0  0  0  0  0  0  0  0  0
    9.8572  -18.9379   23.5430 C   0  0  0  0  0  0  0  0  0  0  0  0
    8.9393  -17.8051   23.1332 C   0  0  2  0  0  0  0  0  0  0  0  0
    9.0474  -17.6663   21.6912 N   0  0  0  0  0  0  0  0  0  0  0  0
    9.2336  -16.5568   23.8444 C   0  0  0  0  0  0  0  0  0  0  0  0
   10.1039  -15.7604   23.3861 O   0  0  0  0  0  0  0  0  0  0  0  0
    6.1599  -10.8655   25.7661 C   0  0  0  0  0  0  0  0  0  0  0  0
    6.2483  -12.0706   27.1027 S   0  0  0  0  0  0  0  0  0  0  0  0
    7.8271  -13.0097   26.8877 C   0  0  0  0  0  0  0  0  0  0  0  0
    7.5811  -14.2269   26.0457 C   0  0  0  0  0  0  0  0  0  0  0  0
    8.8430  -14.9569   25.7569 C   0  0  2  0  0  0  0  0  0  0  0  0
    8.5807  -16.2022   25.0305 N   0  0  0  0  0  0  0  0  0  0  0  0
    9.5469  -15.3051   26.9884 C   0  0  0  0  0  0  0  0  0  0  0  0
   10.2659  -14.3384   27.6688 O   0  0  0  0  0  0  0  0  0  0  0  0
    9.5369  -16.4513   27.4731 O   0  0  0  0  0  0  0  0  0  0  0  0
  1  2  1  0
  2  4  1  0
  3  2  2  0
  4  5  1  0
  5  6  1  0
  6  8  1  0
  6  7  1  1
  8  9  2  0
 11 10  1  1
 11 13  1  0
 12  8  1  0
 12 11  1  0
 13 14  2  0
 16 15  1  0
 17 16  1  0
 17 18  1  0
 19 18  1  1
 19 21  1  0
 20 19  1  0
 20 13  1  0
 21 23  2  0
 21 22  1  0
M  END
$$$$
