QAM.pdb
     RDKit          3D

 23 22  0  0  1  0  0  0  0  0999 V2000
    9.9154  -13.1279   18.5555 N   0  0  0  0  0  0  0  0  0  0  0  0
    8.5738  -12.8770   18.0502 C   0  0  0  0  0  0  0  0  0  0  0  0
    8.4912  -12.5502   16.8392 O   0  0  0  0  0  0  0  0  0  0  0  0
    7.4450  -13.0132   18.9587 C   0  0  0  0  0  0  0  0  0  0  0  0
    7.7511  -13.5060   20.3369 C   0  0  0  0  0  0  0  0  0  0  0  0
    8.2189  -14.9315   20.2948 C   0  0  2  0  0  0  0  0  0  0  0  0
    7.3273  -15.7407   19.5455 N   0  0  0  0  0  0  0  0  0  0  0  0
    8.3391  -15.4931   21.6894 C   0  0  0  0  0  0  0  0  0  0  0  0
    7.7119  -14.9596   22.6397 O   0  0  0  0  0  0  0  0  0  0  0  0
    9.8400  -18.4925   23.2985 C   0  0  0  0  0  0  0  0  0  0  0  0
    9.2290  -17.1077   23.3517 C   0  0  2  0  0  0  0  0  0  0  0  0
    9.1462  -16.6230   21.9847 N   0  0  0  0  0  0  0  0  0  0  0  0
    9.9723  -16.1978   24.2294 C   0  0  0  0  0  0  0  0  0  0  0  0
   11.0165  -15.6236   23.8031 O   0  0  0  0  0  0  0  0  0  0  0  0
    6.0859  -11.8303   26.8780 C   0  0  0  0  0  0  0  0  0  0  0  0
    7.8823  -11.8565   26.7411 S   0  0  0  0  0  0  0  0  0  0  0  0
    8.3956  -13.6299   26.6295 C   0  0  0  0  0  0  0  0  0  0  0  0
    9.8881  -13.7177   26.5041 C   0  0  0  0  0  0  0  0  0  0  0  0
   10.3536  -15.1290   26.4838 C   0  0  2  0  0  0  0  0  0  0  0  0
    9.5685  -15.9326   25.5430 N   0  0  0  0  0  0  0  0  0  0  0  0
   10.2289  -15.7466   27.8015 C   0  0  0  0  0  0  0  0  0  0  0  0
   11.0322  -15.3175   28.8432 O   0  0  0  0  0  0  0  0  0  0  0  0
    9.4209  -16.6606   28.0472 O   0  0  0  0  0  0  0  0  0  0  0  0
  1  2  1  0
  2  4  1  0
  3  2  2  0
  4  5  1  0
  5  6  1  0
  6  8  1  0
  6  7  1  6
  8  9  2  0
 11 10  1  6
 11 13  1  0
 12  8  1  0
 12 11  1  0
 13 14  2  0
 16 15  1  0
 17 16  1  0
 17 18  1  0
 19 18  1  1
 19 21  1  0
 20 19  1  0
 20 13  1  0
 21 23  2  0
 21 22  1  0
M  END
$$$$
