QAM.pdb
     RDKit          3D

 23 22  0  0  1  0  0  0  0  0999 V2000
    7.1290  -19.2473   16.3124 N   0  0  0  0  0  0  0  0  0  0  0  0
    8.5287  -18.8522   16.3646 C   0  0  0  0  0  0  0  0  0  0  0  0
    8.9258  -18.0999   15.4392 O   0  0  0  0  0  0  0  0  0  0  0  0
    9.3568  -19.3457   17.4550 C   0  0  0  0  0  0  0  0  0  0  0  0
   10.1640  -18.3280   18.1957 C   0  0  0  0  0  0  0  0  0  0  0  0
    9.8877  -18.4071   19.6688 C   0  0  2  0  0  0  0  0  0  0  0  0
    8.7888  -19.2622   19.9381 N   0  0  0  0  0  0  0  0  0  0  0  0
    9.5945  -17.0379   20.2292 C   0  0  0  0  0  0  0  0  0  0  0  0
   10.4501  -16.1215   20.1334 O   0  0  0  0  0  0  0  0  0  0  0  0
    6.8096  -14.9356   21.1096 C   0  0  0  0  0  0  0  0  0  0  0  0
    8.1904  -15.4267   21.4918 C   0  0  2  0  0  0  0  0  0  0  0  0
    8.3680  -16.7294   20.8741 N   0  0  0  0  0  0  0  0  0  0  0  0
    8.3950  -15.4574   22.9436 C   0  0  0  0  0  0  0  0  0  0  0  0
    7.9053  -16.4017   23.6294 O   0  0  0  0  0  0  0  0  0  0  0  0
    6.5716  -10.3174   26.3391 C   0  0  0  0  0  0  0  0  0  0  0  0
    5.9991  -11.9399   26.8742 S   0  0  0  0  0  0  0  0  0  0  0  0
    7.4220  -13.1077   26.6940 C   0  0  0  0  0  0  0  0  0  0  0  0
    7.6606  -13.3939   25.2406 C   0  0  0  0  0  0  0  0  0  0  0  0
    8.9274  -14.1421   25.0309 C   0  0  2  0  0  0  0  0  0  0  0  0
    9.1223  -14.4684   23.6157 N   0  0  0  0  0  0  0  0  0  0  0  0
    8.9303  -15.3979   25.7768 C   0  0  0  0  0  0  0  0  0  0  0  0
    8.8643  -16.6026   25.0995 O   0  0  0  0  0  0  0  0  0  0  0  0
    8.9898  -15.4475   27.0189 O   0  0  0  0  0  0  0  0  0  0  0  0
  1  2  1  0
  2  4  1  0
  3  2  2  0
  4  5  1  0
  5  6  1  0
  6  8  1  0
  6  7  1  6
  8  9  2  0
 11 10  1  1
 11 13  1  0
 12  8  1  0
 12 11  1  0
 13 14  2  0
 16 15  1  0
 17 16  1  0
 17 18  1  0
 19 18  1  6
 19 21  1  0
 20 19  1  0
 20 13  1  0
 21 23  2  0
 21 22  1  0
M  END
$$$$
