QAM.pdb
     RDKit          3D

 23 22  0  0  1  0  0  0  0  0999 V2000
   13.9893  -13.7385   20.5879 N   0  0  0  0  0  0  0  0  0  0  0  0
   13.6377  -13.6973   19.1763 C   0  0  0  0  0  0  0  0  0  0  0  0
   14.5341  -13.2902   18.3948 O   0  0  0  0  0  0  0  0  0  0  0  0
   12.3031  -14.1152   18.7732 C   0  0  0  0  0  0  0  0  0  0  0  0
   11.7134  -15.2741   19.5113 C   0  0  0  0  0  0  0  0  0  0  0  0
   10.2880  -15.4933   19.0956 C   0  0  2  0  0  0  0  0  0  0  0  0
    9.7751  -14.3623   18.4108 N   0  0  0  0  0  0  0  0  0  0  0  0
    9.4211  -15.7759   20.2970 C   0  0  0  0  0  0  0  0  0  0  0  0
    8.5681  -14.9312   20.6711 O   0  0  0  0  0  0  0  0  0  0  0  0
    8.6209  -18.6695   22.4656 C   0  0  0  0  0  0  0  0  0  0  0  0
    8.6826  -17.1785   22.2073 C   0  0  2  0  0  0  0  0  0  0  0  0
    9.5263  -16.9800   21.0415 N   0  0  0  0  0  0  0  0  0  0  0  0
    9.1470  -16.4235   23.3756 C   0  0  0  0  0  0  0  0  0  0  0  0
   10.3866  -16.3283   23.6126 O   0  0  0  0  0  0  0  0  0  0  0  0
    6.7130  -10.9679   25.7929 C   0  0  0  0  0  0  0  0  0  0  0  0
    8.2288  -11.4348   26.6480 S   0  0  0  0  0  0  0  0  0  0  0  0
    8.1068  -13.2407   27.0286 C   0  0  0  0  0  0  0  0  0  0  0  0
    7.6971  -13.9910   25.7956 C   0  0  0  0  0  0  0  0  0  0  0  0
    8.6939  -15.0315   25.4316 C   0  0  2  0  0  0  0  0  0  0  0  0
    8.2612  -15.7920   24.2562 N   0  0  0  0  0  0  0  0  0  0  0  0
    8.8901  -15.9817   26.5234 C   0  0  0  0  0  0  0  0  0  0  0  0
    8.4069  -17.2732   26.4087 O   0  0  0  0  0  0  0  0  0  0  0  0
    9.4818  -15.6886   27.5781 O   0  0  0  0  0  0  0  0  0  0  0  0
  1  2  1  0
  2  4  1  0
  3  2  2  0
  4  5  1  0
  5  6  1  0
  6  8  1  0
  6  7  1  1
  8  9  2  0
 11 10  1  1
 11 13  1  0
 12  8  1  0
 12 11  1  0
 13 14  2  0
 16 15  1  0
 17 16  1  0
 17 18  1  0
 19 18  1  1
 19 21  1  0
 20 19  1  0
 20 13  1  0
 21 23  2  0
 21 22  1  0
M  END
$$$$
