NNT.pdb
     RDKit          3D

 24 23  0  0  1  0  0  0  0  0999 V2000
   15.1404  -11.0135  -17.9036 N   0  0  0  0  0  0  0  0  0  0  0  0
   15.0312  -11.1230  -16.4986 C   0  0  0  0  0  0  0  0  0  0  0  0
   14.6898  -12.2047  -15.9548 O   0  0  0  0  0  0  0  0  0  0  0  0
   15.3114   -9.9774  -15.6020 C   0  0  0  0  0  0  0  0  0  0  0  0
   16.7891   -9.9356  -15.3351 C   0  0  2  0  0  0  0  0  0  0  0  0
   17.1400  -11.0779  -14.5450 N   0  0  0  0  0  0  0  0  0  0  0  0
   17.1489   -8.6632  -14.6475 C   0  0  0  0  0  0  0  0  0  0  0  0
   16.8935   -7.5639  -15.1841 O   0  0  0  0  0  0  0  0  0  0  0  0
   18.9485   -5.3600  -11.3034 N   0  0  0  0  0  0  0  0  0  0  0  0
   18.5876   -6.4672  -10.4937 C   0  0  0  0  0  0  0  0  0  0  0  0
   18.6038   -6.3651   -9.2421 O   0  0  0  0  0  0  0  0  0  0  0  0
   18.1993   -7.7223  -11.1909 C   0  0  0  0  0  0  0  0  0  0  0  0
   18.1873   -7.5426  -12.6936 C   0  0  2  0  0  0  0  0  0  0  0  0
   17.7840   -8.7491  -13.3772 N   0  0  0  0  0  0  0  0  0  0  0  0
   19.5460   -7.1731  -13.1390 C   0  0  0  0  0  0  0  0  0  0  0  0
   20.4819   -8.0031  -13.1131 O   0  0  0  0  0  0  0  0  0  0  0  0
   20.1143   -5.4876  -16.4909 C   0  0  0  0  0  0  0  0  0  0  0  0
   20.7474   -4.6448  -15.4326 C   0  0  1  0  0  0  0  0  0  0  0  0
   19.9510   -3.5770  -15.0206 O   0  0  0  0  0  0  0  0  0  0  0  0
   21.0526   -5.4777  -14.2016 C   0  0  2  0  0  0  0  0  0  0  0  0
   19.7885   -5.8563  -13.6022 N   0  0  0  0  0  0  0  0  0  0  0  0
   21.9040   -4.7720  -13.2423 C   0  0  0  0  0  0  0  0  0  0  0  0
   23.1885   -4.3926  -13.5869 O   0  0  0  0  0  0  0  0  0  0  0  0
   21.4886   -4.4985  -12.0952 O   0  0  0  0  0  0  0  0  0  0  0  0
  2  1  1  0
  2  3  2  0
  4  5  1  0
  4  2  1  0
  5  6  1  1
  7  5  1  0
  8  7  2  0
  9 10  1  0
 10 12  1  0
 11 10  2  0
 13 12  1  1
 13 15  1  0
 13 14  1  0
 14  7  1  0
 15 21  1  0
 16 15  2  0
 18 19  1  0
 18 17  1  6
 20 18  1  0
 20 22  1  0
 20 21  1  1
 22 24  2  0
 22 23  1  0
M  END
$$$$
