NNT.pdb
     RDKit          3D

 24 23  0  0  1  0  0  0  0  0999 V2000
   15.2140  -11.4274  -14.2161 N   0  0  0  0  0  0  0  0  0  0  0  0
   16.2345  -11.4469  -15.1940 C   0  0  0  0  0  0  0  0  0  0  0  0
   16.0213  -11.9000  -16.3480 O   0  0  0  0  0  0  0  0  0  0  0  0
   17.5969  -10.9384  -14.9111 C   0  0  0  0  0  0  0  0  0  0  0  0
   18.3604  -10.8857  -16.2038 C   0  0  2  0  0  0  0  0  0  0  0  0
   18.8130  -12.2082  -16.5176 N   0  0  0  0  0  0  0  0  0  0  0  0
   19.4987   -9.9310  -16.0870 C   0  0  0  0  0  0  0  0  0  0  0  0
   20.3222  -10.0447  -15.1541 O   0  0  0  0  0  0  0  0  0  0  0  0
   22.2919   -5.4609  -19.3168 N   0  0  0  0  0  0  0  0  0  0  0  0
   22.1757   -6.4465  -18.3037 C   0  0  0  0  0  0  0  0  0  0  0  0
   23.0578   -6.5447  -17.4150 O   0  0  0  0  0  0  0  0  0  0  0  0
   20.9828   -7.3337  -18.3509 C   0  0  0  0  0  0  0  0  0  0  0  0
   20.7111   -7.9719  -17.0058 C   0  0  2  0  0  0  0  0  0  0  0  0
   19.6081   -8.9023  -17.0640 N   0  0  0  0  0  0  0  0  0  0  0  0
   20.3886   -6.9095  -16.0320 C   0  0  0  0  0  0  0  0  0  0  0  0
   19.3501   -6.2214  -16.1478 O   0  0  0  0  0  0  0  0  0  0  0  0
   19.9839   -7.4134  -12.4776 C   0  0  0  0  0  0  0  0  0  0  0  0
   21.0504   -6.3730  -12.5846 C   0  0  1  0  0  0  0  0  0  0  0  0
   22.3411   -6.8823  -12.4468 O   0  0  0  0  0  0  0  0  0  0  0  0
   20.9834   -5.6798  -13.9327 C   0  0  2  0  0  0  0  0  0  0  0  0
   21.2726   -6.6697  -14.9511 N   0  0  0  0  0  0  0  0  0  0  0  0
   21.8986   -4.5410  -14.0252 C   0  0  0  0  0  0  0  0  0  0  0  0
   21.7290   -3.4337  -13.2141 O   0  0  0  0  0  0  0  0  0  0  0  0
   22.8495   -4.5460  -14.8369 O   0  0  0  0  0  0  0  0  0  0  0  0
  2  1  1  0
  2  3  2  0
  4  5  1  0
  4  2  1  0
  5  6  1  1
  7  5  1  0
  8  7  2  0
  9 10  1  0
 10 12  1  0
 11 10  2  0
 13 12  1  6
 13 15  1  0
 13 14  1  0
 14  7  1  0
 15 21  1  0
 16 15  2  0
 18 19  1  0
 18 17  1  6
 20 18  1  0
 20 22  1  0
 20 21  1  6
 22 24  2  0
 22 23  1  0
M  END
$$$$
