NNT.pdb
     RDKit          3D

 24 23  0  0  1  0  0  0  0  0999 V2000
   24.5263  -16.1035  -16.0876 N   0  0  0  0  0  0  0  0  0  0  0  0
   25.0320  -14.8761  -15.6019 C   0  0  0  0  0  0  0  0  0  0  0  0
   26.1596  -14.8104  -15.0480 O   0  0  0  0  0  0  0  0  0  0  0  0
   24.2650  -13.6141  -15.7199 C   0  0  0  0  0  0  0  0  0  0  0  0
   22.8992  -13.9385  -16.2546 C   0  0  2  0  0  0  0  0  0  0  0  0
   23.0520  -14.6392  -17.4947 N   0  0  0  0  0  0  0  0  0  0  0  0
   22.1070  -12.6880  -16.4266 C   0  0  0  0  0  0  0  0  0  0  0  0
   22.5638  -11.7416  -17.1029 O   0  0  0  0  0  0  0  0  0  0  0  0
   18.2547   -9.4824  -16.6060 N   0  0  0  0  0  0  0  0  0  0  0  0
   17.6628  -10.5935  -15.9528 C   0  0  0  0  0  0  0  0  0  0  0  0
   16.4343  -10.5905  -15.6914 O   0  0  0  0  0  0  0  0  0  0  0  0
   18.5541  -11.7319  -15.6038 C   0  0  0  0  0  0  0  0  0  0  0  0
   19.9823  -11.4710  -16.0311 C   0  0  2  0  0  0  0  0  0  0  0  0
   20.8313  -12.6162  -15.8005 N   0  0  0  0  0  0  0  0  0  0  0  0
   20.5070  -10.3251  -15.2612 C   0  0  0  0  0  0  0  0  0  0  0  0
   20.5567  -10.3557  -14.0114 O   0  0  0  0  0  0  0  0  0  0  0  0
   23.8354   -8.4632  -16.0100 C   0  0  0  0  0  0  0  0  0  0  0  0
   22.6828   -7.5156  -16.0797 C   0  0  1  0  0  0  0  0  0  0  0  0
   22.2110   -7.3068  -17.3751 O   0  0  0  0  0  0  0  0  0  0  0  0
   21.5183   -8.0337  -15.2564 C   0  0  2  0  0  0  0  0  0  0  0  0
   20.9601   -9.1751  -15.9537 N   0  0  0  0  0  0  0  0  0  0  0  0
   20.5003   -7.0096  -15.0159 C   0  0  0  0  0  0  0  0  0  0  0  0
   20.7605   -5.9417  -14.1765 O   0  0  0  0  0  0  0  0  0  0  0  0
   19.3781   -7.0791  -15.5627 O   0  0  0  0  0  0  0  0  0  0  0  0
  2  1  1  0
  2  3  2  0
  4  5  1  0
  4  2  1  0
  5  6  1  6
  7  5  1  0
  8  7  2  0
  9 10  1  0
 10 12  1  0
 11 10  2  0
 13 12  1  1
 13 15  1  0
 13 14  1  0
 14  7  1  0
 15 21  1  0
 16 15  2  0
 18 19  1  0
 18 17  1  6
 20 18  1  0
 20 22  1  0
 20 21  1  6
 22 24  2  0
 22 23  1  0
M  END
$$$$
