NNT.pdb
     RDKit          3D

 24 23  0  0  1  0  0  0  0  0999 V2000
   20.6021  -12.9687  -18.2752 N   0  0  0  0  0  0  0  0  0  0  0  0
   19.7828  -13.0921  -17.1300 C   0  0  0  0  0  0  0  0  0  0  0  0
   19.1037  -14.1310  -16.9247 O   0  0  0  0  0  0  0  0  0  0  0  0
   19.6832  -12.0120  -16.1209 C   0  0  0  0  0  0  0  0  0  0  0  0
   20.7217  -10.9732  -16.4354 C   0  0  2  0  0  0  0  0  0  0  0  0
   22.0159  -11.5369  -16.1915 N   0  0  0  0  0  0  0  0  0  0  0  0
   20.4916   -9.7537  -15.6102 C   0  0  0  0  0  0  0  0  0  0  0  0
   19.6753   -9.7787  -14.6644 O   0  0  0  0  0  0  0  0  0  0  0  0
   22.6923   -4.3277  -14.5322 N   0  0  0  0  0  0  0  0  0  0  0  0
   22.3100   -5.5670  -13.9582 C   0  0  0  0  0  0  0  0  0  0  0  0
   21.8763   -5.6094  -12.7803 O   0  0  0  0  0  0  0  0  0  0  0  0
   22.4478   -6.7811  -14.8062 C   0  0  0  0  0  0  0  0  0  0  0  0
   21.1016   -7.4020  -15.1110 C   0  0  2  0  0  0  0  0  0  0  0  0
   21.2263   -8.5799  -15.9372 N   0  0  0  0  0  0  0  0  0  0  0  0
   20.2691   -6.4085  -15.8187 C   0  0  0  0  0  0  0  0  0  0  0  0
   20.5314   -6.0658  -16.9931 O   0  0  0  0  0  0  0  0  0  0  0  0
   16.7502   -6.5640  -16.7288 C   0  0  0  0  0  0  0  0  0  0  0  0
   16.8812   -5.4219  -15.7750 C   0  0  1  0  0  0  0  0  0  0  0  0
   16.5953   -5.7641  -14.4538 O   0  0  0  0  0  0  0  0  0  0  0  0
   18.2939   -4.8686  -15.7993 C   0  0  2  0  0  0  0  0  0  0  0  0
   19.1568   -5.8372  -15.1527 N   0  0  0  0  0  0  0  0  0  0  0  0
   18.3948   -3.5568  -15.1573 C   0  0  0  0  0  0  0  0  0  0  0  0
   17.7945   -2.4474  -15.7243 O   0  0  0  0  0  0  0  0  0  0  0  0
   19.0240   -3.4129  -14.0865 O   0  0  0  0  0  0  0  0  0  0  0  0
  2  1  1  0
  2  3  2  0
  4  5  1  0
  4  2  1  0
  5  6  1  1
  7  5  1  0
  8  7  2  0
  9 10  1  0
 10 12  1  0
 11 10  2  0
 13 12  1  6
 13 15  1  0
 13 14  1  0
 14  7  1  0
 15 21  1  0
 16 15  2  0
 18 19  1  0
 18 17  1  6
 20 18  1  0
 20 22  1  0
 20 21  1  1
 22 24  2  0
 22 23  1  0
M  END
$$$$
