NNT.pdb
     RDKit          3D

 24 23  0  0  1  0  0  0  0  0999 V2000
   15.8684  -11.6624  -15.7506 N   0  0  0  0  0  0  0  0  0  0  0  0
   16.9600  -12.3144  -15.1331 C   0  0  0  0  0  0  0  0  0  0  0  0
   16.8176  -13.4304  -14.5704 O   0  0  0  0  0  0  0  0  0  0  0  0
   18.3171  -11.7204  -15.1175 C   0  0  0  0  0  0  0  0  0  0  0  0
   18.2410  -10.3496  -15.7273 C   0  0  2  0  0  0  0  0  0  0  0  0
   18.0511  -10.4914  -17.1401 N   0  0  0  0  0  0  0  0  0  0  0  0
   19.4797   -9.5818  -15.4159 C   0  0  0  0  0  0  0  0  0  0  0  0
   19.7532   -9.2808  -14.2343 O   0  0  0  0  0  0  0  0  0  0  0  0
   23.9595   -7.3746  -15.7759 N   0  0  0  0  0  0  0  0  0  0  0  0
   23.8790   -8.0845  -17.0011 C   0  0  0  0  0  0  0  0  0  0  0  0
   24.8734   -8.1366  -17.7664 O   0  0  0  0  0  0  0  0  0  0  0  0
   22.5858   -8.7461  -17.3206 C   0  0  0  0  0  0  0  0  0  0  0  0
   21.5543   -8.5011  -16.2406 C   0  0  2  0  0  0  0  0  0  0  0  0
   20.3239   -9.2115  -16.4997 N   0  0  0  0  0  0  0  0  0  0  0  0
   21.2659   -7.0541  -16.1780 C   0  0  0  0  0  0  0  0  0  0  0  0
   21.1052   -6.3822  -17.2212 O   0  0  0  0  0  0  0  0  0  0  0  0
   18.5173   -5.2286  -15.0989 C   0  0  0  0  0  0  0  0  0  0  0  0
   19.5936   -4.7815  -14.1646 C   0  0  1  0  0  0  0  0  0  0  0  0
   19.5885   -5.4573  -12.9449 O   0  0  0  0  0  0  0  0  0  0  0  0
   20.9606   -4.9927  -14.7885 C   0  0  2  0  0  0  0  0  0  0  0  0
   21.1708   -6.4212  -14.9140 N   0  0  0  0  0  0  0  0  0  0  0  0
   22.0339   -4.3645  -14.0164 C   0  0  0  0  0  0  0  0  0  0  0  0
   22.1385   -2.9872  -13.9472 O   0  0  0  0  0  0  0  0  0  0  0  0
   22.8757   -5.0582  -13.4053 O   0  0  0  0  0  0  0  0  0  0  0  0
  2  1  1  0
  2  3  2  0
  4  5  1  0
  4  2  1  0
  5  6  1  6
  7  5  1  0
  8  7  2  0
  9 10  1  0
 10 12  1  0
 11 10  2  0
 13 12  1  6
 13 15  1  0
 13 14  1  0
 14  7  1  0
 15 21  1  0
 16 15  2  0
 18 19  1  0
 18 17  1  6
 20 18  1  0
 20 22  1  0
 20 21  1  1
 22 24  2  0
 22 23  1  0
M  END
$$$$
