NNT.pdb
     RDKit          3D

 24 23  0  0  1  0  0  0  0  0999 V2000
   20.6563  -10.6452  -21.0680 N   0  0  0  0  0  0  0  0  0  0  0  0
   19.9295   -9.5634  -20.5209 C   0  0  0  0  0  0  0  0  0  0  0  0
   18.9408   -9.0723  -21.1241 O   0  0  0  0  0  0  0  0  0  0  0  0
   20.2928   -8.9576  -19.2186 C   0  0  0  0  0  0  0  0  0  0  0  0
   21.4819   -9.6934  -18.6696 C   0  0  2  0  0  0  0  0  0  0  0  0
   21.1061  -11.0568  -18.4413 N   0  0  0  0  0  0  0  0  0  0  0  0
   21.9547   -9.0389  -17.4170 C   0  0  0  0  0  0  0  0  0  0  0  0
   21.6624   -9.5255  -16.3037 O   0  0  0  0  0  0  0  0  0  0  0  0
   24.4514   -6.4260  -18.6157 N   0  0  0  0  0  0  0  0  0  0  0  0
   25.3163   -6.6553  -17.5153 C   0  0  0  0  0  0  0  0  0  0  0  0
   26.5503   -6.4515  -17.6299 O   0  0  0  0  0  0  0  0  0  0  0  0
   24.6971   -7.1376  -16.2519 C   0  0  0  0  0  0  0  0  0  0  0  0
   23.1872   -7.1697  -16.3497 C   0  0  2  0  0  0  0  0  0  0  0  0
   22.7389   -7.8578  -17.5376 N   0  0  0  0  0  0  0  0  0  0  0  0
   22.6833   -5.7819  -16.3831 C   0  0  0  0  0  0  0  0  0  0  0  0
   22.9662   -5.0151  -17.3304 O   0  0  0  0  0  0  0  0  0  0  0  0
   19.2429   -4.8822  -16.5021 C   0  0  0  0  0  0  0  0  0  0  0  0
   19.7479   -4.2005  -15.2727 C   0  0  1  0  0  0  0  0  0  0  0  0
   19.4859   -4.9047  -14.0980 O   0  0  0  0  0  0  0  0  0  0  0  0
   21.2505   -4.0048  -15.3526 C   0  0  2  0  0  0  0  0  0  0  0  0
   21.8669   -5.3162  -15.3229 N   0  0  0  0  0  0  0  0  0  0  0  0
   21.7642   -3.1531  -14.2785 C   0  0  0  0  0  0  0  0  0  0  0  0
   21.4303   -1.8121  -14.2225 O   0  0  0  0  0  0  0  0  0  0  0  0
   22.5132   -3.6189  -13.3925 O   0  0  0  0  0  0  0  0  0  0  0  0
  2  1  1  0
  2  3  2  0
  4  5  1  0
  4  2  1  0
  5  6  1  1
  7  5  1  0
  8  7  2  0
  9 10  1  0
 10 12  1  0
 11 10  2  0
 13 12  1  6
 13 15  1  0
 13 14  1  0
 14  7  1  0
 15 21  1  0
 16 15  2  0
 18 19  1  0
 18 17  1  6
 20 18  1  0
 20 22  1  0
 20 21  1  1
 22 24  2  0
 22 23  1  0
M  END
$$$$
