NNT.pdb
     RDKit          3D

 24 23  0  0  1  0  0  0  0  0999 V2000
   25.5595  -20.4068   -8.4665 N   0  0  0  0  0  0  0  0  0  0  0  0
   24.5358  -20.7635   -9.3737 C   0  0  0  0  0  0  0  0  0  0  0  0
   23.3362  -20.8421   -9.0031 O   0  0  0  0  0  0  0  0  0  0  0  0
   24.8221  -21.0607  -10.7965 C   0  0  0  0  0  0  0  0  0  0  0  0
   23.7890  -20.3709  -11.6413 C   0  0  2  0  0  0  0  0  0  0  0  0
   22.5074  -20.9376  -11.3436 N   0  0  0  0  0  0  0  0  0  0  0  0
   24.1292  -20.5154  -13.0850 C   0  0  0  0  0  0  0  0  0  0  0  0
   24.9113  -21.4150  -13.4603 O   0  0  0  0  0  0  0  0  0  0  0  0
   21.8188  -19.5634  -18.5002 N   0  0  0  0  0  0  0  0  0  0  0  0
   22.7232  -20.2187  -17.6262 C   0  0  0  0  0  0  0  0  0  0  0  0
   23.6784  -20.8876  -18.0927 O   0  0  0  0  0  0  0  0  0  0  0  0
   22.4840  -20.0735  -16.1654 C   0  0  0  0  0  0  0  0  0  0  0  0
   23.7645  -19.7639  -15.4204 C   0  0  2  0  0  0  0  0  0  0  0  0
   23.5378  -19.6035  -14.0032 N   0  0  0  0  0  0  0  0  0  0  0  0
   24.3360  -18.5124  -15.9571 C   0  0  0  0  0  0  0  0  0  0  0  0
   23.8094  -17.4045  -15.7107 O   0  0  0  0  0  0  0  0  0  0  0  0
   27.4187  -16.8002  -15.3740 C   0  0  0  0  0  0  0  0  0  0  0  0
   27.4742  -17.2177  -16.8071 C   0  0  1  0  0  0  0  0  0  0  0  0
   28.1469  -18.4219  -17.0107 O   0  0  0  0  0  0  0  0  0  0  0  0
   26.0737  -17.3862  -17.3662 C   0  0  2  0  0  0  0  0  0  0  0  0
   25.4994  -18.5727  -16.7635 N   0  0  0  0  0  0  0  0  0  0  0  0
   26.0585  -17.4735  -18.8274 C   0  0  0  0  0  0  0  0  0  0  0  0
   25.6329  -18.6275  -19.4595 O   0  0  0  0  0  0  0  0  0  0  0  0
   26.4290  -16.5093  -19.5319 O   0  0  0  0  0  0  0  0  0  0  0  0
  2  1  1  0
  2  3  2  0
  4  5  1  0
  4  2  1  0
  5  6  1  6
  7  5  1  0
  8  7  2  0
  9 10  1  0
 10 12  1  0
 11 10  2  0
 13 12  1  6
 13 15  1  0
 13 14  1  0
 14  7  1  0
 15 21  1  0
 16 15  2  0
 18 19  1  0
 18 17  1  1
 20 18  1  0
 20 22  1  0
 20 21  1  1
 22 24  2  0
 22 23  1  0
M  END
$$$$
