NNT.pdb
     RDKit          3D

 24 23  0  0  1  0  0  0  0  0999 V2000
   18.2542  -18.5833  -16.9124 N   0  0  0  0  0  0  0  0  0  0  0  0
   18.8683  -17.6226  -17.7479 C   0  0  0  0  0  0  0  0  0  0  0  0
   19.8722  -17.9151  -18.4473 O   0  0  0  0  0  0  0  0  0  0  0  0
   18.3641  -16.2327  -17.8414 C   0  0  0  0  0  0  0  0  0  0  0  0
   18.9610  -15.4360  -16.7163 C   0  0  2  0  0  0  0  0  0  0  0  0
   18.4655  -15.9582  -15.4778 N   0  0  0  0  0  0  0  0  0  0  0  0
   18.6234  -13.9932  -16.8760 C   0  0  0  0  0  0  0  0  0  0  0  0
   18.8999  -13.3961  -17.9383 O   0  0  0  0  0  0  0  0  0  0  0  0
   14.3755  -11.7699  -16.7080 N   0  0  0  0  0  0  0  0  0  0  0  0
   15.1679  -12.4134  -15.7234 C   0  0  0  0  0  0  0  0  0  0  0  0
   14.8892  -13.5808  -15.3535 O   0  0  0  0  0  0  0  0  0  0  0  0
   16.3168  -11.6491  -15.1682 C   0  0  0  0  0  0  0  0  0  0  0  0
   17.5976  -11.9489  -15.9166 C   0  0  2  0  0  0  0  0  0  0  0  0
   17.9845  -13.3344  -15.7887 N   0  0  0  0  0  0  0  0  0  0  0  0
   18.6763  -11.0998  -15.3721 C   0  0  0  0  0  0  0  0  0  0  0  0
   19.0565  -11.2207  -14.1862 O   0  0  0  0  0  0  0  0  0  0  0  0
   22.1567  -10.5270  -16.8352 C   0  0  0  0  0  0  0  0  0  0  0  0
   21.4262   -9.2249  -16.7886 C   0  0  1  0  0  0  0  0  0  0  0  0
   20.8140   -8.8863  -17.9947 O   0  0  0  0  0  0  0  0  0  0  0  0
   20.3403   -9.2623  -15.7295 C   0  0  2  0  0  0  0  0  0  0  0  0
   19.2871  -10.1344  -16.2100 N   0  0  0  0  0  0  0  0  0  0  0  0
   19.8216   -7.9314  -15.4090 C   0  0  0  0  0  0  0  0  0  0  0  0
   20.6148   -7.0047  -14.7572 O   0  0  0  0  0  0  0  0  0  0  0  0
   18.6544   -7.6060  -15.7172 O   0  0  0  0  0  0  0  0  0  0  0  0
  2  1  1  0
  2  3  2  0
  4  5  1  0
  4  2  1  0
  5  6  1  1
  7  5  1  0
  8  7  2  0
  9 10  1  0
 10 12  1  0
 11 10  2  0
 13 12  1  1
 13 15  1  0
 13 14  1  0
 14  7  1  0
 15 21  1  0
 16 15  2  0
 18 19  1  0
 18 17  1  6
 20 18  1  0
 20 22  1  0
 20 21  1  6
 22 24  2  0
 22 23  1  0
M  END
$$$$
