NNT.pdb
     RDKit          3D

 24 23  0  0  1  0  0  0  0  0999 V2000
   30.4011  -24.9902  -16.7863 N   0  0  0  0  0  0  0  0  0  0  0  0
   29.3501  -24.1636  -17.2447 C   0  0  0  0  0  0  0  0  0  0  0  0
   29.5265  -23.3489  -18.1868 O   0  0  0  0  0  0  0  0  0  0  0  0
   27.9973  -24.2147  -16.6429 C   0  0  0  0  0  0  0  0  0  0  0  0
   27.4173  -22.8291  -16.6636 C   0  0  2  0  0  0  0  0  0  0  0  0
   28.4595  -21.8964  -16.3536 N   0  0  0  0  0  0  0  0  0  0  0  0
   26.2898  -22.7320  -15.6940 C   0  0  0  0  0  0  0  0  0  0  0  0
   25.2856  -23.4648  -15.8212 O   0  0  0  0  0  0  0  0  0  0  0  0
   25.0719  -21.8833  -10.2236 N   0  0  0  0  0  0  0  0  0  0  0  0
   24.8171  -21.0117  -11.3131 C   0  0  0  0  0  0  0  0  0  0  0  0
   23.7691  -20.3200  -11.3358 O   0  0  0  0  0  0  0  0  0  0  0  0
   25.8331  -20.9638  -12.3983 C   0  0  0  0  0  0  0  0  0  0  0  0
   25.3692  -21.7148  -13.6277 C   0  0  2  0  0  0  0  0  0  0  0  0
   26.4008  -21.7875  -14.6357 N   0  0  0  0  0  0  0  0  0  0  0  0
   24.1959  -21.0198  -14.1947 C   0  0  0  0  0  0  0  0  0  0  0  0
   24.3041  -19.8834  -14.7068 O   0  0  0  0  0  0  0  0  0  0  0  0
   21.1460  -23.1609  -15.7933 C   0  0  0  0  0  0  0  0  0  0  0  0
   21.4171  -21.7083  -16.0120 C   0  0  1  0  0  0  0  0  0  0  0  0
   20.3450  -21.0211  -16.5800 O   0  0  0  0  0  0  0  0  0  0  0  0
   21.7423  -21.0244  -14.6972 C   0  0  2  0  0  0  0  0  0  0  0  0
   22.9298  -21.6544  -14.1556 N   0  0  0  0  0  0  0  0  0  0  0  0
   20.6316  -21.0796  -13.7451 C   0  0  0  0  0  0  0  0  0  0  0  0
   19.4361  -20.4412  -14.0201 O   0  0  0  0  0  0  0  0  0  0  0  0
   20.7408  -21.7034  -12.6671 O   0  0  0  0  0  0  0  0  0  0  0  0
  2  1  1  0
  2  3  2  0
  4  5  1  0
  4  2  1  0
  5  6  1  1
  7  5  1  0
  8  7  2  0
  9 10  1  0
 10 12  1  0
 11 10  2  0
 13 12  1  1
 13 15  1  0
 13 14  1  0
 14  7  1  0
 15 21  1  0
 16 15  2  0
 18 19  1  0
 18 17  1  1
 20 18  1  0
 20 22  1  0
 20 21  1  1
 22 24  2  0
 22 23  1  0
M  END
$$$$
