LNM.pdb
     RDKit          3D

 25 24  0  0  1  0  0  0  0  0999 V2000
   30.8859  -19.9595  -11.5069 C   0  0  0  0  0  0  0  0  0  0  0  0
   29.8098  -20.7855  -10.8321 C   0  0  2  0  0  0  0  0  0  0  0  0
   30.4144  -21.8382   -9.9226 C   0  0  0  0  0  0  0  0  0  0  0  0
   28.7844  -21.3236  -11.7521 C   0  0  0  0  0  0  0  0  0  0  0  0
   27.3678  -21.2682  -11.3145 C   0  0  2  0  0  0  0  0  0  0  0  0
   26.7949  -22.4500  -10.8182 N   0  0  0  0  0  0  0  0  0  0  0  0
   26.4509  -20.6464  -12.3119 C   0  0  0  0  0  0  0  0  0  0  0  0
   26.7036  -19.4237  -12.6246 O   0  0  0  0  0  0  0  0  0  0  0  0
   27.1610  -20.1590  -15.4472 N   0  0  0  0  0  0  0  0  0  0  0  0
   26.4735  -21.3911  -15.8024 C   0  0  0  0  0  0  0  0  0  0  0  0
   27.0589  -22.0725  -16.6523 O   0  0  0  0  0  0  0  0  0  0  0  0
   25.2113  -21.7332  -15.1762 C   0  0  0  0  0  0  0  0  0  0  0  0
   24.6847  -20.8125  -14.0961 C   0  0  2  0  0  0  0  0  0  0  0  0
   25.3726  -21.3344  -12.8881 N   0  0  0  0  0  0  0  0  0  0  0  0
   23.2371  -20.9079  -13.8811 C   0  0  0  0  0  0  0  0  0  0  0  0
   22.7923  -22.0363  -13.4260 O   0  0  0  0  0  0  0  0  0  0  0  0
   21.3655  -19.7550   -9.3844 C   0  0  0  0  0  0  0  0  0  0  0  0
   19.7626  -20.1003  -10.1564 S   0  0  0  0  0  0  0  0  0  0  0  0
   19.6193  -19.0060  -11.5948 C   0  0  0  0  0  0  0  0  0  0  0  0
   20.8515  -19.0096  -12.4317 C   0  0  0  0  0  0  0  0  0  0  0  0
   20.8861  -20.0845  -13.4983 C   0  0  2  0  0  0  0  0  0  0  0  0
   22.2373  -19.9572  -14.0851 N   0  0  0  0  0  0  0  0  0  0  0  0
   19.8472  -19.8144  -14.4894 C   0  0  0  0  0  0  0  0  0  0  0  0
   18.7396  -20.4489  -14.4970 O   0  0  0  0  0  0  0  0  0  0  0  0
   19.9892  -18.8568  -15.4837 O   0  0  0  0  0  0  0  0  0  0  0  0
  2  1  1  6
  3  2  1  0
  4  2  1  0
  5  4  1  0
  5  6  1  6
  7  8  2  0
  7  5  1  0
 10  9  1  0
 10 12  1  0
 11 10  2  0
 13 12  1  6
 13 14  1  0
 14  7  1  0
 15 16  2  0
 15 13  1  0
 17 18  1  0
 19 20  1  0
 19 18  1  0
 21 22  1  0
 21 20  1  1
 22 15  1  0
 23 21  1  0
 24 23  2  0
 25 23  1  0
M  END
$$$$
