LNM.pdb
     RDKit          3D

 25 24  0  0  1  0  0  0  0  0999 V2000
   18.4237  -16.8137  -16.3171 C   0  0  0  0  0  0  0  0  0  0  0  0
   18.2314  -16.4600  -17.7778 C   0  0  2  0  0  0  0  0  0  0  0  0
   18.8173  -17.5266  -18.6833 C   0  0  0  0  0  0  0  0  0  0  0  0
   18.6543  -15.0888  -18.1362 C   0  0  0  0  0  0  0  0  0  0  0  0
   18.1475  -13.9706  -17.3031 C   0  0  2  0  0  0  0  0  0  0  0  0
   16.7565  -13.8494  -17.1557 N   0  0  0  0  0  0  0  0  0  0  0  0
   18.7328  -12.6444  -17.6504 C   0  0  0  0  0  0  0  0  0  0  0  0
   20.0142  -12.6064  -17.7658 O   0  0  0  0  0  0  0  0  0  0  0  0
   17.6714   -8.9516  -21.3417 N   0  0  0  0  0  0  0  0  0  0  0  0
   17.1050   -9.7777  -20.2864 C   0  0  0  0  0  0  0  0  0  0  0  0
   16.3865  -10.6986  -20.6927 O   0  0  0  0  0  0  0  0  0  0  0  0
   17.3973   -9.4924  -18.8952 C   0  0  0  0  0  0  0  0  0  0  0  0
   18.5687  -10.2081  -18.2569 C   0  0  2  0  0  0  0  0  0  0  0  0
   17.9526  -11.4948  -17.8453 N   0  0  0  0  0  0  0  0  0  0  0  0
   19.0962   -9.5444  -17.0603 C   0  0  0  0  0  0  0  0  0  0  0  0
   18.2490   -9.3044  -16.1101 O   0  0  0  0  0  0  0  0  0  0  0  0
   24.6595  -10.5912  -14.1699 C   0  0  0  0  0  0  0  0  0  0  0  0
   23.4859  -10.1479  -12.8620 S   0  0  0  0  0  0  0  0  0  0  0  0
   22.3269   -8.9486  -13.5727 C   0  0  0  0  0  0  0  0  0  0  0  0
   21.7880   -9.3953  -14.8875 C   0  0  0  0  0  0  0  0  0  0  0  0
   20.7502   -8.4713  -15.4904 C   0  0  2  0  0  0  0  0  0  0  0  0
   20.3938   -9.1251  -16.7677 N   0  0  0  0  0  0  0  0  0  0  0  0
   21.3464   -7.1562  -15.7132 C   0  0  0  0  0  0  0  0  0  0  0  0
   21.8605   -6.8290  -16.8349 O   0  0  0  0  0  0  0  0  0  0  0  0
   21.3949   -6.1778  -14.7304 O   0  0  0  0  0  0  0  0  0  0  0  0
  2  1  1  1
  3  2  1  0
  4  2  1  0
  5  4  1  0
  5  6  1  6
  7  8  2  0
  7  5  1  0
 10  9  1  0
 10 12  1  0
 11 10  2  0
 13 12  1  1
 13 14  1  0
 14  7  1  0
 15 16  2  0
 15 13  1  0
 17 18  1  0
 19 20  1  0
 19 18  1  0
 21 22  1  0
 21 20  1  6
 22 15  1  0
 23 21  1  0
 24 23  2  0
 25 23  1  0
M  END
$$$$
