LNM.pdb
     RDKit          3D

 25 24  0  0  1  0  0  0  0  0999 V2000
   28.6706  -20.9303  -19.8469 C   0  0  0  0  0  0  0  0  0  0  0  0
   28.1674  -21.6990  -18.6421 C   0  0  2  0  0  0  0  0  0  0  0  0
   27.1037  -22.7056  -19.0374 C   0  0  0  0  0  0  0  0  0  0  0  0
   27.7758  -20.8512  -17.4952 C   0  0  0  0  0  0  0  0  0  0  0  0
   27.8255  -21.4562  -16.1413 C   0  0  2  0  0  0  0  0  0  0  0  0
   27.2208  -22.7115  -15.9687 N   0  0  0  0  0  0  0  0  0  0  0  0
   27.3918  -20.5361  -15.0517 C   0  0  0  0  0  0  0  0  0  0  0  0
   27.3989  -19.2811  -15.3373 O   0  0  0  0  0  0  0  0  0  0  0  0
   23.5066  -19.1877  -11.9539 N   0  0  0  0  0  0  0  0  0  0  0  0
   23.5006  -19.9004  -13.2223 C   0  0  0  0  0  0  0  0  0  0  0  0
   22.3900  -19.9674  -13.7620 O   0  0  0  0  0  0  0  0  0  0  0  0
   24.7275  -20.4613  -13.7539 C   0  0  0  0  0  0  0  0  0  0  0  0
   26.0051  -20.2358  -12.9739 C   0  0  2  0  0  0  0  0  0  0  0  0
   26.9947  -20.9893  -13.7848 N   0  0  0  0  0  0  0  0  0  0  0  0
   25.9888  -20.8021  -11.6212 C   0  0  0  0  0  0  0  0  0  0  0  0
   25.6847  -22.0575  -11.5225 O   0  0  0  0  0  0  0  0  0  0  0  0
   28.1935  -18.0022   -6.4384 C   0  0  0  0  0  0  0  0  0  0  0  0
   27.8840  -19.5870   -5.6155 S   0  0  0  0  0  0  0  0  0  0  0  0
   26.8230  -20.5594   -6.7180 C   0  0  0  0  0  0  0  0  0  0  0  0
   26.9382  -20.1269   -8.1387 C   0  0  0  0  0  0  0  0  0  0  0  0
   26.0516  -20.8870   -9.1031 C   0  0  2  0  0  0  0  0  0  0  0  0
   26.2603  -20.1973  -10.3942 N   0  0  0  0  0  0  0  0  0  0  0  0
   24.6620  -20.7853   -8.6634 C   0  0  0  0  0  0  0  0  0  0  0  0
   23.8393  -19.9743   -9.2066 O   0  0  0  0  0  0  0  0  0  0  0  0
   24.1422  -21.5568   -7.6337 O   0  0  0  0  0  0  0  0  0  0  0  0
  2  1  1  6
  3  2  1  0
  4  2  1  0
  5  4  1  0
  5  6  1  6
  7  8  2  0
  7  5  1  0
 10  9  1  0
 10 12  1  0
 11 10  2  0
 13 12  1  6
 13 14  1  0
 14  7  1  0
 15 16  2  0
 15 13  1  0
 17 18  1  0
 19 20  1  0
 19 18  1  0
 21 22  1  0
 21 20  1  1
 22 15  1  0
 23 21  1  0
 24 23  2  0
 25 23  1  0
M  END
$$$$
