LNM.pdb
     RDKit          3D

 25 24  0  0  1  0  0  0  0  0999 V2000
   28.8605  -18.8550  -17.1492 C   0  0  0  0  0  0  0  0  0  0  0  0
   27.8660  -17.7834  -16.7515 C   0  0  2  0  0  0  0  0  0  0  0  0
   28.2323  -16.4417  -17.3571 C   0  0  0  0  0  0  0  0  0  0  0  0
   27.5867  -17.7159  -15.3007 C   0  0  0  0  0  0  0  0  0  0  0  0
   27.4297  -18.9965  -14.5680 C   0  0  2  0  0  0  0  0  0  0  0  0
   27.0206  -20.1197  -15.3044 N   0  0  0  0  0  0  0  0  0  0  0  0
   26.6132  -18.8861  -13.3258 C   0  0  0  0  0  0  0  0  0  0  0  0
   26.7720  -17.8082  -12.6406 O   0  0  0  0  0  0  0  0  0  0  0  0
   21.6014  -19.3530  -10.9133 N   0  0  0  0  0  0  0  0  0  0  0  0
   22.5276  -20.4552  -11.1238 C   0  0  0  0  0  0  0  0  0  0  0  0
   22.3220  -21.4366  -10.4001 O   0  0  0  0  0  0  0  0  0  0  0  0
   23.5810  -20.3487  -12.1145 C   0  0  0  0  0  0  0  0  0  0  0  0
   24.8888  -19.7143  -11.6914 C   0  0  2  0  0  0  0  0  0  0  0  0
   25.7188  -19.8842  -12.9109 N   0  0  0  0  0  0  0  0  0  0  0  0
   25.5551  -20.4001  -10.5795 C   0  0  0  0  0  0  0  0  0  0  0  0
   25.9600  -21.6099  -10.8045 O   0  0  0  0  0  0  0  0  0  0  0  0
   27.7924  -17.9771   -5.0558 C   0  0  0  0  0  0  0  0  0  0  0  0
   28.6331  -19.5826   -5.0610 S   0  0  0  0  0  0  0  0  0  0  0  0
   27.6535  -20.6916   -6.1085 C   0  0  0  0  0  0  0  0  0  0  0  0
   27.1496  -20.0116   -7.3342 C   0  0  0  0  0  0  0  0  0  0  0  0
   26.2422  -20.8617   -8.1990 C   0  0  2  0  0  0  0  0  0  0  0  0
   25.8372  -19.9497   -9.2901 N   0  0  0  0  0  0  0  0  0  0  0  0
   25.0905  -21.2938   -7.4108 C   0  0  0  0  0  0  0  0  0  0  0  0
   23.9501  -20.7298   -7.5159 O   0  0  0  0  0  0  0  0  0  0  0  0
   25.1536  -22.3393   -6.5005 O   0  0  0  0  0  0  0  0  0  0  0  0
  2  1  1  1
  3  2  1  0
  4  2  1  0
  5  4  1  0
  5  6  1  6
  7  8  2  0
  7  5  1  0
 10  9  1  0
 10 12  1  0
 11 10  2  0
 13 12  1  6
 13 14  1  0
 14  7  1  0
 15 16  2  0
 15 13  1  0
 17 18  1  0
 19 20  1  0
 19 18  1  0
 21 22  1  0
 21 20  1  1
 22 15  1  0
 23 21  1  0
 24 23  2  0
 25 23  1  0
M  END
$$$$
