LNM.pdb
     RDKit          3D

 25 24  0  0  1  0  0  0  0  0999 V2000
   30.3933  -19.0418  -18.5737 C   0  0  0  0  0  0  0  0  0  0  0  0
   29.1168  -18.2332  -18.4633 C   0  0  2  0  0  0  0  0  0  0  0  0
   29.2234  -16.9300  -19.2324 C   0  0  0  0  0  0  0  0  0  0  0  0
   28.6196  -18.0600  -17.0812 C   0  0  0  0  0  0  0  0  0  0  0  0
   28.4572  -19.2774  -16.2489 C   0  0  2  0  0  0  0  0  0  0  0  0
   28.2041  -20.4886  -16.9125 N   0  0  0  0  0  0  0  0  0  0  0  0
   27.4983  -19.1140  -15.1194 C   0  0  0  0  0  0  0  0  0  0  0  0
   27.5966  -18.0189  -14.4502 O   0  0  0  0  0  0  0  0  0  0  0  0
   22.9733  -19.7516  -12.3484 N   0  0  0  0  0  0  0  0  0  0  0  0
   23.0152  -20.3418  -13.6777 C   0  0  0  0  0  0  0  0  0  0  0  0
   21.9235  -20.7577  -14.0834 O   0  0  0  0  0  0  0  0  0  0  0  0
   24.2636  -20.4063  -14.4122 C   0  0  0  0  0  0  0  0  0  0  0  0
   25.4973  -19.8147  -13.7644 C   0  0  2  0  0  0  0  0  0  0  0  0
   26.5380  -20.0821  -14.7892 N   0  0  0  0  0  0  0  0  0  0  0  0
   25.8952  -20.4767  -12.5178 C   0  0  0  0  0  0  0  0  0  0  0  0
   26.2325  -21.7243  -12.6067 O   0  0  0  0  0  0  0  0  0  0  0  0
   29.6944  -19.5980   -7.3997 C   0  0  0  0  0  0  0  0  0  0  0  0
   28.0722  -19.7100   -6.5995 S   0  0  0  0  0  0  0  0  0  0  0  0
   27.0021  -20.6735   -7.7010 C   0  0  0  0  0  0  0  0  0  0  0  0
   26.9328  -20.0926   -9.0708 C   0  0  0  0  0  0  0  0  0  0  0  0
   26.0259  -20.8390  -10.0271 C   0  0  2  0  0  0  0  0  0  0  0  0
   25.9784  -19.9688  -11.2216 N   0  0  0  0  0  0  0  0  0  0  0  0
   24.7041  -20.9866   -9.4225 C   0  0  0  0  0  0  0  0  0  0  0  0
   23.7304  -20.2213   -9.7324 O   0  0  0  0  0  0  0  0  0  0  0  0
   24.4154  -21.9609   -8.4775 O   0  0  0  0  0  0  0  0  0  0  0  0
  2  1  1  1
  3  2  1  0
  4  2  1  0
  5  4  1  0
  5  6  1  6
  7  8  2  0
  7  5  1  0
 10  9  1  0
 10 12  1  0
 11 10  2  0
 13 12  1  6
 13 14  1  0
 14  7  1  0
 15 16  2  0
 15 13  1  0
 17 18  1  0
 19 20  1  0
 19 18  1  0
 21 22  1  0
 21 20  1  1
 22 15  1  0
 23 21  1  0
 24 23  2  0
 25 23  1  0
M  END
$$$$
