LNM.pdb
     RDKit          3D

 25 24  0  0  1  0  0  0  0  0999 V2000
   27.6160  -14.7805  -15.4726 C   0  0  0  0  0  0  0  0  0  0  0  0
   26.3074  -15.1680  -16.1308 C   0  0  2  0  0  0  0  0  0  0  0  0
   25.2537  -14.0949  -15.9329 C   0  0  0  0  0  0  0  0  0  0  0  0
   25.8316  -16.5271  -15.7932 C   0  0  0  0  0  0  0  0  0  0  0  0
   26.8232  -17.6305  -15.8151 C   0  0  2  0  0  0  0  0  0  0  0  0
   27.5744  -17.8051  -16.9884 N   0  0  0  0  0  0  0  0  0  0  0  0
   26.2764  -18.9436  -15.3692 C   0  0  0  0  0  0  0  0  0  0  0  0
   24.9939  -19.0525  -15.3774 O   0  0  0  0  0  0  0  0  0  0  0  0
   29.1304  -22.1423  -17.0851 N   0  0  0  0  0  0  0  0  0  0  0  0
   27.8028  -22.3654  -16.5333 C   0  0  0  0  0  0  0  0  0  0  0  0
   26.9373  -22.6197  -17.3792 O   0  0  0  0  0  0  0  0  0  0  0  0
   27.5797  -22.2821  -15.1030 C   0  0  0  0  0  0  0  0  0  0  0  0
   26.5122  -21.3300  -14.6074 C   0  0  2  0  0  0  0  0  0  0  0  0
   27.0922  -20.0100  -14.9622 N   0  0  0  0  0  0  0  0  0  0  0  0
   26.3026  -21.3679  -13.1565 C   0  0  0  0  0  0  0  0  0  0  0  0
   27.3271  -21.6890  -12.4315 O   0  0  0  0  0  0  0  0  0  0  0  0
   28.7956  -20.2048   -8.2252 C   0  0  0  0  0  0  0  0  0  0  0  0
   27.2129  -19.3290   -8.1140 S   0  0  0  0  0  0  0  0  0  0  0  0
   25.9526  -20.4162   -8.8325 C   0  0  0  0  0  0  0  0  0  0  0  0
   26.0397  -20.4764  -10.3183 C   0  0  0  0  0  0  0  0  0  0  0  0
   25.0497  -21.4192  -10.9703 C   0  0  2  0  0  0  0  0  0  0  0  0
   25.1546  -21.1017  -12.4106 N   0  0  0  0  0  0  0  0  0  0  0  0
   23.7095  -21.1401  -10.4596 C   0  0  0  0  0  0  0  0  0  0  0  0
   23.4120  -21.2887   -9.2271 O   0  0  0  0  0  0  0  0  0  0  0  0
   22.6744  -20.6970  -11.2706 O   0  0  0  0  0  0  0  0  0  0  0  0
  2  1  1  1
  3  2  1  0
  4  2  1  0
  5  4  1  0
  5  6  1  6
  7  8  2  0
  7  5  1  0
 10  9  1  0
 10 12  1  0
 11 10  2  0
 13 12  1  1
 13 14  1  0
 14  7  1  0
 15 16  2  0
 15 13  1  0
 17 18  1  0
 19 20  1  0
 19 18  1  0
 21 22  1  0
 21 20  1  1
 22 15  1  0
 23 21  1  0
 24 23  2  0
 25 23  1  0
M  END
$$$$
