LNM.pdb
     RDKit          3D

 25 24  0  0  1  0  0  0  0  0999 V2000
   19.8975  -17.0249  -17.1264 C   0  0  0  0  0  0  0  0  0  0  0  0
   18.7853  -16.3644  -17.9154 C   0  0  2  0  0  0  0  0  0  0  0  0
   18.6044  -17.0252  -19.2688 C   0  0  0  0  0  0  0  0  0  0  0  0
   18.8798  -14.8903  -17.9899 C   0  0  0  0  0  0  0  0  0  0  0  0
   19.0210  -14.1429  -16.7161 C   0  0  2  0  0  0  0  0  0  0  0  0
   18.1062  -14.4297  -15.6903 N   0  0  0  0  0  0  0  0  0  0  0  0
   19.1328  -12.6667  -16.8906 C   0  0  0  0  0  0  0  0  0  0  0  0
   19.9793  -12.2658  -17.7734 O   0  0  0  0  0  0  0  0  0  0  0  0
   15.4590   -7.9049  -15.7570 N   0  0  0  0  0  0  0  0  0  0  0  0
   16.7777   -8.4098  -16.1077 C   0  0  0  0  0  0  0  0  0  0  0  0
   17.5825   -7.5348  -16.4482 O   0  0  0  0  0  0  0  0  0  0  0  0
   17.0601   -9.8305  -16.0426 C   0  0  0  0  0  0  0  0  0  0  0  0
   18.4547  -10.2923  -16.4077 C   0  0  2  0  0  0  0  0  0  0  0  0
   18.3703  -11.7520  -16.1488 N   0  0  0  0  0  0  0  0  0  0  0  0
   19.5121   -9.7328  -15.5594 C   0  0  0  0  0  0  0  0  0  0  0  0
   19.4553  -10.0204  -14.2975 O   0  0  0  0  0  0  0  0  0  0  0  0
   25.1908  -12.4080  -15.2532 C   0  0  0  0  0  0  0  0  0  0  0  0
   24.8797  -10.6969  -15.7629 S   0  0  0  0  0  0  0  0  0  0  0  0
   23.3370  -10.1772  -14.9650 C   0  0  0  0  0  0  0  0  0  0  0  0
   22.9014   -8.8229  -15.4065 C   0  0  0  0  0  0  0  0  0  0  0  0
   21.5425   -8.3981  -14.8900 C   0  0  2  0  0  0  0  0  0  0  0  0
   20.5994   -8.9277  -15.8981 N   0  0  0  0  0  0  0  0  0  0  0  0
   21.4864   -6.9397  -14.8223 C   0  0  0  0  0  0  0  0  0  0  0  0
   21.0214   -6.2365  -15.7809 O   0  0  0  0  0  0  0  0  0  0  0  0
   21.9300   -6.2218  -13.7208 O   0  0  0  0  0  0  0  0  0  0  0  0
  2  1  1  6
  3  2  1  0
  4  2  1  0
  5  4  1  0
  5  6  1  1
  7  8  2  0
  7  5  1  0
 10  9  1  0
 10 12  1  0
 11 10  2  0
 13 12  1  1
 13 14  1  0
 14  7  1  0
 15 16  2  0
 15 13  1  0
 17 18  1  0
 19 20  1  0
 19 18  1  0
 21 22  1  0
 21 20  1  6
 22 15  1  0
 23 21  1  0
 24 23  2  0
 25 23  1  0
M  END
$$$$
