LNM.pdb
     RDKit          3D

 25 24  0  0  1  0  0  0  0  0999 V2000
   21.1716  -18.1381  -16.5138 C   0  0  0  0  0  0  0  0  0  0  0  0
   22.4965  -18.0368  -17.2418 C   0  0  2  0  0  0  0  0  0  0  0  0
   22.3029  -18.0900  -18.7453 C   0  0  0  0  0  0  0  0  0  0  0  0
   23.5372  -18.9659  -16.7508 C   0  0  0  0  0  0  0  0  0  0  0  0
   23.8447  -18.9526  -15.2994 C   0  0  2  0  0  0  0  0  0  0  0  0
   24.0999  -17.7083  -14.7013 N   0  0  0  0  0  0  0  0  0  0  0  0
   24.8963  -19.9288  -14.8953 C   0  0  0  0  0  0  0  0  0  0  0  0
   24.7174  -21.1430  -15.2830 O   0  0  0  0  0  0  0  0  0  0  0  0
   28.4998  -17.8241  -15.6903 N   0  0  0  0  0  0  0  0  0  0  0  0
   28.4902  -19.2613  -15.4638 C   0  0  0  0  0  0  0  0  0  0  0  0
   28.6191  -19.9382  -16.4907 O   0  0  0  0  0  0  0  0  0  0  0  0
   28.3388  -19.7912  -14.1227 C   0  0  0  0  0  0  0  0  0  0  0  0
   27.0739  -20.5594  -13.8039 C   0  0  2  0  0  0  0  0  0  0  0  0
   26.0215  -19.5671  -14.1394 N   0  0  0  0  0  0  0  0  0  0  0  0
   26.9336  -20.9219  -12.3899 C   0  0  0  0  0  0  0  0  0  0  0  0
   27.6023  -21.9561  -11.9880 O   0  0  0  0  0  0  0  0  0  0  0  0
   28.8793  -19.6046   -7.1818 C   0  0  0  0  0  0  0  0  0  0  0  0
   27.2409  -19.8047   -6.4333 S   0  0  0  0  0  0  0  0  0  0  0  0
   26.1903  -20.6201   -7.6654 C   0  0  0  0  0  0  0  0  0  0  0  0
   26.5932  -20.2868   -9.0602 C   0  0  0  0  0  0  0  0  0  0  0  0
   25.8152  -21.0195  -10.1334 C   0  0  2  0  0  0  0  0  0  0  0  0
   26.1851  -20.3168  -11.3806 N   0  0  0  0  0  0  0  0  0  0  0  0
   24.3851  -20.9004   -9.8589 C   0  0  0  0  0  0  0  0  0  0  0  0
   23.6128  -20.1967  -10.5924 O   0  0  0  0  0  0  0  0  0  0  0  0
   23.7701  -21.5387   -8.7912 O   0  0  0  0  0  0  0  0  0  0  0  0
  2  1  1  1
  3  2  1  0
  4  2  1  0
  5  4  1  0
  5  6  1  6
  7  8  2  0
  7  5  1  0
 10  9  1  0
 10 12  1  0
 11 10  2  0
 13 12  1  1
 13 14  1  0
 14  7  1  0
 15 16  2  0
 15 13  1  0
 17 18  1  0
 19 20  1  0
 19 18  1  0
 21 22  1  0
 21 20  1  1
 22 15  1  0
 23 21  1  0
 24 23  2  0
 25 23  1  0
M  END
$$$$
