LNM.pdb
     RDKit          3D

 25 24  0  0  1  0  0  0  0  0999 V2000
   24.9828  -14.5714  -18.0531 C   0  0  0  0  0  0  0  0  0  0  0  0
   26.3856  -15.1112  -18.2438 C   0  0  2  0  0  0  0  0  0  0  0  0
   26.8114  -15.0338  -19.6976 C   0  0  0  0  0  0  0  0  0  0  0  0
   26.6189  -16.4382  -17.6337 C   0  0  0  0  0  0  0  0  0  0  0  0
   26.1102  -16.6643  -16.2584 C   0  0  2  0  0  0  0  0  0  0  0  0
   26.4204  -15.7012  -15.2850 N   0  0  0  0  0  0  0  0  0  0  0  0
   26.3948  -18.0268  -15.7250 C   0  0  0  0  0  0  0  0  0  0  0  0
   26.0718  -19.0105  -16.4896 O   0  0  0  0  0  0  0  0  0  0  0  0
   30.1272  -20.4334  -11.6150 N   0  0  0  0  0  0  0  0  0  0  0  0
   29.0927  -20.6462  -12.6158 C   0  0  0  0  0  0  0  0  0  0  0  0
   28.7029  -21.8166  -12.7024 O   0  0  0  0  0  0  0  0  0  0  0  0
   28.6032  -19.5373  -13.4116 C   0  0  0  0  0  0  0  0  0  0  0  0
   27.1901  -19.6208  -13.9481 C   0  0  2  0  0  0  0  0  0  0  0  0
   26.9798  -18.2463  -14.4688 N   0  0  0  0  0  0  0  0  0  0  0  0
   26.1752  -19.8874  -12.9237 C   0  0  0  0  0  0  0  0  0  0  0  0
   26.0310  -18.9872  -12.0032 O   0  0  0  0  0  0  0  0  0  0  0  0
   27.8440  -20.7193   -8.3293 C   0  0  0  0  0  0  0  0  0  0  0  0
   26.2044  -20.1182   -7.8449 S   0  0  0  0  0  0  0  0  0  0  0  0
   25.0227  -20.7607   -9.0604 C   0  0  0  0  0  0  0  0  0  0  0  0
   25.5571  -20.7078  -10.4498 C   0  0  0  0  0  0  0  0  0  0  0  0
   24.6354  -21.2877  -11.5024 C   0  0  2  0  0  0  0  0  0  0  0  0
   25.3140  -20.9747  -12.7782 N   0  0  0  0  0  0  0  0  0  0  0  0
   23.3326  -20.6320  -11.4171 C   0  0  0  0  0  0  0  0  0  0  0  0
   23.0038  -19.6785  -12.1998 O   0  0  0  0  0  0  0  0  0  0  0  0
   22.3683  -20.9962  -10.4881 O   0  0  0  0  0  0  0  0  0  0  0  0
  2  1  1  6
  3  2  1  0
  4  2  1  0
  5  4  1  0
  5  6  1  1
  7  8  2  0
  7  5  1  0
 10  9  1  0
 10 12  1  0
 11 10  2  0
 13 12  1  1
 13 14  1  0
 14  7  1  0
 15 16  2  0
 15 13  1  0
 17 18  1  0
 19 20  1  0
 19 18  1  0
 21 22  1  0
 21 20  1  1
 22 15  1  0
 23 21  1  0
 24 23  2  0
 25 23  1  0
M  END
$$$$
