LNM.pdb
     RDKit          3D

 25 24  0  0  1  0  0  0  0  0999 V2000
   24.8412   -7.4519  -19.9848 C   0  0  0  0  0  0  0  0  0  0  0  0
   24.6607   -8.8107  -19.3393 C   0  0  2  0  0  0  0  0  0  0  0  0
   23.4062   -8.8523  -18.4877 C   0  0  0  0  0  0  0  0  0  0  0  0
   25.8609   -9.3211  -18.6417 C   0  0  0  0  0  0  0  0  0  0  0  0
   27.1586   -9.2466  -19.3571 C   0  0  2  0  0  0  0  0  0  0  0  0
   27.2782   -9.9597  -20.5606 N   0  0  0  0  0  0  0  0  0  0  0  0
   28.3419   -9.5190  -18.4925 C   0  0  0  0  0  0  0  0  0  0  0  0
   28.3705   -8.8999  -17.3644 O   0  0  0  0  0  0  0  0  0  0  0  0
   32.7585  -11.9866  -16.6726 N   0  0  0  0  0  0  0  0  0  0  0  0
   32.1849  -12.5861  -17.8678 C   0  0  0  0  0  0  0  0  0  0  0  0
   32.7863  -13.5882  -18.2721 O   0  0  0  0  0  0  0  0  0  0  0  0
   31.0065  -12.0086  -18.4845 C   0  0  0  0  0  0  0  0  0  0  0  0
   30.5050  -10.6841  -17.9498 C   0  0  2  0  0  0  0  0  0  0  0  0
   29.3728  -10.3944  -18.8658 N   0  0  0  0  0  0  0  0  0  0  0  0
   31.4757   -9.5898  -18.0542 C   0  0  0  0  0  0  0  0  0  0  0  0
   31.8137   -9.2277  -19.2512 O   0  0  0  0  0  0  0  0  0  0  0  0
   32.8473   -4.2572  -14.1150 C   0  0  0  0  0  0  0  0  0  0  0  0
   34.3907   -5.1633  -14.4004 S   0  0  0  0  0  0  0  0  0  0  0  0
   34.2435   -5.9663  -16.0191 C   0  0  0  0  0  0  0  0  0  0  0  0
   33.2440   -7.0707  -16.0126 C   0  0  0  0  0  0  0  0  0  0  0  0
   33.0686   -7.7702  -17.3444 C   0  0  2  0  0  0  0  0  0  0  0  0
   32.1049   -8.8526  -17.0513 N   0  0  0  0  0  0  0  0  0  0  0  0
   34.3556   -8.3066  -17.7809 C   0  0  0  0  0  0  0  0  0  0  0  0
   35.1275   -7.6575  -18.5635 O   0  0  0  0  0  0  0  0  0  0  0  0
   34.8266   -9.5484  -17.3787 O   0  0  0  0  0  0  0  0  0  0  0  0
  2  1  1  1
  3  2  1  0
  4  2  1  0
  5  4  1  0
  5  6  1  6
  7  8  2  0
  7  5  1  0
 10  9  1  0
 10 12  1  0
 11 10  2  0
 13 12  1  6
 13 14  1  0
 14  7  1  0
 15 16  2  0
 15 13  1  0
 17 18  1  0
 19 20  1  0
 19 18  1  0
 21 22  1  0
 21 20  1  1
 22 15  1  0
 23 21  1  0
 24 23  2  0
 25 23  1  0
M  END
$$$$
