LNM.pdb
     RDKit          3D

 25 24  0  0  1  0  0  0  0  0999 V2000
   29.1480  -18.1995  -15.9936 C   0  0  0  0  0  0  0  0  0  0  0  0
   27.9882  -18.4131  -16.9448 C   0  0  2  0  0  0  0  0  0  0  0  0
   27.4019  -17.0909  -17.4023 C   0  0  0  0  0  0  0  0  0  0  0  0
   26.9698  -19.3712  -16.4628 C   0  0  0  0  0  0  0  0  0  0  0  0
   27.4295  -20.4972  -15.6131 C   0  0  2  0  0  0  0  0  0  0  0  0
   28.1000  -21.5562  -16.2457 N   0  0  0  0  0  0  0  0  0  0  0  0
   26.3775  -21.0393  -14.7067 C   0  0  0  0  0  0  0  0  0  0  0  0
   25.7149  -22.0488  -15.1523 O   0  0  0  0  0  0  0  0  0  0  0  0
   25.0135  -20.7224   -8.7303 N   0  0  0  0  0  0  0  0  0  0  0  0
   24.5901  -20.9800  -10.0982 C   0  0  0  0  0  0  0  0  0  0  0  0
   23.4641  -21.4821  -10.1954 O   0  0  0  0  0  0  0  0  0  0  0  0
   25.4618  -20.6526  -11.2097 C   0  0  0  0  0  0  0  0  0  0  0  0
   24.9953  -21.0111  -12.6045 C   0  0  2  0  0  0  0  0  0  0  0  0
   26.1101  -20.4979  -13.4403 N   0  0  0  0  0  0  0  0  0  0  0  0
   23.7604  -20.3351  -13.0153 C   0  0  0  0  0  0  0  0  0  0  0  0
   23.8040  -19.0423  -13.0862 O   0  0  0  0  0  0  0  0  0  0  0  0
   20.3008  -17.1831  -18.2532 C   0  0  0  0  0  0  0  0  0  0  0  0
   20.8059  -18.8214  -17.6655 S   0  0  0  0  0  0  0  0  0  0  0  0
   20.8175  -18.7553  -15.8538 C   0  0  0  0  0  0  0  0  0  0  0  0
   21.4459  -19.9628  -15.2490 C   0  0  0  0  0  0  0  0  0  0  0  0
   21.3659  -20.0252  -13.7378 C   0  0  2  0  0  0  0  0  0  0  0  0
   22.5184  -20.8695  -13.3571 N   0  0  0  0  0  0  0  0  0  0  0  0
   20.1009  -20.6428  -13.3467 C   0  0  0  0  0  0  0  0  0  0  0  0
   19.0105  -19.9802  -13.3039 O   0  0  0  0  0  0  0  0  0  0  0  0
   19.9955  -21.9818  -12.9980 O   0  0  0  0  0  0  0  0  0  0  0  0
  2  1  1  1
  3  2  1  0
  4  2  1  0
  5  4  1  0
  5  6  1  6
  7  8  2  0
  7  5  1  0
 10  9  1  0
 10 12  1  0
 11 10  2  0
 13 12  1  1
 13 14  1  0
 14  7  1  0
 15 16  2  0
 15 13  1  0
 17 18  1  0
 19 20  1  0
 19 18  1  0
 21 22  1  0
 21 20  1  6
 22 15  1  0
 23 21  1  0
 24 23  2  0
 25 23  1  0
M  END
$$$$
