LNM.pdb
     RDKit          3D

 25 24  0  0  1  0  0  0  0  0999 V2000
   14.6955   -9.6857  -16.5370 C   0  0  0  0  0  0  0  0  0  0  0  0
   16.2081   -9.7729  -16.5175 C   0  0  2  0  0  0  0  0  0  0  0  0
   16.7292  -10.5497  -17.7116 C   0  0  0  0  0  0  0  0  0  0  0  0
   16.7785  -10.2238  -15.2296 C   0  0  0  0  0  0  0  0  0  0  0  0
   18.2563  -10.2433  -15.0987 C   0  0  2  0  0  0  0  0  0  0  0  0
   18.9100  -11.4689  -15.3029 N   0  0  0  0  0  0  0  0  0  0  0  0
   18.7608   -9.6076  -13.8483 C   0  0  0  0  0  0  0  0  0  0  0  0
   18.8753  -10.3835  -12.8278 O   0  0  0  0  0  0  0  0  0  0  0  0
   22.0875   -6.4296  -10.8797 N   0  0  0  0  0  0  0  0  0  0  0  0
   21.3427   -5.8932  -12.0086 C   0  0  0  0  0  0  0  0  0  0  0  0
   21.3022   -4.6579  -12.0496 O   0  0  0  0  0  0  0  0  0  0  0  0
   20.7238   -6.7856  -12.9692 C   0  0  0  0  0  0  0  0  0  0  0  0
   19.5738   -7.6484  -12.4950 C   0  0  2  0  0  0  0  0  0  0  0  0
   19.0975   -8.2480  -13.7672 N   0  0  0  0  0  0  0  0  0  0  0  0
   18.4671   -6.8952  -11.8962 C   0  0  0  0  0  0  0  0  0  0  0  0
   17.7176   -6.2216  -12.7102 O   0  0  0  0  0  0  0  0  0  0  0  0
   12.6813   -6.4535   -6.7683 C   0  0  0  0  0  0  0  0  0  0  0  0
   14.1107   -7.3524   -7.4267 S   0  0  0  0  0  0  0  0  0  0  0  0
   14.9983   -6.2108   -8.5201 C   0  0  0  0  0  0  0  0  0  0  0  0
   16.1878   -6.8456   -9.1533 C   0  0  0  0  0  0  0  0  0  0  0  0
   16.9292   -5.9593  -10.1325 C   0  0  2  0  0  0  0  0  0  0  0  0
   18.0758   -6.7882  -10.5619 N   0  0  0  0  0  0  0  0  0  0  0  0
   17.3743   -4.7488   -9.4461 C   0  0  0  0  0  0  0  0  0  0  0  0
   18.5284   -4.6637   -8.9069 O   0  0  0  0  0  0  0  0  0  0  0  0
   16.5816   -3.6154   -9.3330 O   0  0  0  0  0  0  0  0  0  0  0  0
  2  1  1  1
  3  2  1  0
  4  2  1  0
  5  4  1  0
  5  6  1  1
  7  8  2  0
  7  5  1  0
 10  9  1  0
 10 12  1  0
 11 10  2  0
 13 12  1  6
 13 14  1  0
 14  7  1  0
 15 16  2  0
 15 13  1  0
 17 18  1  0
 19 20  1  0
 19 18  1  0
 21 22  1  0
 21 20  1  1
 22 15  1  0
 23 21  1  0
 24 23  2  0
 25 23  1  0
M  END
$$$$
