LNM.pdb
     RDKit          3D

 25 24  0  0  1  0  0  0  0  0999 V2000
   29.1425  -18.0052  -16.4743 C   0  0  0  0  0  0  0  0  0  0  0  0
   27.7749  -17.3560  -16.4105 C   0  0  2  0  0  0  0  0  0  0  0  0
   27.8266  -15.9174  -16.8888 C   0  0  0  0  0  0  0  0  0  0  0  0
   27.0799  -17.5192  -15.1152 C   0  0  0  0  0  0  0  0  0  0  0  0
   27.1427  -18.8496  -14.4614 C   0  0  2  0  0  0  0  0  0  0  0  0
   26.7866  -19.9686  -15.2311 N   0  0  0  0  0  0  0  0  0  0  0  0
   26.4521  -18.9078  -13.1417 C   0  0  0  0  0  0  0  0  0  0  0  0
   26.4529  -17.8183  -12.4564 O   0  0  0  0  0  0  0  0  0  0  0  0
   22.4655  -20.8593  -13.9550 N   0  0  0  0  0  0  0  0  0  0  0  0
   22.7818  -20.3117  -12.6446 C   0  0  0  0  0  0  0  0  0  0  0  0
   22.0972  -19.3329  -12.3245 O   0  0  0  0  0  0  0  0  0  0  0  0
   23.8232  -20.9095  -11.8320 C   0  0  0  0  0  0  0  0  0  0  0  0
   24.9951  -20.0392  -11.4307 C   0  0  2  0  0  0  0  0  0  0  0  0
   25.8313  -20.0690  -12.6573 N   0  0  0  0  0  0  0  0  0  0  0  0
   25.7864  -20.5757  -10.3186 C   0  0  0  0  0  0  0  0  0  0  0  0
   26.3720  -21.7135  -10.5204 O   0  0  0  0  0  0  0  0  0  0  0  0
   29.0537  -18.0757   -5.7607 C   0  0  0  0  0  0  0  0  0  0  0  0
   28.5463  -19.4377   -4.6782 S   0  0  0  0  0  0  0  0  0  0  0  0
   27.5575  -20.5760   -5.6848 C   0  0  0  0  0  0  0  0  0  0  0  0
   27.1811  -19.9855   -6.9995 C   0  0  0  0  0  0  0  0  0  0  0  0
   26.3467  -20.8908   -7.8816 C   0  0  2  0  0  0  0  0  0  0  0  0
   26.0231  -20.0453   -9.0506 N   0  0  0  0  0  0  0  0  0  0  0  0
   25.1395  -21.2878   -7.1607 C   0  0  0  0  0  0  0  0  0  0  0  0
   24.0003  -20.7706   -7.4147 O   0  0  0  0  0  0  0  0  0  0  0  0
   25.1453  -22.2473   -6.1582 O   0  0  0  0  0  0  0  0  0  0  0  0
  2  1  1  1
  3  2  1  0
  4  2  1  0
  5  4  1  0
  5  6  1  6
  7  8  2  0
  7  5  1  0
 10  9  1  0
 10 12  1  0
 11 10  2  0
 13 12  1  6
 13 14  1  0
 14  7  1  0
 15 16  2  0
 15 13  1  0
 17 18  1  0
 19 20  1  0
 19 18  1  0
 21 22  1  0
 21 20  1  1
 22 15  1  0
 23 21  1  0
 24 23  2  0
 25 23  1  0
M  END
$$$$
