CHK.pdb
     RDKit          3D

 26 26  0  0  1  0  0  0  0  0999 V2000
    7.9445  -13.0163   17.7486 N   0  0  0  0  0  0  0  0  0  0  0  0
    8.5341  -13.2530   19.0486 C   0  0  1  0  0  0  0  0  0  0  0  0
    7.6745  -12.6308   20.1343 C   0  0  0  0  0  0  0  0  0  0  0  0
    8.1907  -13.1978   21.7779 S   0  0  0  0  0  0  0  0  0  0  0  0
    8.6411  -14.6970   19.3575 C   0  0  0  0  0  0  0  0  0  0  0  0
    7.9780  -15.5753   18.7194 O   0  0  0  0  0  0  0  0  0  0  0  0
    9.5138  -15.0919   20.3989 N   0  0  0  0  0  0  0  0  0  0  0  0
    9.9741  -16.5340   20.4466 C   0  0  1  0  0  0  0  0  0  0  0  0
   11.0323  -16.5846   19.3764 C   0  0  0  0  0  0  0  0  0  0  0  0
   11.7388  -17.8367   19.1785 C   0  0  0  0  0  0  0  0  0  0  0  0
   11.6643  -19.0780   19.7320 C   0  0  0  0  0  0  0  0  0  0  0  0
   12.5273  -19.9365   19.1192 N   0  0  0  0  0  0  0  0  0  0  0  0
   13.1325  -19.2019   18.1792 C   0  0  0  0  0  0  0  0  0  0  0  0
   12.6844  -17.9613   18.1943 N   0  0  0  0  0  0  0  0  0  0  0  0
   10.6535  -16.5745   21.7728 C   0  0  0  0  0  0  0  0  0  0  0  0
   11.4131  -15.5753   22.0539 O   0  0  0  0  0  0  0  0  0  0  0  0
   10.5720  -17.5524   22.7534 N   0  0  0  0  0  0  0  0  0  0  0  0
   11.3545  -17.3945   23.9996 C   0  0  1  0  0  0  0  0  0  0  0  0
   10.8037  -18.3048   25.0545 C   0  0  0  0  0  0  0  0  0  0  0  0
   11.6003  -18.2820   26.3031 C   0  0  0  0  0  0  0  0  0  0  0  0
   11.0401  -19.1642   27.3932 C   0  0  0  0  0  0  0  0  0  0  0  0
   11.9559  -19.0231   28.6077 C   0  0  0  0  0  0  0  0  0  0  0  0
   11.3761  -19.7817   29.7209 N   0  0  0  0  0  0  0  0  0  0  0  0
   12.7492  -17.7272   23.6766 C   0  0  0  0  0  0  0  0  0  0  0  0
   13.0270  -18.7197   22.9786 O   0  0  0  0  0  0  0  0  0  0  0  0
   13.8186  -16.9577   24.1300 O   0  0  0  0  0  0  0  0  0  0  0  0
  2  5  1  0
  2  1  1  6
  3  2  1  0
  4  3  1  0
  5  6  2  0
  7  5  1  0
  7  8  1  0
  8 15  1  0
  8  9  1  6
  9 10  1  0
 10 11  2  0
 11 12  1  0
 13 12  1  0
 14 10  1  0
 14 13  2  0
 15 16  2  0
 17 18  1  0
 17 15  1  0
 18 24  1  0
 18 19  1  1
 20 19  1  0
 21 22  1  0
 21 20  1  0
 23 22  1  0
 24 25  2  0
 24 26  1  0
M  END
$$$$
