CHK.pdb
     RDKit          3D

 26 26  0  0  1  0  0  0  0  0999 V2000
    5.6012  -13.5585   26.8504 N   0  0  0  0  0  0  0  0  0  0  0  0
    6.5528  -12.9871   25.9222 C   0  0  1  0  0  0  0  0  0  0  0  0
    7.8532  -12.6664   26.6370 C   0  0  0  0  0  0  0  0  0  0  0  0
    7.6281  -11.3105   27.8203 S   0  0  0  0  0  0  0  0  0  0  0  0
    6.8845  -13.9183   24.8201 C   0  0  0  0  0  0  0  0  0  0  0  0
    6.7150  -15.1750   24.9233 O   0  0  0  0  0  0  0  0  0  0  0  0
    7.4052  -13.3736   23.6225 N   0  0  0  0  0  0  0  0  0  0  0  0
    7.6063  -14.2958   22.4381 C   0  0  1  0  0  0  0  0  0  0  0  0
    7.7390  -13.3370   21.2844 C   0  0  0  0  0  0  0  0  0  0  0  0
    8.0220  -13.8884   19.9722 C   0  0  0  0  0  0  0  0  0  0  0  0
    8.2470  -15.1396   19.4856 C   0  0  0  0  0  0  0  0  0  0  0  0
    8.3930  -15.1157   18.1308 N   0  0  0  0  0  0  0  0  0  0  0  0
    8.2527  -13.8288   17.7932 C   0  0  0  0  0  0  0  0  0  0  0  0
    8.0331  -13.0862   18.8611 N   0  0  0  0  0  0  0  0  0  0  0  0
    8.9563  -14.8538   22.7349 C   0  0  0  0  0  0  0  0  0  0  0  0
    9.6820  -14.1813   23.5570 O   0  0  0  0  0  0  0  0  0  0  0  0
    9.5375  -16.0128   22.2416 N   0  0  0  0  0  0  0  0  0  0  0  0
   10.7068  -16.5904   22.9411 C   0  0  1  0  0  0  0  0  0  0  0  0
   10.2920  -17.8355   23.6639 C   0  0  0  0  0  0  0  0  0  0  0  0
   11.4435  -18.5922   24.2076 C   0  0  0  0  0  0  0  0  0  0  0  0
   11.0504  -19.8752   24.9003 C   0  0  0  0  0  0  0  0  0  0  0  0
   12.3257  -20.4928   25.4711 C   0  0  0  0  0  0  0  0  0  0  0  0
   11.9648  -21.6989   26.2234 N   0  0  0  0  0  0  0  0  0  0  0  0
   11.7224  -16.8756   21.9176 C   0  0  0  0  0  0  0  0  0  0  0  0
   12.9219  -17.0072   22.2230 O   0  0  0  0  0  0  0  0  0  0  0  0
   11.3978  -17.0114   20.5695 O   0  0  0  0  0  0  0  0  0  0  0  0
  2  5  1  0
  2  1  1  1
  3  2  1  0
  4  3  1  0
  5  6  2  0
  7  5  1  0
  7  8  1  0
  8 15  1  0
  8  9  1  6
  9 10  1  0
 10 11  2  0
 11 12  1  0
 13 12  1  0
 14 10  1  0
 14 13  2  0
 15 16  2  0
 17 18  1  0
 17 15  1  0
 18 24  1  0
 18 19  1  6
 20 19  1  0
 21 22  1  0
 21 20  1  0
 23 22  1  0
 24 25  2  0
 24 26  1  0
M  END
$$$$
