CHK.pdb
     RDKit          3D

 26 26  0  0  1  0  0  0  0  0999 V2000
    9.9051  -16.3327   15.6776 N   0  0  0  0  0  0  0  0  0  0  0  0
   10.1734  -15.7287   16.9648 C   0  0  1  0  0  0  0  0  0  0  0  0
    9.2278  -16.2881   18.0127 C   0  0  0  0  0  0  0  0  0  0  0  0
    9.6687  -15.6963   19.6694 S   0  0  0  0  0  0  0  0  0  0  0  0
   11.5500  -16.0052   17.4343 C   0  0  0  0  0  0  0  0  0  0  0  0
   12.1136  -17.1306   17.2492 O   0  0  0  0  0  0  0  0  0  0  0  0
   12.2435  -14.9722   18.1080 N   0  0  0  0  0  0  0  0  0  0  0  0
   13.7010  -15.1901   18.4570 C   0  0  1  0  0  0  0  0  0  0  0  0
   14.3845  -14.0277   17.7867 C   0  0  0  0  0  0  0  0  0  0  0  0
   15.8201  -13.8958   17.9533 C   0  0  0  0  0  0  0  0  0  0  0  0
   16.7762  -14.5952   18.6239 C   0  0  0  0  0  0  0  0  0  0  0  0
   18.0143  -14.0778   18.3856 N   0  0  0  0  0  0  0  0  0  0  0  0
   17.8028  -13.0495   17.5566 C   0  0  0  0  0  0  0  0  0  0  0  0
   16.5177  -12.9224   17.2871 N   0  0  0  0  0  0  0  0  0  0  0  0
   13.6856  -14.9349   19.9256 C   0  0  0  0  0  0  0  0  0  0  0  0
   12.6607  -14.3068   20.3834 O   0  0  0  0  0  0  0  0  0  0  0  0
   14.6352  -15.2907   20.8722 N   0  0  0  0  0  0  0  0  0  0  0  0
   14.2527  -15.3307   22.3014 C   0  0  1  0  0  0  0  0  0  0  0  0
   13.2250  -16.4001   22.5140 C   0  0  0  0  0  0  0  0  0  0  0  0
   12.9430  -16.6459   23.9472 C   0  0  0  0  0  0  0  0  0  0  0  0
   12.0442  -17.8348   24.1907 C   0  0  0  0  0  0  0  0  0  0  0  0
   11.7810  -17.9054   25.6938 C   0  0  0  0  0  0  0  0  0  0  0  0
   10.7637  -18.9321   25.9425 N   0  0  0  0  0  0  0  0  0  0  0  0
   15.4777  -15.6020   23.0669 C   0  0  0  0  0  0  0  0  0  0  0  0
   16.4700  -16.1236   22.5260 O   0  0  0  0  0  0  0  0  0  0  0  0
   15.5891  -15.2926   24.4208 O   0  0  0  0  0  0  0  0  0  0  0  0
  2  5  1  0
  2  1  1  6
  3  2  1  0
  4  3  1  0
  5  6  2  0
  7  5  1  0
  7  8  1  0
  8 15  1  0
  8  9  1  6
  9 10  1  0
 10 11  2  0
 11 12  1  0
 13 12  1  0
 14 10  1  0
 14 13  2  0
 15 16  2  0
 17 18  1  0
 17 15  1  0
 18 24  1  0
 18 19  1  6
 20 19  1  0
 21 22  1  0
 21 20  1  0
 23 22  1  0
 24 25  2  0
 24 26  1  0
M  END
$$$$
