CHK.pdb
     RDKit          3D

 26 26  0  0  1  0  0  0  0  0999 V2000
    7.7301  -14.0036   16.9771 N   0  0  0  0  0  0  0  0  0  0  0  0
    8.5193  -13.8105   18.1743 C   0  0  1  0  0  0  0  0  0  0  0  0
    7.9560  -12.6627   18.9930 C   0  0  0  0  0  0  0  0  0  0  0  0
    8.8872  -12.4440   20.5339 S   0  0  0  0  0  0  0  0  0  0  0  0
    8.5114  -15.0070   19.0463 C   0  0  0  0  0  0  0  0  0  0  0  0
    7.4517  -15.6754   19.2664 O   0  0  0  0  0  0  0  0  0  0  0  0
    9.7312  -15.4029   19.6440 N   0  0  0  0  0  0  0  0  0  0  0  0
    9.7333  -16.6258   20.5375 C   0  0  1  0  0  0  0  0  0  0  0  0
   10.6769  -17.5597   19.8267 C   0  0  0  0  0  0  0  0  0  0  0  0
   10.1123  -18.5084   18.8848 C   0  0  0  0  0  0  0  0  0  0  0  0
    8.8705  -18.7282   18.3726 C   0  0  0  0  0  0  0  0  0  0  0  0
    8.8967  -19.7258   17.4444 N   0  0  0  0  0  0  0  0  0  0  0  0
   10.1758  -20.1143   17.3942 C   0  0  0  0  0  0  0  0  0  0  0  0
   10.9116  -19.4115   18.2337 N   0  0  0  0  0  0  0  0  0  0  0  0
   10.4272  -16.0968   21.7461 C   0  0  0  0  0  0  0  0  0  0  0  0
   10.9802  -14.9418   21.6250 O   0  0  0  0  0  0  0  0  0  0  0  0
   10.5537  -16.6874   22.9950 N   0  0  0  0  0  0  0  0  0  0  0  0
   10.2087  -15.9058   24.2034 C   0  0  1  0  0  0  0  0  0  0  0  0
    8.8174  -15.3661   24.0692 C   0  0  0  0  0  0  0  0  0  0  0  0
    8.4372  -14.4782   25.1922 C   0  0  0  0  0  0  0  0  0  0  0  0
    7.0326  -13.9345   25.0835 C   0  0  0  0  0  0  0  0  0  0  0  0
    6.8093  -13.0098   26.2788 C   0  0  0  0  0  0  0  0  0  0  0  0
    5.4641  -12.4341   26.1795 N   0  0  0  0  0  0  0  0  0  0  0  0
   10.3241  -16.8160   25.3516 C   0  0  0  0  0  0  0  0  0  0  0  0
    9.8591  -17.9697   25.3052 O   0  0  0  0  0  0  0  0  0  0  0  0
   10.9526  -16.4381   26.5363 O   0  0  0  0  0  0  0  0  0  0  0  0
  2  5  1  0
  2  1  1  6
  3  2  1  0
  4  3  1  0
  5  6  2  0
  7  5  1  0
  7  8  1  0
  8 15  1  0
  8  9  1  6
  9 10  1  0
 10 11  2  0
 11 12  1  0
 13 12  1  0
 14 10  1  0
 14 13  2  0
 15 16  2  0
 17 18  1  0
 17 15  1  0
 18 24  1  0
 18 19  1  6
 20 19  1  0
 21 22  1  0
 21 20  1  0
 23 22  1  0
 24 25  2  0
 24 26  1  0
M  END
$$$$
