CHK.pdb
     RDKit          3D

 26 26  0  0  1  0  0  0  0  0999 V2000
    7.9802  -13.9546   16.6682 N   0  0  0  0  0  0  0  0  0  0  0  0
    8.5099  -13.7948   18.0051 C   0  0  1  0  0  0  0  0  0  0  0  0
    7.9796  -12.5161   18.6288 C   0  0  0  0  0  0  0  0  0  0  0  0
    8.4592  -12.3957   20.3737 S   0  0  0  0  0  0  0  0  0  0  0  0
    8.1137  -14.9070   18.8984 C   0  0  0  0  0  0  0  0  0  0  0  0
    7.0003  -15.5098   18.7737 O   0  0  0  0  0  0  0  0  0  0  0  0
    9.0158  -15.2967   19.9164 N   0  0  0  0  0  0  0  0  0  0  0  0
    8.6177  -16.4308   20.8378 C   0  0  1  0  0  0  0  0  0  0  0  0
    9.2072  -17.6385   20.1585 C   0  0  0  0  0  0  0  0  0  0  0  0
    9.1448  -18.9090   20.8573 C   0  0  0  0  0  0  0  0  0  0  0  0
    8.5674  -19.3414   22.0116 C   0  0  0  0  0  0  0  0  0  0  0  0
    8.7559  -20.6809   22.1776 N   0  0  0  0  0  0  0  0  0  0  0  0
    9.4578  -21.0642   21.1052 C   0  0  0  0  0  0  0  0  0  0  0  0
    9.6989  -20.0378   20.3125 N   0  0  0  0  0  0  0  0  0  0  0  0
    9.4435  -16.1263   22.0409 C   0  0  0  0  0  0  0  0  0  0  0  0
   10.6118  -15.6357   21.8199 O   0  0  0  0  0  0  0  0  0  0  0  0
    9.1157  -16.2994   23.3777 N   0  0  0  0  0  0  0  0  0  0  0  0
   10.0919  -15.9078   24.4188 C   0  0  1  0  0  0  0  0  0  0  0  0
    9.3603  -15.4738   25.6522 C   0  0  0  0  0  0  0  0  0  0  0  0
   10.2727  -15.0542   26.7410 C   0  0  0  0  0  0  0  0  0  0  0  0
    9.5545  -14.5773   27.9808 C   0  0  0  0  0  0  0  0  0  0  0  0
   10.6169  -14.0747   28.9566 C   0  0  0  0  0  0  0  0  0  0  0  0
    9.9548  -13.6714   30.2015 N   0  0  0  0  0  0  0  0  0  0  0  0
   10.9366  -17.0820   24.6795 C   0  0  0  0  0  0  0  0  0  0  0  0
   10.4482  -18.2259   24.7276 O   0  0  0  0  0  0  0  0  0  0  0  0
   12.3107  -16.9756   24.8837 O   0  0  0  0  0  0  0  0  0  0  0  0
  2  5  1  0
  2  1  1  6
  3  2  1  0
  4  3  1  0
  5  6  2  0
  7  5  1  0
  7  8  1  0
  8 15  1  0
  8  9  1  6
  9 10  1  0
 10 11  2  0
 11 12  1  0
 13 12  1  0
 14 10  1  0
 14 13  2  0
 15 16  2  0
 17 18  1  0
 17 15  1  0
 18 24  1  0
 18 19  1  1
 20 19  1  0
 21 22  1  0
 21 20  1  0
 23 22  1  0
 24 25  2  0
 24 26  1  0
M  END
$$$$
