CHK.pdb
     RDKit          3D

 26 26  0  0  1  0  0  0  0  0999 V2000
    8.1103  -13.0878   17.6797 N   0  0  0  0  0  0  0  0  0  0  0  0
    9.0975  -13.1406   18.7362 C   0  0  1  0  0  0  0  0  0  0  0  0
    8.5768  -12.4338   19.9749 C   0  0  0  0  0  0  0  0  0  0  0  0
    7.1510  -13.3104   20.6733 S   0  0  0  0  0  0  0  0  0  0  0  0
    9.4144  -14.5310   19.1340 C   0  0  0  0  0  0  0  0  0  0  0  0
    8.8636  -15.5346   18.5791 O   0  0  0  0  0  0  0  0  0  0  0  0
   10.3623  -14.7285   20.1658 N   0  0  0  0  0  0  0  0  0  0  0  0
   10.6661  -16.1458   20.6048 C   0  0  1  0  0  0  0  0  0  0  0  0
   11.7014  -16.5922   19.6066 C   0  0  0  0  0  0  0  0  0  0  0  0
   12.6147  -15.5935   19.0825 C   0  0  0  0  0  0  0  0  0  0  0  0
   12.8501  -14.2784   19.3428 C   0  0  0  0  0  0  0  0  0  0  0  0
   13.8949  -13.8150   18.6005 N   0  0  0  0  0  0  0  0  0  0  0  0
   14.2981  -14.8681   17.8807 C   0  0  0  0  0  0  0  0  0  0  0  0
   13.5592  -15.9278   18.1475 N   0  0  0  0  0  0  0  0  0  0  0  0
   11.3513  -15.9023   21.9061 C   0  0  0  0  0  0  0  0  0  0  0  0
   11.5729  -14.6726   22.2112 O   0  0  0  0  0  0  0  0  0  0  0  0
   11.7818  -16.8326   22.8408 N   0  0  0  0  0  0  0  0  0  0  0  0
   10.8379  -17.3073   23.8772 C   0  0  1  0  0  0  0  0  0  0  0  0
    9.6392  -17.9194   23.2189 C   0  0  0  0  0  0  0  0  0  0  0  0
    8.7141  -18.5510   24.1881 C   0  0  0  0  0  0  0  0  0  0  0  0
    7.5875  -19.3171   23.5366 C   0  0  0  0  0  0  0  0  0  0  0  0
    6.7571  -19.9433   24.6555 C   0  0  0  0  0  0  0  0  0  0  0  0
    5.7558  -20.8302   24.0541 N   0  0  0  0  0  0  0  0  0  0  0  0
   11.5599  -18.2885   24.6993 C   0  0  0  0  0  0  0  0  0  0  0  0
   12.4425  -19.0141   24.2054 O   0  0  0  0  0  0  0  0  0  0  0  0
   11.2963  -18.4544   26.0574 O   0  0  0  0  0  0  0  0  0  0  0  0
  2  5  1  0
  2  1  1  6
  3  2  1  0
  4  3  1  0
  5  6  2  0
  7  5  1  0
  7  8  1  0
  8 15  1  0
  8  9  1  6
  9 10  1  0
 10 11  2  0
 11 12  1  0
 13 12  1  0
 14 10  1  0
 14 13  2  0
 15 16  2  0
 17 18  1  0
 17 15  1  0
 18 24  1  0
 18 19  1  6
 20 19  1  0
 21 22  1  0
 21 20  1  0
 23 22  1  0
 24 25  2  0
 24 26  1  0
M  END
$$$$
