CHK.pdb
     RDKit          3D

 26 26  0  0  1  0  0  0  0  0999 V2000
    7.5633  -13.5729   18.3952 N   0  0  0  0  0  0  0  0  0  0  0  0
    8.8511  -13.1405   18.8935 C   0  0  1  0  0  0  0  0  0  0  0  0
    8.7125  -12.6062   20.3078 C   0  0  0  0  0  0  0  0  0  0  0  0
    7.9152  -13.8250   21.3886 S   0  0  0  0  0  0  0  0  0  0  0  0
    9.8299  -14.2501   18.9453 C   0  0  0  0  0  0  0  0  0  0  0  0
    9.4811  -15.4656   18.8070 O   0  0  0  0  0  0  0  0  0  0  0  0
   11.1912  -13.9273   19.1563 N   0  0  0  0  0  0  0  0  0  0  0  0
   12.2191  -15.0352   19.0572 C   0  0  1  0  0  0  0  0  0  0  0  0
   13.2814  -14.4303   18.1777 C   0  0  0  0  0  0  0  0  0  0  0  0
   13.5533  -15.0697   16.9035 C   0  0  0  0  0  0  0  0  0  0  0  0
   13.0346  -16.1361   16.2354 C   0  0  0  0  0  0  0  0  0  0  0  0
   13.6149  -16.2713   15.0097 N   0  0  0  0  0  0  0  0  0  0  0  0
   14.4981  -15.2692   14.9357 C   0  0  0  0  0  0  0  0  0  0  0  0
   14.4800  -14.5471   16.0396 N   0  0  0  0  0  0  0  0  0  0  0  0
   12.7384  -15.0705   20.4540 C   0  0  0  0  0  0  0  0  0  0  0  0
   12.8444  -13.9360   21.0507 O   0  0  0  0  0  0  0  0  0  0  0  0
   13.1221  -16.1732   21.2033 N   0  0  0  0  0  0  0  0  0  0  0  0
   13.5866  -15.9766   22.5946 C   0  0  1  0  0  0  0  0  0  0  0  0
   13.3336  -17.2228   23.3869 C   0  0  0  0  0  0  0  0  0  0  0  0
   11.8913  -17.4774   23.6081 C   0  0  0  0  0  0  0  0  0  0  0  0
   11.6108  -18.7706   24.3357 C   0  0  0  0  0  0  0  0  0  0  0  0
   10.0964  -18.8781   24.5044 C   0  0  0  0  0  0  0  0  0  0  0  0
    9.7909  -20.1359   25.1939 N   0  0  0  0  0  0  0  0  0  0  0  0
   15.0210  -15.6629   22.5287 C   0  0  0  0  0  0  0  0  0  0  0  0
   15.6741  -15.8614   21.4878 O   0  0  0  0  0  0  0  0  0  0  0  0
   15.7144  -15.1337   23.6152 O   0  0  0  0  0  0  0  0  0  0  0  0
  2  5  1  0
  2  1  1  1
  3  2  1  0
  4  3  1  0
  5  6  2  0
  7  5  1  0
  7  8  1  0
  8 15  1  0
  8  9  1  6
  9 10  1  0
 10 11  2  0
 11 12  1  0
 13 12  1  0
 14 10  1  0
 14 13  2  0
 15 16  2  0
 17 18  1  0
 17 15  1  0
 18 24  1  0
 18 19  1  1
 20 19  1  0
 21 22  1  0
 21 20  1  0
 23 22  1  0
 24 25  2  0
 24 26  1  0
M  END
$$$$
