CHK.pdb
     RDKit          3D

 26 26  0  0  1  0  0  0  0  0999 V2000
    5.2090  -13.6707   25.7953 N   0  0  0  0  0  0  0  0  0  0  0  0
    6.5801  -13.3682   25.4462 C   0  0  1  0  0  0  0  0  0  0  0  0
    7.3938  -13.1046   26.7006 C   0  0  0  0  0  0  0  0  0  0  0  0
    6.8541  -11.5779   27.5174 S   0  0  0  0  0  0  0  0  0  0  0  0
    7.2347  -14.4896   24.7350 C   0  0  0  0  0  0  0  0  0  0  0  0
    6.8947  -15.7006   24.9253 O   0  0  0  0  0  0  0  0  0  0  0  0
    8.2688  -14.1836   23.8189 N   0  0  0  0  0  0  0  0  0  0  0  0
    8.8565  -15.3084   22.9923 C   0  0  1  0  0  0  0  0  0  0  0  0
    9.3311  -14.6005   21.7508 C   0  0  0  0  0  0  0  0  0  0  0  0
    8.3287  -14.1197   20.8179 C   0  0  0  0  0  0  0  0  0  0  0  0
    6.9680  -14.0907   20.8027 C   0  0  0  0  0  0  0  0  0  0  0  0
    6.5075  -13.4453   19.6942 N   0  0  0  0  0  0  0  0  0  0  0  0
    7.6084  -13.0774   19.0293 C   0  0  0  0  0  0  0  0  0  0  0  0
    8.6940  -13.4633   19.6717 N   0  0  0  0  0  0  0  0  0  0  0  0
   10.0520  -15.6684   23.8065 C   0  0  0  0  0  0  0  0  0  0  0  0
   10.1540  -15.0938   24.9528 O   0  0  0  0  0  0  0  0  0  0  0  0
   11.0754  -16.5505   23.4918 N   0  0  0  0  0  0  0  0  0  0  0  0
   11.6492  -17.4030   24.5568 C   0  0  1  0  0  0  0  0  0  0  0  0
   10.5639  -18.2326   25.1721 C   0  0  0  0  0  0  0  0  0  0  0  0
   11.0554  -19.0922   26.2737 C   0  0  0  0  0  0  0  0  0  0  0  0
    9.9553  -19.8200   27.0089 C   0  0  0  0  0  0  0  0  0  0  0  0
   10.6130  -20.6315   28.1235 C   0  0  0  0  0  0  0  0  0  0  0  0
    9.5599  -21.2545   28.9320 N   0  0  0  0  0  0  0  0  0  0  0  0
   12.6776  -18.2435   23.9274 C   0  0  0  0  0  0  0  0  0  0  0  0
   12.4245  -18.9124   22.9086 O   0  0  0  0  0  0  0  0  0  0  0  0
   13.9727  -18.3332   24.4332 O   0  0  0  0  0  0  0  0  0  0  0  0
  2  5  1  0
  2  1  1  1
  3  2  1  0
  4  3  1  0
  5  6  2  0
  7  5  1  0
  7  8  1  0
  8 15  1  0
  8  9  1  6
  9 10  1  0
 10 11  2  0
 11 12  1  0
 13 12  1  0
 14 10  1  0
 14 13  2  0
 15 16  2  0
 17 18  1  0
 17 15  1  0
 18 24  1  0
 18 19  1  6
 20 19  1  0
 21 22  1  0
 21 20  1  0
 23 22  1  0
 24 25  2  0
 24 26  1  0
M  END
$$$$
