CHK.pdb
     RDKit          3D

 26 26  0  0  1  0  0  0  0  0999 V2000
    5.3385  -19.6717   19.6927 N   0  0  0  0  0  0  0  0  0  0  0  0
    5.5067  -18.6493   20.7026 C   0  0  1  0  0  0  0  0  0  0  0  0
    5.2039  -19.2171   22.0777 C   0  0  0  0  0  0  0  0  0  0  0  0
    5.2461  -17.9176   23.3421 S   0  0  0  0  0  0  0  0  0  0  0  0
    6.8927  -18.1307   20.7456 C   0  0  0  0  0  0  0  0  0  0  0  0
    7.9039  -18.8974   20.6557 O   0  0  0  0  0  0  0  0  0  0  0  0
    7.0771  -16.7355   20.8916 N   0  0  0  0  0  0  0  0  0  0  0  0
    8.4700  -16.1690   20.7108 C   0  0  1  0  0  0  0  0  0  0  0  0
    8.2055  -14.7190   20.4018 C   0  0  0  0  0  0  0  0  0  0  0  0
    8.0794  -14.3335   19.0084 C   0  0  0  0  0  0  0  0  0  0  0  0
    8.1760  -14.9889   17.8193 C   0  0  0  0  0  0  0  0  0  0  0  0
    7.8904  -14.1552   16.7797 N   0  0  0  0  0  0  0  0  0  0  0  0
    7.6157  -12.9768   17.3504 C   0  0  0  0  0  0  0  0  0  0  0  0
    7.7202  -13.0569   18.6630 N   0  0  0  0  0  0  0  0  0  0  0  0
    8.9986  -16.2578   22.1017 C   0  0  0  0  0  0  0  0  0  0  0  0
    8.2449  -15.7810   23.0285 O   0  0  0  0  0  0  0  0  0  0  0  0
   10.2031  -16.7938   22.5334 N   0  0  0  0  0  0  0  0  0  0  0  0
   10.5219  -16.7863   23.9786 C   0  0  1  0  0  0  0  0  0  0  0  0
   10.4773  -18.1874   24.5076 C   0  0  0  0  0  0  0  0  0  0  0  0
   10.9535  -18.2863   25.9067 C   0  0  0  0  0  0  0  0  0  0  0  0
   11.0401  -19.7052   26.4164 C   0  0  0  0  0  0  0  0  0  0  0  0
   11.4098  -19.6346   27.8969 C   0  0  0  0  0  0  0  0  0  0  0  0
   11.5892  -21.0006   28.3996 N   0  0  0  0  0  0  0  0  0  0  0  0
   11.8624  -16.2003   24.1200 C   0  0  0  0  0  0  0  0  0  0  0  0
   12.6179  -16.0820   23.1379 O   0  0  0  0  0  0  0  0  0  0  0  0
   12.3497  -15.7528   25.3462 O   0  0  0  0  0  0  0  0  0  0  0  0
  2  5  1  0
  2  1  1  6
  3  2  1  0
  4  3  1  0
  5  6  2  0
  7  5  1  0
  7  8  1  0
  8 15  1  0
  8  9  1  1
  9 10  1  0
 10 11  2  0
 11 12  1  0
 13 12  1  0
 14 10  1  0
 14 13  2  0
 15 16  2  0
 17 18  1  0
 17 15  1  0
 18 24  1  0
 18 19  1  6
 20 19  1  0
 21 22  1  0
 21 20  1  0
 23 22  1  0
 24 25  2  0
 24 26  1  0
M  END
$$$$
