CHK.pdb
     RDKit          3D

 26 26  0  0  1  0  0  0  0  0999 V2000
    7.9631  -13.5831   17.3770 N   0  0  0  0  0  0  0  0  0  0  0  0
    8.4267  -13.4998   18.7451 C   0  0  1  0  0  0  0  0  0  0  0  0
    7.2541  -13.6129   19.7029 C   0  0  0  0  0  0  0  0  0  0  0  0
    7.0731  -12.1029   20.6911 S   0  0  0  0  0  0  0  0  0  0  0  0
    9.3666  -14.5926   19.0828 C   0  0  0  0  0  0  0  0  0  0  0  0
    9.4210  -15.6696   18.4078 O   0  0  0  0  0  0  0  0  0  0  0  0
   10.2229  -14.4141   20.1950 N   0  0  0  0  0  0  0  0  0  0  0  0
   11.2637  -15.4763   20.4820 C   0  0  1  0  0  0  0  0  0  0  0  0
   12.5586  -14.7146   20.3787 C   0  0  0  0  0  0  0  0  0  0  0  0
   13.3757  -14.9212   19.1973 C   0  0  0  0  0  0  0  0  0  0  0  0
   13.2208  -15.6072   18.0319 C   0  0  0  0  0  0  0  0  0  0  0  0
   14.2864  -15.4092   17.2056 N   0  0  0  0  0  0  0  0  0  0  0  0
   15.0980  -14.5892   17.8827 C   0  0  0  0  0  0  0  0  0  0  0  0
   14.5829  -14.2873   19.0590 N   0  0  0  0  0  0  0  0  0  0  0  0
   11.0018  -15.7524   21.9233 C   0  0  0  0  0  0  0  0  0  0  0  0
   11.1196  -14.7532   22.7247 O   0  0  0  0  0  0  0  0  0  0  0  0
   10.6414  -16.9520   22.5195 N   0  0  0  0  0  0  0  0  0  0  0  0
   10.5583  -17.0307   23.9950 C   0  0  1  0  0  0  0  0  0  0  0  0
    9.6198  -18.1316   24.3849 C   0  0  0  0  0  0  0  0  0  0  0  0
    8.5225  -18.3209   23.4081 C   0  0  0  0  0  0  0  0  0  0  0  0
    7.6380  -19.5057   23.7154 C   0  0  0  0  0  0  0  0  0  0  0  0
    6.5621  -19.5627   22.6326 C   0  0  0  0  0  0  0  0  0  0  0  0
    5.6843  -20.7056   22.9055 N   0  0  0  0  0  0  0  0  0  0  0  0
   11.9192  -17.2835   24.4894 C   0  0  0  0  0  0  0  0  0  0  0  0
   12.8395  -17.5873   23.7083 O   0  0  0  0  0  0  0  0  0  0  0  0
   12.2443  -17.1971   25.8414 O   0  0  0  0  0  0  0  0  0  0  0  0
  2  5  1  0
  2  1  1  6
  3  2  1  0
  4  3  1  0
  5  6  2  0
  7  5  1  0
  7  8  1  0
  8 15  1  0
  8  9  1  1
  9 10  1  0
 10 11  2  0
 11 12  1  0
 13 12  1  0
 14 10  1  0
 14 13  2  0
 15 16  2  0
 17 18  1  0
 17 15  1  0
 18 24  1  0
 18 19  1  6
 20 19  1  0
 21 22  1  0
 21 20  1  0
 23 22  1  0
 24 25  2  0
 24 26  1  0
M  END
$$$$
