CHK.pdb
     RDKit          3D

 26 26  0  0  1  0  0  0  0  0999 V2000
    5.0345  -14.9399   25.5366 N   0  0  0  0  0  0  0  0  0  0  0  0
    6.2102  -14.4160   24.8757 C   0  0  1  0  0  0  0  0  0  0  0  0
    7.0666  -13.6452   25.8644 C   0  0  0  0  0  0  0  0  0  0  0  0
    8.6616  -13.1927   25.1292 S   0  0  0  0  0  0  0  0  0  0  0  0
    7.0600  -15.4908   24.3150 C   0  0  0  0  0  0  0  0  0  0  0  0
    7.1142  -16.6502   24.8360 O   0  0  0  0  0  0  0  0  0  0  0  0
    7.8283  -15.1992   23.1632 N   0  0  0  0  0  0  0  0  0  0  0  0
    8.6869  -16.2976   22.5716 C   0  0  1  0  0  0  0  0  0  0  0  0
    8.3999  -16.1913   21.0972 C   0  0  0  0  0  0  0  0  0  0  0  0
    8.2751  -14.8640   20.5235 C   0  0  0  0  0  0  0  0  0  0  0  0
    8.3305  -13.5967   21.0170 C   0  0  0  0  0  0  0  0  0  0  0  0
    8.2204  -12.6794   20.0151 N   0  0  0  0  0  0  0  0  0  0  0  0
    8.0975  -13.4046   18.8978 C   0  0  0  0  0  0  0  0  0  0  0  0
    8.1272  -14.6947   19.1716 N   0  0  0  0  0  0  0  0  0  0  0  0
   10.0541  -15.7572   22.8181 C   0  0  0  0  0  0  0  0  0  0  0  0
   10.1189  -14.5435   23.2390 O   0  0  0  0  0  0  0  0  0  0  0  0
   11.2752  -16.3951   22.6561 N   0  0  0  0  0  0  0  0  0  0  0  0
   12.0954  -16.7017   23.8493 C   0  0  1  0  0  0  0  0  0  0  0  0
   11.3075  -17.5615   24.7899 C   0  0  0  0  0  0  0  0  0  0  0  0
   12.1269  -18.0897   25.9052 C   0  0  0  0  0  0  0  0  0  0  0  0
   11.3585  -18.9839   26.8487 C   0  0  0  0  0  0  0  0  0  0  0  0
   12.3488  -19.5061   27.8879 C   0  0  0  0  0  0  0  0  0  0  0  0
   11.6350  -20.3993   28.8064 N   0  0  0  0  0  0  0  0  0  0  0  0
   13.3039  -17.3907   23.3748 C   0  0  0  0  0  0  0  0  0  0  0  0
   14.4384  -16.9791   23.6793 O   0  0  0  0  0  0  0  0  0  0  0  0
   13.2415  -18.5261   22.5698 O   0  0  0  0  0  0  0  0  0  0  0  0
  2  5  1  0
  2  1  1  1
  3  2  1  0
  4  3  1  0
  5  6  2  0
  7  5  1  0
  7  8  1  0
  8 15  1  0
  8  9  1  6
  9 10  1  0
 10 11  2  0
 11 12  1  0
 13 12  1  0
 14 10  1  0
 14 13  2  0
 15 16  2  0
 17 18  1  0
 17 15  1  0
 18 24  1  0
 18 19  1  1
 20 19  1  0
 21 22  1  0
 21 20  1  0
 23 22  1  0
 24 25  2  0
 24 26  1  0
M  END
$$$$
