CHK.pdb
     RDKit          3D

 26 26  0  0  1  0  0  0  0  0999 V2000
   10.3019  -19.7944   14.5337 N   0  0  0  0  0  0  0  0  0  0  0  0
    9.7108  -19.5459   15.8307 C   0  0  1  0  0  0  0  0  0  0  0  0
    8.2448  -19.1820   15.6768 C   0  0  0  0  0  0  0  0  0  0  0  0
    7.2742  -20.6111   15.1247 S   0  0  0  0  0  0  0  0  0  0  0  0
    9.7699  -20.7371   16.7079 C   0  0  0  0  0  0  0  0  0  0  0  0
    9.1222  -21.8006   16.4474 O   0  0  0  0  0  0  0  0  0  0  0  0
   10.5779  -20.6703   17.8675 N   0  0  0  0  0  0  0  0  0  0  0  0
   10.6066  -21.8660   18.7966 C   0  0  1  0  0  0  0  0  0  0  0  0
   11.5061  -22.8327   18.0726 C   0  0  0  0  0  0  0  0  0  0  0  0
   12.8994  -22.4653   17.9003 C   0  0  0  0  0  0  0  0  0  0  0  0
   13.5700  -21.2904   17.7493 C   0  0  0  0  0  0  0  0  0  0  0  0
   14.9155  -21.5014   17.6987 N   0  0  0  0  0  0  0  0  0  0  0  0
   15.0601  -22.8255   17.8221 C   0  0  0  0  0  0  0  0  0  0  0  0
   13.8863  -23.4152   17.9426 N   0  0  0  0  0  0  0  0  0  0  0  0
   11.3609  -21.3103   19.9560 C   0  0  0  0  0  0  0  0  0  0  0  0
   11.8326  -20.1224   19.8115 O   0  0  0  0  0  0  0  0  0  0  0  0
   11.6207  -21.9069   21.1812 N   0  0  0  0  0  0  0  0  0  0  0  0
   12.1138  -21.0747   22.3013 C   0  0  1  0  0  0  0  0  0  0  0  0
   11.4726  -21.5248   23.5784 C   0  0  0  0  0  0  0  0  0  0  0  0
   12.0313  -20.8450   24.7699 C   0  0  0  0  0  0  0  0  0  0  0  0
   11.4264  -21.3136   26.0718 C   0  0  0  0  0  0  0  0  0  0  0  0
   12.1412  -20.5702   27.1988 C   0  0  0  0  0  0  0  0  0  0  0  0
   11.5452  -20.9737   28.4766 N   0  0  0  0  0  0  0  0  0  0  0  0
   13.5740  -21.2362   22.3464 C   0  0  0  0  0  0  0  0  0  0  0  0
   14.1101  -22.3159   22.0364 O   0  0  0  0  0  0  0  0  0  0  0  0
   14.4222  -20.2010   22.7339 O   0  0  0  0  0  0  0  0  0  0  0  0
  2  5  1  0
  2  1  1  6
  3  2  1  0
  4  3  1  0
  5  6  2  0
  7  5  1  0
  7  8  1  0
  8 15  1  0
  8  9  1  6
  9 10  1  0
 10 11  2  0
 11 12  1  0
 13 12  1  0
 14 10  1  0
 14 13  2  0
 15 16  2  0
 17 18  1  0
 17 15  1  0
 18 24  1  0
 18 19  1  1
 20 19  1  0
 21 22  1  0
 21 20  1  0
 23 22  1  0
 24 25  2  0
 24 26  1  0
M  END
$$$$
