CHK.pdb
     RDKit          3D

 26 26  0  0  1  0  0  0  0  0999 V2000
    6.8727  -21.2493   17.0980 N   0  0  0  0  0  0  0  0  0  0  0  0
    6.8565  -20.7249   18.4464 C   0  0  1  0  0  0  0  0  0  0  0  0
    7.2373  -21.8120   19.4354 C   0  0  0  0  0  0  0  0  0  0  0  0
    7.1913  -21.1882   21.1378 S   0  0  0  0  0  0  0  0  0  0  0  0
    7.8249  -19.6195   18.6263 C   0  0  0  0  0  0  0  0  0  0  0  0
    8.9481  -19.6015   18.0293 O   0  0  0  0  0  0  0  0  0  0  0  0
    7.4710  -18.5592   19.4939 N   0  0  0  0  0  0  0  0  0  0  0  0
    8.3820  -17.3516   19.5663 C   0  0  1  0  0  0  0  0  0  0  0  0
    7.4128  -16.2070   19.7015 C   0  0  0  0  0  0  0  0  0  0  0  0
    7.9544  -14.8845   19.9540 C   0  0  0  0  0  0  0  0  0  0  0  0
    9.2062  -14.3763   20.1200 C   0  0  0  0  0  0  0  0  0  0  0  0
    9.1663  -13.0214   20.2617 N   0  0  0  0  0  0  0  0  0  0  0  0
    7.8689  -12.7058   20.1788 C   0  0  0  0  0  0  0  0  0  0  0  0
    7.1350  -13.7868   19.9973 N   0  0  0  0  0  0  0  0  0  0  0  0
    9.0357  -17.5643   20.8889 C   0  0  0  0  0  0  0  0  0  0  0  0
    8.3057  -18.0939   21.8060 O   0  0  0  0  0  0  0  0  0  0  0  0
   10.3380  -17.2682   21.2643 N   0  0  0  0  0  0  0  0  0  0  0  0
   10.7914  -17.6059   22.6320 C   0  0  1  0  0  0  0  0  0  0  0  0
   12.2202  -18.0549   22.5884 C   0  0  0  0  0  0  0  0  0  0  0  0
   12.7511  -18.4053   23.9261 C   0  0  0  0  0  0  0  0  0  0  0  0
   14.1567  -18.9563   23.8927 C   0  0  0  0  0  0  0  0  0  0  0  0
   14.5081  -19.3918   25.3142 C   0  0  0  0  0  0  0  0  0  0  0  0
   15.8040  -20.0779   25.2860 N   0  0  0  0  0  0  0  0  0  0  0  0
   10.6330  -16.3943   23.4489 C   0  0  0  0  0  0  0  0  0  0  0  0
   10.7407  -15.2616   22.9443 O   0  0  0  0  0  0  0  0  0  0  0  0
   10.3575  -16.4516   24.8135 O   0  0  0  0  0  0  0  0  0  0  0  0
  2  5  1  0
  2  1  1  6
  3  2  1  0
  4  3  1  0
  5  6  2  0
  7  5  1  0
  7  8  1  0
  8 15  1  0
  8  9  1  1
  9 10  1  0
 10 11  2  0
 11 12  1  0
 13 12  1  0
 14 10  1  0
 14 13  2  0
 15 16  2  0
 17 18  1  0
 17 15  1  0
 18 24  1  0
 18 19  1  6
 20 19  1  0
 21 22  1  0
 21 20  1  0
 23 22  1  0
 24 25  2  0
 24 26  1  0
M  END
$$$$
