CHK.pdb
     RDKit          3D

 26 26  0  0  1  0  0  0  0  0999 V2000
    4.3227  -23.7427   21.1873 N   0  0  0  0  0  0  0  0  0  0  0  0
    5.1440  -24.1199   22.3172 C   0  0  1  0  0  0  0  0  0  0  0  0
    6.6085  -24.1360   21.9176 C   0  0  0  0  0  0  0  0  0  0  0  0
    7.2290  -22.4526   21.6521 S   0  0  0  0  0  0  0  0  0  0  0  0
    5.0144  -23.1675   23.4433 C   0  0  0  0  0  0  0  0  0  0  0  0
    4.3898  -22.0653   23.3274 O   0  0  0  0  0  0  0  0  0  0  0  0
    5.6111  -23.5127   24.6789 N   0  0  0  0  0  0  0  0  0  0  0  0
    5.4906  -22.5413   25.8347 C   0  0  1  0  0  0  0  0  0  0  0  0
    5.0058  -23.4165   26.9601 C   0  0  0  0  0  0  0  0  0  0  0  0
    3.5732  -23.5818   27.1233 C   0  0  0  0  0  0  0  0  0  0  0  0
    2.4720  -23.0468   26.5285 C   0  0  0  0  0  0  0  0  0  0  0  0
    1.3322  -23.6121   27.0171 N   0  0  0  0  0  0  0  0  0  0  0  0
    1.7520  -24.5042   27.9212 C   0  0  0  0  0  0  0  0  0  0  0  0
    3.0687  -24.5050   28.0016 N   0  0  0  0  0  0  0  0  0  0  0  0
    6.9232  -22.2146   26.0853 C   0  0  0  0  0  0  0  0  0  0  0  0
    7.7634  -23.1740   25.9181 O   0  0  0  0  0  0  0  0  0  0  0  0
    7.4756  -21.0030   26.4745 N   0  0  0  0  0  0  0  0  0  0  0  0
    8.9313  -20.7876   26.3170 C   0  0  1  0  0  0  0  0  0  0  0  0
    9.1694  -19.6758   25.3413 C   0  0  0  0  0  0  0  0  0  0  0  0
   10.6089  -19.3953   25.1333 C   0  0  0  0  0  0  0  0  0  0  0  0
   10.8708  -18.2724   24.1581 C   0  0  0  0  0  0  0  0  0  0  0  0
   12.3841  -18.1731   23.9749 C   0  0  0  0  0  0  0  0  0  0  0  0
   12.6706  -17.0871   23.0319 N   0  0  0  0  0  0  0  0  0  0  0  0
    9.4637  -20.4594   27.6471 C   0  0  0  0  0  0  0  0  0  0  0  0
   10.6886  -20.3482   27.8384 O   0  0  0  0  0  0  0  0  0  0  0  0
    8.6341  -20.2584   28.7482 O   0  0  0  0  0  0  0  0  0  0  0  0
  2  5  1  0
  2  1  1  6
  3  2  1  0
  4  3  1  0
  5  6  2  0
  7  5  1  0
  7  8  1  0
  8 15  1  0
  8  9  1  1
  9 10  1  0
 10 11  2  0
 11 12  1  0
 13 12  1  0
 14 10  1  0
 14 13  2  0
 15 16  2  0
 17 18  1  0
 17 15  1  0
 18 24  1  0
 18 19  1  6
 20 19  1  0
 21 22  1  0
 21 20  1  0
 23 22  1  0
 24 25  2  0
 24 26  1  0
M  END
$$$$
