CHK.pdb
     RDKit          3D

 26 26  0  0  1  0  0  0  0  0999 V2000
   11.1650  -16.7654   18.9992 N   0  0  0  0  0  0  0  0  0  0  0  0
    9.9482  -16.8766   19.7742 C   0  0  1  0  0  0  0  0  0  0  0  0
    9.5601  -18.3357   19.9327 C   0  0  0  0  0  0  0  0  0  0  0  0
   10.9257  -19.2995   20.6368 S   0  0  0  0  0  0  0  0  0  0  0  0
   10.1030  -16.3207   21.1376 C   0  0  0  0  0  0  0  0  0  0  0  0
   11.2432  -16.0413   21.6279 O   0  0  0  0  0  0  0  0  0  0  0  0
    8.9337  -16.1006   21.9033 N   0  0  0  0  0  0  0  0  0  0  0  0
    9.0542  -15.3222   23.1969 C   0  0  1  0  0  0  0  0  0  0  0  0
    7.6461  -14.8439   23.4338 C   0  0  0  0  0  0  0  0  0  0  0  0
    7.3664  -14.1430   24.6734 C   0  0  0  0  0  0  0  0  0  0  0  0
    8.0921  -13.8244   25.7800 C   0  0  0  0  0  0  0  0  0  0  0  0
    7.3540  -13.0749   26.6466 N   0  0  0  0  0  0  0  0  0  0  0  0
    6.1630  -12.9377   26.0532 C   0  0  0  0  0  0  0  0  0  0  0  0
    6.1459  -13.5582   24.8891 N   0  0  0  0  0  0  0  0  0  0  0  0
    9.3408  -16.4183   24.1656 C   0  0  0  0  0  0  0  0  0  0  0  0
    8.8016  -17.5581   23.9112 O   0  0  0  0  0  0  0  0  0  0  0  0
   10.1207  -16.3735   25.3120 N   0  0  0  0  0  0  0  0  0  0  0  0
   10.2552  -17.5902   26.1438 C   0  0  1  0  0  0  0  0  0  0  0  0
   11.5452  -17.5359   26.9039 C   0  0  0  0  0  0  0  0  0  0  0  0
   11.6951  -18.6590   27.8579 C   0  0  0  0  0  0  0  0  0  0  0  0
   12.9924  -18.6266   28.6302 C   0  0  0  0  0  0  0  0  0  0  0  0
   12.9346  -19.7505   29.6632 C   0  0  0  0  0  0  0  0  0  0  0  0
   14.2494  -19.8655   30.3028 N   0  0  0  0  0  0  0  0  0  0  0  0
    9.0981  -17.6219   27.0495 C   0  0  0  0  0  0  0  0  0  0  0  0
    8.4752  -16.5817   27.3314 O   0  0  0  0  0  0  0  0  0  0  0  0
    8.6450  -18.8039   27.6316 O   0  0  0  0  0  0  0  0  0  0  0  0
  2  5  1  0
  2  1  1  6
  3  2  1  0
  4  3  1  0
  5  6  2  0
  7  5  1  0
  7  8  1  0
  8 15  1  0
  8  9  1  1
  9 10  1  0
 10 11  2  0
 11 12  1  0
 13 12  1  0
 14 10  1  0
 14 13  2  0
 15 16  2  0
 17 18  1  0
 17 15  1  0
 18 24  1  0
 18 19  1  1
 20 19  1  0
 21 22  1  0
 21 20  1  0
 23 22  1  0
 24 25  2  0
 24 26  1  0
M  END
$$$$
