CHK.pdb
     RDKit          3D

 26 26  0  0  1  0  0  0  0  0999 V2000
    6.0231  -21.3116   20.8015 N   0  0  0  0  0  0  0  0  0  0  0  0
    6.9728  -20.5586   21.5918 C   0  0  1  0  0  0  0  0  0  0  0  0
    6.5771  -20.5918   23.0572 C   0  0  0  0  0  0  0  0  0  0  0  0
    5.1779  -19.4835   23.3785 S   0  0  0  0  0  0  0  0  0  0  0  0
    8.3406  -21.1179   21.5015 C   0  0  0  0  0  0  0  0  0  0  0  0
    8.5671  -22.3666   21.5905 O   0  0  0  0  0  0  0  0  0  0  0  0
    9.4161  -20.2186   21.3101 N   0  0  0  0  0  0  0  0  0  0  0  0
   10.8142  -20.7846   21.1735 C   0  0  1  0  0  0  0  0  0  0  0  0
   11.3209  -20.1289   19.9161 C   0  0  0  0  0  0  0  0  0  0  0  0
   12.6837  -20.4111   19.5047 C   0  0  0  0  0  0  0  0  0  0  0  0
   13.6871  -21.1965   19.9834 C   0  0  0  0  0  0  0  0  0  0  0  0
   14.7721  -21.1553   19.1598 N   0  0  0  0  0  0  0  0  0  0  0  0
   14.4179  -20.3323   18.1664 C   0  0  0  0  0  0  0  0  0  0  0  0
   13.1915  -19.8812   18.3473 N   0  0  0  0  0  0  0  0  0  0  0  0
   11.4964  -20.1477   22.3359 C   0  0  0  0  0  0  0  0  0  0  0  0
   11.4597  -18.8628   22.3832 O   0  0  0  0  0  0  0  0  0  0  0  0
   12.1676  -20.7612   23.3835 N   0  0  0  0  0  0  0  0  0  0  0  0
   12.7950  -19.9238   24.4302 C   0  0  1  0  0  0  0  0  0  0  0  0
   12.9690  -20.7323   25.6795 C   0  0  0  0  0  0  0  0  0  0  0  0
   11.6908  -20.9731   26.3882 C   0  0  0  0  0  0  0  0  0  0  0  0
   11.8111  -21.9453   27.5374 C   0  0  0  0  0  0  0  0  0  0  0  0
   10.4005  -22.2042   28.0634 C   0  0  0  0  0  0  0  0  0  0  0  0
   10.4507  -23.3307   29.0012 N   0  0  0  0  0  0  0  0  0  0  0  0
   14.0878  -19.4689   23.8993 C   0  0  0  0  0  0  0  0  0  0  0  0
   14.4795  -18.3009   24.0775 O   0  0  0  0  0  0  0  0  0  0  0  0
   14.9305  -20.3120   23.1781 O   0  0  0  0  0  0  0  0  0  0  0  0
  2  5  1  0
  2  1  1  6
  3  2  1  0
  4  3  1  0
  5  6  2  0
  7  5  1  0
  7  8  1  0
  8 15  1  0
  8  9  1  6
  9 10  1  0
 10 11  2  0
 11 12  1  0
 13 12  1  0
 14 10  1  0
 14 13  2  0
 15 16  2  0
 17 18  1  0
 17 15  1  0
 18 24  1  0
 18 19  1  1
 20 19  1  0
 21 22  1  0
 21 20  1  0
 23 22  1  0
 24 25  2  0
 24 26  1  0
M  END
$$$$
