EMF.pdb
     RDKit          3D

 29 29  0  0  1  0  0  0  0  0999 V2000
    4.0503  -19.3405   21.9367 N   0  0  0  0  0  0  0  0  0  0  0  0
    4.9722  -19.3449   23.0579 C   0  0  1  0  0  0  0  0  0  0  0  0
    5.9715  -20.4682   22.8267 C   0  0  0  0  0  0  0  0  0  0  0  0
    6.6676  -20.2041   21.4955 C   0  0  0  0  0  0  0  0  0  0  0  0
    7.6624  -21.2808   21.2250 C   0  0  0  0  0  0  0  0  0  0  0  0
    8.8840  -21.0087   21.0445 O   0  0  0  0  0  0  0  0  0  0  0  0
    5.6289  -18.0231   23.1381 C   0  0  0  0  0  0  0  0  0  0  0  0
    5.6662  -17.3115   22.1073 O   0  0  0  0  0  0  0  0  0  0  0  0
    7.3031  -22.6176   21.1586 O   0  0  0  0  0  0  0  0  0  0  0  0
    7.6111  -11.7177   27.1547 C   0  0  0  0  0  0  0  0  0  0  0  0
    7.9260  -13.4394   26.8264 S   0  0  0  0  0  0  0  0  0  0  0  0
    6.5377  -14.3132   26.1146 C   0  0  0  0  0  0  0  0  0  0  0  0
    6.7434  -15.7760   25.8756 C   0  0  0  0  0  0  0  0  0  0  0  0
    6.7977  -16.2212   24.4491 C   0  0  2  0  0  0  0  0  0  0  0  0
    6.2031  -17.5658   24.3428 N   0  0  0  0  0  0  0  0  0  0  0  0
    8.2357  -16.3656   24.0086 C   0  0  0  0  0  0  0  0  0  0  0  0
    8.9055  -17.4086   24.1570 O   0  0  0  0  0  0  0  0  0  0  0  0
    8.9298  -15.2706   23.3741 N   0  0  0  0  0  0  0  0  0  0  0  0
   10.2535  -15.4434   22.7858 C   0  0  1  0  0  0  0  0  0  0  0  0
   10.5810  -14.3485   21.8329 C   0  0  0  0  0  0  0  0  0  0  0  0
    9.3742  -13.7881   21.2004 C   0  0  0  0  0  0  0  0  0  0  0  0
    8.7125  -14.3865   20.1309 C   0  0  0  0  0  0  0  0  0  0  0  0
    7.5851  -13.8478   19.5509 C   0  0  0  0  0  0  0  0  0  0  0  0
    7.0716  -12.6739   20.0267 C   0  0  0  0  0  0  0  0  0  0  0  0
    7.6828  -12.0470   21.0738 C   0  0  0  0  0  0  0  0  0  0  0  0
    8.8079  -12.5960   21.6435 C   0  0  0  0  0  0  0  0  0  0  0  0
   11.2703  -15.7081   23.8176 C   0  0  0  0  0  0  0  0  0  0  0  0
   10.9507  -15.7144   25.1514 O   0  0  0  0  0  0  0  0  0  0  0  0
   12.4543  -15.9311   23.4726 O   0  0  0  0  0  0  0  0  0  0  0  0
  2  1  1  6
  2  7  1  0
  2  3  1  0
  3  4  1  0
  4  5  1  0
  5  9  1  0
  5  6  2  0
  7  8  2  0
 10 11  1  0
 11 12  1  0
 12 13  1  0
 14 13  1  1
 14 15  1  0
 15  7  1  0
 16 14  1  0
 17 16  2  0
 18 16  1  0
 19 27  1  0
 19 18  1  0
 19 20  1  1
 21 20  1  0
 22 21  2  0
 23 22  1  0
 24 23  2  0
 24 25  1  0
 25 26  2  0
 26 21  1  0
 27 28  1  0
 29 27  2  0
M  END
$$$$
