EMF.pdb
     RDKit          3D

 29 29  0  0  1  0  0  0  0  0999 V2000
    9.6689  -18.3705   18.4930 N   0  0  0  0  0  0  0  0  0  0  0  0
   10.6336  -18.1369   19.5522 C   0  0  1  0  0  0  0  0  0  0  0  0
   12.0141  -18.0917   18.9147 C   0  0  0  0  0  0  0  0  0  0  0  0
   12.6317  -19.4802   19.0453 C   0  0  0  0  0  0  0  0  0  0  0  0
   14.0996  -19.3589   19.2746 C   0  0  0  0  0  0  0  0  0  0  0  0
   14.5585  -18.5802   20.1589 O   0  0  0  0  0  0  0  0  0  0  0  0
   10.2933  -16.8702   20.2338 C   0  0  0  0  0  0  0  0  0  0  0  0
   10.6221  -15.7915   19.6877 O   0  0  0  0  0  0  0  0  0  0  0  0
   15.0238  -20.0842   18.5396 O   0  0  0  0  0  0  0  0  0  0  0  0
    8.0774  -12.0931   19.7607 C   0  0  0  0  0  0  0  0  0  0  0  0
    7.9124  -12.3787   21.5106 S   0  0  0  0  0  0  0  0  0  0  0  0
    7.2020  -13.9657   21.9280 C   0  0  0  0  0  0  0  0  0  0  0  0
    7.9048  -15.1610   21.3652 C   0  0  0  0  0  0  0  0  0  0  0  0
    9.1367  -15.6136   22.0818 C   0  0  2  0  0  0  0  0  0  0  0  0
    9.6146  -16.8669   21.4706 N   0  0  0  0  0  0  0  0  0  0  0  0
    8.8041  -15.9501   23.5166 C   0  0  0  0  0  0  0  0  0  0  0  0
    7.9422  -16.7892   23.8507 O   0  0  0  0  0  0  0  0  0  0  0  0
    9.4875  -15.2982   24.6082 N   0  0  0  0  0  0  0  0  0  0  0  0
    9.2731  -15.7017   25.9936 C   0  0  1  0  0  0  0  0  0  0  0  0
    7.8292  -15.6950   26.3530 C   0  0  0  0  0  0  0  0  0  0  0  0
    7.2859  -14.3278   26.4294 C   0  0  0  0  0  0  0  0  0  0  0  0
    5.9446  -14.0155   26.2211 C   0  0  0  0  0  0  0  0  0  0  0  0
    5.4538  -12.7306   26.2957 C   0  0  0  0  0  0  0  0  0  0  0  0
    6.2993  -11.6965   26.5855 C   0  0  0  0  0  0  0  0  0  0  0  0
    7.6236  -11.9490   26.7983 C   0  0  0  0  0  0  0  0  0  0  0  0
    8.1003  -13.2369   26.7208 C   0  0  0  0  0  0  0  0  0  0  0  0
    9.9971  -16.9443   26.3102 C   0  0  0  0  0  0  0  0  0  0  0  0
    9.9895  -17.4738   27.5754 O   0  0  0  0  0  0  0  0  0  0  0  0
   10.6363  -17.5320   25.4065 O   0  0  0  0  0  0  0  0  0  0  0  0
  2  1  1  6
  2  7  1  0
  2  3  1  0
  3  4  1  0
  4  5  1  0
  5  9  1  0
  5  6  2  0
  7  8  2  0
 10 11  1  0
 11 12  1  0
 12 13  1  0
 14 13  1  6
 14 15  1  0
 15  7  1  0
 16 14  1  0
 17 16  2  0
 18 16  1  0
 19 27  1  0
 19 18  1  0
 19 20  1  6
 21 20  1  0
 22 21  2  0
 23 22  1  0
 24 23  2  0
 24 25  1  0
 25 26  2  0
 26 21  1  0
 27 28  1  0
 29 27  2  0
M  END
$$$$
