EMF.pdb
     RDKit          3D

 29 29  0  0  1  0  0  0  0  0999 V2000
    9.6409  -15.0330   20.1239 N   0  0  0  0  0  0  0  0  0  0  0  0
    8.2639  -15.1710   20.5616 C   0  0  1  0  0  0  0  0  0  0  0  0
    7.4788  -15.7964   19.4185 C   0  0  0  0  0  0  0  0  0  0  0  0
    8.2557  -17.0163   18.9341 C   0  0  0  0  0  0  0  0  0  0  0  0
    7.4832  -17.7144   17.8674 C   0  0  0  0  0  0  0  0  0  0  0  0
    7.9781  -17.8973   16.7183 O   0  0  0  0  0  0  0  0  0  0  0  0
    8.2343  -16.0070   21.7803 C   0  0  0  0  0  0  0  0  0  0  0  0
    7.3876  -16.9279   21.8521 O   0  0  0  0  0  0  0  0  0  0  0  0
    6.1996  -18.1924   18.0786 O   0  0  0  0  0  0  0  0  0  0  0  0
   10.0710  -21.4636   21.0136 C   0  0  0  0  0  0  0  0  0  0  0  0
   10.8251  -20.1988   22.0151 S   0  0  0  0  0  0  0  0  0  0  0  0
    9.7057  -18.8955   22.5110 C   0  0  0  0  0  0  0  0  0  0  0  0
   10.2924  -17.8318   23.3848 C   0  0  0  0  0  0  0  0  0  0  0  0
    9.3508  -16.7886   23.8955 C   0  0  2  0  0  0  0  0  0  0  0  0
    9.1344  -15.7801   22.8425 N   0  0  0  0  0  0  0  0  0  0  0  0
    9.9781  -16.0516   25.0557 C   0  0  0  0  0  0  0  0  0  0  0  0
   11.0606  -15.4342   24.9818 O   0  0  0  0  0  0  0  0  0  0  0  0
    9.3375  -16.0230   26.3489 N   0  0  0  0  0  0  0  0  0  0  0  0
    9.9304  -15.3174   27.4797 C   0  0  1  0  0  0  0  0  0  0  0  0
    8.9138  -14.5410   28.2399 C   0  0  0  0  0  0  0  0  0  0  0  0
    8.1413  -13.6402   27.3668 C   0  0  0  0  0  0  0  0  0  0  0  0
    8.6457  -12.4544   26.8385 C   0  0  0  0  0  0  0  0  0  0  0  0
    7.9086  -11.6233   26.0239 C   0  0  0  0  0  0  0  0  0  0  0  0
    6.6214  -11.9533   25.7039 C   0  0  0  0  0  0  0  0  0  0  0  0
    6.0793  -13.1052   26.1961 C   0  0  0  0  0  0  0  0  0  0  0  0
    6.8268  -13.9259   27.0083 C   0  0  0  0  0  0  0  0  0  0  0  0
   10.7765  -16.2116   28.2880 C   0  0  0  0  0  0  0  0  0  0  0  0
   10.9049  -17.5428   27.9835 O   0  0  0  0  0  0  0  0  0  0  0  0
   11.3923  -15.7494   29.2767 O   0  0  0  0  0  0  0  0  0  0  0  0
  2  1  1  6
  2  7  1  0
  2  3  1  0
  3  4  1  0
  4  5  1  0
  5  9  1  0
  5  6  2  0
  7  8  2  0
 10 11  1  0
 11 12  1  0
 12 13  1  0
 14 13  1  6
 14 15  1  0
 15  7  1  0
 16 14  1  0
 17 16  2  0
 18 16  1  0
 19 27  1  0
 19 18  1  0
 19 20  1  1
 21 20  1  0
 22 21  2  0
 23 22  1  0
 24 23  2  0
 24 25  1  0
 25 26  2  0
 26 21  1  0
 27 28  1  0
 29 27  2  0
M  END
$$$$
