EMF.pdb
     RDKit          3D

 29 29  0  0  1  0  0  0  0  0999 V2000
    9.1516  -16.7567   18.8100 N   0  0  0  0  0  0  0  0  0  0  0  0
    8.3859  -16.9394   20.0295 C   0  0  1  0  0  0  0  0  0  0  0  0
    8.3526  -18.4298   20.3323 C   0  0  0  0  0  0  0  0  0  0  0  0
    8.5676  -19.1755   19.0192 C   0  0  0  0  0  0  0  0  0  0  0  0
    8.5263  -20.6456   19.2624 C   0  0  0  0  0  0  0  0  0  0  0  0
    9.5850  -21.2979   19.4920 O   0  0  0  0  0  0  0  0  0  0  0  0
    9.0267  -16.1652   21.1134 C   0  0  0  0  0  0  0  0  0  0  0  0
   10.2650  -15.9801   21.0631 O   0  0  0  0  0  0  0  0  0  0  0  0
    7.3405  -21.3628   19.2493 O   0  0  0  0  0  0  0  0  0  0  0  0
    5.4377  -12.3182   25.2509 C   0  0  0  0  0  0  0  0  0  0  0  0
    6.9788  -12.5166   26.1209 S   0  0  0  0  0  0  0  0  0  0  0  0
    8.2808  -13.2541   25.1418 C   0  0  0  0  0  0  0  0  0  0  0  0
    7.8304  -14.1114   24.0011 C   0  0  0  0  0  0  0  0  0  0  0  0
    8.8966  -14.8435   23.2507 C   0  0  2  0  0  0  0  0  0  0  0  0
    8.2694  -15.6435   22.1832 N   0  0  0  0  0  0  0  0  0  0  0  0
    9.5832  -15.8323   24.1636 C   0  0  0  0  0  0  0  0  0  0  0  0
    9.1471  -16.9781   24.3989 O   0  0  0  0  0  0  0  0  0  0  0  0
   10.8168  -15.4916   24.8311 N   0  0  0  0  0  0  0  0  0  0  0  0
   11.4662  -16.4155   25.7546 C   0  0  1  0  0  0  0  0  0  0  0  0
   10.5174  -16.9294   26.7792 C   0  0  0  0  0  0  0  0  0  0  0  0
   10.1287  -15.8861   27.7440 C   0  0  0  0  0  0  0  0  0  0  0  0
   10.7816  -15.6707   28.9552 C   0  0  0  0  0  0  0  0  0  0  0  0
   10.4041  -14.6903   29.8464 C   0  0  0  0  0  0  0  0  0  0  0  0
    9.3442  -13.8784   29.5537 C   0  0  0  0  0  0  0  0  0  0  0  0
    8.6702  -14.0482   28.3790 C   0  0  0  0  0  0  0  0  0  0  0  0
    9.0580  -15.0310   27.4983 C   0  0  0  0  0  0  0  0  0  0  0  0
   12.2360  -17.4437   25.0344 C   0  0  0  0  0  0  0  0  0  0  0  0
   11.6160  -18.3819   24.2491 O   0  0  0  0  0  0  0  0  0  0  0  0
   13.4845  -17.4654   25.1405 O   0  0  0  0  0  0  0  0  0  0  0  0
  2  1  1  6
  2  7  1  0
  2  3  1  0
  3  4  1  0
  4  5  1  0
  5  9  1  0
  5  6  2  0
  7  8  2  0
 10 11  1  0
 11 12  1  0
 12 13  1  0
 14 13  1  1
 14 15  1  0
 15  7  1  0
 16 14  1  0
 17 16  2  0
 18 16  1  0
 19 27  1  0
 19 18  1  0
 19 20  1  6
 21 20  1  0
 22 21  2  0
 23 22  1  0
 24 23  2  0
 24 25  1  0
 25 26  2  0
 26 21  1  0
 27 28  1  0
 29 27  2  0
M  END
$$$$
