EMF.pdb
     RDKit          3D

 29 29  0  0  1  0  0  0  0  0999 V2000
    8.6924  -19.0929   20.1030 N   0  0  0  0  0  0  0  0  0  0  0  0
    9.9919  -18.4561   19.9897 C   0  0  1  0  0  0  0  0  0  0  0  0
   10.2905  -18.2817   18.5083 C   0  0  0  0  0  0  0  0  0  0  0  0
   11.7469  -17.8481   18.3759 C   0  0  0  0  0  0  0  0  0  0  0  0
   12.1470  -17.8591   16.9400 C   0  0  0  0  0  0  0  0  0  0  0  0
   11.3188  -18.1666   16.0353 O   0  0  0  0  0  0  0  0  0  0  0  0
    9.9515  -17.1634   20.7055 C   0  0  0  0  0  0  0  0  0  0  0  0
   11.0299  -16.5569   20.9037 O   0  0  0  0  0  0  0  0  0  0  0  0
   13.4308  -17.5371   16.5292 O   0  0  0  0  0  0  0  0  0  0  0  0
    8.2017  -11.5912   20.6565 C   0  0  0  0  0  0  0  0  0  0  0  0
    7.8068  -12.8090   19.4187 S   0  0  0  0  0  0  0  0  0  0  0  0
    7.2924  -14.3869   20.0844 C   0  0  0  0  0  0  0  0  0  0  0  0
    7.5047  -14.5731   21.5539 C   0  0  0  0  0  0  0  0  0  0  0  0
    8.6932  -15.3834   21.9624 C   0  0  2  0  0  0  0  0  0  0  0  0
    8.7318  -16.6183   21.1585 N   0  0  0  0  0  0  0  0  0  0  0  0
    8.5459  -15.8262   23.3994 C   0  0  0  0  0  0  0  0  0  0  0  0
    7.7994  -16.7574   23.7655 O   0  0  0  0  0  0  0  0  0  0  0  0
    9.2839  -15.1746   24.4549 N   0  0  0  0  0  0  0  0  0  0  0  0
    9.2382  -15.6585   25.8304 C   0  0  1  0  0  0  0  0  0  0  0  0
    7.8624  -15.5915   26.3934 C   0  0  0  0  0  0  0  0  0  0  0  0
    7.3349  -14.2160   26.3990 C   0  0  0  0  0  0  0  0  0  0  0  0
    8.0786  -13.1038   26.7860 C   0  0  0  0  0  0  0  0  0  0  0  0
    7.5688  -11.8240   26.7859 C   0  0  0  0  0  0  0  0  0  0  0  0
    6.2777  -11.6076   26.3929 C   0  0  0  0  0  0  0  0  0  0  0  0
    5.5061  -12.6641   26.0040 C   0  0  0  0  0  0  0  0  0  0  0  0
    6.0280  -13.9368   26.0090 C   0  0  0  0  0  0  0  0  0  0  0  0
    9.9132  -16.9603   25.9653 C   0  0  0  0  0  0  0  0  0  0  0  0
   10.0341  -17.5803   27.1828 O   0  0  0  0  0  0  0  0  0  0  0  0
   10.3899  -17.5152   24.9478 O   0  0  0  0  0  0  0  0  0  0  0  0
  2  1  1  6
  2  7  1  0
  2  3  1  0
  3  4  1  0
  4  5  1  0
  5  9  1  0
  5  6  2  0
  7  8  2  0
 10 11  1  0
 11 12  1  0
 12 13  1  0
 14 13  1  6
 14 15  1  0
 15  7  1  0
 16 14  1  0
 17 16  2  0
 18 16  1  0
 19 27  1  0
 19 18  1  0
 19 20  1  6
 21 20  1  0
 22 21  2  0
 23 22  1  0
 24 23  2  0
 24 25  1  0
 25 26  2  0
 26 21  1  0
 27 28  1  0
 29 27  2  0
M  END
$$$$
