EMF.pdb
     RDKit          3D

 29 29  0  0  1  0  0  0  0  0999 V2000
    9.3655  -17.9766   18.0848 N   0  0  0  0  0  0  0  0  0  0  0  0
    9.8415  -18.2708   19.4242 C   0  0  1  0  0  0  0  0  0  0  0  0
   11.2326  -18.8728   19.2956 C   0  0  0  0  0  0  0  0  0  0  0  0
   11.6795  -19.3112   20.6864 C   0  0  0  0  0  0  0  0  0  0  0  0
   13.0640  -19.8597   20.6209 C   0  0  0  0  0  0  0  0  0  0  0  0
   13.2849  -21.0180   20.1644 O   0  0  0  0  0  0  0  0  0  0  0  0
    9.8467  -17.0201   20.2120 C   0  0  0  0  0  0  0  0  0  0  0  0
   10.7896  -16.2123   20.0433 O   0  0  0  0  0  0  0  0  0  0  0  0
   14.1652  -19.1369   21.0516 O   0  0  0  0  0  0  0  0  0  0  0  0
    8.2249  -11.4429   20.3251 C   0  0  0  0  0  0  0  0  0  0  0  0
    7.3908  -12.6489   19.3146 S   0  0  0  0  0  0  0  0  0  0  0  0
    7.7040  -14.3437   19.7913 C   0  0  0  0  0  0  0  0  0  0  0  0
    7.6363  -14.6296   21.2586 C   0  0  0  0  0  0  0  0  0  0  0  0
    8.7522  -15.4402   21.8361 C   0  0  2  0  0  0  0  0  0  0  0  0
    8.8182  -16.7348   21.1345 N   0  0  0  0  0  0  0  0  0  0  0  0
    8.4589  -15.7645   23.2823 C   0  0  0  0  0  0  0  0  0  0  0  0
    7.3749  -16.2382   23.6811 O   0  0  0  0  0  0  0  0  0  0  0  0
    9.4480  -15.5358   24.3083 N   0  0  0  0  0  0  0  0  0  0  0  0
    9.1322  -15.6966   25.7235 C   0  0  1  0  0  0  0  0  0  0  0  0
    7.6721  -15.5697   25.9807 C   0  0  0  0  0  0  0  0  0  0  0  0
    7.2811  -14.1784   26.2668 C   0  0  0  0  0  0  0  0  0  0  0  0
    5.9749  -13.7056   26.1663 C   0  0  0  0  0  0  0  0  0  0  0  0
    5.6271  -12.4005   26.4370 C   0  0  0  0  0  0  0  0  0  0  0  0
    6.5876  -11.5082   26.8237 C   0  0  0  0  0  0  0  0  0  0  0  0
    7.8836  -11.9210   26.9376 C   0  0  0  0  0  0  0  0  0  0  0  0
    8.2168  -13.2272   26.6641 C   0  0  0  0  0  0  0  0  0  0  0  0
    9.7701  -16.8998   26.2836 C   0  0  0  0  0  0  0  0  0  0  0  0
   10.4821  -17.7655   25.4931 O   0  0  0  0  0  0  0  0  0  0  0  0
    9.6603  -17.1416   27.5084 O   0  0  0  0  0  0  0  0  0  0  0  0
  2  1  1  6
  2  7  1  0
  2  3  1  0
  3  4  1  0
  4  5  1  0
  5  9  1  0
  5  6  2  0
  7  8  2  0
 10 11  1  0
 11 12  1  0
 12 13  1  0
 14 13  1  6
 14 15  1  0
 15  7  1  0
 16 14  1  0
 17 16  2  0
 18 16  1  0
 19 27  1  0
 19 18  1  0
 19 20  1  6
 21 20  1  0
 22 21  2  0
 23 22  1  0
 24 23  2  0
 24 25  1  0
 25 26  2  0
 26 21  1  0
 27 28  1  0
 29 27  2  0
M  END
$$$$
