EMF.pdb
     RDKit          3D

 29 29  0  0  1  0  0  0  0  0999 V2000
    7.8583  -17.7959   20.1562 N   0  0  0  0  0  0  0  0  0  0  0  0
    9.1684  -17.1902   20.0024 C   0  0  1  0  0  0  0  0  0  0  0  0
    9.1099  -16.2693   18.7930 C   0  0  0  0  0  0  0  0  0  0  0  0
   10.4751  -16.3070   18.1139 C   0  0  0  0  0  0  0  0  0  0  0  0
   10.6057  -17.5589   17.3152 C   0  0  0  0  0  0  0  0  0  0  0  0
    9.8490  -17.7833   16.3274 O   0  0  0  0  0  0  0  0  0  0  0  0
    9.5025  -16.4594   21.2431 C   0  0  0  0  0  0  0  0  0  0  0  0
   10.6361  -15.9345   21.3398 O   0  0  0  0  0  0  0  0  0  0  0  0
   11.5512  -18.5278   17.6113 O   0  0  0  0  0  0  0  0  0  0  0  0
    6.6952  -12.7659   26.4861 C   0  0  0  0  0  0  0  0  0  0  0  0
    5.9399  -13.1101   24.9106 S   0  0  0  0  0  0  0  0  0  0  0  0
    7.0225  -13.9253   23.7441 C   0  0  0  0  0  0  0  0  0  0  0  0
    7.6330  -15.2092   24.2111 C   0  0  0  0  0  0  0  0  0  0  0  0
    8.9019  -15.6308   23.5419 C   0  0  2  0  0  0  0  0  0  0  0  0
    8.5728  -16.3509   22.2986 N   0  0  0  0  0  0  0  0  0  0  0  0
    9.6402  -16.6199   24.4132 C   0  0  0  0  0  0  0  0  0  0  0  0
    9.4611  -17.8545   24.3667 O   0  0  0  0  0  0  0  0  0  0  0  0
   10.6208  -16.1737   25.3738 N   0  0  0  0  0  0  0  0  0  0  0  0
   11.3303  -17.1140   26.2344 C   0  0  1  0  0  0  0  0  0  0  0  0
   12.2301  -16.4150   27.1915 C   0  0  0  0  0  0  0  0  0  0  0  0
   11.4828  -15.5465   28.1176 C   0  0  0  0  0  0  0  0  0  0  0  0
   11.2238  -15.8739   29.4463 C   0  0  0  0  0  0  0  0  0  0  0  0
   10.5223  -15.0496   30.2985 C   0  0  0  0  0  0  0  0  0  0  0  0
   10.0477  -13.8506   29.8455 C   0  0  0  0  0  0  0  0  0  0  0  0
   10.2745  -13.4823   28.5509 C   0  0  0  0  0  0  0  0  0  0  0  0
   10.9765  -14.3151   27.7109 C   0  0  0  0  0  0  0  0  0  0  0  0
   10.4096  -18.0945   26.8340 C   0  0  0  0  0  0  0  0  0  0  0  0
    9.0491  -17.9503   26.7365 O   0  0  0  0  0  0  0  0  0  0  0  0
   10.8763  -19.0819   27.4484 O   0  0  0  0  0  0  0  0  0  0  0  0
  2  1  1  1
  2  7  1  0
  2  3  1  0
  3  4  1  0
  4  5  1  0
  5  9  1  0
  5  6  2  0
  7  8  2  0
 10 11  1  0
 11 12  1  0
 12 13  1  0
 14 13  1  1
 14 15  1  0
 15  7  1  0
 16 14  1  0
 17 16  2  0
 18 16  1  0
 19 27  1  0
 19 18  1  0
 19 20  1  1
 21 20  1  0
 22 21  2  0
 23 22  1  0
 24 23  2  0
 24 25  1  0
 25 26  2  0
 26 21  1  0
 27 28  1  0
 29 27  2  0
M  END
$$$$
