EMF.pdb
     RDKit          3D

 29 29  0  0  1  0  0  0  0  0999 V2000
    8.7018  -18.8952   21.3991 N   0  0  0  0  0  0  0  0  0  0  0  0
    9.8943  -18.4287   20.7154 C   0  0  1  0  0  0  0  0  0  0  0  0
    9.5821  -18.3814   19.2273 C   0  0  0  0  0  0  0  0  0  0  0  0
    9.9711  -19.7290   18.6280 C   0  0  0  0  0  0  0  0  0  0  0  0
   10.4274  -19.5416   17.2213 C   0  0  0  0  0  0  0  0  0  0  0  0
    9.5958  -19.4588   16.2723 O   0  0  0  0  0  0  0  0  0  0  0  0
   10.2595  -17.1000   21.2503 C   0  0  0  0  0  0  0  0  0  0  0  0
   11.4087  -16.6581   21.0175 O   0  0  0  0  0  0  0  0  0  0  0  0
   11.7691  -19.4498   16.8867 O   0  0  0  0  0  0  0  0  0  0  0  0
    7.6081  -11.3724   19.9740 C   0  0  0  0  0  0  0  0  0  0  0  0
    6.8847  -12.9712   20.2772 S   0  0  0  0  0  0  0  0  0  0  0  0
    8.0592  -14.2198   20.7861 C   0  0  0  0  0  0  0  0  0  0  0  0
    8.6782  -14.0195   22.1337 C   0  0  0  0  0  0  0  0  0  0  0  0
    9.7043  -15.0219   22.5560 C   0  0  2  0  0  0  0  0  0  0  0  0
    9.3419  -16.3407   22.0063 N   0  0  0  0  0  0  0  0  0  0  0  0
    9.6852  -15.1773   24.0587 C   0  0  0  0  0  0  0  0  0  0  0  0
   10.0973  -14.3057   24.8517 O   0  0  0  0  0  0  0  0  0  0  0  0
    9.1736  -16.3792   24.6729 N   0  0  0  0  0  0  0  0  0  0  0  0
    9.0683  -16.5114   26.1219 C   0  0  1  0  0  0  0  0  0  0  0  0
    7.6640  -16.3575   26.5893 C   0  0  0  0  0  0  0  0  0  0  0  0
    7.1992  -14.9631   26.4904 C   0  0  0  0  0  0  0  0  0  0  0  0
    6.0816  -14.5702   25.7580 C   0  0  0  0  0  0  0  0  0  0  0  0
    5.6614  -13.2609   25.6759 C   0  0  0  0  0  0  0  0  0  0  0  0
    6.3544  -12.2830   26.3329 C   0  0  0  0  0  0  0  0  0  0  0  0
    7.4574  -12.6153   27.0649 C   0  0  0  0  0  0  0  0  0  0  0  0
    7.8657  -13.9267   27.1383 C   0  0  0  0  0  0  0  0  0  0  0  0
    9.7664  -17.7149   26.6044 C   0  0  0  0  0  0  0  0  0  0  0  0
   10.0316  -17.9016   27.9371 O   0  0  0  0  0  0  0  0  0  0  0  0
   10.1286  -18.5881   25.7818 O   0  0  0  0  0  0  0  0  0  0  0  0
  2  1  1  1
  2  7  1  0
  2  3  1  0
  3  4  1  0
  4  5  1  0
  5  9  1  0
  5  6  2  0
  7  8  2  0
 10 11  1  0
 11 12  1  0
 12 13  1  0
 14 13  1  1
 14 15  1  0
 15  7  1  0
 16 14  1  0
 17 16  2  0
 18 16  1  0
 19 27  1  0
 19 18  1  0
 19 20  1  6
 21 20  1  0
 22 21  2  0
 23 22  1  0
 24 23  2  0
 24 25  1  0
 25 26  2  0
 26 21  1  0
 27 28  1  0
 29 27  2  0
M  END
$$$$
