EMF.pdb
     RDKit          3D

 29 29  0  0  1  0  0  0  0  0999 V2000
    9.9348  -18.2061   19.0613 N   0  0  0  0  0  0  0  0  0  0  0  0
    9.4832  -18.2851   20.4386 C   0  0  1  0  0  0  0  0  0  0  0  0
   10.3829  -19.2764   21.1611 C   0  0  0  0  0  0  0  0  0  0  0  0
    9.8123  -19.4877   22.5597 C   0  0  0  0  0  0  0  0  0  0  0  0
   10.6972  -20.4063   23.3312 C   0  0  0  0  0  0  0  0  0  0  0  0
   11.7410  -20.8949   22.8108 O   0  0  0  0  0  0  0  0  0  0  0  0
    9.5477  -16.9354   21.0378 C   0  0  0  0  0  0  0  0  0  0  0  0
   10.5628  -16.2337   20.8206 O   0  0  0  0  0  0  0  0  0  0  0  0
   10.4242  -20.7667   24.6412 O   0  0  0  0  0  0  0  0  0  0  0  0
    7.7524  -12.1404   18.2817 C   0  0  0  0  0  0  0  0  0  0  0  0
    8.1343  -12.8722   19.8597 S   0  0  0  0  0  0  0  0  0  0  0  0
    6.8873  -14.0038   20.4611 C   0  0  0  0  0  0  0  0  0  0  0  0
    7.0712  -14.4878   21.8651 C   0  0  0  0  0  0  0  0  0  0  0  0
    8.4231  -15.0194   22.2194 C   0  0  2  0  0  0  0  0  0  0  0  0
    8.4955  -16.4411   21.8370 N   0  0  0  0  0  0  0  0  0  0  0  0
    8.6159  -14.9806   23.7174 C   0  0  0  0  0  0  0  0  0  0  0  0
    8.2766  -14.0178   24.4360 O   0  0  0  0  0  0  0  0  0  0  0  0
    9.2211  -16.0895   24.4156 N   0  0  0  0  0  0  0  0  0  0  0  0
    9.5123  -16.0259   25.8437 C   0  0  1  0  0  0  0  0  0  0  0  0
    8.2697  -15.9262   26.6562 C   0  0  0  0  0  0  0  0  0  0  0  0
    7.6652  -14.5850   26.5777 C   0  0  0  0  0  0  0  0  0  0  0  0
    6.3771  -14.3434   26.1064 C   0  0  0  0  0  0  0  0  0  0  0  0
    5.8277  -13.0819   26.0392 C   0  0  0  0  0  0  0  0  0  0  0  0
    6.5579  -12.0009   26.4470 C   0  0  0  0  0  0  0  0  0  0  0  0
    7.8261  -12.1835   26.9173 C   0  0  0  0  0  0  0  0  0  0  0  0
    8.3622  -13.4487   26.9790 C   0  0  0  0  0  0  0  0  0  0  0  0
   10.4489  -17.0873   26.2494 C   0  0  0  0  0  0  0  0  0  0  0  0
   10.9683  -17.9698   25.3369 O   0  0  0  0  0  0  0  0  0  0  0  0
   10.7791  -17.1899   27.4540 O   0  0  0  0  0  0  0  0  0  0  0  0
  2  1  1  6
  2  7  1  0
  2  3  1  0
  3  4  1  0
  4  5  1  0
  5  9  1  0
  5  6  2  0
  7  8  2  0
 10 11  1  0
 11 12  1  0
 12 13  1  0
 14 13  1  1
 14 15  1  0
 15  7  1  0
 16 14  1  0
 17 16  2  0
 18 16  1  0
 19 27  1  0
 19 18  1  0
 19 20  1  1
 21 20  1  0
 22 21  2  0
 23 22  1  0
 24 23  2  0
 24 25  1  0
 25 26  2  0
 26 21  1  0
 27 28  1  0
 29 27  2  0
M  END
$$$$
