EMF.pdb
     RDKit          3D

 29 29  0  0  1  0  0  0  0  0999 V2000
    7.3560  -19.1273   21.3512 N   0  0  0  0  0  0  0  0  0  0  0  0
    8.6031  -19.0534   20.6120 C   0  0  1  0  0  0  0  0  0  0  0  0
    8.2621  -19.0966   19.1301 C   0  0  0  0  0  0  0  0  0  0  0  0
    6.7508  -19.2602   19.0057 C   0  0  0  0  0  0  0  0  0  0  0  0
    6.4397  -20.5054   18.2476 C   0  0  0  0  0  0  0  0  0  0  0  0
    7.2290  -20.9432   17.3619 O   0  0  0  0  0  0  0  0  0  0  0  0
    9.3039  -17.8069   20.9860 C   0  0  0  0  0  0  0  0  0  0  0  0
   10.4042  -17.5545   20.4421 O   0  0  0  0  0  0  0  0  0  0  0  0
    5.2844  -21.2370   18.4721 O   0  0  0  0  0  0  0  0  0  0  0  0
    7.7525  -11.5335   19.9853 C   0  0  0  0  0  0  0  0  0  0  0  0
    6.9037  -13.0944   20.1048 S   0  0  0  0  0  0  0  0  0  0  0  0
    7.9669  -14.4753   20.5050 C   0  0  0  0  0  0  0  0  0  0  0  0
    8.4802  -14.5149   21.9101 C   0  0  0  0  0  0  0  0  0  0  0  0
    9.4086  -15.6357   22.2535 C   0  0  2  0  0  0  0  0  0  0  0  0
    8.7542  -16.9168   21.9324 N   0  0  0  0  0  0  0  0  0  0  0  0
    9.6605  -15.6583   23.7430 C   0  0  0  0  0  0  0  0  0  0  0  0
   10.6202  -15.0798   24.2933 O   0  0  0  0  0  0  0  0  0  0  0  0
    8.7768  -16.3724   24.6332 N   0  0  0  0  0  0  0  0  0  0  0  0
    8.9775  -16.3638   26.0781 C   0  0  1  0  0  0  0  0  0  0  0  0
    7.7342  -15.9905   26.8055 C   0  0  0  0  0  0  0  0  0  0  0  0
    7.3042  -14.6163   26.4940 C   0  0  0  0  0  0  0  0  0  0  0  0
    6.1015  -14.3061   25.8638 C   0  0  0  0  0  0  0  0  0  0  0  0
    5.7154  -13.0147   25.5794 C   0  0  0  0  0  0  0  0  0  0  0  0
    6.5305  -11.9718   25.9200 C   0  0  0  0  0  0  0  0  0  0  0  0
    7.7207  -12.2219   26.5397 C   0  0  0  0  0  0  0  0  0  0  0  0
    8.0937  -13.5163   26.8178 C   0  0  0  0  0  0  0  0  0  0  0  0
    9.6311  -17.6007   26.5379 C   0  0  0  0  0  0  0  0  0  0  0  0
    9.9750  -17.7813   27.8533 O   0  0  0  0  0  0  0  0  0  0  0  0
    9.8813  -18.5088   25.7114 O   0  0  0  0  0  0  0  0  0  0  0  0
  2  1  1  1
  2  7  1  0
  2  3  1  0
  3  4  1  0
  4  5  1  0
  5  9  1  0
  5  6  2  0
  7  8  2  0
 10 11  1  0
 11 12  1  0
 12 13  1  0
 14 13  1  1
 14 15  1  0
 15  7  1  0
 16 14  1  0
 17 16  2  0
 18 16  1  0
 19 27  1  0
 19 18  1  0
 19 20  1  1
 21 20  1  0
 22 21  2  0
 23 22  1  0
 24 23  2  0
 24 25  1  0
 25 26  2  0
 26 21  1  0
 27 28  1  0
 29 27  2  0
M  END
$$$$
