EMF.pdb
     RDKit          3D

 29 29  0  0  1  0  0  0  0  0999 V2000
    7.8855  -19.5099   19.5056 N   0  0  0  0  0  0  0  0  0  0  0  0
    8.8464  -18.9611   20.4450 C   0  0  1  0  0  0  0  0  0  0  0  0
    9.5843  -17.8325   19.7407 C   0  0  0  0  0  0  0  0  0  0  0  0
   10.9533  -18.3610   19.3248 C   0  0  0  0  0  0  0  0  0  0  0  0
   11.8194  -17.2284   18.8899 C   0  0  0  0  0  0  0  0  0  0  0  0
   12.3029  -17.1891   17.7222 O   0  0  0  0  0  0  0  0  0  0  0  0
    8.1224  -18.4899   21.6444 C   0  0  0  0  0  0  0  0  0  0  0  0
    6.9217  -18.1526   21.5228 O   0  0  0  0  0  0  0  0  0  0  0  0
   12.1345  -16.1745   19.7328 O   0  0  0  0  0  0  0  0  0  0  0  0
    6.8065  -19.5534   29.2582 C   0  0  0  0  0  0  0  0  0  0  0  0
    7.7009  -19.9115   27.7605 S   0  0  0  0  0  0  0  0  0  0  0  0
    7.4334  -18.7262   26.4487 C   0  0  0  0  0  0  0  0  0  0  0  0
    8.1995  -18.9692   25.1865 C   0  0  0  0  0  0  0  0  0  0  0  0
    8.0441  -17.9523   24.1013 C   0  0  2  0  0  0  0  0  0  0  0  0
    8.7607  -18.4181   22.9004 N   0  0  0  0  0  0  0  0  0  0  0  0
    8.7100  -16.6585   24.5081 C   0  0  0  0  0  0  0  0  0  0  0  0
    8.4288  -15.5477   24.0127 O   0  0  0  0  0  0  0  0  0  0  0  0
    9.7373  -16.6407   25.5219 N   0  0  0  0  0  0  0  0  0  0  0  0
    9.7317  -15.6558   26.5981 C   0  0  1  0  0  0  0  0  0  0  0  0
    8.3479  -15.3071   27.0195 C   0  0  0  0  0  0  0  0  0  0  0  0
    7.8896  -14.0432   26.4171 C   0  0  0  0  0  0  0  0  0  0  0  0
    7.4361  -12.9534   27.1564 C   0  0  0  0  0  0  0  0  0  0  0  0
    7.0103  -11.7788   26.5762 C   0  0  0  0  0  0  0  0  0  0  0  0
    7.0229  -11.6502   25.2155 C   0  0  0  0  0  0  0  0  0  0  0  0
    7.4581  -12.6893   24.4449 C   0  0  0  0  0  0  0  0  0  0  0  0
    7.8806  -13.8564   25.0375 C   0  0  0  0  0  0  0  0  0  0  0  0
   10.6448  -16.0431   27.6865 C   0  0  0  0  0  0  0  0  0  0  0  0
   11.1426  -17.3176   27.7827 O   0  0  0  0  0  0  0  0  0  0  0  0
   10.9747  -15.1925   28.5457 O   0  0  0  0  0  0  0  0  0  0  0  0
  2  1  1  6
  2  7  1  0
  2  3  1  0
  3  4  1  0
  4  5  1  0
  5  9  1  0
  5  6  2  0
  7  8  2  0
 10 11  1  0
 11 12  1  0
 12 13  1  0
 14 13  1  1
 14 15  1  0
 15  7  1  0
 16 14  1  0
 17 16  2  0
 18 16  1  0
 19 27  1  0
 19 18  1  0
 19 20  1  1
 21 20  1  0
 22 21  2  0
 23 22  1  0
 24 23  2  0
 24 25  1  0
 25 26  2  0
 26 21  1  0
 27 28  1  0
 29 27  2  0
M  END
$$$$
