HCT.pdb
     RDKit          3D

 24 24  0  0  1  0  0  0  0  0999 V2000
   10.0878  -14.3924   21.2210 N   0  0  0  0  0  0  0  0  0  0  0  0
    8.7615  -14.1465   21.7454 C   0  0  1  0  0  0  0  0  0  0  0  0
    7.7403  -14.9975   20.9793 C   0  0  0  0  0  0  0  0  0  0  0  0
    7.6553  -14.4878   19.5873 C   0  0  0  0  0  0  0  0  0  0  0  0
    8.3953  -13.4900   18.9856 C   0  0  0  0  0  0  0  0  0  0  0  0
    7.9763  -13.3669   17.7170 N   0  0  0  0  0  0  0  0  0  0  0  0
    6.9955  -14.2532   17.4943 C   0  0  0  0  0  0  0  0  0  0  0  0
    6.8040  -14.9319   18.6335 N   0  0  0  0  0  0  0  0  0  0  0  0
    8.7213  -14.6245   23.1463 C   0  0  0  0  0  0  0  0  0  0  0  0
    9.5612  -15.5167   23.4588 O   0  0  0  0  0  0  0  0  0  0  0  0
    7.8014  -14.1230   24.0975 N   0  0  0  0  0  0  0  0  0  0  0  0
    7.9350  -14.5416   25.4609 C   0  0  1  0  0  0  0  0  0  0  0  0
    7.1415  -13.6153   26.3633 C   0  0  0  0  0  0  0  0  0  0  0  0
    5.4457  -13.5576   25.7323 S   0  0  0  0  0  0  0  0  0  0  0  0
    7.4929  -15.9078   25.7195 C   0  0  0  0  0  0  0  0  0  0  0  0
    6.4115  -16.3185   25.2955 O   0  0  0  0  0  0  0  0  0  0  0  0
    7.6305  -18.8307   24.4342 C   0  0  0  0  0  0  0  0  0  0  0  0
    8.3890  -19.1184   25.7137 C   0  0  1  0  0  0  0  0  0  0  0  0
    9.7424  -18.9368   25.4093 O   0  0  0  0  0  0  0  0  0  0  0  0
    8.0343  -18.1346   26.7803 C   0  0  2  0  0  0  0  0  0  0  0  0
    8.3216  -16.7688   26.4679 N   0  0  0  0  0  0  0  0  0  0  0  0
    8.7351  -18.4956   28.0352 C   0  0  0  0  0  0  0  0  0  0  0  0
    8.5244  -19.6929   28.6971 O   0  0  0  0  0  0  0  0  0  0  0  0
    9.5787  -17.7030   28.5695 O   0  0  0  0  0  0  0  0  0  0  0  0
  2  1  1  6
  3  4  1  0
  3  2  1  0
  4  5  2  0
  5  6  1  0
  7  6  1  0
  8  7  2  0
  8  4  1  0
  9  2  1  0
  9 10  2  0
 11  9  1  0
 12 11  1  0
 12 15  1  0
 12 13  1  1
 14 13  1  0
 15 21  1  0
 16 15  2  0
 18 20  1  0
 18 17  1  6
 19 18  1  0
 20 22  1  0
 20 21  1  6
 22 24  2  0
 22 23  1  0
M  END
$$$$
