HCT.pdb
     RDKit          3D

 24 24  0  0  1  0  0  0  0  0999 V2000
    9.8582  -15.1512   21.3100 N   0  0  0  0  0  0  0  0  0  0  0  0
    8.8176  -14.3361   21.8994 C   0  0  1  0  0  0  0  0  0  0  0  0
    7.4873  -14.6052   21.1839 C   0  0  0  0  0  0  0  0  0  0  0  0
    7.6415  -14.2379   19.7536 C   0  0  0  0  0  0  0  0  0  0  0  0
    8.0362  -13.0329   19.2083 C   0  0  0  0  0  0  0  0  0  0  0  0
    8.0322  -13.1578   17.8725 N   0  0  0  0  0  0  0  0  0  0  0  0
    7.6482  -14.4017   17.5525 C   0  0  0  0  0  0  0  0  0  0  0  0
    7.4119  -15.0541   18.6987 N   0  0  0  0  0  0  0  0  0  0  0  0
    8.6231  -14.7747   23.3002 C   0  0  0  0  0  0  0  0  0  0  0  0
    9.2631  -15.8046   23.6595 O   0  0  0  0  0  0  0  0  0  0  0  0
    7.7724  -14.0927   24.2022 N   0  0  0  0  0  0  0  0  0  0  0  0
    7.8822  -14.3896   25.5992 C   0  0  1  0  0  0  0  0  0  0  0  0
    7.1336  -13.3462   26.4071 C   0  0  0  0  0  0  0  0  0  0  0  0
    5.4863  -13.1683   25.6777 S   0  0  0  0  0  0  0  0  0  0  0  0
    7.3727  -15.7028   25.9796 C   0  0  0  0  0  0  0  0  0  0  0  0
    6.1710  -15.9647   25.9090 O   0  0  0  0  0  0  0  0  0  0  0  0
    7.1319  -18.8106   24.6391 C   0  0  0  0  0  0  0  0  0  0  0  0
    8.0726  -19.0622   25.7997 C   0  0  1  0  0  0  0  0  0  0  0  0
    9.3664  -18.9552   25.2781 O   0  0  0  0  0  0  0  0  0  0  0  0
    7.9244  -18.0088   26.8483 C   0  0  2  0  0  0  0  0  0  0  0  0
    8.2756  -16.6854   26.4350 N   0  0  0  0  0  0  0  0  0  0  0  0
    8.7410  -18.3729   28.0302 C   0  0  0  0  0  0  0  0  0  0  0  0
    8.5573  -19.5477   28.7387 O   0  0  0  0  0  0  0  0  0  0  0  0
    9.6660  -17.6044   28.4534 O   0  0  0  0  0  0  0  0  0  0  0  0
  2  1  1  6
  3  4  1  0
  3  2  1  0
  4  5  2  0
  5  6  1  0
  7  6  1  0
  8  7  2  0
  8  4  1  0
  9  2  1  0
  9 10  2  0
 11  9  1  0
 12 11  1  0
 12 15  1  0
 12 13  1  1
 14 13  1  0
 15 21  1  0
 16 15  2  0
 18 20  1  0
 18 17  1  6
 19 18  1  0
 20 22  1  0
 20 21  1  6
 22 24  2  0
 22 23  1  0
M  END
$$$$
