HCT.pdb
     RDKit          3D

 24 24  0  0  1  0  0  0  0  0999 V2000
    8.7594  -16.1102   20.9482 N   0  0  0  0  0  0  0  0  0  0  0  0
    8.2892  -14.8406   21.4598 C   0  0  1  0  0  0  0  0  0  0  0  0
    7.0681  -14.3818   20.6521 C   0  0  0  0  0  0  0  0  0  0  0  0
    7.4742  -14.2336   19.2316 C   0  0  0  0  0  0  0  0  0  0  0  0
    8.0366  -13.1410   18.6030 C   0  0  0  0  0  0  0  0  0  0  0  0
    8.2365  -13.4578   17.3146 N   0  0  0  0  0  0  0  0  0  0  0  0
    7.8196  -14.7146   17.1054 C   0  0  0  0  0  0  0  0  0  0  0  0
    7.3573  -15.1818   18.2729 N   0  0  0  0  0  0  0  0  0  0  0  0
    7.8072  -15.0488   22.8443 C   0  0  0  0  0  0  0  0  0  0  0  0
    6.8781  -14.2854   23.2356 O   0  0  0  0  0  0  0  0  0  0  0  0
    8.3439  -16.0418   23.6978 N   0  0  0  0  0  0  0  0  0  0  0  0
    8.0091  -15.9971   25.0899 C   0  0  1  0  0  0  0  0  0  0  0  0
    6.9239  -17.0139   25.3907 C   0  0  0  0  0  0  0  0  0  0  0  0
    7.5510  -18.6420   24.9076 S   0  0  0  0  0  0  0  0  0  0  0  0
    9.1286  -16.2558   25.9890 C   0  0  0  0  0  0  0  0  0  0  0  0
   10.0650  -16.9804   25.6485 O   0  0  0  0  0  0  0  0  0  0  0  0
   10.2349  -13.2687   28.6041 C   0  0  0  0  0  0  0  0  0  0  0  0
   10.2093  -14.6424   29.2423 C   0  0  1  0  0  0  0  0  0  0  0  0
    8.9922  -14.7275   29.9271 O   0  0  0  0  0  0  0  0  0  0  0  0
   10.2146  -15.7164   28.2042 C   0  0  2  0  0  0  0  0  0  0  0  0
    9.1341  -15.6634   27.2687 N   0  0  0  0  0  0  0  0  0  0  0  0
   10.2081  -17.0417   28.8673 C   0  0  0  0  0  0  0  0  0  0  0  0
   11.2259  -17.4707   29.7016 O   0  0  0  0  0  0  0  0  0  0  0  0
    9.2457  -17.8597   28.6943 O   0  0  0  0  0  0  0  0  0  0  0  0
  2  1  1  6
  3  4  1  0
  3  2  1  0
  4  5  2  0
  5  6  1  0
  7  6  1  0
  8  7  2  0
  8  4  1  0
  9  2  1  0
  9 10  2  0
 11  9  1  0
 12 11  1  0
 12 15  1  0
 12 13  1  6
 14 13  1  0
 15 21  1  0
 16 15  2  0
 18 20  1  0
 18 17  1  6
 19 18  1  0
 20 22  1  0
 20 21  1  6
 22 24  2  0
 22 23  1  0
M  END
$$$$
