HCT.pdb
     RDKit          3D

 24 24  0  0  1  0  0  0  0  0999 V2000
    8.4969  -16.4238   21.1932 N   0  0  0  0  0  0  0  0  0  0  0  0
    7.4635  -16.3889   22.2059 C   0  0  1  0  0  0  0  0  0  0  0  0
    7.2224  -17.8058   22.7428 C   0  0  0  0  0  0  0  0  0  0  0  0
    6.5111  -18.5877   21.7001 C   0  0  0  0  0  0  0  0  0  0  0  0
    6.1576  -18.2035   20.4223 C   0  0  0  0  0  0  0  0  0  0  0  0
    5.5291  -19.2333   19.8355 N   0  0  0  0  0  0  0  0  0  0  0  0
    5.4722  -20.2577   20.6984 C   0  0  0  0  0  0  0  0  0  0  0  0
    6.0701  -19.8607   21.8298 N   0  0  0  0  0  0  0  0  0  0  0  0
    7.9652  -15.5983   23.3528 C   0  0  0  0  0  0  0  0  0  0  0  0
    9.2104  -15.6497   23.5677 O   0  0  0  0  0  0  0  0  0  0  0  0
    7.1144  -14.8218   24.1748 N   0  0  0  0  0  0  0  0  0  0  0  0
    7.6844  -14.1531   25.3061 C   0  0  1  0  0  0  0  0  0  0  0  0
    6.7526  -13.0517   25.7757 C   0  0  0  0  0  0  0  0  0  0  0  0
    7.5469  -12.2234   27.1758 S   0  0  0  0  0  0  0  0  0  0  0  0
    7.9623  -15.0221   26.4447 C   0  0  0  0  0  0  0  0  0  0  0  0
    7.0627  -15.6603   26.9935 O   0  0  0  0  0  0  0  0  0  0  0  0
   10.1192  -17.9672   26.4938 C   0  0  0  0  0  0  0  0  0  0  0  0
   10.7116  -17.0468   27.5412 C   0  0  1  0  0  0  0  0  0  0  0  0
   11.7758  -16.3866   26.9176 O   0  0  0  0  0  0  0  0  0  0  0  0
    9.7247  -16.0071   27.9615 C   0  0  2  0  0  0  0  0  0  0  0  0
    9.2852  -15.1298   26.9210 N   0  0  0  0  0  0  0  0  0  0  0  0
   10.3024  -15.1956   29.0587 C   0  0  0  0  0  0  0  0  0  0  0  0
   10.7559  -15.7474   30.2444 O   0  0  0  0  0  0  0  0  0  0  0  0
   10.4084  -13.9293   28.9555 O   0  0  0  0  0  0  0  0  0  0  0  0
  2  1  1  6
  3  4  1  0
  3  2  1  0
  4  5  2  0
  5  6  1  0
  7  6  1  0
  8  7  2  0
  8  4  1  0
  9  2  1  0
  9 10  2  0
 11  9  1  0
 12 11  1  0
 12 15  1  0
 12 13  1  1
 14 13  1  0
 15 21  1  0
 16 15  2  0
 18 20  1  0
 18 17  1  6
 19 18  1  0
 20 22  1  0
 20 21  1  6
 22 24  2  0
 22 23  1  0
M  END
$$$$
