HCT.pdb
     RDKit          3D

 24 24  0  0  1  0  0  0  0  0999 V2000
    8.8758  -17.8747   20.1228 N   0  0  0  0  0  0  0  0  0  0  0  0
    9.9187  -17.7741   21.1213 C   0  0  1  0  0  0  0  0  0  0  0  0
   11.0231  -16.8356   20.6177 C   0  0  0  0  0  0  0  0  0  0  0  0
   12.0160  -17.6420   19.8638 C   0  0  0  0  0  0  0  0  0  0  0  0
   12.1819  -19.0122   19.8456 C   0  0  0  0  0  0  0  0  0  0  0  0
   13.2028  -19.2983   19.0235 N   0  0  0  0  0  0  0  0  0  0  0  0
   13.6898  -18.1554   18.5197 C   0  0  0  0  0  0  0  0  0  0  0  0
   12.9655  -17.1519   19.0331 N   0  0  0  0  0  0  0  0  0  0  0  0
    9.3482  -17.1242   22.3232 C   0  0  0  0  0  0  0  0  0  0  0  0
    8.8790  -15.9609   22.1625 O   0  0  0  0  0  0  0  0  0  0  0  0
    9.3204  -17.7535   23.5903 N   0  0  0  0  0  0  0  0  0  0  0  0
    8.7788  -17.0274   24.7000 C   0  0  1  0  0  0  0  0  0  0  0  0
    7.5767  -17.7649   25.2596 C   0  0  0  0  0  0  0  0  0  0  0  0
    8.1337  -19.4097   25.7710 S   0  0  0  0  0  0  0  0  0  0  0  0
    9.7188  -16.8057   25.7936 C   0  0  0  0  0  0  0  0  0  0  0  0
   10.7891  -17.4133   25.8467 O   0  0  0  0  0  0  0  0  0  0  0  0
    9.8170  -13.0645   27.8016 C   0  0  0  0  0  0  0  0  0  0  0  0
    9.7900  -14.3079   28.6667 C   0  0  1  0  0  0  0  0  0  0  0  0
    8.4493  -14.5082   29.0131 O   0  0  0  0  0  0  0  0  0  0  0  0
   10.2371  -15.5071   27.8965 C   0  0  2  0  0  0  0  0  0  0  0  0
    9.3915  -15.8786   26.8045 N   0  0  0  0  0  0  0  0  0  0  0  0
   10.3658  -16.6624   28.8158 C   0  0  0  0  0  0  0  0  0  0  0  0
   11.2369  -16.6746   29.8914 O   0  0  0  0  0  0  0  0  0  0  0  0
    9.6659  -17.7153   28.6519 O   0  0  0  0  0  0  0  0  0  0  0  0
  2  1  1  6
  3  4  1  0
  3  2  1  0
  4  5  2  0
  5  6  1  0
  7  6  1  0
  8  7  2  0
  8  4  1  0
  9  2  1  0
  9 10  2  0
 11  9  1  0
 12 11  1  0
 12 15  1  0
 12 13  1  1
 14 13  1  0
 15 21  1  0
 16 15  2  0
 18 20  1  0
 18 17  1  6
 19 18  1  0
 20 22  1  0
 20 21  1  6
 22 24  2  0
 22 23  1  0
M  END
$$$$
