HCT.pdb
     RDKit          3D

 24 24  0  0  1  0  0  0  0  0999 V2000
   11.6712  -16.5542   16.6522 N   0  0  0  0  0  0  0  0  0  0  0  0
   12.2792  -17.5164   17.5462 C   0  0  1  0  0  0  0  0  0  0  0  0
   13.7501  -17.7189   17.1594 C   0  0  0  0  0  0  0  0  0  0  0  0
   13.8042  -18.6045   15.9689 C   0  0  0  0  0  0  0  0  0  0  0  0
   14.0046  -19.9691   15.9152 C   0  0  0  0  0  0  0  0  0  0  0  0
   13.9765  -20.3448   14.6275 N   0  0  0  0  0  0  0  0  0  0  0  0
   13.7650  -19.2641   13.8630 C   0  0  0  0  0  0  0  0  0  0  0  0
   13.6610  -18.2092   14.6824 N   0  0  0  0  0  0  0  0  0  0  0  0
   12.2921  -16.9385   18.9094 C   0  0  0  0  0  0  0  0  0  0  0  0
   12.5333  -15.6998   18.9913 O   0  0  0  0  0  0  0  0  0  0  0  0
   12.0502  -17.7129   20.0688 N   0  0  0  0  0  0  0  0  0  0  0  0
   11.9993  -17.0458   21.3354 C   0  0  1  0  0  0  0  0  0  0  0  0
   10.6278  -17.2284   21.9579 C   0  0  0  0  0  0  0  0  0  0  0  0
   10.6510  -16.4215   23.5784 S   0  0  0  0  0  0  0  0  0  0  0  0
   12.9946  -17.5028   22.2994 C   0  0  0  0  0  0  0  0  0  0  0  0
   13.0591  -18.6862   22.6359 O   0  0  0  0  0  0  0  0  0  0  0  0
   17.2701  -16.2647   24.5427 C   0  0  0  0  0  0  0  0  0  0  0  0
   16.0868  -15.8201   23.7077 C   0  0  1  0  0  0  0  0  0  0  0  0
   16.5793  -15.6258   22.4127 O   0  0  0  0  0  0  0  0  0  0  0  0
   15.0485  -16.8917   23.6354 C   0  0  2  0  0  0  0  0  0  0  0  0
   13.8959  -16.5699   22.8522 N   0  0  0  0  0  0  0  0  0  0  0  0
   14.6111  -17.2462   25.0062 C   0  0  0  0  0  0  0  0  0  0  0  0
   15.2386  -18.2159   25.7691 O   0  0  0  0  0  0  0  0  0  0  0  0
   13.6184  -16.6618   25.5524 O   0  0  0  0  0  0  0  0  0  0  0  0
  2  1  1  6
  3  4  1  0
  3  2  1  0
  4  5  2  0
  5  6  1  0
  7  6  1  0
  8  7  2  0
  8  4  1  0
  9  2  1  0
  9 10  2  0
 11  9  1  0
 12 11  1  0
 12 15  1  0
 12 13  1  1
 14 13  1  0
 15 21  1  0
 16 15  2  0
 18 20  1  0
 18 17  1  1
 19 18  1  0
 20 22  1  0
 20 21  1  6
 22 24  2  0
 22 23  1  0
M  END
$$$$
