HCT.pdb
     RDKit          3D

 24 24  0  0  1  0  0  0  0  0999 V2000
    9.8119  -13.6308   21.3750 N   0  0  0  0  0  0  0  0  0  0  0  0
    8.4422  -13.7135   21.8353 C   0  0  1  0  0  0  0  0  0  0  0  0
    7.7026  -14.8069   21.0533 C   0  0  0  0  0  0  0  0  0  0  0  0
    7.6442  -14.4041   19.6254 C   0  0  0  0  0  0  0  0  0  0  0  0
    8.2039  -13.2996   19.0154 C   0  0  0  0  0  0  0  0  0  0  0  0
    7.8933  -13.3410   17.7108 N   0  0  0  0  0  0  0  0  0  0  0  0
    7.1555  -14.4348   17.4733 C   0  0  0  0  0  0  0  0  0  0  0  0
    7.0068  -15.0774   18.6395 N   0  0  0  0  0  0  0  0  0  0  0  0
    8.4541  -14.1595   23.2472 C   0  0  0  0  0  0  0  0  0  0  0  0
    9.4939  -14.7658   23.6352 O   0  0  0  0  0  0  0  0  0  0  0  0
    7.3717  -13.9294   24.1292 N   0  0  0  0  0  0  0  0  0  0  0  0
    7.5177  -14.3132   25.5016 C   0  0  1  0  0  0  0  0  0  0  0  0
    6.4110  -13.6887   26.3306 C   0  0  0  0  0  0  0  0  0  0  0  0
    6.5753  -11.8909   26.1964 S   0  0  0  0  0  0  0  0  0  0  0  0
    7.4931  -15.7537   25.7319 C   0  0  0  0  0  0  0  0  0  0  0  0
    6.4706  -16.4126   25.5370 O   0  0  0  0  0  0  0  0  0  0  0  0
    9.0604  -18.3768   23.9825 C   0  0  0  0  0  0  0  0  0  0  0  0
    9.6573  -18.5047   25.3691 C   0  0  1  0  0  0  0  0  0  0  0  0
   10.8887  -17.8422   25.3220 O   0  0  0  0  0  0  0  0  0  0  0  0
    8.8120  -17.8063   26.3835 C   0  0  2  0  0  0  0  0  0  0  0  0
    8.6628  -16.3978   26.1851 N   0  0  0  0  0  0  0  0  0  0  0  0
    9.3705  -18.0420   27.7357 C   0  0  0  0  0  0  0  0  0  0  0  0
    9.4082  -19.2931   28.3267 O   0  0  0  0  0  0  0  0  0  0  0  0
    9.8498  -17.0835   28.4263 O   0  0  0  0  0  0  0  0  0  0  0  0
  2  1  1  6
  3  4  1  0
  3  2  1  0
  4  5  2  0
  5  6  1  0
  7  6  1  0
  8  7  2  0
  8  4  1  0
  9  2  1  0
  9 10  2  0
 11  9  1  0
 12 11  1  0
 12 15  1  0
 12 13  1  1
 14 13  1  0
 15 21  1  0
 16 15  2  0
 18 20  1  0
 18 17  1  6
 19 18  1  0
 20 22  1  0
 20 21  1  6
 22 24  2  0
 22 23  1  0
M  END
$$$$
