HCT.pdb
     RDKit          3D

 24 24  0  0  1  0  0  0  0  0999 V2000
    8.8474  -13.6718   21.1487 N   0  0  0  0  0  0  0  0  0  0  0  0
    8.0613  -14.4134   22.1114 C   0  0  1  0  0  0  0  0  0  0  0  0
    8.1838  -15.9160   21.8260 C   0  0  0  0  0  0  0  0  0  0  0  0
    7.2120  -16.2718   20.7612 C   0  0  0  0  0  0  0  0  0  0  0  0
    6.3577  -15.4453   20.0595 C   0  0  0  0  0  0  0  0  0  0  0  0
    5.6625  -16.2003   19.1954 N   0  0  0  0  0  0  0  0  0  0  0  0
    6.0475  -17.4778   19.3257 C   0  0  0  0  0  0  0  0  0  0  0  0
    6.9889  -17.5162   20.2782 N   0  0  0  0  0  0  0  0  0  0  0  0
    8.6529  -14.2038   23.4525 C   0  0  0  0  0  0  0  0  0  0  0  0
    9.9126  -14.1037   23.5005 O   0  0  0  0  0  0  0  0  0  0  0  0
    7.8688  -14.1174   24.6273 N   0  0  0  0  0  0  0  0  0  0  0  0
    8.5401  -14.0076   25.8879 C   0  0  1  0  0  0  0  0  0  0  0  0
    7.8647  -12.9491   26.7396 C   0  0  0  0  0  0  0  0  0  0  0  0
    6.1080  -12.9342   26.3023 S   0  0  0  0  0  0  0  0  0  0  0  0
    8.5825  -15.2451   26.6596 C   0  0  0  0  0  0  0  0  0  0  0  0
    7.5485  -15.8404   26.9663 O   0  0  0  0  0  0  0  0  0  0  0  0
   10.7275  -18.1944   25.6173 C   0  0  0  0  0  0  0  0  0  0  0  0
   11.0778  -17.8952   27.0606 C   0  0  1  0  0  0  0  0  0  0  0  0
   12.2706  -17.1648   27.0250 O   0  0  0  0  0  0  0  0  0  0  0  0
   10.0407  -17.0277   27.6955 C   0  0  2  0  0  0  0  0  0  0  0  0
    9.8314  -15.7644   27.0585 N   0  0  0  0  0  0  0  0  0  0  0  0
   10.3966  -16.7940   29.1150 C   0  0  0  0  0  0  0  0  0  0  0  0
   10.5519  -17.8204   30.0306 O   0  0  0  0  0  0  0  0  0  0  0  0
   10.5786  -15.6142   29.5624 O   0  0  0  0  0  0  0  0  0  0  0  0
  2  1  1  6
  3  4  1  0
  3  2  1  0
  4  5  2  0
  5  6  1  0
  7  6  1  0
  8  7  2  0
  8  4  1  0
  9  2  1  0
  9 10  2  0
 11  9  1  0
 12 11  1  0
 12 15  1  0
 12 13  1  1
 14 13  1  0
 15 21  1  0
 16 15  2  0
 18 20  1  0
 18 17  1  6
 19 18  1  0
 20 22  1  0
 20 21  1  6
 22 24  2  0
 22 23  1  0
M  END
$$$$
