HCT.pdb
     RDKit          3D

 24 24  0  0  1  0  0  0  0  0999 V2000
    8.2257  -14.3701   19.8241 N   0  0  0  0  0  0  0  0  0  0  0  0
    7.6317  -15.2345   20.8214 C   0  0  1  0  0  0  0  0  0  0  0  0
    7.9058  -16.7002   20.4597 C   0  0  0  0  0  0  0  0  0  0  0  0
    7.2359  -16.9977   19.1685 C   0  0  0  0  0  0  0  0  0  0  0  0
    5.8875  -16.9938   18.8733 C   0  0  0  0  0  0  0  0  0  0  0  0
    5.7421  -17.3235   17.5809 N   0  0  0  0  0  0  0  0  0  0  0  0
    6.9531  -17.5363   17.0469 C   0  0  0  0  0  0  0  0  0  0  0  0
    7.8574  -17.3372   18.0152 N   0  0  0  0  0  0  0  0  0  0  0  0
    8.3209  -14.9970   22.1102 C   0  0  0  0  0  0  0  0  0  0  0  0
    9.5852  -15.0035   22.0797 O   0  0  0  0  0  0  0  0  0  0  0  0
    7.6214  -14.7732   23.3198 N   0  0  0  0  0  0  0  0  0  0  0  0
    8.3693  -14.7253   24.5405 C   0  0  1  0  0  0  0  0  0  0  0  0
    7.7472  -13.7141   25.4853 C   0  0  0  0  0  0  0  0  0  0  0  0
    5.9545  -13.9634   25.4499 S   0  0  0  0  0  0  0  0  0  0  0  0
    8.4601  -16.0004   25.2438 C   0  0  0  0  0  0  0  0  0  0  0  0
    7.4558  -16.6782   25.4662 O   0  0  0  0  0  0  0  0  0  0  0  0
   10.7134  -18.7847   24.0857 C   0  0  0  0  0  0  0  0  0  0  0  0
   11.0717  -18.5223   25.5341 C   0  0  1  0  0  0  0  0  0  0  0  0
   12.2125  -17.7127   25.5090 O   0  0  0  0  0  0  0  0  0  0  0  0
    9.9922  -17.7530   26.2227 C   0  0  2  0  0  0  0  0  0  0  0  0
    9.7218  -16.4602   25.6741 N   0  0  0  0  0  0  0  0  0  0  0  0
   10.3341  -17.6016   27.6568 C   0  0  0  0  0  0  0  0  0  0  0  0
   10.4738  -18.6788   28.5147 O   0  0  0  0  0  0  0  0  0  0  0  0
   10.5179  -16.4499   28.1717 O   0  0  0  0  0  0  0  0  0  0  0  0
  2  1  1  6
  3  4  1  0
  3  2  1  0
  4  5  2  0
  5  6  1  0
  7  6  1  0
  8  7  2  0
  8  4  1  0
  9  2  1  0
  9 10  2  0
 11  9  1  0
 12 11  1  0
 12 15  1  0
 12 13  1  1
 14 13  1  0
 15 21  1  0
 16 15  2  0
 18 20  1  0
 18 17  1  6
 19 18  1  0
 20 22  1  0
 20 21  1  6
 22 24  2  0
 22 23  1  0
M  END
$$$$
