HCT.pdb
     RDKit          3D

 24 24  0  0  1  0  0  0  0  0999 V2000
    9.6474  -16.2694   19.5919 N   0  0  0  0  0  0  0  0  0  0  0  0
   10.2974  -16.9752   20.6754 C   0  0  1  0  0  0  0  0  0  0  0  0
   11.7453  -16.4859   20.8117 C   0  0  0  0  0  0  0  0  0  0  0  0
   12.5826  -17.2199   19.8295 C   0  0  0  0  0  0  0  0  0  0  0  0
   12.6419  -17.0669   18.4590 C   0  0  0  0  0  0  0  0  0  0  0  0
   13.5379  -17.9429   17.9795 N   0  0  0  0  0  0  0  0  0  0  0  0
   14.0488  -18.6461   19.0001 C   0  0  0  0  0  0  0  0  0  0  0  0
   13.4653  -18.2033   20.1220 N   0  0  0  0  0  0  0  0  0  0  0  0
    9.6217  -16.6060   21.9401 C   0  0  0  0  0  0  0  0  0  0  0  0
    9.2917  -15.3917   22.0660 O   0  0  0  0  0  0  0  0  0  0  0  0
    9.3513  -17.5455   22.9632 N   0  0  0  0  0  0  0  0  0  0  0  0
    8.6729  -17.0936   24.1411 C   0  0  1  0  0  0  0  0  0  0  0  0
    7.6893  -18.1513   24.6057 C   0  0  0  0  0  0  0  0  0  0  0  0
    6.7254  -17.4426   25.9643 S   0  0  0  0  0  0  0  0  0  0  0  0
    9.5528  -16.7759   25.2607 C   0  0  0  0  0  0  0  0  0  0  0  0
   10.6008  -17.3972   25.4435 O   0  0  0  0  0  0  0  0  0  0  0  0
   10.3526  -13.6564   29.0841 C   0  0  0  0  0  0  0  0  0  0  0  0
    9.3973  -14.1326   28.0090 C   0  0  1  0  0  0  0  0  0  0  0  0
    9.2836  -13.0767   27.0982 O   0  0  0  0  0  0  0  0  0  0  0  0
    9.9610  -15.3020   27.2702 C   0  0  2  0  0  0  0  0  0  0  0  0
    9.1929  -15.7387   26.1456 N   0  0  0  0  0  0  0  0  0  0  0  0
   10.1295  -16.4397   28.2048 C   0  0  0  0  0  0  0  0  0  0  0  0
   11.0952  -16.4624   29.1962 O   0  0  0  0  0  0  0  0  0  0  0  0
    9.3773  -17.4666   28.1342 O   0  0  0  0  0  0  0  0  0  0  0  0
  2  1  1  6
  3  4  1  0
  3  2  1  0
  4  5  2  0
  5  6  1  0
  7  6  1  0
  8  7  2  0
  8  4  1  0
  9  2  1  0
  9 10  2  0
 11  9  1  0
 12 11  1  0
 12 15  1  0
 12 13  1  1
 14 13  1  0
 15 21  1  0
 16 15  2  0
 18 20  1  0
 18 17  1  1
 19 18  1  0
 20 22  1  0
 20 21  1  6
 22 24  2  0
 22 23  1  0
M  END
$$$$
