HCT.pdb
     RDKit          3D

 24 24  0  0  1  0  0  0  0  0999 V2000
   10.5075  -15.8423   20.0001 N   0  0  0  0  0  0  0  0  0  0  0  0
    9.9215  -16.7706   20.9433 C   0  0  1  0  0  0  0  0  0  0  0  0
   10.8847  -17.9417   21.1773 C   0  0  0  0  0  0  0  0  0  0  0  0
   10.8466  -18.8256   19.9849 C   0  0  0  0  0  0  0  0  0  0  0  0
   10.0798  -18.7047   18.8436 C   0  0  0  0  0  0  0  0  0  0  0  0
   10.3745  -19.7316   18.0319 N   0  0  0  0  0  0  0  0  0  0  0  0
   11.3025  -20.4995   18.6205 C   0  0  0  0  0  0  0  0  0  0  0  0
   11.5861  -19.9451   19.8067 N   0  0  0  0  0  0  0  0  0  0  0  0
    9.7902  -16.0837   22.2485 C   0  0  0  0  0  0  0  0  0  0  0  0
   10.6611  -15.2048   22.5099 O   0  0  0  0  0  0  0  0  0  0  0  0
    8.7545  -16.3804   23.1660 N   0  0  0  0  0  0  0  0  0  0  0  0
    8.6948  -15.6377   24.3894 C   0  0  1  0  0  0  0  0  0  0  0  0
    7.2798  -15.6607   24.9363 C   0  0  0  0  0  0  0  0  0  0  0  0
    6.8206  -17.3930   25.1925 S   0  0  0  0  0  0  0  0  0  0  0  0
    9.5885  -16.1237   25.4354 C   0  0  0  0  0  0  0  0  0  0  0  0
   10.2754  -17.1326   25.2683 O   0  0  0  0  0  0  0  0  0  0  0  0
   10.9411  -13.3232   28.3067 C   0  0  0  0  0  0  0  0  0  0  0  0
   10.5892  -14.7013   28.8283 C   0  0  1  0  0  0  0  0  0  0  0  0
    9.2848  -14.6048   29.3249 O   0  0  0  0  0  0  0  0  0  0  0  0
   10.5739  -15.7055   27.7226 C   0  0  2  0  0  0  0  0  0  0  0  0
    9.6635  -15.4225   26.6565 N   0  0  0  0  0  0  0  0  0  0  0  0
   10.2592  -17.0433   28.2772 C   0  0  0  0  0  0  0  0  0  0  0  0
    9.1420  -17.7695   27.9023 O   0  0  0  0  0  0  0  0  0  0  0  0
   11.0190  -17.5934   29.1405 O   0  0  0  0  0  0  0  0  0  0  0  0
  2  1  1  6
  3  4  1  0
  3  2  1  0
  4  5  2  0
  5  6  1  0
  7  6  1  0
  8  7  2  0
  8  4  1  0
  9  2  1  0
  9 10  2  0
 11  9  1  0
 12 11  1  0
 12 15  1  0
 12 13  1  1
 14 13  1  0
 15 21  1  0
 16 15  2  0
 18 20  1  0
 18 17  1  6
 19 18  1  0
 20 22  1  0
 20 21  1  6
 22 24  2  0
 22 23  1  0
M  END
$$$$
