HCT.pdb
     RDKit          3D

 24 24  0  0  1  0  0  0  0  0999 V2000
    8.0582  -14.3322   19.9832 N   0  0  0  0  0  0  0  0  0  0  0  0
    7.5199  -15.2178   20.9934 C   0  0  1  0  0  0  0  0  0  0  0  0
    7.8778  -16.6692   20.6477 C   0  0  0  0  0  0  0  0  0  0  0  0
    7.1341  -17.0564   19.4223 C   0  0  0  0  0  0  0  0  0  0  0  0
    5.8371  -17.5144   19.3070 C   0  0  0  0  0  0  0  0  0  0  0  0
    5.5880  -17.7399   18.0081 N   0  0  0  0  0  0  0  0  0  0  0  0
    6.6836  -17.4403   17.2960 C   0  0  0  0  0  0  0  0  0  0  0  0
    7.6202  -17.0255   18.1596 N   0  0  0  0  0  0  0  0  0  0  0  0
    8.1994  -14.9250   22.2760 C   0  0  0  0  0  0  0  0  0  0  0  0
    9.4585  -14.8160   22.2316 O   0  0  0  0  0  0  0  0  0  0  0  0
    7.4963  -14.7720   23.4945 N   0  0  0  0  0  0  0  0  0  0  0  0
    8.2405  -14.7965   24.7182 C   0  0  1  0  0  0  0  0  0  0  0  0
    7.6079  -13.8526   25.7237 C   0  0  0  0  0  0  0  0  0  0  0  0
    5.8144  -14.0828   25.6365 S   0  0  0  0  0  0  0  0  0  0  0  0
    8.3394  -16.1132   25.3388 C   0  0  0  0  0  0  0  0  0  0  0  0
    7.3640  -16.8631   25.4008 O   0  0  0  0  0  0  0  0  0  0  0  0
   10.2296  -18.8416   24.0979 C   0  0  0  0  0  0  0  0  0  0  0  0
   10.8126  -18.6288   25.4799 C   0  0  1  0  0  0  0  0  0  0  0  0
   11.9623  -17.8525   25.2986 O   0  0  0  0  0  0  0  0  0  0  0  0
    9.8764  -17.8473   26.3426 C   0  0  2  0  0  0  0  0  0  0  0  0
    9.5753  -16.5296   25.8752 N   0  0  0  0  0  0  0  0  0  0  0  0
   10.4329  -17.7529   27.7128 C   0  0  0  0  0  0  0  0  0  0  0  0
   10.6059  -18.8549   28.5323 O   0  0  0  0  0  0  0  0  0  0  0  0
   10.7830  -16.6303   28.2053 O   0  0  0  0  0  0  0  0  0  0  0  0
  2  1  1  6
  3  4  1  0
  3  2  1  0
  4  5  2  0
  5  6  1  0
  7  6  1  0
  8  7  2  0
  8  4  1  0
  9  2  1  0
  9 10  2  0
 11  9  1  0
 12 11  1  0
 12 15  1  0
 12 13  1  1
 14 13  1  0
 15 21  1  0
 16 15  2  0
 18 20  1  0
 18 17  1  6
 19 18  1  0
 20 22  1  0
 20 21  1  6
 22 24  2  0
 22 23  1  0
M  END
$$$$
