HCT.pdb
     RDKit          3D

 24 24  0  0  1  0  0  0  0  0999 V2000
    9.8720  -14.3881   20.9328 N   0  0  0  0  0  0  0  0  0  0  0  0
    8.6138  -14.0609   21.5688 C   0  0  1  0  0  0  0  0  0  0  0  0
    7.4770  -14.8324   20.8858 C   0  0  0  0  0  0  0  0  0  0  0  0
    7.4372  -14.4392   19.4546 C   0  0  0  0  0  0  0  0  0  0  0  0
    7.5120  -13.1762   18.9028 C   0  0  0  0  0  0  0  0  0  0  0  0
    7.4349  -13.2981   17.5689 N   0  0  0  0  0  0  0  0  0  0  0  0
    7.3138  -14.5961   17.2565 C   0  0  0  0  0  0  0  0  0  0  0  0
    7.3157  -15.2854   18.4053 N   0  0  0  0  0  0  0  0  0  0  0  0
    8.6587  -14.5524   22.9649 C   0  0  0  0  0  0  0  0  0  0  0  0
    9.5162  -15.4469   23.2173 O   0  0  0  0  0  0  0  0  0  0  0  0
    7.7980  -14.0609   23.9749 N   0  0  0  0  0  0  0  0  0  0  0  0
    8.0757  -14.4103   25.3360 C   0  0  1  0  0  0  0  0  0  0  0  0
    7.2022  -13.5894   26.2661 C   0  0  0  0  0  0  0  0  0  0  0  0
    5.5237  -13.5966   25.5881 S   0  0  0  0  0  0  0  0  0  0  0  0
    7.8682  -15.8194   25.6524 C   0  0  0  0  0  0  0  0  0  0  0  0
    6.8134  -16.3879   25.3663 O   0  0  0  0  0  0  0  0  0  0  0  0
    9.3000  -18.6751   24.2398 C   0  0  0  0  0  0  0  0  0  0  0  0
    9.7489  -18.7723   25.6834 C   0  0  1  0  0  0  0  0  0  0  0  0
   11.0364  -18.2264   25.7250 O   0  0  0  0  0  0  0  0  0  0  0  0
    8.8818  -17.9417   26.5720 C   0  0  2  0  0  0  0  0  0  0  0  0
    8.8961  -16.5383   26.2965 N   0  0  0  0  0  0  0  0  0  0  0  0
    9.2766  -18.1556   27.9843 C   0  0  0  0  0  0  0  0  0  0  0  0
    9.2025  -19.3893   28.6076 O   0  0  0  0  0  0  0  0  0  0  0  0
    9.7099  -17.1935   28.6997 O   0  0  0  0  0  0  0  0  0  0  0  0
  2  1  1  6
  3  4  1  0
  3  2  1  0
  4  5  2  0
  5  6  1  0
  7  6  1  0
  8  7  2  0
  8  4  1  0
  9  2  1  0
  9 10  2  0
 11  9  1  0
 12 11  1  0
 12 15  1  0
 12 13  1  1
 14 13  1  0
 15 21  1  0
 16 15  2  0
 18 20  1  0
 18 17  1  6
 19 18  1  0
 20 22  1  0
 20 21  1  6
 22 24  2  0
 22 23  1  0
M  END
$$$$
