HCT.pdb
     RDKit          3D

 24 24  0  0  1  0  0  0  0  0999 V2000
    9.1378  -17.0151   21.3543 N   0  0  0  0  0  0  0  0  0  0  0  0
    8.8143  -15.6374   21.0509 C   0  0  1  0  0  0  0  0  0  0  0  0
    7.5411  -15.5850   20.1962 C   0  0  0  0  0  0  0  0  0  0  0  0
    7.7188  -16.4921   19.0342 C   0  0  0  0  0  0  0  0  0  0  0  0
    8.7584  -17.3596   18.7659 C   0  0  0  0  0  0  0  0  0  0  0  0
    8.4974  -17.9772   17.6038 N   0  0  0  0  0  0  0  0  0  0  0  0
    7.3271  -17.5305   17.1264 C   0  0  0  0  0  0  0  0  0  0  0  0
    6.8579  -16.6284   17.9989 N   0  0  0  0  0  0  0  0  0  0  0  0
    8.4823  -14.9493   22.3192 C   0  0  0  0  0  0  0  0  0  0  0  0
    8.1141  -13.7433   22.2234 O   0  0  0  0  0  0  0  0  0  0  0  0
    8.5662  -15.5886   23.5789 N   0  0  0  0  0  0  0  0  0  0  0  0
    8.1529  -14.8607   24.7413 C   0  0  1  0  0  0  0  0  0  0  0  0
    6.6661  -14.5689   24.6635 C   0  0  0  0  0  0  0  0  0  0  0  0
    6.1998  -13.6974   26.1802 S   0  0  0  0  0  0  0  0  0  0  0  0
    8.4112  -15.5429   26.0048 C   0  0  0  0  0  0  0  0  0  0  0  0
    7.9687  -16.6721   26.2212 O   0  0  0  0  0  0  0  0  0  0  0  0
   11.6882  -13.5366   27.7924 C   0  0  0  0  0  0  0  0  0  0  0  0
   10.9871  -14.5746   28.6446 C   0  0  1  0  0  0  0  0  0  0  0  0
   10.0888  -13.8684   29.4520 O   0  0  0  0  0  0  0  0  0  0  0  0
   10.1877  -15.5115   27.7993 C   0  0  2  0  0  0  0  0  0  0  0  0
    9.1816  -14.8942   26.9918 N   0  0  0  0  0  0  0  0  0  0  0  0
    9.5477  -16.5303   28.6644 C   0  0  0  0  0  0  0  0  0  0  0  0
   10.2702  -17.4092   29.4528 O   0  0  0  0  0  0  0  0  0  0  0  0
    8.2791  -16.6432   28.7208 O   0  0  0  0  0  0  0  0  0  0  0  0
  2  1  1  1
  3  4  1  0
  3  2  1  0
  4  5  2  0
  5  6  1  0
  7  6  1  0
  8  7  2  0
  8  4  1  0
  9  2  1  0
  9 10  2  0
 11  9  1  0
 12 11  1  0
 12 15  1  0
 12 13  1  6
 14 13  1  0
 15 21  1  0
 16 15  2  0
 18 20  1  0
 18 17  1  6
 19 18  1  0
 20 22  1  0
 20 21  1  1
 22 24  2  0
 22 23  1  0
M  END
$$$$
