HCT.pdb
     RDKit          3D

 24 24  0  0  1  0  0  0  0  0999 V2000
    9.1889  -18.4099   20.0275 N   0  0  0  0  0  0  0  0  0  0  0  0
    9.6829  -17.1536   20.5493 C   0  0  1  0  0  0  0  0  0  0  0  0
    9.8090  -16.1370   19.4070 C   0  0  0  0  0  0  0  0  0  0  0  0
   11.0947  -16.3779   18.7047 C   0  0  0  0  0  0  0  0  0  0  0  0
   12.3408  -15.8505   18.9776 C   0  0  0  0  0  0  0  0  0  0  0  0
   13.2094  -16.3473   18.0839 N   0  0  0  0  0  0  0  0  0  0  0  0
   12.5557  -17.1721   17.2534 C   0  0  0  0  0  0  0  0  0  0  0  0
   11.2714  -17.1874   17.6345 N   0  0  0  0  0  0  0  0  0  0  0  0
    8.6654  -16.6037   21.4738 C   0  0  0  0  0  0  0  0  0  0  0  0
    7.4797  -16.5527   21.0369 O   0  0  0  0  0  0  0  0  0  0  0  0
    8.9824  -16.1550   22.7779 N   0  0  0  0  0  0  0  0  0  0  0  0
    7.9092  -15.7771   23.6481 C   0  0  1  0  0  0  0  0  0  0  0  0
    7.1009  -17.0030   24.0300 C   0  0  0  0  0  0  0  0  0  0  0  0
    8.2007  -18.1247   24.9296 S   0  0  0  0  0  0  0  0  0  0  0  0
    8.3328  -15.1173   24.8785 C   0  0  0  0  0  0  0  0  0  0  0  0
    9.4799  -15.2470   25.3085 O   0  0  0  0  0  0  0  0  0  0  0  0
    6.4597  -11.4054   25.9832 C   0  0  0  0  0  0  0  0  0  0  0  0
    6.6426  -12.4771   27.0383 C   0  0  1  0  0  0  0  0  0  0  0  0
    5.4451  -13.2000   27.0660 O   0  0  0  0  0  0  0  0  0  0  0  0
    7.7299  -13.4269   26.6552 C   0  0  2  0  0  0  0  0  0  0  0  0
    7.4093  -14.3182   25.5835 N   0  0  0  0  0  0  0  0  0  0  0  0
    8.1251  -14.2258   27.8392 C   0  0  0  0  0  0  0  0  0  0  0  0
    8.6795  -13.6629   28.9757 O   0  0  0  0  0  0  0  0  0  0  0  0
    7.9683  -15.4908   27.8620 O   0  0  0  0  0  0  0  0  0  0  0  0
  2  1  1  6
  3  4  1  0
  3  2  1  0
  4  5  2  0
  5  6  1  0
  7  6  1  0
  8  7  2  0
  8  4  1  0
  9  2  1  0
  9 10  2  0
 11  9  1  0
 12 11  1  0
 12 15  1  0
 12 13  1  1
 14 13  1  0
 15 21  1  0
 16 15  2  0
 18 20  1  0
 18 17  1  6
 19 18  1  0
 20 22  1  0
 20 21  1  6
 22 24  2  0
 22 23  1  0
M  END
$$$$
