FYL.pdb
     RDKit          3D

 32 33  0  0  1  0  0  0  0  0999 V2000
   13.1213  -11.8327  -12.8255 N   0  0  0  0  0  0  0  0  0  0  0  0
   13.5357  -10.5111  -12.4731 C   0  0  1  0  0  0  0  0  0  0  0  0
   14.1281  -10.5497  -11.0649 C   0  0  0  0  0  0  0  0  0  0  0  0
   13.0409  -10.1796  -10.1171 C   0  0  0  0  0  0  0  0  0  0  0  0
   12.6919   -8.8695   -9.8630 C   0  0  0  0  0  0  0  0  0  0  0  0
   11.6918   -8.5483   -8.9904 C   0  0  0  0  0  0  0  0  0  0  0  0
   10.9751   -9.5165   -8.3148 C   0  0  0  0  0  0  0  0  0  0  0  0
   11.3142  -10.8271   -8.5601 C   0  0  0  0  0  0  0  0  0  0  0  0
   12.3202  -11.1600   -9.4374 C   0  0  0  0  0  0  0  0  0  0  0  0
   14.5638   -9.9443  -13.3605 C   0  0  0  0  0  0  0  0  0  0  0  0
   15.3894  -10.7212  -13.8839 O   0  0  0  0  0  0  0  0  0  0  0  0
   18.3976   -4.7697  -19.4257 O   0  0  0  0  0  0  0  0  0  0  0  0
   17.5423   -5.3342  -18.4557 C   0  0  0  0  0  0  0  0  0  0  0  0
   17.4668   -4.7336  -17.2314 C   0  0  0  0  0  0  0  0  0  0  0  0
   16.6317   -5.2654  -16.2504 C   0  0  0  0  0  0  0  0  0  0  0  0
   15.8734   -6.3879  -16.4794 C   0  0  0  0  0  0  0  0  0  0  0  0
   14.9941   -6.9361  -15.4306 C   0  0  0  0  0  0  0  0  0  0  0  0
   15.6332   -8.0564  -14.6411 C   0  0  2  0  0  0  0  0  0  0  0  0
   14.6848   -8.5602  -13.6671 N   0  0  0  0  0  0  0  0  0  0  0  0
   16.9292   -7.7071  -14.0378 C   0  0  0  0  0  0  0  0  0  0  0  0
   16.9030   -7.0678  -12.9316 O   0  0  0  0  0  0  0  0  0  0  0  0
   15.9760   -6.9634  -17.7220 C   0  0  0  0  0  0  0  0  0  0  0  0
   16.8017   -6.4486  -18.7112 C   0  0  0  0  0  0  0  0  0  0  0  0
   22.1386  -10.2882  -13.4724 C   0  0  0  0  0  0  0  0  0  0  0  0
   21.6638   -8.7987  -13.4175 C   0  0  1  0  0  0  0  0  0  0  0  0
   22.6348   -8.0988  -14.3527 C   0  0  0  0  0  0  0  0  0  0  0  0
   20.2601   -8.8373  -13.8698 C   0  0  0  0  0  0  0  0  0  0  0  0
   19.4654   -7.5785  -13.9306 C   0  0  2  0  0  0  0  0  0  0  0  0
   18.1810   -8.0150  -14.5684 N   0  0  0  0  0  0  0  0  0  0  0  0
   20.0054   -6.4561  -14.6663 C   0  0  0  0  0  0  0  0  0  0  0  0
   20.7051   -5.4345  -14.0772 O   0  0  0  0  0  0  0  0  0  0  0  0
   19.8400   -6.3700  -15.9305 O   0  0  0  0  0  0  0  0  0  0  0  0
  2  1  1  6
  2  3  1  0
  3  4  1  0
  4  5  2  0
  5  6  1  0
  7  6  2  0
  8  7  1  0
  9  8  2  0
  9  4  1  0
 10  2  1  0
 10 11  2  0
 13 12  1  0
 13 23  2  0
 14 13  1  0
 15 14  2  0
 15 16  1  0
 16 22  2  0
 17 16  1  0
 18 19  1  0
 18 17  1  1
 19 10  1  0
 20 18  1  0
 21 20  2  0
 22 23  1  0
 25 27  1  0
 25 24  1  6
 26 25  1  0
 28 27  1  6
 28 30  1  0
 28 29  1  0
 29 20  1  0
 30 31  1  0
 32 30  2  0
M  END
$$$$
