FYL.pdb
     RDKit          3D

 32 33  0  0  1  0  0  0  0  0999 V2000
   24.2454  -16.7705  -19.9079 N   0  0  0  0  0  0  0  0  0  0  0  0
   24.9437  -17.7369  -19.1199 C   0  0  1  0  0  0  0  0  0  0  0  0
   26.2952  -17.1474  -18.7180 C   0  0  0  0  0  0  0  0  0  0  0  0
   27.1672  -17.1769  -19.9246 C   0  0  0  0  0  0  0  0  0  0  0  0
   27.5046  -16.0371  -20.6246 C   0  0  0  0  0  0  0  0  0  0  0  0
   28.3059  -16.0828  -21.7294 C   0  0  0  0  0  0  0  0  0  0  0  0
   28.8223  -17.2716  -22.2067 C   0  0  0  0  0  0  0  0  0  0  0  0
   28.4927  -18.4152  -21.5167 C   0  0  0  0  0  0  0  0  0  0  0  0
   27.6863  -18.3789  -20.4028 C   0  0  0  0  0  0  0  0  0  0  0  0
   24.2509  -18.1181  -17.8787 C   0  0  0  0  0  0  0  0  0  0  0  0
   23.8502  -17.2105  -17.1204 O   0  0  0  0  0  0  0  0  0  0  0  0
   18.5247  -21.6050  -12.3144 O   0  0  0  0  0  0  0  0  0  0  0  0
   19.3714  -21.3221  -13.4072 C   0  0  0  0  0  0  0  0  0  0  0  0
   19.3421  -20.0648  -13.9399 C   0  0  0  0  0  0  0  0  0  0  0  0
   20.1657  -19.7518  -15.0199 C   0  0  0  0  0  0  0  0  0  0  0  0
   21.0159  -20.6795  -15.5714 C   0  0  0  0  0  0  0  0  0  0  0  0
   21.8814  -20.3307  -16.7129 C   0  0  0  0  0  0  0  0  0  0  0  0
   23.2316  -19.7925  -16.2960 C   0  0  2  0  0  0  0  0  0  0  0  0
   24.0029  -19.4605  -17.4779 N   0  0  0  0  0  0  0  0  0  0  0  0
   23.9691  -20.6647  -15.3681 C   0  0  0  0  0  0  0  0  0  0  0  0
   24.3555  -21.7973  -15.8164 O   0  0  0  0  0  0  0  0  0  0  0  0
   21.0172  -21.9321  -15.0087 C   0  0  0  0  0  0  0  0  0  0  0  0
   20.2046  -22.2624  -13.9336 C   0  0  0  0  0  0  0  0  0  0  0  0
   28.2246  -19.3195  -12.8546 C   0  0  0  0  0  0  0  0  0  0  0  0
   27.1079  -20.0254  -13.6925 C   0  0  1  0  0  0  0  0  0  0  0  0
   27.8864  -21.0501  -14.4994 C   0  0  0  0  0  0  0  0  0  0  0  0
   26.1800  -20.5780  -12.6874 C   0  0  0  0  0  0  0  0  0  0  0  0
   24.9700  -21.3276  -13.1278 C   0  0  2  0  0  0  0  0  0  0  0  0
   24.2830  -20.3607  -14.0443 N   0  0  0  0  0  0  0  0  0  0  0  0
   24.0332  -21.7784  -12.1218 C   0  0  0  0  0  0  0  0  0  0  0  0
   23.1798  -20.9373  -11.4551 O   0  0  0  0  0  0  0  0  0  0  0  0
   23.9688  -23.0144  -11.8038 O   0  0  0  0  0  0  0  0  0  0  0  0
  2  1  1  1
  2  3  1  0
  3  4  1  0
  4  5  2  0
  5  6  1  0
  7  6  2  0
  8  7  1  0
  9  8  2  0
  9  4  1  0
 10  2  1  0
 10 11  2  0
 13 12  1  0
 13 23  2  0
 14 13  1  0
 15 14  2  0
 15 16  1  0
 16 22  2  0
 17 16  1  0
 18 19  1  0
 18 17  1  6
 19 10  1  0
 20 18  1  0
 21 20  2  0
 22 23  1  0
 25 27  1  0
 25 24  1  1
 26 25  1  0
 28 27  1  1
 28 30  1  0
 28 29  1  0
 29 20  1  0
 30 31  1  0
 32 30  2  0
M  END
$$$$
