FYL.pdb
     RDKit          3D

 32 33  0  0  1  0  0  0  0  0999 V2000
   27.7621  -23.4674  -18.6455 N   0  0  0  0  0  0  0  0  0  0  0  0
   27.3417  -22.1988  -18.1388 C   0  0  1  0  0  0  0  0  0  0  0  0
   26.2972  -21.6196  -19.0921 C   0  0  0  0  0  0  0  0  0  0  0  0
   27.0263  -21.0823  -20.2740 C   0  0  0  0  0  0  0  0  0  0  0  0
   27.1663  -21.7949  -21.4467 C   0  0  0  0  0  0  0  0  0  0  0  0
   27.8385  -21.2863  -22.5210 C   0  0  0  0  0  0  0  0  0  0  0  0
   28.4148  -20.0315  -22.4930 C   0  0  0  0  0  0  0  0  0  0  0  0
   28.2818  -19.3111  -21.3285 C   0  0  0  0  0  0  0  0  0  0  0  0
   27.6064  -19.8153  -20.2412 C   0  0  0  0  0  0  0  0  0  0  0  0
   26.7254  -22.2564  -16.8036 C   0  0  0  0  0  0  0  0  0  0  0  0
   25.9703  -23.2153  -16.5399 O   0  0  0  0  0  0  0  0  0  0  0  0
   24.6663  -20.5944   -8.3183 O   0  0  0  0  0  0  0  0  0  0  0  0
   25.2658  -20.6125   -9.5956 C   0  0  0  0  0  0  0  0  0  0  0  0
   25.0396  -19.5564  -10.4315 C   0  0  0  0  0  0  0  0  0  0  0  0
   25.6166  -19.5426  -11.7002 C   0  0  0  0  0  0  0  0  0  0  0  0
   26.4150  -20.5701  -12.1409 C   0  0  0  0  0  0  0  0  0  0  0  0
   27.0185  -20.5384  -13.4857 C   0  0  0  0  0  0  0  0  0  0  0  0
   26.2426  -21.3389  -14.5074 C   0  0  2  0  0  0  0  0  0  0  0  0
   26.9310  -21.2874  -15.7824 N   0  0  0  0  0  0  0  0  0  0  0  0
   24.8237  -20.9643  -14.6172 C   0  0  0  0  0  0  0  0  0  0  0  0
   24.5556  -19.8683  -15.2170 O   0  0  0  0  0  0  0  0  0  0  0  0
   26.6190  -21.6140  -11.2723 C   0  0  0  0  0  0  0  0  0  0  0  0
   26.0533  -21.6456  -10.0057 C   0  0  0  0  0  0  0  0  0  0  0  0
   21.2133  -23.4627  -16.9987 C   0  0  0  0  0  0  0  0  0  0  0  0
   21.9968  -22.2229  -16.4542 C   0  0  1  0  0  0  0  0  0  0  0  0
   21.4802  -21.0880  -17.3216 C   0  0  0  0  0  0  0  0  0  0  0  0
   21.6333  -22.1491  -15.0263 C   0  0  0  0  0  0  0  0  0  0  0  0
   22.3396  -21.1916  -14.1296 C   0  0  2  0  0  0  0  0  0  0  0  0
   23.7487  -21.7028  -14.1248 N   0  0  0  0  0  0  0  0  0  0  0  0
   21.8778  -21.0544  -12.7655 C   0  0  0  0  0  0  0  0  0  0  0  0
   22.4269  -21.7377  -11.7111 O   0  0  0  0  0  0  0  0  0  0  0  0
   20.9075  -20.2714  -12.4855 O   0  0  0  0  0  0  0  0  0  0  0  0
  2  1  1  6
  2  3  1  0
  3  4  1  0
  4  5  2  0
  5  6  1  0
  7  6  2  0
  8  7  1  0
  9  8  2  0
  9  4  1  0
 10  2  1  0
 10 11  2  0
 13 12  1  0
 13 23  2  0
 14 13  1  0
 15 14  2  0
 15 16  1  0
 16 22  2  0
 17 16  1  0
 18 19  1  0
 18 17  1  1
 19 10  1  0
 20 18  1  0
 21 20  2  0
 22 23  1  0
 25 27  1  0
 25 24  1  6
 26 25  1  0
 28 27  1  6
 28 30  1  0
 28 29  1  0
 29 20  1  0
 30 31  1  0
 32 30  2  0
M  END
$$$$
