FYL.pdb
     RDKit          3D

 32 33  0  0  1  0  0  0  0  0999 V2000
   26.3255  -19.3488  -15.9104 N   0  0  0  0  0  0  0  0  0  0  0  0
   27.2781  -19.5623  -14.8666 C   0  0  1  0  0  0  0  0  0  0  0  0
   28.3175  -18.4435  -14.9246 C   0  0  0  0  0  0  0  0  0  0  0  0
   28.9977  -18.5394  -16.2457 C   0  0  0  0  0  0  0  0  0  0  0  0
   29.6262  -19.6898  -16.6751 C   0  0  0  0  0  0  0  0  0  0  0  0
   30.2453  -19.7599  -17.8902 C   0  0  0  0  0  0  0  0  0  0  0  0
   30.2763  -18.6839  -18.7557 C   0  0  0  0  0  0  0  0  0  0  0  0
   29.6527  -17.5309  -18.3383 C   0  0  0  0  0  0  0  0  0  0  0  0
   29.0266  -17.4510  -17.1159 C   0  0  0  0  0  0  0  0  0  0  0  0
   26.7025  -19.5494  -13.5123 C   0  0  0  0  0  0  0  0  0  0  0  0
   26.3626  -18.4521  -13.0227 O   0  0  0  0  0  0  0  0  0  0  0  0
   20.4183  -19.4970  -14.6190 O   0  0  0  0  0  0  0  0  0  0  0  0
   21.4544  -19.9885  -13.7969 C   0  0  0  0  0  0  0  0  0  0  0  0
   22.3659  -20.8441  -14.3466 C   0  0  0  0  0  0  0  0  0  0  0  0
   23.4020  -21.3483  -13.5625 C   0  0  0  0  0  0  0  0  0  0  0  0
   23.5363  -21.0072  -12.2384 C   0  0  0  0  0  0  0  0  0  0  0  0
   24.6395  -21.5489  -11.4238 C   0  0  0  0  0  0  0  0  0  0  0  0
   25.8647  -20.6627  -11.4131 C   0  0  2  0  0  0  0  0  0  0  0  0
   26.5039  -20.7100  -12.7136 N   0  0  0  0  0  0  0  0  0  0  0  0
   26.8022  -20.9417  -10.3136 C   0  0  0  0  0  0  0  0  0  0  0  0
   27.5403  -21.9787  -10.4269 O   0  0  0  0  0  0  0  0  0  0  0  0
   22.6009  -20.1448  -11.7216 C   0  0  0  0  0  0  0  0  0  0  0  0
   21.5626  -19.6327  -12.4864 C   0  0  0  0  0  0  0  0  0  0  0  0
   29.8306  -18.8619   -5.6906 C   0  0  0  0  0  0  0  0  0  0  0  0
   28.8329  -20.0459   -5.9147 C   0  0  1  0  0  0  0  0  0  0  0  0
   27.8412  -19.8731   -4.7772 C   0  0  0  0  0  0  0  0  0  0  0  0
   28.2920  -19.8269   -7.2696 C   0  0  0  0  0  0  0  0  0  0  0  0
   27.2743  -20.7643   -7.8225 C   0  0  2  0  0  0  0  0  0  0  0  0
   26.9547  -20.1715   -9.1617 N   0  0  0  0  0  0  0  0  0  0  0  0
   26.0462  -20.9635   -7.0843 C   0  0  0  0  0  0  0  0  0  0  0  0
   24.9313  -20.1829   -7.2504 O   0  0  0  0  0  0  0  0  0  0  0  0
   25.9547  -21.8999   -6.2193 O   0  0  0  0  0  0  0  0  0  0  0  0
  2  1  1  6
  2  3  1  0
  3  4  1  0
  4  5  2  0
  5  6  1  0
  7  6  2  0
  8  7  1  0
  9  8  2  0
  9  4  1  0
 10  2  1  0
 10 11  2  0
 13 12  1  0
 13 23  2  0
 14 13  1  0
 15 14  2  0
 15 16  1  0
 16 22  2  0
 17 16  1  0
 18 19  1  0
 18 17  1  6
 19 10  1  0
 20 18  1  0
 21 20  2  0
 22 23  1  0
 25 27  1  0
 25 24  1  1
 26 25  1  0
 28 27  1  1
 28 30  1  0
 28 29  1  0
 29 20  1  0
 30 31  1  0
 32 30  2  0
M  END
$$$$
