FYL.pdb
     RDKit          3D

 32 33  0  0  1  0  0  0  0  0999 V2000
   27.5716  -19.2383  -19.0558 N   0  0  0  0  0  0  0  0  0  0  0  0
   27.0862  -18.4556  -17.9629 C   0  0  1  0  0  0  0  0  0  0  0  0
   25.9122  -17.6112  -18.4571 C   0  0  0  0  0  0  0  0  0  0  0  0
   26.4821  -16.4029  -19.1149 C   0  0  0  0  0  0  0  0  0  0  0  0
   26.8539  -15.2785  -18.4076 C   0  0  0  0  0  0  0  0  0  0  0  0
   27.3751  -14.1791  -19.0275 C   0  0  0  0  0  0  0  0  0  0  0  0
   27.5588  -14.1321  -20.3956 C   0  0  0  0  0  0  0  0  0  0  0  0
   27.1916  -15.2479  -21.1118 C   0  0  0  0  0  0  0  0  0  0  0  0
   26.6657  -16.3599  -20.4959 C   0  0  0  0  0  0  0  0  0  0  0  0
   26.6001  -19.2480  -16.8220 C   0  0  0  0  0  0  0  0  0  0  0  0
   26.0258  -20.3321  -17.0547 O   0  0  0  0  0  0  0  0  0  0  0  0
   24.8180  -22.0397   -8.5706 O   0  0  0  0  0  0  0  0  0  0  0  0
   25.2956  -21.3106   -9.6802 C   0  0  0  0  0  0  0  0  0  0  0  0
   26.2344  -21.8941  -10.4823 C   0  0  0  0  0  0  0  0  0  0  0  0
   26.7275  -21.2015  -11.5867 C   0  0  0  0  0  0  0  0  0  0  0  0
   26.2935  -19.9355  -11.8970 C   0  0  0  0  0  0  0  0  0  0  0  0
   26.8250  -19.2178  -13.0701 C   0  0  0  0  0  0  0  0  0  0  0  0
   26.1689  -19.6286  -14.3691 C   0  0  2  0  0  0  0  0  0  0  0  0
   26.7396  -18.8625  -15.4597 N   0  0  0  0  0  0  0  0  0  0  0  0
   24.6986  -19.5702  -14.3480 C   0  0  0  0  0  0  0  0  0  0  0  0
   24.1629  -18.4122  -14.2784 O   0  0  0  0  0  0  0  0  0  0  0  0
   25.3494  -19.3823  -11.0673 C   0  0  0  0  0  0  0  0  0  0  0  0
   24.8467  -20.0561   -9.9635 C   0  0  0  0  0  0  0  0  0  0  0  0
   21.4989  -21.3564  -17.9454 C   0  0  0  0  0  0  0  0  0  0  0  0
   22.0417  -20.3912  -16.8404 C   0  0  1  0  0  0  0  0  0  0  0  0
   21.1612  -19.1639  -17.0002 C   0  0  0  0  0  0  0  0  0  0  0  0
   21.8725  -21.1361  -15.5782 C   0  0  0  0  0  0  0  0  0  0  0  0
   22.3513  -20.5440  -14.2975 C   0  0  2  0  0  0  0  0  0  0  0  0
   23.8417  -20.6687  -14.3989 N   0  0  0  0  0  0  0  0  0  0  0  0
   21.9071  -21.1361  -13.0546 C   0  0  0  0  0  0  0  0  0  0  0  0
   20.8400  -20.6649  -12.3338 O   0  0  0  0  0  0  0  0  0  0  0  0
   22.5153  -22.1477  -12.5649 O   0  0  0  0  0  0  0  0  0  0  0  0
  2  1  1  6
  2  3  1  0
  3  4  1  0
  4  5  2  0
  5  6  1  0
  7  6  2  0
  8  7  1  0
  9  8  2  0
  9  4  1  0
 10  2  1  0
 10 11  2  0
 13 12  1  0
 13 23  2  0
 14 13  1  0
 15 14  2  0
 15 16  1  0
 16 22  2  0
 17 16  1  0
 18 19  1  0
 18 17  1  1
 19 10  1  0
 20 18  1  0
 21 20  2  0
 22 23  1  0
 25 27  1  0
 25 24  1  6
 26 25  1  0
 28 27  1  6
 28 30  1  0
 28 29  1  0
 29 20  1  0
 30 31  1  0
 32 30  2  0
M  END
$$$$
