FYL.pdb
     RDKit          3D

 32 33  0  0  1  0  0  0  0  0999 V2000
   28.1682  -21.8640  -17.1483 N   0  0  0  0  0  0  0  0  0  0  0  0
   27.6562  -20.7539  -16.4079 C   0  0  1  0  0  0  0  0  0  0  0  0
   26.8357  -19.8786  -17.3545 C   0  0  0  0  0  0  0  0  0  0  0  0
   27.7777  -18.9263  -18.0048 C   0  0  0  0  0  0  0  0  0  0  0  0
   28.2526  -19.1108  -19.2867 C   0  0  0  0  0  0  0  0  0  0  0  0
   29.1163  -18.2269  -19.8675 C   0  0  0  0  0  0  0  0  0  0  0  0
   29.5617  -17.1002  -19.2043 C   0  0  0  0  0  0  0  0  0  0  0  0
   29.0949  -16.9054  -17.9249 C   0  0  0  0  0  0  0  0  0  0  0  0
   28.2247  -17.7905  -17.3317 C   0  0  0  0  0  0  0  0  0  0  0  0
   26.7746  -21.1287  -15.2906 C   0  0  0  0  0  0  0  0  0  0  0  0
   25.9167  -22.0152  -15.4837 O   0  0  0  0  0  0  0  0  0  0  0  0
   22.7633  -21.2554   -7.3435 O   0  0  0  0  0  0  0  0  0  0  0  0
   23.6744  -21.0474   -8.4007 C   0  0  0  0  0  0  0  0  0  0  0  0
   23.4719  -19.9805   -9.2289 C   0  0  0  0  0  0  0  0  0  0  0  0
   24.3531  -19.7461  -10.2831 C   0  0  0  0  0  0  0  0  0  0  0  0
   25.4315  -20.5645  -10.5175 C   0  0  0  0  0  0  0  0  0  0  0  0
   26.3545  -20.3009  -11.6366 C   0  0  0  0  0  0  0  0  0  0  0  0
   25.8680  -20.8577  -12.9556 C   0  0  2  0  0  0  0  0  0  0  0  0
   26.8313  -20.5467  -13.9936 N   0  0  0  0  0  0  0  0  0  0  0  0
   24.5003  -20.4507  -13.3154 C   0  0  0  0  0  0  0  0  0  0  0  0
   24.3515  -19.2811  -13.8082 O   0  0  0  0  0  0  0  0  0  0  0  0
   25.6019  -21.6265   -9.6637 C   0  0  0  0  0  0  0  0  0  0  0  0
   24.7354  -21.8759   -8.6091 C   0  0  0  0  0  0  0  0  0  0  0  0
   21.7356  -22.2263  -17.0504 C   0  0  0  0  0  0  0  0  0  0  0  0
   21.5341  -22.3194  -15.5019 C   0  0  1  0  0  0  0  0  0  0  0  0
   22.4594  -23.4576  -15.1076 C   0  0  0  0  0  0  0  0  0  0  0  0
   21.9126  -20.9865  -14.9953 C   0  0  0  0  0  0  0  0  0  0  0  0
   21.9844  -20.7439  -13.5270 C   0  0  2  0  0  0  0  0  0  0  0  0
   23.3552  -21.2316  -13.1661 N   0  0  0  0  0  0  0  0  0  0  0  0
   21.0098  -21.3865  -12.6727 C   0  0  0  0  0  0  0  0  0  0  0  0
   19.7280  -20.9267  -12.5120 O   0  0  0  0  0  0  0  0  0  0  0  0
   21.3191  -22.4355  -12.0116 O   0  0  0  0  0  0  0  0  0  0  0  0
  2  1  1  6
  2  3  1  0
  3  4  1  0
  4  5  2  0
  5  6  1  0
  7  6  2  0
  8  7  1  0
  9  8  2  0
  9  4  1  0
 10  2  1  0
 10 11  2  0
 13 12  1  0
 13 23  2  0
 14 13  1  0
 15 14  2  0
 15 16  1  0
 16 22  2  0
 17 16  1  0
 18 19  1  0
 18 17  1  1
 19 10  1  0
 20 18  1  0
 21 20  2  0
 22 23  1  0
 25 27  1  0
 25 24  1  6
 26 25  1  0
 28 27  1  6
 28 30  1  0
 28 29  1  0
 29 20  1  0
 30 31  1  0
 32 30  2  0
M  END
$$$$
