FYL.pdb
     RDKit          3D

 32 33  0  0  1  0  0  0  0  0999 V2000
   28.0023  -23.3745  -17.4455 N   0  0  0  0  0  0  0  0  0  0  0  0
   27.7297  -22.0731  -16.9213 C   0  0  1  0  0  0  0  0  0  0  0  0
   26.9933  -21.2661  -17.9899 C   0  0  0  0  0  0  0  0  0  0  0  0
   27.9673  -20.9831  -19.0802 C   0  0  0  0  0  0  0  0  0  0  0  0
   28.9698  -20.0440  -18.9545 C   0  0  0  0  0  0  0  0  0  0  0  0
   29.8545  -19.7975  -19.9650 C   0  0  0  0  0  0  0  0  0  0  0  0
   29.7946  -20.4741  -21.1676 C   0  0  0  0  0  0  0  0  0  0  0  0
   28.7988  -21.4134  -21.3047 C   0  0  0  0  0  0  0  0  0  0  0  0
   27.9031  -21.6684  -20.2922 C   0  0  0  0  0  0  0  0  0  0  0  0
   26.8830  -22.0725  -15.7176 C   0  0  0  0  0  0  0  0  0  0  0  0
   26.0344  -22.9795  -15.5889 O   0  0  0  0  0  0  0  0  0  0  0  0
   23.7886  -20.4583   -7.5513 O   0  0  0  0  0  0  0  0  0  0  0  0
   24.5255  -20.4387   -8.7545 C   0  0  0  0  0  0  0  0  0  0  0  0
   25.5223  -21.3579   -8.9178 C   0  0  0  0  0  0  0  0  0  0  0  0
   26.2696  -21.3662  -10.0942 C   0  0  0  0  0  0  0  0  0  0  0  0
   26.0319  -20.4680  -11.1063 C   0  0  0  0  0  0  0  0  0  0  0  0
   26.8314  -20.4919  -12.3449 C   0  0  0  0  0  0  0  0  0  0  0  0
   26.1136  -21.1419  -13.5063 C   0  0  2  0  0  0  0  0  0  0  0  0
   26.9638  -21.1023  -14.6801 N   0  0  0  0  0  0  0  0  0  0  0  0
   24.7698  -20.6007  -13.7650 C   0  0  0  0  0  0  0  0  0  0  0  0
   24.7017  -19.4466  -14.3092 O   0  0  0  0  0  0  0  0  0  0  0  0
   25.0219  -19.5595  -10.9054 C   0  0  0  0  0  0  0  0  0  0  0  0
   24.2673  -19.5357   -9.7413 C   0  0  0  0  0  0  0  0  0  0  0  0
   20.5679  -22.2994  -16.1096 C   0  0  0  0  0  0  0  0  0  0  0  0
   22.0601  -21.9463  -15.8001 C   0  0  1  0  0  0  0  0  0  0  0  0
   22.6961  -21.9240  -17.1793 C   0  0  0  0  0  0  0  0  0  0  0  0
   21.9997  -20.6460  -15.1057 C   0  0  0  0  0  0  0  0  0  0  0  0
   22.2315  -20.5787  -13.6355 C   0  0  2  0  0  0  0  0  0  0  0  0
   23.5666  -21.2395  -13.4687 N   0  0  0  0  0  0  0  0  0  0  0  0
   21.2732  -21.2119  -12.7559 C   0  0  0  0  0  0  0  0  0  0  0  0
   20.0313  -20.6927  -12.4947 O   0  0  0  0  0  0  0  0  0  0  0  0
   21.5603  -22.3094  -12.1675 O   0  0  0  0  0  0  0  0  0  0  0  0
  2  1  1  6
  2  3  1  0
  3  4  1  0
  4  5  2  0
  5  6  1  0
  7  6  2  0
  8  7  1  0
  9  8  2  0
  9  4  1  0
 10  2  1  0
 10 11  2  0
 13 12  1  0
 13 23  2  0
 14 13  1  0
 15 14  2  0
 15 16  1  0
 16 22  2  0
 17 16  1  0
 18 19  1  0
 18 17  1  1
 19 10  1  0
 20 18  1  0
 21 20  2  0
 22 23  1  0
 25 27  1  0
 25 24  1  6
 26 25  1  0
 28 27  1  6
 28 30  1  0
 28 29  1  0
 29 20  1  0
 30 31  1  0
 32 30  2  0
M  END
$$$$
