FYL.pdb
     RDKit          3D

 32 33  0  0  1  0  0  0  0  0999 V2000
   19.8765  -20.2908  -12.2278 N   0  0  0  0  0  0  0  0  0  0  0  0
   20.8915  -20.5418  -13.2021 C   0  0  1  0  0  0  0  0  0  0  0  0
   20.6303  -19.6476  -14.4136 C   0  0  0  0  0  0  0  0  0  0  0  0
   19.4908  -20.2424  -15.1652 C   0  0  0  0  0  0  0  0  0  0  0  0
   19.6061  -21.4152  -15.8823 C   0  0  0  0  0  0  0  0  0  0  0  0
   18.5501  -21.9465  -16.5659 C   0  0  0  0  0  0  0  0  0  0  0  0
   17.3094  -21.3396  -16.5772 C   0  0  0  0  0  0  0  0  0  0  0  0
   17.1823  -20.1692  -15.8655 C   0  0  0  0  0  0  0  0  0  0  0  0
   18.2405  -19.6266  -15.1739 C   0  0  0  0  0  0  0  0  0  0  0  0
   22.2581  -20.2544  -12.7378 C   0  0  0  0  0  0  0  0  0  0  0  0
   22.5172  -19.1014  -12.3345 O   0  0  0  0  0  0  0  0  0  0  0  0
   28.5100  -19.6781   -7.2263 O   0  0  0  0  0  0  0  0  0  0  0  0
   27.6621  -20.2404   -8.2040 C   0  0  0  0  0  0  0  0  0  0  0  0
   26.3313  -19.9366   -8.1584 C   0  0  0  0  0  0  0  0  0  0  0  0
   25.4660  -20.4751   -9.1091 C   0  0  0  0  0  0  0  0  0  0  0  0
   25.9153  -21.3116  -10.1020 C   0  0  0  0  0  0  0  0  0  0  0  0
   24.9860  -21.8712  -11.1005 C   0  0  0  0  0  0  0  0  0  0  0  0
   24.6347  -20.8962  -12.2016 C   0  0  2  0  0  0  0  0  0  0  0  0
   23.3151  -21.2064  -12.7159 N   0  0  0  0  0  0  0  0  0  0  0  0
   25.6458  -20.7975  -13.2662 C   0  0  0  0  0  0  0  0  0  0  0  0
   25.6997  -21.7568  -14.1088 O   0  0  0  0  0  0  0  0  0  0  0  0
   27.2592  -21.5936  -10.1151 C   0  0  0  0  0  0  0  0  0  0  0  0
   28.1360  -21.0672   -9.1774 C   0  0  0  0  0  0  0  0  0  0  0  0
   28.7369  -17.1628  -16.3702 C   0  0  0  0  0  0  0  0  0  0  0  0
   27.7372  -17.2434  -15.1696 C   0  0  1  0  0  0  0  0  0  0  0  0
   26.3967  -17.4366  -15.8572 C   0  0  0  0  0  0  0  0  0  0  0  0
   28.2108  -18.3860  -14.3654 C   0  0  0  0  0  0  0  0  0  0  0  0
   27.5727  -19.7226  -14.5279 C   0  0  2  0  0  0  0  0  0  0  0  0
   26.5475  -19.7477  -13.4346 N   0  0  0  0  0  0  0  0  0  0  0  0
   28.4051  -20.9015  -14.4278 C   0  0  0  0  0  0  0  0  0  0  0  0
   28.7847  -21.4575  -13.2333 O   0  0  0  0  0  0  0  0  0  0  0  0
   28.8349  -21.4827  -15.4817 O   0  0  0  0  0  0  0  0  0  0  0  0
  2  1  1  1
  2  3  1  0
  3  4  1  0
  4  5  2  0
  5  6  1  0
  7  6  2  0
  8  7  1  0
  9  8  2  0
  9  4  1  0
 10  2  1  0
 10 11  2  0
 13 12  1  0
 13 23  2  0
 14 13  1  0
 15 14  2  0
 15 16  1  0
 16 22  2  0
 17 16  1  0
 18 19  1  0
 18 17  1  1
 19 10  1  0
 20 18  1  0
 21 20  2  0
 22 23  1  0
 25 27  1  0
 25 24  1  6
 26 25  1  0
 28 27  1  1
 28 30  1  0
 28 29  1  0
 29 20  1  0
 30 31  1  0
 32 30  2  0
M  END
$$$$
