FYL.pdb
     RDKit          3D

 32 33  0  0  1  0  0  0  0  0999 V2000
   25.6348  -18.3763  -15.8582 N   0  0  0  0  0  0  0  0  0  0  0  0
   26.5683  -18.7320  -14.8361 C   0  0  1  0  0  0  0  0  0  0  0  0
   27.5301  -17.5621  -14.6317 C   0  0  0  0  0  0  0  0  0  0  0  0
   28.4393  -17.5254  -15.8104 C   0  0  0  0  0  0  0  0  0  0  0  0
   28.3320  -16.5716  -16.8011 C   0  0  0  0  0  0  0  0  0  0  0  0
   29.1747  -16.5530  -17.8754 C   0  0  0  0  0  0  0  0  0  0  0  0
   30.1801  -17.4874  -18.0294 C   0  0  0  0  0  0  0  0  0  0  0  0
   30.2970  -18.4440  -17.0475 C   0  0  0  0  0  0  0  0  0  0  0  0
   29.4526  -18.4704  -15.9618 C   0  0  0  0  0  0  0  0  0  0  0  0
   25.9531  -19.0205  -13.5307 C   0  0  0  0  0  0  0  0  0  0  0  0
   25.2452  -18.1388  -13.0009 O   0  0  0  0  0  0  0  0  0  0  0  0
   19.6126  -20.2164  -14.1775 O   0  0  0  0  0  0  0  0  0  0  0  0
   20.8424  -20.5829  -13.5906 C   0  0  0  0  0  0  0  0  0  0  0  0
   20.9837  -20.4373  -12.2400 C   0  0  0  0  0  0  0  0  0  0  0  0
   22.1853  -20.7898  -11.6283 C   0  0  0  0  0  0  0  0  0  0  0  0
   23.2443  -21.2850  -12.3501 C   0  0  0  0  0  0  0  0  0  0  0  0
   24.5080  -21.6542  -11.6863 C   0  0  0  0  0  0  0  0  0  0  0  0
   25.4697  -20.4957  -11.5464 C   0  0  2  0  0  0  0  0  0  0  0  0
   26.1095  -20.2447  -12.8230 N   0  0  0  0  0  0  0  0  0  0  0  0
   26.4392  -20.6448  -10.4494 C   0  0  0  0  0  0  0  0  0  0  0  0
   27.3312  -21.5505  -10.5798 O   0  0  0  0  0  0  0  0  0  0  0  0
   23.0643  -21.4170  -13.7050 C   0  0  0  0  0  0  0  0  0  0  0  0
   21.8756  -21.0714  -14.3318 C   0  0  0  0  0  0  0  0  0  0  0  0
   29.6937  -20.1918   -6.3611 C   0  0  0  0  0  0  0  0  0  0  0  0
   28.4085  -19.3340   -6.1171 C   0  0  1  0  0  0  0  0  0  0  0  0
   28.9684  -18.0343   -5.5651 C   0  0  0  0  0  0  0  0  0  0  0  0
   27.7662  -19.2387   -7.4418 C   0  0  0  0  0  0  0  0  0  0  0  0
   27.0087  -20.4014   -7.9843 C   0  0  2  0  0  0  0  0  0  0  0  0
   26.4685  -19.8823   -9.2827 N   0  0  0  0  0  0  0  0  0  0  0  0
   25.9218  -20.9442   -7.1989 C   0  0  0  0  0  0  0  0  0  0  0  0
   26.0558  -22.0338   -6.3773 O   0  0  0  0  0  0  0  0  0  0  0  0
   24.7595  -20.4151   -7.2481 O   0  0  0  0  0  0  0  0  0  0  0  0
  2  1  1  6
  2  3  1  0
  3  4  1  0
  4  5  2  0
  5  6  1  0
  7  6  2  0
  8  7  1  0
  9  8  2  0
  9  4  1  0
 10  2  1  0
 10 11  2  0
 13 12  1  0
 13 23  2  0
 14 13  1  0
 15 14  2  0
 15 16  1  0
 16 22  2  0
 17 16  1  0
 18 19  1  0
 18 17  1  6
 19 10  1  0
 20 18  1  0
 21 20  2  0
 22 23  1  0
 25 27  1  0
 25 24  1  6
 26 25  1  0
 28 27  1  1
 28 30  1  0
 28 29  1  0
 29 20  1  0
 30 31  1  0
 32 30  2  0
M  END
$$$$
