FYL.pdb
     RDKit          3D

 32 33  0  0  1  0  0  0  0  0999 V2000
   29.6752  -19.7181  -12.8035 N   0  0  0  0  0  0  0  0  0  0  0  0
   28.8112  -20.8551  -12.8610 C   0  0  1  0  0  0  0  0  0  0  0  0
   28.4260  -21.2422  -11.4336 C   0  0  0  0  0  0  0  0  0  0  0  0
   29.6888  -21.5130  -10.6925 C   0  0  0  0  0  0  0  0  0  0  0  0
   29.9260  -21.0212   -9.4257 C   0  0  0  0  0  0  0  0  0  0  0  0
   31.0902  -21.2798   -8.7606 C   0  0  0  0  0  0  0  0  0  0  0  0
   32.0937  -22.0472   -9.3188 C   0  0  0  0  0  0  0  0  0  0  0  0
   31.8686  -22.5433  -10.5821 C   0  0  0  0  0  0  0  0  0  0  0  0
   30.6989  -22.2880  -11.2597 C   0  0  0  0  0  0  0  0  0  0  0  0
   27.5598  -20.6255  -13.6005 C   0  0  0  0  0  0  0  0  0  0  0  0
   26.9647  -19.5400  -13.4366 O   0  0  0  0  0  0  0  0  0  0  0  0
   21.4999  -20.6282  -20.0161 O   0  0  0  0  0  0  0  0  0  0  0  0
   22.6020  -20.9071  -19.1803 C   0  0  0  0  0  0  0  0  0  0  0  0
   22.6673  -22.1338  -18.5834 C   0  0  0  0  0  0  0  0  0  0  0  0
   23.7424  -22.4419  -17.7517 C   0  0  0  0  0  0  0  0  0  0  0  0
   24.7501  -21.5396  -17.5110 C   0  0  0  0  0  0  0  0  0  0  0  0
   25.8809  -21.8829  -16.6294 C   0  0  0  0  0  0  0  0  0  0  0  0
   25.7690  -21.2735  -15.2500 C   0  0  2  0  0  0  0  0  0  0  0  0
   26.9744  -21.5618  -14.4976 N   0  0  0  0  0  0  0  0  0  0  0  0
   24.5465  -21.6483  -14.5216 C   0  0  0  0  0  0  0  0  0  0  0  0
   24.5275  -22.8008  -13.9701 O   0  0  0  0  0  0  0  0  0  0  0  0
   24.6494  -20.3173  -18.1287 C   0  0  0  0  0  0  0  0  0  0  0  0
   23.5870  -19.9923  -18.9599 C   0  0  0  0  0  0  0  0  0  0  0  0
   22.6828  -19.6293  -10.3166 C   0  0  0  0  0  0  0  0  0  0  0  0
   23.1864  -20.5155  -11.5034 C   0  0  1  0  0  0  0  0  0  0  0  0
   23.4392  -21.8583  -10.8400 C   0  0  0  0  0  0  0  0  0  0  0  0
   22.0847  -20.4872  -12.4841 C   0  0  0  0  0  0  0  0  0  0  0  0
   22.1591  -21.3338  -13.7079 C   0  0  2  0  0  0  0  0  0  0  0  0
   23.4097  -20.8537  -14.3808 N   0  0  0  0  0  0  0  0  0  0  0  0
   21.0621  -21.2837  -14.6497 C   0  0  0  0  0  0  0  0  0  0  0  0
   19.9158  -22.0234  -14.5121 O   0  0  0  0  0  0  0  0  0  0  0  0
   21.1257  -20.5292  -15.6791 O   0  0  0  0  0  0  0  0  0  0  0  0
  2  1  1  1
  2  3  1  0
  3  4  1  0
  4  5  2  0
  5  6  1  0
  7  6  2  0
  8  7  1  0
  9  8  2  0
  9  4  1  0
 10  2  1  0
 10 11  2  0
 13 12  1  0
 13 23  2  0
 14 13  1  0
 15 14  2  0
 15 16  1  0
 16 22  2  0
 17 16  1  0
 18 19  1  0
 18 17  1  6
 19 10  1  0
 20 18  1  0
 21 20  2  0
 22 23  1  0
 25 27  1  0
 25 24  1  1
 26 25  1  0
 28 27  1  1
 28 30  1  0
 28 29  1  0
 29 20  1  0
 30 31  1  0
 32 30  2  0
M  END
$$$$
