FYL.pdb
     RDKit          3D

 32 33  0  0  1  0  0  0  0  0999 V2000
   25.4297  -20.2536  -19.2536 N   0  0  0  0  0  0  0  0  0  0  0  0
   24.6938  -19.3577  -18.4180 C   0  0  1  0  0  0  0  0  0  0  0  0
   23.4963  -18.8325  -19.2091 C   0  0  0  0  0  0  0  0  0  0  0  0
   24.0088  -17.8061  -20.1584 C   0  0  0  0  0  0  0  0  0  0  0  0
   24.1144  -18.0362  -21.5144 C   0  0  0  0  0  0  0  0  0  0  0  0
   24.5867  -17.0831  -22.3706 C   0  0  0  0  0  0  0  0  0  0  0  0
   24.9844  -15.8371  -21.9267 C   0  0  0  0  0  0  0  0  0  0  0  0
   24.8837  -15.5958  -20.5760 C   0  0  0  0  0  0  0  0  0  0  0  0
   24.4091  -16.5500  -19.7060 C   0  0  0  0  0  0  0  0  0  0  0  0
   24.1657  -19.9737  -17.1903 C   0  0  0  0  0  0  0  0  0  0  0  0
   23.7827  -21.1612  -17.2400 O   0  0  0  0  0  0  0  0  0  0  0  0
   21.9110  -21.5762   -8.7617 O   0  0  0  0  0  0  0  0  0  0  0  0
   22.4008  -20.9854   -9.9458 C   0  0  0  0  0  0  0  0  0  0  0  0
   23.5775  -21.4487  -10.4614 C   0  0  0  0  0  0  0  0  0  0  0  0
   24.0895  -20.8872  -11.6298 C   0  0  0  0  0  0  0  0  0  0  0  0
   23.4396  -19.8704  -12.2865 C   0  0  0  0  0  0  0  0  0  0  0  0
   23.9950  -19.2889  -13.5223 C   0  0  0  0  0  0  0  0  0  0  0  0
   23.4336  -19.9124  -14.7803 C   0  0  2  0  0  0  0  0  0  0  0  0
   24.0596  -19.3056  -15.9387 N   0  0  0  0  0  0  0  0  0  0  0  0
   21.9642  -19.8946  -14.8593 C   0  0  0  0  0  0  0  0  0  0  0  0
   21.4037  -18.7579  -15.0229 O   0  0  0  0  0  0  0  0  0  0  0  0
   22.2598  -19.4315  -11.7378 C   0  0  0  0  0  0  0  0  0  0  0  0
   21.7344  -19.9779  -10.5757 C   0  0  0  0  0  0  0  0  0  0  0  0
   19.0452  -22.0820  -18.2972 C   0  0  0  0  0  0  0  0  0  0  0  0
   19.5790  -21.0394  -17.2602 C   0  0  1  0  0  0  0  0  0  0  0  0
   18.8730  -19.7594  -17.6728 C   0  0  0  0  0  0  0  0  0  0  0  0
   19.1894  -21.5863  -15.9466 C   0  0  0  0  0  0  0  0  0  0  0  0
   19.6393  -20.9090  -14.6981 C   0  0  2  0  0  0  0  0  0  0  0  0
   21.1330  -21.0104  -14.7727 N   0  0  0  0  0  0  0  0  0  0  0  0
   19.1889  -21.4337  -13.4274 C   0  0  0  0  0  0  0  0  0  0  0  0
   19.8920  -22.3615  -12.7027 O   0  0  0  0  0  0  0  0  0  0  0  0
   18.0824  -21.0438  -12.9208 O   0  0  0  0  0  0  0  0  0  0  0  0
  2  1  1  6
  2  3  1  0
  3  4  1  0
  4  5  2  0
  5  6  1  0
  7  6  2  0
  8  7  1  0
  9  8  2  0
  9  4  1  0
 10  2  1  0
 10 11  2  0
 13 12  1  0
 13 23  2  0
 14 13  1  0
 15 14  2  0
 15 16  1  0
 16 22  2  0
 17 16  1  0
 18 19  1  0
 18 17  1  1
 19 10  1  0
 20 18  1  0
 21 20  2  0
 22 23  1  0
 25 27  1  0
 25 24  1  6
 26 25  1  0
 28 27  1  6
 28 30  1  0
 28 29  1  0
 29 20  1  0
 30 31  1  0
 32 30  2  0
M  END
$$$$
