FYL.pdb
     RDKit          3D

 32 33  0  0  1  0  0  0  0  0999 V2000
   27.0314  -18.2879   -7.8917 N   0  0  0  0  0  0  0  0  0  0  0  0
   27.0526  -19.6818   -8.2067 C   0  0  1  0  0  0  0  0  0  0  0  0
   26.4923  -20.4554   -7.0138 C   0  0  0  0  0  0  0  0  0  0  0  0
   27.4661  -20.3122   -5.8965 C   0  0  0  0  0  0  0  0  0  0  0  0
   27.5464  -21.2199   -4.8609 C   0  0  0  0  0  0  0  0  0  0  0  0
   28.4460  -21.0728   -3.8442 C   0  0  0  0  0  0  0  0  0  0  0  0
   29.3245  -20.0081   -3.7965 C   0  0  0  0  0  0  0  0  0  0  0  0
   29.2539  -19.0960   -4.8240 C   0  0  0  0  0  0  0  0  0  0  0  0
   28.3509  -19.2361   -5.8524 C   0  0  0  0  0  0  0  0  0  0  0  0
   26.2429  -20.0479   -9.3797 C   0  0  0  0  0  0  0  0  0  0  0  0
   25.1501  -19.4684   -9.5503 O   0  0  0  0  0  0  0  0  0  0  0  0
   26.8065  -20.9893  -18.1658 O   0  0  0  0  0  0  0  0  0  0  0  0
   26.9288  -21.1795  -16.7730 C   0  0  0  0  0  0  0  0  0  0  0  0
   27.6818  -20.2891  -16.0620 C   0  0  0  0  0  0  0  0  0  0  0  0
   27.8233  -20.4477  -14.6846 C   0  0  0  0  0  0  0  0  0  0  0  0
   27.2219  -21.4839  -14.0121 C   0  0  0  0  0  0  0  0  0  0  0  0
   27.3812  -21.6357  -12.5542 C   0  0  0  0  0  0  0  0  0  0  0  0
   26.3464  -20.8731  -11.7579 C   0  0  2  0  0  0  0  0  0  0  0  0
   26.6209  -21.0249  -10.3424 N   0  0  0  0  0  0  0  0  0  0  0  0
   24.9545  -21.2058  -12.1012 C   0  0  0  0  0  0  0  0  0  0  0  0
   24.4368  -22.2176  -11.5172 O   0  0  0  0  0  0  0  0  0  0  0  0
   26.4732  -22.3582  -14.7609 C   0  0  0  0  0  0  0  0  0  0  0  0
   26.3208  -22.2168  -16.1327 C   0  0  0  0  0  0  0  0  0  0  0  0
   20.4371  -18.1634  -11.7342 C   0  0  0  0  0  0  0  0  0  0  0  0
   21.2305  -19.5074  -11.6274 C   0  0  1  0  0  0  0  0  0  0  0  0
   20.1276  -20.5407  -11.4759 C   0  0  0  0  0  0  0  0  0  0  0  0
   22.0065  -19.5834  -12.8798 C   0  0  0  0  0  0  0  0  0  0  0  0
   22.7111  -20.8457  -13.2405 C   0  0  2  0  0  0  0  0  0  0  0  0
   24.1536  -20.5114  -13.0066 N   0  0  0  0  0  0  0  0  0  0  0  0
   22.5538  -21.3653  -14.5814 C   0  0  0  0  0  0  0  0  0  0  0  0
   21.5460  -22.2209  -14.9452 O   0  0  0  0  0  0  0  0  0  0  0  0
   23.3772  -21.0402  -15.5030 O   0  0  0  0  0  0  0  0  0  0  0  0
  2  1  1  1
  2  3  1  0
  3  4  1  0
  4  5  2  0
  5  6  1  0
  7  6  2  0
  8  7  1  0
  9  8  2  0
  9  4  1  0
 10  2  1  0
 10 11  2  0
 13 12  1  0
 13 23  2  0
 14 13  1  0
 15 14  2  0
 15 16  1  0
 16 22  2  0
 17 16  1  0
 18 19  1  0
 18 17  1  6
 19 10  1  0
 20 18  1  0
 21 20  2  0
 22 23  1  0
 25 27  1  0
 25 24  1  6
 26 25  1  0
 28 27  1  6
 28 30  1  0
 28 29  1  0
 29 20  1  0
 30 31  1  0
 32 30  2  0
M  END
$$$$
