HFH.pdb
     RDKit          3D

 32 34  0  0  1  0  0  0  0  0999 V2000
   28.1067  -21.7890  -16.6980 N   0  0  0  0  0  0  0  0  0  0  0  0
   27.8766  -20.7255  -15.7786 C   0  0  1  0  0  0  0  0  0  0  0  0
   27.0705  -19.6500  -16.5031 C   0  0  0  0  0  0  0  0  0  0  0  0
   27.9002  -19.0088  -17.5623 C   0  0  0  0  0  0  0  0  0  0  0  0
   28.8509  -18.0339  -17.4045 C   0  0  0  0  0  0  0  0  0  0  0  0
   29.3283  -17.7739  -18.6393 N   0  0  0  0  0  0  0  0  0  0  0  0
   28.6934  -18.5612  -19.5236 C   0  0  0  0  0  0  0  0  0  0  0  0
   27.7982  -19.3373  -18.8601 N   0  0  0  0  0  0  0  0  0  0  0  0
   27.0917  -21.1292  -14.5899 C   0  0  0  0  0  0  0  0  0  0  0  0
   26.0221  -21.7571  -14.7062 O   0  0  0  0  0  0  0  0  0  0  0  0
   27.5522  -20.8039  -13.3110 N   0  0  0  0  0  0  0  0  0  0  0  0
   26.8277  -21.0463  -12.0693 C   0  0  1  0  0  0  0  0  0  0  0  0
   27.5475  -20.5698  -10.8727 C   0  0  0  0  0  0  0  0  0  0  0  0
   26.6845  -20.6153   -9.6759 C   0  0  0  0  0  0  0  0  0  0  0  0
   26.4951  -19.4816   -8.8811 C   0  0  0  0  0  0  0  0  0  0  0  0
   25.6796  -19.4694   -7.7734 C   0  0  0  0  0  0  0  0  0  0  0  0
   25.0049  -20.6135   -7.4054 C   0  0  0  0  0  0  0  0  0  0  0  0
   25.1590  -21.7468   -8.1527 C   0  0  0  0  0  0  0  0  0  0  0  0
   25.9808  -21.7366   -9.2587 C   0  0  0  0  0  0  0  0  0  0  0  0
   25.5298  -20.3576  -12.2178 C   0  0  0  0  0  0  0  0  0  0  0  0
   25.5187  -19.1464  -12.5385 O   0  0  0  0  0  0  0  0  0  0  0  0
   24.2848  -21.0081  -12.0129 N   0  0  0  0  0  0  0  0  0  0  0  0
   22.9886  -20.3675  -12.2684 C   0  0  1  0  0  0  0  0  0  0  0  0
   22.5727  -20.8117  -13.6280 C   0  0  0  0  0  0  0  0  0  0  0  0
   21.2443  -20.3118  -14.0520 C   0  0  0  0  0  0  0  0  0  0  0  0
   20.4023  -19.5260  -13.2730 C   0  0  0  0  0  0  0  0  0  0  0  0
   19.3137  -19.2859  -13.9995 N   0  0  0  0  0  0  0  0  0  0  0  0
   19.3988  -19.8697  -15.2055 C   0  0  0  0  0  0  0  0  0  0  0  0
   20.5848  -20.4865  -15.2079 N   0  0  0  0  0  0  0  0  0  0  0  0
   22.0432  -20.7121  -11.1802 C   0  0  0  0  0  0  0  0  0  0  0  0
   21.0163  -19.7952  -10.8882 O   0  0  0  0  0  0  0  0  0  0  0  0
   22.1133  -21.7654  -10.5173 O   0  0  0  0  0  0  0  0  0  0  0  0
  2  1  1  6
  3  2  1  0
  3  4  1  0
  4  8  1  0
  4  5  2  0
  5  6  1  0
  7  6  1  0
  8  7  2  0
  9 10  2  0
  9  2  1  0
 11  9  1  0
 12 11  1  0
 12 13  1  1
 13 14  1  0
 14 19  1  0
 14 15  2  0
 15 16  1  0
 16 17  2  0
 18 17  1  0
 19 18  2  0
 20 12  1  0
 21 20  2  0
 22 20  1  0
 23 22  1  0
 23 24  1  6
 24 25  1  0
 25 29  1  0
 26 25  2  0
 26 27  1  0
 27 28  1  0
 29 28  2  0
 30 31  1  0
 30 23  1  0
 32 30  2  0
M  END
$$$$
