HFH.pdb
     RDKit          3D

 32 34  0  0  1  0  0  0  0  0999 V2000
   29.7664  -23.0501  -17.0948 N   0  0  0  0  0  0  0  0  0  0  0  0
   30.1537  -24.3375  -16.6239 C   0  0  1  0  0  0  0  0  0  0  0  0
   29.4808  -25.3803  -17.5133 C   0  0  0  0  0  0  0  0  0  0  0  0
   28.0558  -25.5576  -17.1136 C   0  0  0  0  0  0  0  0  0  0  0  0
   27.4401  -25.0893  -15.9819 C   0  0  0  0  0  0  0  0  0  0  0  0
   26.1565  -25.4976  -16.0585 N   0  0  0  0  0  0  0  0  0  0  0  0
   25.9902  -26.1918  -17.1967 C   0  0  0  0  0  0  0  0  0  0  0  0
   27.1722  -26.2351  -17.8637 N   0  0  0  0  0  0  0  0  0  0  0  0
   31.6123  -24.5811  -16.6968 C   0  0  0  0  0  0  0  0  0  0  0  0
   32.3250  -23.9847  -17.5263 O   0  0  0  0  0  0  0  0  0  0  0  0
   32.2077  -25.4948  -15.8227 N   0  0  0  0  0  0  0  0  0  0  0  0
   33.6382  -25.7606  -15.7303 C   0  0  1  0  0  0  0  0  0  0  0  0
   34.0753  -26.1285  -14.3699 C   0  0  0  0  0  0  0  0  0  0  0  0
   33.9208  -24.9972  -13.4342 C   0  0  0  0  0  0  0  0  0  0  0  0
   35.0309  -24.4228  -12.8091 C   0  0  0  0  0  0  0  0  0  0  0  0
   34.9383  -23.3512  -11.9517 C   0  0  0  0  0  0  0  0  0  0  0  0
   33.7068  -22.7965  -11.6770 C   0  0  0  0  0  0  0  0  0  0  0  0
   32.5925  -23.3246  -12.2654 C   0  0  0  0  0  0  0  0  0  0  0  0
   32.7084  -24.3983  -13.1213 C   0  0  0  0  0  0  0  0  0  0  0  0
   33.9093  -26.8511  -16.6884 C   0  0  0  0  0  0  0  0  0  0  0  0
   32.9763  -27.6240  -17.0081 O   0  0  0  0  0  0  0  0  0  0  0  0
   35.1867  -27.0666  -17.2689 N   0  0  0  0  0  0  0  0  0  0  0  0
   35.4230  -28.0061  -18.3722 C   0  0  1  0  0  0  0  0  0  0  0  0
   34.4957  -27.5977  -19.4641 C   0  0  0  0  0  0  0  0  0  0  0  0
   34.0216  -28.7169  -20.3107 C   0  0  0  0  0  0  0  0  0  0  0  0
   33.2058  -29.7555  -19.8759 C   0  0  0  0  0  0  0  0  0  0  0  0
   33.0035  -30.5536  -20.9212 N   0  0  0  0  0  0  0  0  0  0  0  0
   33.6403  -30.0945  -22.0103 C   0  0  0  0  0  0  0  0  0  0  0  0
   34.2510  -28.9756  -21.6076 N   0  0  0  0  0  0  0  0  0  0  0  0
   36.8603  -27.9936  -18.7336 C   0  0  0  0  0  0  0  0  0  0  0  0
   37.5376  -29.2267  -18.7738 O   0  0  0  0  0  0  0  0  0  0  0  0
   37.4924  -26.9532  -19.0012 O   0  0  0  0  0  0  0  0  0  0  0  0
  2  1  1  6
  3  2  1  0
  3  4  1  0
  4  8  1  0
  4  5  2  0
  5  6  1  0
  7  6  1  0
  8  7  2  0
  9 10  2  0
  9  2  1  0
 11  9  1  0
 12 11  1  0
 12 13  1  1
 13 14  1  0
 14 19  1  0
 14 15  2  0
 15 16  1  0
 16 17  2  0
 18 17  1  0
 19 18  2  0
 20 12  1  0
 21 20  2  0
 22 20  1  0
 23 22  1  0
 23 24  1  6
 24 25  1  0
 25 29  1  0
 26 25  2  0
 26 27  1  0
 27 28  1  0
 29 28  2  0
 30 31  1  0
 30 23  1  0
 32 30  2  0
M  END
$$$$
