HFH.pdb
     RDKit          3D

 32 34  0  0  1  0  0  0  0  0999 V2000
   29.0396  -22.5935  -18.3571 N   0  0  0  0  0  0  0  0  0  0  0  0
   28.1728  -21.5305  -17.9726 C   0  0  1  0  0  0  0  0  0  0  0  0
   27.1466  -21.3403  -19.0871 C   0  0  0  0  0  0  0  0  0  0  0  0
   27.7413  -20.5594  -20.2087 C   0  0  0  0  0  0  0  0  0  0  0  0
   27.7877  -20.9031  -21.5349 C   0  0  0  0  0  0  0  0  0  0  0  0
   28.4197  -19.8893  -22.1618 N   0  0  0  0  0  0  0  0  0  0  0  0
   28.7495  -18.9565  -21.2529 C   0  0  0  0  0  0  0  0  0  0  0  0
   28.3296  -19.3661  -20.0283 N   0  0  0  0  0  0  0  0  0  0  0  0
   27.4173  -21.8024  -16.7287 C   0  0  0  0  0  0  0  0  0  0  0  0
   26.7432  -22.8417  -16.5978 O   0  0  0  0  0  0  0  0  0  0  0  0
   27.4560  -20.8816  -15.6779 N   0  0  0  0  0  0  0  0  0  0  0  0
   26.7976  -21.0492  -14.3880 C   0  0  1  0  0  0  0  0  0  0  0  0
   27.3735  -20.2023  -13.3260 C   0  0  0  0  0  0  0  0  0  0  0  0
   26.6334  -20.3571  -12.0581 C   0  0  0  0  0  0  0  0  0  0  0  0
   25.7304  -19.3813  -11.6275 C   0  0  0  0  0  0  0  0  0  0  0  0
   24.9990  -19.4950  -10.4681 C   0  0  0  0  0  0  0  0  0  0  0  0
   25.1420  -20.6119   -9.6733 C   0  0  0  0  0  0  0  0  0  0  0  0
   26.0134  -21.5929  -10.0541 C   0  0  0  0  0  0  0  0  0  0  0  0
   26.7359  -21.4585  -11.2196 C   0  0  0  0  0  0  0  0  0  0  0  0
   25.3753  -20.7231  -14.6150 C   0  0  0  0  0  0  0  0  0  0  0  0
   25.0831  -19.6465  -15.1856 O   0  0  0  0  0  0  0  0  0  0  0  0
   24.3155  -21.5782  -14.2141 N   0  0  0  0  0  0  0  0  0  0  0  0
   22.8984  -21.2072  -14.3134 C   0  0  1  0  0  0  0  0  0  0  0  0
   22.2110  -22.3756  -14.9308 C   0  0  0  0  0  0  0  0  0  0  0  0
   20.7549  -22.1900  -15.1297 C   0  0  0  0  0  0  0  0  0  0  0  0
   20.0327  -21.0693  -14.7351 C   0  0  0  0  0  0  0  0  0  0  0  0
   18.7668  -21.2801  -15.0865 N   0  0  0  0  0  0  0  0  0  0  0  0
   18.6237  -22.4725  -15.6865 C   0  0  0  0  0  0  0  0  0  0  0  0
   19.8507  -23.0029  -15.6982 N   0  0  0  0  0  0  0  0  0  0  0  0
   22.3937  -20.8187  -12.9751 C   0  0  0  0  0  0  0  0  0  0  0  0
   21.5879  -19.6683  -12.8862 O   0  0  0  0  0  0  0  0  0  0  0  0
   22.6461  -21.4561  -11.9341 O   0  0  0  0  0  0  0  0  0  0  0  0
  2  1  1  6
  3  2  1  0
  3  4  1  0
  4  8  1  0
  4  5  2  0
  5  6  1  0
  7  6  1  0
  8  7  2  0
  9 10  2  0
  9  2  1  0
 11  9  1  0
 12 11  1  0
 12 13  1  1
 13 14  1  0
 14 19  1  0
 14 15  2  0
 15 16  1  0
 16 17  2  0
 18 17  1  0
 19 18  2  0
 20 12  1  0
 21 20  2  0
 22 20  1  0
 23 22  1  0
 23 24  1  1
 24 25  1  0
 25 29  1  0
 26 25  2  0
 26 27  1  0
 27 28  1  0
 29 28  2  0
 30 31  1  0
 30 23  1  0
 32 30  2  0
M  END
$$$$
