HFH.pdb
     RDKit          3D

 32 34  0  0  1  0  0  0  0  0999 V2000
   23.5607  -14.7601  -17.4738 N   0  0  0  0  0  0  0  0  0  0  0  0
   23.0462  -13.4579  -17.7362 C   0  0  1  0  0  0  0  0  0  0  0  0
   21.5221  -13.5445  -17.7047 C   0  0  0  0  0  0  0  0  0  0  0  0
   21.0383  -14.5066  -18.7352 C   0  0  0  0  0  0  0  0  0  0  0  0
   21.2741  -14.4750  -20.0852 C   0  0  0  0  0  0  0  0  0  0  0  0
   20.6352  -15.5455  -20.6013 N   0  0  0  0  0  0  0  0  0  0  0  0
   20.0290  -16.2105  -19.6037 C   0  0  0  0  0  0  0  0  0  0  0  0
   20.2750  -15.5688  -18.4325 N   0  0  0  0  0  0  0  0  0  0  0  0
   23.4446  -12.4492  -16.7282 C   0  0  0  0  0  0  0  0  0  0  0  0
   23.2838  -12.6562  -15.5104 O   0  0  0  0  0  0  0  0  0  0  0  0
   24.0118  -11.2408  -17.1424 N   0  0  0  0  0  0  0  0  0  0  0  0
   24.5005  -10.1931  -16.2542 C   0  0  1  0  0  0  0  0  0  0  0  0
   25.9248   -9.8699  -16.4635 C   0  0  0  0  0  0  0  0  0  0  0  0
   26.7826  -11.0443  -16.2105 C   0  0  0  0  0  0  0  0  0  0  0  0
   27.1591  -11.3947  -14.9112 C   0  0  0  0  0  0  0  0  0  0  0  0
   27.9339  -12.4947  -14.6252 C   0  0  0  0  0  0  0  0  0  0  0  0
   28.3744  -13.3082  -15.6470 C   0  0  0  0  0  0  0  0  0  0  0  0
   28.0311  -13.0053  -16.9342 C   0  0  0  0  0  0  0  0  0  0  0  0
   27.2539  -11.8984  -17.1979 C   0  0  0  0  0  0  0  0  0  0  0  0
   23.6456   -9.0162  -16.5090 C   0  0  0  0  0  0  0  0  0  0  0  0
   23.4668   -8.6405  -17.6909 O   0  0  0  0  0  0  0  0  0  0  0  0
   23.0120   -8.2850  -15.4703 N   0  0  0  0  0  0  0  0  0  0  0  0
   21.9533   -7.2963  -15.7100 C   0  0  1  0  0  0  0  0  0  0  0  0
   20.8592   -8.0282  -16.4072 C   0  0  0  0  0  0  0  0  0  0  0  0
   19.6304   -7.2286  -16.6189 C   0  0  0  0  0  0  0  0  0  0  0  0
   18.6673   -6.9746  -15.6487 C   0  0  0  0  0  0  0  0  0  0  0  0
   17.7269   -6.2278  -16.2218 N   0  0  0  0  0  0  0  0  0  0  0  0
   18.0223   -5.9814  -17.5080 C   0  0  0  0  0  0  0  0  0  0  0  0
   19.1863   -6.6034  -17.7205 N   0  0  0  0  0  0  0  0  0  0  0  0
   21.5659   -6.6650  -14.4262 C   0  0  0  0  0  0  0  0  0  0  0  0
   21.6695   -7.4401  -13.2561 O   0  0  0  0  0  0  0  0  0  0  0  0
   21.1564   -5.4914  -14.3338 O   0  0  0  0  0  0  0  0  0  0  0  0
  2  1  1  1
  3  2  1  0
  3  4  1  0
  4  8  1  0
  4  5  2  0
  5  6  1  0
  7  6  1  0
  8  7  2  0
  9 10  2  0
  9  2  1  0
 11  9  1  0
 12 11  1  0
 12 13  1  6
 13 14  1  0
 14 19  1  0
 14 15  2  0
 15 16  1  0
 16 17  2  0
 18 17  1  0
 19 18  2  0
 20 12  1  0
 21 20  2  0
 22 20  1  0
 23 22  1  0
 23 24  1  1
 24 25  1  0
 25 29  1  0
 26 25  2  0
 26 27  1  0
 27 28  1  0
 29 28  2  0
 30 31  1  0
 30 23  1  0
 32 30  2  0
M  END
$$$$
