HFH.pdb
     RDKit          3D

 32 34  0  0  1  0  0  0  0  0999 V2000
   28.7052  -33.0332  -15.7945 N   0  0  0  0  0  0  0  0  0  0  0  0
   27.8216  -33.8343  -15.0156 C   0  0  1  0  0  0  0  0  0  0  0  0
   28.5577  -35.1222  -14.6540 C   0  0  0  0  0  0  0  0  0  0  0  0
   28.8255  -35.9256  -15.8806 C   0  0  0  0  0  0  0  0  0  0  0  0
   30.0372  -36.1667  -16.4745 C   0  0  0  0  0  0  0  0  0  0  0  0
   29.7790  -36.9384  -17.5507 N   0  0  0  0  0  0  0  0  0  0  0  0
   28.4560  -37.1630  -17.6151 C   0  0  0  0  0  0  0  0  0  0  0  0
   27.8507  -36.5338  -16.5751 N   0  0  0  0  0  0  0  0  0  0  0  0
   27.4103  -33.1977  -13.7438 C   0  0  0  0  0  0  0  0  0  0  0  0
   28.2092  -32.5121  -13.0779 O   0  0  0  0  0  0  0  0  0  0  0  0
   26.1041  -33.3642  -13.2751 N   0  0  0  0  0  0  0  0  0  0  0  0
   25.5210  -32.6576  -12.1410 C   0  0  1  0  0  0  0  0  0  0  0  0
   24.0617  -32.4735  -12.2576 C   0  0  0  0  0  0  0  0  0  0  0  0
   23.5157  -31.7692  -11.0807 C   0  0  0  0  0  0  0  0  0  0  0  0
   22.7223  -32.4384  -10.1450 C   0  0  0  0  0  0  0  0  0  0  0  0
   22.2146  -31.8307   -9.0202 C   0  0  0  0  0  0  0  0  0  0  0  0
   22.4840  -30.5009   -8.7778 C   0  0  0  0  0  0  0  0  0  0  0  0
   23.2558  -29.8055   -9.6651 C   0  0  0  0  0  0  0  0  0  0  0  0
   23.7543  -30.4341  -10.7854 C   0  0  0  0  0  0  0  0  0  0  0  0
   25.8619  -33.4578  -10.9477 C   0  0  0  0  0  0  0  0  0  0  0  0
   25.6335  -34.6898  -10.9576 O   0  0  0  0  0  0  0  0  0  0  0  0
   26.4407  -32.8929   -9.7810 N   0  0  0  0  0  0  0  0  0  0  0  0
   26.7930  -33.6807   -8.5932 C   0  0  1  0  0  0  0  0  0  0  0  0
   27.7358  -32.8371   -7.8067 C   0  0  0  0  0  0  0  0  0  0  0  0
   28.2157  -33.4661   -6.5543 C   0  0  0  0  0  0  0  0  0  0  0  0
   27.8296  -34.7195   -6.0928 C   0  0  0  0  0  0  0  0  0  0  0  0
   28.4727  -34.9257   -4.9463 N   0  0  0  0  0  0  0  0  0  0  0  0
   29.2545  -33.8794   -4.6355 C   0  0  0  0  0  0  0  0  0  0  0  0
   29.0769  -33.0071   -5.6328 N   0  0  0  0  0  0  0  0  0  0  0  0
   25.5571  -34.0743   -7.8760 C   0  0  0  0  0  0  0  0  0  0  0  0
   24.4370  -33.2295   -7.9864 O   0  0  0  0  0  0  0  0  0  0  0  0
   25.4629  -35.1081   -7.1860 O   0  0  0  0  0  0  0  0  0  0  0  0
  2  1  1  1
  3  2  1  0
  3  4  1  0
  4  8  1  0
  4  5  2  0
  5  6  1  0
  7  6  1  0
  8  7  2  0
  9 10  2  0
  9  2  1  0
 11  9  1  0
 12 11  1  0
 12 13  1  6
 13 14  1  0
 14 19  1  0
 14 15  2  0
 15 16  1  0
 16 17  2  0
 18 17  1  0
 19 18  2  0
 20 12  1  0
 21 20  2  0
 22 20  1  0
 23 22  1  0
 23 24  1  1
 24 25  1  0
 25 29  1  0
 26 25  2  0
 26 27  1  0
 27 28  1  0
 29 28  2  0
 30 31  1  0
 30 23  1  0
 32 30  2  0
M  END
$$$$
