HFH.pdb
     RDKit          3D

 32 34  0  0  1  0  0  0  0  0999 V2000
   12.3732  -22.1222   -3.0878 N   0  0  0  0  0  0  0  0  0  0  0  0
   12.5860  -21.1508   -2.0679 C   0  0  1  0  0  0  0  0  0  0  0  0
   11.2429  -20.4897   -1.7671 C   0  0  0  0  0  0  0  0  0  0  0  0
   10.8028  -19.6637   -2.9271 C   0  0  0  0  0  0  0  0  0  0  0  0
   11.3145  -18.4605   -3.3392 C   0  0  0  0  0  0  0  0  0  0  0  0
   10.5980  -18.1018   -4.4246 N   0  0  0  0  0  0  0  0  0  0  0  0
    9.6792  -19.0508   -4.6701 C   0  0  0  0  0  0  0  0  0  0  0  0
    9.7991  -20.0320   -3.7391 N   0  0  0  0  0  0  0  0  0  0  0  0
   13.0814  -21.7252   -0.7964 C   0  0  0  0  0  0  0  0  0  0  0  0
   12.5245  -22.7088   -0.2729 O   0  0  0  0  0  0  0  0  0  0  0  0
   14.1932  -21.1595   -0.1660 N   0  0  0  0  0  0  0  0  0  0  0  0
   14.8737  -21.7153    0.9973 C   0  0  1  0  0  0  0  0  0  0  0  0
   16.2426  -22.1810    0.7037 C   0  0  0  0  0  0  0  0  0  0  0  0
   16.2318  -23.5301    0.1047 C   0  0  0  0  0  0  0  0  0  0  0  0
   16.1112  -23.7038   -1.2767 C   0  0  0  0  0  0  0  0  0  0  0  0
   16.1235  -24.9391   -1.8816 C   0  0  0  0  0  0  0  0  0  0  0  0
   16.2597  -26.0770   -1.1157 C   0  0  0  0  0  0  0  0  0  0  0  0
   16.3810  -25.9565    0.2398 C   0  0  0  0  0  0  0  0  0  0  0  0
   16.3663  -24.7090    0.8249 C   0  0  0  0  0  0  0  0  0  0  0  0
   14.8838  -20.6413    2.0109 C   0  0  0  0  0  0  0  0  0  0  0  0
   15.0743  -19.4595    1.6408 O   0  0  0  0  0  0  0  0  0  0  0  0
   14.6863  -20.8866    3.3950 N   0  0  0  0  0  0  0  0  0  0  0  0
   14.7355  -19.8325    4.4158 C   0  0  1  0  0  0  0  0  0  0  0  0
   13.3568  -19.7353    4.9715 C   0  0  0  0  0  0  0  0  0  0  0  0
   13.2144  -18.7635    6.0804 C   0  0  0  0  0  0  0  0  0  0  0  0
   14.2130  -17.8999    6.5169 C   0  0  0  0  0  0  0  0  0  0  0  0
   13.7024  -17.1930    7.5220 N   0  0  0  0  0  0  0  0  0  0  0  0
   12.4301  -17.5465    7.7643 C   0  0  0  0  0  0  0  0  0  0  0  0
   12.1614  -18.5042    6.8712 N   0  0  0  0  0  0  0  0  0  0  0  0
   15.7895  -20.1526    5.4075 C   0  0  0  0  0  0  0  0  0  0  0  0
   16.3128  -19.0945    6.1737 O   0  0  0  0  0  0  0  0  0  0  0  0
   16.2307  -21.3034    5.5937 O   0  0  0  0  0  0  0  0  0  0  0  0
  2  1  1  6
  3  2  1  0
  3  4  1  0
  4  8  1  0
  4  5  2  0
  5  6  1  0
  7  6  1  0
  8  7  2  0
  9 10  2  0
  9  2  1  0
 11  9  1  0
 12 11  1  0
 12 13  1  6
 13 14  1  0
 14 19  1  0
 14 15  2  0
 15 16  1  0
 16 17  2  0
 18 17  1  0
 19 18  2  0
 20 12  1  0
 21 20  2  0
 22 20  1  0
 23 22  1  0
 23 24  1  1
 24 25  1  0
 25 29  1  0
 26 25  2  0
 26 27  1  0
 27 28  1  0
 29 28  2  0
 30 31  1  0
 30 23  1  0
 32 30  2  0
M  END
$$$$
