HFH.pdb
     RDKit          3D

 32 34  0  0  1  0  0  0  0  0999 V2000
   27.4437  -19.3255  -19.2803 N   0  0  0  0  0  0  0  0  0  0  0  0
   26.9854  -18.5535  -18.1742 C   0  0  1  0  0  0  0  0  0  0  0  0
   25.8194  -17.6944  -18.6575 C   0  0  0  0  0  0  0  0  0  0  0  0
   26.3276  -16.4589  -19.3184 C   0  0  0  0  0  0  0  0  0  0  0  0
   26.7379  -15.2971  -18.7176 C   0  0  0  0  0  0  0  0  0  0  0  0
   27.1086  -14.4701  -19.7170 N   0  0  0  0  0  0  0  0  0  0  0  0
   26.9322  -15.1016  -20.8896 C   0  0  0  0  0  0  0  0  0  0  0  0
   26.4441  -16.3461  -20.6512 N   0  0  0  0  0  0  0  0  0  0  0  0
   26.4834  -19.3724  -17.0475 C   0  0  0  0  0  0  0  0  0  0  0  0
   25.7750  -20.3776  -17.2463 O   0  0  0  0  0  0  0  0  0  0  0  0
   26.8056  -19.0180  -15.7345 N   0  0  0  0  0  0  0  0  0  0  0  0
   26.3933  -19.7471  -14.5412 C   0  0  1  0  0  0  0  0  0  0  0  0
   27.2072  -19.4268  -13.3530 C   0  0  0  0  0  0  0  0  0  0  0  0
   26.6948  -20.1157  -12.1521 C   0  0  0  0  0  0  0  0  0  0  0  0
   26.9290  -21.4782  -11.9485 C   0  0  0  0  0  0  0  0  0  0  0  0
   26.4949  -22.1558  -10.8329 C   0  0  0  0  0  0  0  0  0  0  0  0
   25.7937  -21.4864   -9.8531 C   0  0  0  0  0  0  0  0  0  0  0  0
   25.5409  -20.1528  -10.0085 C   0  0  0  0  0  0  0  0  0  0  0  0
   25.9853  -19.4938  -11.1341 C   0  0  0  0  0  0  0  0  0  0  0  0
   24.9751  -19.3973  -14.3238 C   0  0  0  0  0  0  0  0  0  0  0  0
   24.6490  -18.1885  -14.2738 O   0  0  0  0  0  0  0  0  0  0  0  0
   23.9563  -20.3733  -14.1678 N   0  0  0  0  0  0  0  0  0  0  0  0
   22.5638  -20.0405  -13.8421 C   0  0  1  0  0  0  0  0  0  0  0  0
   21.7516  -20.4900  -15.0070 C   0  0  0  0  0  0  0  0  0  0  0  0
   20.9581  -19.4153  -15.6471 C   0  0  0  0  0  0  0  0  0  0  0  0
   20.8851  -18.1020  -15.1965 C   0  0  0  0  0  0  0  0  0  0  0  0
   20.0794  -17.4499  -16.0309 N   0  0  0  0  0  0  0  0  0  0  0  0
   19.6243  -18.2627  -16.9977 C   0  0  0  0  0  0  0  0  0  0  0  0
   20.1763  -19.4520  -16.7375 N   0  0  0  0  0  0  0  0  0  0  0  0
   22.1971  -20.6596  -12.5464 C   0  0  0  0  0  0  0  0  0  0  0  0
   21.2762  -19.9768  -11.7301 O   0  0  0  0  0  0  0  0  0  0  0  0
   22.6608  -21.7461  -12.1485 O   0  0  0  0  0  0  0  0  0  0  0  0
  2  1  1  6
  3  2  1  0
  3  4  1  0
  4  8  1  0
  4  5  2  0
  5  6  1  0
  7  6  1  0
  8  7  2  0
  9 10  2  0
  9  2  1  0
 11  9  1  0
 12 11  1  0
 12 13  1  1
 13 14  1  0
 14 19  1  0
 14 15  2  0
 15 16  1  0
 16 17  2  0
 18 17  1  0
 19 18  2  0
 20 12  1  0
 21 20  2  0
 22 20  1  0
 23 22  1  0
 23 24  1  6
 24 25  1  0
 25 29  1  0
 26 25  2  0
 26 27  1  0
 27 28  1  0
 29 28  2  0
 30 31  1  0
 30 23  1  0
 32 30  2  0
M  END
$$$$
