HFH.pdb
     RDKit          3D

 32 34  0  0  1  0  0  0  0  0999 V2000
   38.9248  -32.5012    0.4112 N   0  0  0  0  0  0  0  0  0  0  0  0
   37.8624  -33.1084    1.1404 C   0  0  1  0  0  0  0  0  0  0  0  0
   38.3398  -34.4841    1.5997 C   0  0  0  0  0  0  0  0  0  0  0  0
   38.5571  -35.3741    0.4240 C   0  0  0  0  0  0  0  0  0  0  0  0
   39.7511  -35.8353   -0.0667 C   0  0  0  0  0  0  0  0  0  0  0  0
   39.4456  -36.6019   -1.1340 N   0  0  0  0  0  0  0  0  0  0  0  0
   38.1116  -36.6111   -1.2929 C   0  0  0  0  0  0  0  0  0  0  0  0
   37.5467  -35.8461   -0.3235 N   0  0  0  0  0  0  0  0  0  0  0  0
   37.4718  -32.3568    2.3548 C   0  0  0  0  0  0  0  0  0  0  0  0
   38.3263  -31.9558    3.1676 O   0  0  0  0  0  0  0  0  0  0  0  0
   36.1224  -32.0885    2.6007 N   0  0  0  0  0  0  0  0  0  0  0  0
   35.6144  -31.2558    3.6842 C   0  0  1  0  0  0  0  0  0  0  0  0
   34.8001  -30.1194    3.2125 C   0  0  0  0  0  0  0  0  0  0  0  0
   35.6246  -28.9078    3.0351 C   0  0  0  0  0  0  0  0  0  0  0  0
   35.6591  -27.9105    4.0134 C   0  0  0  0  0  0  0  0  0  0  0  0
   36.4326  -26.7783    3.9040 C   0  0  0  0  0  0  0  0  0  0  0  0
   37.2208  -26.5909    2.7890 C   0  0  0  0  0  0  0  0  0  0  0  0
   37.2198  -27.5396    1.8058 C   0  0  0  0  0  0  0  0  0  0  0  0
   36.4374  -28.6663    1.9362 C   0  0  0  0  0  0  0  0  0  0  0  0
   34.8222  -32.1548    4.5473 C   0  0  0  0  0  0  0  0  0  0  0  0
   34.0723  -33.0044    4.0125 O   0  0  0  0  0  0  0  0  0  0  0  0
   34.8706  -32.1016    5.9650 N   0  0  0  0  0  0  0  0  0  0  0  0
   34.1100  -33.0097    6.8325 C   0  0  1  0  0  0  0  0  0  0  0  0
   34.5495  -32.7112    8.2242 C   0  0  0  0  0  0  0  0  0  0  0  0
   33.9155  -33.5612    9.2585 C   0  0  0  0  0  0  0  0  0  0  0  0
   33.0461  -34.6153    9.0011 C   0  0  0  0  0  0  0  0  0  0  0  0
   32.6956  -35.1255   10.1790 N   0  0  0  0  0  0  0  0  0  0  0  0
   33.2865  -34.4646   11.1872 C   0  0  0  0  0  0  0  0  0  0  0  0
   34.0225  -33.5184   10.5957 N   0  0  0  0  0  0  0  0  0  0  0  0
   32.6597  -32.8342    6.5823 C   0  0  0  0  0  0  0  0  0  0  0  0
   31.8390  -33.9753    6.6522 O   0  0  0  0  0  0  0  0  0  0  0  0
   32.1368  -31.7347    6.3155 O   0  0  0  0  0  0  0  0  0  0  0  0
  2  1  1  1
  3  2  1  0
  3  4  1  0
  4  8  1  0
  4  5  2  0
  5  6  1  0
  7  6  1  0
  8  7  2  0
  9 10  2  0
  9  2  1  0
 11  9  1  0
 12 11  1  0
 12 13  1  6
 13 14  1  0
 14 19  1  0
 14 15  2  0
 15 16  1  0
 16 17  2  0
 18 17  1  0
 19 18  2  0
 20 12  1  0
 21 20  2  0
 22 20  1  0
 23 22  1  0
 23 24  1  1
 24 25  1  0
 25 29  1  0
 26 25  2  0
 26 27  1  0
 27 28  1  0
 29 28  2  0
 30 31  1  0
 30 23  1  0
 32 30  2  0
M  END
$$$$
