HFH.pdb
     RDKit          3D

 32 34  0  0  1  0  0  0  0  0999 V2000
   30.5039  -28.6828  -17.0219 N   0  0  0  0  0  0  0  0  0  0  0  0
   29.2997  -29.3887  -17.3061 C   0  0  1  0  0  0  0  0  0  0  0  0
   29.4182  -30.7795  -16.6873 C   0  0  0  0  0  0  0  0  0  0  0  0
   30.4703  -31.5686  -17.3887 C   0  0  0  0  0  0  0  0  0  0  0  0
   30.4242  -32.0802  -18.6597 C   0  0  0  0  0  0  0  0  0  0  0  0
   31.6000  -32.7138  -18.8504 N   0  0  0  0  0  0  0  0  0  0  0  0
   32.3414  -32.5954  -17.7363 C   0  0  0  0  0  0  0  0  0  0  0  0
   31.6438  -31.8809  -16.8161 N   0  0  0  0  0  0  0  0  0  0  0  0
   28.0921  -28.7575  -16.7272 C   0  0  0  0  0  0  0  0  0  0  0  0
   28.1273  -28.1978  -15.6149 O   0  0  0  0  0  0  0  0  0  0  0  0
   26.8872  -28.7858  -17.4349 N   0  0  0  0  0  0  0  0  0  0  0  0
   25.6446  -28.1555  -17.0057 C   0  0  1  0  0  0  0  0  0  0  0  0
   25.2426  -27.0206  -17.8585 C   0  0  0  0  0  0  0  0  0  0  0  0
   26.0182  -25.8070  -17.5347 C   0  0  0  0  0  0  0  0  0  0  0  0
   27.2922  -25.6020  -18.0712 C   0  0  0  0  0  0  0  0  0  0  0  0
   28.0400  -24.4752  -17.8196 C   0  0  0  0  0  0  0  0  0  0  0  0
   27.5359  -23.4850  -17.0041 C   0  0  0  0  0  0  0  0  0  0  0  0
   26.2938  -23.6414  -16.4568 C   0  0  0  0  0  0  0  0  0  0  0  0
   25.5618  -24.7782  -16.7224 C   0  0  0  0  0  0  0  0  0  0  0  0
   24.6232  -29.2219  -17.0243 C   0  0  0  0  0  0  0  0  0  0  0  0
   24.8664  -30.2844  -17.6423 O   0  0  0  0  0  0  0  0  0  0  0  0
   23.3695  -29.0992  -16.3699 N   0  0  0  0  0  0  0  0  0  0  0  0
   22.5374  -30.2505  -15.9988 C   0  0  1  0  0  0  0  0  0  0  0  0
   23.3731  -31.0844  -15.0903 C   0  0  0  0  0  0  0  0  0  0  0  0
   22.6768  -32.2705  -14.5403 C   0  0  0  0  0  0  0  0  0  0  0  0
   21.3325  -32.5675  -14.7351 C   0  0  0  0  0  0  0  0  0  0  0  0
   21.0886  -33.7041  -14.0877 N   0  0  0  0  0  0  0  0  0  0  0  0
   22.1959  -34.1635  -13.4834 C   0  0  0  0  0  0  0  0  0  0  0  0
   23.1458  -33.2699  -13.7769 N   0  0  0  0  0  0  0  0  0  0  0  0
   21.2625  -29.7718  -15.4139 C   0  0  0  0  0  0  0  0  0  0  0  0
   20.0711  -30.3815  -15.8490 O   0  0  0  0  0  0  0  0  0  0  0  0
   21.1954  -28.8634  -14.5630 O   0  0  0  0  0  0  0  0  0  0  0  0
  2  1  1  1
  3  2  1  0
  3  4  1  0
  4  8  1  0
  4  5  2  0
  5  6  1  0
  7  6  1  0
  8  7  2  0
  9 10  2  0
  9  2  1  0
 11  9  1  0
 12 11  1  0
 12 13  1  6
 13 14  1  0
 14 19  1  0
 14 15  2  0
 15 16  1  0
 16 17  2  0
 18 17  1  0
 19 18  2  0
 20 12  1  0
 21 20  2  0
 22 20  1  0
 23 22  1  0
 23 24  1  1
 24 25  1  0
 25 29  1  0
 26 25  2  0
 26 27  1  0
 27 28  1  0
 29 28  2  0
 30 31  1  0
 30 23  1  0
 32 30  2  0
M  END
$$$$
