HFH.pdb
     RDKit          3D

 32 34  0  0  1  0  0  0  0  0999 V2000
   23.6489  -14.0341  -18.5175 N   0  0  0  0  0  0  0  0  0  0  0  0
   23.3190  -12.6648  -18.7303 C   0  0  1  0  0  0  0  0  0  0  0  0
   21.8297  -12.5903  -19.0585 C   0  0  0  0  0  0  0  0  0  0  0  0
   21.5534  -13.2637  -20.3592 C   0  0  0  0  0  0  0  0  0  0  0  0
   21.5350  -12.6968  -21.6072 C   0  0  0  0  0  0  0  0  0  0  0  0
   21.2397  -13.6942  -22.4664 N   0  0  0  0  0  0  0  0  0  0  0  0
   21.0824  -14.8327  -21.7707 C   0  0  0  0  0  0  0  0  0  0  0  0
   21.2765  -14.5741  -20.4518 N   0  0  0  0  0  0  0  0  0  0  0  0
   23.5452  -11.8093  -17.5433 C   0  0  0  0  0  0  0  0  0  0  0  0
   23.2023  -12.1819  -16.4051 O   0  0  0  0  0  0  0  0  0  0  0  0
   24.1538  -10.5602  -17.6939 N   0  0  0  0  0  0  0  0  0  0  0  0
   24.5117   -9.6619  -16.6029 C   0  0  1  0  0  0  0  0  0  0  0  0
   25.9457   -9.3152  -16.5807 C   0  0  0  0  0  0  0  0  0  0  0  0
   26.7782  -10.5005  -16.2955 C   0  0  0  0  0  0  0  0  0  0  0  0
   27.5427  -11.1020  -17.2988 C   0  0  0  0  0  0  0  0  0  0  0  0
   28.3535  -12.1901  -17.0740 C   0  0  0  0  0  0  0  0  0  0  0  0
   28.4364  -12.7346  -15.8105 C   0  0  0  0  0  0  0  0  0  0  0  0
   27.7070  -12.1798  -14.7972 C   0  0  0  0  0  0  0  0  0  0  0  0
   26.9013  -11.0898  -15.0448 C   0  0  0  0  0  0  0  0  0  0  0  0
   23.6766   -8.4571  -16.7809 C   0  0  0  0  0  0  0  0  0  0  0  0
   23.5068   -8.0016  -17.9358 O   0  0  0  0  0  0  0  0  0  0  0  0
   23.0522   -7.7856  -15.6973 N   0  0  0  0  0  0  0  0  0  0  0  0
   22.0595   -6.7184  -15.8742 C   0  0  1  0  0  0  0  0  0  0  0  0
   20.9754   -7.3018  -16.7128 C   0  0  0  0  0  0  0  0  0  0  0  0
   19.8192   -6.4008  -16.9264 C   0  0  0  0  0  0  0  0  0  0  0  0
   19.7377   -5.0878  -16.4762 C   0  0  0  0  0  0  0  0  0  0  0  0
   18.5545   -4.6178  -16.8631 N   0  0  0  0  0  0  0  0  0  0  0  0
   17.8619   -5.5487  -17.5386 C   0  0  0  0  0  0  0  0  0  0  0  0
   18.6574   -6.6228  -17.5608 N   0  0  0  0  0  0  0  0  0  0  0  0
   21.6260   -6.2208  -14.5471 C   0  0  0  0  0  0  0  0  0  0  0  0
   21.4225   -4.8360  -14.3999 O   0  0  0  0  0  0  0  0  0  0  0  0
   21.4347   -6.9629  -13.5641 O   0  0  0  0  0  0  0  0  0  0  0  0
  2  1  1  1
  3  2  1  0
  3  4  1  0
  4  8  1  0
  4  5  2  0
  5  6  1  0
  7  6  1  0
  8  7  2  0
  9 10  2  0
  9  2  1  0
 11  9  1  0
 12 11  1  0
 12 13  1  6
 13 14  1  0
 14 19  1  0
 14 15  2  0
 15 16  1  0
 16 17  2  0
 18 17  1  0
 19 18  2  0
 20 12  1  0
 21 20  2  0
 22 20  1  0
 23 22  1  0
 23 24  1  1
 24 25  1  0
 25 29  1  0
 26 25  2  0
 26 27  1  0
 27 28  1  0
 29 28  2  0
 30 31  1  0
 30 23  1  0
 32 30  2  0
M  END
$$$$
