HFH.pdb
     RDKit          3D

 32 34  0  0  1  0  0  0  0  0999 V2000
   27.9488  -22.0673  -18.3148 N   0  0  0  0  0  0  0  0  0  0  0  0
   27.1057  -21.0819  -17.7254 C   0  0  1  0  0  0  0  0  0  0  0  0
   25.9638  -20.8031  -18.6999 C   0  0  0  0  0  0  0  0  0  0  0  0
   26.4771  -20.0981  -19.9086 C   0  0  0  0  0  0  0  0  0  0  0  0
   26.7332  -20.6343  -21.1439 C   0  0  0  0  0  0  0  0  0  0  0  0
   27.1804  -19.6161  -21.9079 N   0  0  0  0  0  0  0  0  0  0  0  0
   27.1982  -18.4949  -21.1679 C   0  0  0  0  0  0  0  0  0  0  0  0
   26.7601  -18.7858  -19.9160 N   0  0  0  0  0  0  0  0  0  0  0  0
   26.4917  -21.5140  -16.4493 C   0  0  0  0  0  0  0  0  0  0  0  0
   26.0299  -22.6628  -16.3123 O   0  0  0  0  0  0  0  0  0  0  0  0
   26.4250  -20.6230  -15.3746 N   0  0  0  0  0  0  0  0  0  0  0  0
   25.9431  -20.9515  -14.0384 C   0  0  1  0  0  0  0  0  0  0  0  0
   26.5556  -20.1266  -12.9794 C   0  0  0  0  0  0  0  0  0  0  0  0
   25.9447  -20.4042  -11.6645 C   0  0  0  0  0  0  0  0  0  0  0  0
   26.2297  -21.5844  -10.9727 C   0  0  0  0  0  0  0  0  0  0  0  0
   25.7058  -21.8735   -9.7341 C   0  0  0  0  0  0  0  0  0  0  0  0
   24.8572  -20.9765   -9.1216 C   0  0  0  0  0  0  0  0  0  0  0  0
   24.5498  -19.8083   -9.7601 C   0  0  0  0  0  0  0  0  0  0  0  0
   25.0861  -19.5391  -11.0005 C   0  0  0  0  0  0  0  0  0  0  0  0
   24.4791  -20.7623  -14.0791 C   0  0  0  0  0  0  0  0  0  0  0  0
   24.0197  -19.6644  -14.4707 O   0  0  0  0  0  0  0  0  0  0  0  0
   23.5608  -21.7735  -13.6927 N   0  0  0  0  0  0  0  0  0  0  0  0
   22.1089  -21.5637  -13.6316 C   0  0  1  0  0  0  0  0  0  0  0  0
   21.4979  -22.9223  -13.6334 C   0  0  0  0  0  0  0  0  0  0  0  0
   20.0289  -22.9294  -13.4433 C   0  0  0  0  0  0  0  0  0  0  0  0
   19.2483  -21.8006  -13.2205 C   0  0  0  0  0  0  0  0  0  0  0  0
   17.9899  -22.2164  -13.1017 N   0  0  0  0  0  0  0  0  0  0  0  0
   17.9068  -23.5499  -13.2344 C   0  0  0  0  0  0  0  0  0  0  0  0
   19.1636  -23.9555  -13.4413 N   0  0  0  0  0  0  0  0  0  0  0  0
   21.7786  -20.7299  -12.4516 C   0  0  0  0  0  0  0  0  0  0  0  0
   20.8269  -19.7064  -12.6169 O   0  0  0  0  0  0  0  0  0  0  0  0
   22.2985  -20.8900  -11.3301 O   0  0  0  0  0  0  0  0  0  0  0  0
  2  1  1  6
  3  2  1  0
  3  4  1  0
  4  8  1  0
  4  5  2  0
  5  6  1  0
  7  6  1  0
  8  7  2  0
  9 10  2  0
  9  2  1  0
 11  9  1  0
 12 11  1  0
 12 13  1  1
 13 14  1  0
 14 19  1  0
 14 15  2  0
 15 16  1  0
 16 17  2  0
 18 17  1  0
 19 18  2  0
 20 12  1  0
 21 20  2  0
 22 20  1  0
 23 22  1  0
 23 24  1  1
 24 25  1  0
 25 29  1  0
 26 25  2  0
 26 27  1  0
 27 28  1  0
 29 28  2  0
 30 31  1  0
 30 23  1  0
 32 30  2  0
M  END
$$$$
