HFH.pdb
     RDKit          3D

 32 34  0  0  1  0  0  0  0  0999 V2000
   30.0266  -25.6243  -18.9458 N   0  0  0  0  0  0  0  0  0  0  0  0
   30.2434  -26.9143  -18.3818 C   0  0  1  0  0  0  0  0  0  0  0  0
   28.9653  -27.7272  -18.5741 C   0  0  0  0  0  0  0  0  0  0  0  0
   27.8940  -27.2272  -17.6664 C   0  0  0  0  0  0  0  0  0  0  0  0
   28.0159  -26.3121  -16.6531 C   0  0  0  0  0  0  0  0  0  0  0  0
   26.7844  -26.1805  -16.1182 N   0  0  0  0  0  0  0  0  0  0  0  0
   25.9366  -26.9860  -16.7795 C   0  0  0  0  0  0  0  0  0  0  0  0
   26.6208  -27.6450  -17.7498 N   0  0  0  0  0  0  0  0  0  0  0  0
   31.3394  -27.6685  -19.0315 C   0  0  0  0  0  0  0  0  0  0  0  0
   31.5365  -27.5907  -20.2590 O   0  0  0  0  0  0  0  0  0  0  0  0
   32.1721  -28.4847  -18.2607 N   0  0  0  0  0  0  0  0  0  0  0  0
   33.3241  -29.2237  -18.7628 C   0  0  1  0  0  0  0  0  0  0  0  0
   34.6140  -28.6713  -18.3068 C   0  0  0  0  0  0  0  0  0  0  0  0
   35.0150  -27.5070  -19.1210 C   0  0  0  0  0  0  0  0  0  0  0  0
   35.5036  -27.6705  -20.4200 C   0  0  0  0  0  0  0  0  0  0  0  0
   35.8636  -26.6147  -21.2248 C   0  0  0  0  0  0  0  0  0  0  0  0
   35.7482  -25.3238  -20.7557 C   0  0  0  0  0  0  0  0  0  0  0  0
   35.2748  -25.1147  -19.4912 C   0  0  0  0  0  0  0  0  0  0  0  0
   34.9198  -26.1871  -18.7022 C   0  0  0  0  0  0  0  0  0  0  0  0
   33.1469  -30.6137  -18.2965 C   0  0  0  0  0  0  0  0  0  0  0  0
   32.8153  -30.8166  -17.1053 O   0  0  0  0  0  0  0  0  0  0  0  0
   33.3358  -31.7393  -19.1405 N   0  0  0  0  0  0  0  0  0  0  0  0
   33.1585  -33.1249  -18.6885 C   0  0  1  0  0  0  0  0  0  0  0  0
   32.7942  -33.9085  -19.9019 C   0  0  0  0  0  0  0  0  0  0  0  0
   31.3777  -33.7710  -20.3128 C   0  0  0  0  0  0  0  0  0  0  0  0
   30.2959  -33.7202  -19.4408 C   0  0  0  0  0  0  0  0  0  0  0  0
   29.2015  -33.5942  -20.1872 N   0  0  0  0  0  0  0  0  0  0  0  0
   29.5088  -33.5601  -21.4937 C   0  0  0  0  0  0  0  0  0  0  0  0
   30.8403  -33.6697  -21.5385 N   0  0  0  0  0  0  0  0  0  0  0  0
   34.3864  -33.5800  -17.9943 C   0  0  0  0  0  0  0  0  0  0  0  0
   35.5966  -32.9352  -18.3111 O   0  0  0  0  0  0  0  0  0  0  0  0
   34.3987  -34.4979  -17.1511 O   0  0  0  0  0  0  0  0  0  0  0  0
  2  1  1  6
  3  2  1  0
  3  4  1  0
  4  8  1  0
  4  5  2  0
  5  6  1  0
  7  6  1  0
  8  7  2  0
  9 10  2  0
  9  2  1  0
 11  9  1  0
 12 11  1  0
 12 13  1  1
 13 14  1  0
 14 19  1  0
 14 15  2  0
 15 16  1  0
 16 17  2  0
 18 17  1  0
 19 18  2  0
 20 12  1  0
 21 20  2  0
 22 20  1  0
 23 22  1  0
 23 24  1  6
 24 25  1  0
 25 29  1  0
 26 25  2  0
 26 27  1  0
 27 28  1  0
 29 28  2  0
 30 31  1  0
 30 23  1  0
 32 30  2  0
M  END
$$$$
