WRC.pdb
     RDKit          3D

 32 33  0  0  1  0  0  0  0  0999 V2000
   23.0637  -22.5148  -22.2843 N   0  0  0  0  0  0  0  0  0  0  0  0
   23.0181  -21.9715  -20.9323 C   0  0  1  0  0  0  0  0  0  0  0  0
   21.7752  -21.1118  -20.7853 C   0  0  0  0  0  0  0  0  0  0  0  0
   21.9523  -19.8085  -21.4645 C   0  0  0  0  0  0  0  0  0  0  0  0
   22.3601  -19.5361  -22.7634 C   0  0  0  0  0  0  0  0  0  0  0  0
   22.3793  -18.2005  -22.9584 N   0  0  0  0  0  0  0  0  0  0  0  0
   21.9981  -17.5696  -21.8334 C   0  0  0  0  0  0  0  0  0  0  0  0
   21.8532  -16.2154  -21.5162 C   0  0  0  0  0  0  0  0  0  0  0  0
   21.4382  -15.8941  -20.2533 C   0  0  0  0  0  0  0  0  0  0  0  0
   21.1638  -16.8617  -19.3007 C   0  0  0  0  0  0  0  0  0  0  0  0
   21.3154  -18.1808  -19.6423 C   0  0  0  0  0  0  0  0  0  0  0  0
   21.7325  -18.5528  -20.9065 C   0  0  0  0  0  0  0  0  0  0  0  0
   22.8400  -23.1323  -19.9886 C   0  0  0  0  0  0  0  0  0  0  0  0
   22.2399  -24.1733  -20.3533 O   0  0  0  0  0  0  0  0  0  0  0  0
   29.1561  -26.3542  -16.0734 N   0  0  0  0  0  0  0  0  0  0  0  0
   28.7639  -25.0729  -16.5918 C   0  0  0  0  0  0  0  0  0  0  0  0
   29.5866  -24.0895  -16.5865 N   0  0  0  0  0  0  0  0  0  0  0  0
   27.4625  -24.8553  -17.1201 N   0  0  0  0  0  0  0  0  0  0  0  0
   26.5260  -25.9398  -17.3221 C   0  0  0  0  0  0  0  0  0  0  0  0
   25.2648  -25.5421  -17.9992 C   0  0  0  0  0  0  0  0  0  0  0  0
   24.4656  -24.6210  -17.1209 C   0  0  0  0  0  0  0  0  0  0  0  0
   23.1953  -24.2103  -17.7841 C   0  0  2  0  0  0  0  0  0  0  0  0
   23.3434  -23.0796  -18.6697 N   0  0  0  0  0  0  0  0  0  0  0  0
   22.2659  -23.7608  -16.6764 C   0  0  0  0  0  0  0  0  0  0  0  0
   22.5242  -22.7164  -16.0517 O   0  0  0  0  0  0  0  0  0  0  0  0
   29.3275  -23.2305  -17.1175 N   0  0  0  0  0  0  0  0  0  0  0  0
   21.1192  -24.4814  -16.3267 C   0  0  1  0  0  0  0  0  0  0  0  0
   20.3264  -24.0873  -15.1815 C   0  0  0  0  0  0  0  0  0  0  0  0
   19.0562  -23.4768  -15.7108 S   0  0  0  0  0  0  0  0  0  0  0  0
   18.2785  -24.4802  -16.9876 C   0  0  0  0  0  0  0  0  0  0  0  0
   20.0580  -25.2637  -14.3148 O   0  0  0  0  0  0  0  0  0  0  0  0
   19.4291  -25.1451  -13.0990 O   0  0  0  0  0  0  0  0  0  0  0  0
  2  1  1  6
  2  3  1  0
  4  3  1  0
  5  4  2  0
  6  7  1  0
  6  5  1  0
  7 12  2  0
  8  9  2  0
  8  7  1  0
  9 10  1  0
 10 11  2  0
 12  4  1  0
 12 11  1  0
 13 14  2  0
 13  2  1  0
 16 15  1  0
 17 16  2  0
 18 16  1  0
 19 18  1  0
 20 19  1  0
 20 21  1  0
 22 21  1  1
 22 23  1  0
 23 13  1  0
 24 22  1  0
 24 26  1  0
 25 24  2  0
 27 26  1  0
 27 30  1  0
 27 28  1  1
 28 29  1  0
 30 32  2  0
 30 31  1  0
M  END
$$$$
