WRC.pdb
     RDKit          3D

 32 33  0  0  1  0  0  0  0  0999 V2000
   27.2087  -22.6657  -13.3365 N   0  0  0  0  0  0  0  0  0  0  0  0
   26.3558  -21.6688  -12.7010 C   0  0  1  0  0  0  0  0  0  0  0  0
   27.1833  -20.4345  -12.3896 C   0  0  0  0  0  0  0  0  0  0  0  0
   28.0557  -20.6669  -11.2163 C   0  0  0  0  0  0  0  0  0  0  0  0
   29.4099  -20.9690  -11.1669 C   0  0  0  0  0  0  0  0  0  0  0  0
   29.7961  -21.0957   -9.8796 N   0  0  0  0  0  0  0  0  0  0  0  0
   28.7456  -20.8887   -9.0656 C   0  0  0  0  0  0  0  0  0  0  0  0
   28.6157  -20.9050   -7.6734 C   0  0  0  0  0  0  0  0  0  0  0  0
   27.3819  -20.6487   -7.1421 C   0  0  0  0  0  0  0  0  0  0  0  0
   26.2802  -20.3787   -7.9373 C   0  0  0  0  0  0  0  0  0  0  0  0
   26.4398  -20.3700   -9.2990 C   0  0  0  0  0  0  0  0  0  0  0  0
   27.6677  -20.6234   -9.8806 C   0  0  0  0  0  0  0  0  0  0  0  0
   25.3308  -21.2415  -13.7191 C   0  0  0  0  0  0  0  0  0  0  0  0
   25.6657  -20.9819  -14.9012 O   0  0  0  0  0  0  0  0  0  0  0  0
   23.0225  -26.5387  -14.4216 N   0  0  0  0  0  0  0  0  0  0  0  0
   21.7805  -25.8931  -14.0978 C   0  0  0  0  0  0  0  0  0  0  0  0
   21.0369  -26.3477  -13.1574 N   0  0  0  0  0  0  0  0  0  0  0  0
   21.3388  -24.7417  -14.8043 N   0  0  0  0  0  0  0  0  0  0  0  0
   22.1182  -24.1511  -15.8710 C   0  0  0  0  0  0  0  0  0  0  0  0
   22.9740  -23.0132  -15.4468 C   0  0  0  0  0  0  0  0  0  0  0  0
   22.1419  -21.9460  -14.7930 C   0  0  0  0  0  0  0  0  0  0  0  0
   22.9820  -20.7887  -14.3721 C   0  0  2  0  0  0  0  0  0  0  0  0
   23.9671  -21.1219  -13.3705 N   0  0  0  0  0  0  0  0  0  0  0  0
   22.0401  -19.7955  -13.7248 C   0  0  0  0  0  0  0  0  0  0  0  0
   21.7470  -19.9289  -12.5231 O   0  0  0  0  0  0  0  0  0  0  0  0
   20.1637  -25.8266  -12.9273 N   0  0  0  0  0  0  0  0  0  0  0  0
   21.4831  -18.7255  -14.4328 C   0  0  2  0  0  0  0  0  0  0  0  0
   20.5112  -17.8566  -13.8037 C   0  0  0  0  0  0  0  0  0  0  0  0
   20.4470  -16.5960  -14.6243 S   0  0  0  0  0  0  0  0  0  0  0  0
   19.1872  -15.4483  -14.0434 C   0  0  0  0  0  0  0  0  0  0  0  0
   19.1922  -18.5356  -13.7245 O   0  0  0  0  0  0  0  0  0  0  0  0
   18.3235  -18.3214  -12.6819 O   0  0  0  0  0  0  0  0  0  0  0  0
  2  1  1  6
  2  3  1  0
  4  3  1  0
  5  4  2  0
  6  7  1  0
  6  5  1  0
  7 12  2  0
  8  9  2  0
  8  7  1  0
  9 10  1  0
 10 11  2  0
 12  4  1  0
 12 11  1  0
 13 14  2  0
 13  2  1  0
 16 15  1  0
 17 16  2  0
 18 16  1  0
 19 18  1  0
 20 19  1  0
 20 21  1  0
 22 21  1  1
 22 23  1  0
 23 13  1  0
 24 22  1  0
 24 26  1  0
 25 24  2  0
 27 26  1  0
 27 30  1  0
 27 28  1  6
 28 29  1  0
 30 32  2  0
 30 31  1  0
M  END
$$$$
