WRC.pdb
     RDKit          3D

 32 33  0  0  1  0  0  0  0  0999 V2000
   24.7169  -19.3468   -9.3808 N   0  0  0  0  0  0  0  0  0  0  0  0
   26.0827  -19.8151   -9.5816 C   0  0  1  0  0  0  0  0  0  0  0  0
   26.3158  -21.0459   -8.7237 C   0  0  0  0  0  0  0  0  0  0  0  0
   26.2558  -20.7044   -7.2845 C   0  0  0  0  0  0  0  0  0  0  0  0
   25.1953  -20.8074   -6.3944 C   0  0  0  0  0  0  0  0  0  0  0  0
   25.5886  -20.3834   -5.1747 N   0  0  0  0  0  0  0  0  0  0  0  0
   26.8769  -19.9997   -5.2185 C   0  0  0  0  0  0  0  0  0  0  0  0
   27.7418  -19.4917   -4.2441 C   0  0  0  0  0  0  0  0  0  0  0  0
   29.0227  -19.1921   -4.6179 C   0  0  0  0  0  0  0  0  0  0  0  0
   29.4730  -19.3774   -5.9148 C   0  0  0  0  0  0  0  0  0  0  0  0
   28.6010  -19.8773   -6.8473 C   0  0  0  0  0  0  0  0  0  0  0  0
   27.2972  -20.1942   -6.5154 C   0  0  0  0  0  0  0  0  0  0  0  0
   26.1934  -20.2733  -11.0126 C   0  0  0  0  0  0  0  0  0  0  0  0
   25.1713  -20.3919  -11.7323 O   0  0  0  0  0  0  0  0  0  0  0  0
   32.3919  -23.2590  -14.0746 N   0  0  0  0  0  0  0  0  0  0  0  0
   32.7324  -22.9951  -12.7039 C   0  0  0  0  0  0  0  0  0  0  0  0
   33.4091  -23.8473  -12.0261 N   0  0  0  0  0  0  0  0  0  0  0  0
   32.3317  -21.7929  -12.0602 N   0  0  0  0  0  0  0  0  0  0  0  0
   31.4653  -20.8300  -12.7053 C   0  0  0  0  0  0  0  0  0  0  0  0
   30.0188  -21.0255  -12.4287 C   0  0  0  0  0  0  0  0  0  0  0  0
   29.1960  -20.0526  -13.2256 C   0  0  0  0  0  0  0  0  0  0  0  0
   27.7410  -20.2229  -12.9492 C   0  0  2  0  0  0  0  0  0  0  0  0
   27.4493  -20.5812  -11.5813 N   0  0  0  0  0  0  0  0  0  0  0  0
   27.2828  -21.3895  -13.7988 C   0  0  0  0  0  0  0  0  0  0  0  0
   28.1070  -22.2590  -14.1340 O   0  0  0  0  0  0  0  0  0  0  0  0
   33.6829  -23.5936  -11.0526 N   0  0  0  0  0  0  0  0  0  0  0  0
   25.9573  -21.5272  -14.2238 C   0  0  1  0  0  0  0  0  0  0  0  0
   25.5577  -22.6673  -15.0213 C   0  0  0  0  0  0  0  0  0  0  0  0
   24.4046  -23.3235  -14.3097 S   0  0  0  0  0  0  0  0  0  0  0  0
   23.1350  -22.1497  -13.8075 C   0  0  0  0  0  0  0  0  0  0  0  0
   25.1878  -22.2295  -16.3919 O   0  0  0  0  0  0  0  0  0  0  0  0
   24.9235  -23.1276  -17.3975 O   0  0  0  0  0  0  0  0  0  0  0  0
  2  1  1  6
  2  3  1  0
  4  3  1  0
  5  4  2  0
  6  7  1  0
  6  5  1  0
  7 12  2  0
  8  9  2  0
  8  7  1  0
  9 10  1  0
 10 11  2  0
 12  4  1  0
 12 11  1  0
 13 14  2  0
 13  2  1  0
 16 15  1  0
 17 16  2  0
 18 16  1  0
 19 18  1  0
 20 19  1  0
 20 21  1  0
 22 21  1  1
 22 23  1  0
 23 13  1  0
 24 22  1  0
 24 26  1  0
 25 24  2  0
 27 26  1  0
 27 30  1  0
 27 28  1  6
 28 29  1  0
 30 32  2  0
 30 31  1  0
M  END
$$$$
