WRC.pdb
     RDKit          3D

 32 33  0  0  1  0  0  0  0  0999 V2000
   25.9935  -22.8458  -13.0169 N   0  0  0  0  0  0  0  0  0  0  0  0
   25.2832  -21.8453  -12.2299 C   0  0  1  0  0  0  0  0  0  0  0  0
   26.0905  -20.5595  -12.2177 C   0  0  0  0  0  0  0  0  0  0  0  0
   27.2612  -20.6806  -11.3197 C   0  0  0  0  0  0  0  0  0  0  0  0
   28.5892  -20.9430  -11.6281 C   0  0  0  0  0  0  0  0  0  0  0  0
   29.3194  -20.9627  -10.4929 N   0  0  0  0  0  0  0  0  0  0  0  0
   28.5247  -20.7224   -9.4348 C   0  0  0  0  0  0  0  0  0  0  0  0
   28.7829  -20.6374   -8.0631 C   0  0  0  0  0  0  0  0  0  0  0  0
   27.7321  -20.3740   -7.2285 C   0  0  0  0  0  0  0  0  0  0  0  0
   26.4433  -20.1930   -7.7030 C   0  0  0  0  0  0  0  0  0  0  0  0
   26.2222  -20.2824   -9.0531 C   0  0  0  0  0  0  0  0  0  0  0  0
   27.2535  -20.5469   -9.9346 C   0  0  0  0  0  0  0  0  0  0  0  0
   24.0019  -21.5300  -12.9571 C   0  0  0  0  0  0  0  0  0  0  0  0
   23.9382  -21.5976  -14.2094 O   0  0  0  0  0  0  0  0  0  0  0  0
   17.4327  -24.2925   -8.7879 N   0  0  0  0  0  0  0  0  0  0  0  0
   17.2264  -23.8552  -10.1409 C   0  0  0  0  0  0  0  0  0  0  0  0
   16.0484  -23.8387  -10.6467 N   0  0  0  0  0  0  0  0  0  0  0  0
   18.3116  -23.4329  -10.9557 N   0  0  0  0  0  0  0  0  0  0  0  0
   19.6843  -23.7579  -10.6330 C   0  0  0  0  0  0  0  0  0  0  0  0
   20.6768  -23.2878  -11.6335 C   0  0  0  0  0  0  0  0  0  0  0  0
   20.5026  -21.8181  -11.8948 C   0  0  0  0  0  0  0  0  0  0  0  0
   21.5345  -21.3128  -12.8447 C   0  0  2  0  0  0  0  0  0  0  0  0
   22.8398  -21.1503  -12.2494 N   0  0  0  0  0  0  0  0  0  0  0  0
   21.0844  -19.9283  -13.2610 C   0  0  0  0  0  0  0  0  0  0  0  0
   20.8998  -19.0605  -12.3889 O   0  0  0  0  0  0  0  0  0  0  0  0
   15.9446  -23.5340  -11.6383 N   0  0  0  0  0  0  0  0  0  0  0  0
   20.8668  -19.5861  -14.5997 C   0  0  1  0  0  0  0  0  0  0  0  0
   20.4060  -18.2598  -14.9518 C   0  0  0  0  0  0  0  0  0  0  0  0
   21.2093  -17.8137  -16.1444 S   0  0  0  0  0  0  0  0  0  0  0  0
   22.9171  -17.4227  -15.7290 C   0  0  0  0  0  0  0  0  0  0  0  0
   18.9490  -18.2835  -15.2411 O   0  0  0  0  0  0  0  0  0  0  0  0
   18.2358  -17.1352  -15.4867 O   0  0  0  0  0  0  0  0  0  0  0  0
  2  1  1  6
  2  3  1  0
  4  3  1  0
  5  4  2  0
  6  7  1  0
  6  5  1  0
  7 12  2  0
  8  9  2  0
  8  7  1  0
  9 10  1  0
 10 11  2  0
 12  4  1  0
 12 11  1  0
 13 14  2  0
 13  2  1  0
 16 15  1  0
 17 16  2  0
 18 16  1  0
 19 18  1  0
 20 19  1  0
 20 21  1  0
 22 21  1  1
 22 23  1  0
 23 13  1  0
 24 22  1  0
 24 26  1  0
 25 24  2  0
 27 26  1  0
 27 30  1  0
 27 28  1  6
 28 29  1  0
 30 32  2  0
 30 31  1  0
M  END
$$$$
