WRC.pdb
     RDKit          3D

 32 33  0  0  1  0  0  0  0  0999 V2000
   28.9604  -22.0613  -14.7682 N   0  0  0  0  0  0  0  0  0  0  0  0
   28.4214  -21.8478  -13.4307 C   0  0  1  0  0  0  0  0  0  0  0  0
   29.2491  -20.7878  -12.7261 C   0  0  0  0  0  0  0  0  0  0  0  0
   30.5369  -21.3489  -12.2588 C   0  0  0  0  0  0  0  0  0  0  0  0
   31.6748  -21.6751  -12.9842 C   0  0  0  0  0  0  0  0  0  0  0  0
   32.6184  -22.1580  -12.1483 N   0  0  0  0  0  0  0  0  0  0  0  0
   32.1501  -22.1661  -10.8875 C   0  0  0  0  0  0  0  0  0  0  0  0
   32.7200  -22.5632   -9.6738 C   0  0  0  0  0  0  0  0  0  0  0  0
   31.9633  -22.4429   -8.5411 C   0  0  0  0  0  0  0  0  0  0  0  0
   30.6705  -21.9461   -8.5693 C   0  0  0  0  0  0  0  0  0  0  0  0
   30.1399  -21.5651   -9.7747 C   0  0  0  0  0  0  0  0  0  0  0  0
   30.8672  -21.6687  -10.9454 C   0  0  0  0  0  0  0  0  0  0  0  0
   27.0414  -21.2651  -13.5915 C   0  0  0  0  0  0  0  0  0  0  0  0
   26.8764  -20.1309  -14.1046 O   0  0  0  0  0  0  0  0  0  0  0  0
   24.5507  -25.2160  -17.2598 N   0  0  0  0  0  0  0  0  0  0  0  0
   23.5088  -25.2865  -16.2730 C   0  0  0  0  0  0  0  0  0  0  0  0
   23.2117  -26.4042  -15.7194 N   0  0  0  0  0  0  0  0  0  0  0  0
   22.7787  -24.1308  -15.8839 N   0  0  0  0  0  0  0  0  0  0  0  0
   23.1355  -22.8069  -16.3466 C   0  0  0  0  0  0  0  0  0  0  0  0
   24.1153  -22.0993  -15.4827 C   0  0  0  0  0  0  0  0  0  0  0  0
   23.6124  -22.0282  -14.0682 C   0  0  0  0  0  0  0  0  0  0  0  0
   24.5980  -21.3508  -13.1783 C   0  0  2  0  0  0  0  0  0  0  0  0
   25.8979  -21.9791  -13.1694 N   0  0  0  0  0  0  0  0  0  0  0  0
   24.0560  -21.4807  -11.7705 C   0  0  0  0  0  0  0  0  0  0  0  0
   23.6698  -22.5925  -11.3672 O   0  0  0  0  0  0  0  0  0  0  0  0
   22.4646  -26.4081  -14.9923 N   0  0  0  0  0  0  0  0  0  0  0  0
   23.9728  -20.3892  -10.8998 C   0  0  1  0  0  0  0  0  0  0  0  0
   23.2431  -20.4986   -9.6544 C   0  0  0  0  0  0  0  0  0  0  0  0
   24.0176  -19.7290   -8.6179 S   0  0  0  0  0  0  0  0  0  0  0  0
   25.7707  -20.1393   -8.6092 C   0  0  0  0  0  0  0  0  0  0  0  0
   21.8637  -19.9727   -9.8208 O   0  0  0  0  0  0  0  0  0  0  0  0
   20.8665  -20.2426   -8.9150 O   0  0  0  0  0  0  0  0  0  0  0  0
  2  1  1  6
  2  3  1  0
  4  3  1  0
  5  4  2  0
  6  7  1  0
  6  5  1  0
  7 12  2  0
  8  9  2  0
  8  7  1  0
  9 10  1  0
 10 11  2  0
 12  4  1  0
 12 11  1  0
 13 14  2  0
 13  2  1  0
 16 15  1  0
 17 16  2  0
 18 16  1  0
 19 18  1  0
 20 19  1  0
 20 21  1  0
 22 21  1  6
 22 23  1  0
 23 13  1  0
 24 22  1  0
 24 26  1  0
 25 24  2  0
 27 26  1  0
 27 30  1  0
 27 28  1  1
 28 29  1  0
 30 32  2  0
 30 31  1  0
M  END
$$$$
