WRC.pdb
     RDKit          3D

 32 33  0  0  1  0  0  0  0  0999 V2000
   27.9026  -21.7138  -13.3831 N   0  0  0  0  0  0  0  0  0  0  0  0
   26.8436  -21.7407  -12.3816 C   0  0  1  0  0  0  0  0  0  0  0  0
   26.8360  -20.4200  -11.6327 C   0  0  0  0  0  0  0  0  0  0  0  0
   27.8961  -20.3935  -10.5997 C   0  0  0  0  0  0  0  0  0  0  0  0
   29.2755  -20.4519  -10.7461 C   0  0  0  0  0  0  0  0  0  0  0  0
   29.8599  -20.3955   -9.5305 N   0  0  0  0  0  0  0  0  0  0  0  0
   28.9179  -20.3016   -8.5753 C   0  0  0  0  0  0  0  0  0  0  0  0
   28.9952  -20.2165   -7.1816 C   0  0  0  0  0  0  0  0  0  0  0  0
   27.8250  -20.1308   -6.4791 C   0  0  0  0  0  0  0  0  0  0  0  0
   26.5895  -20.1265   -7.1056 C   0  0  0  0  0  0  0  0  0  0  0  0
   26.5468  -20.2110   -8.4733 C   0  0  0  0  0  0  0  0  0  0  0  0
   27.7035  -20.2994   -9.2248 C   0  0  0  0  0  0  0  0  0  0  0  0
   25.5316  -21.8134  -13.1185 C   0  0  0  0  0  0  0  0  0  0  0  0
   25.2215  -20.9439  -13.9698 O   0  0  0  0  0  0  0  0  0  0  0  0
   20.0642  -28.6273  -14.6151 N   0  0  0  0  0  0  0  0  0  0  0  0
   20.6192  -28.0093  -13.4427 C   0  0  0  0  0  0  0  0  0  0  0  0
   20.6889  -28.6559  -12.3378 N   0  0  0  0  0  0  0  0  0  0  0  0
   21.1021  -26.6729  -13.4689 N   0  0  0  0  0  0  0  0  0  0  0  0
   21.2759  -25.9448  -14.7074 C   0  0  0  0  0  0  0  0  0  0  0  0
   21.6612  -24.5207  -14.5320 C   0  0  0  0  0  0  0  0  0  0  0  0
   22.8859  -24.4111  -13.6678 C   0  0  0  0  0  0  0  0  0  0  0  0
   23.4579  -23.0353  -13.7144 C   0  0  2  0  0  0  0  0  0  0  0  0
   24.6168  -22.8609  -12.8709 N   0  0  0  0  0  0  0  0  0  0  0  0
   22.3905  -22.1145  -13.1619 C   0  0  0  0  0  0  0  0  0  0  0  0
   22.2078  -22.0632  -11.9324 O   0  0  0  0  0  0  0  0  0  0  0  0
   21.0603  -28.1578  -11.5006 N   0  0  0  0  0  0  0  0  0  0  0  0
   21.5962  -21.3131  -13.9886 C   0  0  1  0  0  0  0  0  0  0  0  0
   20.5954  -20.4366  -13.4180 C   0  0  0  0  0  0  0  0  0  0  0  0
   20.6019  -19.1688  -14.2299 S   0  0  0  0  0  0  0  0  0  0  0  0
   22.0632  -18.1589  -13.9359 C   0  0  0  0  0  0  0  0  0  0  0  0
   19.2656  -21.0988  -13.4328 O   0  0  0  0  0  0  0  0  0  0  0  0
   18.2891  -20.7938  -12.5158 O   0  0  0  0  0  0  0  0  0  0  0  0
  2  1  1  6
  2  3  1  0
  4  3  1  0
  5  4  2  0
  6  7  1  0
  6  5  1  0
  7 12  2  0
  8  9  2  0
  8  7  1  0
  9 10  1  0
 10 11  2  0
 12  4  1  0
 12 11  1  0
 13 14  2  0
 13  2  1  0
 16 15  1  0
 17 16  2  0
 18 16  1  0
 19 18  1  0
 20 19  1  0
 20 21  1  0
 22 21  1  1
 22 23  1  0
 23 13  1  0
 24 22  1  0
 24 26  1  0
 25 24  2  0
 27 26  1  0
 27 30  1  0
 27 28  1  1
 28 29  1  0
 30 32  2  0
 30 31  1  0
M  END
$$$$
