WRC.pdb
     RDKit          3D

 32 33  0  0  1  0  0  0  0  0999 V2000
   21.7400  -21.6610  -15.7715 N   0  0  0  0  0  0  0  0  0  0  0  0
   22.3989  -20.4902  -15.2057 C   0  0  1  0  0  0  0  0  0  0  0  0
   21.4597  -19.8223  -14.2172 C   0  0  0  0  0  0  0  0  0  0  0  0
   20.3400  -19.1568  -14.9208 C   0  0  0  0  0  0  0  0  0  0  0  0
   20.3081  -17.9310  -15.5718 C   0  0  0  0  0  0  0  0  0  0  0  0
   19.0735  -17.7210  -16.0757 N   0  0  0  0  0  0  0  0  0  0  0  0
   18.2778  -18.7652  -15.7835 C   0  0  0  0  0  0  0  0  0  0  0  0
   16.9359  -19.0355  -16.0697 C   0  0  0  0  0  0  0  0  0  0  0  0
   16.4101  -20.2152  -15.6201 C   0  0  0  0  0  0  0  0  0  0  0  0
   17.1629  -21.1299  -14.9020 C   0  0  0  0  0  0  0  0  0  0  0  0
   18.4757  -20.8359  -14.6375 C   0  0  0  0  0  0  0  0  0  0  0  0
   19.0499  -19.6560  -15.0716 C   0  0  0  0  0  0  0  0  0  0  0  0
   23.5743  -20.9821  -14.4019 C   0  0  0  0  0  0  0  0  0  0  0  0
   23.4227  -21.8389  -13.4965 O   0  0  0  0  0  0  0  0  0  0  0  0
   30.7657  -23.9796  -16.0974 N   0  0  0  0  0  0  0  0  0  0  0  0
   29.4982  -23.4290  -16.4905 C   0  0  0  0  0  0  0  0  0  0  0  0
   28.9487  -23.7839  -17.5932 N   0  0  0  0  0  0  0  0  0  0  0  0
   28.8197  -22.4801  -15.6785 N   0  0  0  0  0  0  0  0  0  0  0  0
   29.3754  -22.0025  -14.4307 C   0  0  0  0  0  0  0  0  0  0  0  0
   28.4529  -21.1526  -13.6346 C   0  0  0  0  0  0  0  0  0  0  0  0
   27.3228  -20.6579  -14.4930 C   0  0  0  0  0  0  0  0  0  0  0  0
   26.0009  -20.9956  -13.8923 C   0  0  2  0  0  0  0  0  0  0  0  0
   24.8767  -20.4924  -14.6458 N   0  0  0  0  0  0  0  0  0  0  0  0
   25.9560  -20.2979  -12.5492 C   0  0  0  0  0  0  0  0  0  0  0  0
   25.7022  -19.0809  -12.5039 O   0  0  0  0  0  0  0  0  0  0  0  0
   28.0133  -23.3863  -17.8254 N   0  0  0  0  0  0  0  0  0  0  0  0
   26.1908  -20.9759  -11.3485 C   0  0  2  0  0  0  0  0  0  0  0  0
   26.2659  -20.2494  -10.0988 C   0  0  0  0  0  0  0  0  0  0  0  0
   24.8810  -20.2383   -9.5087 S   0  0  0  0  0  0  0  0  0  0  0  0
   24.8754  -19.8638   -7.7476 C   0  0  0  0  0  0  0  0  0  0  0  0
   27.2512  -20.8917   -9.1911 O   0  0  0  0  0  0  0  0  0  0  0  0
   27.1418  -22.2071   -8.8101 O   0  0  0  0  0  0  0  0  0  0  0  0
  2  1  1  1
  2  3  1  0
  4  3  1  0
  5  4  2  0
  6  7  1  0
  6  5  1  0
  7 12  2  0
  8  9  2  0
  8  7  1  0
  9 10  1  0
 10 11  2  0
 12  4  1  0
 12 11  1  0
 13 14  2  0
 13  2  1  0
 16 15  1  0
 17 16  2  0
 18 16  1  0
 19 18  1  0
 20 19  1  0
 20 21  1  0
 22 21  1  6
 22 23  1  0
 23 13  1  0
 24 22  1  0
 24 26  1  0
 25 24  2  0
 27 26  1  0
 27 30  1  0
 27 28  1  6
 28 29  1  0
 30 32  2  0
 30 31  1  0
M  END
$$$$
