WRC.pdb
     RDKit          3D

 32 33  0  0  1  0  0  0  0  0999 V2000
   27.9666  -20.2573  -11.6523 N   0  0  0  0  0  0  0  0  0  0  0  0
   26.7076  -20.7839  -11.1397 C   0  0  1  0  0  0  0  0  0  0  0  0
   26.0497  -19.7315  -10.2651 C   0  0  0  0  0  0  0  0  0  0  0  0
   26.9189  -19.3795   -9.1196 C   0  0  0  0  0  0  0  0  0  0  0  0
   27.7548  -18.2845   -8.9472 C   0  0  0  0  0  0  0  0  0  0  0  0
   28.3606  -18.3658   -7.7436 N   0  0  0  0  0  0  0  0  0  0  0  0
   27.9584  -19.4787   -7.1046 C   0  0  0  0  0  0  0  0  0  0  0  0
   28.2819  -20.0159   -5.8547 C   0  0  0  0  0  0  0  0  0  0  0  0
   27.6871  -21.1919   -5.4894 C   0  0  0  0  0  0  0  0  0  0  0  0
   26.7890  -21.8492   -6.3141 C   0  0  0  0  0  0  0  0  0  0  0  0
   26.4922  -21.2972   -7.5335 C   0  0  0  0  0  0  0  0  0  0  0  0
   27.0690  -20.1104   -7.9450 C   0  0  0  0  0  0  0  0  0  0  0  0
   25.7916  -20.9824  -12.3192 C   0  0  0  0  0  0  0  0  0  0  0  0
   25.7242  -20.1254  -13.2345 O   0  0  0  0  0  0  0  0  0  0  0  0
   27.5560  -26.7401  -15.9065 N   0  0  0  0  0  0  0  0  0  0  0  0
   26.7203  -25.8475  -16.6609 C   0  0  0  0  0  0  0  0  0  0  0  0
   26.2795  -26.1890  -17.8154 N   0  0  0  0  0  0  0  0  0  0  0  0
   26.3605  -24.5679  -16.1576 N   0  0  0  0  0  0  0  0  0  0  0  0
   26.6143  -24.1849  -14.7854 C   0  0  0  0  0  0  0  0  0  0  0  0
   25.4259  -24.2638  -13.8974 C   0  0  0  0  0  0  0  0  0  0  0  0
   24.3174  -23.3974  -14.4260 C   0  0  0  0  0  0  0  0  0  0  0  0
   24.0287  -22.2655  -13.4999 C   0  0  2  0  0  0  0  0  0  0  0  0
   24.9851  -22.1373  -12.4259 N   0  0  0  0  0  0  0  0  0  0  0  0
   22.6996  -22.5818  -12.8469 C   0  0  0  0  0  0  0  0  0  0  0  0
   22.6824  -23.0168  -11.6815 O   0  0  0  0  0  0  0  0  0  0  0  0
   25.6400  -25.5310  -18.3105 N   0  0  0  0  0  0  0  0  0  0  0  0
   21.4814  -22.4016  -13.5101 C   0  0  2  0  0  0  0  0  0  0  0  0
   20.3602  -21.7881  -12.8304 C   0  0  0  0  0  0  0  0  0  0  0  0
   20.7735  -20.3859  -12.4705 S   0  0  0  0  0  0  0  0  0  0  0  0
   19.5959  -19.5689  -11.3808 C   0  0  0  0  0  0  0  0  0  0  0  0
   19.1589  -21.8059  -13.7044 O   0  0  0  0  0  0  0  0  0  0  0  0
   17.8909  -21.9573  -13.1975 O   0  0  0  0  0  0  0  0  0  0  0  0
  2  1  1  6
  2  3  1  0
  4  3  1  0
  5  4  2  0
  6  7  1  0
  6  5  1  0
  7 12  2  0
  8  9  2  0
  8  7  1  0
  9 10  1  0
 10 11  2  0
 12  4  1  0
 12 11  1  0
 13 14  2  0
 13  2  1  0
 16 15  1  0
 17 16  2  0
 18 16  1  0
 19 18  1  0
 20 19  1  0
 20 21  1  0
 22 21  1  6
 22 23  1  0
 23 13  1  0
 24 22  1  0
 24 26  1  0
 25 24  2  0
 27 26  1  0
 27 30  1  0
 27 28  1  1
 28 29  1  0
 30 32  2  0
 30 31  1  0
M  END
$$$$
