WRC.pdb
     RDKit          3D

 32 33  0  0  1  0  0  0  0  0999 V2000
   24.8219  -18.7553  -17.4840 N   0  0  0  0  0  0  0  0  0  0  0  0
   24.6037  -18.3127  -16.1123 C   0  0  1  0  0  0  0  0  0  0  0  0
   23.5392  -17.2301  -16.1042 C   0  0  0  0  0  0  0  0  0  0  0  0
   24.0408  -15.9929  -16.7440 C   0  0  0  0  0  0  0  0  0  0  0  0
   23.5322  -15.2882  -17.8267 C   0  0  0  0  0  0  0  0  0  0  0  0
   24.3112  -14.2129  -18.0699 N   0  0  0  0  0  0  0  0  0  0  0  0
   25.3244  -14.1743  -17.1863 C   0  0  0  0  0  0  0  0  0  0  0  0
   26.3875  -13.2828  -17.0110 C   0  0  0  0  0  0  0  0  0  0  0  0
   27.2694  -13.5294  -15.9953 C   0  0  0  0  0  0  0  0  0  0  0  0
   27.1351  -14.6211  -15.1532 C   0  0  0  0  0  0  0  0  0  0  0  0
   26.0822  -15.4768  -15.3507 C   0  0  0  0  0  0  0  0  0  0  0  0
   25.1662  -15.2678  -16.3643 C   0  0  0  0  0  0  0  0  0  0  0  0
   24.0241  -19.4774  -15.3525 C   0  0  0  0  0  0  0  0  0  0  0  0
   23.5322  -20.4614  -15.9580 O   0  0  0  0  0  0  0  0  0  0  0  0
   28.8661  -20.6131  -12.2110 N   0  0  0  0  0  0  0  0  0  0  0  0
   28.6423  -21.3902  -11.0234 C   0  0  0  0  0  0  0  0  0  0  0  0
   29.5808  -22.1128  -10.5325 N   0  0  0  0  0  0  0  0  0  0  0  0
   27.3845  -21.3850  -10.3618 N   0  0  0  0  0  0  0  0  0  0  0  0
   26.3568  -20.4160  -10.6766 C   0  0  0  0  0  0  0  0  0  0  0  0
   25.7537  -20.5786  -12.0246 C   0  0  0  0  0  0  0  0  0  0  0  0
   24.2803  -20.8521  -11.9107 C   0  0  0  0  0  0  0  0  0  0  0  0
   23.5949  -20.6715  -13.2222 C   0  0  2  0  0  0  0  0  0  0  0  0
   24.0190  -19.4927  -13.9400 N   0  0  0  0  0  0  0  0  0  0  0  0
   22.1274  -20.4704  -12.9083 C   0  0  0  0  0  0  0  0  0  0  0  0
   21.7074  -19.3236  -12.6715 O   0  0  0  0  0  0  0  0  0  0  0  0
   29.3686  -22.6836   -9.6862 N   0  0  0  0  0  0  0  0  0  0  0  0
   21.2194  -21.5338  -12.8747 C   0  0  1  0  0  0  0  0  0  0  0  0
   19.8006  -21.2917  -13.0283 C   0  0  0  0  0  0  0  0  0  0  0  0
   19.5952  -20.7191  -14.4054 S   0  0  0  0  0  0  0  0  0  0  0  0
   17.8595  -20.4389  -14.7933 C   0  0  0  0  0  0  0  0  0  0  0  0
   19.0413  -22.5536  -12.8327 O   0  0  0  0  0  0  0  0  0  0  0  0
   19.4957  -23.7592  -13.3099 O   0  0  0  0  0  0  0  0  0  0  0  0
  2  1  1  6
  2  3  1  0
  4  3  1  0
  5  4  2  0
  6  7  1  0
  6  5  1  0
  7 12  2  0
  8  9  2  0
  8  7  1  0
  9 10  1  0
 10 11  2  0
 12  4  1  0
 12 11  1  0
 13 14  2  0
 13  2  1  0
 16 15  1  0
 17 16  2  0
 18 16  1  0
 19 18  1  0
 20 19  1  0
 20 21  1  0
 22 21  1  1
 22 23  1  0
 23 13  1  0
 24 22  1  0
 24 26  1  0
 25 24  2  0
 27 26  1  0
 27 30  1  0
 27 28  1  1
 28 29  1  0
 30 32  2  0
 30 31  1  0
M  END
$$$$
