WRC.pdb
     RDKit          3D

 32 33  0  0  1  0  0  0  0  0999 V2000
   27.9839  -20.4762  -10.3090 N   0  0  0  0  0  0  0  0  0  0  0  0
   26.6880  -20.9552   -9.8439 C   0  0  1  0  0  0  0  0  0  0  0  0
   26.1046  -19.9433   -8.8740 C   0  0  0  0  0  0  0  0  0  0  0  0
   27.0861  -19.5947   -7.8220 C   0  0  0  0  0  0  0  0  0  0  0  0
   28.1164  -18.6644   -7.8468 C   0  0  0  0  0  0  0  0  0  0  0  0
   28.7635  -18.6778   -6.6622 N   0  0  0  0  0  0  0  0  0  0  0  0
   28.2009  -19.5860   -5.8452 C   0  0  0  0  0  0  0  0  0  0  0  0
   28.4902  -19.9814   -4.5354 C   0  0  0  0  0  0  0  0  0  0  0  0
   27.7118  -20.9554   -3.9736 C   0  0  0  0  0  0  0  0  0  0  0  0
   26.6640  -21.5469   -4.6601 C   0  0  0  0  0  0  0  0  0  0  0  0
   26.4054  -21.1375   -5.9427 C   0  0  0  0  0  0  0  0  0  0  0  0
   27.1655  -20.1566   -6.5514 C   0  0  0  0  0  0  0  0  0  0  0  0
   25.7647  -20.9770  -11.0342 C   0  0  0  0  0  0  0  0  0  0  0  0
   25.7939  -20.0580  -11.8894 O   0  0  0  0  0  0  0  0  0  0  0  0
   27.1346  -20.7068  -15.7013 N   0  0  0  0  0  0  0  0  0  0  0  0
   27.5664  -22.0705  -15.8359 C   0  0  0  0  0  0  0  0  0  0  0  0
   28.7575  -22.3402  -16.2263 N   0  0  0  0  0  0  0  0  0  0  0  0
   26.6945  -23.1548  -15.5458 N   0  0  0  0  0  0  0  0  0  0  0  0
   25.4175  -22.9583  -14.8942 C   0  0  0  0  0  0  0  0  0  0  0  0
   25.2013  -23.8140  -13.6991 C   0  0  0  0  0  0  0  0  0  0  0  0
   23.9203  -23.4377  -13.0091 C   0  0  0  0  0  0  0  0  0  0  0  0
   24.0139  -22.0803  -12.4001 C   0  0  2  0  0  0  0  0  0  0  0  0
   24.8428  -22.0312  -11.2189 N   0  0  0  0  0  0  0  0  0  0  0  0
   22.6137  -21.7215  -11.9492 C   0  0  0  0  0  0  0  0  0  0  0  0
   22.2210  -22.0935  -10.8288 O   0  0  0  0  0  0  0  0  0  0  0  0
   29.0087  -23.3403  -16.3799 N   0  0  0  0  0  0  0  0  0  0  0  0
   21.7386  -20.9817  -12.7513 C   0  0  2  0  0  0  0  0  0  0  0  0
   20.4183  -20.6349  -12.2697 C   0  0  0  0  0  0  0  0  0  0  0  0
   20.5852  -19.4940  -11.3017 S   0  0  0  0  0  0  0  0  0  0  0  0
   21.0623  -17.9572  -12.1095 C   0  0  0  0  0  0  0  0  0  0  0  0
   19.5362  -20.2723  -13.4088 O   0  0  0  0  0  0  0  0  0  0  0  0
   20.0025  -20.2063  -14.6995 O   0  0  0  0  0  0  0  0  0  0  0  0
  2  1  1  6
  2  3  1  0
  4  3  1  0
  5  4  2  0
  6  7  1  0
  6  5  1  0
  7 12  2  0
  8  9  2  0
  8  7  1  0
  9 10  1  0
 10 11  2  0
 12  4  1  0
 12 11  1  0
 13 14  2  0
 13  2  1  0
 16 15  1  0
 17 16  2  0
 18 16  1  0
 19 18  1  0
 20 19  1  0
 20 21  1  0
 22 21  1  1
 22 23  1  0
 23 13  1  0
 24 22  1  0
 24 26  1  0
 25 24  2  0
 27 26  1  0
 27 30  1  0
 27 28  1  1
 28 29  1  0
 30 32  2  0
 30 31  1  0
M  END
$$$$
