WFS.pdb
     RDKit          3D

 32 34  0  0  1  0  0  0  0  0999 V2000
    7.6238  -19.0428   21.5113 N   0  0  0  0  0  0  0  0  0  0  0  0
    8.0634  -17.7501   21.0572 C   0  0  1  0  0  0  0  0  0  0  0  0
    6.9097  -16.9151   20.5457 C   0  0  0  0  0  0  0  0  0  0  0  0
    7.4244  -15.6611   19.9469 C   0  0  0  0  0  0  0  0  0  0  0  0
    7.8256  -15.5114   18.6103 C   0  0  0  0  0  0  0  0  0  0  0  0
    8.1903  -14.2351   18.4714 N   0  0  0  0  0  0  0  0  0  0  0  0
    8.0594  -13.5384   19.6140 C   0  0  0  0  0  0  0  0  0  0  0  0
    8.3183  -12.2028   19.9483 C   0  0  0  0  0  0  0  0  0  0  0  0
    8.1054  -11.7266   21.2202 C   0  0  0  0  0  0  0  0  0  0  0  0
    7.6248  -12.6053   22.1747 C   0  0  0  0  0  0  0  0  0  0  0  0
    7.3721  -13.9362   21.8204 C   0  0  0  0  0  0  0  0  0  0  0  0
    7.5784  -14.4252   20.5540 C   0  0  0  0  0  0  0  0  0  0  0  0
    8.8056  -17.0208   22.1198 C   0  0  0  0  0  0  0  0  0  0  0  0
    9.7737  -16.2605   21.7663 O   0  0  0  0  0  0  0  0  0  0  0  0
    8.5212  -17.0993   23.5028 N   0  0  0  0  0  0  0  0  0  0  0  0
    9.3226  -16.3844   24.4950 C   0  0  1  0  0  0  0  0  0  0  0  0
    8.4423  -15.9607   25.6526 C   0  0  0  0  0  0  0  0  0  0  0  0
    9.1121  -15.2188   26.7084 C   0  0  0  0  0  0  0  0  0  0  0  0
    9.1499  -13.8412   26.7408 C   0  0  0  0  0  0  0  0  0  0  0  0
    9.7695  -13.1293   27.7348 C   0  0  0  0  0  0  0  0  0  0  0  0
   10.3904  -13.7876   28.7600 C   0  0  0  0  0  0  0  0  0  0  0  0
   10.3782  -15.1673   28.7693 C   0  0  0  0  0  0  0  0  0  0  0  0
    9.7402  -15.8636   27.7447 C   0  0  0  0  0  0  0  0  0  0  0  0
   10.4906  -17.1463   24.8863 C   0  0  0  0  0  0  0  0  0  0  0  0
   10.4638  -18.3114   25.3746 O   0  0  0  0  0  0  0  0  0  0  0  0
   14.3042  -15.7677   23.9511 O   0  0  0  0  0  0  0  0  0  0  0  0
   14.0546  -17.1540   23.9136 C   0  0  0  0  0  0  0  0  0  0  0  0
   12.9763  -17.4178   24.9282 C   0  0  2  0  0  0  0  0  0  0  0  0
   11.8005  -16.5920   24.7321 N   0  0  0  0  0  0  0  0  0  0  0  0
   13.5692  -17.1693   26.2804 C   0  0  0  0  0  0  0  0  0  0  0  0
   13.0040  -16.3156   27.0142 O   0  0  0  0  0  0  0  0  0  0  0  0
   14.6994  -17.8553   26.7062 O   0  0  0  0  0  0  0  0  0  0  0  0
  2  1  1  1
  3  4  1  0
  3  2  1  0
  4  5  2  0
  5  6  1  0
  7  6  1  0
  8  7  2  0
  9  8  1  0
 10 11  1  0
 10  9  2  0
 11 12  2  0
 12  4  1  0
 12  7  1  0
 13  2  1  0
 13 14  2  0
 15 13  1  0
 16 15  1  0
 16 17  1  1
 18 23  1  0
 18 17  1  0
 19 18  2  0
 20 21  2  0
 20 19  1  0
 21 22  1  0
 22 23  2  0
 24 16  1  0
 25 24  2  0
 27 26  1  0
 28 27  1  6
 28 29  1  0
 29 24  1  0
 30 28  1  0
 31 30  2  0
 32 30  1  0
M  END
$$$$
