WFS.pdb
     RDKit          3D

 32 34  0  0  1  0  0  0  0  0999 V2000
    8.0009  -19.0872   26.8558 N   0  0  0  0  0  0  0  0  0  0  0  0
    8.2914  -17.7238   26.4987 C   0  0  1  0  0  0  0  0  0  0  0  0
    9.7019  -17.3335   26.8835 C   0  0  0  0  0  0  0  0  0  0  0  0
    9.6706  -16.1387   27.7596 C   0  0  0  0  0  0  0  0  0  0  0  0
   10.1398  -16.0961   29.0817 C   0  0  0  0  0  0  0  0  0  0  0  0
    9.9585  -14.8421   29.5012 N   0  0  0  0  0  0  0  0  0  0  0  0
    9.4065  -14.0612   28.5560 C   0  0  0  0  0  0  0  0  0  0  0  0
    9.0327  -12.7112   28.5369 C   0  0  0  0  0  0  0  0  0  0  0  0
    8.4650  -12.1389   27.4233 C   0  0  0  0  0  0  0  0  0  0  0  0
    8.2679  -12.9343   26.3086 C   0  0  0  0  0  0  0  0  0  0  0  0
    8.6486  -14.2812   26.3477 C   0  0  0  0  0  0  0  0  0  0  0  0
    9.2179  -14.8658   27.4521 C   0  0  0  0  0  0  0  0  0  0  0  0
    8.0571  -17.4763   25.0510 C   0  0  0  0  0  0  0  0  0  0  0  0
    8.3699  -18.4013   24.2224 O   0  0  0  0  0  0  0  0  0  0  0  0
    7.5077  -16.2895   24.5131 N   0  0  0  0  0  0  0  0  0  0  0  0
    7.7123  -15.9113   23.1156 C   0  0  1  0  0  0  0  0  0  0  0  0
    7.0195  -14.5935   22.8369 C   0  0  0  0  0  0  0  0  0  0  0  0
    7.1752  -14.0787   21.4862 C   0  0  0  0  0  0  0  0  0  0  0  0
    7.8906  -12.9347   21.2038 C   0  0  0  0  0  0  0  0  0  0  0  0
    8.0531  -12.4436   19.9346 C   0  0  0  0  0  0  0  0  0  0  0  0
    7.4905  -13.0970   18.8731 C   0  0  0  0  0  0  0  0  0  0  0  0
    6.7652  -14.2470   19.1078 C   0  0  0  0  0  0  0  0  0  0  0  0
    6.6173  -14.7218   20.4095 C   0  0  0  0  0  0  0  0  0  0  0  0
    9.1157  -15.9305   22.7580 C   0  0  0  0  0  0  0  0  0  0  0  0
   10.0230  -15.2846   23.3550 O   0  0  0  0  0  0  0  0  0  0  0  0
   10.7313  -18.9881   20.8863 O   0  0  0  0  0  0  0  0  0  0  0  0
   11.6370  -18.0361   21.3951 C   0  0  0  0  0  0  0  0  0  0  0  0
   10.9651  -16.6975   21.2593 C   0  0  2  0  0  0  0  0  0  0  0  0
    9.5704  -16.7215   21.6560 N   0  0  0  0  0  0  0  0  0  0  0  0
   11.0934  -16.2799   19.8272 C   0  0  0  0  0  0  0  0  0  0  0  0
   10.0295  -16.1039   19.1762 O   0  0  0  0  0  0  0  0  0  0  0  0
   12.3393  -16.0948   19.2419 O   0  0  0  0  0  0  0  0  0  0  0  0
  2  1  1  6
  3  4  1  0
  3  2  1  0
  4  5  2  0
  5  6  1  0
  7  6  1  0
  8  7  2  0
  9  8  1  0
 10 11  1  0
 10  9  2  0
 11 12  2  0
 12  4  1  0
 12  7  1  0
 13  2  1  0
 13 14  2  0
 15 13  1  0
 16 15  1  0
 16 17  1  1
 18 23  1  0
 18 17  1  0
 19 18  2  0
 20 21  2  0
 20 19  1  0
 21 22  1  0
 22 23  2  0
 24 16  1  0
 25 24  2  0
 27 26  1  0
 28 27  1  6
 28 29  1  0
 29 24  1  0
 30 28  1  0
 31 30  2  0
 32 30  1  0
M  END
$$$$
