WFS.pdb
     RDKit          3D

 32 34  0  0  1  0  0  0  0  0999 V2000
    7.3851  -15.1208   20.2148 N   0  0  0  0  0  0  0  0  0  0  0  0
    6.8377  -16.0360   21.1810 C   0  0  1  0  0  0  0  0  0  0  0  0
    6.8285  -17.4574   20.6619 C   0  0  0  0  0  0  0  0  0  0  0  0
    5.4811  -17.7942   20.1448 C   0  0  0  0  0  0  0  0  0  0  0  0
    5.1414  -17.8972   18.7869 C   0  0  0  0  0  0  0  0  0  0  0  0
    3.8531  -18.2439   18.7504 N   0  0  0  0  0  0  0  0  0  0  0  0
    3.3235  -18.3749   19.9794 C   0  0  0  0  0  0  0  0  0  0  0  0
    2.0402  -18.7089   20.4311 C   0  0  0  0  0  0  0  0  0  0  0  0
    1.7434  -18.7670   21.7722 C   0  0  0  0  0  0  0  0  0  0  0  0
    2.7512  -18.4847   22.6771 C   0  0  0  0  0  0  0  0  0  0  0  0
    4.0273  -18.1534   22.2053 C   0  0  0  0  0  0  0  0  0  0  0  0
    4.3384  -18.0930   20.8693 C   0  0  0  0  0  0  0  0  0  0  0  0
    7.5605  -15.9580   22.4784 C   0  0  0  0  0  0  0  0  0  0  0  0
    8.8051  -15.6568   22.4585 O   0  0  0  0  0  0  0  0  0  0  0  0
    6.9747  -16.1893   23.7445 N   0  0  0  0  0  0  0  0  0  0  0  0
    7.7428  -16.0637   24.9823 C   0  0  1  0  0  0  0  0  0  0  0  0
    6.8553  -15.5145   26.0800 C   0  0  0  0  0  0  0  0  0  0  0  0
    6.8398  -14.0661   26.2054 C   0  0  0  0  0  0  0  0  0  0  0  0
    7.7967  -13.3702   26.9127 C   0  0  0  0  0  0  0  0  0  0  0  0
    7.7993  -12.0047   27.0310 C   0  0  0  0  0  0  0  0  0  0  0  0
    6.8181  -11.2660   26.4297 C   0  0  0  0  0  0  0  0  0  0  0  0
    5.8387  -11.9199   25.7108 C   0  0  0  0  0  0  0  0  0  0  0  0
    5.8624  -13.3093   25.6084 C   0  0  0  0  0  0  0  0  0  0  0  0
    8.4100  -17.3031   25.3238 C   0  0  0  0  0  0  0  0  0  0  0  0
    7.8242  -18.3925   25.5822 O   0  0  0  0  0  0  0  0  0  0  0  0
   12.1865  -17.8088   24.2606 O   0  0  0  0  0  0  0  0  0  0  0  0
   11.5097  -18.9942   24.6102 C   0  0  0  0  0  0  0  0  0  0  0  0
   10.5110  -18.6151   25.6688 C   0  0  2  0  0  0  0  0  0  0  0  0
    9.8381  -17.3614   25.3890 N   0  0  0  0  0  0  0  0  0  0  0  0
   11.2513  -18.5317   26.9676 C   0  0  0  0  0  0  0  0  0  0  0  0
   11.2218  -17.4332   27.5832 O   0  0  0  0  0  0  0  0  0  0  0  0
   11.9432  -19.6256   27.4714 O   0  0  0  0  0  0  0  0  0  0  0  0
  2  1  1  6
  3  4  1  0
  3  2  1  0
  4  5  2  0
  5  6  1  0
  7  6  1  0
  8  7  2  0
  9  8  1  0
 10 11  1  0
 10  9  2  0
 11 12  2  0
 12  4  1  0
 12  7  1  0
 13  2  1  0
 13 14  2  0
 15 13  1  0
 16 15  1  0
 16 17  1  1
 18 23  1  0
 18 17  1  0
 19 18  2  0
 20 21  2  0
 20 19  1  0
 21 22  1  0
 22 23  2  0
 24 16  1  0
 25 24  2  0
 27 26  1  0
 28 27  1  6
 28 29  1  0
 29 24  1  0
 30 28  1  0
 31 30  2  0
 32 30  1  0
M  END
$$$$
