WFS.pdb
     RDKit          3D

 32 34  0  0  1  0  0  0  0  0999 V2000
    9.0619  -17.5036   20.4488 N   0  0  0  0  0  0  0  0  0  0  0  0
    8.9568  -16.4235   21.3938 C   0  0  1  0  0  0  0  0  0  0  0  0
    7.5349  -15.9186   21.5099 C   0  0  0  0  0  0  0  0  0  0  0  0
    7.5345  -14.5415   22.0573 C   0  0  0  0  0  0  0  0  0  0  0  0
    7.9436  -13.3957   21.3575 C   0  0  0  0  0  0  0  0  0  0  0  0
    7.7611  -12.3669   22.1878 N   0  0  0  0  0  0  0  0  0  0  0  0
    7.2650  -12.7511   23.3771 C   0  0  0  0  0  0  0  0  0  0  0  0
    6.9245  -12.0451   24.5382 C   0  0  0  0  0  0  0  0  0  0  0  0
    6.4343  -12.6866   25.6509 C   0  0  0  0  0  0  0  0  0  0  0  0
    6.2831  -14.0609   25.5991 C   0  0  0  0  0  0  0  0  0  0  0  0
    6.6289  -14.7480   24.4291 C   0  0  0  0  0  0  0  0  0  0  0  0
    7.1180  -14.1205   23.3100 C   0  0  0  0  0  0  0  0  0  0  0  0
    9.4840  -16.8122   22.7290 C   0  0  0  0  0  0  0  0  0  0  0  0
   10.5478  -17.5240   22.7737 O   0  0  0  0  0  0  0  0  0  0  0  0
    8.8990  -16.4513   23.9648 N   0  0  0  0  0  0  0  0  0  0  0  0
    9.6999  -16.2906   25.1775 C   0  0  1  0  0  0  0  0  0  0  0  0
    8.9597  -15.4126   26.1652 C   0  0  0  0  0  0  0  0  0  0  0  0
    9.6532  -15.1580   27.4173 C   0  0  0  0  0  0  0  0  0  0  0  0
   10.2668  -13.9557   27.6968 C   0  0  0  0  0  0  0  0  0  0  0  0
   10.9159  -13.6991   28.8765 C   0  0  0  0  0  0  0  0  0  0  0  0
   10.9760  -14.6622   29.8455 C   0  0  0  0  0  0  0  0  0  0  0  0
   10.3757  -15.8819   29.6098 C   0  0  0  0  0  0  0  0  0  0  0  0
    9.7232  -16.1133   28.4005 C   0  0  0  0  0  0  0  0  0  0  0  0
   10.1144  -17.5697   25.7160 C   0  0  0  0  0  0  0  0  0  0  0  0
    9.4347  -18.2715   26.5174 O   0  0  0  0  0  0  0  0  0  0  0  0
   13.2867  -19.1456   24.1175 O   0  0  0  0  0  0  0  0  0  0  0  0
   12.8174  -20.1066   25.0349 C   0  0  0  0  0  0  0  0  0  0  0  0
   11.7987  -19.4097   25.8942 C   0  0  2  0  0  0  0  0  0  0  0  0
   11.3775  -18.1332   25.3500 N   0  0  0  0  0  0  0  0  0  0  0  0
   12.4124  -19.2236   27.2471 C   0  0  0  0  0  0  0  0  0  0  0  0
   12.5247  -18.0447   27.6766 O   0  0  0  0  0  0  0  0  0  0  0  0
   12.8405  -20.3112   27.9974 O   0  0  0  0  0  0  0  0  0  0  0  0
  2  1  1  6
  3  4  1  0
  3  2  1  0
  4  5  2  0
  5  6  1  0
  7  6  1  0
  8  7  2  0
  9  8  1  0
 10 11  1  0
 10  9  2  0
 11 12  2  0
 12  4  1  0
 12  7  1  0
 13  2  1  0
 13 14  2  0
 15 13  1  0
 16 15  1  0
 16 17  1  1
 18 23  1  0
 18 17  1  0
 19 18  2  0
 20 21  2  0
 20 19  1  0
 21 22  1  0
 22 23  2  0
 24 16  1  0
 25 24  2  0
 27 26  1  0
 28 27  1  6
 28 29  1  0
 29 24  1  0
 30 28  1  0
 31 30  2  0
 32 30  1  0
M  END
$$$$
