WFS.pdb
     RDKit          3D

 32 34  0  0  1  0  0  0  0  0999 V2000
    8.8746  -17.0863   20.7831 N   0  0  0  0  0  0  0  0  0  0  0  0
    8.9566  -16.4048   22.0478 C   0  0  1  0  0  0  0  0  0  0  0  0
    7.5943  -16.2478   22.6877 C   0  0  0  0  0  0  0  0  0  0  0  0
    7.3878  -14.8362   23.0887 C   0  0  0  0  0  0  0  0  0  0  0  0
    7.5510  -13.7263   22.2451 C   0  0  0  0  0  0  0  0  0  0  0  0
    7.2424  -12.6536   22.9768 N   0  0  0  0  0  0  0  0  0  0  0  0
    6.8907  -12.9758   24.2339 C   0  0  0  0  0  0  0  0  0  0  0  0
    6.5019  -12.2074   25.3390 C   0  0  0  0  0  0  0  0  0  0  0  0
    6.1960  -12.7894   26.5464 C   0  0  0  0  0  0  0  0  0  0  0  0
    6.2819  -14.1665   26.6482 C   0  0  0  0  0  0  0  0  0  0  0  0
    6.6721  -14.9165   25.5319 C   0  0  0  0  0  0  0  0  0  0  0  0
    6.9790  -14.3491   24.3198 C   0  0  0  0  0  0  0  0  0  0  0  0
    9.8949  -17.0885   22.9773 C   0  0  0  0  0  0  0  0  0  0  0  0
    9.6808  -18.3209   23.2522 O   0  0  0  0  0  0  0  0  0  0  0  0
   11.0175  -16.4796   23.5843 N   0  0  0  0  0  0  0  0  0  0  0  0
   11.1186  -16.3248   25.0348 C   0  0  1  0  0  0  0  0  0  0  0  0
   10.2774  -15.1472   25.4820 C   0  0  0  0  0  0  0  0  0  0  0  0
   10.3567  -14.8240   26.8973 C   0  0  0  0  0  0  0  0  0  0  0  0
    9.7020  -13.7451   27.4519 C   0  0  0  0  0  0  0  0  0  0  0  0
    9.7606  -13.4345   28.7856 C   0  0  0  0  0  0  0  0  0  0  0  0
   10.4961  -14.2132   29.6357 C   0  0  0  0  0  0  0  0  0  0  0  0
   11.1687  -15.3043   29.1251 C   0  0  0  0  0  0  0  0  0  0  0  0
   11.0902  -15.5947   27.7645 C   0  0  0  0  0  0  0  0  0  0  0  0
   10.8203  -17.5626   25.7251 C   0  0  0  0  0  0  0  0  0  0  0  0
    9.8500  -17.7338   26.5163 O   0  0  0  0  0  0  0  0  0  0  0  0
   11.5969  -22.2728   26.3246 O   0  0  0  0  0  0  0  0  0  0  0  0
   12.0692  -21.1384   25.6350 C   0  0  0  0  0  0  0  0  0  0  0  0
   11.3496  -19.9557   26.2225 C   0  0  2  0  0  0  0  0  0  0  0  0
   11.6495  -18.7133   25.5374 N   0  0  0  0  0  0  0  0  0  0  0  0
   11.7463  -19.8661   27.6635 C   0  0  0  0  0  0  0  0  0  0  0  0
   12.3533  -18.8268   28.0351 O   0  0  0  0  0  0  0  0  0  0  0  0
   11.4549  -20.8916   28.5538 O   0  0  0  0  0  0  0  0  0  0  0  0
  2  1  1  6
  3  4  1  0
  3  2  1  0
  4  5  2  0
  5  6  1  0
  7  6  1  0
  8  7  2  0
  9  8  1  0
 10 11  1  0
 10  9  2  0
 11 12  2  0
 12  4  1  0
 12  7  1  0
 13  2  1  0
 13 14  2  0
 15 13  1  0
 16 15  1  0
 16 17  1  1
 18 23  1  0
 18 17  1  0
 19 18  2  0
 20 21  2  0
 20 19  1  0
 21 22  1  0
 22 23  2  0
 24 16  1  0
 25 24  2  0
 27 26  1  0
 28 27  1  6
 28 29  1  0
 29 24  1  0
 30 28  1  0
 31 30  2  0
 32 30  1  0
M  END
$$$$
