WFS.pdb
     RDKit          3D

 32 34  0  0  1  0  0  0  0  0999 V2000
    7.8241  -18.8077   21.3549 N   0  0  0  0  0  0  0  0  0  0  0  0
    8.9869  -18.0646   20.9471 C   0  0  1  0  0  0  0  0  0  0  0  0
    8.6993  -17.1916   19.7450 C   0  0  0  0  0  0  0  0  0  0  0  0
    7.7057  -16.1528   20.1053 C   0  0  0  0  0  0  0  0  0  0  0  0
    6.3665  -16.4013   20.4443 C   0  0  0  0  0  0  0  0  0  0  0  0
    5.8272  -15.2137   20.7271 N   0  0  0  0  0  0  0  0  0  0  0  0
    6.7098  -14.2074   20.5985 C   0  0  0  0  0  0  0  0  0  0  0  0
    6.6047  -12.8219   20.7773 C   0  0  0  0  0  0  0  0  0  0  0  0
    7.6770  -11.9874   20.5678 C   0  0  0  0  0  0  0  0  0  0  0  0
    8.8763  -12.5519   20.1712 C   0  0  0  0  0  0  0  0  0  0  0  0
    8.9607  -13.9389   19.9983 C   0  0  0  0  0  0  0  0  0  0  0  0
    7.8988  -14.7844   20.2055 C   0  0  0  0  0  0  0  0  0  0  0  0
    9.5351  -17.2508   22.0648 C   0  0  0  0  0  0  0  0  0  0  0  0
   10.5669  -16.5278   21.8352 O   0  0  0  0  0  0  0  0  0  0  0  0
    8.9990  -17.2099   23.3727 N   0  0  0  0  0  0  0  0  0  0  0  0
    9.6233  -16.4240   24.4360 C   0  0  1  0  0  0  0  0  0  0  0  0
    8.5602  -15.9235   25.3918 C   0  0  0  0  0  0  0  0  0  0  0  0
    9.0418  -15.0915   26.4825 C   0  0  0  0  0  0  0  0  0  0  0  0
    8.9504  -13.7162   26.4655 C   0  0  0  0  0  0  0  0  0  0  0  0
    9.3918  -12.9205   27.4906 C   0  0  0  0  0  0  0  0  0  0  0  0
    9.9558  -13.4874   28.5999 C   0  0  0  0  0  0  0  0  0  0  0  0
   10.0683  -14.8612   28.6611 C   0  0  0  0  0  0  0  0  0  0  0  0
    9.6105  -15.6439   27.6031 C   0  0  0  0  0  0  0  0  0  0  0  0
   10.7000  -17.1520   25.0752 C   0  0  0  0  0  0  0  0  0  0  0  0
   10.5941  -18.3067   25.5772 O   0  0  0  0  0  0  0  0  0  0  0  0
   14.5995  -15.6287   25.1040 O   0  0  0  0  0  0  0  0  0  0  0  0
   14.4116  -17.0083   24.8877 C   0  0  0  0  0  0  0  0  0  0  0  0
   13.1361  -17.3777   25.5937 C   0  0  2  0  0  0  0  0  0  0  0  0
   12.0044  -16.5729   25.1759 N   0  0  0  0  0  0  0  0  0  0  0  0
   13.3787  -17.2148   27.0622 C   0  0  0  0  0  0  0  0  0  0  0  0
   12.5986  -16.4583   27.6992 O   0  0  0  0  0  0  0  0  0  0  0  0
   14.4249  -17.8740   27.6948 O   0  0  0  0  0  0  0  0  0  0  0  0
  2  1  1  1
  3  4  1  0
  3  2  1  0
  4  5  2  0
  5  6  1  0
  7  6  1  0
  8  7  2  0
  9  8  1  0
 10 11  1  0
 10  9  2  0
 11 12  2  0
 12  4  1  0
 12  7  1  0
 13  2  1  0
 13 14  2  0
 15 13  1  0
 16 15  1  0
 16 17  1  1
 18 23  1  0
 18 17  1  0
 19 18  2  0
 20 21  2  0
 20 19  1  0
 21 22  1  0
 22 23  2  0
 24 16  1  0
 25 24  2  0
 27 26  1  0
 28 27  1  6
 28 29  1  0
 29 24  1  0
 30 28  1  0
 31 30  2  0
 32 30  1  0
M  END
$$$$
