WFS.pdb
     RDKit          3D

 32 34  0  0  1  0  0  0  0  0999 V2000
    7.1266  -18.1240   22.5180 N   0  0  0  0  0  0  0  0  0  0  0  0
    7.6414  -16.7888   22.3670 C   0  0  1  0  0  0  0  0  0  0  0  0
    6.5524  -15.8094   21.9865 C   0  0  0  0  0  0  0  0  0  0  0  0
    6.8636  -15.1983   20.6728 C   0  0  0  0  0  0  0  0  0  0  0  0
    6.6030  -15.7893   19.4267 C   0  0  0  0  0  0  0  0  0  0  0  0
    7.0018  -14.9091   18.5061 N   0  0  0  0  0  0  0  0  0  0  0  0
    7.5037  -13.7882   19.0536 C   0  0  0  0  0  0  0  0  0  0  0  0
    8.0392  -12.6175   18.5010 C   0  0  0  0  0  0  0  0  0  0  0  0
    8.5052  -11.5966   19.2950 C   0  0  0  0  0  0  0  0  0  0  0  0
    8.4338  -11.7521   20.6679 C   0  0  0  0  0  0  0  0  0  0  0  0
    7.8948  -12.9297   21.2004 C   0  0  0  0  0  0  0  0  0  0  0  0
    7.4243  -13.9567   20.4198 C   0  0  0  0  0  0  0  0  0  0  0  0
    8.3485  -16.3336   23.5936 C   0  0  0  0  0  0  0  0  0  0  0  0
    9.2908  -15.4761   23.4638 O   0  0  0  0  0  0  0  0  0  0  0  0
    8.0566  -16.7752   24.9050 N   0  0  0  0  0  0  0  0  0  0  0  0
    8.9169  -16.4405   26.0389 C   0  0  1  0  0  0  0  0  0  0  0  0
    8.0933  -15.7857   27.1285 C   0  0  0  0  0  0  0  0  0  0  0  0
    7.6396  -14.4344   26.8423 C   0  0  0  0  0  0  0  0  0  0  0  0
    8.4597  -13.3330   26.9627 C   0  0  0  0  0  0  0  0  0  0  0  0
    8.0478  -12.0551   26.6873 C   0  0  0  0  0  0  0  0  0  0  0  0
    6.7656  -11.8266   26.2703 C   0  0  0  0  0  0  0  0  0  0  0  0
    5.9084  -12.8993   26.1353 C   0  0  0  0  0  0  0  0  0  0  0  0
    6.3561  -14.1872   26.4229 C   0  0  0  0  0  0  0  0  0  0  0  0
    9.6835  -17.5864   26.4829 C   0  0  0  0  0  0  0  0  0  0  0  0
    9.2781  -18.4512   27.3103 O   0  0  0  0  0  0  0  0  0  0  0  0
   13.3328  -18.3846   24.7663 O   0  0  0  0  0  0  0  0  0  0  0  0
   12.6346  -19.5073   25.2536 C   0  0  0  0  0  0  0  0  0  0  0  0
   11.7391  -19.0049   26.3524 C   0  0  2  0  0  0  0  0  0  0  0  0
   11.0051  -17.8102   25.9825 N   0  0  0  0  0  0  0  0  0  0  0  0
   12.6058  -18.7373   27.5436 C   0  0  0  0  0  0  0  0  0  0  0  0
   12.6037  -17.5681   28.0123 O   0  0  0  0  0  0  0  0  0  0  0  0
   13.3814  -19.7420   28.1077 O   0  0  0  0  0  0  0  0  0  0  0  0
  2  1  1  1
  3  4  1  0
  3  2  1  0
  4  5  2  0
  5  6  1  0
  7  6  1  0
  8  7  2  0
  9  8  1  0
 10 11  1  0
 10  9  2  0
 11 12  2  0
 12  4  1  0
 12  7  1  0
 13  2  1  0
 13 14  2  0
 15 13  1  0
 16 15  1  0
 16 17  1  1
 18 23  1  0
 18 17  1  0
 19 18  2  0
 20 21  2  0
 20 19  1  0
 21 22  1  0
 22 23  2  0
 24 16  1  0
 25 24  2  0
 27 26  1  0
 28 27  1  6
 28 29  1  0
 29 24  1  0
 30 28  1  0
 31 30  2  0
 32 30  1  0
M  END
$$$$
