WFS.pdb
     RDKit          3D

 32 34  0  0  1  0  0  0  0  0999 V2000
   10.2438  -15.0642   21.6269 N   0  0  0  0  0  0  0  0  0  0  0  0
    9.0440  -15.4587   22.3163 C   0  0  1  0  0  0  0  0  0  0  0  0
    8.2444  -16.4640   21.5163 C   0  0  0  0  0  0  0  0  0  0  0  0
    7.7188  -15.8236   20.2876 C   0  0  0  0  0  0  0  0  0  0  0  0
    6.8789  -16.4454   19.3506 C   0  0  0  0  0  0  0  0  0  0  0  0
    6.6143  -15.5263   18.4198 N   0  0  0  0  0  0  0  0  0  0  0  0
    7.2166  -14.3515   18.6750 C   0  0  0  0  0  0  0  0  0  0  0  0
    7.2378  -13.1264   17.9958 C   0  0  0  0  0  0  0  0  0  0  0  0
    7.9559  -12.0545   18.4703 C   0  0  0  0  0  0  0  0  0  0  0  0
    8.6663  -12.2135   19.6468 C   0  0  0  0  0  0  0  0  0  0  0  0
    8.6320  -13.4459   20.3107 C   0  0  0  0  0  0  0  0  0  0  0  0
    7.9181  -14.5243   19.8495 C   0  0  0  0  0  0  0  0  0  0  0  0
    9.3426  -15.9892   23.6732 C   0  0  0  0  0  0  0  0  0  0  0  0
   10.5599  -16.2674   23.9579 O   0  0  0  0  0  0  0  0  0  0  0  0
    8.3790  -16.2096   24.6844 N   0  0  0  0  0  0  0  0  0  0  0  0
    8.7517  -16.3037   26.0952 C   0  0  1  0  0  0  0  0  0  0  0  0
    7.6655  -15.6870   26.9521 C   0  0  0  0  0  0  0  0  0  0  0  0
    7.4827  -14.2534   26.7935 C   0  0  0  0  0  0  0  0  0  0  0  0
    8.4412  -13.3354   27.1658 C   0  0  0  0  0  0  0  0  0  0  0  0
    8.2857  -11.9821   27.0133 C   0  0  0  0  0  0  0  0  0  0  0  0
    7.1344  -11.4850   26.4680 C   0  0  0  0  0  0  0  0  0  0  0  0
    6.1466  -12.3667   26.0803 C   0  0  0  0  0  0  0  0  0  0  0  0
    6.3335  -13.7374   26.2481 C   0  0  0  0  0  0  0  0  0  0  0  0
    9.1002  -17.6600   26.4652 C   0  0  0  0  0  0  0  0  0  0  0  0
    8.2874  -18.6258   26.5218 O   0  0  0  0  0  0  0  0  0  0  0  0
   12.2655  -19.1560   25.4446 O   0  0  0  0  0  0  0  0  0  0  0  0
   12.0905  -19.8262   26.6717 C   0  0  0  0  0  0  0  0  0  0  0  0
   10.7891  -19.3330   27.2417 C   0  0  2  0  0  0  0  0  0  0  0  0
   10.4502  -17.9934   26.8020 N   0  0  0  0  0  0  0  0  0  0  0  0
   10.9130  -19.3773   28.7332 C   0  0  0  0  0  0  0  0  0  0  0  0
   10.6450  -18.3237   29.3695 O   0  0  0  0  0  0  0  0  0  0  0  0
   11.3088  -20.5371   29.3869 O   0  0  0  0  0  0  0  0  0  0  0  0
  2  1  1  6
  3  4  1  0
  3  2  1  0
  4  5  2  0
  5  6  1  0
  7  6  1  0
  8  7  2  0
  9  8  1  0
 10 11  1  0
 10  9  2  0
 11 12  2  0
 12  4  1  0
 12  7  1  0
 13  2  1  0
 13 14  2  0
 15 13  1  0
 16 15  1  0
 16 17  1  1
 18 23  1  0
 18 17  1  0
 19 18  2  0
 20 21  2  0
 20 19  1  0
 21 22  1  0
 22 23  2  0
 24 16  1  0
 25 24  2  0
 27 26  1  0
 28 27  1  6
 28 29  1  0
 29 24  1  0
 30 28  1  0
 31 30  2  0
 32 30  1  0
M  END
$$$$
