WFS.pdb
     RDKit          3D

 32 34  0  0  1  0  0  0  0  0999 V2000
    8.4222  -17.5237   21.1646 N   0  0  0  0  0  0  0  0  0  0  0  0
    9.7759  -17.3316   21.6132 C   0  0  1  0  0  0  0  0  0  0  0  0
   10.5168  -16.3377   20.7451 C   0  0  0  0  0  0  0  0  0  0  0  0
    9.5711  -15.3212   20.2271 C   0  0  0  0  0  0  0  0  0  0  0  0
    9.2012  -15.1761   18.8809 C   0  0  0  0  0  0  0  0  0  0  0  0
    8.3179  -14.1763   18.8428 N   0  0  0  0  0  0  0  0  0  0  0  0
    8.0820  -13.6555   20.0598 C   0  0  0  0  0  0  0  0  0  0  0  0
    7.2582  -12.6133   20.5047 C   0  0  0  0  0  0  0  0  0  0  0  0
    7.2009  -12.2599   21.8320 C   0  0  0  0  0  0  0  0  0  0  0  0
    7.9840  -12.9633   22.7297 C   0  0  0  0  0  0  0  0  0  0  0  0
    8.8004  -14.0018   22.2650 C   0  0  0  0  0  0  0  0  0  0  0  0
    8.8665  -14.3668   20.9430 C   0  0  0  0  0  0  0  0  0  0  0  0
    9.8251  -16.9172   23.0406 C   0  0  0  0  0  0  0  0  0  0  0  0
   10.9446  -16.5128   23.5133 O   0  0  0  0  0  0  0  0  0  0  0  0
    8.7212  -16.9318   23.9244 N   0  0  0  0  0  0  0  0  0  0  0  0
    8.8742  -16.6524   25.3514 C   0  0  1  0  0  0  0  0  0  0  0  0
    7.5661  -16.1353   25.9133 C   0  0  0  0  0  0  0  0  0  0  0  0
    7.4725  -14.6911   26.0514 C   0  0  0  0  0  0  0  0  0  0  0  0
    6.3524  -13.9791   25.6789 C   0  0  0  0  0  0  0  0  0  0  0  0
    6.2473  -12.6190   25.8123 C   0  0  0  0  0  0  0  0  0  0  0  0
    7.2871  -11.9027   26.3374 C   0  0  0  0  0  0  0  0  0  0  0  0
    8.4291  -12.5733   26.7243 C   0  0  0  0  0  0  0  0  0  0  0  0
    8.5065  -13.9567   26.5763 C   0  0  0  0  0  0  0  0  0  0  0  0
    9.4157  -17.7920   26.0628 C   0  0  0  0  0  0  0  0  0  0  0  0
    8.8208  -18.8957   26.2199 O   0  0  0  0  0  0  0  0  0  0  0  0
   13.3024  -17.7486   27.4691 O   0  0  0  0  0  0  0  0  0  0  0  0
   12.7352  -19.0152   27.2257 C   0  0  0  0  0  0  0  0  0  0  0  0
   11.2493  -18.8528   27.3920 C   0  0  2  0  0  0  0  0  0  0  0  0
   10.7171  -17.7242   26.6532 N   0  0  0  0  0  0  0  0  0  0  0  0
   10.9819  -18.6911   28.8563 C   0  0  0  0  0  0  0  0  0  0  0  0
   10.2988  -17.6956   29.2153 O   0  0  0  0  0  0  0  0  0  0  0  0
   11.4701  -19.6055   29.7808 O   0  0  0  0  0  0  0  0  0  0  0  0
  2  1  1  6
  3  4  1  0
  3  2  1  0
  4  5  2  0
  5  6  1  0
  7  6  1  0
  8  7  2  0
  9  8  1  0
 10 11  1  0
 10  9  2  0
 11 12  2  0
 12  4  1  0
 12  7  1  0
 13  2  1  0
 13 14  2  0
 15 13  1  0
 16 15  1  0
 16 17  1  1
 18 23  1  0
 18 17  1  0
 19 18  2  0
 20 21  2  0
 20 19  1  0
 21 22  1  0
 22 23  2  0
 24 16  1  0
 25 24  2  0
 27 26  1  0
 28 27  1  1
 28 29  1  0
 29 24  1  0
 30 28  1  0
 31 30  2  0
 32 30  1  0
M  END
$$$$
