WFS.pdb
     RDKit          3D

 32 34  0  0  1  0  0  0  0  0999 V2000
    8.6523  -20.9039   26.8965 N   0  0  0  0  0  0  0  0  0  0  0  0
    8.7607  -19.4703   26.9576 C   0  0  1  0  0  0  0  0  0  0  0  0
   10.2010  -19.0233   27.0826 C   0  0  0  0  0  0  0  0  0  0  0  0
   10.3285  -18.0443   28.1876 C   0  0  0  0  0  0  0  0  0  0  0  0
   10.5159  -18.3738   29.5390 C   0  0  0  0  0  0  0  0  0  0  0  0
   10.6106  -17.2156   30.1954 N   0  0  0  0  0  0  0  0  0  0  0  0
   10.4990  -16.1538   29.3780 C   0  0  0  0  0  0  0  0  0  0  0  0
   10.5275  -14.7717   29.6053 C   0  0  0  0  0  0  0  0  0  0  0  0
   10.3769  -13.8716   28.5771 C   0  0  0  0  0  0  0  0  0  0  0  0
   10.1938  -14.3657   27.2979 C   0  0  0  0  0  0  0  0  0  0  0  0
   10.1687  -15.7505   27.0917 C   0  0  0  0  0  0  0  0  0  0  0  0
   10.3193  -16.6609   28.1084 C   0  0  0  0  0  0  0  0  0  0  0  0
    8.1122  -18.8228   25.7863 C   0  0  0  0  0  0  0  0  0  0  0  0
    8.4428  -19.2235   24.6156 O   0  0  0  0  0  0  0  0  0  0  0  0
    7.1475  -17.7918   25.8647 N   0  0  0  0  0  0  0  0  0  0  0  0
    7.1342  -16.6768   24.9189 C   0  0  1  0  0  0  0  0  0  0  0  0
    6.5560  -15.4470   25.5880 C   0  0  0  0  0  0  0  0  0  0  0  0
    6.6849  -14.2083   24.8378 C   0  0  0  0  0  0  0  0  0  0  0  0
    6.9934  -13.0052   25.4356 C   0  0  0  0  0  0  0  0  0  0  0  0
    7.1271  -11.8321   24.7394 C   0  0  0  0  0  0  0  0  0  0  0  0
    6.9523  -11.8200   23.3832 C   0  0  0  0  0  0  0  0  0  0  0  0
    6.6422  -13.0014   22.7415 C   0  0  0  0  0  0  0  0  0  0  0  0
    6.5127  -14.1782   23.4763 C   0  0  0  0  0  0  0  0  0  0  0  0
    8.4370  -16.4692   24.3210 C   0  0  0  0  0  0  0  0  0  0  0  0
    9.4782  -16.1345   24.9540 O   0  0  0  0  0  0  0  0  0  0  0  0
    8.8574  -17.2037   20.3667 O   0  0  0  0  0  0  0  0  0  0  0  0
   10.0675  -17.3900   21.0642 C   0  0  0  0  0  0  0  0  0  0  0  0
    9.9511  -16.5933   22.3344 C   0  0  2  0  0  0  0  0  0  0  0  0
    8.6221  -16.6414   22.9128 N   0  0  0  0  0  0  0  0  0  0  0  0
   10.3279  -15.1814   22.0086 C   0  0  0  0  0  0  0  0  0  0  0  0
    9.4579  -14.2901   22.1968 O   0  0  0  0  0  0  0  0  0  0  0  0
   11.5892  -14.8697   21.5176 O   0  0  0  0  0  0  0  0  0  0  0  0
  2  1  1  6
  3  4  1  0
  3  2  1  0
  4  5  2  0
  5  6  1  0
  7  6  1  0
  8  7  2  0
  9  8  1  0
 10 11  1  0
 10  9  2  0
 11 12  2  0
 12  4  1  0
 12  7  1  0
 13  2  1  0
 13 14  2  0
 15 13  1  0
 16 15  1  0
 16 17  1  1
 18 23  1  0
 18 17  1  0
 19 18  2  0
 20 21  2  0
 20 19  1  0
 21 22  1  0
 22 23  2  0
 24 16  1  0
 25 24  2  0
 27 26  1  0
 28 27  1  6
 28 29  1  0
 29 24  1  0
 30 28  1  0
 31 30  2  0
 32 30  1  0
M  END
$$$$
