WFS.pdb
     RDKit          3D

 32 34  0  0  1  0  0  0  0  0999 V2000
    5.6772  -19.8972   21.5888 N   0  0  0  0  0  0  0  0  0  0  0  0
    5.9924  -19.7568   22.9858 C   0  0  1  0  0  0  0  0  0  0  0  0
    6.8833  -20.8786   23.4734 C   0  0  0  0  0  0  0  0  0  0  0  0
    6.1802  -22.1754   23.3318 C   0  0  0  0  0  0  0  0  0  0  0  0
    6.3778  -23.0895   22.2853 C   0  0  0  0  0  0  0  0  0  0  0  0
    5.5832  -24.1301   22.5443 N   0  0  0  0  0  0  0  0  0  0  0  0
    4.8805  -23.9671   23.6791 C   0  0  0  0  0  0  0  0  0  0  0  0
    3.9375  -24.7676   24.3368 C   0  0  0  0  0  0  0  0  0  0  0  0
    3.3413  -24.3607   25.5068 C   0  0  0  0  0  0  0  0  0  0  0  0
    3.6963  -23.1288   26.0268 C   0  0  0  0  0  0  0  0  0  0  0  0
    4.6411  -22.3439   25.3544 C   0  0  0  0  0  0  0  0  0  0  0  0
    5.2457  -22.7380   24.1863 C   0  0  0  0  0  0  0  0  0  0  0  0
    6.6096  -18.4353   23.2767 C   0  0  0  0  0  0  0  0  0  0  0  0
    7.4060  -17.9366   22.4065 O   0  0  0  0  0  0  0  0  0  0  0  0
    6.3810  -17.6775   24.4486 N   0  0  0  0  0  0  0  0  0  0  0  0
    7.0986  -16.4308   24.7110 C   0  0  1  0  0  0  0  0  0  0  0  0
    6.3134  -15.5874   25.6941 C   0  0  0  0  0  0  0  0  0  0  0  0
    6.9307  -14.3250   26.0672 C   0  0  0  0  0  0  0  0  0  0  0  0
    7.8545  -14.2207   27.0849 C   0  0  0  0  0  0  0  0  0  0  0  0
    8.4508  -13.0389   27.4408 C   0  0  0  0  0  0  0  0  0  0  0  0
    8.1360  -11.8878   26.7731 C   0  0  0  0  0  0  0  0  0  0  0  0
    7.2159  -11.9441   25.7466 C   0  0  0  0  0  0  0  0  0  0  0  0
    6.6261  -13.1603   25.4078 C   0  0  0  0  0  0  0  0  0  0  0  0
    8.4703  -16.6780   25.1050 C   0  0  0  0  0  0  0  0  0  0  0  0
    8.8270  -17.4615   26.0299 O   0  0  0  0  0  0  0  0  0  0  0  0
   11.4650  -15.4112   22.5985 O   0  0  0  0  0  0  0  0  0  0  0  0
   11.6415  -16.6251   23.2918 C   0  0  0  0  0  0  0  0  0  0  0  0
   10.9109  -16.4768   24.5980 C   0  0  2  0  0  0  0  0  0  0  0  0
    9.5460  -16.0152   24.4339 N   0  0  0  0  0  0  0  0  0  0  0  0
   11.6912  -15.5117   25.4356 C   0  0  0  0  0  0  0  0  0  0  0  0
   11.0829  -14.4995   25.8738 O   0  0  0  0  0  0  0  0  0  0  0  0
   13.0343  -15.7272   25.7167 O   0  0  0  0  0  0  0  0  0  0  0  0
  2  1  1  6
  3  4  1  0
  3  2  1  0
  4  5  2  0
  5  6  1  0
  7  6  1  0
  8  7  2  0
  9  8  1  0
 10 11  1  0
 10  9  2  0
 11 12  2  0
 12  4  1  0
 12  7  1  0
 13  2  1  0
 13 14  2  0
 15 13  1  0
 16 15  1  0
 16 17  1  1
 18 23  1  0
 18 17  1  0
 19 18  2  0
 20 21  2  0
 20 19  1  0
 21 22  1  0
 22 23  2  0
 24 16  1  0
 25 24  2  0
 27 26  1  0
 28 27  1  6
 28 29  1  0
 29 24  1  0
 30 28  1  0
 31 30  2  0
 32 30  1  0
M  END
$$$$
