WFS.pdb
     RDKit          3D

 32 34  0  0  1  0  0  0  0  0999 V2000
    7.9472  -20.2168   26.8986 N   0  0  0  0  0  0  0  0  0  0  0  0
    8.3766  -18.8440   26.8559 C   0  0  1  0  0  0  0  0  0  0  0  0
    9.8621  -18.7147   27.1133 C   0  0  0  0  0  0  0  0  0  0  0  0
   10.1042  -17.6807   28.1470 C   0  0  0  0  0  0  0  0  0  0  0  0
   10.2555  -17.9327   29.5194 C   0  0  0  0  0  0  0  0  0  0  0  0
   10.4846  -16.7494   30.0925 N   0  0  0  0  0  0  0  0  0  0  0  0
   10.4941  -15.7426   29.2013 C   0  0  0  0  0  0  0  0  0  0  0  0
   10.6821  -14.3603   29.3302 C   0  0  0  0  0  0  0  0  0  0  0  0
   10.6338  -13.5243   28.2400 C   0  0  0  0  0  0  0  0  0  0  0  0
   10.3920  -14.0837   26.9980 C   0  0  0  0  0  0  0  0  0  0  0  0
   10.2071  -15.4675   26.8903 C   0  0  0  0  0  0  0  0  0  0  0  0
   10.2542  -16.3147   27.9698 C   0  0  0  0  0  0  0  0  0  0  0  0
    8.0110  -18.1969   25.5677 C   0  0  0  0  0  0  0  0  0  0  0  0
    8.2482  -18.8353   24.4831 O   0  0  0  0  0  0  0  0  0  0  0  0
    7.4134  -16.9211   25.4457 N   0  0  0  0  0  0  0  0  0  0  0  0
    7.3735  -16.2089   24.1693 C   0  0  1  0  0  0  0  0  0  0  0  0
    6.6632  -14.8829   24.3470 C   0  0  0  0  0  0  0  0  0  0  0  0
    6.8126  -13.9417   23.2490 C   0  0  0  0  0  0  0  0  0  0  0  0
    7.1585  -12.6215   23.4426 C   0  0  0  0  0  0  0  0  0  0  0  0
    7.3118  -11.7261   22.4163 C   0  0  0  0  0  0  0  0  0  0  0  0
    7.1194  -12.1301   21.1241 C   0  0  0  0  0  0  0  0  0  0  0  0
    6.7719  -13.4432   20.8819 C   0  0  0  0  0  0  0  0  0  0  0  0
    6.6232  -14.3303   21.9462 C   0  0  0  0  0  0  0  0  0  0  0  0
    8.6911  -16.1011   23.5776 C   0  0  0  0  0  0  0  0  0  0  0  0
    9.6695  -15.4928   24.0967 O   0  0  0  0  0  0  0  0  0  0  0  0
    9.4502  -18.2916   20.2780 O   0  0  0  0  0  0  0  0  0  0  0  0
   10.6147  -18.0027   21.0168 C   0  0  0  0  0  0  0  0  0  0  0  0
   10.3219  -16.7502   21.7962 C   0  0  2  0  0  0  0  0  0  0  0  0
    8.9672  -16.7083   22.3119 N   0  0  0  0  0  0  0  0  0  0  0  0
   10.5685  -15.5908   20.8815 C   0  0  0  0  0  0  0  0  0  0  0  0
    9.5925  -14.8379   20.6223 O   0  0  0  0  0  0  0  0  0  0  0  0
   11.8265  -15.3572   20.3411 O   0  0  0  0  0  0  0  0  0  0  0  0
  2  1  1  6
  3  4  1  0
  3  2  1  0
  4  5  2  0
  5  6  1  0
  7  6  1  0
  8  7  2  0
  9  8  1  0
 10 11  1  0
 10  9  2  0
 11 12  2  0
 12  4  1  0
 12  7  1  0
 13  2  1  0
 13 14  2  0
 15 13  1  0
 16 15  1  0
 16 17  1  1
 18 23  1  0
 18 17  1  0
 19 18  2  0
 20 21  2  0
 20 19  1  0
 21 22  1  0
 22 23  2  0
 24 16  1  0
 25 24  2  0
 27 26  1  0
 28 27  1  6
 28 29  1  0
 29 24  1  0
 30 28  1  0
 31 30  2  0
 32 30  1  0
M  END
$$$$
