WFS.pdb
     RDKit          3D

 32 34  0  0  1  0  0  0  0  0999 V2000
   10.1624  -18.5587   21.6907 N   0  0  0  0  0  0  0  0  0  0  0  0
    9.5485  -17.3212   22.0938 C   0  0  1  0  0  0  0  0  0  0  0  0
    8.0622  -17.3158   21.8095 C   0  0  0  0  0  0  0  0  0  0  0  0
    7.7501  -16.2869   20.7898 C   0  0  0  0  0  0  0  0  0  0  0  0
    7.2761  -16.5523   19.4956 C   0  0  0  0  0  0  0  0  0  0  0  0
    7.0953  -15.3646   18.9141 N   0  0  0  0  0  0  0  0  0  0  0  0
    7.4152  -14.3428   19.7275 C   0  0  0  0  0  0  0  0  0  0  0  0
    7.3964  -12.9521   19.5597 C   0  0  0  0  0  0  0  0  0  0  0  0
    7.7910  -12.1020   20.5654 C   0  0  0  0  0  0  0  0  0  0  0  0
    8.2128  -12.6559   21.7610 C   0  0  0  0  0  0  0  0  0  0  0  0
    8.2239  -14.0483   21.9088 C   0  0  0  0  0  0  0  0  0  0  0  0
    7.8311  -14.9092   20.9139 C   0  0  0  0  0  0  0  0  0  0  0  0
    9.8074  -17.0244   23.5280 C   0  0  0  0  0  0  0  0  0  0  0  0
   10.1780  -17.9878   24.2861 O   0  0  0  0  0  0  0  0  0  0  0  0
    9.6784  -15.7490   24.1249 N   0  0  0  0  0  0  0  0  0  0  0  0
   10.1308  -15.4894   25.4909 C   0  0  1  0  0  0  0  0  0  0  0  0
    9.9704  -14.0175   25.8104 C   0  0  0  0  0  0  0  0  0  0  0  0
    8.6118  -13.5834   26.0923 C   0  0  0  0  0  0  0  0  0  0  0  0
    8.2092  -13.1629   27.3418 C   0  0  0  0  0  0  0  0  0  0  0  0
    6.9345  -12.7424   27.6190 C   0  0  0  0  0  0  0  0  0  0  0  0
    5.9908  -12.7270   26.6294 C   0  0  0  0  0  0  0  0  0  0  0  0
    6.3484  -13.1394   25.3623 C   0  0  0  0  0  0  0  0  0  0  0  0
    7.6523  -13.5617   25.1109 C   0  0  0  0  0  0  0  0  0  0  0  0
    9.4916  -16.3756   26.4417 C   0  0  0  0  0  0  0  0  0  0  0  0
    9.7506  -16.4183   27.6777 O   0  0  0  0  0  0  0  0  0  0  0  0
    7.1655  -19.7061   25.3559 O   0  0  0  0  0  0  0  0  0  0  0  0
    6.6380  -18.8847   26.3721 C   0  0  0  0  0  0  0  0  0  0  0  0
    7.8046  -18.1454   26.9673 C   0  0  2  0  0  0  0  0  0  0  0  0
    8.4831  -17.2938   26.0095 N   0  0  0  0  0  0  0  0  0  0  0  0
    8.7481  -19.1716   27.5136 C   0  0  0  0  0  0  0  0  0  0  0  0
    9.9265  -19.1724   27.0684 O   0  0  0  0  0  0  0  0  0  0  0  0
    8.3366  -20.0864   28.4743 O   0  0  0  0  0  0  0  0  0  0  0  0
  2  1  1  1
  3  4  1  0
  3  2  1  0
  4  5  2  0
  5  6  1  0
  7  6  1  0
  8  7  2  0
  9  8  1  0
 10 11  1  0
 10  9  2  0
 11 12  2  0
 12  4  1  0
 12  7  1  0
 13  2  1  0
 13 14  2  0
 15 13  1  0
 16 15  1  0
 16 17  1  1
 18 23  1  0
 18 17  1  0
 19 18  2  0
 20 21  2  0
 20 19  1  0
 21 22  1  0
 22 23  2  0
 24 16  1  0
 25 24  2  0
 27 26  1  0
 28 27  1  6
 28 29  1  0
 29 24  1  0
 30 28  1  0
 31 30  2  0
 32 30  1  0
M  END
$$$$
