FWD.pdb
     RDKit          3D

 34 36  0  0  1  0  0  0  0  0999 V2000
   10.5518  -14.3129   20.7277 N   0  0  0  0  0  0  0  0  0  0  0  0
    9.4805  -15.0090   21.4062 C   0  0  1  0  0  0  0  0  0  0  0  0
    8.4973  -15.6813   20.5068 C   0  0  0  0  0  0  0  0  0  0  0  0
    7.9760  -14.6605   19.5327 C   0  0  0  0  0  0  0  0  0  0  0  0
    7.0279  -13.7046   19.9090 C   0  0  0  0  0  0  0  0  0  0  0  0
    6.5324  -12.7589   19.0669 C   0  0  0  0  0  0  0  0  0  0  0  0
    6.9847  -12.7289   17.7504 C   0  0  0  0  0  0  0  0  0  0  0  0
    7.9234  -13.6596   17.3370 C   0  0  0  0  0  0  0  0  0  0  0  0
    8.4012  -14.6029   18.2234 C   0  0  0  0  0  0  0  0  0  0  0  0
    9.9662  -15.8072   22.5420 C   0  0  0  0  0  0  0  0  0  0  0  0
   11.1826  -16.0838   22.6690 O   0  0  0  0  0  0  0  0  0  0  0  0
    9.0465  -16.3095   23.5598 N   0  0  0  0  0  0  0  0  0  0  0  0
    9.5612  -16.5917   24.8742 C   0  0  1  0  0  0  0  0  0  0  0  0
    8.6213  -16.5323   26.0119 C   0  0  0  0  0  0  0  0  0  0  0  0
    7.6025  -15.4591   25.9933 C   0  0  0  0  0  0  0  0  0  0  0  0
    6.2438  -15.6152   25.6848 C   0  0  0  0  0  0  0  0  0  0  0  0
    5.5967  -14.4465   25.8006 N   0  0  0  0  0  0  0  0  0  0  0  0
    6.4811  -13.4942   26.1811 C   0  0  0  0  0  0  0  0  0  0  0  0
    6.3019  -12.1359   26.4134 C   0  0  0  0  0  0  0  0  0  0  0  0
    7.3935  -11.3806   26.7744 C   0  0  0  0  0  0  0  0  0  0  0  0
    8.6234  -12.0003   26.8916 C   0  0  0  0  0  0  0  0  0  0  0  0
    8.8151  -13.3431   26.6644 C   0  0  0  0  0  0  0  0  0  0  0  0
    7.7276  -14.1127   26.3031 C   0  0  0  0  0  0  0  0  0  0  0  0
   10.2068  -17.9684   24.8556 C   0  0  0  0  0  0  0  0  0  0  0  0
    9.6309  -18.9813   24.3966 O   0  0  0  0  0  0  0  0  0  0  0  0
   11.5101  -18.1017   25.3745 N   0  0  0  0  0  0  0  0  0  0  0  0
   12.1940  -19.4119   25.3292 C   0  0  1  0  0  0  0  0  0  0  0  0
   13.4386  -19.2790   24.5204 C   0  0  0  0  0  0  0  0  0  0  0  0
   14.1687  -20.5545   24.4901 C   0  0  0  0  0  0  0  0  0  0  0  0
   13.6819  -21.5286   23.8448 O   0  0  0  0  0  0  0  0  0  0  0  0
   12.3757  -19.9419   26.6923 C   0  0  0  0  0  0  0  0  0  0  0  0
   12.0080  -19.2713   27.8226 O   0  0  0  0  0  0  0  0  0  0  0  0
   15.3650  -20.7160   25.1420 O   0  0  0  0  0  0  0  0  0  0  0  0
   12.9091  -21.0959   26.8237 O   0  0  0  0  0  0  0  0  0  0  0  0
  2  1  1  6
  3  2  1  0
  4  3  1  0
  4  5  2  0
  6  5  1  0
  7  6  2  0
  8  9  2  0
  8  7  1  0
  9  4  1  0
 10  2  1  0
 10 11  2  0
 12 10  1  0
 13 12  1  0
 13 14  1  1
 15 14  1  0
 16 15  2  0
 17 18  1  0
 17 16  1  0
 18 23  2  0
 19 20  2  0
 19 18  1  0
 20 21  1  0
 21 22  2  0
 23 22  1  0
 23 15  1  0
 24 13  1  0
 25 24  2  0
 26 24  1  0
 27 26  1  0
 27 31  1  0
 27 28  1  1
 28 29  1  0
 29 30  2  0
 31 32  1  0
 33 29  1  0
 34 31  2  0
M  END
$$$$
