FWD.pdb
     RDKit          3D

 34 36  0  0  1  0  0  0  0  0999 V2000
    8.1448  -17.5544   20.9678 N   0  0  0  0  0  0  0  0  0  0  0  0
    9.3504  -16.7632   20.8529 C   0  0  1  0  0  0  0  0  0  0  0  0
    9.3524  -15.7776   19.7322 C   0  0  0  0  0  0  0  0  0  0  0  0
    8.4932  -14.6092   20.1314 C   0  0  0  0  0  0  0  0  0  0  0  0
    7.1548  -14.7747   20.4992 C   0  0  0  0  0  0  0  0  0  0  0  0
    6.3415  -13.7512   20.8735 C   0  0  0  0  0  0  0  0  0  0  0  0
    6.8567  -12.4579   20.8955 C   0  0  0  0  0  0  0  0  0  0  0  0
    8.1783  -12.2507   20.5370 C   0  0  0  0  0  0  0  0  0  0  0  0
    8.9705  -13.3171   20.1634 C   0  0  0  0  0  0  0  0  0  0  0  0
    9.8124  -16.2596   22.1554 C   0  0  0  0  0  0  0  0  0  0  0  0
   10.7314  -15.4102   22.2349 O   0  0  0  0  0  0  0  0  0  0  0  0
    9.2189  -16.7356   23.4025 N   0  0  0  0  0  0  0  0  0  0  0  0
    9.8530  -16.3828   24.6456 C   0  0  1  0  0  0  0  0  0  0  0  0
    8.9969  -16.2308   25.8395 C   0  0  0  0  0  0  0  0  0  0  0  0
    7.7865  -15.3904   25.7022 C   0  0  0  0  0  0  0  0  0  0  0  0
    6.4943  -15.8455   25.4046 C   0  0  0  0  0  0  0  0  0  0  0  0
    5.6257  -14.8241   25.3929 N   0  0  0  0  0  0  0  0  0  0  0  0
    6.2936  -13.6805   25.6755 C   0  0  0  0  0  0  0  0  0  0  0  0
    5.8428  -12.3688   25.7621 C   0  0  0  0  0  0  0  0  0  0  0  0
    6.7533  -11.3778   26.0473 C   0  0  0  0  0  0  0  0  0  0  0  0
    8.0781  -11.7239   26.2359 C   0  0  0  0  0  0  0  0  0  0  0  0
    8.5378  -13.0175   26.1527 C   0  0  0  0  0  0  0  0  0  0  0  0
    7.6343  -14.0216   25.8688 C   0  0  0  0  0  0  0  0  0  0  0  0
   10.9256  -17.4165   24.9520 C   0  0  0  0  0  0  0  0  0  0  0  0
   10.7038  -18.6489   24.9363 O   0  0  0  0  0  0  0  0  0  0  0  0
   12.2226  -16.9611   25.2615 N   0  0  0  0  0  0  0  0  0  0  0  0
   13.2488  -17.9154   25.7334 C   0  0  1  0  0  0  0  0  0  0  0  0
   14.5970  -17.3135   25.5315 C   0  0  0  0  0  0  0  0  0  0  0  0
   14.7898  -16.9500   24.1203 C   0  0  0  0  0  0  0  0  0  0  0  0
   15.2452  -15.8037   23.8354 O   0  0  0  0  0  0  0  0  0  0  0  0
   12.9476  -18.3524   27.1084 C   0  0  0  0  0  0  0  0  0  0  0  0
   11.8909  -17.8896   27.8375 O   0  0  0  0  0  0  0  0  0  0  0  0
   14.4902  -17.8214   23.1039 O   0  0  0  0  0  0  0  0  0  0  0  0
   13.7211  -19.2140   27.6496 O   0  0  0  0  0  0  0  0  0  0  0  0
  2  1  1  1
  3  2  1  0
  4  3  1  0
  4  5  2  0
  6  5  1  0
  7  6  2  0
  8  9  2  0
  8  7  1  0
  9  4  1  0
 10  2  1  0
 10 11  2  0
 12 10  1  0
 13 12  1  0
 13 14  1  1
 15 14  1  0
 16 15  2  0
 17 18  1  0
 17 16  1  0
 18 23  2  0
 19 20  2  0
 19 18  1  0
 20 21  1  0
 21 22  2  0
 23 22  1  0
 23 15  1  0
 24 13  1  0
 25 24  2  0
 26 24  1  0
 27 26  1  0
 27 31  1  0
 27 28  1  1
 28 29  1  0
 29 30  2  0
 31 32  1  0
 33 29  1  0
 34 31  2  0
M  END
$$$$
