FWD.pdb
     RDKit          3D

 34 36  0  0  1  0  0  0  0  0999 V2000
    8.1611  -17.6345   21.0489 N   0  0  0  0  0  0  0  0  0  0  0  0
    9.3290  -16.7826   20.9967 C   0  0  1  0  0  0  0  0  0  0  0  0
    9.2472  -15.6610   20.0155 C   0  0  0  0  0  0  0  0  0  0  0  0
    8.2721  -14.6444   20.5432 C   0  0  0  0  0  0  0  0  0  0  0  0
    8.6761  -13.3522   20.8914 C   0  0  0  0  0  0  0  0  0  0  0  0
    7.8313  -12.3980   21.3657 C   0  0  0  0  0  0  0  0  0  0  0  0
    6.4835  -12.7114   21.5203 C   0  0  0  0  0  0  0  0  0  0  0  0
    6.0425  -13.9814   21.1877 C   0  0  0  0  0  0  0  0  0  0  0  0
    6.9326  -14.9210   20.7091 C   0  0  0  0  0  0  0  0  0  0  0  0
    9.8232  -16.4321   22.3370 C   0  0  0  0  0  0  0  0  0  0  0  0
   10.8582  -15.7405   22.4878 O   0  0  0  0  0  0  0  0  0  0  0  0
    9.1268  -16.8821   23.5398 N   0  0  0  0  0  0  0  0  0  0  0  0
    9.7009  -16.5746   24.8236 C   0  0  1  0  0  0  0  0  0  0  0  0
    8.7815  -16.3797   25.9629 C   0  0  0  0  0  0  0  0  0  0  0  0
    7.6822  -15.4047   25.7869 C   0  0  0  0  0  0  0  0  0  0  0  0
    6.3582  -15.7066   25.4386 C   0  0  0  0  0  0  0  0  0  0  0  0
    5.6143  -14.5916   25.4020 N   0  0  0  0  0  0  0  0  0  0  0  0
    6.3987  -13.5336   25.7170 C   0  0  0  0  0  0  0  0  0  0  0  0
    6.0993  -12.1789   25.7961 C   0  0  0  0  0  0  0  0  0  0  0  0
    7.1067  -11.3005   26.1216 C   0  0  0  0  0  0  0  0  0  0  0  0
    8.3747  -11.7979   26.3566 C   0  0  0  0  0  0  0  0  0  0  0  0
    8.6849  -13.1357   26.2814 C   0  0  0  0  0  0  0  0  0  0  0  0
    7.6828  -14.0279   25.9574 C   0  0  0  0  0  0  0  0  0  0  0  0
   10.6899  -17.6713   25.1864 C   0  0  0  0  0  0  0  0  0  0  0  0
   10.3984  -18.8885   25.1438 O   0  0  0  0  0  0  0  0  0  0  0  0
   11.9887  -17.2948   25.5822 N   0  0  0  0  0  0  0  0  0  0  0  0
   12.9189  -18.3072   26.1265 C   0  0  1  0  0  0  0  0  0  0  0  0
   14.3140  -17.7991   25.9987 C   0  0  0  0  0  0  0  0  0  0  0  0
   14.8355  -18.0668   24.6507 C   0  0  0  0  0  0  0  0  0  0  0  0
   14.0954  -18.6545   23.8085 O   0  0  0  0  0  0  0  0  0  0  0  0
   12.5084  -18.7013   27.4860 C   0  0  0  0  0  0  0  0  0  0  0  0
   11.4379  -18.1649   28.1409 O   0  0  0  0  0  0  0  0  0  0  0  0
   16.1033  -17.6948   24.2812 O   0  0  0  0  0  0  0  0  0  0  0  0
   13.1948  -19.5964   28.0869 O   0  0  0  0  0  0  0  0  0  0  0  0
  2  1  1  1
  3  2  1  0
  4  3  1  0
  4  5  2  0
  6  5  1  0
  7  6  2  0
  8  9  2  0
  8  7  1  0
  9  4  1  0
 10  2  1  0
 10 11  2  0
 12 10  1  0
 13 12  1  0
 13 14  1  1
 15 14  1  0
 16 15  2  0
 17 18  1  0
 17 16  1  0
 18 23  2  0
 19 20  2  0
 19 18  1  0
 20 21  1  0
 21 22  2  0
 23 22  1  0
 23 15  1  0
 24 13  1  0
 25 24  2  0
 26 24  1  0
 27 26  1  0
 27 31  1  0
 27 28  1  1
 28 29  1  0
 29 30  2  0
 31 32  1  0
 33 29  1  0
 34 31  2  0
M  END
$$$$
