FWD.pdb
     RDKit          3D

 34 36  0  0  1  0  0  0  0  0999 V2000
    9.6740  -17.5951   20.2227 N   0  0  0  0  0  0  0  0  0  0  0  0
    9.2047  -16.7338   21.2859 C   0  0  1  0  0  0  0  0  0  0  0  0
    7.7517  -16.3976   21.2291 C   0  0  0  0  0  0  0  0  0  0  0  0
    7.6171  -14.9006   21.1701 C   0  0  0  0  0  0  0  0  0  0  0  0
    8.2779  -14.1423   20.1993 C   0  0  0  0  0  0  0  0  0  0  0  0
    8.1818  -12.7893   20.1020 C   0  0  0  0  0  0  0  0  0  0  0  0
    7.3841  -12.1056   21.0156 C   0  0  0  0  0  0  0  0  0  0  0  0
    6.7130  -12.8198   21.9942 C   0  0  0  0  0  0  0  0  0  0  0  0
    6.8371  -14.1926   22.0582 C   0  0  0  0  0  0  0  0  0  0  0  0
    9.7216  -17.1406   22.6015 C   0  0  0  0  0  0  0  0  0  0  0  0
   10.7045  -17.9124   22.7033 O   0  0  0  0  0  0  0  0  0  0  0  0
    9.1038  -16.6624   23.8359 N   0  0  0  0  0  0  0  0  0  0  0  0
    9.9370  -16.4726   24.9943 C   0  0  1  0  0  0  0  0  0  0  0  0
    9.3532  -15.7770   26.1590 C   0  0  0  0  0  0  0  0  0  0  0  0
    8.0660  -15.0761   25.9539 C   0  0  0  0  0  0  0  0  0  0  0  0
    6.8280  -15.6812   25.6959 C   0  0  0  0  0  0  0  0  0  0  0  0
    5.8618  -14.7564   25.6008 N   0  0  0  0  0  0  0  0  0  0  0  0
    6.4100  -13.5323   25.7876 C   0  0  0  0  0  0  0  0  0  0  0  0
    5.8298  -12.2697   25.7662 C   0  0  0  0  0  0  0  0  0  0  0  0
    6.6346  -11.1725   25.9680 C   0  0  0  0  0  0  0  0  0  0  0  0
    7.9859  -11.3675   26.1835 C   0  0  0  0  0  0  0  0  0  0  0  0
    8.5732  -12.6110   26.2068 C   0  0  0  0  0  0  0  0  0  0  0  0
    7.7766  -13.7204   26.0073 C   0  0  0  0  0  0  0  0  0  0  0  0
   10.4465  -17.8306   25.4515 C   0  0  0  0  0  0  0  0  0  0  0  0
    9.7730  -18.8804   25.3392 O   0  0  0  0  0  0  0  0  0  0  0  0
   11.7334  -17.9038   26.0206 N   0  0  0  0  0  0  0  0  0  0  0  0
   12.2037  -19.1681   26.6262 C   0  0  1  0  0  0  0  0  0  0  0  0
   13.6919  -19.2099   26.5619 C   0  0  0  0  0  0  0  0  0  0  0  0
   14.1413  -19.3362   25.1680 C   0  0  0  0  0  0  0  0  0  0  0  0
   13.3770  -19.8844   24.3208 O   0  0  0  0  0  0  0  0  0  0  0  0
   11.6208  -19.3405   27.9688 C   0  0  0  0  0  0  0  0  0  0  0  0
   11.7843  -20.4623   28.7288 O   0  0  0  0  0  0  0  0  0  0  0  0
   15.3673  -18.8740   24.7611 O   0  0  0  0  0  0  0  0  0  0  0  0
   10.9211  -18.3849   28.4491 O   0  0  0  0  0  0  0  0  0  0  0  0
  2  1  1  6
  3  2  1  0
  4  3  1  0
  4  5  2  0
  6  5  1  0
  7  6  2  0
  8  9  2  0
  8  7  1  0
  9  4  1  0
 10  2  1  0
 10 11  2  0
 12 10  1  0
 13 12  1  0
 13 14  1  1
 15 14  1  0
 16 15  2  0
 17 18  1  0
 17 16  1  0
 18 23  2  0
 19 20  2  0
 19 18  1  0
 20 21  1  0
 21 22  2  0
 23 22  1  0
 23 15  1  0
 24 13  1  0
 25 24  2  0
 26 24  1  0
 27 26  1  0
 27 31  1  0
 27 28  1  1
 28 29  1  0
 29 30  2  0
 31 32  1  0
 33 29  1  0
 34 31  2  0
M  END
$$$$
