FWD.pdb
     RDKit          3D

 34 36  0  0  1  0  0  0  0  0999 V2000
    8.7475  -16.1463   20.9527 N   0  0  0  0  0  0  0  0  0  0  0  0
    9.3060  -14.9795   21.5999 C   0  0  1  0  0  0  0  0  0  0  0  0
    8.4434  -13.7623   21.5577 C   0  0  0  0  0  0  0  0  0  0  0  0
    8.1048  -13.4752   20.1204 C   0  0  0  0  0  0  0  0  0  0  0  0
    6.9242  -13.9440   19.5371 C   0  0  0  0  0  0  0  0  0  0  0  0
    6.5722  -13.7049   18.2456 C   0  0  0  0  0  0  0  0  0  0  0  0
    7.4274  -12.9524   17.4450 C   0  0  0  0  0  0  0  0  0  0  0  0
    8.6082  -12.4700   17.9845 C   0  0  0  0  0  0  0  0  0  0  0  0
    8.9282  -12.7350   19.3003 C   0  0  0  0  0  0  0  0  0  0  0  0
    9.9062  -15.2996   22.9041 C   0  0  0  0  0  0  0  0  0  0  0  0
   10.8250  -14.5961   23.3869 O   0  0  0  0  0  0  0  0  0  0  0  0
    9.4549  -16.4520   23.6802 N   0  0  0  0  0  0  0  0  0  0  0  0
    9.8994  -16.5811   25.0432 C   0  0  1  0  0  0  0  0  0  0  0  0
    8.8765  -16.5632   26.1084 C   0  0  0  0  0  0  0  0  0  0  0  0
    7.7862  -15.5703   25.9836 C   0  0  0  0  0  0  0  0  0  0  0  0
    6.4797  -15.8288   25.5457 C   0  0  0  0  0  0  0  0  0  0  0  0
    5.7380  -14.7126   25.5902 N   0  0  0  0  0  0  0  0  0  0  0  0
    6.5068  -13.6962   26.0482 C   0  0  0  0  0  0  0  0  0  0  0  0
    6.2037  -12.3555   26.2527 C   0  0  0  0  0  0  0  0  0  0  0  0
    7.1948  -11.5199   26.7129 C   0  0  0  0  0  0  0  0  0  0  0  0
    8.4508  -12.0446   26.9533 C   0  0  0  0  0  0  0  0  0  0  0  0
    8.7645  -13.3689   26.7549 C   0  0  0  0  0  0  0  0  0  0  0  0
    7.7786  -14.2185   26.2949 C   0  0  0  0  0  0  0  0  0  0  0  0
   10.7032  -17.8657   25.1704 C   0  0  0  0  0  0  0  0  0  0  0  0
   10.1773  -19.0015   25.1288 O   0  0  0  0  0  0  0  0  0  0  0  0
   12.0987  -17.7664   25.3375 N   0  0  0  0  0  0  0  0  0  0  0  0
   12.9392  -18.9816   25.2797 C   0  0  1  0  0  0  0  0  0  0  0  0
   12.9558  -19.4909   23.8793 C   0  0  0  0  0  0  0  0  0  0  0  0
   13.7968  -18.6333   23.0320 C   0  0  0  0  0  0  0  0  0  0  0  0
   14.3036  -17.5841   23.5268 O   0  0  0  0  0  0  0  0  0  0  0  0
   14.2611  -18.7186   25.8758 C   0  0  0  0  0  0  0  0  0  0  0  0
   15.1669  -19.6950   26.1741 O   0  0  0  0  0  0  0  0  0  0  0  0
   14.0479  -18.9413   21.7189 O   0  0  0  0  0  0  0  0  0  0  0  0
   14.5775  -17.5065   26.1288 O   0  0  0  0  0  0  0  0  0  0  0  0
  2  1  1  1
  3  2  1  0
  4  3  1  0
  4  5  2  0
  6  5  1  0
  7  6  2  0
  8  9  2  0
  8  7  1  0
  9  4  1  0
 10  2  1  0
 10 11  2  0
 12 10  1  0
 13 12  1  0
 13 14  1  1
 15 14  1  0
 16 15  2  0
 17 18  1  0
 17 16  1  0
 18 23  2  0
 19 20  2  0
 19 18  1  0
 20 21  1  0
 21 22  2  0
 23 22  1  0
 23 15  1  0
 24 13  1  0
 25 24  2  0
 26 24  1  0
 27 26  1  0
 27 31  1  0
 27 28  1  6
 28 29  1  0
 29 30  2  0
 31 32  1  0
 33 29  1  0
 34 31  2  0
M  END
$$$$
