FWD.pdb
     RDKit          3D

 34 36  0  0  1  0  0  0  0  0999 V2000
    8.8306  -16.3587   21.2361 N   0  0  0  0  0  0  0  0  0  0  0  0
    9.5340  -15.3044   21.9334 C   0  0  1  0  0  0  0  0  0  0  0  0
    8.8285  -13.9895   21.9635 C   0  0  0  0  0  0  0  0  0  0  0  0
    8.2122  -13.7551   20.6115 C   0  0  0  0  0  0  0  0  0  0  0  0
    8.8621  -13.0018   19.6296 C   0  0  0  0  0  0  0  0  0  0  0  0
    8.3485  -12.7685   18.3923 C   0  0  0  0  0  0  0  0  0  0  0  0
    7.1039  -13.3030   18.0704 C   0  0  0  0  0  0  0  0  0  0  0  0
    6.4262  -14.0548   19.0157 C   0  0  0  0  0  0  0  0  0  0  0  0
    6.9827  -14.2684   20.2602 C   0  0  0  0  0  0  0  0  0  0  0  0
   10.0990  -15.7625   23.2118 C   0  0  0  0  0  0  0  0  0  0  0  0
   11.1614  -15.2743   23.6649 O   0  0  0  0  0  0  0  0  0  0  0  0
    9.4435  -16.8063   23.9959 N   0  0  0  0  0  0  0  0  0  0  0  0
    9.7338  -16.8953   25.4030 C   0  0  1  0  0  0  0  0  0  0  0  0
    8.6085  -16.7640   26.3505 C   0  0  0  0  0  0  0  0  0  0  0  0
    7.6642  -15.6460   26.1297 C   0  0  0  0  0  0  0  0  0  0  0  0
    6.3482  -15.7571   25.6595 C   0  0  0  0  0  0  0  0  0  0  0  0
    5.7608  -14.5526   25.6133 N   0  0  0  0  0  0  0  0  0  0  0  0
    6.6445  -13.6198   26.0408 C   0  0  0  0  0  0  0  0  0  0  0  0
    6.5169  -12.2410   26.1576 C   0  0  0  0  0  0  0  0  0  0  0  0
    7.5968  -11.5161   26.6058 C   0  0  0  0  0  0  0  0  0  0  0  0
    8.7642  -12.1854   26.9215 C   0  0  0  0  0  0  0  0  0  0  0  0
    8.9043  -13.5491   26.8102 C   0  0  0  0  0  0  0  0  0  0  0  0
    7.8278  -14.2884   26.3633 C   0  0  0  0  0  0  0  0  0  0  0  0
   10.4345  -18.2184   25.6696 C   0  0  0  0  0  0  0  0  0  0  0  0
    9.9644  -19.3202   25.3046 O   0  0  0  0  0  0  0  0  0  0  0  0
   11.6666  -18.1955   26.3528 N   0  0  0  0  0  0  0  0  0  0  0  0
   12.2712  -19.4575   26.8306 C   0  0  1  0  0  0  0  0  0  0  0  0
   13.7541  -19.3515   26.7283 C   0  0  0  0  0  0  0  0  0  0  0  0
   14.1827  -19.4915   25.3292 C   0  0  0  0  0  0  0  0  0  0  0  0
   13.3136  -19.7212   24.4379 O   0  0  0  0  0  0  0  0  0  0  0  0
   11.7495  -19.8021   28.1652 C   0  0  0  0  0  0  0  0  0  0  0  0
   10.8771  -19.0192   28.8643 O   0  0  0  0  0  0  0  0  0  0  0  0
   15.5002  -19.3782   24.9640 O   0  0  0  0  0  0  0  0  0  0  0  0
   12.1368  -20.8967   28.6993 O   0  0  0  0  0  0  0  0  0  0  0  0
  2  1  1  1
  3  2  1  0
  4  3  1  0
  4  5  2  0
  6  5  1  0
  7  6  2  0
  8  9  2  0
  8  7  1  0
  9  4  1  0
 10  2  1  0
 10 11  2  0
 12 10  1  0
 13 12  1  0
 13 14  1  1
 15 14  1  0
 16 15  2  0
 17 18  1  0
 17 16  1  0
 18 23  2  0
 19 20  2  0
 19 18  1  0
 20 21  1  0
 21 22  2  0
 23 22  1  0
 23 15  1  0
 24 13  1  0
 25 24  2  0
 26 24  1  0
 27 26  1  0
 27 31  1  0
 27 28  1  1
 28 29  1  0
 29 30  2  0
 31 32  1  0
 33 29  1  0
 34 31  2  0
M  END
$$$$
