FWD.pdb
     RDKit          3D

 34 36  0  0  1  0  0  0  0  0999 V2000
    8.6785  -17.2054   20.6003 N   0  0  0  0  0  0  0  0  0  0  0  0
    9.6114  -16.2958   21.2287 C   0  0  1  0  0  0  0  0  0  0  0  0
   10.0871  -15.1806   20.3584 C   0  0  0  0  0  0  0  0  0  0  0  0
    8.9410  -14.2306   20.1423 C   0  0  0  0  0  0  0  0  0  0  0  0
    7.8955  -14.5300   19.2640 C   0  0  0  0  0  0  0  0  0  0  0  0
    6.8362  -13.7071   19.0410 C   0  0  0  0  0  0  0  0  0  0  0  0
    6.7759  -12.4920   19.7182 C   0  0  0  0  0  0  0  0  0  0  0  0
    7.7926  -12.1568   20.5969 C   0  0  0  0  0  0  0  0  0  0  0  0
    8.8503  -13.0206   20.7950 C   0  0  0  0  0  0  0  0  0  0  0  0
    9.1929  -15.9197   22.5877 C   0  0  0  0  0  0  0  0  0  0  0  0
    8.0121  -15.5758   22.8324 O   0  0  0  0  0  0  0  0  0  0  0  0
   10.1408  -15.9295   23.6993 N   0  0  0  0  0  0  0  0  0  0  0  0
    9.6697  -16.3190   25.0025 C   0  0  1  0  0  0  0  0  0  0  0  0
    8.2522  -16.7115   25.1362 C   0  0  0  0  0  0  0  0  0  0  0  0
    7.2808  -15.6421   25.4572 C   0  0  0  0  0  0  0  0  0  0  0  0
    5.8899  -15.7905   25.5512 C   0  0  0  0  0  0  0  0  0  0  0  0
    5.3141  -14.6299   25.8963 N   0  0  0  0  0  0  0  0  0  0  0  0
    6.2787  -13.6905   26.0406 C   0  0  0  0  0  0  0  0  0  0  0  0
    6.1859  -12.3433   26.3686 C   0  0  0  0  0  0  0  0  0  0  0  0
    7.3415  -11.5992   26.4263 C   0  0  0  0  0  0  0  0  0  0  0  0
    8.5473  -12.2186   26.1562 C   0  0  0  0  0  0  0  0  0  0  0  0
    8.6535  -13.5505   25.8300 C   0  0  0  0  0  0  0  0  0  0  0  0
    7.5017  -14.3088   25.7703 C   0  0  0  0  0  0  0  0  0  0  0  0
   10.5348  -17.4633   25.5075 C   0  0  0  0  0  0  0  0  0  0  0  0
   10.3466  -18.0183   26.6143 O   0  0  0  0  0  0  0  0  0  0  0  0
   11.5880  -17.9158   24.6882 N   0  0  0  0  0  0  0  0  0  0  0  0
   12.4553  -19.0238   25.1429 C   0  0  1  0  0  0  0  0  0  0  0  0
   13.0585  -19.6848   23.9513 C   0  0  0  0  0  0  0  0  0  0  0  0
   13.5212  -18.6775   22.9858 C   0  0  0  0  0  0  0  0  0  0  0  0
   12.8494  -18.4797   21.9312 O   0  0  0  0  0  0  0  0  0  0  0  0
   13.4125  -18.5425   26.1549 C   0  0  0  0  0  0  0  0  0  0  0  0
   13.0452  -17.9022   27.3028 O   0  0  0  0  0  0  0  0  0  0  0  0
   14.6617  -17.9452   23.1986 O   0  0  0  0  0  0  0  0  0  0  0  0
   14.6585  -18.7351   25.9454 O   0  0  0  0  0  0  0  0  0  0  0  0
  2  1  1  6
  3  2  1  0
  4  3  1  0
  4  5  2  0
  6  5  1  0
  7  6  2  0
  8  9  2  0
  8  7  1  0
  9  4  1  0
 10  2  1  0
 10 11  2  0
 12 10  1  0
 13 12  1  0
 13 14  1  6
 15 14  1  0
 16 15  2  0
 17 18  1  0
 17 16  1  0
 18 23  2  0
 19 20  2  0
 19 18  1  0
 20 21  1  0
 21 22  2  0
 23 22  1  0
 23 15  1  0
 24 13  1  0
 25 24  2  0
 26 24  1  0
 27 26  1  0
 27 31  1  0
 27 28  1  6
 28 29  1  0
 29 30  2  0
 31 32  1  0
 33 29  1  0
 34 31  2  0
M  END
$$$$
