FWD.pdb
     RDKit          3D

 34 36  0  0  1  0  0  0  0  0999 V2000
    7.3788  -13.9784   21.6067 N   0  0  0  0  0  0  0  0  0  0  0  0
    8.4232  -14.9778   21.5514 C   0  0  1  0  0  0  0  0  0  0  0  0
    9.3744  -14.8321   20.4105 C   0  0  0  0  0  0  0  0  0  0  0  0
    8.6282  -14.2349   19.2490 C   0  0  0  0  0  0  0  0  0  0  0  0
    9.2232  -14.0872   17.9927 C   0  0  0  0  0  0  0  0  0  0  0  0
    8.5876  -13.5597   16.9124 C   0  0  0  0  0  0  0  0  0  0  0  0
    7.2682  -13.1368   17.0502 C   0  0  0  0  0  0  0  0  0  0  0  0
    6.6423  -13.2647   18.2790 C   0  0  0  0  0  0  0  0  0  0  0  0
    7.3229  -13.8057   19.3505 C   0  0  0  0  0  0  0  0  0  0  0  0
    9.0291  -15.2238   22.8688 C   0  0  0  0  0  0  0  0  0  0  0  0
    9.7456  -14.3590   23.4264 O   0  0  0  0  0  0  0  0  0  0  0  0
    8.8205  -16.4875   23.5715 N   0  0  0  0  0  0  0  0  0  0  0  0
    9.3945  -16.6499   24.8815 C   0  0  1  0  0  0  0  0  0  0  0  0
    8.4818  -16.6367   26.0426 C   0  0  0  0  0  0  0  0  0  0  0  0
    7.4878  -15.5423   26.1101 C   0  0  0  0  0  0  0  0  0  0  0  0
    6.1136  -15.6578   25.8581 C   0  0  0  0  0  0  0  0  0  0  0  0
    5.4990  -14.4811   26.0464 N   0  0  0  0  0  0  0  0  0  0  0  0
    6.4210  -13.5628   26.4213 C   0  0  0  0  0  0  0  0  0  0  0  0
    6.2832  -12.2108   26.7117 C   0  0  0  0  0  0  0  0  0  0  0  0
    7.4068  -11.4930   27.0506 C   0  0  0  0  0  0  0  0  0  0  0  0
    8.6263  -12.1424   27.0887 C   0  0  0  0  0  0  0  0  0  0  0  0
    8.7770  -13.4794   26.8034 C   0  0  0  0  0  0  0  0  0  0  0  0
    7.6573  -14.2116   26.4636 C   0  0  0  0  0  0  0  0  0  0  0  0
   10.1842  -17.9493   24.9060 C   0  0  0  0  0  0  0  0  0  0  0  0
    9.7324  -19.0259   24.4530 O   0  0  0  0  0  0  0  0  0  0  0  0
   11.4800  -17.9328   25.4592 N   0  0  0  0  0  0  0  0  0  0  0  0
   12.3336  -19.1376   25.3802 C   0  0  1  0  0  0  0  0  0  0  0  0
   13.1763  -19.0526   24.1541 C   0  0  0  0  0  0  0  0  0  0  0  0
   14.1337  -20.1673   24.1118 C   0  0  0  0  0  0  0  0  0  0  0  0
   13.7112  -21.3496   24.2732 O   0  0  0  0  0  0  0  0  0  0  0  0
   13.0678  -19.3286   26.6437 C   0  0  0  0  0  0  0  0  0  0  0  0
   13.7328  -20.4751   26.9691 O   0  0  0  0  0  0  0  0  0  0  0  0
   15.4732  -19.9594   23.9008 O   0  0  0  0  0  0  0  0  0  0  0  0
   13.0821  -18.3654   27.4837 O   0  0  0  0  0  0  0  0  0  0  0  0
  2  1  1  1
  3  2  1  0
  4  3  1  0
  4  5  2  0
  6  5  1  0
  7  6  2  0
  8  9  2  0
  8  7  1  0
  9  4  1  0
 10  2  1  0
 10 11  2  0
 12 10  1  0
 13 12  1  0
 13 14  1  1
 15 14  1  0
 16 15  2  0
 17 18  1  0
 17 16  1  0
 18 23  2  0
 19 20  2  0
 19 18  1  0
 20 21  1  0
 21 22  2  0
 23 22  1  0
 23 15  1  0
 24 13  1  0
 25 24  2  0
 26 24  1  0
 27 26  1  0
 27 31  1  0
 27 28  1  6
 28 29  1  0
 29 30  2  0
 31 32  1  0
 33 29  1  0
 34 31  2  0
M  END
$$$$
