FWD.pdb
     RDKit          3D

 34 36  0  0  1  0  0  0  0  0999 V2000
    9.8114  -17.0557   20.4038 N   0  0  0  0  0  0  0  0  0  0  0  0
    9.3637  -16.1600   21.4477 C   0  0  1  0  0  0  0  0  0  0  0  0
    7.9015  -15.8609   21.4367 C   0  0  0  0  0  0  0  0  0  0  0  0
    7.7034  -14.5042   20.8180 C   0  0  0  0  0  0  0  0  0  0  0  0
    8.2665  -13.3535   21.3773 C   0  0  0  0  0  0  0  0  0  0  0  0
    8.1210  -12.1080   20.8511 C   0  0  0  0  0  0  0  0  0  0  0  0
    7.3695  -11.9538   19.6892 C   0  0  0  0  0  0  0  0  0  0  0  0
    6.7935  -13.0690   19.1038 C   0  0  0  0  0  0  0  0  0  0  0  0
    6.9657  -14.3157   19.6696 C   0  0  0  0  0  0  0  0  0  0  0  0
    9.9432  -16.4966   22.7570 C   0  0  0  0  0  0  0  0  0  0  0  0
   11.1640  -16.7546   22.8805 O   0  0  0  0  0  0  0  0  0  0  0  0
    9.1144  -16.5466   23.9590 N   0  0  0  0  0  0  0  0  0  0  0  0
    9.7646  -16.5900   25.2425 C   0  0  1  0  0  0  0  0  0  0  0  0
    8.9755  -16.2057   26.4304 C   0  0  0  0  0  0  0  0  0  0  0  0
    7.8775  -15.2342   26.2286 C   0  0  0  0  0  0  0  0  0  0  0  0
    6.5585  -15.5418   25.8667 C   0  0  0  0  0  0  0  0  0  0  0  0
    5.8138  -14.4283   25.8073 N   0  0  0  0  0  0  0  0  0  0  0  0
    6.5929  -13.3657   26.1200 C   0  0  0  0  0  0  0  0  0  0  0  0
    6.2910  -12.0105   26.1793 C   0  0  0  0  0  0  0  0  0  0  0  0
    7.2931  -11.1271   26.5075 C   0  0  0  0  0  0  0  0  0  0  0  0
    8.5585  -11.6201   26.7648 C   0  0  0  0  0  0  0  0  0  0  0  0
    8.8711  -12.9583   26.7094 C   0  0  0  0  0  0  0  0  0  0  0  0
    7.8743  -13.8555   26.3829 C   0  0  0  0  0  0  0  0  0  0  0  0
   10.3103  -17.9925   25.4613 C   0  0  0  0  0  0  0  0  0  0  0  0
    9.6310  -19.0241   25.2549 O   0  0  0  0  0  0  0  0  0  0  0  0
   11.6385  -18.1294   25.9111 N   0  0  0  0  0  0  0  0  0  0  0  0
   12.0291  -19.3063   26.7167 C   0  0  1  0  0  0  0  0  0  0  0  0
   13.5055  -19.4864   26.6238 C   0  0  0  0  0  0  0  0  0  0  0  0
   13.8937  -19.8355   25.2497 C   0  0  0  0  0  0  0  0  0  0  0  0
   15.1206  -19.8410   24.9380 O   0  0  0  0  0  0  0  0  0  0  0  0
   11.4876  -19.1941   28.0828 C   0  0  0  0  0  0  0  0  0  0  0  0
   10.8151  -18.1002   28.5451 O   0  0  0  0  0  0  0  0  0  0  0  0
   12.9608  -20.1568   24.2965 O   0  0  0  0  0  0  0  0  0  0  0  0
   11.6581  -20.1775   28.8811 O   0  0  0  0  0  0  0  0  0  0  0  0
  2  1  1  6
  3  2  1  0
  4  3  1  0
  4  5  2  0
  6  5  1  0
  7  6  2  0
  8  9  2  0
  8  7  1  0
  9  4  1  0
 10  2  1  0
 10 11  2  0
 12 10  1  0
 13 12  1  0
 13 14  1  1
 15 14  1  0
 16 15  2  0
 17 18  1  0
 17 16  1  0
 18 23  2  0
 19 20  2  0
 19 18  1  0
 20 21  1  0
 21 22  2  0
 23 22  1  0
 23 15  1  0
 24 13  1  0
 25 24  2  0
 26 24  1  0
 27 26  1  0
 27 31  1  0
 27 28  1  1
 28 29  1  0
 29 30  2  0
 31 32  1  0
 33 29  1  0
 34 31  2  0
M  END
$$$$
