FWD.pdb
     RDKit          3D

 34 36  0  0  1  0  0  0  0  0999 V2000
    8.1568  -15.8568   21.5319 N   0  0  0  0  0  0  0  0  0  0  0  0
    9.5038  -15.3550   21.6936 C   0  0  1  0  0  0  0  0  0  0  0  0
    9.7448  -14.0001   21.1160 C   0  0  0  0  0  0  0  0  0  0  0  0
    8.6351  -13.6977   20.1466 C   0  0  0  0  0  0  0  0  0  0  0  0
    8.5891  -14.2833   18.8781 C   0  0  0  0  0  0  0  0  0  0  0  0
    7.6041  -14.0462   17.9711 C   0  0  0  0  0  0  0  0  0  0  0  0
    6.5757  -13.1711   18.3103 C   0  0  0  0  0  0  0  0  0  0  0  0
    6.5845  -12.5688   19.5575 C   0  0  0  0  0  0  0  0  0  0  0  0
    7.6029  -12.8366   20.4493 C   0  0  0  0  0  0  0  0  0  0  0  0
   10.0222  -15.5784   23.0518 C   0  0  0  0  0  0  0  0  0  0  0  0
   10.9768  -14.9018   23.5026 O   0  0  0  0  0  0  0  0  0  0  0  0
    9.4451  -16.6007   23.9213 N   0  0  0  0  0  0  0  0  0  0  0  0
    9.9613  -16.7393   25.2579 C   0  0  1  0  0  0  0  0  0  0  0  0
    9.0948  -16.3246   26.3798 C   0  0  0  0  0  0  0  0  0  0  0  0
    7.9636  -15.4239   26.0647 C   0  0  0  0  0  0  0  0  0  0  0  0
    6.7360  -15.8044   25.5049 C   0  0  0  0  0  0  0  0  0  0  0  0
    5.9227  -14.7448   25.3872 N   0  0  0  0  0  0  0  0  0  0  0  0
    6.5656  -13.6479   25.8535 C   0  0  0  0  0  0  0  0  0  0  0  0
    6.1540  -12.3226   25.9269 C   0  0  0  0  0  0  0  0  0  0  0  0
    7.0288  -11.3893   26.4328 C   0  0  0  0  0  0  0  0  0  0  0  0
    8.2803  -11.8045   26.8473 C   0  0  0  0  0  0  0  0  0  0  0  0
    8.7006  -13.1123   26.7799 C   0  0  0  0  0  0  0  0  0  0  0  0
    7.8319  -14.0592   26.2759 C   0  0  0  0  0  0  0  0  0  0  0  0
   10.3644  -18.1898   25.4729 C   0  0  0  0  0  0  0  0  0  0  0  0
    9.5602  -19.1421   25.3518 O   0  0  0  0  0  0  0  0  0  0  0  0
   11.7020  -18.4667   25.8184 N   0  0  0  0  0  0  0  0  0  0  0  0
   12.0961  -19.8366   26.2118 C   0  0  1  0  0  0  0  0  0  0  0  0
   13.4836  -20.0957   25.7340 C   0  0  0  0  0  0  0  0  0  0  0  0
   14.2681  -18.8525   25.7393 C   0  0  0  0  0  0  0  0  0  0  0  0
   13.7124  -17.7742   26.1009 O   0  0  0  0  0  0  0  0  0  0  0  0
   11.8727  -20.0392   27.6544 C   0  0  0  0  0  0  0  0  0  0  0  0
   11.9894  -21.2475   28.2780 O   0  0  0  0  0  0  0  0  0  0  0  0
   15.5874  -18.8310   25.3636 O   0  0  0  0  0  0  0  0  0  0  0  0
   11.5503  -19.0251   28.3624 O   0  0  0  0  0  0  0  0  0  0  0  0
  2  1  1  1
  3  2  1  0
  4  3  1  0
  4  5  2  0
  6  5  1  0
  7  6  2  0
  8  9  2  0
  8  7  1  0
  9  4  1  0
 10  2  1  0
 10 11  2  0
 12 10  1  0
 13 12  1  0
 13 14  1  1
 15 14  1  0
 16 15  2  0
 17 18  1  0
 17 16  1  0
 18 23  2  0
 19 20  2  0
 19 18  1  0
 20 21  1  0
 21 22  2  0
 23 22  1  0
 23 15  1  0
 24 13  1  0
 25 24  2  0
 26 24  1  0
 27 26  1  0
 27 31  1  0
 27 28  1  1
 28 29  1  0
 29 30  2  0
 31 32  1  0
 33 29  1  0
 34 31  2  0
M  END
$$$$
