FWD.pdb
     RDKit          3D

 34 36  0  0  1  0  0  0  0  0999 V2000
    9.7769  -18.0168   16.7875 N   0  0  0  0  0  0  0  0  0  0  0  0
    9.2661  -18.8351   17.8654 C   0  0  1  0  0  0  0  0  0  0  0  0
    9.5393  -20.2962   17.7309 C   0  0  0  0  0  0  0  0  0  0  0  0
    8.9574  -20.9960   18.9285 C   0  0  0  0  0  0  0  0  0  0  0  0
    7.5817  -21.2080   19.0576 C   0  0  0  0  0  0  0  0  0  0  0  0
    7.0103  -21.8405   20.1171 C   0  0  0  0  0  0  0  0  0  0  0  0
    7.8295  -22.3084   21.1411 C   0  0  0  0  0  0  0  0  0  0  0  0
    9.1983  -22.1175   21.0522 C   0  0  0  0  0  0  0  0  0  0  0  0
    9.7384  -21.4707   19.9595 C   0  0  0  0  0  0  0  0  0  0  0  0
    9.5356  -18.2477   19.1866 C   0  0  0  0  0  0  0  0  0  0  0  0
   10.6890  -17.8775   19.5103 O   0  0  0  0  0  0  0  0  0  0  0  0
    8.4682  -18.0794   20.1698 N   0  0  0  0  0  0  0  0  0  0  0  0
    8.7509  -17.3431   21.3739 C   0  0  1  0  0  0  0  0  0  0  0  0
    7.7359  -16.3820   21.8507 C   0  0  0  0  0  0  0  0  0  0  0  0
    7.5476  -15.1468   21.0575 C   0  0  0  0  0  0  0  0  0  0  0  0
    7.1601  -15.0803   19.7118 C   0  0  0  0  0  0  0  0  0  0  0  0
    7.0474  -13.8042   19.3160 N   0  0  0  0  0  0  0  0  0  0  0  0
    7.3490  -12.9958   20.3597 C   0  0  0  0  0  0  0  0  0  0  0  0
    7.3935  -11.6094   20.4452 C   0  0  0  0  0  0  0  0  0  0  0  0
    7.7584  -11.0355   21.6410 C   0  0  0  0  0  0  0  0  0  0  0  0
    8.0662  -11.8578   22.7086 C   0  0  0  0  0  0  0  0  0  0  0  0
    8.0266  -13.2307   22.6378 C   0  0  0  0  0  0  0  0  0  0  0  0
    7.6604  -13.8193   21.4441 C   0  0  0  0  0  0  0  0  0  0  0  0
    9.0364  -18.3342   22.4914 C   0  0  0  0  0  0  0  0  0  0  0  0
    8.4545  -19.4394   22.5826 O   0  0  0  0  0  0  0  0  0  0  0  0
   10.0009  -17.9897   23.4591 N   0  0  0  0  0  0  0  0  0  0  0  0
   10.9998  -18.9884   23.8963 C   0  0  1  0  0  0  0  0  0  0  0  0
   11.6858  -19.5428   22.6952 C   0  0  0  0  0  0  0  0  0  0  0  0
   12.6756  -20.5547   23.0917 C   0  0  0  0  0  0  0  0  0  0  0  0
   12.3046  -21.5362   23.7998 O   0  0  0  0  0  0  0  0  0  0  0  0
   11.8850  -18.4112   24.9236 C   0  0  0  0  0  0  0  0  0  0  0  0
   12.6046  -19.1572   25.8114 O   0  0  0  0  0  0  0  0  0  0  0  0
   13.9911  -20.4635   22.7129 O   0  0  0  0  0  0  0  0  0  0  0  0
   11.9841  -17.1386   24.9875 O   0  0  0  0  0  0  0  0  0  0  0  0
  2  1  1  6
  3  2  1  0
  4  3  1  0
  4  5  2  0
  6  5  1  0
  7  6  2  0
  8  9  2  0
  8  7  1  0
  9  4  1  0
 10  2  1  0
 10 11  2  0
 12 10  1  0
 13 12  1  0
 13 14  1  1
 15 14  1  0
 16 15  2  0
 17 18  1  0
 17 16  1  0
 18 23  2  0
 19 20  2  0
 19 18  1  0
 20 21  1  0
 21 22  2  0
 23 22  1  0
 23 15  1  0
 24 13  1  0
 25 24  2  0
 26 24  1  0
 27 26  1  0
 27 31  1  0
 27 28  1  6
 28 29  1  0
 29 30  2  0
 31 32  1  0
 33 29  1  0
 34 31  2  0
M  END
$$$$
