FWD.pdb
     RDKit          3D

 34 36  0  0  1  0  0  0  0  0999 V2000
    8.6409  -16.3777   21.0401 N   0  0  0  0  0  0  0  0  0  0  0  0
    8.8684  -15.1525   21.7748 C   0  0  1  0  0  0  0  0  0  0  0  0
    7.7351  -14.1817   21.7469 C   0  0  0  0  0  0  0  0  0  0  0  0
    7.6114  -13.6429   20.3480 C   0  0  0  0  0  0  0  0  0  0  0  0
    8.3471  -12.5336   19.9213 C   0  0  0  0  0  0  0  0  0  0  0  0
    8.2740  -12.0149   18.6664 C   0  0  0  0  0  0  0  0  0  0  0  0
    7.4205  -12.6115   17.7422 C   0  0  0  0  0  0  0  0  0  0  0  0
    6.6728  -13.7126   18.1253 C   0  0  0  0  0  0  0  0  0  0  0  0
    6.7765  -14.2082   19.4089 C   0  0  0  0  0  0  0  0  0  0  0  0
    9.4756  -15.3973   23.0918 C   0  0  0  0  0  0  0  0  0  0  0  0
   10.2367  -14.5545   23.6234 O   0  0  0  0  0  0  0  0  0  0  0  0
    9.2161  -16.6343   23.8245 N   0  0  0  0  0  0  0  0  0  0  0  0
    9.6781  -16.7393   25.1838 C   0  0  1  0  0  0  0  0  0  0  0  0
    8.6654  -16.7544   26.2587 C   0  0  0  0  0  0  0  0  0  0  0  0
    7.6565  -15.6717   26.2538 C   0  0  0  0  0  0  0  0  0  0  0  0
    6.3046  -15.8039   25.9068 C   0  0  0  0  0  0  0  0  0  0  0  0
    5.6647  -14.6341   26.0487 N   0  0  0  0  0  0  0  0  0  0  0  0
    6.5476  -13.7044   26.4846 C   0  0  0  0  0  0  0  0  0  0  0  0
    6.3742  -12.3535   26.7610 C   0  0  0  0  0  0  0  0  0  0  0  0
    7.4629  -11.6219   27.1755 C   0  0  0  0  0  0  0  0  0  0  0  0
    8.6843  -12.2569   27.3004 C   0  0  0  0  0  0  0  0  0  0  0  0
    8.8701  -13.5925   27.0299 C   0  0  0  0  0  0  0  0  0  0  0  0
    7.7854  -14.3384   26.6147 C   0  0  0  0  0  0  0  0  0  0  0  0
   10.5309  -17.9922   25.3095 C   0  0  0  0  0  0  0  0  0  0  0  0
   10.0395  -19.1364   25.4422 O   0  0  0  0  0  0  0  0  0  0  0  0
   11.9324  -17.8525   25.2696 N   0  0  0  0  0  0  0  0  0  0  0  0
   12.8002  -19.0061   25.5903 C   0  0  1  0  0  0  0  0  0  0  0  0
   14.2081  -18.6621   25.2436 C   0  0  0  0  0  0  0  0  0  0  0  0
   14.3482  -18.4783   23.7919 C   0  0  0  0  0  0  0  0  0  0  0  0
   15.3434  -17.8364   23.3446 O   0  0  0  0  0  0  0  0  0  0  0  0
   12.5770  -19.4440   26.9797 C   0  0  0  0  0  0  0  0  0  0  0  0
   11.9912  -18.6660   27.9358 O   0  0  0  0  0  0  0  0  0  0  0  0
   13.4288  -18.9856   22.9089 O   0  0  0  0  0  0  0  0  0  0  0  0
   12.9544  -20.6200   27.3087 O   0  0  0  0  0  0  0  0  0  0  0  0
  2  1  1  1
  3  2  1  0
  4  3  1  0
  4  5  2  0
  6  5  1  0
  7  6  2  0
  8  9  2  0
  8  7  1  0
  9  4  1  0
 10  2  1  0
 10 11  2  0
 12 10  1  0
 13 12  1  0
 13 14  1  1
 15 14  1  0
 16 15  2  0
 17 18  1  0
 17 16  1  0
 18 23  2  0
 19 20  2  0
 19 18  1  0
 20 21  1  0
 21 22  2  0
 23 22  1  0
 23 15  1  0
 24 13  1  0
 25 24  2  0
 26 24  1  0
 27 26  1  0
 27 31  1  0
 27 28  1  1
 28 29  1  0
 29 30  2  0
 31 32  1  0
 33 29  1  0
 34 31  2  0
M  END
$$$$
