FWD.pdb
     RDKit          3D

 34 36  0  0  1  0  0  0  0  0999 V2000
   10.3833  -15.3686   20.5335 N   0  0  0  0  0  0  0  0  0  0  0  0
    9.4818  -15.3144   21.6635 C   0  0  1  0  0  0  0  0  0  0  0  0
    8.0334  -15.4204   21.3195 C   0  0  0  0  0  0  0  0  0  0  0  0
    7.7309  -14.4149   20.2424 C   0  0  0  0  0  0  0  0  0  0  0  0
    7.8425  -13.0402   20.4698 C   0  0  0  0  0  0  0  0  0  0  0  0
    7.5865  -12.0945   19.5268 C   0  0  0  0  0  0  0  0  0  0  0  0
    7.1881  -12.5035   18.2569 C   0  0  0  0  0  0  0  0  0  0  0  0
    7.0642  -13.8570   17.9906 C   0  0  0  0  0  0  0  0  0  0  0  0
    7.3339  -14.7847   18.9759 C   0  0  0  0  0  0  0  0  0  0  0  0
    9.9414  -16.1500   22.7833 C   0  0  0  0  0  0  0  0  0  0  0  0
   11.0463  -16.7415   22.7421 O   0  0  0  0  0  0  0  0  0  0  0  0
    9.1234  -16.3233   23.9812 N   0  0  0  0  0  0  0  0  0  0  0  0
    9.7852  -16.5113   25.2457 C   0  0  1  0  0  0  0  0  0  0  0  0
    9.0547  -16.1299   26.4714 C   0  0  0  0  0  0  0  0  0  0  0  0
    7.8856  -15.2365   26.3127 C   0  0  0  0  0  0  0  0  0  0  0  0
    6.5649  -15.6396   26.0700 C   0  0  0  0  0  0  0  0  0  0  0  0
    5.7493  -14.5765   26.0188 N   0  0  0  0  0  0  0  0  0  0  0  0
    6.4813  -13.4553   26.2206 C   0  0  0  0  0  0  0  0  0  0  0  0
    6.1000  -12.1191   26.2418 C   0  0  0  0  0  0  0  0  0  0  0  0
    7.0665  -11.1625   26.4497 C   0  0  0  0  0  0  0  0  0  0  0  0
    8.3763  -11.5661   26.6289 C   0  0  0  0  0  0  0  0  0  0  0  0
    8.7675  -12.8845   26.6099 C   0  0  0  0  0  0  0  0  0  0  0  0
    7.8073  -13.8545   26.4039 C   0  0  0  0  0  0  0  0  0  0  0  0
   10.1949  -17.9709   25.3650 C   0  0  0  0  0  0  0  0  0  0  0  0
    9.3864  -18.9161   25.2197 O   0  0  0  0  0  0  0  0  0  0  0  0
   11.5438  -18.2647   25.6469 N   0  0  0  0  0  0  0  0  0  0  0  0
   12.0150  -19.6662   25.6291 C   0  0  1  0  0  0  0  0  0  0  0  0
   11.7646  -20.2426   24.2779 C   0  0  0  0  0  0  0  0  0  0  0  0
   12.8091  -19.8143   23.3364 C   0  0  0  0  0  0  0  0  0  0  0  0
   14.0078  -20.1640   23.5442 O   0  0  0  0  0  0  0  0  0  0  0  0
   13.4077  -19.7442   26.1049 C   0  0  0  0  0  0  0  0  0  0  0  0
   14.1554  -18.6544   26.4456 O   0  0  0  0  0  0  0  0  0  0  0  0
   12.5181  -19.0464   22.2374 O   0  0  0  0  0  0  0  0  0  0  0  0
   13.9469  -20.8987   26.2035 O   0  0  0  0  0  0  0  0  0  0  0  0
  2  1  1  6
  3  2  1  0
  4  3  1  0
  4  5  2  0
  6  5  1  0
  7  6  2  0
  8  9  2  0
  8  7  1  0
  9  4  1  0
 10  2  1  0
 10 11  2  0
 12 10  1  0
 13 12  1  0
 13 14  1  1
 15 14  1  0
 16 15  2  0
 17 18  1  0
 17 16  1  0
 18 23  2  0
 19 20  2  0
 19 18  1  0
 20 21  1  0
 21 22  2  0
 23 22  1  0
 23 15  1  0
 24 13  1  0
 25 24  2  0
 26 24  1  0
 27 26  1  0
 27 31  1  0
 27 28  1  6
 28 29  1  0
 29 30  2  0
 31 32  1  0
 33 29  1  0
 34 31  2  0
M  END
$$$$
