FWD.pdb
     RDKit          3D

 34 36  0  0  1  0  0  0  0  0999 V2000
    8.1185  -17.5963   21.3746 N   0  0  0  0  0  0  0  0  0  0  0  0
    9.3197  -16.7946   21.2914 C   0  0  1  0  0  0  0  0  0  0  0  0
    9.2953  -15.7300   20.2456 C   0  0  0  0  0  0  0  0  0  0  0  0
    8.3287  -14.6634   20.6824 C   0  0  0  0  0  0  0  0  0  0  0  0
    8.7472  -13.3544   20.9384 C   0  0  0  0  0  0  0  0  0  0  0  0
    7.9107  -12.3558   21.3285 C   0  0  0  0  0  0  0  0  0  0  0  0
    6.5566  -12.6382   21.4877 C   0  0  0  0  0  0  0  0  0  0  0  0
    6.1012  -13.9235   21.2451 C   0  0  0  0  0  0  0  0  0  0  0  0
    6.9833  -14.9084   20.8504 C   0  0  0  0  0  0  0  0  0  0  0  0
    9.8093  -16.3855   22.6167 C   0  0  0  0  0  0  0  0  0  0  0  0
   10.8714  -15.7313   22.7437 O   0  0  0  0  0  0  0  0  0  0  0  0
    9.0765  -16.7317   23.8321 N   0  0  0  0  0  0  0  0  0  0  0  0
    9.7461  -16.6040   25.0999 C   0  0  1  0  0  0  0  0  0  0  0  0
    8.9434  -16.1831   26.2661 C   0  0  0  0  0  0  0  0  0  0  0  0
    7.7912  -15.2907   26.0086 C   0  0  0  0  0  0  0  0  0  0  0  0
    6.5080  -15.6922   25.6115 C   0  0  0  0  0  0  0  0  0  0  0  0
    5.6942  -14.6320   25.5045 N   0  0  0  0  0  0  0  0  0  0  0  0
    6.3909  -13.5141   25.8190 C   0  0  0  0  0  0  0  0  0  0  0  0
    5.9987  -12.1810   25.8394 C   0  0  0  0  0  0  0  0  0  0  0  0
    6.9291  -11.2269   26.1804 C   0  0  0  0  0  0  0  0  0  0  0  0
    8.2150  -11.6297   26.4884 C   0  0  0  0  0  0  0  0  0  0  0  0
    8.6166  -12.9450   26.4718 C   0  0  0  0  0  0  0  0  0  0  0  0
    7.6923  -13.9126   26.1330 C   0  0  0  0  0  0  0  0  0  0  0  0
   10.4144  -17.9295   25.4298 C   0  0  0  0  0  0  0  0  0  0  0  0
    9.7680  -18.9825   25.6339 O   0  0  0  0  0  0  0  0  0  0  0  0
   11.8210  -17.9680   25.5030 N   0  0  0  0  0  0  0  0  0  0  0  0
   12.5223  -19.2672   25.5859 C   0  0  1  0  0  0  0  0  0  0  0  0
   12.1197  -20.1081   24.4234 C   0  0  0  0  0  0  0  0  0  0  0  0
   12.8133  -21.4035   24.4632 C   0  0  0  0  0  0  0  0  0  0  0  0
   13.9129  -21.5334   23.8496 O   0  0  0  0  0  0  0  0  0  0  0  0
   13.9722  -19.0570   25.7461 C   0  0  0  0  0  0  0  0  0  0  0  0
   14.5754  -17.8354   25.6659 O   0  0  0  0  0  0  0  0  0  0  0  0
   12.3005  -22.4751   25.1492 O   0  0  0  0  0  0  0  0  0  0  0  0
   14.7075  -20.0777   25.9724 O   0  0  0  0  0  0  0  0  0  0  0  0
  2  1  1  1
  3  2  1  0
  4  3  1  0
  4  5  2  0
  6  5  1  0
  7  6  2  0
  8  9  2  0
  8  7  1  0
  9  4  1  0
 10  2  1  0
 10 11  2  0
 12 10  1  0
 13 12  1  0
 13 14  1  1
 15 14  1  0
 16 15  2  0
 17 18  1  0
 17 16  1  0
 18 23  2  0
 19 20  2  0
 19 18  1  0
 20 21  1  0
 21 22  2  0
 23 22  1  0
 23 15  1  0
 24 13  1  0
 25 24  2  0
 26 24  1  0
 27 26  1  0
 27 31  1  0
 27 28  1  6
 28 29  1  0
 29 30  2  0
 31 32  1  0
 33 29  1  0
 34 31  2  0
M  END
$$$$
