FWD.pdb
     RDKit          3D

 34 36  0  0  1  0  0  0  0  0999 V2000
    9.4524  -13.3485   21.6064 N   0  0  0  0  0  0  0  0  0  0  0  0
    9.1078  -14.7399   21.8009 C   0  0  1  0  0  0  0  0  0  0  0  0
    9.1124  -15.5694   20.5602 C   0  0  0  0  0  0  0  0  0  0  0  0
    8.3159  -14.8470   19.5083 C   0  0  0  0  0  0  0  0  0  0  0  0
    8.9337  -14.0620   18.5305 C   0  0  0  0  0  0  0  0  0  0  0  0
    8.2573  -13.3963   17.5566 C   0  0  0  0  0  0  0  0  0  0  0  0
    6.8688  -13.4914   17.5188 C   0  0  0  0  0  0  0  0  0  0  0  0
    6.2177  -14.2585   18.4705 C   0  0  0  0  0  0  0  0  0  0  0  0
    6.9416  -14.9187   19.4422 C   0  0  0  0  0  0  0  0  0  0  0  0
    9.7845  -15.3234   22.9692 C   0  0  0  0  0  0  0  0  0  0  0  0
   10.9066  -14.9084   23.3447 O   0  0  0  0  0  0  0  0  0  0  0  0
    9.1740  -16.4107   23.7302 N   0  0  0  0  0  0  0  0  0  0  0  0
    9.6119  -16.6350   25.0830 C   0  0  1  0  0  0  0  0  0  0  0  0
    8.5993  -16.5733   26.1564 C   0  0  0  0  0  0  0  0  0  0  0  0
    7.6012  -15.4830   26.0840 C   0  0  0  0  0  0  0  0  0  0  0  0
    6.2684  -15.6094   25.6680 C   0  0  0  0  0  0  0  0  0  0  0  0
    5.6319  -14.4329   25.7604 N   0  0  0  0  0  0  0  0  0  0  0  0
    6.4985  -13.5041   26.2299 C   0  0  0  0  0  0  0  0  0  0  0  0
    6.3222  -12.1484   26.4789 C   0  0  0  0  0  0  0  0  0  0  0  0
    7.3938  -11.4196   26.9405 C   0  0  0  0  0  0  0  0  0  0  0  0
    8.6015  -12.0623   27.1380 C   0  0  0  0  0  0  0  0  0  0  0  0
    8.7899  -13.4029   26.8953 C   0  0  0  0  0  0  0  0  0  0  0  0
    7.7223  -14.1460   26.4335 C   0  0  0  0  0  0  0  0  0  0  0  0
   10.3013  -17.9888   25.1501 C   0  0  0  0  0  0  0  0  0  0  0  0
    9.7785  -19.0385   24.7107 O   0  0  0  0  0  0  0  0  0  0  0  0
   11.5844  -18.0566   25.7285 N   0  0  0  0  0  0  0  0  0  0  0  0
   12.1117  -19.3518   26.2092 C   0  0  1  0  0  0  0  0  0  0  0  0
   13.5995  -19.3274   26.1279 C   0  0  0  0  0  0  0  0  0  0  0  0
   14.0329  -19.0052   24.7607 C   0  0  0  0  0  0  0  0  0  0  0  0
   13.7112  -17.8885   24.2588 O   0  0  0  0  0  0  0  0  0  0  0  0
   11.5530  -19.6718   27.5349 C   0  0  0  0  0  0  0  0  0  0  0  0
   10.7478  -18.8275   28.2430 O   0  0  0  0  0  0  0  0  0  0  0  0
   14.7782  -19.8830   24.0150 O   0  0  0  0  0  0  0  0  0  0  0  0
   11.8397  -20.8049   28.0519 O   0  0  0  0  0  0  0  0  0  0  0  0
  2  1  1  6
  3  2  1  0
  4  3  1  0
  4  5  2  0
  6  5  1  0
  7  6  2  0
  8  9  2  0
  8  7  1  0
  9  4  1  0
 10  2  1  0
 10 11  2  0
 12 10  1  0
 13 12  1  0
 13 14  1  1
 15 14  1  0
 16 15  2  0
 17 18  1  0
 17 16  1  0
 18 23  2  0
 19 20  2  0
 19 18  1  0
 20 21  1  0
 21 22  2  0
 23 22  1  0
 23 15  1  0
 24 13  1  0
 25 24  2  0
 26 24  1  0
 27 26  1  0
 27 31  1  0
 27 28  1  1
 28 29  1  0
 29 30  2  0
 31 32  1  0
 33 29  1  0
 34 31  2  0
M  END
$$$$
