FWD.pdb
     RDKit          3D

 34 36  0  0  1  0  0  0  0  0999 V2000
    8.7166  -16.0311   21.0063 N   0  0  0  0  0  0  0  0  0  0  0  0
    9.0178  -14.7631   21.6340 C   0  0  1  0  0  0  0  0  0  0  0  0
    7.9459  -13.7314   21.5158 C   0  0  0  0  0  0  0  0  0  0  0  0
    7.6742  -13.5004   20.0544 C   0  0  0  0  0  0  0  0  0  0  0  0
    8.3804  -12.5440   19.3192 C   0  0  0  0  0  0  0  0  0  0  0  0
    8.1752  -12.3041   17.9965 C   0  0  0  0  0  0  0  0  0  0  0  0
    7.2083  -13.0450   17.3221 C   0  0  0  0  0  0  0  0  0  0  0  0
    6.4854  -14.0021   18.0145 C   0  0  0  0  0  0  0  0  0  0  0  0
    6.7248  -14.2147   19.3567 C   0  0  0  0  0  0  0  0  0  0  0  0
    9.6078  -14.9297   22.9710 C   0  0  0  0  0  0  0  0  0  0  0  0
   10.2760  -14.0130   23.5053 O   0  0  0  0  0  0  0  0  0  0  0  0
    9.4393  -16.1719   23.7210 N   0  0  0  0  0  0  0  0  0  0  0  0
    9.9559  -16.2417   25.0628 C   0  0  1  0  0  0  0  0  0  0  0  0
    8.9913  -16.4252   26.1661 C   0  0  0  0  0  0  0  0  0  0  0  0
    7.8084  -15.5361   26.1863 C   0  0  0  0  0  0  0  0  0  0  0  0
    6.4779  -15.9267   25.9794 C   0  0  0  0  0  0  0  0  0  0  0  0
    5.6534  -14.8767   26.1044 N   0  0  0  0  0  0  0  0  0  0  0  0
    6.3889  -13.7766   26.3918 C   0  0  0  0  0  0  0  0  0  0  0  0
    6.0005  -12.4577   26.5941 C   0  0  0  0  0  0  0  0  0  0  0  0
    6.9715  -11.5184   26.8536 C   0  0  0  0  0  0  0  0  0  0  0  0
    8.2927  -11.9216   26.9029 C   0  0  0  0  0  0  0  0  0  0  0  0
    8.6910  -13.2230   26.7043 C   0  0  0  0  0  0  0  0  0  0  0  0
    7.7265  -14.1756   26.4447 C   0  0  0  0  0  0  0  0  0  0  0  0
   10.9807  -17.3634   25.1289 C   0  0  0  0  0  0  0  0  0  0  0  0
   11.2734  -17.9524   26.1946 O   0  0  0  0  0  0  0  0  0  0  0  0
   11.6208  -17.7541   23.9360 N   0  0  0  0  0  0  0  0  0  0  0  0
   12.7322  -18.7285   23.9776 C   0  0  1  0  0  0  0  0  0  0  0  0
   12.5405  -19.7262   22.8874 C   0  0  0  0  0  0  0  0  0  0  0  0
   11.7880  -20.8880   23.3823 C   0  0  0  0  0  0  0  0  0  0  0  0
   11.4460  -20.9280   24.6004 O   0  0  0  0  0  0  0  0  0  0  0  0
   14.0283  -18.0271   23.9762 C   0  0  0  0  0  0  0  0  0  0  0  0
   14.3326  -16.9966   23.1349 O   0  0  0  0  0  0  0  0  0  0  0  0
   11.4456  -21.9296   22.5577 O   0  0  0  0  0  0  0  0  0  0  0  0
   14.9193  -18.4062   24.8105 O   0  0  0  0  0  0  0  0  0  0  0  0
  2  1  1  1
  3  2  1  0
  4  3  1  0
  4  5  2  0
  6  5  1  0
  7  6  2  0
  8  9  2  0
  8  7  1  0
  9  4  1  0
 10  2  1  0
 10 11  2  0
 12 10  1  0
 13 12  1  0
 13 14  1  1
 15 14  1  0
 16 15  2  0
 17 18  1  0
 17 16  1  0
 18 23  2  0
 19 20  2  0
 19 18  1  0
 20 21  1  0
 21 22  2  0
 23 22  1  0
 23 15  1  0
 24 13  1  0
 25 24  2  0
 26 24  1  0
 27 26  1  0
 27 31  1  0
 27 28  1  6
 28 29  1  0
 29 30  2  0
 31 32  1  0
 33 29  1  0
 34 31  2  0
M  END
$$$$
