IQT.pdb
     RDKit          3D

 25 24  0  0  1  0  0  0  0  0999 V2000
   25.5637  -13.7345  -18.8355 C   0  0  0  0  0  0  0  0  0  0  0  0
   26.0426  -14.9574  -18.0853 C   0  0  0  0  0  0  0  0  0  0  0  0
   24.8450  -15.8795  -17.7903 C   0  0  2  0  0  0  0  0  0  0  0  0
   23.9442  -15.1324  -16.8367 C   0  0  0  0  0  0  0  0  0  0  0  0
   25.4017  -17.0952  -17.0790 C   0  0  2  0  0  0  0  0  0  0  0  0
   26.3749  -17.7227  -18.0098 N   0  0  0  0  0  0  0  0  0  0  0  0
   24.3873  -18.1131  -16.7455 C   0  0  0  0  0  0  0  0  0  0  0  0
   23.7120  -18.6614  -17.6871 O   0  0  0  0  0  0  0  0  0  0  0  0
   24.7808  -23.3213  -14.5766 N   0  0  0  0  0  0  0  0  0  0  0  0
   23.6636  -23.2747  -15.4737 C   0  0  0  0  0  0  0  0  0  0  0  0
   23.3099  -24.3767  -15.9712 O   0  0  0  0  0  0  0  0  0  0  0  0
   22.9715  -21.9958  -15.7904 C   0  0  0  0  0  0  0  0  0  0  0  0
   23.5922  -20.9219  -14.9373 C   0  0  0  0  0  0  0  0  0  0  0  0
   23.0206  -19.5559  -15.2009 C   0  0  2  0  0  0  0  0  0  0  0  0
   24.0679  -18.5697  -15.4467 N   0  0  0  0  0  0  0  0  0  0  0  0
   22.0958  -19.1081  -14.1377 C   0  0  0  0  0  0  0  0  0  0  0  0
   22.5674  -18.5256  -13.1550 O   0  0  0  0  0  0  0  0  0  0  0  0
   19.9246  -16.4038  -13.4242 C   0  0  0  0  0  0  0  0  0  0  0  0
   19.0261  -17.6174  -13.5725 C   0  0  1  0  0  0  0  0  0  0  0  0
   18.3125  -17.6026  -14.7663 O   0  0  0  0  0  0  0  0  0  0  0  0
   19.7195  -18.9001  -13.3072 C   0  0  2  0  0  0  0  0  0  0  0  0
   20.7196  -19.3200  -14.2073 N   0  0  0  0  0  0  0  0  0  0  0  0
   18.6992  -19.9680  -13.1751 C   0  0  0  0  0  0  0  0  0  0  0  0
   17.7077  -19.9345  -12.2000 O   0  0  0  0  0  0  0  0  0  0  0  0
   18.7415  -20.9329  -13.9782 O   0  0  0  0  0  0  0  0  0  0  0  0
  1  2  1  0
  3  2  1  0
  3  5  1  0
  3  4  1  1
  5  7  1  0
  5  6  1  6
  7  8  2  0
  9 10  1  0
 10 12  1  0
 11 10  2  0
 13 12  1  0
 14 13  1  1
 15 14  1  0
 15  7  1  0
 16 17  2  0
 16 14  1  0
 19 18  1  6
 19 21  1  0
 20 19  1  0
 21 22  1  6
 21 23  1  0
 22 16  1  0
 23 24  1  0
 25 23  2  0
M  END
$$$$
