IQT.pdb
     RDKit          3D

 25 24  0  0  1  0  0  0  0  0999 V2000
   14.6367  -13.0660  -15.6305 C   0  0  0  0  0  0  0  0  0  0  0  0
   15.0631  -12.6612  -14.2369 C   0  0  0  0  0  0  0  0  0  0  0  0
   15.2549  -11.1343  -14.1826 C   0  0  2  0  0  0  0  0  0  0  0  0
   16.4258  -10.8099  -15.0785 C   0  0  0  0  0  0  0  0  0  0  0  0
   15.6296  -10.7971  -12.7545 C   0  0  2  0  0  0  0  0  0  0  0  0
   14.4362  -11.0949  -11.9211 N   0  0  0  0  0  0  0  0  0  0  0  0
   15.9756   -9.3787  -12.5429 C   0  0  0  0  0  0  0  0  0  0  0  0
   15.0538   -8.4900  -12.6016 O   0  0  0  0  0  0  0  0  0  0  0  0
   15.2892   -5.0344   -9.7582 N   0  0  0  0  0  0  0  0  0  0  0  0
   15.9418   -6.1645   -9.1648 C   0  0  0  0  0  0  0  0  0  0  0  0
   15.8067   -6.2872   -7.9183 O   0  0  0  0  0  0  0  0  0  0  0  0
   16.7284   -7.1277   -9.9823 C   0  0  0  0  0  0  0  0  0  0  0  0
   16.6874   -6.6496  -11.4093 C   0  0  0  0  0  0  0  0  0  0  0  0
   17.5753   -7.4478  -12.3240 C   0  0  2  0  0  0  0  0  0  0  0  0
   17.2667   -8.8732  -12.2688 N   0  0  0  0  0  0  0  0  0  0  0  0
   19.0131   -7.1970  -12.0875 C   0  0  0  0  0  0  0  0  0  0  0  0
   19.5288   -7.6537  -11.0613 O   0  0  0  0  0  0  0  0  0  0  0  0
   22.1052   -8.5704  -13.4512 C   0  0  0  0  0  0  0  0  0  0  0  0
   22.0243   -7.1154  -13.8736 C   0  0  1  0  0  0  0  0  0  0  0  0
   21.6974   -6.9740  -15.2181 O   0  0  0  0  0  0  0  0  0  0  0  0
   21.1974   -6.2837  -12.9675 C   0  0  2  0  0  0  0  0  0  0  0  0
   19.8000   -6.4676  -12.9776 N   0  0  0  0  0  0  0  0  0  0  0  0
   21.5059   -4.8566  -13.2262 C   0  0  0  0  0  0  0  0  0  0  0  0
   22.7646   -4.3122  -12.9925 O   0  0  0  0  0  0  0  0  0  0  0  0
   20.5899   -4.1220  -13.6724 O   0  0  0  0  0  0  0  0  0  0  0  0
  1  2  1  0
  3  2  1  0
  3  5  1  0
  3  4  1  6
  5  7  1  0
  5  6  1  1
  7  8  2  0
  9 10  1  0
 10 12  1  0
 11 10  2  0
 13 12  1  0
 14 13  1  1
 15 14  1  0
 15  7  1  0
 16 17  2  0
 16 14  1  0
 19 18  1  1
 19 21  1  0
 20 19  1  0
 21 22  1  6
 21 23  1  0
 22 16  1  0
 23 24  1  0
 25 23  2  0
M  END
$$$$
