IQT.pdb
     RDKit          3D

 25 24  0  0  1  0  0  0  0  0999 V2000
   14.2010  -13.6906  -19.5566 C   0  0  0  0  0  0  0  0  0  0  0  0
   15.6061  -13.7882  -19.0056 C   0  0  0  0  0  0  0  0  0  0  0  0
   15.8256  -12.6781  -17.9612 C   0  0  2  0  0  0  0  0  0  0  0  0
   15.7287  -11.3629  -18.6960 C   0  0  0  0  0  0  0  0  0  0  0  0
   17.2406  -12.8429  -17.4473 C   0  0  2  0  0  0  0  0  0  0  0  0
   17.2971  -14.1675  -16.7771 N   0  0  0  0  0  0  0  0  0  0  0  0
   17.6421  -11.8267  -16.4560 C   0  0  0  0  0  0  0  0  0  0  0  0
   17.0318  -11.7695  -15.3302 O   0  0  0  0  0  0  0  0  0  0  0  0
   22.7994   -9.8099  -14.1556 N   0  0  0  0  0  0  0  0  0  0  0  0
   21.9359   -8.7648  -13.6895 C   0  0  0  0  0  0  0  0  0  0  0  0
   22.4275   -7.9859  -12.8301 O   0  0  0  0  0  0  0  0  0  0  0  0
   20.5447   -8.6191  -14.1977 C   0  0  0  0  0  0  0  0  0  0  0  0
   20.2781   -9.7747  -15.1251 C   0  0  0  0  0  0  0  0  0  0  0  0
   18.8784   -9.7780  -15.6752 C   0  0  2  0  0  0  0  0  0  0  0  0
   18.6710  -10.8716  -16.6192 N   0  0  0  0  0  0  0  0  0  0  0  0
   18.4917   -8.4772  -16.2623 C   0  0  0  0  0  0  0  0  0  0  0  0
   19.0050   -8.1402  -17.3349 O   0  0  0  0  0  0  0  0  0  0  0  0
   14.8690   -6.6208  -14.9484 C   0  0  0  0  0  0  0  0  0  0  0  0
   15.6095   -6.2108  -16.2077 C   0  0  1  0  0  0  0  0  0  0  0  0
   15.2263   -4.9521  -16.6586 O   0  0  0  0  0  0  0  0  0  0  0  0
   17.0776   -6.3896  -16.1127 C   0  0  2  0  0  0  0  0  0  0  0  0
   17.5738   -7.6251  -15.6500 N   0  0  0  0  0  0  0  0  0  0  0  0
   17.6320   -5.2956  -15.2794 C   0  0  0  0  0  0  0  0  0  0  0  0
   17.4636   -3.9534  -15.6038 O   0  0  0  0  0  0  0  0  0  0  0  0
   18.2752   -5.6037  -14.2453 O   0  0  0  0  0  0  0  0  0  0  0  0
  1  2  1  0
  3  2  1  0
  3  5  1  0
  3  4  1  6
  5  7  1  0
  5  6  1  1
  7  8  2  0
  9 10  1  0
 10 12  1  0
 11 10  2  0
 13 12  1  0
 14 13  1  6
 15 14  1  0
 15  7  1  0
 16 17  2  0
 16 14  1  0
 19 18  1  1
 19 21  1  0
 20 19  1  0
 21 22  1  1
 21 23  1  0
 22 16  1  0
 23 24  1  0
 25 23  2  0
M  END
$$$$
