IQT.pdb
     RDKit          3D

 25 24  0  0  1  0  0  0  0  0999 V2000
   29.5863  -20.2708  -12.1978 C   0  0  0  0  0  0  0  0  0  0  0  0
   28.2515  -20.4999  -11.5245 C   0  0  0  0  0  0  0  0  0  0  0  0
   27.1533  -20.6342  -12.5955 C   0  0  2  0  0  0  0  0  0  0  0  0
   27.1780  -19.3616  -13.4072 C   0  0  0  0  0  0  0  0  0  0  0  0
   25.8348  -20.7105  -11.8543 C   0  0  2  0  0  0  0  0  0  0  0  0
   25.8832  -21.9445  -11.0283 N   0  0  0  0  0  0  0  0  0  0  0  0
   24.6554  -20.8120  -12.7347 C   0  0  0  0  0  0  0  0  0  0  0  0
   24.5779  -21.7771  -13.5748 O   0  0  0  0  0  0  0  0  0  0  0  0
   21.5699  -19.3177  -10.4423 N   0  0  0  0  0  0  0  0  0  0  0  0
   20.8926  -20.5349  -10.7810 C   0  0  0  0  0  0  0  0  0  0  0  0
   20.5185  -21.2459   -9.8106 O   0  0  0  0  0  0  0  0  0  0  0  0
   20.6516  -20.9242  -12.1971 C   0  0  0  0  0  0  0  0  0  0  0  0
   21.1260  -19.7898  -13.0655 C   0  0  0  0  0  0  0  0  0  0  0  0
   22.4601  -20.0565  -13.7067 C   0  0  2  0  0  0  0  0  0  0  0  0
   23.5553  -19.9250  -12.7511 N   0  0  0  0  0  0  0  0  0  0  0  0
   22.6915  -19.2296  -14.9105 C   0  0  0  0  0  0  0  0  0  0  0  0
   22.7859  -18.0050  -14.7735 O   0  0  0  0  0  0  0  0  0  0  0  0
   25.6341  -18.9513  -17.2866 C   0  0  0  0  0  0  0  0  0  0  0  0
   24.4267  -19.4745  -18.0421 C   0  0  1  0  0  0  0  0  0  0  0  0
   24.5544  -20.8191  -18.3743 O   0  0  0  0  0  0  0  0  0  0  0  0
   23.1360  -19.1394  -17.3952 C   0  0  2  0  0  0  0  0  0  0  0  0
   22.8059  -19.7824  -16.1852 N   0  0  0  0  0  0  0  0  0  0  0  0
   22.0470  -19.3553  -18.3781 C   0  0  0  0  0  0  0  0  0  0  0  0
   22.0055  -18.6941  -19.6013 O   0  0  0  0  0  0  0  0  0  0  0  0
   21.1342  -20.1670  -18.0850 O   0  0  0  0  0  0  0  0  0  0  0  0
  1  2  1  0
  3  2  1  0
  3  5  1  0
  3  4  1  6
  5  7  1  0
  5  6  1  1
  7  8  2  0
  9 10  1  0
 10 12  1  0
 11 10  2  0
 13 12  1  0
 14 13  1  1
 15 14  1  0
 15  7  1  0
 16 17  2  0
 16 14  1  0
 19 18  1  1
 19 21  1  0
 20 19  1  0
 21 22  1  1
 21 23  1  0
 22 16  1  0
 23 24  1  0
 25 23  2  0
M  END
$$$$
