IQT.pdb
     RDKit          3D

 25 24  0  0  1  0  0  0  0  0999 V2000
   23.4094  -15.1663  -21.5706 C   0  0  0  0  0  0  0  0  0  0  0  0
   23.0218  -15.8781  -20.2937 C   0  0  0  0  0  0  0  0  0  0  0  0
   21.6721  -15.3324  -19.7918 C   0  0  2  0  0  0  0  0  0  0  0  0
   21.9076  -13.8996  -19.3788 C   0  0  0  0  0  0  0  0  0  0  0  0
   21.3116  -16.1383  -18.5613 C   0  0  2  0  0  0  0  0  0  0  0  0
   21.1847  -17.5515  -19.0017 N   0  0  0  0  0  0  0  0  0  0  0  0
   20.0299  -15.7497  -17.9427 C   0  0  0  0  0  0  0  0  0  0  0  0
   18.9554  -15.7919  -18.6404 O   0  0  0  0  0  0  0  0  0  0  0  0
   17.4623  -17.1218  -12.7019 N   0  0  0  0  0  0  0  0  0  0  0  0
   16.4992  -16.1770  -13.1865 C   0  0  0  0  0  0  0  0  0  0  0  0
   15.4310  -16.0899  -12.5243 O   0  0  0  0  0  0  0  0  0  0  0  0
   16.7570  -15.3543  -14.3996 C   0  0  0  0  0  0  0  0  0  0  0  0
   18.1127  -15.7401  -14.9285 C   0  0  0  0  0  0  0  0  0  0  0  0
   18.5538  -14.8950  -16.0918 C   0  0  2  0  0  0  0  0  0  0  0  0
   19.8509  -15.3203  -16.6081 N   0  0  0  0  0  0  0  0  0  0  0  0
   18.5427  -13.4486  -15.7846 C   0  0  0  0  0  0  0  0  0  0  0  0
   19.4612  -12.9860  -15.0991 O   0  0  0  0  0  0  0  0  0  0  0  0
   18.8171  -10.2108  -17.9222 C   0  0  0  0  0  0  0  0  0  0  0  0
   17.4423  -10.3502  -17.2955 C   0  0  1  0  0  0  0  0  0  0  0  0
   16.4697  -10.6938  -18.2285 O   0  0  0  0  0  0  0  0  0  0  0  0
   17.4314  -11.1999  -16.0813 C   0  0  2  0  0  0  0  0  0  0  0  0
   17.5376  -12.5965  -16.2396 N   0  0  0  0  0  0  0  0  0  0  0  0
   16.2116  -10.8867  -15.2986 C   0  0  0  0  0  0  0  0  0  0  0  0
   15.9369   -9.6068  -14.8276 O   0  0  0  0  0  0  0  0  0  0  0  0
   15.4042  -11.8184  -15.0581 O   0  0  0  0  0  0  0  0  0  0  0  0
  1  2  1  0
  3  2  1  0
  3  5  1  0
  3  4  1  1
  5  7  1  0
  5  6  1  6
  7  8  2  0
  9 10  1  0
 10 12  1  0
 11 10  2  0
 13 12  1  0
 14 13  1  1
 15 14  1  0
 15  7  1  0
 16 17  2  0
 16 14  1  0
 19 18  1  6
 19 21  1  0
 20 19  1  0
 21 22  1  6
 21 23  1  0
 22 16  1  0
 23 24  1  0
 25 23  2  0
M  END
$$$$
