IQT.pdb
     RDKit          3D

 25 24  0  0  1  0  0  0  0  0999 V2000
   26.9413  -19.4424   -7.0525 C   0  0  0  0  0  0  0  0  0  0  0  0
   26.2691  -20.5730   -7.7990 C   0  0  0  0  0  0  0  0  0  0  0  0
   26.0670  -20.1671   -9.2706 C   0  0  2  0  0  0  0  0  0  0  0  0
   24.5831  -20.2314   -9.5406 C   0  0  0  0  0  0  0  0  0  0  0  0
   26.7580  -21.2229  -10.1081 C   0  0  2  0  0  0  0  0  0  0  0  0
   28.2103  -21.1140   -9.8143 N   0  0  0  0  0  0  0  0  0  0  0  0
   26.5851  -21.0444  -11.5623 C   0  0  0  0  0  0  0  0  0  0  0  0
   27.3324  -20.2118  -12.1879 O   0  0  0  0  0  0  0  0  0  0  0  0
   25.1258  -25.2875  -15.7246 N   0  0  0  0  0  0  0  0  0  0  0  0
   25.2227  -24.1384  -16.5763 C   0  0  0  0  0  0  0  0  0  0  0  0
   25.1570  -24.3628  -17.8142 O   0  0  0  0  0  0  0  0  0  0  0  0
   25.3906  -22.7683  -16.0199 C   0  0  0  0  0  0  0  0  0  0  0  0
   25.4065  -22.8878  -14.5193 C   0  0  0  0  0  0  0  0  0  0  0  0
   25.6169  -21.5701  -13.8254 C   0  0  2  0  0  0  0  0  0  0  0  0
   25.6474  -21.7220  -12.3742 N   0  0  0  0  0  0  0  0  0  0  0  0
   24.6379  -20.5426  -14.2403 C   0  0  0  0  0  0  0  0  0  0  0  0
   23.5642  -20.4737  -13.6322 O   0  0  0  0  0  0  0  0  0  0  0  0
   25.5521  -16.6146  -15.0323 C   0  0  0  0  0  0  0  0  0  0  0  0
   24.8163  -17.3280  -16.1512 C   0  0  1  0  0  0  0  0  0  0  0  0
   25.6175  -17.5179  -17.2721 O   0  0  0  0  0  0  0  0  0  0  0  0
   24.1123  -18.5538  -15.7060 C   0  0  2  0  0  0  0  0  0  0  0  0
   24.8849  -19.6559  -15.2873 N   0  0  0  0  0  0  0  0  0  0  0  0
   23.1888  -18.9837  -16.7835 C   0  0  0  0  0  0  0  0  0  0  0  0
   22.1798  -18.1602  -17.2724 O   0  0  0  0  0  0  0  0  0  0  0  0
   23.3320  -20.1351  -17.2647 O   0  0  0  0  0  0  0  0  0  0  0  0
  1  2  1  0
  3  2  1  0
  3  5  1  0
  3  4  1  6
  5  7  1  0
  5  6  1  6
  7  8  2  0
  9 10  1  0
 10 12  1  0
 11 10  2  0
 13 12  1  0
 14 13  1  6
 15 14  1  0
 15  7  1  0
 16 17  2  0
 16 14  1  0
 19 18  1  1
 19 21  1  0
 20 19  1  0
 21 22  1  6
 21 23  1  0
 22 16  1  0
 23 24  1  0
 25 23  2  0
M  END
$$$$
