IQT.pdb
     RDKit          3D

 25 24  0  0  1  0  0  0  0  0999 V2000
   26.0805  -13.7872  -16.7799 C   0  0  0  0  0  0  0  0  0  0  0  0
   24.5942  -13.7913  -16.5001 C   0  0  0  0  0  0  0  0  0  0  0  0
   24.0405  -12.3621  -16.6484 C   0  0  2  0  0  0  0  0  0  0  0  0
   24.6423  -11.5434  -15.5319 C   0  0  0  0  0  0  0  0  0  0  0  0
   22.5447  -12.4541  -16.4298 C   0  0  2  0  0  0  0  0  0  0  0  0
   22.0106  -13.3227  -17.5102 N   0  0  0  0  0  0  0  0  0  0  0  0
   21.8442  -11.1585  -16.5151 C   0  0  0  0  0  0  0  0  0  0  0  0
   21.6864  -10.6021  -17.6590 O   0  0  0  0  0  0  0  0  0  0  0  0
   16.5498   -9.1697  -14.8200 N   0  0  0  0  0  0  0  0  0  0  0  0
   17.1427  -10.4128  -15.2178 C   0  0  0  0  0  0  0  0  0  0  0  0
   16.3614  -11.3985  -15.2883 O   0  0  0  0  0  0  0  0  0  0  0  0
   18.5947  -10.5199  -15.5263 C   0  0  0  0  0  0  0  0  0  0  0  0
   19.2092   -9.1664  -15.2880 C   0  0  0  0  0  0  0  0  0  0  0  0
   20.6816   -9.1260  -15.5917 C   0  0  2  0  0  0  0  0  0  0  0  0
   21.3039  -10.4359  -15.4273 N   0  0  0  0  0  0  0  0  0  0  0  0
   21.3966   -8.0877  -14.8190 C   0  0  0  0  0  0  0  0  0  0  0  0
   21.8879   -8.3999  -13.7288 O   0  0  0  0  0  0  0  0  0  0  0  0
   24.1247   -5.4907  -16.4597 C   0  0  0  0  0  0  0  0  0  0  0  0
   23.0109   -4.8216  -15.6762 C   0  0  1  0  0  0  0  0  0  0  0  0
   22.1495   -4.1000  -16.4958 O   0  0  0  0  0  0  0  0  0  0  0  0
   22.3170   -5.7369  -14.7395 C   0  0  2  0  0  0  0  0  0  0  0  0
   21.5334   -6.7781  -15.2769 N   0  0  0  0  0  0  0  0  0  0  0  0
   21.4873   -4.9253  -13.8166 C   0  0  0  0  0  0  0  0  0  0  0  0
   22.0379   -3.9858  -12.9509 O   0  0  0  0  0  0  0  0  0  0  0  0
   20.2436   -5.1010  -13.8253 O   0  0  0  0  0  0  0  0  0  0  0  0
  1  2  1  0
  3  2  1  0
  3  5  1  0
  3  4  1  1
  5  7  1  0
  5  6  1  6
  7  8  2  0
  9 10  1  0
 10 12  1  0
 11 10  2  0
 13 12  1  0
 14 13  1  1
 15 14  1  0
 15  7  1  0
 16 17  2  0
 16 14  1  0
 19 18  1  6
 19 21  1  0
 20 19  1  0
 21 22  1  6
 21 23  1  0
 22 16  1  0
 23 24  1  0
 25 23  2  0
M  END
$$$$
