IQT.pdb
     RDKit          3D

 25 24  0  0  1  0  0  0  0  0999 V2000
   27.4969  -19.6691   -6.8575 C   0  0  0  0  0  0  0  0  0  0  0  0
   27.7512  -20.6106   -8.0136 C   0  0  0  0  0  0  0  0  0  0  0  0
   26.6902  -20.3800   -9.1055 C   0  0  2  0  0  0  0  0  0  0  0  0
   25.3784  -20.8811   -8.5514 C   0  0  0  0  0  0  0  0  0  0  0  0
   27.0840  -21.2507  -10.2804 C   0  0  2  0  0  0  0  0  0  0  0  0
   28.4107  -20.7665  -10.7414 N   0  0  0  0  0  0  0  0  0  0  0  0
   26.1588  -21.1679  -11.4265 C   0  0  0  0  0  0  0  0  0  0  0  0
   26.1427  -20.1082  -12.1476 O   0  0  0  0  0  0  0  0  0  0  0  0
   25.0435  -25.1376  -15.7672 N   0  0  0  0  0  0  0  0  0  0  0  0
   23.9260  -24.2748  -16.0161 C   0  0  0  0  0  0  0  0  0  0  0  0
   23.2118  -24.5710  -17.0106 O   0  0  0  0  0  0  0  0  0  0  0  0
   23.6373  -23.1031  -15.1451 C   0  0  0  0  0  0  0  0  0  0  0  0
   24.5850  -23.1630  -13.9768 C   0  0  0  0  0  0  0  0  0  0  0  0
   24.4001  -22.0265  -13.0092 C   0  0  2  0  0  0  0  0  0  0  0  0
   25.2526  -22.1731  -11.8337 N   0  0  0  0  0  0  0  0  0  0  0  0
   22.9857  -21.8239  -12.6286 C   0  0  0  0  0  0  0  0  0  0  0  0
   22.5535  -22.4170  -11.6342 O   0  0  0  0  0  0  0  0  0  0  0  0
   21.0486  -18.7953  -11.3562 C   0  0  0  0  0  0  0  0  0  0  0  0
   20.5190  -19.2109  -12.7160 C   0  0  1  0  0  0  0  0  0  0  0  0
   20.8776  -18.3153  -13.7178 O   0  0  0  0  0  0  0  0  0  0  0  0
   20.8022  -20.6265  -13.0513 C   0  0  2  0  0  0  0  0  0  0  0  0
   22.1305  -20.9918  -13.3496 N   0  0  0  0  0  0  0  0  0  0  0  0
   19.9193  -21.0304  -14.1720 C   0  0  0  0  0  0  0  0  0  0  0  0
   18.5319  -20.9878  -14.0799 O   0  0  0  0  0  0  0  0  0  0  0  0
   20.4544  -21.4236  -15.2382 O   0  0  0  0  0  0  0  0  0  0  0  0
  1  2  1  0
  3  2  1  0
  3  5  1  0
  3  4  1  1
  5  7  1  0
  5  6  1  6
  7  8  2  0
  9 10  1  0
 10 12  1  0
 11 10  2  0
 13 12  1  0
 14 13  1  6
 15 14  1  0
 15  7  1  0
 16 17  2  0
 16 14  1  0
 19 18  1  1
 19 21  1  0
 20 19  1  0
 21 22  1  6
 21 23  1  0
 22 16  1  0
 23 24  1  0
 25 23  2  0
M  END
$$$$
