IQT.pdb
     RDKit          3D

 25 24  0  0  1  0  0  0  0  0999 V2000
   28.5041  -18.8731  -18.7916 C   0  0  0  0  0  0  0  0  0  0  0  0
   28.5645  -19.6846  -17.5167 C   0  0  0  0  0  0  0  0  0  0  0  0
   27.1405  -19.8759  -16.9628 C   0  0  2  0  0  0  0  0  0  0  0  0
   26.5945  -18.4975  -16.6784 C   0  0  0  0  0  0  0  0  0  0  0  0
   27.2841  -20.6201  -15.6516 C   0  0  2  0  0  0  0  0  0  0  0  0
   27.8996  -21.9333  -15.9743 N   0  0  0  0  0  0  0  0  0  0  0  0
   26.0039  -20.8863  -14.9684 C   0  0  0  0  0  0  0  0  0  0  0  0
   25.1750  -21.7163  -15.4852 O   0  0  0  0  0  0  0  0  0  0  0  0
   24.5678  -20.6406   -8.9480 N   0  0  0  0  0  0  0  0  0  0  0  0
   23.3153  -21.0520   -9.5110 C   0  0  0  0  0  0  0  0  0  0  0  0
   22.4199  -21.3755   -8.6860 O   0  0  0  0  0  0  0  0  0  0  0  0
   23.0978  -21.0904  -10.9828 C   0  0  0  0  0  0  0  0  0  0  0  0
   24.3837  -20.6675  -11.6416 C   0  0  0  0  0  0  0  0  0  0  0  0
   24.2914  -20.6267  -13.1422 C   0  0  2  0  0  0  0  0  0  0  0  0
   25.5761  -20.3028  -13.7544 N   0  0  0  0  0  0  0  0  0  0  0  0
   23.2212  -19.7279  -13.6250 C   0  0  0  0  0  0  0  0  0  0  0  0
   23.3781  -18.5080  -13.5031 O   0  0  0  0  0  0  0  0  0  0  0  0
   21.9477  -18.4786  -16.8045 C   0  0  0  0  0  0  0  0  0  0  0  0
   20.8473  -19.3279  -16.1961 C   0  0  1  0  0  0  0  0  0  0  0  0
   20.6781  -20.5331  -16.8693 O   0  0  0  0  0  0  0  0  0  0  0  0
   20.9619  -19.4761  -14.7259 C   0  0  2  0  0  0  0  0  0  0  0  0
   22.0499  -20.2081  -14.2089 N   0  0  0  0  0  0  0  0  0  0  0  0
   19.6956  -20.0505  -14.2108 C   0  0  0  0  0  0  0  0  0  0  0  0
   18.4623  -19.4416  -14.4190 O   0  0  0  0  0  0  0  0  0  0  0  0
   19.7506  -21.1262  -13.5644 O   0  0  0  0  0  0  0  0  0  0  0  0
  1  2  1  0
  3  2  1  0
  3  5  1  0
  3  4  1  1
  5  7  1  0
  5  6  1  6
  7  8  2  0
  9 10  1  0
 10 12  1  0
 11 10  2  0
 13 12  1  0
 14 13  1  1
 15 14  1  0
 15  7  1  0
 16 17  2  0
 16 14  1  0
 19 18  1  6
 19 21  1  0
 20 19  1  0
 21 22  1  6
 21 23  1  0
 22 16  1  0
 23 24  1  0
 25 23  2  0
M  END
$$$$
