IQT.pdb
     RDKit          3D

 25 24  0  0  1  0  0  0  0  0999 V2000
   28.9555  -12.1760  -16.9881 C   0  0  0  0  0  0  0  0  0  0  0  0
   27.6438  -12.6271  -16.3852 C   0  0  0  0  0  0  0  0  0  0  0  0
   26.5760  -11.5404  -16.6092 C   0  0  2  0  0  0  0  0  0  0  0  0
   26.9893  -10.3463  -15.7831 C   0  0  0  0  0  0  0  0  0  0  0  0
   25.2788  -12.0890  -16.0524 C   0  0  2  0  0  0  0  0  0  0  0  0
   24.9888  -13.3373  -16.8040 N   0  0  0  0  0  0  0  0  0  0  0  0
   24.1226  -11.1889  -16.2245 C   0  0  0  0  0  0  0  0  0  0  0  0
   23.6524  -10.9853  -17.3995 O   0  0  0  0  0  0  0  0  0  0  0  0
   18.6396  -11.3096  -14.4988 N   0  0  0  0  0  0  0  0  0  0  0  0
   18.6101   -9.9944  -15.0684 C   0  0  0  0  0  0  0  0  0  0  0  0
   17.4663   -9.5125  -15.2837 O   0  0  0  0  0  0  0  0  0  0  0  0
   19.8619   -9.2531  -15.3821 C   0  0  0  0  0  0  0  0  0  0  0  0
   21.0166  -10.1824  -15.1183 C   0  0  0  0  0  0  0  0  0  0  0  0
   22.3506   -9.5752  -15.4555 C   0  0  2  0  0  0  0  0  0  0  0  0
   23.4482  -10.5002  -15.1909 N   0  0  0  0  0  0  0  0  0  0  0  0
   22.5703   -8.2725  -14.7913 C   0  0  0  0  0  0  0  0  0  0  0  0
   23.0212   -8.2677  -13.6406 O   0  0  0  0  0  0  0  0  0  0  0  0
   24.4495   -4.9943  -16.4251 C   0  0  0  0  0  0  0  0  0  0  0  0
   23.0313   -4.7486  -15.9451 C   0  0  1  0  0  0  0  0  0  0  0  0
   22.1474   -4.5370  -16.9980 O   0  0  0  0  0  0  0  0  0  0  0  0
   22.5595   -5.7525  -14.9621 C   0  0  2  0  0  0  0  0  0  0  0  0
   22.2875   -7.0589  -15.4163 N   0  0  0  0  0  0  0  0  0  0  0  0
   21.3608   -5.2124  -14.2764 C   0  0  0  0  0  0  0  0  0  0  0  0
   21.4020   -4.0560  -13.5043 O   0  0  0  0  0  0  0  0  0  0  0  0
   20.2744   -5.8298  -14.4043 O   0  0  0  0  0  0  0  0  0  0  0  0
  1  2  1  0
  3  2  1  0
  3  5  1  0
  3  4  1  1
  5  7  1  0
  5  6  1  6
  7  8  2  0
  9 10  1  0
 10 12  1  0
 11 10  2  0
 13 12  1  0
 14 13  1  1
 15 14  1  0
 15  7  1  0
 16 17  2  0
 16 14  1  0
 19 18  1  6
 19 21  1  0
 20 19  1  0
 21 22  1  6
 21 23  1  0
 22 16  1  0
 23 24  1  0
 25 23  2  0
M  END
$$$$
