YAL.pdb
     RDKit          3D

 26 26  0  0  1  0  0  0  0  0999 V2000
   19.2983  -17.2838  -16.7347 O   0  0  0  0  0  0  0  0  0  0  0  0
   19.4161  -15.9026  -16.8451 C   0  0  0  0  0  0  0  0  0  0  0  0
   19.4913  -15.3509  -18.1042 C   0  0  0  0  0  0  0  0  0  0  0  0
   19.6088  -13.9682  -18.1973 C   0  0  0  0  0  0  0  0  0  0  0  0
   19.6499  -13.1657  -17.0809 C   0  0  0  0  0  0  0  0  0  0  0  0
   19.7752  -11.6971  -17.2093 C   0  0  0  0  0  0  0  0  0  0  0  0
   18.4281  -11.0538  -17.1045 C   0  0  2  0  0  0  0  0  0  0  0  0
   17.5690  -11.3960  -18.2279 N   0  0  0  0  0  0  0  0  0  0  0  0
   18.6145   -9.5896  -17.0756 C   0  0  0  0  0  0  0  0  0  0  0  0
   18.6942   -8.9579  -18.1483 O   0  0  0  0  0  0  0  0  0  0  0  0
   19.5713  -13.7639  -15.8435 C   0  0  0  0  0  0  0  0  0  0  0  0
   19.4531  -15.1415  -15.7025 C   0  0  0  0  0  0  0  0  0  0  0  0
   17.6241   -6.7968  -15.1765 C   0  0  0  0  0  0  0  0  0  0  0  0
   18.8182   -7.4650  -15.8192 C   0  0  2  0  0  0  0  0  0  0  0  0
   18.7048   -8.8863  -15.8623 N   0  0  0  0  0  0  0  0  0  0  0  0
   20.0864   -7.0461  -15.1846 C   0  0  0  0  0  0  0  0  0  0  0  0
   20.5336   -7.7180  -14.2334 O   0  0  0  0  0  0  0  0  0  0  0  0
   23.9979   -6.0805  -17.2194 C   0  0  0  0  0  0  0  0  0  0  0  0
   22.9380   -4.9721  -17.3057 C   0  0  2  0  0  0  0  0  0  0  0  0
   23.5007   -3.8819  -18.1906 C   0  0  0  0  0  0  0  0  0  0  0  0
   22.7216   -4.4840  -15.9144 C   0  0  0  0  0  0  0  0  0  0  0  0
   22.0596   -5.4772  -15.0019 C   0  0  2  0  0  0  0  0  0  0  0  0
   20.8013   -5.9019  -15.6330 N   0  0  0  0  0  0  0  0  0  0  0  0
   21.7689   -4.9493  -13.6713 C   0  0  0  0  0  0  0  0  0  0  0  0
   22.6969   -5.0105  -12.6252 O   0  0  0  0  0  0  0  0  0  0  0  0
   20.6622   -4.4133  -13.4094 O   0  0  0  0  0  0  0  0  0  0  0  0
  1  2  1  0
  2  3  2  0
  4  3  1  0
  5  4  2  0
  6  5  1  0
  7  9  1  0
  7  6  1  0
  7  8  1  6
  9 15  1  0
 10  9  2  0
 11 12  2  0
 11  5  1  0
 12  2  1  0
 14 13  1  1
 15 14  1  0
 16 23  1  0
 16 14  1  0
 17 16  2  0
 19 18  1  1
 19 21  1  0
 20 19  1  0
 22 21  1  6
 22 24  1  0
 22 23  1  0
 24 25  1  0
 26 24  2  0
M  END
$$$$
