YAL.pdb
     RDKit          3D

 26 26  0  0  1  0  0  0  0  0999 V2000
   30.0197  -12.6343  -16.3317 O   0  0  0  0  0  0  0  0  0  0  0  0
   28.9053  -11.8079  -16.4268 C   0  0  0  0  0  0  0  0  0  0  0  0
   28.6706  -11.1605  -17.6188 C   0  0  0  0  0  0  0  0  0  0  0  0
   27.5520  -10.3378  -17.6974 C   0  0  0  0  0  0  0  0  0  0  0  0
   26.7001  -10.1659  -16.6312 C   0  0  0  0  0  0  0  0  0  0  0  0
   25.5170   -9.2846  -16.7428 C   0  0  0  0  0  0  0  0  0  0  0  0
   24.2846  -10.1025  -16.9696 C   0  0  2  0  0  0  0  0  0  0  0  0
   24.3780  -10.9105  -18.1761 N   0  0  0  0  0  0  0  0  0  0  0  0
   23.1358   -9.1842  -17.0987 C   0  0  0  0  0  0  0  0  0  0  0  0
   22.9016   -8.6418  -18.1973 O   0  0  0  0  0  0  0  0  0  0  0  0
   26.9768  -10.8345  -15.4601 C   0  0  0  0  0  0  0  0  0  0  0  0
   28.0829  -11.6668  -15.3360 C   0  0  0  0  0  0  0  0  0  0  0  0
   20.0416   -8.4663  -15.1513 C   0  0  0  0  0  0  0  0  0  0  0  0
   21.1234   -8.1024  -16.1426 C   0  0  2  0  0  0  0  0  0  0  0  0
   22.2951   -8.9047  -16.0077 N   0  0  0  0  0  0  0  0  0  0  0  0
   21.4500   -6.6613  -16.0911 C   0  0  0  0  0  0  0  0  0  0  0  0
   22.2573   -6.2580  -15.2298 O   0  0  0  0  0  0  0  0  0  0  0  0
   20.4846   -1.7476  -19.6742 C   0  0  0  0  0  0  0  0  0  0  0  0
   21.1178   -2.2283  -18.3599 C   0  0  2  0  0  0  0  0  0  0  0  0
   22.6066   -1.9813  -18.4631 C   0  0  0  0  0  0  0  0  0  0  0  0
   20.8154   -3.6835  -18.2516 C   0  0  0  0  0  0  0  0  0  0  0  0
   21.1522   -4.2921  -16.9200 C   0  0  2  0  0  0  0  0  0  0  0  0
   20.8673   -5.7326  -16.9963 N   0  0  0  0  0  0  0  0  0  0  0  0
   20.4023   -3.7182  -15.8055 C   0  0  0  0  0  0  0  0  0  0  0  0
   20.9671   -2.7855  -14.9279 O   0  0  0  0  0  0  0  0  0  0  0  0
   19.2073   -4.0423  -15.5875 O   0  0  0  0  0  0  0  0  0  0  0  0
  1  2  1  0
  2  3  2  0
  4  3  1  0
  5  4  2  0
  6  5  1  0
  7  9  1  0
  7  6  1  0
  7  8  1  6
  9 15  1  0
 10  9  2  0
 11 12  2  0
 11  5  1  0
 12  2  1  0
 14 13  1  1
 15 14  1  0
 16 23  1  0
 16 14  1  0
 17 16  2  0
 19 18  1  6
 19 21  1  0
 20 19  1  0
 22 21  1  6
 22 24  1  0
 22 23  1  0
 24 25  1  0
 26 24  2  0
M  END
$$$$
