YAL.pdb
     RDKit          3D

 26 26  0  0  1  0  0  0  0  0999 V2000
   29.2388  -22.1250  -21.4150 O   0  0  0  0  0  0  0  0  0  0  0  0
   28.7263  -23.2316  -20.7466 C   0  0  0  0  0  0  0  0  0  0  0  0
   29.6088  -24.0931  -20.1350 C   0  0  0  0  0  0  0  0  0  0  0  0
   29.0801  -25.1949  -19.4709 C   0  0  0  0  0  0  0  0  0  0  0  0
   27.7260  -25.4301  -19.4176 C   0  0  0  0  0  0  0  0  0  0  0  0
   27.1908  -26.6104  -18.7036 C   0  0  0  0  0  0  0  0  0  0  0  0
   26.3736  -26.1749  -17.5281 C   0  0  2  0  0  0  0  0  0  0  0  0
   27.1899  -25.5647  -16.4896 N   0  0  0  0  0  0  0  0  0  0  0  0
   25.6982  -27.3620  -16.9676 C   0  0  0  0  0  0  0  0  0  0  0  0
   26.1516  -27.8989  -15.9370 O   0  0  0  0  0  0  0  0  0  0  0  0
   26.8834  -24.5401  -20.0445 C   0  0  0  0  0  0  0  0  0  0  0  0
   27.3670  -23.4258  -20.7198 C   0  0  0  0  0  0  0  0  0  0  0  0
   22.3300  -28.8871  -17.2408 C   0  0  0  0  0  0  0  0  0  0  0  0
   23.8153  -28.9710  -16.9723 C   0  0  2  0  0  0  0  0  0  0  0  0
   24.5505  -27.9048  -17.5702 N   0  0  0  0  0  0  0  0  0  0  0  0
   24.3673  -30.2872  -17.3587 C   0  0  0  0  0  0  0  0  0  0  0  0
   24.8752  -30.4175  -18.4907 O   0  0  0  0  0  0  0  0  0  0  0  0
   27.8525  -33.0151  -16.8143 C   0  0  0  0  0  0  0  0  0  0  0  0
   27.0346  -32.5756  -15.5907 C   0  0  2  0  0  0  0  0  0  0  0  0
   27.7694  -33.0633  -14.3618 C   0  0  0  0  0  0  0  0  0  0  0  0
   25.6995  -33.2253  -15.7183 C   0  0  0  0  0  0  0  0  0  0  0  0
   24.8646  -32.7142  -16.8579 C   0  0  2  0  0  0  0  0  0  0  0  0
   24.3315  -31.3990  -16.4733 N   0  0  0  0  0  0  0  0  0  0  0  0
   23.7522  -33.5927  -17.2111 C   0  0  0  0  0  0  0  0  0  0  0  0
   22.4337  -33.3163  -16.8311 O   0  0  0  0  0  0  0  0  0  0  0  0
   23.9362  -34.6429  -17.8773 O   0  0  0  0  0  0  0  0  0  0  0  0
  1  2  1  0
  2  3  2  0
  4  3  1  0
  5  4  2  0
  6  5  1  0
  7  9  1  0
  7  6  1  0
  7  8  1  1
  9 15  1  0
 10  9  2  0
 11 12  2  0
 11  5  1  0
 12  2  1  0
 14 13  1  6
 15 14  1  0
 16 23  1  0
 16 14  1  0
 17 16  2  0
 19 18  1  6
 19 21  1  0
 20 19  1  0
 22 21  1  1
 22 24  1  0
 22 23  1  0
 24 25  1  0
 26 24  2  0
M  END
$$$$
