YAL.pdb
     RDKit          3D

 26 26  0  0  1  0  0  0  0  0999 V2000
   17.1813  -20.3171  -14.7726 O   0  0  0  0  0  0  0  0  0  0  0  0
   18.5271  -20.6619  -14.7099 C   0  0  0  0  0  0  0  0  0  0  0  0
   19.4564  -19.6526  -14.5954 C   0  0  0  0  0  0  0  0  0  0  0  0
   20.7980  -20.0142  -14.5340 C   0  0  0  0  0  0  0  0  0  0  0  0
   21.1992  -21.3289  -14.5845 C   0  0  0  0  0  0  0  0  0  0  0  0
   22.6336  -21.6851  -14.5168 C   0  0  0  0  0  0  0  0  0  0  0  0
   23.3705  -21.0773  -15.6687 C   0  0  2  0  0  0  0  0  0  0  0  0
   23.3639  -21.9408  -16.8398 N   0  0  0  0  0  0  0  0  0  0  0  0
   24.7686  -20.8462  -15.2548 C   0  0  0  0  0  0  0  0  0  0  0  0
   25.6106  -21.7557  -15.3953 O   0  0  0  0  0  0  0  0  0  0  0  0
   20.2327  -22.3025  -14.6992 C   0  0  0  0  0  0  0  0  0  0  0  0
   18.8806  -21.9878  -14.7640 C   0  0  0  0  0  0  0  0  0  0  0  0
   26.7570  -18.0568  -13.6723 C   0  0  0  0  0  0  0  0  0  0  0  0
   26.3759  -19.4947  -13.9418 C   0  0  2  0  0  0  0  0  0  0  0  0
   25.1762  -19.6195  -14.7033 N   0  0  0  0  0  0  0  0  0  0  0  0
   26.3051  -20.2847  -12.6940 C   0  0  0  0  0  0  0  0  0  0  0  0
   25.1949  -20.7045  -12.3100 O   0  0  0  0  0  0  0  0  0  0  0  0
   29.6049  -23.1733  -11.3121 C   0  0  0  0  0  0  0  0  0  0  0  0
   29.8215  -21.6796  -11.0271 C   0  0  2  0  0  0  0  0  0  0  0  0
   31.2113  -21.5307  -10.4485 C   0  0  0  0  0  0  0  0  0  0  0  0
   28.7776  -21.2809  -10.0412 C   0  0  0  0  0  0  0  0  0  0  0  0
   27.3864  -21.2059  -10.6033 C   0  0  2  0  0  0  0  0  0  0  0  0
   27.4678  -20.5737  -11.9283 N   0  0  0  0  0  0  0  0  0  0  0  0
   26.4569  -20.4462   -9.7710 C   0  0  0  0  0  0  0  0  0  0  0  0
   25.6522  -21.0574   -8.8024 O   0  0  0  0  0  0  0  0  0  0  0  0
   26.3411  -19.2003   -9.8924 O   0  0  0  0  0  0  0  0  0  0  0  0
  1  2  1  0
  2  3  2  0
  4  3  1  0
  5  4  2  0
  6  5  1  0
  7  9  1  0
  7  6  1  0
  7  8  1  6
  9 15  1  0
 10  9  2  0
 11 12  2  0
 11  5  1  0
 12  2  1  0
 14 13  1  1
 15 14  1  0
 16 23  1  0
 16 14  1  0
 17 16  2  0
 19 18  1  1
 19 21  1  0
 20 19  1  0
 22 21  1  1
 22 24  1  0
 22 23  1  0
 24 25  1  0
 26 24  2  0
M  END
$$$$
