YAL.pdb
     RDKit          3D

 26 26  0  0  1  0  0  0  0  0999 V2000
   20.2847  -16.7274  -16.3397 O   0  0  0  0  0  0  0  0  0  0  0  0
   21.2130  -17.4801  -15.6287 C   0  0  0  0  0  0  0  0  0  0  0  0
   22.5054  -17.0138  -15.5428 C   0  0  0  0  0  0  0  0  0  0  0  0
   23.4215  -17.7783  -14.8281 C   0  0  0  0  0  0  0  0  0  0  0  0
   23.0653  -18.9608  -14.2226 C   0  0  0  0  0  0  0  0  0  0  0  0
   24.0606  -19.7541  -13.4681 C   0  0  0  0  0  0  0  0  0  0  0  0
   25.1832  -20.1635  -14.3689 C   0  0  2  0  0  0  0  0  0  0  0  0
   24.7154  -20.9336  -15.5115 N   0  0  0  0  0  0  0  0  0  0  0  0
   26.1248  -20.9914  -13.5894 C   0  0  0  0  0  0  0  0  0  0  0  0
   25.8979  -22.2092  -13.4428 O   0  0  0  0  0  0  0  0  0  0  0  0
   21.7608  -19.3858  -14.3366 C   0  0  0  0  0  0  0  0  0  0  0  0
   20.8116  -18.6546  -15.0407 C   0  0  0  0  0  0  0  0  0  0  0  0
   29.5639  -20.6360  -12.1484 C   0  0  0  0  0  0  0  0  0  0  0  0
   28.1690  -21.2156  -12.2092 C   0  0  2  0  0  0  0  0  0  0  0  0
   27.2769  -20.4378  -13.0055 N   0  0  0  0  0  0  0  0  0  0  0  0
   27.6159  -21.4525  -10.8585 C   0  0  0  0  0  0  0  0  0  0  0  0
   28.0029  -22.4496  -10.2165 O   0  0  0  0  0  0  0  0  0  0  0  0
   28.2921  -20.6615   -6.8510 C   0  0  0  0  0  0  0  0  0  0  0  0
   27.9512  -19.4901   -7.7841 C   0  0  2  0  0  0  0  0  0  0  0  0
   28.2612  -18.2140   -7.0332 C   0  0  0  0  0  0  0  0  0  0  0  0
   26.4967  -19.6008   -8.0887 C   0  0  0  0  0  0  0  0  0  0  0  0
   26.1249  -20.7902   -8.9280 C   0  0  2  0  0  0  0  0  0  0  0  0
   26.6593  -20.5736  -10.2806 N   0  0  0  0  0  0  0  0  0  0  0  0
   24.6850  -21.0189   -9.0173 C   0  0  0  0  0  0  0  0  0  0  0  0
   23.9415  -21.5226   -7.9436 O   0  0  0  0  0  0  0  0  0  0  0  0
   24.0490  -20.7699  -10.0728 O   0  0  0  0  0  0  0  0  0  0  0  0
  1  2  1  0
  2  3  2  0
  4  3  1  0
  5  4  2  0
  6  5  1  0
  7  9  1  0
  7  6  1  0
  7  8  1  6
  9 15  1  0
 10  9  2  0
 11 12  2  0
 11  5  1  0
 12  2  1  0
 14 13  1  1
 15 14  1  0
 16 23  1  0
 16 14  1  0
 17 16  2  0
 19 18  1  1
 19 21  1  0
 20 19  1  0
 22 21  1  1
 22 24  1  0
 22 23  1  0
 24 25  1  0
 26 24  2  0
M  END
$$$$
