YAL.pdb
     RDKit          3D

 26 26  0  0  1  0  0  0  0  0999 V2000
   19.2495  -15.2509  -19.5371 O   0  0  0  0  0  0  0  0  0  0  0  0
   20.0310  -15.9989  -18.6632 C   0  0  0  0  0  0  0  0  0  0  0  0
   19.4496  -17.0648  -18.0143 C   0  0  0  0  0  0  0  0  0  0  0  0
   20.2448  -17.8026  -17.1439 C   0  0  0  0  0  0  0  0  0  0  0  0
   21.5671  -17.4918  -16.9276 C   0  0  0  0  0  0  0  0  0  0  0  0
   22.3901  -18.2942  -15.9959 C   0  0  0  0  0  0  0  0  0  0  0  0
   23.3256  -19.1752  -16.7627 C   0  0  2  0  0  0  0  0  0  0  0  0
   22.6170  -20.1763  -17.5457 N   0  0  0  0  0  0  0  0  0  0  0  0
   24.2101  -19.8613  -15.8002 C   0  0  0  0  0  0  0  0  0  0  0  0
   23.7424  -20.7486  -15.0586 O   0  0  0  0  0  0  0  0  0  0  0  0
   22.1036  -16.4167  -17.5996 C   0  0  0  0  0  0  0  0  0  0  0  0
   21.3468  -15.6512  -18.4787 C   0  0  0  0  0  0  0  0  0  0  0  0
   27.8731  -19.7643  -14.8827 C   0  0  0  0  0  0  0  0  0  0  0  0
   26.4121  -20.1028  -14.6925 C   0  0  2  0  0  0  0  0  0  0  0  0
   25.5738  -19.5371  -15.6985 N   0  0  0  0  0  0  0  0  0  0  0  0
   25.9403  -19.7466  -13.3371 C   0  0  0  0  0  0  0  0  0  0  0  0
   25.3296  -18.6707  -13.1763 O   0  0  0  0  0  0  0  0  0  0  0  0
   21.6951  -21.0964  -10.5276 C   0  0  0  0  0  0  0  0  0  0  0  0
   23.0726  -20.5939  -10.0700 C   0  0  2  0  0  0  0  0  0  0  0  0
   22.8931  -19.1716   -9.5873 C   0  0  0  0  0  0  0  0  0  0  0  0
   23.9630  -20.6536  -11.2635 C   0  0  0  0  0  0  0  0  0  0  0  0
   25.4204  -20.4448  -10.9642 C   0  0  2  0  0  0  0  0  0  0  0  0
   26.1666  -20.5988  -12.2218 N   0  0  0  0  0  0  0  0  0  0  0  0
   25.9566  -21.3779   -9.9766 C   0  0  0  0  0  0  0  0  0  0  0  0
   26.1873  -21.0061   -8.6470 O   0  0  0  0  0  0  0  0  0  0  0  0
   26.2354  -22.5647  -10.2841 O   0  0  0  0  0  0  0  0  0  0  0  0
  1  2  1  0
  2  3  2  0
  4  3  1  0
  5  4  2  0
  6  5  1  0
  7  9  1  0
  7  6  1  0
  7  8  1  1
  9 15  1  0
 10  9  2  0
 11 12  2  0
 11  5  1  0
 12  2  1  0
 14 13  1  6
 15 14  1  0
 16 23  1  0
 16 14  1  0
 17 16  2  0
 19 18  1  6
 19 21  1  0
 20 19  1  0
 22 21  1  6
 22 24  1  0
 22 23  1  0
 24 25  1  0
 26 24  2  0
M  END
$$$$
