YAL.pdb
     RDKit          3D

 26 26  0  0  1  0  0  0  0  0999 V2000
   20.0037  -20.0621  -14.4362 O   0  0  0  0  0  0  0  0  0  0  0  0
   20.2757  -18.7271  -14.7150 C   0  0  0  0  0  0  0  0  0  0  0  0
   21.5829  -18.3590  -14.9405 C   0  0  0  0  0  0  0  0  0  0  0  0
   21.8380  -17.0202  -15.2180 C   0  0  0  0  0  0  0  0  0  0  0  0
   20.8314  -16.0842  -15.2691 C   0  0  0  0  0  0  0  0  0  0  0  0
   21.1313  -14.6663  -15.5668 C   0  0  0  0  0  0  0  0  0  0  0  0
   20.7327  -14.3392  -16.9716 C   0  0  2  0  0  0  0  0  0  0  0  0
   21.5208  -15.0739  -17.9496 N   0  0  0  0  0  0  0  0  0  0  0  0
   20.9351  -12.8926  -17.1861 C   0  0  0  0  0  0  0  0  0  0  0  0
   22.0839  -12.4570  -17.4019 O   0  0  0  0  0  0  0  0  0  0  0  0
   19.5400  -16.5008  -15.0365 C   0  0  0  0  0  0  0  0  0  0  0  0
   19.2383  -17.8280  -14.7556 C   0  0  0  0  0  0  0  0  0  0  0  0
   18.7808   -9.8610  -17.7108 C   0  0  0  0  0  0  0  0  0  0  0  0
   20.0465  -10.5842  -17.3104 C   0  0  2  0  0  0  0  0  0  0  0  0
   19.8589  -11.9894  -17.1528 N   0  0  0  0  0  0  0  0  0  0  0  0
   20.6606   -9.9855  -16.1059 C   0  0  0  0  0  0  0  0  0  0  0  0
   20.2515  -10.3411  -14.9823 O   0  0  0  0  0  0  0  0  0  0  0  0
   24.1738  -10.5783  -14.0625 C   0  0  0  0  0  0  0  0  0  0  0  0
   24.3894   -9.8361  -15.3899 C   0  0  2  0  0  0  0  0  0  0  0  0
   25.8809   -9.7821  -15.6361 C   0  0  0  0  0  0  0  0  0  0  0  0
   23.8194   -8.4711  -15.2092 C   0  0  0  0  0  0  0  0  0  0  0  0
   22.3310   -8.4395  -15.0068 C   0  0  2  0  0  0  0  0  0  0  0  0
   21.7001   -9.0202  -16.2012 N   0  0  0  0  0  0  0  0  0  0  0  0
   21.7959   -7.0974  -14.7922 C   0  0  0  0  0  0  0  0  0  0  0  0
   21.0077   -6.4467  -15.7485 O   0  0  0  0  0  0  0  0  0  0  0  0
   22.0241   -6.4663  -13.7290 O   0  0  0  0  0  0  0  0  0  0  0  0
  1  2  1  0
  2  3  2  0
  4  3  1  0
  5  4  2  0
  6  5  1  0
  7  9  1  0
  7  6  1  0
  7  8  1  6
  9 15  1  0
 10  9  2  0
 11 12  2  0
 11  5  1  0
 12  2  1  0
 14 13  1  1
 15 14  1  0
 16 23  1  0
 16 14  1  0
 17 16  2  0
 19 18  1  1
 19 21  1  0
 20 19  1  0
 22 21  1  6
 22 24  1  0
 22 23  1  0
 24 25  1  0
 26 24  2  0
M  END
$$$$
