YAL.pdb
     RDKit          3D

 26 26  0  0  1  0  0  0  0  0999 V2000
   35.0405  -11.7397  -18.2728 O   0  0  0  0  0  0  0  0  0  0  0  0
   33.9347  -12.3473  -18.8576 C   0  0  0  0  0  0  0  0  0  0  0  0
   33.3713  -13.4309  -18.2223 C   0  0  0  0  0  0  0  0  0  0  0  0
   32.2661  -14.0271  -18.8202 C   0  0  0  0  0  0  0  0  0  0  0  0
   31.7421  -13.5631  -20.0043 C   0  0  0  0  0  0  0  0  0  0  0  0
   30.5651  -14.2166  -20.6181 C   0  0  0  0  0  0  0  0  0  0  0  0
   29.3354  -13.9194  -19.8188 C   0  0  2  0  0  0  0  0  0  0  0  0
   28.2061  -14.7420  -20.2254 N   0  0  0  0  0  0  0  0  0  0  0  0
   28.9859  -12.4987  -20.0166 C   0  0  0  0  0  0  0  0  0  0  0  0
   28.6554  -12.0982  -21.1508 O   0  0  0  0  0  0  0  0  0  0  0  0
   32.3402  -12.4766  -20.6017 C   0  0  0  0  0  0  0  0  0  0  0  0
   33.4461  -11.8492  -20.0405 C   0  0  0  0  0  0  0  0  0  0  0  0
   27.8293   -9.7030  -17.9204 C   0  0  0  0  0  0  0  0  0  0  0  0
   28.6013  -10.2262  -19.1102 C   0  0  2  0  0  0  0  0  0  0  0  0
   29.0168  -11.5817  -18.9522 N   0  0  0  0  0  0  0  0  0  0  0  0
   29.7432   -9.3502  -19.4492 C   0  0  0  0  0  0  0  0  0  0  0  0
   29.5208   -8.1576  -19.7400 O   0  0  0  0  0  0  0  0  0  0  0  0
   32.2150   -7.4833  -17.0662 C   0  0  0  0  0  0  0  0  0  0  0  0
   32.5958   -8.9654  -17.1992 C   0  0  2  0  0  0  0  0  0  0  0  0
   33.6025   -9.2687  -16.1116 C   0  0  0  0  0  0  0  0  0  0  0  0
   33.1948   -9.1287  -18.5539 C   0  0  0  0  0  0  0  0  0  0  0  0
   32.2270   -8.9473  -19.6887 C   0  0  2  0  0  0  0  0  0  0  0  0
   31.0796   -9.8355  -19.4506 N   0  0  0  0  0  0  0  0  0  0  0  0
   32.7963   -9.2481  -20.9998 C   0  0  0  0  0  0  0  0  0  0  0  0
   32.3021  -10.2776  -21.8094 O   0  0  0  0  0  0  0  0  0  0  0  0
   33.7628   -8.5879  -21.4586 O   0  0  0  0  0  0  0  0  0  0  0  0
  1  2  1  0
  2  3  2  0
  4  3  1  0
  5  4  2  0
  6  5  1  0
  7  9  1  0
  7  6  1  0
  7  8  1  6
  9 15  1  0
 10  9  2  0
 11 12  2  0
 11  5  1  0
 12  2  1  0
 14 13  1  1
 15 14  1  0
 16 23  1  0
 16 14  1  0
 17 16  2  0
 19 18  1  1
 19 21  1  0
 20 19  1  0
 22 21  1  1
 22 24  1  0
 22 23  1  0
 24 25  1  0
 26 24  2  0
M  END
$$$$
