YAL.pdb
     RDKit          3D

 26 26  0  0  1  0  0  0  0  0999 V2000
   19.5481  -14.5141  -17.1725 O   0  0  0  0  0  0  0  0  0  0  0  0
   20.4431  -15.5116  -16.8012 C   0  0  0  0  0  0  0  0  0  0  0  0
   21.6988  -15.1393  -16.3774 C   0  0  0  0  0  0  0  0  0  0  0  0
   22.5819  -16.1489  -16.0097 C   0  0  0  0  0  0  0  0  0  0  0  0
   22.2290  -17.4773  -16.0618 C   0  0  0  0  0  0  0  0  0  0  0  0
   23.1887  -18.5310  -15.6643 C   0  0  0  0  0  0  0  0  0  0  0  0
   24.3101  -18.6061  -16.6524 C   0  0  2  0  0  0  0  0  0  0  0  0
   23.8585  -19.0580  -17.9597 N   0  0  0  0  0  0  0  0  0  0  0  0
   25.3162  -19.5575  -16.1405 C   0  0  0  0  0  0  0  0  0  0  0  0
   25.2392  -20.7625  -16.4534 O   0  0  0  0  0  0  0  0  0  0  0  0
   20.9619  -17.8000  -16.4924 C   0  0  0  0  0  0  0  0  0  0  0  0
   20.0465  -16.8247  -16.8697 C   0  0  0  0  0  0  0  0  0  0  0  0
   28.4386  -19.3997  -14.0270 C   0  0  0  0  0  0  0  0  0  0  0  0
   27.2375  -20.0630  -14.6616 C   0  0  2  0  0  0  0  0  0  0  0  0
   26.3643  -19.1361  -15.3045 N   0  0  0  0  0  0  0  0  0  0  0  0
   26.5055  -20.9088  -13.6945 C   0  0  0  0  0  0  0  0  0  0  0  0
   26.8887  -22.0817  -13.5107 O   0  0  0  0  0  0  0  0  0  0  0  0
   26.8533  -22.0206  -10.1822 C   0  0  0  0  0  0  0  0  0  0  0  0
   26.2426  -20.6160  -10.2991 C   0  0  2  0  0  0  0  0  0  0  0  0
   26.3751  -19.9556   -8.9446 C   0  0  0  0  0  0  0  0  0  0  0  0
   24.8125  -20.8058  -10.6728 C   0  0  0  0  0  0  0  0  0  0  0  0
   24.5947  -21.2790  -12.0820 C   0  0  2  0  0  0  0  0  0  0  0  0
   25.3823  -20.4165  -12.9752 N   0  0  0  0  0  0  0  0  0  0  0  0
   23.1962  -21.2469  -12.5026 C   0  0  0  0  0  0  0  0  0  0  0  0
   22.2113  -22.0208  -11.8778 O   0  0  0  0  0  0  0  0  0  0  0  0
   22.8170  -20.5155  -13.4523 O   0  0  0  0  0  0  0  0  0  0  0  0
  1  2  1  0
  2  3  2  0
  4  3  1  0
  5  4  2  0
  6  5  1  0
  7  9  1  0
  7  6  1  0
  7  8  1  6
  9 15  1  0
 10  9  2  0
 11 12  2  0
 11  5  1  0
 12  2  1  0
 14 13  1  1
 15 14  1  0
 16 23  1  0
 16 14  1  0
 17 16  2  0
 19 18  1  1
 19 21  1  0
 20 19  1  0
 22 21  1  1
 22 24  1  0
 22 23  1  0
 24 25  1  0
 26 24  2  0
M  END
$$$$
