YAL.pdb
     RDKit          3D

 26 26  0  0  1  0  0  0  0  0999 V2000
   41.2203  -32.9613  -15.8405 O   0  0  0  0  0  0  0  0  0  0  0  0
   39.9195  -32.4699  -15.8226 C   0  0  0  0  0  0  0  0  0  0  0  0
   38.9410  -33.1847  -16.4760 C   0  0  0  0  0  0  0  0  0  0  0  0
   37.6454  -32.6797  -16.4486 C   0  0  0  0  0  0  0  0  0  0  0  0
   37.3356  -31.5090  -15.7964 C   0  0  0  0  0  0  0  0  0  0  0  0
   35.9483  -30.9949  -15.7831 C   0  0  0  0  0  0  0  0  0  0  0  0
   35.6667  -30.2390  -17.0436 C   0  0  2  0  0  0  0  0  0  0  0  0
   36.2910  -28.9247  -17.0450 N   0  0  0  0  0  0  0  0  0  0  0  0
   34.2050  -30.0726  -17.1677 C   0  0  0  0  0  0  0  0  0  0  0  0
   33.6627  -29.0419  -16.7209 O   0  0  0  0  0  0  0  0  0  0  0  0
   38.3483  -30.8298  -15.1574 C   0  0  0  0  0  0  0  0  0  0  0  0
   39.6573  -31.2967  -15.1585 C   0  0  0  0  0  0  0  0  0  0  0  0
   31.6828  -30.5264  -19.4416 C   0  0  0  0  0  0  0  0  0  0  0  0
   32.0100  -30.8583  -18.0035 C   0  0  2  0  0  0  0  0  0  0  0  0
   33.4055  -31.0525  -17.7803 N   0  0  0  0  0  0  0  0  0  0  0  0
   31.2223  -32.0105  -17.5154 C   0  0  0  0  0  0  0  0  0  0  0  0
   31.7026  -33.1567  -17.6240 O   0  0  0  0  0  0  0  0  0  0  0  0
   25.6869  -32.7321  -14.8794 C   0  0  0  0  0  0  0  0  0  0  0  0
   26.9500  -33.4822  -15.3281 C   0  0  2  0  0  0  0  0  0  0  0  0
   27.4561  -34.2616  -14.1345 C   0  0  0  0  0  0  0  0  0  0  0  0
   27.9305  -32.4437  -15.7534 C   0  0  0  0  0  0  0  0  0  0  0  0
   29.1442  -32.9835  -16.4553 C   0  0  2  0  0  0  0  0  0  0  0  0
   29.9382  -31.8402  -16.9291 N   0  0  0  0  0  0  0  0  0  0  0  0
   28.8303  -33.8468  -17.5911 C   0  0  0  0  0  0  0  0  0  0  0  0
   29.0981  -35.2207  -17.5803 O   0  0  0  0  0  0  0  0  0  0  0  0
   28.3017  -33.3860  -18.6345 O   0  0  0  0  0  0  0  0  0  0  0  0
  1  2  1  0
  2  3  2  0
  4  3  1  0
  5  4  2  0
  6  5  1  0
  7  9  1  0
  7  6  1  0
  7  8  1  1
  9 15  1  0
 10  9  2  0
 11 12  2  0
 11  5  1  0
 12  2  1  0
 14 13  1  6
 15 14  1  0
 16 23  1  0
 16 14  1  0
 17 16  2  0
 19 18  1  1
 19 21  1  0
 20 19  1  0
 22 21  1  6
 22 24  1  0
 22 23  1  0
 24 25  1  0
 26 24  2  0
M  END
$$$$
