YAL.pdb
     RDKit          3D

 26 26  0  0  1  0  0  0  0  0999 V2000
   22.2630  -33.3290  -19.7226 O   0  0  0  0  0  0  0  0  0  0  0  0
   23.3385  -32.6546  -19.1547 C   0  0  0  0  0  0  0  0  0  0  0  0
   23.0915  -31.7884  -18.1136 C   0  0  0  0  0  0  0  0  0  0  0  0
   24.1778  -31.1219  -17.5568 C   0  0  0  0  0  0  0  0  0  0  0  0
   25.4599  -31.3100  -18.0181 C   0  0  0  0  0  0  0  0  0  0  0  0
   26.5974  -30.5877  -17.4067 C   0  0  0  0  0  0  0  0  0  0  0  0
   26.6139  -29.1652  -17.8709 C   0  0  2  0  0  0  0  0  0  0  0  0
   26.8451  -29.0594  -19.3036 N   0  0  0  0  0  0  0  0  0  0  0  0
   27.6973  -28.4580  -17.1597 C   0  0  0  0  0  0  0  0  0  0  0  0
   27.7066  -28.4413  -15.9125 O   0  0  0  0  0  0  0  0  0  0  0  0
   25.6565  -32.1864  -19.0613 C   0  0  0  0  0  0  0  0  0  0  0  0
   24.6011  -32.8742  -19.6484 C   0  0  0  0  0  0  0  0  0  0  0  0
   31.1182  -27.2780  -17.8508 C   0  0  0  0  0  0  0  0  0  0  0  0
   29.7727  -27.1067  -17.1832 C   0  0  2  0  0  0  0  0  0  0  0  0
   28.7241  -27.7996  -17.8578 N   0  0  0  0  0  0  0  0  0  0  0  0
   29.4362  -25.6799  -16.9894 C   0  0  0  0  0  0  0  0  0  0  0  0
   30.2216  -24.9595  -16.3410 O   0  0  0  0  0  0  0  0  0  0  0  0
   27.0740  -21.2420  -20.0747 C   0  0  0  0  0  0  0  0  0  0  0  0
   27.3703  -21.6220  -18.6163 C   0  0  2  0  0  0  0  0  0  0  0  0
   28.4127  -20.6531  -18.1037 C   0  0  0  0  0  0  0  0  0  0  0  0
   27.8919  -23.0178  -18.6401 C   0  0  0  0  0  0  0  0  0  0  0  0
   27.8886  -23.7067  -17.3050 C   0  0  2  0  0  0  0  0  0  0  0  0
   28.2449  -25.1165  -17.5229 N   0  0  0  0  0  0  0  0  0  0  0  0
   26.6029  -23.6431  -16.6146 C   0  0  0  0  0  0  0  0  0  0  0  0
   26.2359  -22.5507  -15.8200 O   0  0  0  0  0  0  0  0  0  0  0  0
   25.7657  -24.5764  -16.7072 O   0  0  0  0  0  0  0  0  0  0  0  0
  1  2  1  0
  2  3  2  0
  4  3  1  0
  5  4  2  0
  6  5  1  0
  7  9  1  0
  7  6  1  0
  7  8  1  6
  9 15  1  0
 10  9  2  0
 11 12  2  0
 11  5  1  0
 12  2  1  0
 14 13  1  6
 15 14  1  0
 16 23  1  0
 16 14  1  0
 17 16  2  0
 19 18  1  6
 19 21  1  0
 20 19  1  0
 22 21  1  6
 22 24  1  0
 22 23  1  0
 24 25  1  0
 26 24  2  0
M  END
$$$$
