YAL.pdb
     RDKit          3D

 26 26  0  0  1  0  0  0  0  0999 V2000
   21.3953  -22.9924  -14.4407 O   0  0  0  0  0  0  0  0  0  0  0  0
   22.3955  -23.6760  -15.1234 C   0  0  0  0  0  0  0  0  0  0  0  0
   23.5246  -22.9824  -15.4964 C   0  0  0  0  0  0  0  0  0  0  0  0
   24.5155  -23.6806  -16.1784 C   0  0  0  0  0  0  0  0  0  0  0  0
   24.3877  -25.0171  -16.4775 C   0  0  0  0  0  0  0  0  0  0  0  0
   25.4579  -25.7353  -17.2041 C   0  0  0  0  0  0  0  0  0  0  0  0
   26.3518  -26.4444  -16.2359 C   0  0  2  0  0  0  0  0  0  0  0  0
   27.1074  -25.5167  -15.4078 N   0  0  0  0  0  0  0  0  0  0  0  0
   27.2983  -27.2777  -17.0035 C   0  0  0  0  0  0  0  0  0  0  0  0
   28.5009  -27.3065  -16.6735 O   0  0  0  0  0  0  0  0  0  0  0  0
   23.2401  -25.6675  -16.0836 C   0  0  0  0  0  0  0  0  0  0  0  0
   22.2240  -25.0102  -15.4002 C   0  0  0  0  0  0  0  0  0  0  0  0
   28.4307  -29.9265  -17.9073 C   0  0  0  0  0  0  0  0  0  0  0  0
   27.7622  -28.9115  -18.8062 C   0  0  2  0  0  0  0  0  0  0  0  0
   26.8749  -28.0436  -18.1031 N   0  0  0  0  0  0  0  0  0  0  0  0
   27.0867  -29.5569  -19.9523 C   0  0  0  0  0  0  0  0  0  0  0  0
   26.0324  -30.1921  -19.7491 O   0  0  0  0  0  0  0  0  0  0  0  0
   24.3966  -29.6287  -24.2022 C   0  0  0  0  0  0  0  0  0  0  0  0
   25.8685  -29.4749  -24.6138 C   0  0  2  0  0  0  0  0  0  0  0  0
   26.3540  -30.8368  -25.0587 C   0  0  0  0  0  0  0  0  0  0  0  0
   26.6001  -29.0069  -23.4029 C   0  0  0  0  0  0  0  0  0  0  0  0
   26.9319  -30.0917  -22.4178 C   0  0  2  0  0  0  0  0  0  0  0  0
   27.6101  -29.4691  -21.2713 N   0  0  0  0  0  0  0  0  0  0  0  0
   27.7898  -31.1397  -22.9651 C   0  0  0  0  0  0  0  0  0  0  0  0
   27.2695  -32.2819  -23.5847 O   0  0  0  0  0  0  0  0  0  0  0  0
   29.0426  -31.0571  -22.9009 O   0  0  0  0  0  0  0  0  0  0  0  0
  1  2  1  0
  2  3  2  0
  4  3  1  0
  5  4  2  0
  6  5  1  0
  7  9  1  0
  7  6  1  0
  7  8  1  6
  9 15  1  0
 10  9  2  0
 11 12  2  0
 11  5  1  0
 12  2  1  0
 14 13  1  1
 15 14  1  0
 16 23  1  0
 16 14  1  0
 17 16  2  0
 19 18  1  1
 19 21  1  0
 20 19  1  0
 22 21  1  6
 22 24  1  0
 22 23  1  0
 24 25  1  0
 26 24  2  0
M  END
$$$$
