YAL.pdb
     RDKit          3D

 26 26  0  0  1  0  0  0  0  0999 V2000
   30.9361  -21.4712  -10.9585 O   0  0  0  0  0  0  0  0  0  0  0  0
   29.9012  -20.9500  -11.7275 C   0  0  0  0  0  0  0  0  0  0  0  0
   30.1501  -19.8277  -12.4849 C   0  0  0  0  0  0  0  0  0  0  0  0
   29.1046  -19.3191  -13.2482 C   0  0  0  0  0  0  0  0  0  0  0  0
   27.8600  -19.9045  -13.2575 C   0  0  0  0  0  0  0  0  0  0  0  0
   26.7657  -19.3422  -14.0794 C   0  0  0  0  0  0  0  0  0  0  0  0
   26.7964  -19.9347  -15.4532 C   0  0  2  0  0  0  0  0  0  0  0  0
   27.5833  -19.1329  -16.3779 N   0  0  0  0  0  0  0  0  0  0  0  0
   25.4099  -20.0165  -15.9539 C   0  0  0  0  0  0  0  0  0  0  0  0
   24.8275  -18.9780  -16.3260 O   0  0  0  0  0  0  0  0  0  0  0  0
   27.6599  -21.0253  -12.4836 C   0  0  0  0  0  0  0  0  0  0  0  0
   28.6752  -21.5683  -11.7052 C   0  0  0  0  0  0  0  0  0  0  0  0
   23.0196  -22.5225  -17.2269 C   0  0  0  0  0  0  0  0  0  0  0  0
   23.3457  -21.3199  -16.3709 C   0  0  2  0  0  0  0  0  0  0  0  0
   24.7266  -21.2426  -16.0219 N   0  0  0  0  0  0  0  0  0  0  0  0
   22.4837  -21.2527  -15.1713 C   0  0  0  0  0  0  0  0  0  0  0  0
   21.2452  -21.2485  -15.3202 O   0  0  0  0  0  0  0  0  0  0  0  0
   21.3828  -19.6041  -10.2450 C   0  0  0  0  0  0  0  0  0  0  0  0
   22.3426  -20.8014  -10.1770 C   0  0  2  0  0  0  0  0  0  0  0  0
   23.2988  -20.5448   -9.0333 C   0  0  0  0  0  0  0  0  0  0  0  0
   23.0583  -20.8450  -11.4834 C   0  0  0  0  0  0  0  0  0  0  0  0
   22.1813  -21.1520  -12.6639 C   0  0  2  0  0  0  0  0  0  0  0  0
   23.0334  -21.1933  -13.8615 N   0  0  0  0  0  0  0  0  0  0  0  0
   21.1152  -20.1755  -12.8732 C   0  0  0  0  0  0  0  0  0  0  0  0
   19.7781  -20.4535  -12.5666 O   0  0  0  0  0  0  0  0  0  0  0  0
   21.3583  -19.0346  -13.3420 O   0  0  0  0  0  0  0  0  0  0  0  0
  1  2  1  0
  2  3  2  0
  4  3  1  0
  5  4  2  0
  6  5  1  0
  7  9  1  0
  7  6  1  0
  7  8  1  6
  9 15  1  0
 10  9  2  0
 11 12  2  0
 11  5  1  0
 12  2  1  0
 14 13  1  1
 15 14  1  0
 16 23  1  0
 16 14  1  0
 17 16  2  0
 19 18  1  6
 19 21  1  0
 20 19  1  0
 22 21  1  1
 22 24  1  0
 22 23  1  0
 24 25  1  0
 26 24  2  0
M  END
$$$$
