HAW.pdb
     RDKit          3D

 30 32  0  0  1  0  0  0  0  0999 V2000
   24.1912  -17.4737  -21.9507 N   0  0  0  0  0  0  0  0  0  0  0  0
   24.2700  -17.8263  -20.5210 C   0  0  1  0  0  0  0  0  0  0  0  0
   24.2985  -16.5194  -19.7895 C   0  0  0  0  0  0  0  0  0  0  0  0
   25.5749  -15.7955  -20.1040 C   0  0  0  0  0  0  0  0  0  0  0  0
   26.8447  -16.2488  -19.8335 C   0  0  0  0  0  0  0  0  0  0  0  0
   27.7008  -15.3091  -20.2476 N   0  0  0  0  0  0  0  0  0  0  0  0
   26.9915  -14.2952  -20.7628 C   0  0  0  0  0  0  0  0  0  0  0  0
   25.6983  -14.5907  -20.6756 N   0  0  0  0  0  0  0  0  0  0  0  0
   23.0820  -18.6041  -20.1146 C   0  0  0  0  0  0  0  0  0  0  0  0
   21.9218  -18.2240  -20.3504 O   0  0  0  0  0  0  0  0  0  0  0  0
   22.5539  -22.1149  -18.7968 C   0  0  0  0  0  0  0  0  0  0  0  0
   22.1153  -20.7042  -19.1142 C   0  0  2  0  0  0  0  0  0  0  0  0
   23.2331  -19.8436  -19.4231 N   0  0  0  0  0  0  0  0  0  0  0  0
   21.4495  -20.1739  -17.8970 C   0  0  0  0  0  0  0  0  0  0  0  0
   22.0970  -19.5113  -17.0486 O   0  0  0  0  0  0  0  0  0  0  0  0
   20.0746  -20.3835  -17.6338 N   0  0  0  0  0  0  0  0  0  0  0  0
   19.4656  -19.7807  -16.4685 C   0  0  1  0  0  0  0  0  0  0  0  0
   19.3220  -18.3016  -16.5780 C   0  0  0  0  0  0  0  0  0  0  0  0
   18.3698  -17.9921  -17.6725 C   0  0  0  0  0  0  0  0  0  0  0  0
   17.1286  -18.5283  -17.9434 C   0  0  0  0  0  0  0  0  0  0  0  0
   16.6599  -17.9277  -19.0466 N   0  0  0  0  0  0  0  0  0  0  0  0
   17.5246  -17.0291  -19.5124 C   0  0  0  0  0  0  0  0  0  0  0  0
   17.5645  -16.1474  -20.5826 C   0  0  0  0  0  0  0  0  0  0  0  0
   18.6527  -15.3197  -20.7922 C   0  0  0  0  0  0  0  0  0  0  0  0
   19.7220  -15.3515  -19.9436 C   0  0  0  0  0  0  0  0  0  0  0  0
   19.7079  -16.2110  -18.8818 C   0  0  0  0  0  0  0  0  0  0  0  0
   18.6149  -17.0442  -18.6688 C   0  0  0  0  0  0  0  0  0  0  0  0
   18.1349  -20.3876  -16.2809 C   0  0  0  0  0  0  0  0  0  0  0  0
   17.4141  -20.1104  -15.1360 O   0  0  0  0  0  0  0  0  0  0  0  0
   17.6236  -21.1547  -17.1275 O   0  0  0  0  0  0  0  0  0  0  0  0
  2  1  1  6
  2  3  1  0
  2  9  1  0
  3  4  1  0
  4  5  2  0
  4  8  1  0
  5  6  1  0
  6  7  1  0
  8  7  2  0
  9 10  2  0
 12 11  1  1
 12 14  1  0
 13  9  1  0
 13 12  1  0
 14 15  2  0
 16 14  1  0
 16 17  1  0
 17 28  1  0
 17 18  1  6
 19 27  1  0
 19 18  1  0
 20 19  2  0
 21 20  1  0
 21 22  1  0
 22 27  2  0
 23 22  1  0
 23 24  2  0
 24 25  1  0
 25 26  2  0
 27 26  1  0
 28 30  2  0
 28 29  1  0
M  END
$$$$
