HAW.pdb
     RDKit          3D

 30 32  0  0  1  0  0  0  0  0999 V2000
   23.9207  -21.6651  -16.7633 N   0  0  0  0  0  0  0  0  0  0  0  0
   24.1924  -20.6181  -15.7612 C   0  0  1  0  0  0  0  0  0  0  0  0
   22.8813  -20.3677  -15.0813 C   0  0  0  0  0  0  0  0  0  0  0  0
   22.0072  -19.5304  -15.9684 C   0  0  0  0  0  0  0  0  0  0  0  0
   22.1281  -18.1755  -16.1699 C   0  0  0  0  0  0  0  0  0  0  0  0
   21.1536  -17.8079  -17.0080 N   0  0  0  0  0  0  0  0  0  0  0  0
   20.4408  -18.8981  -17.3242 C   0  0  0  0  0  0  0  0  0  0  0  0
   20.9597  -19.9461  -16.6920 N   0  0  0  0  0  0  0  0  0  0  0  0
   25.1869  -21.0909  -14.7768 C   0  0  0  0  0  0  0  0  0  0  0  0
   25.1709  -22.2439  -14.3118 O   0  0  0  0  0  0  0  0  0  0  0  0
   28.3676  -19.6566  -13.2779 C   0  0  0  0  0  0  0  0  0  0  0  0
   27.2111  -20.6262  -13.3510 C   0  0  2  0  0  0  0  0  0  0  0  0
   26.2199  -20.2186  -14.3191 N   0  0  0  0  0  0  0  0  0  0  0  0
   26.5688  -20.6355  -12.0117 C   0  0  0  0  0  0  0  0  0  0  0  0
   25.4680  -20.0602  -11.8240 O   0  0  0  0  0  0  0  0  0  0  0  0
   27.1533  -21.2818  -10.8963 N   0  0  0  0  0  0  0  0  0  0  0  0
   26.4737  -21.2673   -9.6195 C   0  0  1  0  0  0  0  0  0  0  0  0
   27.3043  -21.8033   -8.5045 C   0  0  0  0  0  0  0  0  0  0  0  0
   27.3060  -20.8211   -7.3930 C   0  0  0  0  0  0  0  0  0  0  0  0
   26.2672  -20.0900   -6.8567 C   0  0  0  0  0  0  0  0  0  0  0  0
   26.7708  -19.3332   -5.8712 N   0  0  0  0  0  0  0  0  0  0  0  0
   28.0803  -19.5282   -5.7329 C   0  0  0  0  0  0  0  0  0  0  0  0
   29.0787  -19.0331   -4.9068 C   0  0  0  0  0  0  0  0  0  0  0  0
   30.3891  -19.4589   -5.0281 C   0  0  0  0  0  0  0  0  0  0  0  0
   30.7335  -20.3841   -5.9714 C   0  0  0  0  0  0  0  0  0  0  0  0
   29.7690  -20.8876   -6.7976 C   0  0  0  0  0  0  0  0  0  0  0  0
   28.4507  -20.4612   -6.6778 C   0  0  0  0  0  0  0  0  0  0  0  0
   26.0929  -19.8750   -9.3186 C   0  0  0  0  0  0  0  0  0  0  0  0
   24.9330  -19.6225   -8.6128 O   0  0  0  0  0  0  0  0  0  0  0  0
   26.7861  -18.8980   -9.6813 O   0  0  0  0  0  0  0  0  0  0  0  0
  2  1  1  6
  2  3  1  0
  2  9  1  0
  3  4  1  0
  4  5  2  0
  4  8  1  0
  5  6  1  0
  6  7  1  0
  8  7  2  0
  9 10  2  0
 12 11  1  1
 12 14  1  0
 13  9  1  0
 13 12  1  0
 14 15  2  0
 16 14  1  0
 16 17  1  0
 17 28  1  0
 17 18  1  1
 19 27  1  0
 19 18  1  0
 20 19  2  0
 21 20  1  0
 21 22  1  0
 22 27  2  0
 23 22  1  0
 23 24  2  0
 24 25  1  0
 25 26  2  0
 27 26  1  0
 28 30  2  0
 28 29  1  0
M  END
$$$$
