HAW.pdb
     RDKit          3D

 30 32  0  0  1  0  0  0  0  0999 V2000
   25.4150  -18.4497  -17.5730 N   0  0  0  0  0  0  0  0  0  0  0  0
   25.5511  -18.3522  -16.1080 C   0  0  1  0  0  0  0  0  0  0  0  0
   24.1541  -18.4264  -15.5724 C   0  0  0  0  0  0  0  0  0  0  0  0
   23.4105  -17.1740  -15.9338 C   0  0  0  0  0  0  0  0  0  0  0  0
   22.0431  -17.0338  -15.9754 C   0  0  0  0  0  0  0  0  0  0  0  0
   21.7818  -15.7797  -16.3579 N   0  0  0  0  0  0  0  0  0  0  0  0
   22.9491  -15.1499  -16.5515 C   0  0  0  0  0  0  0  0  0  0  0  0
   23.9400  -15.9977  -16.2936 N   0  0  0  0  0  0  0  0  0  0  0  0
   26.3497  -19.4804  -15.5873 C   0  0  0  0  0  0  0  0  0  0  0  0
   26.0390  -20.6676  -15.7875 O   0  0  0  0  0  0  0  0  0  0  0  0
   29.3287  -19.7655  -13.2419 C   0  0  0  0  0  0  0  0  0  0  0  0
   28.2851  -20.2968  -14.1966 C   0  0  2  0  0  0  0  0  0  0  0  0
   27.5289  -19.2365  -14.8209 N   0  0  0  0  0  0  0  0  0  0  0  0
   27.3449  -21.1213  -13.3950 C   0  0  0  0  0  0  0  0  0  0  0  0
   27.1740  -22.3377  -13.6577 O   0  0  0  0  0  0  0  0  0  0  0  0
   26.6052  -20.5887  -12.3121 N   0  0  0  0  0  0  0  0  0  0  0  0
   25.7071  -21.4425  -11.5660 C   0  0  1  0  0  0  0  0  0  0  0  0
   26.2807  -21.9145  -10.2742 C   0  0  0  0  0  0  0  0  0  0  0  0
   26.4451  -20.7508   -9.3691 C   0  0  0  0  0  0  0  0  0  0  0  0
   25.7386  -19.5681   -9.3114 C   0  0  0  0  0  0  0  0  0  0  0  0
   26.2682  -18.8274   -8.3273 N   0  0  0  0  0  0  0  0  0  0  0  0
   27.2811  -19.4591   -7.7383 C   0  0  0  0  0  0  0  0  0  0  0  0
   28.1621  -19.1797   -6.7039 C   0  0  0  0  0  0  0  0  0  0  0  0
   29.1372  -20.0849   -6.3256 C   0  0  0  0  0  0  0  0  0  0  0  0
   29.2564  -21.2845   -6.9668 C   0  0  0  0  0  0  0  0  0  0  0  0
   28.4011  -21.5843   -7.9891 C   0  0  0  0  0  0  0  0  0  0  0  0
   27.4198  -20.6759   -8.3714 C   0  0  0  0  0  0  0  0  0  0  0  0
   24.4687  -20.6866  -11.3029 C   0  0  0  0  0  0  0  0  0  0  0  0
   23.3461  -21.3524  -10.8515 O   0  0  0  0  0  0  0  0  0  0  0  0
   24.3906  -19.4491  -11.4739 O   0  0  0  0  0  0  0  0  0  0  0  0
  2  1  1  6
  2  3  1  0
  2  9  1  0
  3  4  1  0
  4  5  2  0
  4  8  1  0
  5  6  1  0
  6  7  1  0
  8  7  2  0
  9 10  2  0
 12 11  1  1
 12 14  1  0
 13  9  1  0
 13 12  1  0
 14 15  2  0
 16 14  1  0
 16 17  1  0
 17 28  1  0
 17 18  1  1
 19 27  1  0
 19 18  1  0
 20 19  2  0
 21 20  1  0
 21 22  1  0
 22 27  2  0
 23 22  1  0
 23 24  2  0
 24 25  1  0
 25 26  2  0
 27 26  1  0
 28 30  2  0
 28 29  1  0
M  END
$$$$
