HAW.pdb
     RDKit          3D

 30 32  0  0  1  0  0  0  0  0999 V2000
   13.2262  -22.9761   -3.9601 N   0  0  0  0  0  0  0  0  0  0  0  0
   13.8167  -23.4383   -2.6904 C   0  0  1  0  0  0  0  0  0  0  0  0
   15.2967  -23.2791   -2.8582 C   0  0  0  0  0  0  0  0  0  0  0  0
   15.7977  -24.2722   -3.8656 C   0  0  0  0  0  0  0  0  0  0  0  0
   16.0711  -25.5977   -3.6215 C   0  0  0  0  0  0  0  0  0  0  0  0
   16.5118  -26.1315   -4.7652 N   0  0  0  0  0  0  0  0  0  0  0  0
   16.5159  -25.1714   -5.7005 C   0  0  0  0  0  0  0  0  0  0  0  0
   16.0816  -24.0403   -5.1536 N   0  0  0  0  0  0  0  0  0  0  0  0
   13.3453  -22.6028   -1.5673 C   0  0  0  0  0  0  0  0  0  0  0  0
   13.1681  -21.3768   -1.6749 O   0  0  0  0  0  0  0  0  0  0  0  0
   12.1688  -23.3020    1.9811 C   0  0  0  0  0  0  0  0  0  0  0  0
   12.6086  -22.4212    0.8348 C   0  0  2  0  0  0  0  0  0  0  0  0
   13.0728  -23.1909   -0.2956 N   0  0  0  0  0  0  0  0  0  0  0  0
   13.7438  -21.6013    1.3299 C   0  0  0  0  0  0  0  0  0  0  0  0
   14.9281  -21.9987    1.1975 O   0  0  0  0  0  0  0  0  0  0  0  0
   13.5541  -20.3510    1.9657 N   0  0  0  0  0  0  0  0  0  0  0  0
   14.6999  -19.5368    2.3073 C   0  0  1  0  0  0  0  0  0  0  0  0
   14.6841  -18.1960    1.6573 C   0  0  0  0  0  0  0  0  0  0  0  0
   13.6191  -17.3734    2.2812 C   0  0  0  0  0  0  0  0  0  0  0  0
   13.5100  -16.8973    3.5707 C   0  0  0  0  0  0  0  0  0  0  0  0
   12.3626  -16.2086    3.6525 N   0  0  0  0  0  0  0  0  0  0  0  0
   11.7154  -16.2074    2.4893 C   0  0  0  0  0  0  0  0  0  0  0  0
   10.5267  -15.6749    2.0119 C   0  0  0  0  0  0  0  0  0  0  0  0
   10.1285  -15.8657    0.7011 C   0  0  0  0  0  0  0  0  0  0  0  0
   10.9024  -16.5887   -0.1608 C   0  0  0  0  0  0  0  0  0  0  0  0
   12.0778  -17.1241    0.2843 C   0  0  0  0  0  0  0  0  0  0  0  0
   12.4806  -16.9337    1.6018 C   0  0  0  0  0  0  0  0  0  0  0  0
   14.7226  -19.3688    3.7720 C   0  0  0  0  0  0  0  0  0  0  0  0
   15.8200  -18.7860    4.3747 O   0  0  0  0  0  0  0  0  0  0  0  0
   13.7758  -19.7376    4.5030 O   0  0  0  0  0  0  0  0  0  0  0  0
  2  1  1  6
  2  3  1  0
  2  9  1  0
  3  4  1  0
  4  5  2  0
  4  8  1  0
  5  6  1  0
  6  7  1  0
  8  7  2  0
  9 10  2  0
 12 11  1  1
 12 14  1  0
 13  9  1  0
 13 12  1  0
 14 15  2  0
 16 14  1  0
 16 17  1  0
 17 28  1  0
 17 18  1  6
 19 27  1  0
 19 18  1  0
 20 19  2  0
 21 20  1  0
 21 22  1  0
 22 27  2  0
 23 22  1  0
 23 24  2  0
 24 25  1  0
 25 26  2  0
 27 26  1  0
 28 30  2  0
 28 29  1  0
M  END
$$$$
