HAW.pdb
     RDKit          3D

 30 32  0  0  1  0  0  0  0  0999 V2000
   29.9313  -19.7344  -18.5517 N   0  0  0  0  0  0  0  0  0  0  0  0
   28.5809  -20.1684  -18.1487 C   0  0  1  0  0  0  0  0  0  0  0  0
   28.5175  -21.6287  -18.4764 C   0  0  0  0  0  0  0  0  0  0  0  0
   28.2425  -21.8033  -19.9414 C   0  0  0  0  0  0  0  0  0  0  0  0
   28.9224  -22.6417  -20.7934 C   0  0  0  0  0  0  0  0  0  0  0  0
   28.3894  -22.4920  -22.0103 N   0  0  0  0  0  0  0  0  0  0  0  0
   27.4044  -21.5869  -21.9269 C   0  0  0  0  0  0  0  0  0  0  0  0
   27.3147  -21.1677  -20.6685 N   0  0  0  0  0  0  0  0  0  0  0  0
   28.3860  -19.9699  -16.6981 C   0  0  0  0  0  0  0  0  0  0  0  0
   28.9998  -20.6337  -15.8444 O   0  0  0  0  0  0  0  0  0  0  0  0
   26.5130  -17.4181  -14.5967 C   0  0  0  0  0  0  0  0  0  0  0  0
   27.3124  -18.6809  -14.8187 C   0  0  2  0  0  0  0  0  0  0  0  0
   27.4664  -18.9878  -16.2215 N   0  0  0  0  0  0  0  0  0  0  0  0
   26.5538  -19.7902  -14.1862 C   0  0  0  0  0  0  0  0  0  0  0  0
   25.8365  -20.5539  -14.8792 O   0  0  0  0  0  0  0  0  0  0  0  0
   26.5986  -20.0406  -12.7938 N   0  0  0  0  0  0  0  0  0  0  0  0
   25.9853  -21.2362  -12.2582 C   0  0  1  0  0  0  0  0  0  0  0  0
   26.7307  -21.8139  -11.1045 C   0  0  0  0  0  0  0  0  0  0  0  0
   26.6470  -20.8736   -9.9603 C   0  0  0  0  0  0  0  0  0  0  0  0
   25.5973  -20.0857   -9.5376 C   0  0  0  0  0  0  0  0  0  0  0  0
   26.0111  -19.4035   -8.4603 N   0  0  0  0  0  0  0  0  0  0  0  0
   27.2722  -19.7008   -8.1547 C   0  0  0  0  0  0  0  0  0  0  0  0
   28.1788  -19.3108   -7.1798 C   0  0  0  0  0  0  0  0  0  0  0  0
   29.4606  -19.8291   -7.1413 C   0  0  0  0  0  0  0  0  0  0  0  0
   29.8669  -20.7444   -8.0696 C   0  0  0  0  0  0  0  0  0  0  0  0
   28.9933  -21.1452   -9.0404 C   0  0  0  0  0  0  0  0  0  0  0  0
   27.7039  -20.6256   -9.0814 C   0  0  0  0  0  0  0  0  0  0  0  0
   24.6146  -20.8973  -11.8331 C   0  0  0  0  0  0  0  0  0  0  0  0
   23.6972  -21.9074  -11.6203 O   0  0  0  0  0  0  0  0  0  0  0  0
   24.2419  -19.7158  -11.6546 O   0  0  0  0  0  0  0  0  0  0  0  0
  2  1  1  1
  2  3  1  0
  2  9  1  0
  3  4  1  0
  4  5  2  0
  4  8  1  0
  5  6  1  0
  6  7  1  0
  8  7  2  0
  9 10  2  0
 12 11  1  6
 12 14  1  0
 13  9  1  0
 13 12  1  0
 14 15  2  0
 16 14  1  0
 16 17  1  0
 17 28  1  0
 17 18  1  1
 19 27  1  0
 19 18  1  0
 20 19  2  0
 21 20  1  0
 21 22  1  0
 22 27  2  0
 23 22  1  0
 23 24  2  0
 24 25  1  0
 25 26  2  0
 27 26  1  0
 28 30  2  0
 28 29  1  0
M  END
$$$$
