HAW.pdb
     RDKit          3D

 30 32  0  0  1  0  0  0  0  0999 V2000
   13.1587  -23.0330   -2.6558 N   0  0  0  0  0  0  0  0  0  0  0  0
   13.9259  -24.0605   -1.9277 C   0  0  1  0  0  0  0  0  0  0  0  0
   15.3192  -23.9771   -2.4714 C   0  0  0  0  0  0  0  0  0  0  0  0
   15.3552  -24.5625   -3.8528 C   0  0  0  0  0  0  0  0  0  0  0  0
   15.2198  -25.8947   -4.1660 C   0  0  0  0  0  0  0  0  0  0  0  0
   15.3289  -26.0057   -5.4938 N   0  0  0  0  0  0  0  0  0  0  0  0
   15.5270  -24.7809   -6.0009 C   0  0  0  0  0  0  0  0  0  0  0  0
   15.5431  -23.9028   -5.0030 N   0  0  0  0  0  0  0  0  0  0  0  0
   13.9332  -23.7701   -0.4795 C   0  0  0  0  0  0  0  0  0  0  0  0
   14.1270  -22.6279   -0.0281 O   0  0  0  0  0  0  0  0  0  0  0  0
   13.2924  -25.8095    2.6688 C   0  0  0  0  0  0  0  0  0  0  0  0
   13.7435  -24.5935    1.8937 C   0  0  2  0  0  0  0  0  0  0  0  0
   13.7131  -24.8156    0.4670 N   0  0  0  0  0  0  0  0  0  0  0  0
   15.1507  -24.3269    2.2874 C   0  0  0  0  0  0  0  0  0  0  0  0
   16.1042  -24.8113    1.6284 O   0  0  0  0  0  0  0  0  0  0  0  0
   15.4853  -23.5269    3.4061 N   0  0  0  0  0  0  0  0  0  0  0  0
   16.8748  -23.2889    3.7301 C   0  0  1  0  0  0  0  0  0  0  0  0
   17.5219  -22.2817    2.8429 C   0  0  0  0  0  0  0  0  0  0  0  0
   16.9114  -20.9544    3.0993 C   0  0  0  0  0  0  0  0  0  0  0  0
   16.2221  -20.4957    4.2019 C   0  0  0  0  0  0  0  0  0  0  0  0
   15.8619  -19.2279    3.9560 N   0  0  0  0  0  0  0  0  0  0  0  0
   16.2769  -18.8317    2.7548 C   0  0  0  0  0  0  0  0  0  0  0  0
   16.1907  -17.6672    2.0058 C   0  0  0  0  0  0  0  0  0  0  0  0
   16.7498  -17.5812    0.7436 C   0  0  0  0  0  0  0  0  0  0  0  0
   17.4050  -18.6491    0.2007 C   0  0  0  0  0  0  0  0  0  0  0  0
   17.5040  -19.8078    0.9176 C   0  0  0  0  0  0  0  0  0  0  0  0
   16.9428  -19.8970    2.1870 C   0  0  0  0  0  0  0  0  0  0  0  0
   16.9467  -22.8256    5.1281 C   0  0  0  0  0  0  0  0  0  0  0  0
   15.7808  -22.6162    5.8381 O   0  0  0  0  0  0  0  0  0  0  0  0
   18.0355  -22.6108    5.7070 O   0  0  0  0  0  0  0  0  0  0  0  0
  2  1  1  6
  2  3  1  0
  2  9  1  0
  3  4  1  0
  4  5  2  0
  4  8  1  0
  5  6  1  0
  6  7  1  0
  8  7  2  0
  9 10  2  0
 12 11  1  1
 12 14  1  0
 13  9  1  0
 13 12  1  0
 14 15  2  0
 16 14  1  0
 16 17  1  0
 17 28  1  0
 17 18  1  6
 19 27  1  0
 19 18  1  0
 20 19  2  0
 21 20  1  0
 21 22  1  0
 22 27  2  0
 23 22  1  0
 23 24  2  0
 24 25  1  0
 25 26  2  0
 27 26  1  0
 28 30  2  0
 28 29  1  0
M  END
$$$$
