HAW.pdb
     RDKit          3D

 30 32  0  0  1  0  0  0  0  0999 V2000
   29.7021  -20.4202  -18.4950 N   0  0  0  0  0  0  0  0  0  0  0  0
   28.2656  -20.2940  -18.1868 C   0  0  1  0  0  0  0  0  0  0  0  0
   27.6338  -21.5460  -18.7134 C   0  0  0  0  0  0  0  0  0  0  0  0
   27.4389  -21.4250  -20.1965 C   0  0  0  0  0  0  0  0  0  0  0  0
   26.2443  -21.1857  -20.8342 C   0  0  0  0  0  0  0  0  0  0  0  0
   26.4895  -21.1694  -22.1483 N   0  0  0  0  0  0  0  0  0  0  0  0
   27.7984  -21.3918  -22.3321 C   0  0  0  0  0  0  0  0  0  0  0  0
   28.3763  -21.5473  -21.1451 N   0  0  0  0  0  0  0  0  0  0  0  0
   28.0567  -20.2008  -16.7276 C   0  0  0  0  0  0  0  0  0  0  0  0
   28.4673  -21.0683  -15.9371 O   0  0  0  0  0  0  0  0  0  0  0  0
   26.7661  -17.4656  -14.4275 C   0  0  0  0  0  0  0  0  0  0  0  0
   27.2957  -18.8444  -14.7459 C   0  0  2  0  0  0  0  0  0  0  0  0
   27.3613  -19.0869  -16.1681 N   0  0  0  0  0  0  0  0  0  0  0  0
   26.3435  -19.8204  -14.1568 C   0  0  0  0  0  0  0  0  0  0  0  0
   25.3906  -20.2772  -14.8359 O   0  0  0  0  0  0  0  0  0  0  0  0
   26.4581  -20.2789  -12.8226 N   0  0  0  0  0  0  0  0  0  0  0  0
   25.5839  -21.3279  -12.3452 C   0  0  1  0  0  0  0  0  0  0  0  0
   26.1375  -22.0697  -11.1775 C   0  0  0  0  0  0  0  0  0  0  0  0
   26.3252  -21.1213  -10.0524 C   0  0  0  0  0  0  0  0  0  0  0  0
   25.4167  -20.2842   -9.4400 C   0  0  0  0  0  0  0  0  0  0  0  0
   26.0668  -19.6168   -8.4759 N   0  0  0  0  0  0  0  0  0  0  0  0
   27.3491  -19.9702   -8.4234 C   0  0  0  0  0  0  0  0  0  0  0  0
   28.4482  -19.6178   -7.6539 C   0  0  0  0  0  0  0  0  0  0  0  0
   29.6878  -20.1943   -7.8643 C   0  0  0  0  0  0  0  0  0  0  0  0
   29.8601  -21.1314   -8.8424 C   0  0  0  0  0  0  0  0  0  0  0  0
   28.7936  -21.4961   -9.6144 C   0  0  0  0  0  0  0  0  0  0  0  0
   27.5461  -20.9181   -9.4049 C   0  0  0  0  0  0  0  0  0  0  0  0
   24.2964  -20.7158  -11.9687 C   0  0  0  0  0  0  0  0  0  0  0  0
   24.2023  -19.3430  -11.8511 O   0  0  0  0  0  0  0  0  0  0  0  0
   23.2701  -21.3975  -11.7478 O   0  0  0  0  0  0  0  0  0  0  0  0
  2  1  1  1
  2  3  1  0
  2  9  1  0
  3  4  1  0
  4  5  2  0
  4  8  1  0
  5  6  1  0
  6  7  1  0
  8  7  2  0
  9 10  2  0
 12 11  1  6
 12 14  1  0
 13  9  1  0
 13 12  1  0
 14 15  2  0
 16 14  1  0
 16 17  1  0
 17 28  1  0
 17 18  1  1
 19 27  1  0
 19 18  1  0
 20 19  2  0
 21 20  1  0
 21 22  1  0
 22 27  2  0
 23 22  1  0
 23 24  2  0
 24 25  1  0
 25 26  2  0
 27 26  1  0
 28 30  2  0
 28 29  1  0
M  END
$$$$
