HAW.pdb
     RDKit          3D

 30 32  0  0  1  0  0  0  0  0999 V2000
   29.5139  -21.0646  -17.9665 N   0  0  0  0  0  0  0  0  0  0  0  0
   28.5698  -21.8425  -17.1431 C   0  0  1  0  0  0  0  0  0  0  0  0
   29.1460  -23.2235  -17.0739 C   0  0  0  0  0  0  0  0  0  0  0  0
   29.0638  -23.8704  -18.4256 C   0  0  0  0  0  0  0  0  0  0  0  0
   28.0799  -24.7346  -18.8455 C   0  0  0  0  0  0  0  0  0  0  0  0
   28.3774  -25.1007  -20.0964 N   0  0  0  0  0  0  0  0  0  0  0  0
   29.5139  -24.4860  -20.4529 C   0  0  0  0  0  0  0  0  0  0  0  0
   29.9317  -23.7375  -19.4368 N   0  0  0  0  0  0  0  0  0  0  0  0
   28.4747  -21.2689  -15.7853 C   0  0  0  0  0  0  0  0  0  0  0  0
   29.3304  -21.4817  -14.9086 O   0  0  0  0  0  0  0  0  0  0  0  0
   26.4181  -18.4818  -14.2948 C   0  0  0  0  0  0  0  0  0  0  0  0
   27.3305  -19.6823  -14.1981 C   0  0  2  0  0  0  0  0  0  0  0  0
   27.3726  -20.4342  -15.4304 N   0  0  0  0  0  0  0  0  0  0  0  0
   26.7745  -20.5643  -13.1402 C   0  0  0  0  0  0  0  0  0  0  0  0
   26.0224  -21.5259  -13.4364 O   0  0  0  0  0  0  0  0  0  0  0  0
   27.0581  -20.3711  -11.7670 N   0  0  0  0  0  0  0  0  0  0  0  0
   26.5893  -21.3329  -10.7937 C   0  0  1  0  0  0  0  0  0  0  0  0
   27.5454  -21.5486   -9.6713 C   0  0  0  0  0  0  0  0  0  0  0  0
   27.2151  -20.6080   -8.5729 C   0  0  0  0  0  0  0  0  0  0  0  0
   26.0666  -19.8790   -8.3477 C   0  0  0  0  0  0  0  0  0  0  0  0
   26.2514  -19.1680   -7.2262 N   0  0  0  0  0  0  0  0  0  0  0  0
   27.4560  -19.3910   -6.7053 C   0  0  0  0  0  0  0  0  0  0  0  0
   28.1593  -18.9443   -5.5962 C   0  0  0  0  0  0  0  0  0  0  0  0
   29.4422  -19.3884   -5.3316 C   0  0  0  0  0  0  0  0  0  0  0  0
   30.0515  -20.2842   -6.1626 C   0  0  0  0  0  0  0  0  0  0  0  0
   29.3806  -20.7399   -7.2620 C   0  0  0  0  0  0  0  0  0  0  0  0
   28.0905  -20.2950   -7.5304 C   0  0  0  0  0  0  0  0  0  0  0  0
   25.3045  -20.8504  -10.2545 C   0  0  0  0  0  0  0  0  0  0  0  0
   24.4593  -21.7340   -9.6125 O   0  0  0  0  0  0  0  0  0  0  0  0
   24.9421  -19.6566  -10.3555 O   0  0  0  0  0  0  0  0  0  0  0  0
  2  1  1  6
  2  3  1  0
  2  9  1  0
  3  4  1  0
  4  5  2  0
  4  8  1  0
  5  6  1  0
  6  7  1  0
  8  7  2  0
  9 10  2  0
 12 11  1  6
 12 14  1  0
 13  9  1  0
 13 12  1  0
 14 15  2  0
 16 14  1  0
 16 17  1  0
 17 28  1  0
 17 18  1  1
 19 27  1  0
 19 18  1  0
 20 19  2  0
 21 20  1  0
 21 22  1  0
 22 27  2  0
 23 22  1  0
 23 24  2  0
 24 25  1  0
 25 26  2  0
 27 26  1  0
 28 30  2  0
 28 29  1  0
M  END
$$$$
