HAW.pdb
     RDKit          3D

 30 32  0  0  1  0  0  0  0  0999 V2000
   27.2037  -20.9462  -17.4079 N   0  0  0  0  0  0  0  0  0  0  0  0
   25.7961  -20.5135  -17.4834 C   0  0  1  0  0  0  0  0  0  0  0  0
   25.5015  -20.3698  -18.9451 C   0  0  0  0  0  0  0  0  0  0  0  0
   26.4205  -19.3459  -19.5445 C   0  0  0  0  0  0  0  0  0  0  0  0
   27.6199  -19.6062  -20.1648 C   0  0  0  0  0  0  0  0  0  0  0  0
   28.1382  -18.4324  -20.5402 N   0  0  0  0  0  0  0  0  0  0  0  0
   27.2911  -17.4629  -20.1674 C   0  0  0  0  0  0  0  0  0  0  0  0
   26.2461  -18.0182  -19.5616 N   0  0  0  0  0  0  0  0  0  0  0  0
   24.9093  -21.5347  -16.8899 C   0  0  0  0  0  0  0  0  0  0  0  0
   23.6822  -21.5517  -17.0898 O   0  0  0  0  0  0  0  0  0  0  0  0
   25.4513  -24.8012  -15.0638 C   0  0  0  0  0  0  0  0  0  0  0  0
   24.6310  -23.6013  -15.4765 C   0  0  2  0  0  0  0  0  0  0  0  0
   25.4462  -22.5561  -16.0498 N   0  0  0  0  0  0  0  0  0  0  0  0
   23.9970  -23.0660  -14.2445 C   0  0  0  0  0  0  0  0  0  0  0  0
   23.1765  -23.7584  -13.5923 O   0  0  0  0  0  0  0  0  0  0  0  0
   24.2794  -21.7704  -13.7494 N   0  0  0  0  0  0  0  0  0  0  0  0
   23.7511  -21.3599  -12.4669 C   0  0  1  0  0  0  0  0  0  0  0  0
   24.8103  -21.0588  -11.4630 C   0  0  0  0  0  0  0  0  0  0  0  0
   25.9602  -20.4264  -12.1544 C   0  0  0  0  0  0  0  0  0  0  0  0
   25.9807  -19.4275  -13.1048 C   0  0  0  0  0  0  0  0  0  0  0  0
   27.2621  -19.2032  -13.4291 N   0  0  0  0  0  0  0  0  0  0  0  0
   28.0806  -19.9989  -12.7444 C   0  0  0  0  0  0  0  0  0  0  0  0
   29.4521  -20.1959  -12.6774 C   0  0  0  0  0  0  0  0  0  0  0  0
   30.0023  -21.1401  -11.8296 C   0  0  0  0  0  0  0  0  0  0  0  0
   29.2018  -21.9068  -11.0321 C   0  0  0  0  0  0  0  0  0  0  0  0
   27.8476  -21.7326  -11.0790 C   0  0  0  0  0  0  0  0  0  0  0  0
   27.2918  -20.7839  -11.9306 C   0  0  0  0  0  0  0  0  0  0  0  0
   22.9213  -20.1591  -12.6759 C   0  0  0  0  0  0  0  0  0  0  0  0
   22.1294  -19.6896  -11.6466 O   0  0  0  0  0  0  0  0  0  0  0  0
   22.9039  -19.5382  -13.7626 O   0  0  0  0  0  0  0  0  0  0  0  0
  2  1  1  6
  2  3  1  0
  2  9  1  0
  3  4  1  0
  4  5  2  0
  4  8  1  0
  5  6  1  0
  6  7  1  0
  8  7  2  0
  9 10  2  0
 12 11  1  1
 12 14  1  0
 13  9  1  0
 13 12  1  0
 14 15  2  0
 16 14  1  0
 16 17  1  0
 17 28  1  0
 17 18  1  1
 19 27  1  0
 19 18  1  0
 20 19  2  0
 21 20  1  0
 21 22  1  0
 22 27  2  0
 23 22  1  0
 23 24  2  0
 24 25  1  0
 25 26  2  0
 27 26  1  0
 28 30  2  0
 28 29  1  0
M  END
$$$$
