HAW.pdb
     RDKit          3D

 30 32  0  0  1  0  0  0  0  0999 V2000
   25.9450  -22.5778  -17.0182 N   0  0  0  0  0  0  0  0  0  0  0  0
   25.4688  -21.5643  -16.0588 C   0  0  1  0  0  0  0  0  0  0  0  0
   24.0543  -21.9455  -15.7461 C   0  0  0  0  0  0  0  0  0  0  0  0
   23.1676  -21.5746  -16.8987 C   0  0  0  0  0  0  0  0  0  0  0  0
   23.1296  -20.3499  -17.5230 C   0  0  0  0  0  0  0  0  0  0  0  0
   22.2003  -20.4193  -18.4816 N   0  0  0  0  0  0  0  0  0  0  0  0
   21.6694  -21.6498  -18.4611 C   0  0  0  0  0  0  0  0  0  0  0  0
   22.2576  -22.3529  -17.4983 N   0  0  0  0  0  0  0  0  0  0  0  0
   26.2825  -21.5971  -14.8265 C   0  0  0  0  0  0  0  0  0  0  0  0
   26.5871  -22.6586  -14.2550 O   0  0  0  0  0  0  0  0  0  0  0  0
   28.1247  -18.9928  -12.7580 C   0  0  0  0  0  0  0  0  0  0  0  0
   27.5338  -20.3575  -13.0256 C   0  0  2  0  0  0  0  0  0  0  0  0
   26.7543  -20.3839  -14.2411 N   0  0  0  0  0  0  0  0  0  0  0  0
   26.6265  -20.6663  -11.8909 C   0  0  0  0  0  0  0  0  0  0  0  0
   25.3888  -20.4752  -11.9887 O   0  0  0  0  0  0  0  0  0  0  0  0
   27.1006  -21.1831  -10.6615 N   0  0  0  0  0  0  0  0  0  0  0  0
   26.1694  -21.4519   -9.5877 C   0  0  1  0  0  0  0  0  0  0  0  0
   26.8318  -21.6297   -8.2648 C   0  0  0  0  0  0  0  0  0  0  0  0
   27.1391  -20.2933   -7.6991 C   0  0  0  0  0  0  0  0  0  0  0  0
   26.8614  -19.0372   -8.1956 C   0  0  0  0  0  0  0  0  0  0  0  0
   27.3467  -18.1410   -7.3246 N   0  0  0  0  0  0  0  0  0  0  0  0
   27.9260  -18.7401   -6.2866 C   0  0  0  0  0  0  0  0  0  0  0  0
   28.5714  -18.3255   -5.1307 C   0  0  0  0  0  0  0  0  0  0  0  0
   29.0787  -19.2382   -4.2237 C   0  0  0  0  0  0  0  0  0  0  0  0
   28.9553  -20.5797   -4.4466 C   0  0  0  0  0  0  0  0  0  0  0  0
   28.3240  -21.0143   -5.5774 C   0  0  0  0  0  0  0  0  0  0  0  0
   27.8129  -20.0988   -6.4911 C   0  0  0  0  0  0  0  0  0  0  0  0
   25.2207  -20.3257   -9.5109 C   0  0  0  0  0  0  0  0  0  0  0  0
   23.9586  -20.5315   -8.9894 O   0  0  0  0  0  0  0  0  0  0  0  0
   25.5149  -19.1744   -9.9043 O   0  0  0  0  0  0  0  0  0  0  0  0
  2  1  1  6
  2  3  1  0
  2  9  1  0
  3  4  1  0
  4  5  2  0
  4  8  1  0
  5  6  1  0
  6  7  1  0
  8  7  2  0
  9 10  2  0
 12 11  1  1
 12 14  1  0
 13  9  1  0
 13 12  1  0
 14 15  2  0
 16 14  1  0
 16 17  1  0
 17 28  1  0
 17 18  1  1
 19 27  1  0
 19 18  1  0
 20 19  2  0
 21 20  1  0
 21 22  1  0
 22 27  2  0
 23 22  1  0
 23 24  2  0
 24 25  1  0
 25 26  2  0
 27 26  1  0
 28 30  2  0
 28 29  1  0
M  END
$$$$
