HAW.pdb
     RDKit          3D

 30 32  0  0  1  0  0  0  0  0999 V2000
   23.8061  -19.9974  -18.1224 N   0  0  0  0  0  0  0  0  0  0  0  0
   24.4011  -19.2133  -17.0244 C   0  0  1  0  0  0  0  0  0  0  0  0
   23.3292  -18.2626  -16.5874 C   0  0  0  0  0  0  0  0  0  0  0  0
   23.1230  -17.2177  -17.6447 C   0  0  0  0  0  0  0  0  0  0  0  0
   24.1143  -16.6071  -18.3766 C   0  0  0  0  0  0  0  0  0  0  0  0
   23.5238  -15.7288  -19.1935 N   0  0  0  0  0  0  0  0  0  0  0  0
   22.2014  -15.7847  -18.9822 C   0  0  0  0  0  0  0  0  0  0  0  0
   21.9572  -16.6904  -18.0401 N   0  0  0  0  0  0  0  0  0  0  0  0
   24.7764  -20.0978  -15.9025 C   0  0  0  0  0  0  0  0  0  0  0  0
   23.9543  -20.8311  -15.3259 O   0  0  0  0  0  0  0  0  0  0  0  0
   28.0414  -21.2620  -14.3984 C   0  0  0  0  0  0  0  0  0  0  0  0
   26.5522  -21.0087  -14.3654 C   0  0  2  0  0  0  0  0  0  0  0  0
   26.1247  -20.1384  -15.4357 N   0  0  0  0  0  0  0  0  0  0  0  0
   26.2569  -20.3316  -13.0768 C   0  0  0  0  0  0  0  0  0  0  0  0
   26.2841  -19.0787  -12.9892 O   0  0  0  0  0  0  0  0  0  0  0  0
   25.9348  -21.0500  -11.9005 N   0  0  0  0  0  0  0  0  0  0  0  0
   25.7788  -20.3447  -10.6473 C   0  0  1  0  0  0  0  0  0  0  0  0
   24.5775  -19.4638  -10.6131 C   0  0  0  0  0  0  0  0  0  0  0  0
   23.3616  -20.3070  -10.7174 C   0  0  0  0  0  0  0  0  0  0  0  0
   22.7836  -21.1449   -9.7873 C   0  0  0  0  0  0  0  0  0  0  0  0
   21.7002  -21.6942  -10.3549 N   0  0  0  0  0  0  0  0  0  0  0  0
   21.5373  -21.2628  -11.6036 C   0  0  0  0  0  0  0  0  0  0  0  0
   20.6241  -21.4875  -12.6234 C   0  0  0  0  0  0  0  0  0  0  0  0
   20.7453  -20.8576  -13.8488 C   0  0  0  0  0  0  0  0  0  0  0  0
   21.7750  -19.9926  -14.0854 C   0  0  0  0  0  0  0  0  0  0  0  0
   22.6881  -19.7538  -13.0977 C   0  0  0  0  0  0  0  0  0  0  0  0
   22.5686  -20.3859  -11.8646 C   0  0  0  0  0  0  0  0  0  0  0  0
   25.6819  -21.3443   -9.5676 C   0  0  0  0  0  0  0  0  0  0  0  0
   25.6130  -20.9245   -8.2537 O   0  0  0  0  0  0  0  0  0  0  0  0
   25.6592  -22.5749   -9.7947 O   0  0  0  0  0  0  0  0  0  0  0  0
  2  1  1  6
  2  3  1  0
  2  9  1  0
  3  4  1  0
  4  5  2  0
  4  8  1  0
  5  6  1  0
  6  7  1  0
  8  7  2  0
  9 10  2  0
 12 11  1  6
 12 14  1  0
 13  9  1  0
 13 12  1  0
 14 15  2  0
 16 14  1  0
 16 17  1  0
 17 28  1  0
 17 18  1  6
 19 27  1  0
 19 18  1  0
 20 19  2  0
 21 20  1  0
 21 22  1  0
 22 27  2  0
 23 22  1  0
 23 24  2  0
 24 25  1  0
 25 26  2  0
 27 26  1  0
 28 30  2  0
 28 29  1  0
M  END
$$$$
