WKL.pdb
     RDKit          3D

 32 33  0  0  1  0  0  0  0  0999 V2000
    8.2263  -17.6822   21.0155 N   0  0  0  0  0  0  0  0  0  0  0  0
    8.4715  -16.6301   21.9831 C   0  0  1  0  0  0  0  0  0  0  0  0
    7.2299  -15.8166   22.1318 C   0  0  0  0  0  0  0  0  0  0  0  0
    6.9506  -15.1464   20.8376 C   0  0  0  0  0  0  0  0  0  0  0  0
    6.0892  -15.5100   19.8259 C   0  0  0  0  0  0  0  0  0  0  0  0
    6.1485  -14.6087   18.8204 N   0  0  0  0  0  0  0  0  0  0  0  0
    7.0328  -13.6482   19.1388 C   0  0  0  0  0  0  0  0  0  0  0  0
    7.4736  -12.5281   18.5107 C   0  0  0  0  0  0  0  0  0  0  0  0
    8.4132  -11.6771   19.0562 C   0  0  0  0  0  0  0  0  0  0  0  0
    8.9095  -12.0181   20.3139 C   0  0  0  0  0  0  0  0  0  0  0  0
    8.4828  -13.1377   20.9655 C   0  0  0  0  0  0  0  0  0  0  0  0
    7.5470  -13.9630   20.3948 C   0  0  0  0  0  0  0  0  0  0  0  0
    8.9372  -17.1896   23.2952 C   0  0  0  0  0  0  0  0  0  0  0  0
    8.0870  -17.4715   24.1438 O   0  0  0  0  0  0  0  0  0  0  0  0
   10.2933  -17.3906   23.5608 N   0  0  0  0  0  0  0  0  0  0  0  0
   10.9161  -17.8597   24.7648 C   0  0  1  0  0  0  0  0  0  0  0  0
   12.2015  -18.6136   24.6129 C   0  0  0  0  0  0  0  0  0  0  0  0
   12.7696  -19.2507   25.8110 C   0  0  0  0  0  0  0  0  0  0  0  0
   14.1150  -19.9206   25.5603 C   0  0  0  0  0  0  0  0  0  0  0  0
   14.4798  -20.5753   26.9009 C   0  0  0  0  0  0  0  0  0  0  0  0
   15.6534  -21.4189   26.7655 N   0  0  0  0  0  0  0  0  0  0  0  0
   10.8948  -16.8516   25.8286 C   0  0  0  0  0  0  0  0  0  0  0  0
   11.5142  -15.7485   25.6396 O   0  0  0  0  0  0  0  0  0  0  0  0
    9.0114  -13.3551   26.7319 C   0  0  0  0  0  0  0  0  0  0  0  0
    8.4388  -14.6078   27.3196 C   0  0  2  0  0  0  0  0  0  0  0  0
    7.0243  -14.2544   27.8069 C   0  0  0  0  0  0  0  0  0  0  0  0
    9.2035  -15.1756   28.4528 C   0  0  0  0  0  0  0  0  0  0  0  0
   10.3790  -16.0269   28.1520 C   0  0  2  0  0  0  0  0  0  0  0  0
   10.2409  -16.9744   27.0805 N   0  0  0  0  0  0  0  0  0  0  0  0
   10.8646  -16.7832   29.3439 C   0  0  0  0  0  0  0  0  0  0  0  0
   11.1821  -16.1938   30.4206 O   0  0  0  0  0  0  0  0  0  0  0  0
   10.9977  -18.1655   29.3490 O   0  0  0  0  0  0  0  0  0  0  0  0
  2  1  1  6
  2 13  1  0
  2  3  1  0
  4  5  2  0
  4  3  1  0
  6  5  1  0
  7 12  2  0
  7  6  1  0
  8  7  1  0
  9 10  1  0
  9  8  2  0
 10 11  2  0
 11 12  1  0
 12  4  1  0
 13 14  2  0
 15 16  1  0
 15 13  1  0
 16 17  1  6
 18 17  1  0
 19 20  1  0
 19 18  1  0
 21 20  1  0
 22 16  1  0
 22 23  2  0
 25 24  1  1
 25 26  1  0
 25 27  1  0
 28 27  1  1
 28 29  1  0
 28 30  1  0
 29 22  1  0
 30 31  2  0
 30 32  1  0
M  END
$$$$
