WKL.pdb
     RDKit          3D

 32 33  0  0  1  0  0  0  0  0999 V2000
    6.6909  -19.0740   25.6670 N   0  0  0  0  0  0  0  0  0  0  0  0
    6.6777  -17.6759   25.2815 C   0  0  1  0  0  0  0  0  0  0  0  0
    7.0051  -16.8458   26.4770 C   0  0  0  0  0  0  0  0  0  0  0  0
    6.1408  -15.6396   26.4613 C   0  0  0  0  0  0  0  0  0  0  0  0
    4.7876  -15.5295   26.2282 C   0  0  0  0  0  0  0  0  0  0  0  0
    4.4070  -14.2352   26.3103 N   0  0  0  0  0  0  0  0  0  0  0  0
    5.4789  -13.4760   26.5941 C   0  0  0  0  0  0  0  0  0  0  0  0
    5.6665  -12.1448   26.7841 C   0  0  0  0  0  0  0  0  0  0  0  0
    6.8966  -11.5895   27.0723 C   0  0  0  0  0  0  0  0  0  0  0  0
    7.9735  -12.4705   27.1648 C   0  0  0  0  0  0  0  0  0  0  0  0
    7.8111  -13.8118   26.9785 C   0  0  0  0  0  0  0  0  0  0  0  0
    6.5739  -14.3316   26.6929 C   0  0  0  0  0  0  0  0  0  0  0  0
    7.6162  -17.4130   24.1407 C   0  0  0  0  0  0  0  0  0  0  0  0
    8.5568  -18.1926   23.9675 O   0  0  0  0  0  0  0  0  0  0  0  0
    7.4407  -16.3189   23.2908 N   0  0  0  0  0  0  0  0  0  0  0  0
    8.3860  -15.7068   22.4025 C   0  0  1  0  0  0  0  0  0  0  0  0
    7.9500  -14.4524   21.7096 C   0  0  0  0  0  0  0  0  0  0  0  0
    8.8328  -13.8995   20.6708 C   0  0  0  0  0  0  0  0  0  0  0  0
    8.0880  -13.1133   19.5988 C   0  0  0  0  0  0  0  0  0  0  0  0
    9.1173  -12.9138   18.4766 C   0  0  0  0  0  0  0  0  0  0  0  0
    8.5624  -12.1169   17.3974 N   0  0  0  0  0  0  0  0  0  0  0  0
    9.7393  -15.6824   22.9648 C   0  0  0  0  0  0  0  0  0  0  0  0
   10.7017  -15.2748   22.2275 O   0  0  0  0  0  0  0  0  0  0  0  0
   11.7789  -13.5858   26.7188 C   0  0  0  0  0  0  0  0  0  0  0  0
   11.1042  -14.8927   27.0008 C   0  0  2  0  0  0  0  0  0  0  0  0
   11.2881  -15.1636   28.5028 C   0  0  0  0  0  0  0  0  0  0  0  0
   11.6327  -16.0483   26.2415 C   0  0  0  0  0  0  0  0  0  0  0  0
   11.4536  -16.0647   24.7702 C   0  0  2  0  0  0  0  0  0  0  0  0
   10.1036  -16.0743   24.2777 N   0  0  0  0  0  0  0  0  0  0  0  0
   12.1657  -17.2009   24.1143 C   0  0  0  0  0  0  0  0  0  0  0  0
   13.4146  -17.3709   24.2527 O   0  0  0  0  0  0  0  0  0  0  0  0
   11.5127  -18.1338   23.3196 O   0  0  0  0  0  0  0  0  0  0  0  0
  2  1  1  1
  2 13  1  0
  2  3  1  0
  4  5  2  0
  4  3  1  0
  6  5  1  0
  7 12  2  0
  7  6  1  0
  8  7  1  0
  9 10  1  0
  9  8  2  0
 10 11  2  0
 11 12  1  0
 12  4  1  0
 13 14  2  0
 15 16  1  0
 15 13  1  0
 16 17  1  1
 18 17  1  0
 19 20  1  0
 19 18  1  0
 21 20  1  0
 22 16  1  0
 22 23  2  0
 25 24  1  6
 25 26  1  0
 25 27  1  0
 28 27  1  1
 28 29  1  0
 28 30  1  0
 29 22  1  0
 30 31  2  0
 30 32  1  0
M  END
$$$$
