WKL.pdb
     RDKit          3D

 32 33  0  0  1  0  0  0  0  0999 V2000
    8.4704  -17.4680   25.8576 N   0  0  0  0  0  0  0  0  0  0  0  0
    7.0942  -17.2905   25.4358 C   0  0  1  0  0  0  0  0  0  0  0  0
    6.8874  -15.8607   25.0636 C   0  0  0  0  0  0  0  0  0  0  0  0
    7.6349  -15.0130   26.0252 C   0  0  0  0  0  0  0  0  0  0  0  0
    8.7513  -15.3086   26.7762 C   0  0  0  0  0  0  0  0  0  0  0  0
    9.1035  -14.2390   27.5237 N   0  0  0  0  0  0  0  0  0  0  0  0
    8.2449  -13.2324   27.2881 C   0  0  0  0  0  0  0  0  0  0  0  0
    8.1310  -11.9628   27.7554 C   0  0  0  0  0  0  0  0  0  0  0  0
    7.1359  -11.0962   27.3512 C   0  0  0  0  0  0  0  0  0  0  0  0
    6.2233  -11.5850   26.4170 C   0  0  0  0  0  0  0  0  0  0  0  0
    6.3163  -12.8564   25.9321 C   0  0  0  0  0  0  0  0  0  0  0  0
    7.3182  -13.6927   26.3551 C   0  0  0  0  0  0  0  0  0  0  0  0
    6.7408  -18.2204   24.3125 C   0  0  0  0  0  0  0  0  0  0  0  0
    7.6398  -18.9054   23.8176 O   0  0  0  0  0  0  0  0  0  0  0  0
    5.4334  -18.3171   23.8313 N   0  0  0  0  0  0  0  0  0  0  0  0
    4.9789  -18.4501   22.4773 C   0  0  1  0  0  0  0  0  0  0  0  0
    3.5204  -18.2181   22.2269 C   0  0  0  0  0  0  0  0  0  0  0  0
    2.7530  -19.2985   21.5880 C   0  0  0  0  0  0  0  0  0  0  0  0
    2.5739  -19.1081   20.0869 C   0  0  0  0  0  0  0  0  0  0  0  0
    1.6893  -20.2844   19.6480 C   0  0  0  0  0  0  0  0  0  0  0  0
    1.5445  -20.3158   18.2039 N   0  0  0  0  0  0  0  0  0  0  0  0
    5.8940  -17.8203   21.5213 C   0  0  0  0  0  0  0  0  0  0  0  0
    5.9743  -18.3046   20.3402 O   0  0  0  0  0  0  0  0  0  0  0  0
    9.3471  -13.5696   20.0539 C   0  0  0  0  0  0  0  0  0  0  0  0
    7.9119  -13.7322   19.6583 C   0  0  2  0  0  0  0  0  0  0  0  0
    7.3168  -12.3168   19.5831 C   0  0  0  0  0  0  0  0  0  0  0  0
    7.0931  -14.5431   20.5874 C   0  0  0  0  0  0  0  0  0  0  0  0
    7.4293  -15.9771   20.7532 C   0  0  2  0  0  0  0  0  0  0  0  0
    6.7229  -16.6985   21.7757 N   0  0  0  0  0  0  0  0  0  0  0  0
    8.8862  -16.2058   20.9848 C   0  0  0  0  0  0  0  0  0  0  0  0
    9.3365  -16.5144   22.1292 O   0  0  0  0  0  0  0  0  0  0  0  0
    9.8304  -16.0966   19.9725 O   0  0  0  0  0  0  0  0  0  0  0  0
  2  1  1  6
  2 13  1  0
  2  3  1  0
  4  5  2  0
  4  3  1  0
  6  5  1  0
  7 12  2  0
  7  6  1  0
  8  7  1  0
  9 10  1  0
  9  8  2  0
 10 11  2  0
 11 12  1  0
 12  4  1  0
 13 14  2  0
 15 16  1  0
 15 13  1  0
 16 17  1  1
 18 17  1  0
 19 20  1  0
 19 18  1  0
 21 20  1  0
 22 16  1  0
 22 23  2  0
 25 24  1  1
 25 26  1  0
 25 27  1  0
 28 27  1  1
 28 29  1  0
 28 30  1  0
 29 22  1  0
 30 31  2  0
 30 32  1  0
M  END
$$$$
