WKL.pdb
     RDKit          3D

 32 33  0  0  1  0  0  0  0  0999 V2000
    7.5464  -17.9362   25.6985 N   0  0  0  0  0  0  0  0  0  0  0  0
    6.6339  -17.9161   24.5715 C   0  0  1  0  0  0  0  0  0  0  0  0
    5.4379  -17.1028   24.9373 C   0  0  0  0  0  0  0  0  0  0  0  0
    5.7883  -16.2508   26.1007 C   0  0  0  0  0  0  0  0  0  0  0  0
    5.9635  -16.5953   27.4230 C   0  0  0  0  0  0  0  0  0  0  0  0
    6.2776  -15.4998   28.1496 N   0  0  0  0  0  0  0  0  0  0  0  0
    6.3164  -14.4280   27.3399 C   0  0  0  0  0  0  0  0  0  0  0  0
    6.5746  -13.1094   27.5346 C   0  0  0  0  0  0  0  0  0  0  0  0
    6.5525  -12.1776   26.5168 C   0  0  0  0  0  0  0  0  0  0  0  0
    6.2464  -12.6522   25.2419 C   0  0  0  0  0  0  0  0  0  0  0  0
    5.9835  -13.9721   25.0202 C   0  0  0  0  0  0  0  0  0  0  0  0
    6.0138  -14.8727   26.0547 C   0  0  0  0  0  0  0  0  0  0  0  0
    7.3051  -17.4022   23.3318 C   0  0  0  0  0  0  0  0  0  0  0  0
    7.6218  -18.2159   22.4600 O   0  0  0  0  0  0  0  0  0  0  0  0
    7.5695  -16.0421   23.1574 N   0  0  0  0  0  0  0  0  0  0  0  0
    8.5535  -15.4149   22.3233 C   0  0  1  0  0  0  0  0  0  0  0  0
    8.1784  -14.1047   21.7017 C   0  0  0  0  0  0  0  0  0  0  0  0
    8.9669  -13.6405   20.5498 C   0  0  0  0  0  0  0  0  0  0  0  0
    8.1676  -13.5792   19.2540 C   0  0  0  0  0  0  0  0  0  0  0  0
    9.2187  -13.3459   18.1588 C   0  0  0  0  0  0  0  0  0  0  0  0
    8.5866  -13.0887   16.8774 N   0  0  0  0  0  0  0  0  0  0  0  0
    9.8963  -15.4777   22.9074 C   0  0  0  0  0  0  0  0  0  0  0  0
   10.8612  -14.9120   22.2869 O   0  0  0  0  0  0  0  0  0  0  0  0
   10.5482  -13.5656   27.0508 C   0  0  0  0  0  0  0  0  0  0  0  0
   10.2742  -15.0363   26.9820 C   0  0  2  0  0  0  0  0  0  0  0  0
   10.0949  -15.5152   28.4317 C   0  0  0  0  0  0  0  0  0  0  0  0
   11.3380  -15.8434   26.3432 C   0  0  0  0  0  0  0  0  0  0  0  0
   11.4430  -15.8254   24.8648 C   0  0  2  0  0  0  0  0  0  0  0  0
   10.2477  -16.1179   24.1226 N   0  0  0  0  0  0  0  0  0  0  0  0
   12.5097  -16.7340   24.3503 C   0  0  0  0  0  0  0  0  0  0  0  0
   13.6855  -16.7136   24.8245 O   0  0  0  0  0  0  0  0  0  0  0  0
   12.2845  -17.6497   23.3309 O   0  0  0  0  0  0  0  0  0  0  0  0
  2  1  1  1
  2 13  1  0
  2  3  1  0
  4  5  2  0
  4  3  1  0
  6  5  1  0
  7 12  2  0
  7  6  1  0
  8  7  1  0
  9 10  1  0
  9  8  2  0
 10 11  2  0
 11 12  1  0
 12  4  1  0
 13 14  2  0
 15 16  1  0
 15 13  1  0
 16 17  1  1
 18 17  1  0
 19 20  1  0
 19 18  1  0
 21 20  1  0
 22 16  1  0
 22 23  2  0
 25 24  1  1
 25 26  1  0
 25 27  1  0
 28 27  1  1
 28 29  1  0
 28 30  1  0
 29 22  1  0
 30 31  2  0
 30 32  1  0
M  END
$$$$
