WKL.pdb
     RDKit          3D

 32 33  0  0  1  0  0  0  0  0999 V2000
    5.9739  -17.6975   25.4123 N   0  0  0  0  0  0  0  0  0  0  0  0
    6.9577  -16.8414   24.7778 C   0  0  1  0  0  0  0  0  0  0  0  0
    7.5909  -15.9836   25.8212 C   0  0  0  0  0  0  0  0  0  0  0  0
    6.6834  -14.8446   26.1061 C   0  0  0  0  0  0  0  0  0  0  0  0
    5.4482  -14.8346   26.7160 C   0  0  0  0  0  0  0  0  0  0  0  0
    4.9686  -13.5722   26.7708 N   0  0  0  0  0  0  0  0  0  0  0  0
    5.8584  -12.7360   26.2095 C   0  0  0  0  0  0  0  0  0  0  0  0
    5.8888  -11.3949   26.0006 C   0  0  0  0  0  0  0  0  0  0  0  0
    6.9428  -10.7506   25.3853 C   0  0  0  0  0  0  0  0  0  0  0  0
    8.0086  -11.5496   24.9730 C   0  0  0  0  0  0  0  0  0  0  0  0
    8.0022  -12.8990   25.1715 C   0  0  0  0  0  0  0  0  0  0  0  0
    6.9381  -13.5085   25.7866 C   0  0  0  0  0  0  0  0  0  0  0  0
    7.9728  -17.6429   24.0172 C   0  0  0  0  0  0  0  0  0  0  0  0
    8.4122  -18.6719   24.5373 O   0  0  0  0  0  0  0  0  0  0  0  0
    8.4164  -17.2456   22.7541 N   0  0  0  0  0  0  0  0  0  0  0  0
    9.7345  -17.3281   22.1945 C   0  0  1  0  0  0  0  0  0  0  0  0
    9.8556  -17.1293   20.7148 C   0  0  0  0  0  0  0  0  0  0  0  0
   11.1848  -17.2944   20.1063 C   0  0  0  0  0  0  0  0  0  0  0  0
   11.2089  -16.9920   18.6131 C   0  0  0  0  0  0  0  0  0  0  0  0
   12.6719  -17.2041   18.1965 C   0  0  0  0  0  0  0  0  0  0  0  0
   12.8824  -16.8069   16.8161 N   0  0  0  0  0  0  0  0  0  0  0  0
   10.7282  -16.6258   23.0116 C   0  0  0  0  0  0  0  0  0  0  0  0
   10.8633  -15.3629   22.8604 O   0  0  0  0  0  0  0  0  0  0  0  0
    9.9160  -15.2591   28.2568 C   0  0  0  0  0  0  0  0  0  0  0  0
   11.0968  -15.4649   27.3590 C   0  0  2  0  0  0  0  0  0  0  0  0
   11.7090  -14.0756   27.1176 C   0  0  0  0  0  0  0  0  0  0  0  0
   10.7890  -16.0825   26.0494 C   0  0  0  0  0  0  0  0  0  0  0  0
   11.9133  -16.6002   25.2340 C   0  0  2  0  0  0  0  0  0  0  0  0
   11.5794  -17.2164   23.9795 N   0  0  0  0  0  0  0  0  0  0  0  0
   12.7711  -17.5672   25.9807 C   0  0  0  0  0  0  0  0  0  0  0  0
   13.9140  -17.2390   26.4210 O   0  0  0  0  0  0  0  0  0  0  0  0
   12.3760  -18.8734   26.2379 O   0  0  0  0  0  0  0  0  0  0  0  0
  2  1  1  1
  2 13  1  0
  2  3  1  0
  4  5  2  0
  4  3  1  0
  6  5  1  0
  7 12  2  0
  7  6  1  0
  8  7  1  0
  9 10  1  0
  9  8  2  0
 10 11  2  0
 11 12  1  0
 12  4  1  0
 13 14  2  0
 15 16  1  0
 15 13  1  0
 16 17  1  6
 18 17  1  0
 19 20  1  0
 19 18  1  0
 21 20  1  0
 22 16  1  0
 22 23  2  0
 25 24  1  1
 25 26  1  0
 25 27  1  0
 28 27  1  1
 28 29  1  0
 28 30  1  0
 29 22  1  0
 30 31  2  0
 30 32  1  0
M  END
$$$$
