WKL.pdb
     RDKit          3D

 32 33  0  0  1  0  0  0  0  0999 V2000
    9.1164  -17.8588   26.7429 N   0  0  0  0  0  0  0  0  0  0  0  0
    8.8548  -17.1847   25.4857 C   0  0  1  0  0  0  0  0  0  0  0  0
    9.0792  -15.7214   25.6705 C   0  0  0  0  0  0  0  0  0  0  0  0
    7.7809  -15.0869   26.0077 C   0  0  0  0  0  0  0  0  0  0  0  0
    6.5458  -15.6627   26.2093 C   0  0  0  0  0  0  0  0  0  0  0  0
    5.6317  -14.7098   26.4975 N   0  0  0  0  0  0  0  0  0  0  0  0
    6.2302  -13.5066   26.4931 C   0  0  0  0  0  0  0  0  0  0  0  0
    5.7974  -12.2385   26.7120 C   0  0  0  0  0  0  0  0  0  0  0  0
    6.6260  -11.1367   26.6486 C   0  0  0  0  0  0  0  0  0  0  0  0
    7.9648  -11.3785   26.3425 C   0  0  0  0  0  0  0  0  0  0  0  0
    8.4243  -12.6430   26.1185 C   0  0  0  0  0  0  0  0  0  0  0  0
    7.5736  -13.7171   26.1893 C   0  0  0  0  0  0  0  0  0  0  0  0
    9.6955  -17.7465   24.3771 C   0  0  0  0  0  0  0  0  0  0  0  0
   10.8468  -17.3225   24.2458 O   0  0  0  0  0  0  0  0  0  0  0  0
    9.1999  -18.7232   23.5108 N   0  0  0  0  0  0  0  0  0  0  0  0
    9.6544  -19.0775   22.1972 C   0  0  1  0  0  0  0  0  0  0  0  0
    9.2550  -20.4267   21.6835 C   0  0  0  0  0  0  0  0  0  0  0  0
    9.7338  -20.8231   20.3502 C   0  0  0  0  0  0  0  0  0  0  0  0
   11.2033  -21.2254   20.3294 C   0  0  0  0  0  0  0  0  0  0  0  0
   11.4750  -21.6327   18.8737 C   0  0  0  0  0  0  0  0  0  0  0  0
   12.8643  -22.0118   18.6902 N   0  0  0  0  0  0  0  0  0  0  0  0
    9.5162  -17.9710   21.2460 C   0  0  0  0  0  0  0  0  0  0  0  0
   10.1670  -18.0239   20.1462 O   0  0  0  0  0  0  0  0  0  0  0  0
    8.3923  -11.9147   20.5257 C   0  0  0  0  0  0  0  0  0  0  0  0
    8.3369  -13.2945   19.9464 C   0  0  2  0  0  0  0  0  0  0  0  0
    7.0012  -13.3981   19.1924 C   0  0  0  0  0  0  0  0  0  0  0  0
    8.4105  -14.3935   20.9353 C   0  0  0  0  0  0  0  0  0  0  0  0
    8.5752  -15.7794   20.4362 C   0  0  2  0  0  0  0  0  0  0  0  0
    8.7139  -16.8154   21.4223 N   0  0  0  0  0  0  0  0  0  0  0  0
    9.7215  -15.9204   19.4904 C   0  0  0  0  0  0  0  0  0  0  0  0
    9.5576  -16.3426   18.3062 O   0  0  0  0  0  0  0  0  0  0  0  0
   11.0259  -15.6014   19.8438 O   0  0  0  0  0  0  0  0  0  0  0  0
  2  1  1  1
  2 13  1  0
  2  3  1  0
  4  5  2  0
  4  3  1  0
  6  5  1  0
  7 12  2  0
  7  6  1  0
  8  7  1  0
  9 10  1  0
  9  8  2  0
 10 11  2  0
 11 12  1  0
 12  4  1  0
 13 14  2  0
 15 16  1  0
 15 13  1  0
 16 17  1  6
 18 17  1  0
 19 20  1  0
 19 18  1  0
 21 20  1  0
 22 16  1  0
 22 23  2  0
 25 24  1  1
 25 26  1  0
 25 27  1  0
 28 27  1  1
 28 29  1  0
 28 30  1  0
 29 22  1  0
 30 31  2  0
 30 32  1  0
M  END
$$$$
