WKL.pdb
     RDKit          3D

 32 33  0  0  1  0  0  0  0  0999 V2000
    5.7372  -18.7238   25.5014 N   0  0  0  0  0  0  0  0  0  0  0  0
    6.1614  -17.3735   25.1853 C   0  0  1  0  0  0  0  0  0  0  0  0
    6.7557  -16.7591   26.4079 C   0  0  0  0  0  0  0  0  0  0  0  0
    6.1411  -15.4232   26.6075 C   0  0  0  0  0  0  0  0  0  0  0  0
    4.8161  -15.0778   26.7593 C   0  0  0  0  0  0  0  0  0  0  0  0
    4.7009  -13.7403   26.9158 N   0  0  0  0  0  0  0  0  0  0  0  0
    5.9229  -13.1827   26.8719 C   0  0  0  0  0  0  0  0  0  0  0  0
    6.3810  -11.9086   26.9723 C   0  0  0  0  0  0  0  0  0  0  0  0
    7.7188  -11.5791   26.8930 C   0  0  0  0  0  0  0  0  0  0  0  0
    8.6114  -12.6329   26.7004 C   0  0  0  0  0  0  0  0  0  0  0  0
    8.1765  -13.9214   26.5967 C   0  0  0  0  0  0  0  0  0  0  0  0
    6.8388  -14.2149   26.6798 C   0  0  0  0  0  0  0  0  0  0  0  0
    7.1151  -17.3555   24.0270 C   0  0  0  0  0  0  0  0  0  0  0  0
    7.8729  -18.3181   23.8804 O   0  0  0  0  0  0  0  0  0  0  0  0
    7.1536  -16.2842   23.1321 N   0  0  0  0  0  0  0  0  0  0  0  0
    8.2122  -15.8830   22.2513 C   0  0  1  0  0  0  0  0  0  0  0  0
    7.8657  -14.8908   21.1840 C   0  0  0  0  0  0  0  0  0  0  0  0
    8.8671  -14.6290   20.1386 C   0  0  0  0  0  0  0  0  0  0  0  0
    8.4200  -13.5889   19.1187 C   0  0  0  0  0  0  0  0  0  0  0  0
    9.1385  -13.9833   17.8199 C   0  0  0  0  0  0  0  0  0  0  0  0
   10.4645  -13.3953   17.7598 N   0  0  0  0  0  0  0  0  0  0  0  0
    9.4645  -15.6296   22.9695 C   0  0  0  0  0  0  0  0  0  0  0  0
   10.3209  -14.8366   22.4464 O   0  0  0  0  0  0  0  0  0  0  0  0
   10.0671  -13.1159   26.6391 C   0  0  0  0  0  0  0  0  0  0  0  0
    9.6935  -14.5427   26.8984 C   0  0  2  0  0  0  0  0  0  0  0  0
    9.4932  -14.6724   28.4170 C   0  0  0  0  0  0  0  0  0  0  0  0
   10.6953  -15.5423   26.4643 C   0  0  0  0  0  0  0  0  0  0  0  0
   10.9366  -15.7116   25.0117 C   0  0  2  0  0  0  0  0  0  0  0  0
    9.8364  -16.1870   24.2190 N   0  0  0  0  0  0  0  0  0  0  0  0
   12.1010  -16.5988   24.7191 C   0  0  0  0  0  0  0  0  0  0  0  0
   13.2520  -16.3631   25.1958 O   0  0  0  0  0  0  0  0  0  0  0  0
   11.9984  -17.7264   23.9152 O   0  0  0  0  0  0  0  0  0  0  0  0
  2  1  1  1
  2 13  1  0
  2  3  1  0
  4  5  2  0
  4  3  1  0
  6  5  1  0
  7 12  2  0
  7  6  1  0
  8  7  1  0
  9 10  1  0
  9  8  2  0
 10 11  2  0
 11 12  1  0
 12  4  1  0
 13 14  2  0
 15 16  1  0
 15 13  1  0
 16 17  1  1
 18 17  1  0
 19 20  1  0
 19 18  1  0
 21 20  1  0
 22 16  1  0
 22 23  2  0
 25 24  1  1
 25 26  1  0
 25 27  1  0
 28 27  1  1
 28 29  1  0
 28 30  1  0
 29 22  1  0
 30 31  2  0
 30 32  1  0
M  END
$$$$
