WKL.pdb
     RDKit          3D

 32 33  0  0  1  0  0  0  0  0999 V2000
    8.8126  -15.6515   20.8231 N   0  0  0  0  0  0  0  0  0  0  0  0
    8.5173  -15.4887   22.2336 C   0  0  1  0  0  0  0  0  0  0  0  0
    7.0614  -15.7316   22.4499 C   0  0  0  0  0  0  0  0  0  0  0  0
    6.6817  -15.1630   23.7669 C   0  0  0  0  0  0  0  0  0  0  0  0
    6.2669  -15.8017   24.9149 C   0  0  0  0  0  0  0  0  0  0  0  0
    6.0222  -14.8952   25.8870 N   0  0  0  0  0  0  0  0  0  0  0  0
    6.2652  -13.6614   25.4129 C   0  0  0  0  0  0  0  0  0  0  0  0
    6.1864  -12.4152   25.9459 C   0  0  0  0  0  0  0  0  0  0  0  0
    6.4968  -11.2711   25.2392 C   0  0  0  0  0  0  0  0  0  0  0  0
    6.9069  -11.4449   23.9179 C   0  0  0  0  0  0  0  0  0  0  0  0
    6.9945  -12.6862   23.3594 C   0  0  0  0  0  0  0  0  0  0  0  0
    6.6783  -13.8036   24.0899 C   0  0  0  0  0  0  0  0  0  0  0  0
    9.3690  -16.3892   23.0795 C   0  0  0  0  0  0  0  0  0  0  0  0
    8.8266  -17.0147   23.9943 O   0  0  0  0  0  0  0  0  0  0  0  0
   10.7394  -16.5241   22.8477 N   0  0  0  0  0  0  0  0  0  0  0  0
   11.7108  -17.2697   23.5947 C   0  0  1  0  0  0  0  0  0  0  0  0
   13.0202  -17.5421   22.9202 C   0  0  0  0  0  0  0  0  0  0  0  0
   12.9886  -18.0911   21.5557 C   0  0  0  0  0  0  0  0  0  0  0  0
   14.3673  -18.2062   20.9172 C   0  0  0  0  0  0  0  0  0  0  0  0
   14.0986  -18.7483   19.5056 C   0  0  0  0  0  0  0  0  0  0  0  0
   13.3503  -19.9912   19.5595 N   0  0  0  0  0  0  0  0  0  0  0  0
   11.7965  -16.8266   24.9892 C   0  0  0  0  0  0  0  0  0  0  0  0
   12.1764  -15.6291   25.2291 O   0  0  0  0  0  0  0  0  0  0  0  0
   11.4622  -14.3224   28.8890 C   0  0  0  0  0  0  0  0  0  0  0  0
   10.6493  -14.5862   27.6593 C   0  0  2  0  0  0  0  0  0  0  0  0
    9.4170  -13.6712   27.7461 C   0  0  0  0  0  0  0  0  0  0  0  0
   10.1921  -15.9847   27.4975 C   0  0  0  0  0  0  0  0  0  0  0  0
   11.2144  -17.0557   27.4291 C   0  0  2  0  0  0  0  0  0  0  0  0
   11.4938  -17.6086   26.1324 N   0  0  0  0  0  0  0  0  0  0  0  0
   10.9120  -18.2019   28.3365 C   0  0  0  0  0  0  0  0  0  0  0  0
   10.1539  -19.1523   27.9763 O   0  0  0  0  0  0  0  0  0  0  0  0
   11.4363  -18.2990   29.6186 O   0  0  0  0  0  0  0  0  0  0  0  0
  2  1  1  6
  2 13  1  0
  2  3  1  0
  4  5  2  0
  4  3  1  0
  6  5  1  0
  7 12  2  0
  7  6  1  0
  8  7  1  0
  9 10  1  0
  9  8  2  0
 10 11  2  0
 11 12  1  0
 12  4  1  0
 13 14  2  0
 15 16  1  0
 15 13  1  0
 16 17  1  6
 18 17  1  0
 19 20  1  0
 19 18  1  0
 21 20  1  0
 22 16  1  0
 22 23  2  0
 25 24  1  1
 25 26  1  0
 25 27  1  0
 28 27  1  6
 28 29  1  0
 28 30  1  0
 29 22  1  0
 30 31  2  0
 30 32  1  0
M  END
$$$$
