WKL.pdb
     RDKit          3D

 32 33  0  0  1  0  0  0  0  0999 V2000
    6.2534  -18.5719   25.1116 N   0  0  0  0  0  0  0  0  0  0  0  0
    6.4360  -17.1465   24.9160 C   0  0  1  0  0  0  0  0  0  0  0  0
    6.8078  -16.5272   26.2213 C   0  0  0  0  0  0  0  0  0  0  0  0
    5.8779  -15.4019   26.4882 C   0  0  0  0  0  0  0  0  0  0  0  0
    4.5264  -15.4212   26.7547 C   0  0  0  0  0  0  0  0  0  0  0  0
    4.0720  -14.1614   26.9368 N   0  0  0  0  0  0  0  0  0  0  0  0
    5.0926  -13.2984   26.7976 C   0  0  0  0  0  0  0  0  0  0  0  0
    5.2007  -11.9472   26.8749 C   0  0  0  0  0  0  0  0  0  0  0  0
    6.3905  -11.2733   26.6879 C   0  0  0  0  0  0  0  0  0  0  0  0
    7.5125  -12.0525   26.4082 C   0  0  0  0  0  0  0  0  0  0  0  0
    7.4302  -13.4114   26.3254 C   0  0  0  0  0  0  0  0  0  0  0  0
    6.2313  -14.0505   26.5167 C   0  0  0  0  0  0  0  0  0  0  0  0
    7.4543  -16.8654   23.8504 C   0  0  0  0  0  0  0  0  0  0  0  0
    8.4304  -17.6151   23.7640 O   0  0  0  0  0  0  0  0  0  0  0  0
    7.3124  -15.7876   22.9739 N   0  0  0  0  0  0  0  0  0  0  0  0
    8.2807  -15.2169   22.0828 C   0  0  1  0  0  0  0  0  0  0  0  0
    7.9123  -13.9253   21.4196 C   0  0  0  0  0  0  0  0  0  0  0  0
    8.7833  -13.4347   20.3403 C   0  0  0  0  0  0  0  0  0  0  0  0
    8.2501  -13.7401   18.9459 C   0  0  0  0  0  0  0  0  0  0  0  0
    9.4143  -13.4048   18.0020 C   0  0  0  0  0  0  0  0  0  0  0  0
    9.0276  -13.5860   16.6144 N   0  0  0  0  0  0  0  0  0  0  0  0
    9.6407  -15.2853   22.6251 C   0  0  0  0  0  0  0  0  0  0  0  0
   10.6182  -14.9500   21.8714 O   0  0  0  0  0  0  0  0  0  0  0  0
   11.6326  -13.3357   26.4260 C   0  0  0  0  0  0  0  0  0  0  0  0
   10.9944  -14.6674   26.6749 C   0  0  2  0  0  0  0  0  0  0  0  0
   11.1964  -14.9762   28.1672 C   0  0  0  0  0  0  0  0  0  0  0  0
   11.5473  -15.7865   25.8792 C   0  0  0  0  0  0  0  0  0  0  0  0
   11.3503  -15.7701   24.4102 C   0  0  2  0  0  0  0  0  0  0  0  0
    9.9962  -15.6957   23.9348 N   0  0  0  0  0  0  0  0  0  0  0  0
   11.9890  -16.9345   23.7287 C   0  0  0  0  0  0  0  0  0  0  0  0
   13.2193  -17.2006   23.8813 O   0  0  0  0  0  0  0  0  0  0  0  0
   11.2839  -17.7910   22.8935 O   0  0  0  0  0  0  0  0  0  0  0  0
  2  1  1  1
  2 13  1  0
  2  3  1  0
  4  5  2  0
  4  3  1  0
  6  5  1  0
  7 12  2  0
  7  6  1  0
  8  7  1  0
  9 10  1  0
  9  8  2  0
 10 11  2  0
 11 12  1  0
 12  4  1  0
 13 14  2  0
 15 16  1  0
 15 13  1  0
 16 17  1  1
 18 17  1  0
 19 20  1  0
 19 18  1  0
 21 20  1  0
 22 16  1  0
 22 23  2  0
 25 24  1  6
 25 26  1  0
 25 27  1  0
 28 27  1  1
 28 29  1  0
 28 30  1  0
 29 22  1  0
 30 31  2  0
 30 32  1  0
M  END
$$$$
