WKL.pdb
     RDKit          3D

 32 33  0  0  1  0  0  0  0  0999 V2000
    5.4916  -17.8612   24.7200 N   0  0  0  0  0  0  0  0  0  0  0  0
    6.3228  -16.6828   24.5663 C   0  0  1  0  0  0  0  0  0  0  0  0
    6.8223  -16.2698   25.9100 C   0  0  0  0  0  0  0  0  0  0  0  0
    6.2209  -14.9566   26.2505 C   0  0  0  0  0  0  0  0  0  0  0  0
    4.9234  -14.6449   26.5926 C   0  0  0  0  0  0  0  0  0  0  0  0
    4.8112  -13.3181   26.8242 N   0  0  0  0  0  0  0  0  0  0  0  0
    6.0083  -12.7346   26.6442 C   0  0  0  0  0  0  0  0  0  0  0  0
    6.4576  -11.4572   26.7413 C   0  0  0  0  0  0  0  0  0  0  0  0
    7.7681  -11.0976   26.5004 C   0  0  0  0  0  0  0  0  0  0  0  0
    8.6418  -12.1238   26.1429 C   0  0  0  0  0  0  0  0  0  0  0  0
    8.2152  -13.4150   26.0387 C   0  0  0  0  0  0  0  0  0  0  0  0
    6.9049  -13.7387   26.2850 C   0  0  0  0  0  0  0  0  0  0  0  0
    7.4447  -16.9254   23.5999 C   0  0  0  0  0  0  0  0  0  0  0  0
    7.9211  -18.0616   23.5326 O   0  0  0  0  0  0  0  0  0  0  0  0
    7.9449  -15.9014   22.7929 N   0  0  0  0  0  0  0  0  0  0  0  0
    9.2225  -15.8043   22.1482 C   0  0  1  0  0  0  0  0  0  0  0  0
    9.3474  -14.8045   21.0398 C   0  0  0  0  0  0  0  0  0  0  0  0
    8.4223  -14.9214   19.9021 C   0  0  0  0  0  0  0  0  0  0  0  0
    8.6203  -13.8402   18.8469 C   0  0  0  0  0  0  0  0  0  0  0  0
    8.6888  -14.6031   17.5157 C   0  0  0  0  0  0  0  0  0  0  0  0
    8.9590  -13.6998   16.4118 N   0  0  0  0  0  0  0  0  0  0  0  0
   10.3304  -15.8285   23.1075 C   0  0  0  0  0  0  0  0  0  0  0  0
   11.5252  -15.7114   22.6664 O   0  0  0  0  0  0  0  0  0  0  0  0
    9.4436  -14.4839   28.2719 C   0  0  0  0  0  0  0  0  0  0  0  0
   10.7264  -14.5541   27.5024 C   0  0  2  0  0  0  0  0  0  0  0  0
   10.6350  -13.4836   26.4029 C   0  0  0  0  0  0  0  0  0  0  0  0
   11.0074  -15.8623   26.8694 C   0  0  0  0  0  0  0  0  0  0  0  0
   11.3235  -15.8900   25.4215 C   0  0  2  0  0  0  0  0  0  0  0  0
   10.2130  -15.9720   24.5131 N   0  0  0  0  0  0  0  0  0  0  0  0
   12.2675  -16.9875   25.0572 C   0  0  0  0  0  0  0  0  0  0  0  0
   13.5221  -16.8055   25.0376 O   0  0  0  0  0  0  0  0  0  0  0  0
   11.8361  -18.2638   24.7206 O   0  0  0  0  0  0  0  0  0  0  0  0
  2  1  1  1
  2 13  1  0
  2  3  1  0
  4  5  2  0
  4  3  1  0
  6  5  1  0
  7 12  2  0
  7  6  1  0
  8  7  1  0
  9 10  1  0
  9  8  2  0
 10 11  2  0
 11 12  1  0
 12  4  1  0
 13 14  2  0
 15 16  1  0
 15 13  1  0
 16 17  1  1
 18 17  1  0
 19 20  1  0
 19 18  1  0
 21 20  1  0
 22 16  1  0
 22 23  2  0
 25 24  1  6
 25 26  1  0
 25 27  1  0
 28 27  1  1
 28 29  1  0
 28 30  1  0
 29 22  1  0
 30 31  2  0
 30 32  1  0
M  END
$$$$
