WKL.pdb
     RDKit          3D

 32 33  0  0  1  0  0  0  0  0999 V2000
    5.9026  -17.0438   25.1485 N   0  0  0  0  0  0  0  0  0  0  0  0
    7.1484  -16.4654   24.6829 C   0  0  1  0  0  0  0  0  0  0  0  0
    7.3964  -15.1972   25.4283 C   0  0  0  0  0  0  0  0  0  0  0  0
    6.6494  -14.1048   24.7569 C   0  0  0  0  0  0  0  0  0  0  0  0
    5.6267  -13.3150   25.2343 C   0  0  0  0  0  0  0  0  0  0  0  0
    5.2345  -12.4392   24.2825 N   0  0  0  0  0  0  0  0  0  0  0  0
    5.9746  -12.6267   23.1766 C   0  0  0  0  0  0  0  0  0  0  0  0
    6.0050  -12.0394   21.9529 C   0  0  0  0  0  0  0  0  0  0  0  0
    6.8802  -12.4184   20.9554 C   0  0  0  0  0  0  0  0  0  0  0  0
    7.7596  -13.4576   21.2574 C   0  0  0  0  0  0  0  0  0  0  0  0
    7.7490  -14.0637   22.4792 C   0  0  0  0  0  0  0  0  0  0  0  0
    6.8655  -13.6626   23.4492 C   0  0  0  0  0  0  0  0  0  0  0  0
    8.2877  -17.4317   24.8232 C   0  0  0  0  0  0  0  0  0  0  0  0
    8.2530  -18.2436   25.7516 O   0  0  0  0  0  0  0  0  0  0  0  0
    9.3640  -17.4225   23.9334 N   0  0  0  0  0  0  0  0  0  0  0  0
   10.7088  -17.8761   24.1409 C   0  0  1  0  0  0  0  0  0  0  0  0
   11.6070  -17.9025   22.9424 C   0  0  0  0  0  0  0  0  0  0  0  0
   12.9027  -18.5873   23.0703 C   0  0  0  0  0  0  0  0  0  0  0  0
   13.6893  -18.6433   21.7665 C   0  0  0  0  0  0  0  0  0  0  0  0
   14.9809  -19.3940   22.1230 C   0  0  0  0  0  0  0  0  0  0  0  0
   15.7695  -19.6655   20.9348 N   0  0  0  0  0  0  0  0  0  0  0  0
   11.2985  -17.3209   25.3624 C   0  0  0  0  0  0  0  0  0  0  0  0
   12.1298  -16.3545   25.2568 O   0  0  0  0  0  0  0  0  0  0  0  0
   11.2846  -14.0492   27.6307 C   0  0  0  0  0  0  0  0  0  0  0  0
   10.3392  -15.1255   28.0672 C   0  0  2  0  0  0  0  0  0  0  0  0
    9.3766  -14.4781   29.0760 C   0  0  0  0  0  0  0  0  0  0  0  0
   10.9764  -16.2996   28.7047 C   0  0  0  0  0  0  0  0  0  0  0  0
   11.7210  -17.2496   27.8445 C   0  0  2  0  0  0  0  0  0  0  0  0
   11.0365  -17.7549   26.6864 N   0  0  0  0  0  0  0  0  0  0  0  0
   12.2342  -18.4314   28.5986 C   0  0  0  0  0  0  0  0  0  0  0  0
   13.0286  -18.3005   29.5781 O   0  0  0  0  0  0  0  0  0  0  0  0
   11.8778  -19.7348   28.2786 O   0  0  0  0  0  0  0  0  0  0  0  0
  2  1  1  1
  2 13  1  0
  2  3  1  0
  4  5  2  0
  4  3  1  0
  6  5  1  0
  7 12  2  0
  7  6  1  0
  8  7  1  0
  9 10  1  0
  9  8  2  0
 10 11  2  0
 11 12  1  0
 12  4  1  0
 13 14  2  0
 15 16  1  0
 15 13  1  0
 16 17  1  6
 18 17  1  0
 19 20  1  0
 19 18  1  0
 21 20  1  0
 22 16  1  0
 22 23  2  0
 25 24  1  1
 25 26  1  0
 25 27  1  0
 28 27  1  1
 28 29  1  0
 28 30  1  0
 29 22  1  0
 30 31  2  0
 30 32  1  0
M  END
$$$$
