WKL.pdb
     RDKit          3D

 32 33  0  0  1  0  0  0  0  0999 V2000
    5.8603  -18.4641   25.0804 N   0  0  0  0  0  0  0  0  0  0  0  0
    6.4100  -17.1771   24.7000 C   0  0  1  0  0  0  0  0  0  0  0  0
    7.0797  -16.5718   25.8877 C   0  0  0  0  0  0  0  0  0  0  0  0
    6.3333  -15.3490   26.2743 C   0  0  0  0  0  0  0  0  0  0  0  0
    5.0586  -15.2189   26.7804 C   0  0  0  0  0  0  0  0  0  0  0  0
    4.7753  -13.9146   26.9929 N   0  0  0  0  0  0  0  0  0  0  0  0
    5.8353  -13.1681   26.6393 C   0  0  0  0  0  0  0  0  0  0  0  0
    6.0921  -11.8350   26.6441 C   0  0  0  0  0  0  0  0  0  0  0  0
    7.2896  -11.2955   26.2203 C   0  0  0  0  0  0  0  0  0  0  0  0
    8.2566  -12.1951   25.7732 C   0  0  0  0  0  0  0  0  0  0  0  0
    8.0232  -13.5387   25.7587 C   0  0  0  0  0  0  0  0  0  0  0  0
    6.8211  -14.0426   26.1870 C   0  0  0  0  0  0  0  0  0  0  0  0
    7.3436  -17.3034   23.5321 C   0  0  0  0  0  0  0  0  0  0  0  0
    8.1398  -18.2459   23.5210 O   0  0  0  0  0  0  0  0  0  0  0  0
    7.3218  -16.3855   22.4799 N   0  0  0  0  0  0  0  0  0  0  0  0
    8.4170  -15.8709   21.7097 C   0  0  1  0  0  0  0  0  0  0  0  0
    8.0870  -14.8605   20.6544 C   0  0  0  0  0  0  0  0  0  0  0  0
    9.1405  -14.5043   19.6913 C   0  0  0  0  0  0  0  0  0  0  0  0
    8.6571  -13.5826   18.5784 C   0  0  0  0  0  0  0  0  0  0  0  0
    9.3997  -14.0648   17.3235 C   0  0  0  0  0  0  0  0  0  0  0  0
    8.9635  -13.3333   16.1478 N   0  0  0  0  0  0  0  0  0  0  0  0
    9.5821  -15.5595   22.5428 C   0  0  0  0  0  0  0  0  0  0  0  0
   10.1836  -14.4452   22.3627 O   0  0  0  0  0  0  0  0  0  0  0  0
    9.9687  -15.2230   28.3600 C   0  0  0  0  0  0  0  0  0  0  0  0
   10.7037  -14.9793   27.0782 C   0  0  2  0  0  0  0  0  0  0  0  0
   10.9103  -13.4594   26.9757 C   0  0  0  0  0  0  0  0  0  0  0  0
   10.0090  -15.4476   25.8579 C   0  0  0  0  0  0  0  0  0  0  0  0
   10.8307  -15.8880   24.7056 C   0  0  2  0  0  0  0  0  0  0  0  0
   10.1275  -16.3875   23.5563 N   0  0  0  0  0  0  0  0  0  0  0  0
   11.8443  -16.9182   25.0791 C   0  0  0  0  0  0  0  0  0  0  0  0
   13.0874  -16.7056   24.9474 O   0  0  0  0  0  0  0  0  0  0  0  0
   11.4940  -18.1614   25.5892 O   0  0  0  0  0  0  0  0  0  0  0  0
  2  1  1  1
  2 13  1  0
  2  3  1  0
  4  5  2  0
  4  3  1  0
  6  5  1  0
  7 12  2  0
  7  6  1  0
  8  7  1  0
  9 10  1  0
  9  8  2  0
 10 11  2  0
 11 12  1  0
 12  4  1  0
 13 14  2  0
 15 16  1  0
 15 13  1  0
 16 17  1  1
 18 17  1  0
 19 20  1  0
 19 18  1  0
 21 20  1  0
 22 16  1  0
 22 23  2  0
 25 24  1  1
 25 26  1  0
 25 27  1  0
 28 27  1  1
 28 29  1  0
 28 30  1  0
 29 22  1  0
 30 31  2  0
 30 32  1  0
M  END
$$$$
