WKL.pdb
     RDKit          3D

 32 33  0  0  1  0  0  0  0  0999 V2000
    6.4261  -17.4286   25.4548 N   0  0  0  0  0  0  0  0  0  0  0  0
    7.0560  -17.3454   24.1511 C   0  0  1  0  0  0  0  0  0  0  0  0
    6.7530  -16.0112   23.5565 C   0  0  0  0  0  0  0  0  0  0  0  0
    6.4166  -15.0732   24.6561 C   0  0  0  0  0  0  0  0  0  0  0  0
    5.7947  -15.3164   25.8611 C   0  0  0  0  0  0  0  0  0  0  0  0
    5.6871  -14.1688   26.5669 N   0  0  0  0  0  0  0  0  0  0  0  0
    6.2249  -13.1614   25.8585 C   0  0  0  0  0  0  0  0  0  0  0  0
    6.3830  -11.8318   26.0827 C   0  0  0  0  0  0  0  0  0  0  0  0
    6.9830  -10.9799   25.1777 C   0  0  0  0  0  0  0  0  0  0  0  0
    7.4354  -11.5499   23.9883 C   0  0  0  0  0  0  0  0  0  0  0  0
    7.2886  -12.8829   23.7394 C   0  0  0  0  0  0  0  0  0  0  0  0
    6.6871  -13.7024   24.6607 C   0  0  0  0  0  0  0  0  0  0  0  0
    8.5322  -17.5996   24.2382 C   0  0  0  0  0  0  0  0  0  0  0  0
    8.9835  -18.0614   25.2897 O   0  0  0  0  0  0  0  0  0  0  0  0
    9.3829  -17.3253   23.1653 N   0  0  0  0  0  0  0  0  0  0  0  0
   10.8075  -17.4713   23.0844 C   0  0  1  0  0  0  0  0  0  0  0  0
   11.4595  -17.0512   21.8029 C   0  0  0  0  0  0  0  0  0  0  0  0
   12.7549  -17.6584   21.4604 C   0  0  0  0  0  0  0  0  0  0  0  0
   13.3389  -17.1410   20.1515 C   0  0  0  0  0  0  0  0  0  0  0  0
   14.8579  -17.3001   20.3132 C   0  0  0  0  0  0  0  0  0  0  0  0
   15.5617  -16.7777   19.1558 N   0  0  0  0  0  0  0  0  0  0  0  0
   11.4799  -17.0331   24.3108 C   0  0  0  0  0  0  0  0  0  0  0  0
   12.1875  -15.9682   24.2743 O   0  0  0  0  0  0  0  0  0  0  0  0
    9.3316  -14.2736   28.5618 C   0  0  0  0  0  0  0  0  0  0  0  0
   10.5007  -15.1786   28.3233 C   0  0  2  0  0  0  0  0  0  0  0  0
   11.7523  -14.2861   28.3309 C   0  0  0  0  0  0  0  0  0  0  0  0
   10.4617  -15.9312   27.0492 C   0  0  0  0  0  0  0  0  0  0  0  0
   11.4699  -16.9951   26.8293 C   0  0  2  0  0  0  0  0  0  0  0  0
   11.4265  -17.6842   25.5690 N   0  0  0  0  0  0  0  0  0  0  0  0
   11.4522  -18.0375   27.8978 C   0  0  0  0  0  0  0  0  0  0  0  0
   11.5761  -17.7352   29.1229 O   0  0  0  0  0  0  0  0  0  0  0  0
   11.3003  -19.3897   27.6207 O   0  0  0  0  0  0  0  0  0  0  0  0
  2  1  1  1
  2 13  1  0
  2  3  1  0
  4  5  2  0
  4  3  1  0
  6  5  1  0
  7 12  2  0
  7  6  1  0
  8  7  1  0
  9 10  1  0
  9  8  2  0
 10 11  2  0
 11 12  1  0
 12  4  1  0
 13 14  2  0
 15 16  1  0
 15 13  1  0
 16 17  1  6
 18 17  1  0
 19 20  1  0
 19 18  1  0
 21 20  1  0
 22 16  1  0
 22 23  2  0
 25 24  1  6
 25 26  1  0
 25 27  1  0
 28 27  1  1
 28 29  1  0
 28 30  1  0
 29 22  1  0
 30 31  2  0
 30 32  1  0
M  END
$$$$
