WKL.pdb
     RDKit          3D

 32 33  0  0  1  0  0  0  0  0999 V2000
    6.0098  -19.3308   24.9847 N   0  0  0  0  0  0  0  0  0  0  0  0
    6.4305  -17.9532   24.8159 C   0  0  1  0  0  0  0  0  0  0  0  0
    6.9101  -17.4339   26.1297 C   0  0  0  0  0  0  0  0  0  0  0  0
    6.3103  -16.0949   26.3519 C   0  0  0  0  0  0  0  0  0  0  0  0
    5.0062  -15.7501   26.6318 C   0  0  0  0  0  0  0  0  0  0  0  0
    4.8986  -14.4088   26.7584 N   0  0  0  0  0  0  0  0  0  0  0  0
    6.1051  -13.8481   26.5690 C   0  0  0  0  0  0  0  0  0  0  0  0
    6.5620  -12.5697   26.5814 C   0  0  0  0  0  0  0  0  0  0  0  0
    7.8817  -12.2376   26.3515 C   0  0  0  0  0  0  0  0  0  0  0  0
    8.7567  -13.2934   26.0984 C   0  0  0  0  0  0  0  0  0  0  0  0
    8.3224  -14.5862   26.0806 C   0  0  0  0  0  0  0  0  0  0  0  0
    7.0031  -14.8822   26.3132 C   0  0  0  0  0  0  0  0  0  0  0  0
    7.4751  -17.8261   23.7463 C   0  0  0  0  0  0  0  0  0  0  0  0
    8.4830  -18.5331   23.8283 O   0  0  0  0  0  0  0  0  0  0  0  0
    7.3224  -16.9355   22.6816 N   0  0  0  0  0  0  0  0  0  0  0  0
    8.3216  -16.1610   22.0039 C   0  0  1  0  0  0  0  0  0  0  0  0
    7.8350  -15.0725   21.0972 C   0  0  0  0  0  0  0  0  0  0  0  0
    8.8316  -14.3616   20.2814 C   0  0  0  0  0  0  0  0  0  0  0  0
    8.2173  -13.5412   19.1539 C   0  0  0  0  0  0  0  0  0  0  0  0
    9.3706  -13.3124   18.1658 C   0  0  0  0  0  0  0  0  0  0  0  0
    8.9256  -12.5472   17.0151 N   0  0  0  0  0  0  0  0  0  0  0  0
    9.4355  -15.8004   22.8857 C   0  0  0  0  0  0  0  0  0  0  0  0
   10.4880  -15.2919   22.3664 O   0  0  0  0  0  0  0  0  0  0  0  0
   10.6330  -14.2946   28.8541 C   0  0  0  0  0  0  0  0  0  0  0  0
   11.0571  -14.4068   27.4223 C   0  0  2  0  0  0  0  0  0  0  0  0
   11.3811  -12.9803   26.9499 C   0  0  0  0  0  0  0  0  0  0  0  0
   10.0458  -14.9903   26.5124 C   0  0  0  0  0  0  0  0  0  0  0  0
   10.4671  -15.3698   25.1429 C   0  0  2  0  0  0  0  0  0  0  0  0
    9.4694  -15.9606   24.2940 N   0  0  0  0  0  0  0  0  0  0  0  0
   11.6459  -16.2857   25.1340 C   0  0  0  0  0  0  0  0  0  0  0  0
   12.7215  -15.9898   25.7367 O   0  0  0  0  0  0  0  0  0  0  0  0
   11.6392  -17.5066   24.4727 O   0  0  0  0  0  0  0  0  0  0  0  0
  2  1  1  1
  2 13  1  0
  2  3  1  0
  4  5  2  0
  4  3  1  0
  6  5  1  0
  7 12  2  0
  7  6  1  0
  8  7  1  0
  9 10  1  0
  9  8  2  0
 10 11  2  0
 11 12  1  0
 12  4  1  0
 13 14  2  0
 15 16  1  0
 15 13  1  0
 16 17  1  1
 18 17  1  0
 19 20  1  0
 19 18  1  0
 21 20  1  0
 22 16  1  0
 22 23  2  0
 25 24  1  1
 25 26  1  0
 25 27  1  0
 28 27  1  1
 28 29  1  0
 28 30  1  0
 29 22  1  0
 30 31  2  0
 30 32  1  0
M  END
$$$$
