WKL.pdb
     RDKit          3D

 32 33  0  0  1  0  0  0  0  0999 V2000
    6.1580  -17.8418   25.4121 N   0  0  0  0  0  0  0  0  0  0  0  0
    6.6469  -16.7001   24.6630 C   0  0  1  0  0  0  0  0  0  0  0  0
    7.3951  -15.8028   25.5906 C   0  0  0  0  0  0  0  0  0  0  0  0
    6.4398  -14.8271   26.1715 C   0  0  0  0  0  0  0  0  0  0  0  0
    5.1856  -15.0329   26.7029 C   0  0  0  0  0  0  0  0  0  0  0  0
    4.6610  -13.8594   27.1206 N   0  0  0  0  0  0  0  0  0  0  0  0
    5.5394  -12.8713   26.8796 C   0  0  0  0  0  0  0  0  0  0  0  0
    5.5302  -11.5303   27.0919 C   0  0  0  0  0  0  0  0  0  0  0  0
    6.5809  -10.7045   26.7477 C   0  0  0  0  0  0  0  0  0  0  0  0
    7.6868  -11.3140   26.1561 C   0  0  0  0  0  0  0  0  0  0  0  0
    7.7206  -12.6590   25.9323 C   0  0  0  0  0  0  0  0  0  0  0  0
    6.6584  -13.4519   26.2866 C   0  0  0  0  0  0  0  0  0  0  0  0
    7.4873  -17.1291   23.4963 C   0  0  0  0  0  0  0  0  0  0  0  0
    8.2685  -18.0708   23.6551 O   0  0  0  0  0  0  0  0  0  0  0  0
    7.3969  -16.4879   22.2591 N   0  0  0  0  0  0  0  0  0  0  0  0
    8.4095  -15.7707   21.5394 C   0  0  1  0  0  0  0  0  0  0  0  0
    7.9414  -14.7893   20.5092 C   0  0  0  0  0  0  0  0  0  0  0  0
    8.9433  -14.2295   19.5889 C   0  0  0  0  0  0  0  0  0  0  0  0
    8.3345  -13.5923   18.3458 C   0  0  0  0  0  0  0  0  0  0  0  0
    9.3374  -13.8945   17.2225 C   0  0  0  0  0  0  0  0  0  0  0  0
    8.7927  -13.5304   15.9270 N   0  0  0  0  0  0  0  0  0  0  0  0
    9.4866  -15.3033   22.4166 C   0  0  0  0  0  0  0  0  0  0  0  0
    9.4741  -14.0850   22.8062 O   0  0  0  0  0  0  0  0  0  0  0  0
   10.3677  -16.0863   27.8541 C   0  0  0  0  0  0  0  0  0  0  0  0
   11.0828  -15.5417   26.6563 C   0  0  2  0  0  0  0  0  0  0  0  0
   11.1946  -14.0232   26.8677 C   0  0  0  0  0  0  0  0  0  0  0  0
   10.4151  -15.7929   25.3593 C   0  0  0  0  0  0  0  0  0  0  0  0
   11.2496  -15.8357   24.1350 C   0  0  2  0  0  0  0  0  0  0  0  0
   10.5717  -16.0820   22.8921 N   0  0  0  0  0  0  0  0  0  0  0  0
   12.3628  -16.8258   24.2289 C   0  0  0  0  0  0  0  0  0  0  0  0
   13.5483  -16.4685   24.5022 O   0  0  0  0  0  0  0  0  0  0  0  0
   12.1727  -18.1862   24.0255 O   0  0  0  0  0  0  0  0  0  0  0  0
  2  1  1  1
  2 13  1  0
  2  3  1  0
  4  5  2  0
  4  3  1  0
  6  5  1  0
  7 12  2  0
  7  6  1  0
  8  7  1  0
  9 10  1  0
  9  8  2  0
 10 11  2  0
 11 12  1  0
 12  4  1  0
 13 14  2  0
 15 16  1  0
 15 13  1  0
 16 17  1  1
 18 17  1  0
 19 20  1  0
 19 18  1  0
 21 20  1  0
 22 16  1  0
 22 23  2  0
 25 24  1  1
 25 26  1  0
 25 27  1  0
 28 27  1  1
 28 29  1  0
 28 30  1  0
 29 22  1  0
 30 31  2  0
 30 32  1  0
M  END
$$$$
