WKL.pdb
     RDKit          3D

 32 33  0  0  1  0  0  0  0  0999 V2000
    5.9538  -17.5602   25.0223 N   0  0  0  0  0  0  0  0  0  0  0  0
    7.0204  -16.7241   24.5059 C   0  0  1  0  0  0  0  0  0  0  0  0
    7.5312  -15.8617   25.6108 C   0  0  0  0  0  0  0  0  0  0  0  0
    6.5439  -14.7816   25.8574 C   0  0  0  0  0  0  0  0  0  0  0  0
    5.3122  -14.8385   26.4717 C   0  0  0  0  0  0  0  0  0  0  0  0
    4.7424  -13.6130   26.4820 N   0  0  0  0  0  0  0  0  0  0  0  0
    5.5684  -12.7359   25.8867 C   0  0  0  0  0  0  0  0  0  0  0  0
    5.5012  -11.4047   25.6285 C   0  0  0  0  0  0  0  0  0  0  0  0
    6.5048  -10.7090   24.9855 C   0  0  0  0  0  0  0  0  0  0  0  0
    7.6251  -11.4435   24.5984 C   0  0  0  0  0  0  0  0  0  0  0  0
    7.7168  -12.7815   24.8463 C   0  0  0  0  0  0  0  0  0  0  0  0
    6.7006  -13.4433   25.4879 C   0  0  0  0  0  0  0  0  0  0  0  0
    8.1108  -17.5473   23.8856 C   0  0  0  0  0  0  0  0  0  0  0  0
    8.5326  -18.5234   24.5115 O   0  0  0  0  0  0  0  0  0  0  0  0
    8.6421  -17.2278   22.6343 N   0  0  0  0  0  0  0  0  0  0  0  0
   10.0009  -16.9350   22.2801 C   0  0  1  0  0  0  0  0  0  0  0  0
   10.2238  -16.2249   20.9801 C   0  0  0  0  0  0  0  0  0  0  0  0
   11.6101  -16.0609   20.5163 C   0  0  0  0  0  0  0  0  0  0  0  0
   12.1680  -17.2991   19.8253 C   0  0  0  0  0  0  0  0  0  0  0  0
   13.6084  -16.9201   19.4505 C   0  0  0  0  0  0  0  0  0  0  0  0
   14.3220  -18.0617   18.9074 N   0  0  0  0  0  0  0  0  0  0  0  0
   10.7736  -16.4299   23.4185 C   0  0  0  0  0  0  0  0  0  0  0  0
   10.9247  -15.1660   23.5438 O   0  0  0  0  0  0  0  0  0  0  0  0
    9.6589  -15.6648   28.8022 C   0  0  0  0  0  0  0  0  0  0  0  0
   10.8666  -15.7274   27.9190 C   0  0  2  0  0  0  0  0  0  0  0  0
   11.4798  -14.3178   27.9174 C   0  0  0  0  0  0  0  0  0  0  0  0
   10.6004  -16.1312   26.5200 C   0  0  0  0  0  0  0  0  0  0  0  0
   11.7072  -16.7321   25.7384 C   0  0  2  0  0  0  0  0  0  0  0  0
   11.3885  -17.2179   24.4240 N   0  0  0  0  0  0  0  0  0  0  0  0
   12.3874  -17.8462   26.4626 C   0  0  0  0  0  0  0  0  0  0  0  0
   11.8851  -19.0092   26.5147 O   0  0  0  0  0  0  0  0  0  0  0  0
   13.6006  -17.6814   27.1179 O   0  0  0  0  0  0  0  0  0  0  0  0
  2  1  1  1
  2 13  1  0
  2  3  1  0
  4  5  2  0
  4  3  1  0
  6  5  1  0
  7 12  2  0
  7  6  1  0
  8  7  1  0
  9 10  1  0
  9  8  2  0
 10 11  2  0
 11 12  1  0
 12  4  1  0
 13 14  2  0
 15 16  1  0
 15 13  1  0
 16 17  1  6
 18 17  1  0
 19 20  1  0
 19 18  1  0
 21 20  1  0
 22 16  1  0
 22 23  2  0
 25 24  1  1
 25 26  1  0
 25 27  1  0
 28 27  1  1
 28 29  1  0
 28 30  1  0
 29 22  1  0
 30 31  2  0
 30 32  1  0
M  END
$$$$
