WKL.pdb
     RDKit          3D

 32 33  0  0  1  0  0  0  0  0999 V2000
    5.9262  -18.7230   25.1639 N   0  0  0  0  0  0  0  0  0  0  0  0
    6.2991  -17.3415   24.9277 C   0  0  1  0  0  0  0  0  0  0  0  0
    6.8030  -16.7559   26.2038 C   0  0  0  0  0  0  0  0  0  0  0  0
    6.0799  -15.4845   26.4540 C   0  0  0  0  0  0  0  0  0  0  0  0
    4.7626  -15.2740   26.7979 C   0  0  0  0  0  0  0  0  0  0  0  0
    4.5235  -13.9502   26.9284 N   0  0  0  0  0  0  0  0  0  0  0  0
    5.6549  -13.2695   26.6787 C   0  0  0  0  0  0  0  0  0  0  0  0
    5.9776  -11.9507   26.6671 C   0  0  0  0  0  0  0  0  0  0  0  0
    7.2430  -11.4859   26.3718 C   0  0  0  0  0  0  0  0  0  0  0  0
    8.2087  -12.4475   26.0767 C   0  0  0  0  0  0  0  0  0  0  0  0
    7.9099  -13.7782   26.0818 C   0  0  0  0  0  0  0  0  0  0  0  0
    6.6411  -14.2071   26.3798 C   0  0  0  0  0  0  0  0  0  0  0  0
    7.3056  -17.2270   23.8207 C   0  0  0  0  0  0  0  0  0  0  0  0
    8.3695  -17.8415   23.9339 O   0  0  0  0  0  0  0  0  0  0  0  0
    7.0567  -16.4492   22.6879 N   0  0  0  0  0  0  0  0  0  0  0  0
    7.9338  -15.5404   22.0080 C   0  0  1  0  0  0  0  0  0  0  0  0
    7.2931  -14.5142   21.1248 C   0  0  0  0  0  0  0  0  0  0  0  0
    8.1713  -13.6952   20.2749 C   0  0  0  0  0  0  0  0  0  0  0  0
    8.2028  -14.1503   18.8210 C   0  0  0  0  0  0  0  0  0  0  0  0
    9.1350  -13.1508   18.1204 C   0  0  0  0  0  0  0  0  0  0  0  0
    9.2291  -13.4350   16.6999 N   0  0  0  0  0  0  0  0  0  0  0  0
    9.0041  -15.0471   22.8794 C   0  0  0  0  0  0  0  0  0  0  0  0
    8.8578  -13.9094   23.4452 O   0  0  0  0  0  0  0  0  0  0  0  0
   10.6647  -15.7447   28.1379 C   0  0  0  0  0  0  0  0  0  0  0  0
   11.2614  -15.3012   26.8379 C   0  0  2  0  0  0  0  0  0  0  0  0
   11.5008  -13.7877   26.9613 C   0  0  0  0  0  0  0  0  0  0  0  0
   10.4232  -15.5538   25.6443 C   0  0  0  0  0  0  0  0  0  0  0  0
   11.0461  -15.4206   24.3060 C   0  0  2  0  0  0  0  0  0  0  0  0
   10.2190  -15.7181   23.1692 N   0  0  0  0  0  0  0  0  0  0  0  0
   12.2908  -16.2325   24.1648 C   0  0  0  0  0  0  0  0  0  0  0  0
   13.4364  -15.6907   24.1247 O   0  0  0  0  0  0  0  0  0  0  0  0
   12.2731  -17.6178   24.0698 O   0  0  0  0  0  0  0  0  0  0  0  0
  2  1  1  1
  2 13  1  0
  2  3  1  0
  4  5  2  0
  4  3  1  0
  6  5  1  0
  7 12  2  0
  7  6  1  0
  8  7  1  0
  9 10  1  0
  9  8  2  0
 10 11  2  0
 11 12  1  0
 12  4  1  0
 13 14  2  0
 15 16  1  0
 15 13  1  0
 16 17  1  1
 18 17  1  0
 19 20  1  0
 19 18  1  0
 21 20  1  0
 22 16  1  0
 22 23  2  0
 25 24  1  1
 25 26  1  0
 25 27  1  0
 28 27  1  1
 28 29  1  0
 28 30  1  0
 29 22  1  0
 30 31  2  0
 30 32  1  0
M  END
$$$$
