PGW.pdb
     RDKit          3D

 26 28  0  0  1  0  0  0  0  0999 V2000
   27.0705  -16.7140  -15.6950 N   0  0  0  0  0  0  0  0  0  0  0  0
   28.2625  -16.2075  -16.3560 C   0  0  0  0  0  0  0  0  0  0  0  0
   29.3028  -17.2779  -16.2942 C   0  0  0  0  0  0  0  0  0  0  0  0
   28.6886  -18.2921  -15.3294 C   0  0  0  0  0  0  0  0  0  0  0  0
   27.2265  -18.1567  -15.6629 C   0  0  1  0  0  0  0  0  0  0  0  0
   26.3476  -18.7901  -14.6492 C   0  0  0  0  0  0  0  0  0  0  0  0
   25.8400  -19.9402  -14.8644 O   0  0  0  0  0  0  0  0  0  0  0  0
   25.9992  -18.2097  -13.3998 N   0  0  0  0  0  0  0  0  0  0  0  0
   25.1605  -18.8914  -12.4566 C   0  0  0  0  0  0  0  0  0  0  0  0
   25.8973  -19.9083  -11.6663 C   0  0  0  0  0  0  0  0  0  0  0  0
   26.4429  -20.8540  -12.2860 O   0  0  0  0  0  0  0  0  0  0  0  0
   26.0214  -19.8750  -10.2552 N   0  0  0  0  0  0  0  0  0  0  0  0
   26.3351  -21.0604   -9.4464 C   0  0  1  0  0  0  0  0  0  0  0  0
   27.6527  -20.9223   -8.7812 C   0  0  0  0  0  0  0  0  0  0  0  0
   27.7536  -19.9495   -7.6806 C   0  0  0  0  0  0  0  0  0  0  0  0
   27.1906  -18.6618   -7.6774 C   0  0  0  0  0  0  0  0  0  0  0  0
   27.5050  -18.0356   -6.5351 N   0  0  0  0  0  0  0  0  0  0  0  0
   28.2523  -18.8839   -5.8053 C   0  0  0  0  0  0  0  0  0  0  0  0
   28.8149  -18.7352   -4.5544 C   0  0  0  0  0  0  0  0  0  0  0  0
   29.5347  -19.7577   -3.9920 C   0  0  0  0  0  0  0  0  0  0  0  0
   29.7079  -20.9539   -4.6703 C   0  0  0  0  0  0  0  0  0  0  0  0
   29.1569  -21.1225   -5.9166 C   0  0  0  0  0  0  0  0  0  0  0  0
   28.4345  -20.0827   -6.4710 C   0  0  0  0  0  0  0  0  0  0  0  0
   25.2068  -21.4705   -8.6153 C   0  0  0  0  0  0  0  0  0  0  0  0
   25.2733  -22.6403   -7.8876 O   0  0  0  0  0  0  0  0  0  0  0  0
   24.1746  -20.7765   -8.5503 O   0  0  0  0  0  0  0  0  0  0  0  0
  2  1  1  0
  3  4  1  0
  3  2  1  0
  4  5  1  0
  5  6  1  1
  5  1  1  0
  6  8  1  0
  7  6  2  0
  8  9  1  0
  9 10  1  0
 10 11  2  0
 10 12  1  0
 12 13  1  0
 13 24  1  0
 13 14  1  1
 15 14  1  0
 15 23  1  0
 16 17  1  0
 16 15  2  0
 17 18  1  0
 18 19  2  0
 18 23  1  0
 19 20  1  0
 20 21  2  0
 22 21  1  0
 23 22  2  0
 24 26  2  0
 24 25  1  0
M  END
$$$$
