PGW.pdb
     RDKit          3D

 26 28  0  0  1  0  0  0  0  0999 V2000
   29.9529  -18.4153  -16.6292 N   0  0  0  0  0  0  0  0  0  0  0  0
   30.6362  -17.2423  -17.1503 C   0  0  0  0  0  0  0  0  0  0  0  0
   29.6318  -16.1408  -17.2485 C   0  0  0  0  0  0  0  0  0  0  0  0
   28.3090  -16.8649  -16.9986 C   0  0  0  0  0  0  0  0  0  0  0  0
   28.7393  -17.9155  -16.0094 C   0  0  1  0  0  0  0  0  0  0  0  0
   27.7242  -18.9828  -15.8308 C   0  0  0  0  0  0  0  0  0  0  0  0
   26.5748  -18.7057  -15.3526 O   0  0  0  0  0  0  0  0  0  0  0  0
   27.9191  -20.3520  -16.1570 N   0  0  0  0  0  0  0  0  0  0  0  0
   26.8802  -21.3260  -15.9849 C   0  0  0  0  0  0  0  0  0  0  0  0
   26.6949  -21.7203  -14.5666 C   0  0  0  0  0  0  0  0  0  0  0  0
   27.5618  -22.4627  -14.0436 O   0  0  0  0  0  0  0  0  0  0  0  0
   25.5987  -21.3089  -13.7685 N   0  0  0  0  0  0  0  0  0  0  0  0
   25.4742  -21.6354  -12.3418 C   0  0  1  0  0  0  0  0  0  0  0  0
   26.7228  -21.3188  -11.6083 C   0  0  0  0  0  0  0  0  0  0  0  0
   26.5905  -20.8869  -10.2069 C   0  0  0  0  0  0  0  0  0  0  0  0
   25.4141  -20.3991   -9.6125 C   0  0  0  0  0  0  0  0  0  0  0  0
   25.6578  -20.0677   -8.3371 N   0  0  0  0  0  0  0  0  0  0  0  0
   26.9555  -20.3293   -8.0958 C   0  0  0  0  0  0  0  0  0  0  0  0
   27.7015  -20.1814   -6.9447 C   0  0  0  0  0  0  0  0  0  0  0  0
   29.0262  -20.5349   -6.9268 C   0  0  0  0  0  0  0  0  0  0  0  0
   29.6348  -21.0449   -8.0628 C   0  0  0  0  0  0  0  0  0  0  0  0
   28.9107  -21.1995   -9.2191 C   0  0  0  0  0  0  0  0  0  0  0  0
   27.5766  -20.8383   -9.2221 C   0  0  0  0  0  0  0  0  0  0  0  0
   24.2225  -21.1419  -11.7744 C   0  0  0  0  0  0  0  0  0  0  0  0
   23.6506  -19.9856  -12.2626 O   0  0  0  0  0  0  0  0  0  0  0  0
   23.6557  -21.7518  -10.8482 O   0  0  0  0  0  0  0  0  0  0  0  0
  2  1  1  0
  3  4  1  0
  3  2  1  0
  4  5  1  0
  5  6  1  6
  5  1  1  0
  6  8  1  0
  7  6  2  0
  8  9  1  0
  9 10  1  0
 10 11  2  0
 10 12  1  0
 12 13  1  0
 13 24  1  0
 13 14  1  1
 15 14  1  0
 15 23  1  0
 16 17  1  0
 16 15  2  0
 17 18  1  0
 18 19  2  0
 18 23  1  0
 19 20  1  0
 20 21  2  0
 22 21  1  0
 23 22  2  0
 24 26  2  0
 24 25  1  0
M  END
$$$$
