PGW.pdb
     RDKit          3D

 26 28  0  0  1  0  0  0  0  0999 V2000
   26.9111  -17.8489  -15.9102 N   0  0  0  0  0  0  0  0  0  0  0  0
   28.1775  -17.2619  -16.3174 C   0  0  0  0  0  0  0  0  0  0  0  0
   29.2700  -18.0622  -15.6868 C   0  0  0  0  0  0  0  0  0  0  0  0
   28.5124  -18.9541  -14.7033 C   0  0  0  0  0  0  0  0  0  0  0  0
   27.2313  -19.1906  -15.4585 C   0  0  1  0  0  0  0  0  0  0  0  0
   26.1609  -19.7616  -14.6042 C   0  0  0  0  0  0  0  0  0  0  0  0
   24.9390  -19.6781  -14.9599 O   0  0  0  0  0  0  0  0  0  0  0  0
   26.3768  -20.4250  -13.3664 N   0  0  0  0  0  0  0  0  0  0  0  0
   25.4018  -20.4001  -12.3146 C   0  0  0  0  0  0  0  0  0  0  0  0
   25.8668  -21.0917  -11.0870 C   0  0  0  0  0  0  0  0  0  0  0  0
   26.9942  -21.6434  -11.1130 O   0  0  0  0  0  0  0  0  0  0  0  0
   25.1144  -21.1662   -9.8885 N   0  0  0  0  0  0  0  0  0  0  0  0
   25.7180  -21.0775   -8.5523 C   0  0  1  0  0  0  0  0  0  0  0  0
   26.7246  -19.9911   -8.4895 C   0  0  0  0  0  0  0  0  0  0  0  0
   27.9416  -20.2442   -7.7004 C   0  0  0  0  0  0  0  0  0  0  0  0
   29.0836  -20.9226   -8.1593 C   0  0  0  0  0  0  0  0  0  0  0  0
   29.9867  -21.0031   -7.1725 N   0  0  0  0  0  0  0  0  0  0  0  0
   29.4578  -20.3959   -6.0945 C   0  0  0  0  0  0  0  0  0  0  0  0
   29.9792  -20.1927   -4.8334 C   0  0  0  0  0  0  0  0  0  0  0  0
   29.2536  -19.5215   -3.8831 C   0  0  0  0  0  0  0  0  0  0  0  0
   27.9876  -19.0382   -4.1743 C   0  0  0  0  0  0  0  0  0  0  0  0
   27.4498  -19.2302   -5.4229 C   0  0  0  0  0  0  0  0  0  0  0  0
   28.1928  -19.9091   -6.3703 C   0  0  0  0  0  0  0  0  0  0  0  0
   24.7130  -21.1192   -7.4938 C   0  0  0  0  0  0  0  0  0  0  0  0
   24.8934  -21.9415   -6.4012 O   0  0  0  0  0  0  0  0  0  0  0  0
   23.6852  -20.4188   -7.5595 O   0  0  0  0  0  0  0  0  0  0  0  0
  2  1  1  0
  3  4  1  0
  3  2  1  0
  4  5  1  0
  5  6  1  1
  5  1  1  0
  6  8  1  0
  7  6  2  0
  8  9  1  0
  9 10  1  0
 10 11  2  0
 10 12  1  0
 12 13  1  0
 13 24  1  0
 13 14  1  6
 15 14  1  0
 15 23  1  0
 16 17  1  0
 16 15  2  0
 17 18  1  0
 18 19  2  0
 18 23  1  0
 19 20  1  0
 20 21  2  0
 22 21  1  0
 23 22  2  0
 24 26  2  0
 24 25  1  0
M  END
$$$$
