PGW.pdb
     RDKit          3D

 26 28  0  0  1  0  0  0  0  0999 V2000
   26.4711  -20.7273  -15.9124 N   0  0  0  0  0  0  0  0  0  0  0  0
   25.3848  -20.6458  -16.8755 C   0  0  0  0  0  0  0  0  0  0  0  0
   24.5117  -19.5014  -16.4760 C   0  0  0  0  0  0  0  0  0  0  0  0
   25.0448  -19.1357  -15.0909 C   0  0  0  0  0  0  0  0  0  0  0  0
   26.5116  -19.4311  -15.2607 C   0  0  1  0  0  0  0  0  0  0  0  0
   27.2386  -19.4793  -13.9682 C   0  0  0  0  0  0  0  0  0  0  0  0
   27.2107  -18.4808  -13.1752 O   0  0  0  0  0  0  0  0  0  0  0  0
   28.0013  -20.5856  -13.5061 N   0  0  0  0  0  0  0  0  0  0  0  0
   28.4121  -20.7021  -12.1367 C   0  0  0  0  0  0  0  0  0  0  0  0
   27.3628  -21.2980  -11.2734 C   0  0  0  0  0  0  0  0  0  0  0  0
   26.9629  -22.4562  -11.5468 O   0  0  0  0  0  0  0  0  0  0  0  0
   26.7861  -20.6380  -10.1601 N   0  0  0  0  0  0  0  0  0  0  0  0
   25.7165  -21.2245   -9.3417 C   0  0  1  0  0  0  0  0  0  0  0  0
   26.1268  -21.3340   -7.9215 C   0  0  0  0  0  0  0  0  0  0  0  0
   26.8499  -20.1916   -7.3385 C   0  0  0  0  0  0  0  0  0  0  0  0
   26.8491  -18.8816   -7.8473 C   0  0  0  0  0  0  0  0  0  0  0  0
   27.6374  -18.1045   -7.0920 N   0  0  0  0  0  0  0  0  0  0  0  0
   28.1432  -18.8772   -6.1135 C   0  0  0  0  0  0  0  0  0  0  0  0
   28.9926  -18.5648   -5.0721 C   0  0  0  0  0  0  0  0  0  0  0  0
   29.3674  -19.5273   -4.1704 C   0  0  0  0  0  0  0  0  0  0  0  0
   28.8997  -20.8265   -4.2913 C   0  0  0  0  0  0  0  0  0  0  0  0
   28.0541  -21.1588   -5.3207 C   0  0  0  0  0  0  0  0  0  0  0  0
   27.6856  -20.1780   -6.2222 C   0  0  0  0  0  0  0  0  0  0  0  0
   24.4191  -20.6138   -9.6172 C   0  0  0  0  0  0  0  0  0  0  0  0
   23.2637  -21.2047   -9.1499 O   0  0  0  0  0  0  0  0  0  0  0  0
   24.3351  -19.5583  -10.2730 O   0  0  0  0  0  0  0  0  0  0  0  0
  2  1  1  0
  3  4  1  0
  3  2  1  0
  4  5  1  0
  5  6  1  1
  5  1  1  0
  6  8  1  0
  7  6  2  0
  8  9  1  0
  9 10  1  0
 10 11  2  0
 10 12  1  0
 12 13  1  0
 13 24  1  0
 13 14  1  1
 15 14  1  0
 15 23  1  0
 16 17  1  0
 16 15  2  0
 17 18  1  0
 18 19  2  0
 18 23  1  0
 19 20  1  0
 20 21  2  0
 22 21  1  0
 23 22  2  0
 24 26  2  0
 24 25  1  0
M  END
$$$$
