PGW.pdb
     RDKit          3D

 26 28  0  0  1  0  0  0  0  0999 V2000
   26.4615  -17.4113  -17.1026 N   0  0  0  0  0  0  0  0  0  0  0  0
   26.8056  -16.8358  -18.3929 C   0  0  0  0  0  0  0  0  0  0  0  0
   28.2459  -16.4424  -18.3425 C   0  0  0  0  0  0  0  0  0  0  0  0
   28.5881  -16.5981  -16.8608 C   0  0  0  0  0  0  0  0  0  0  0  0
   27.7255  -17.7751  -16.4891 C   0  0  1  0  0  0  0  0  0  0  0  0
   27.6021  -17.9527  -15.0212 C   0  0  0  0  0  0  0  0  0  0  0  0
   28.6273  -18.2367  -14.3178 O   0  0  0  0  0  0  0  0  0  0  0  0
   26.3913  -17.8315  -14.2874 N   0  0  0  0  0  0  0  0  0  0  0  0
   26.3730  -17.8303  -12.8530 C   0  0  0  0  0  0  0  0  0  0  0  0
   26.4060  -19.1983  -12.2794 C   0  0  0  0  0  0  0  0  0  0  0  0
   25.8555  -20.1221  -12.9272 O   0  0  0  0  0  0  0  0  0  0  0  0
   27.0214  -19.5233  -11.0451 N   0  0  0  0  0  0  0  0  0  0  0  0
   27.1490  -20.8991  -10.5467 C   0  0  1  0  0  0  0  0  0  0  0  0
   28.1077  -20.9741   -9.4185 C   0  0  0  0  0  0  0  0  0  0  0  0
   27.7050  -20.3465   -8.1488 C   0  0  0  0  0  0  0  0  0  0  0  0
   26.4900  -19.6784   -7.9197 C   0  0  0  0  0  0  0  0  0  0  0  0
   26.4676  -19.2011   -6.6677 N   0  0  0  0  0  0  0  0  0  0  0  0
   27.6318  -19.5441   -6.0869 C   0  0  0  0  0  0  0  0  0  0  0  0
   28.1009  -19.3102   -4.8107 C   0  0  0  0  0  0  0  0  0  0  0  0
   29.3324  -19.7764   -4.4284 C   0  0  0  0  0  0  0  0  0  0  0  0
   30.1233  -20.4883   -5.3165 C   0  0  0  0  0  0  0  0  0  0  0  0
   29.6757  -20.7315   -6.5916 C   0  0  0  0  0  0  0  0  0  0  0  0
   28.4326  -20.2548   -6.9628 C   0  0  0  0  0  0  0  0  0  0  0  0
   25.8488  -21.5374  -10.3622 C   0  0  0  0  0  0  0  0  0  0  0  0
   25.7388  -22.9112  -10.4179 O   0  0  0  0  0  0  0  0  0  0  0  0
   24.8263  -20.8576  -10.1532 O   0  0  0  0  0  0  0  0  0  0  0  0
  2  1  1  0
  3  4  1  0
  3  2  1  0
  4  5  1  0
  5  6  1  1
  5  1  1  0
  6  8  1  0
  7  6  2  0
  8  9  1  0
  9 10  1  0
 10 11  2  0
 10 12  1  0
 12 13  1  0
 13 24  1  0
 13 14  1  1
 15 14  1  0
 15 23  1  0
 16 17  1  0
 16 15  2  0
 17 18  1  0
 18 19  2  0
 18 23  1  0
 19 20  1  0
 20 21  2  0
 22 21  1  0
 23 22  2  0
 24 26  2  0
 24 25  1  0
M  END
$$$$
