PGW.pdb
     RDKit          3D

 26 28  0  0  1  0  0  0  0  0999 V2000
   29.5937  -19.4119  -17.8814 N   0  0  0  0  0  0  0  0  0  0  0  0
   29.9697  -20.1601  -19.0701 C   0  0  0  0  0  0  0  0  0  0  0  0
   28.7304  -20.3847  -19.8734 C   0  0  0  0  0  0  0  0  0  0  0  0
   27.6223  -19.9425  -18.9178 C   0  0  0  0  0  0  0  0  0  0  0  0
   28.3056  -18.8171  -18.1871 C   0  0  1  0  0  0  0  0  0  0  0  0
   27.5770  -18.4049  -16.9620 C   0  0  0  0  0  0  0  0  0  0  0  0
   26.4145  -17.8871  -17.0469 O   0  0  0  0  0  0  0  0  0  0  0  0
   28.0746  -18.5377  -15.6377 N   0  0  0  0  0  0  0  0  0  0  0  0
   27.2568  -18.2642  -14.4913 C   0  0  0  0  0  0  0  0  0  0  0  0
   26.5804  -19.4769  -13.9687 C   0  0  0  0  0  0  0  0  0  0  0  0
   25.9045  -20.1664  -14.7712 O   0  0  0  0  0  0  0  0  0  0  0  0
   26.6521  -19.9024  -12.6190 N   0  0  0  0  0  0  0  0  0  0  0  0
   26.1417  -21.1994  -12.1555 C   0  0  1  0  0  0  0  0  0  0  0  0
   26.8815  -21.6709  -10.9606 C   0  0  0  0  0  0  0  0  0  0  0  0
   26.6549  -20.9475   -9.6984 C   0  0  0  0  0  0  0  0  0  0  0  0
   25.4334  -20.3854   -9.2896 C   0  0  0  0  0  0  0  0  0  0  0  0
   25.5921  -19.7737   -8.1080 N   0  0  0  0  0  0  0  0  0  0  0  0
   26.8790  -19.9274   -7.7465 C   0  0  0  0  0  0  0  0  0  0  0  0
   27.5510  -19.5031   -6.6187 C   0  0  0  0  0  0  0  0  0  0  0  0
   28.8805  -19.7944   -6.4531 C   0  0  0  0  0  0  0  0  0  0  0  0
   29.5685  -20.5181   -7.4144 C   0  0  0  0  0  0  0  0  0  0  0  0
   28.9189  -20.9493   -8.5446 C   0  0  0  0  0  0  0  0  0  0  0  0
   27.5788  -20.6475   -8.6979 C   0  0  0  0  0  0  0  0  0  0  0  0
   24.6831  -21.2221  -12.0902 C   0  0  0  0  0  0  0  0  0  0  0  0
   24.0044  -22.4173  -12.2057 O   0  0  0  0  0  0  0  0  0  0  0  0
   24.0335  -20.1715  -11.9304 O   0  0  0  0  0  0  0  0  0  0  0  0
  2  1  1  0
  3  4  1  0
  3  2  1  0
  4  5  1  0
  5  6  1  1
  5  1  1  0
  6  8  1  0
  7  6  2  0
  8  9  1  0
  9 10  1  0
 10 11  2  0
 10 12  1  0
 12 13  1  0
 13 24  1  0
 13 14  1  1
 15 14  1  0
 15 23  1  0
 16 17  1  0
 16 15  2  0
 17 18  1  0
 18 19  2  0
 18 23  1  0
 19 20  1  0
 20 21  2  0
 22 21  1  0
 23 22  2  0
 24 26  2  0
 24 25  1  0
M  END
$$$$
