PGW.pdb
     RDKit          3D

 26 28  0  0  1  0  0  0  0  0999 V2000
   26.1942  -18.1133  -14.7747 N   0  0  0  0  0  0  0  0  0  0  0  0
   26.6927  -16.7475  -14.7951 C   0  0  0  0  0  0  0  0  0  0  0  0
   28.1299  -16.7850  -14.3890 C   0  0  0  0  0  0  0  0  0  0  0  0
   28.3048  -18.2205  -13.8936 C   0  0  0  0  0  0  0  0  0  0  0  0
   27.3732  -18.9587  -14.8180 C   0  0  1  0  0  0  0  0  0  0  0  0
   27.0862  -20.3397  -14.3577 C   0  0  0  0  0  0  0  0  0  0  0  0
   28.0113  -21.2174  -14.3365 O   0  0  0  0  0  0  0  0  0  0  0  0
   25.8169  -20.8016  -13.9167 N   0  0  0  0  0  0  0  0  0  0  0  0
   25.6025  -22.1643  -13.5233 C   0  0  0  0  0  0  0  0  0  0  0  0
   25.5485  -22.3327  -12.0501 C   0  0  0  0  0  0  0  0  0  0  0  0
   24.8849  -23.2945  -11.5911 O   0  0  0  0  0  0  0  0  0  0  0  0
   26.2008  -21.4730  -11.1318 N   0  0  0  0  0  0  0  0  0  0  0  0
   26.0889  -21.6180   -9.6744 C   0  0  1  0  0  0  0  0  0  0  0  0
   27.3935  -21.3839   -9.0104 C   0  0  0  0  0  0  0  0  0  0  0  0
   27.4708  -20.2712   -8.0493 C   0  0  0  0  0  0  0  0  0  0  0  0
   26.8973  -19.0005   -8.2264 C   0  0  0  0  0  0  0  0  0  0  0  0
   27.1902  -18.2235   -7.1746 N   0  0  0  0  0  0  0  0  0  0  0  0
   27.9340  -18.9586   -6.3279 C   0  0  0  0  0  0  0  0  0  0  0  0
   28.4776  -18.6377   -5.1011 C   0  0  0  0  0  0  0  0  0  0  0  0
   29.1978  -19.5682   -4.3971 C   0  0  0  0  0  0  0  0  0  0  0  0
   29.3903  -20.8428   -4.9062 C   0  0  0  0  0  0  0  0  0  0  0  0
   28.8585  -21.1827   -6.1256 C   0  0  0  0  0  0  0  0  0  0  0  0
   28.1355  -20.2340   -6.8240 C   0  0  0  0  0  0  0  0  0  0  0  0
   24.9306  -20.9069   -9.1408 C   0  0  0  0  0  0  0  0  0  0  0  0
   24.2695  -19.9798   -9.9193 O   0  0  0  0  0  0  0  0  0  0  0  0
   24.5239  -21.1238   -7.9837 O   0  0  0  0  0  0  0  0  0  0  0  0
  2  1  1  0
  3  4  1  0
  3  2  1  0
  4  5  1  0
  5  6  1  1
  5  1  1  0
  6  8  1  0
  7  6  2  0
  8  9  1  0
  9 10  1  0
 10 11  2  0
 10 12  1  0
 12 13  1  0
 13 24  1  0
 13 14  1  1
 15 14  1  0
 15 23  1  0
 16 17  1  0
 16 15  2  0
 17 18  1  0
 18 19  2  0
 18 23  1  0
 19 20  1  0
 20 21  2  0
 22 21  1  0
 23 22  2  0
 24 26  2  0
 24 25  1  0
M  END
$$$$
