PGW.pdb
     RDKit          3D

 26 28  0  0  1  0  0  0  0  0999 V2000
   26.9145  -18.8904  -16.5890 N   0  0  0  0  0  0  0  0  0  0  0  0
   27.3274  -17.5079  -16.4089 C   0  0  0  0  0  0  0  0  0  0  0  0
   28.4617  -17.4980  -15.4369 C   0  0  0  0  0  0  0  0  0  0  0  0
   28.4628  -18.9302  -14.9026 C   0  0  0  0  0  0  0  0  0  0  0  0
   28.0317  -19.6935  -16.1269 C   0  0  1  0  0  0  0  0  0  0  0  0
   27.6266  -21.0872  -15.8187 C   0  0  0  0  0  0  0  0  0  0  0  0
   28.4849  -21.9286  -15.3919 O   0  0  0  0  0  0  0  0  0  0  0  0
   26.3092  -21.6005  -15.9607 N   0  0  0  0  0  0  0  0  0  0  0  0
   25.9470  -22.9001  -15.4735 C   0  0  0  0  0  0  0  0  0  0  0  0
   25.6222  -22.8982  -14.0257 C   0  0  0  0  0  0  0  0  0  0  0  0
   25.0020  -23.8853  -13.5599 O   0  0  0  0  0  0  0  0  0  0  0  0
   25.9704  -21.8493  -13.1389 N   0  0  0  0  0  0  0  0  0  0  0  0
   25.5120  -21.7884  -11.7447 C   0  0  1  0  0  0  0  0  0  0  0  0
   26.6576  -21.7674  -10.8041 C   0  0  0  0  0  0  0  0  0  0  0  0
   26.6004  -20.8027   -9.6932 C   0  0  0  0  0  0  0  0  0  0  0  0
   25.5520  -19.8979   -9.4534 C   0  0  0  0  0  0  0  0  0  0  0  0
   25.8411  -19.1475   -8.3814 N   0  0  0  0  0  0  0  0  0  0  0  0
   27.0434  -19.5448   -7.9262 C   0  0  0  0  0  0  0  0  0  0  0  0
   27.7834  -19.1076   -6.8470 C   0  0  0  0  0  0  0  0  0  0  0  0
   28.9955  -19.6805   -6.5597 C   0  0  0  0  0  0  0  0  0  0  0  0
   29.4950  -20.7055   -7.3477 C   0  0  0  0  0  0  0  0  0  0  0  0
   28.7750  -21.1551   -8.4269 C   0  0  0  0  0  0  0  0  0  0  0  0
   27.5551  -20.5675   -8.7044 C   0  0  0  0  0  0  0  0  0  0  0  0
   24.4722  -20.7813  -11.5536 C   0  0  0  0  0  0  0  0  0  0  0  0
   23.5278  -20.9422  -10.5613 O   0  0  0  0  0  0  0  0  0  0  0  0
   24.4213  -19.7690  -12.2775 O   0  0  0  0  0  0  0  0  0  0  0  0
  2  1  1  0
  3  4  1  0
  3  2  1  0
  4  5  1  0
  5  6  1  1
  5  1  1  0
  6  8  1  0
  7  6  2  0
  8  9  1  0
  9 10  1  0
 10 11  2  0
 10 12  1  0
 12 13  1  0
 13 24  1  0
 13 14  1  1
 15 14  1  0
 15 23  1  0
 16 17  1  0
 16 15  2  0
 17 18  1  0
 18 19  2  0
 18 23  1  0
 19 20  1  0
 20 21  2  0
 22 21  1  0
 23 22  2  0
 24 26  2  0
 24 25  1  0
M  END
$$$$
