PGW.pdb
     RDKit          3D

 26 28  0  0  1  0  0  0  0  0999 V2000
   23.7646  -20.3253  -14.2339 N   0  0  0  0  0  0  0  0  0  0  0  0
   22.6527  -19.4411  -14.5445 C   0  0  0  0  0  0  0  0  0  0  0  0
   23.1509  -18.4074  -15.5010 C   0  0  0  0  0  0  0  0  0  0  0  0
   24.6632  -18.6295  -15.4827 C   0  0  0  0  0  0  0  0  0  0  0  0
   24.7319  -20.1222  -15.2968 C   0  0  1  0  0  0  0  0  0  0  0  0
   26.0872  -20.5892  -14.9139 C   0  0  0  0  0  0  0  0  0  0  0  0
   26.5850  -21.6333  -15.4511 O   0  0  0  0  0  0  0  0  0  0  0  0
   26.9253  -19.9538  -13.9584 N   0  0  0  0  0  0  0  0  0  0  0  0
   27.9892  -20.6555  -13.2999 C   0  0  0  0  0  0  0  0  0  0  0  0
   27.6873  -20.9473  -11.8768 C   0  0  0  0  0  0  0  0  0  0  0  0
   28.5669  -21.5286  -11.1953 O   0  0  0  0  0  0  0  0  0  0  0  0
   26.4663  -20.6090  -11.2424 N   0  0  0  0  0  0  0  0  0  0  0  0
   26.2057  -20.8506   -9.8171 C   0  0  1  0  0  0  0  0  0  0  0  0
   27.2866  -20.2896   -8.9718 C   0  0  0  0  0  0  0  0  0  0  0  0
   27.0464  -20.2325   -7.5202 C   0  0  0  0  0  0  0  0  0  0  0  0
   25.7976  -20.3872   -6.8945 C   0  0  0  0  0  0  0  0  0  0  0  0
   25.9369  -20.2438   -5.5694 N   0  0  0  0  0  0  0  0  0  0  0  0
   27.2382  -20.0025   -5.3268 C   0  0  0  0  0  0  0  0  0  0  0  0
   27.9058  -19.7963   -4.1371 C   0  0  0  0  0  0  0  0  0  0  0  0
   29.2602  -19.5822   -4.1302 C   0  0  0  0  0  0  0  0  0  0  0  0
   29.9776  -19.5695   -5.3161 C   0  0  0  0  0  0  0  0  0  0  0  0
   29.3325  -19.7718   -6.5111 C   0  0  0  0  0  0  0  0  0  0  0  0
   27.9670  -19.9857   -6.5023 C   0  0  0  0  0  0  0  0  0  0  0  0
   24.8313  -20.5232   -9.4486 C   0  0  0  0  0  0  0  0  0  0  0  0
   24.0577  -19.7458  -10.2852 O   0  0  0  0  0  0  0  0  0  0  0  0
   24.3390  -20.9370   -8.3819 O   0  0  0  0  0  0  0  0  0  0  0  0
  2  1  1  0
  3  4  1  0
  3  2  1  0
  4  5  1  0
  5  6  1  1
  5  1  1  0
  6  8  1  0
  7  6  2  0
  8  9  1  0
  9 10  1  0
 10 11  2  0
 10 12  1  0
 12 13  1  0
 13 24  1  0
 13 14  1  1
 15 14  1  0
 15 23  1  0
 16 17  1  0
 16 15  2  0
 17 18  1  0
 18 19  2  0
 18 23  1  0
 19 20  1  0
 20 21  2  0
 22 21  1  0
 23 22  2  0
 24 26  2  0
 24 25  1  0
M  END
$$$$
