PGW.pdb
     RDKit          3D

 26 28  0  0  1  0  0  0  0  0999 V2000
   25.1336  -18.0142  -14.9262 N   0  0  0  0  0  0  0  0  0  0  0  0
   24.4724  -17.2552  -15.9755 C   0  0  0  0  0  0  0  0  0  0  0  0
   25.0400  -17.7026  -17.2830 C   0  0  0  0  0  0  0  0  0  0  0  0
   26.2335  -18.5586  -16.8592 C   0  0  0  0  0  0  0  0  0  0  0  0
   25.7103  -19.1708  -15.5868 C   0  0  1  0  0  0  0  0  0  0  0  0
   26.7793  -19.8017  -14.7740 C   0  0  0  0  0  0  0  0  0  0  0  0
   27.2332  -20.9518  -15.0869 O   0  0  0  0  0  0  0  0  0  0  0  0
   27.3754  -19.2192  -13.6231 N   0  0  0  0  0  0  0  0  0  0  0  0
   28.4466  -19.8623  -12.9184 C   0  0  0  0  0  0  0  0  0  0  0  0
   27.9692  -20.6871  -11.7812 C   0  0  0  0  0  0  0  0  0  0  0  0
   28.5902  -21.7467  -11.5206 O   0  0  0  0  0  0  0  0  0  0  0  0
   26.8553  -20.3501  -10.9729 N   0  0  0  0  0  0  0  0  0  0  0  0
   26.3895  -21.1829   -9.8562 C   0  0  1  0  0  0  0  0  0  0  0  0
   27.4670  -21.3964   -8.8607 C   0  0  0  0  0  0  0  0  0  0  0  0
   27.6863  -20.3332   -7.8660 C   0  0  0  0  0  0  0  0  0  0  0  0
   27.2374  -19.0062   -7.9796 C   0  0  0  0  0  0  0  0  0  0  0  0
   27.6405  -18.3016   -6.9134 N   0  0  0  0  0  0  0  0  0  0  0  0
   28.3338  -19.1375   -6.1190 C   0  0  0  0  0  0  0  0  0  0  0  0
   28.9461  -18.9176   -4.9024 C   0  0  0  0  0  0  0  0  0  0  0  0
   29.5918  -19.9402   -4.2563 C   0  0  0  0  0  0  0  0  0  0  0  0
   29.6392  -21.2079   -4.8146 C   0  0  0  0  0  0  0  0  0  0  0  0
   29.0371  -21.4480   -6.0250 C   0  0  0  0  0  0  0  0  0  0  0  0
   28.3905  -20.4073   -6.6647 C   0  0  0  0  0  0  0  0  0  0  0  0
   25.0909  -20.7458   -9.3517 C   0  0  0  0  0  0  0  0  0  0  0  0
   24.5043  -21.4036   -8.2907 O   0  0  0  0  0  0  0  0  0  0  0  0
   24.4965  -19.7800   -9.8668 O   0  0  0  0  0  0  0  0  0  0  0  0
  2  1  1  0
  3  4  1  0
  3  2  1  0
  4  5  1  0
  5  6  1  1
  5  1  1  0
  6  8  1  0
  7  6  2  0
  8  9  1  0
  9 10  1  0
 10 11  2  0
 10 12  1  0
 12 13  1  0
 13 24  1  0
 13 14  1  1
 15 14  1  0
 15 23  1  0
 16 17  1  0
 16 15  2  0
 17 18  1  0
 18 19  2  0
 18 23  1  0
 19 20  1  0
 20 21  2  0
 22 21  1  0
 23 22  2  0
 24 26  2  0
 24 25  1  0
M  END
$$$$
