CPD.pdb
     RDKit          3D

 22 22  0  0  1  0  0  0  0  0999 V2000
    8.0808  -14.6117   21.4464 N   0  0  0  0  0  0  0  0  0  0  0  0
    7.1555  -14.7643   22.6108 C   0  0  1  0  0  0  0  0  0  0  0  0
    6.7127  -16.2298   22.4792 C   0  0  0  0  0  0  0  0  0  0  0  0
    5.8942  -16.8706   23.9368 S   0  0  0  0  0  0  0  0  0  0  0  0
    7.9505  -14.4746   23.7844 C   0  0  0  0  0  0  0  0  0  0  0  0
    9.1053  -15.0723   23.8600 O   0  0  0  0  0  0  0  0  0  0  0  0
    7.6817  -13.6293   24.9017 N   0  0  0  0  0  0  0  0  0  0  0  0
    6.5815  -12.6981   24.8531 C   0  0  0  0  0  0  0  0  0  0  0  0
    6.3180  -12.3019   26.2514 C   0  0  0  0  0  0  0  0  0  0  0  0
    7.4026  -12.8591   27.1004 C   0  0  0  0  0  0  0  0  0  0  0  0
    8.3524  -13.5395   26.1193 C   0  0  1  0  0  0  0  0  0  0  0  0
    8.7689  -14.8361   26.7494 C   0  0  0  0  0  0  0  0  0  0  0  0
    7.9217  -15.7571   26.7640 O   0  0  0  0  0  0  0  0  0  0  0  0
   10.0424  -15.0778   27.3105 N   0  0  0  0  0  0  0  0  0  0  0  0
   10.3971  -16.3139   27.9881 C   0  0  1  0  0  0  0  0  0  0  0  0
   11.8420  -16.5989   27.5999 C   0  0  0  0  0  0  0  0  0  0  0  0
   11.8550  -17.0238   26.1835 C   0  0  0  0  0  0  0  0  0  0  0  0
   10.8207  -17.0850   25.4949 O   0  0  0  0  0  0  0  0  0  0  0  0
   10.3304  -16.2095   29.4373 C   0  0  0  0  0  0  0  0  0  0  0  0
   10.3546  -17.2867   30.3264 O   0  0  0  0  0  0  0  0  0  0  0  0
   13.0743  -17.3618   25.6150 O   0  0  0  0  0  0  0  0  0  0  0  0
   10.2403  -15.0756   29.9722 O   0  0  0  0  0  0  0  0  0  0  0  0
  2  1  1  6
  2  3  1  0
  3  4  1  0
  5  6  2  0
  5  2  1  0
  7  5  1  0
  8  7  1  0
  9  8  1  0
 10  9  1  0
 10 11  1  0
 11  7  1  0
 11 12  1  1
 12 14  1  0
 13 12  2  0
 14 15  1  0
 15 16  1  1
 15 19  1  0
 16 17  1  0
 17 21  1  0
 18 17  2  0
 19 20  1  0
 22 19  2  0
M  END
$$$$
