CPD.pdb
     RDKit          3D

 22 22  0  0  1  0  0  0  0  0999 V2000
    9.2998  -15.0847   15.5266 N   0  0  0  0  0  0  0  0  0  0  0  0
    8.2657  -15.3513   16.5729 C   0  0  1  0  0  0  0  0  0  0  0  0
    7.9777  -16.8465   16.3662 C   0  0  0  0  0  0  0  0  0  0  0  0
    6.9557  -17.5688   17.6462 S   0  0  0  0  0  0  0  0  0  0  0  0
    8.8913  -15.0236   17.8356 C   0  0  0  0  0  0  0  0  0  0  0  0
   10.0452  -15.5810   18.0686 O   0  0  0  0  0  0  0  0  0  0  0  0
    8.4521  -14.1773   18.8967 N   0  0  0  0  0  0  0  0  0  0  0  0
    7.3044  -13.3240   18.7105 C   0  0  0  0  0  0  0  0  0  0  0  0
    6.8704  -12.9200   20.0632 C   0  0  0  0  0  0  0  0  0  0  0  0
    7.8941  -13.3861   21.0340 C   0  0  0  0  0  0  0  0  0  0  0  0
    8.9840  -14.0191   20.1745 C   0  0  1  0  0  0  0  0  0  0  0  0
    9.4161  -15.2722   20.8777 C   0  0  0  0  0  0  0  0  0  0  0  0
    8.7169  -16.2941   20.6958 O   0  0  0  0  0  0  0  0  0  0  0  0
   10.5514  -15.3678   21.7126 N   0  0  0  0  0  0  0  0  0  0  0  0
   10.9370  -16.5874   22.4030 C   0  0  1  0  0  0  0  0  0  0  0  0
   12.4480  -16.5052   22.5758 C   0  0  0  0  0  0  0  0  0  0  0  0
   12.8903  -17.7273   23.2812 C   0  0  0  0  0  0  0  0  0  0  0  0
   12.7536  -18.8649   22.7965 O   0  0  0  0  0  0  0  0  0  0  0  0
   10.3370  -16.7104   23.7222 C   0  0  0  0  0  0  0  0  0  0  0  0
   10.1331  -17.9102   24.4079 O   0  0  0  0  0  0  0  0  0  0  0  0
   13.4798  -17.5833   24.5286 O   0  0  0  0  0  0  0  0  0  0  0  0
    9.9553  -15.6765   24.3269 O   0  0  0  0  0  0  0  0  0  0  0  0
  2  1  1  6
  2  3  1  0
  3  4  1  0
  5  6  2  0
  5  2  1  0
  7  5  1  0
  8  7  1  0
  9  8  1  0
 10  9  1  0
 10 11  1  0
 11  7  1  0
 11 12  1  1
 12 14  1  0
 13 12  2  0
 14 15  1  0
 15 16  1  1
 15 19  1  0
 16 17  1  0
 17 21  1  0
 18 17  2  0
 19 20  1  0
 22 19  2  0
M  END
$$$$
