CPD.pdb
     RDKit          3D

 22 22  0  0  1  0  0  0  0  0999 V2000
    9.8379  -15.7251   15.9672 N   0  0  0  0  0  0  0  0  0  0  0  0
    8.6965  -15.8028   16.9298 C   0  0  1  0  0  0  0  0  0  0  0  0
    8.3473  -17.2988   16.8937 C   0  0  0  0  0  0  0  0  0  0  0  0
    7.1766  -17.7977   18.1529 S   0  0  0  0  0  0  0  0  0  0  0  0
    9.2176  -15.3326   18.1951 C   0  0  0  0  0  0  0  0  0  0  0  0
   10.3227  -15.8868   18.6048 O   0  0  0  0  0  0  0  0  0  0  0  0
    8.7176  -14.3450   19.0949 N   0  0  0  0  0  0  0  0  0  0  0  0
    7.6856  -13.4340   18.6647 C   0  0  0  0  0  0  0  0  0  0  0  0
    7.1124  -12.8532   19.8959 C   0  0  0  0  0  0  0  0  0  0  0  0
    7.9516  -13.2855   21.0433 C   0  0  0  0  0  0  0  0  0  0  0  0
    9.0860  -14.0882   20.4136 C   0  0  1  0  0  0  0  0  0  0  0  0
    9.3069  -15.2856   21.2904 C   0  0  0  0  0  0  0  0  0  0  0  0
    8.4953  -16.2311   21.1737 O   0  0  0  0  0  0  0  0  0  0  0  0
   10.3641  -15.4107   22.2188 N   0  0  0  0  0  0  0  0  0  0  0  0
   10.5174  -16.5497   23.1088 C   0  0  1  0  0  0  0  0  0  0  0  0
   11.9947  -16.5914   23.4770 C   0  0  0  0  0  0  0  0  0  0  0  0
   12.7706  -16.7095   22.2237 C   0  0  0  0  0  0  0  0  0  0  0  0
   12.3915  -17.4081   21.2666 O   0  0  0  0  0  0  0  0  0  0  0  0
    9.7487  -16.4216   24.3369 C   0  0  0  0  0  0  0  0  0  0  0  0
    9.0287  -15.2889   24.7244 O   0  0  0  0  0  0  0  0  0  0  0  0
   13.9631  -16.0076   22.1260 O   0  0  0  0  0  0  0  0  0  0  0  0
    9.7056  -17.3852   25.1429 O   0  0  0  0  0  0  0  0  0  0  0  0
  2  1  1  6
  2  3  1  0
  3  4  1  0
  5  6  2  0
  5  2  1  0
  7  5  1  0
  8  7  1  0
  9  8  1  0
 10  9  1  0
 10 11  1  0
 11  7  1  0
 11 12  1  1
 12 14  1  0
 13 12  2  0
 14 15  1  0
 15 16  1  1
 15 19  1  0
 16 17  1  0
 17 21  1  0
 18 17  2  0
 19 20  1  0
 22 19  2  0
M  END
$$$$
