CPD.pdb
     RDKit          3D

 22 22  0  0  1  0  0  0  0  0999 V2000
    9.6586  -15.1714   14.9189 N   0  0  0  0  0  0  0  0  0  0  0  0
    8.6127  -15.1183   15.9860 C   0  0  1  0  0  0  0  0  0  0  0  0
    8.1176  -16.5725   16.0230 C   0  0  0  0  0  0  0  0  0  0  0  0
    8.9775  -17.5981   17.2120 S   0  0  0  0  0  0  0  0  0  0  0  0
    9.2960  -14.6802   17.1838 C   0  0  0  0  0  0  0  0  0  0  0  0
   10.5397  -15.0476   17.3046 O   0  0  0  0  0  0  0  0  0  0  0  0
    8.8321  -13.8987   18.2833 N   0  0  0  0  0  0  0  0  0  0  0  0
    7.5525  -13.2374   18.2089 C   0  0  0  0  0  0  0  0  0  0  0  0
    7.1906  -12.8880   19.5976 C   0  0  0  0  0  0  0  0  0  0  0  0
    8.3618  -13.1756   20.4654 C   0  0  0  0  0  0  0  0  0  0  0  0
    9.4511  -13.6423   19.5047 C   0  0  1  0  0  0  0  0  0  0  0  0
   10.1387  -14.8031   20.1614 C   0  0  0  0  0  0  0  0  0  0  0  0
    9.5973  -15.9250   20.0404 O   0  0  0  0  0  0  0  0  0  0  0  0
   11.3454  -14.7081   20.8893 N   0  0  0  0  0  0  0  0  0  0  0  0
   11.9719  -15.8400   21.5519 C   0  0  1  0  0  0  0  0  0  0  0  0
   13.4534  -15.4987   21.6422 C   0  0  0  0  0  0  0  0  0  0  0  0
   13.9581  -15.3041   20.2659 C   0  0  0  0  0  0  0  0  0  0  0  0
   13.5825  -16.0075   19.3110 O   0  0  0  0  0  0  0  0  0  0  0  0
   11.4749  -16.0576   22.9014 C   0  0  0  0  0  0  0  0  0  0  0  0
   10.5795  -15.2244   23.5764 O   0  0  0  0  0  0  0  0  0  0  0  0
   14.8832  -14.2940   20.0469 O   0  0  0  0  0  0  0  0  0  0  0  0
   11.8605  -17.0645   23.5477 O   0  0  0  0  0  0  0  0  0  0  0  0
  2  1  1  6
  2  3  1  0
  3  4  1  0
  5  6  2  0
  5  2  1  0
  7  5  1  0
  8  7  1  0
  9  8  1  0
 10  9  1  0
 10 11  1  0
 11  7  1  0
 11 12  1  1
 12 14  1  0
 13 12  2  0
 14 15  1  0
 15 16  1  1
 15 19  1  0
 16 17  1  0
 17 21  1  0
 18 17  2  0
 19 20  1  0
 22 19  2  0
M  END
$$$$
