CPD.pdb
     RDKit          3D

 22 22  0  0  1  0  0  0  0  0999 V2000
    5.8748  -17.1701   25.7732 N   0  0  0  0  0  0  0  0  0  0  0  0
    6.2724  -15.8385   25.2218 C   0  0  1  0  0  0  0  0  0  0  0  0
    6.7566  -15.1014   26.4802 C   0  0  0  0  0  0  0  0  0  0  0  0
    7.1527  -13.3782   26.2004 S   0  0  0  0  0  0  0  0  0  0  0  0
    7.3040  -16.1105   24.2444 C   0  0  0  0  0  0  0  0  0  0  0  0
    8.2123  -16.9771   24.5914 O   0  0  0  0  0  0  0  0  0  0  0  0
    7.5053  -15.5798   22.9357 N   0  0  0  0  0  0  0  0  0  0  0  0
    6.4657  -14.8049   22.3041 C   0  0  0  0  0  0  0  0  0  0  0  0
    7.1147  -14.0745   21.1964 C   0  0  0  0  0  0  0  0  0  0  0  0
    8.5052  -14.5806   21.0629 C   0  0  0  0  0  0  0  0  0  0  0  0
    8.6139  -15.6942   22.1000 C   0  0  1  0  0  0  0  0  0  0  0  0
    9.9583  -15.5494   22.7507 C   0  0  0  0  0  0  0  0  0  0  0  0
   10.1243  -14.5561   23.4938 O   0  0  0  0  0  0  0  0  0  0  0  0
   11.0275  -16.4571   22.5838 N   0  0  0  0  0  0  0  0  0  0  0  0
   12.3564  -16.2380   23.1306 C   0  0  1  0  0  0  0  0  0  0  0  0
   12.2599  -16.5943   24.6082 C   0  0  0  0  0  0  0  0  0  0  0  0
   11.8147  -18.0011   24.7067 C   0  0  0  0  0  0  0  0  0  0  0  0
   11.4636  -18.6618   23.7127 O   0  0  0  0  0  0  0  0  0  0  0  0
   13.3696  -17.0882   22.5256 C   0  0  0  0  0  0  0  0  0  0  0  0
   13.1274  -18.0792   21.5713 O   0  0  0  0  0  0  0  0  0  0  0  0
   11.7950  -18.5929   25.9611 O   0  0  0  0  0  0  0  0  0  0  0  0
   14.5727  -16.9535   22.8642 O   0  0  0  0  0  0  0  0  0  0  0  0
  2  1  1  1
  2  3  1  0
  3  4  1  0
  5  6  2  0
  5  2  1  0
  7  5  1  0
  8  7  1  0
  9  8  1  0
 10  9  1  0
 10 11  1  0
 11  7  1  0
 11 12  1  1
 12 14  1  0
 13 12  2  0
 14 15  1  0
 15 16  1  1
 15 19  1  0
 16 17  1  0
 17 21  1  0
 18 17  2  0
 19 20  1  0
 22 19  2  0
M  END
$$$$
