CPD.pdb
     RDKit          3D

 22 22  0  0  1  0  0  0  0  0999 V2000
    5.7883  -17.9271   24.3336 N   0  0  0  0  0  0  0  0  0  0  0  0
    6.3811  -16.5563   24.2630 C   0  0  1  0  0  0  0  0  0  0  0  0
    6.9039  -16.3584   25.6943 C   0  0  0  0  0  0  0  0  0  0  0  0
    7.5491  -14.7180   26.0071 S   0  0  0  0  0  0  0  0  0  0  0  0
    7.4086  -16.6250   23.2467 C   0  0  0  0  0  0  0  0  0  0  0  0
    8.2115  -17.6487   23.3075 O   0  0  0  0  0  0  0  0  0  0  0  0
    7.7038  -15.7434   22.1647 N   0  0  0  0  0  0  0  0  0  0  0  0
    6.7433  -14.7441   21.7662 C   0  0  0  0  0  0  0  0  0  0  0  0
    7.4868  -13.7641   20.9487 C   0  0  0  0  0  0  0  0  0  0  0  0
    8.8500  -14.3041   20.7087 C   0  0  0  0  0  0  0  0  0  0  0  0
    8.8429  -15.6812   21.3652 C   0  0  1  0  0  0  0  0  0  0  0  0
   10.1604  -15.8324   22.0674 C   0  0  0  0  0  0  0  0  0  0  0  0
   10.3380  -15.1398   23.0946 O   0  0  0  0  0  0  0  0  0  0  0  0
   11.1922  -16.7017   21.6495 N   0  0  0  0  0  0  0  0  0  0  0  0
   12.4631  -16.8277   22.3437 C   0  0  1  0  0  0  0  0  0  0  0  0
   12.5269  -18.2689   22.8320 C   0  0  0  0  0  0  0  0  0  0  0  0
   12.1851  -18.2752   24.2707 C   0  0  0  0  0  0  0  0  0  0  0  0
   11.9119  -17.2355   24.8970 O   0  0  0  0  0  0  0  0  0  0  0  0
   13.6102  -16.5913   21.4812 C   0  0  0  0  0  0  0  0  0  0  0  0
   14.8468  -16.0949   21.9004 O   0  0  0  0  0  0  0  0  0  0  0  0
   12.1710  -19.4942   24.9326 O   0  0  0  0  0  0  0  0  0  0  0  0
   13.5211  -16.8386   20.2520 O   0  0  0  0  0  0  0  0  0  0  0  0
  2  1  1  1
  2  3  1  0
  3  4  1  0
  5  6  2  0
  5  2  1  0
  7  5  1  0
  8  7  1  0
  9  8  1  0
 10  9  1  0
 10 11  1  0
 11  7  1  0
 11 12  1  1
 12 14  1  0
 13 12  2  0
 14 15  1  0
 15 16  1  6
 15 19  1  0
 16 17  1  0
 17 21  1  0
 18 17  2  0
 19 20  1  0
 22 19  2  0
M  END
$$$$
