CPD.pdb
     RDKit          3D

 22 22  0  0  1  0  0  0  0  0999 V2000
    9.5960  -15.5144   14.7947 N   0  0  0  0  0  0  0  0  0  0  0  0
    8.4765  -15.3263   15.7677 C   0  0  1  0  0  0  0  0  0  0  0  0
    7.8617  -16.7334   15.8257 C   0  0  0  0  0  0  0  0  0  0  0  0
    8.8079  -17.8950   16.8057 S   0  0  0  0  0  0  0  0  0  0  0  0
    9.0961  -14.8846   16.9982 C   0  0  0  0  0  0  0  0  0  0  0  0
   10.2859  -15.3534   17.2449 O   0  0  0  0  0  0  0  0  0  0  0  0
    8.6174  -14.0051   18.0144 N   0  0  0  0  0  0  0  0  0  0  0  0
    7.4484  -13.1952   17.7750 C   0  0  0  0  0  0  0  0  0  0  0  0
    6.9836  -12.7442   19.1024 C   0  0  0  0  0  0  0  0  0  0  0  0
    8.0063  -13.1360   20.1064 C   0  0  0  0  0  0  0  0  0  0  0  0
    9.1263  -13.7744   19.2905 C   0  0  1  0  0  0  0  0  0  0  0  0
    9.5843  -14.9815   20.0549 C   0  0  0  0  0  0  0  0  0  0  0  0
    8.9106  -16.0275   19.9196 O   0  0  0  0  0  0  0  0  0  0  0  0
   10.7171  -15.0095   20.8982 N   0  0  0  0  0  0  0  0  0  0  0  0
   11.1021  -16.1706   21.6833 C   0  0  1  0  0  0  0  0  0  0  0  0
   12.5909  -16.0080   21.9602 C   0  0  0  0  0  0  0  0  0  0  0  0
   13.0337  -17.1736   22.7552 C   0  0  0  0  0  0  0  0  0  0  0  0
   12.3145  -18.1730   22.9331 O   0  0  0  0  0  0  0  0  0  0  0  0
   10.4108  -16.2505   22.9605 C   0  0  0  0  0  0  0  0  0  0  0  0
   10.2226  -17.4173   23.7053 O   0  0  0  0  0  0  0  0  0  0  0  0
   14.3021  -17.1371   23.3158 O   0  0  0  0  0  0  0  0  0  0  0  0
    9.9266  -15.2073   23.4680 O   0  0  0  0  0  0  0  0  0  0  0  0
  2  1  1  6
  2  3  1  0
  3  4  1  0
  5  6  2  0
  5  2  1  0
  7  5  1  0
  8  7  1  0
  9  8  1  0
 10  9  1  0
 10 11  1  0
 11  7  1  0
 11 12  1  1
 12 14  1  0
 13 12  2  0
 14 15  1  0
 15 16  1  1
 15 19  1  0
 16 17  1  0
 17 21  1  0
 18 17  2  0
 19 20  1  0
 22 19  2  0
M  END
$$$$
