CPD.pdb
     RDKit          3D

 22 22  0  0  1  0  0  0  0  0999 V2000
    6.1019  -15.7512   26.8880 N   0  0  0  0  0  0  0  0  0  0  0  0
    6.7282  -14.6601   26.0802 C   0  0  1  0  0  0  0  0  0  0  0  0
    7.6840  -14.0162   27.0966 C   0  0  0  0  0  0  0  0  0  0  0  0
    8.8291  -12.8469   26.3709 S   0  0  0  0  0  0  0  0  0  0  0  0
    7.3797  -15.3189   24.9689 C   0  0  0  0  0  0  0  0  0  0  0  0
    8.0639  -16.3897   25.2548 O   0  0  0  0  0  0  0  0  0  0  0  0
    7.4053  -14.9901   23.5810 N   0  0  0  0  0  0  0  0  0  0  0  0
    6.5226  -13.9732   23.0645 C   0  0  0  0  0  0  0  0  0  0  0  0
    7.0699  -13.5855   21.7485 C   0  0  0  0  0  0  0  0  0  0  0  0
    8.1706  -14.5251   21.4122 C   0  0  0  0  0  0  0  0  0  0  0  0
    8.1917  -15.5258   22.5636 C   0  0  1  0  0  0  0  0  0  0  0  0
    9.6341  -15.7736   22.8948 C   0  0  0  0  0  0  0  0  0  0  0  0
   10.2106  -14.9125   23.5965 O   0  0  0  0  0  0  0  0  0  0  0  0
   10.3659  -16.9066   22.4754 N   0  0  0  0  0  0  0  0  0  0  0  0
   11.7516  -17.1458   22.8435 C   0  0  1  0  0  0  0  0  0  0  0  0
   11.7518  -18.4503   23.6296 C   0  0  0  0  0  0  0  0  0  0  0  0
   13.1317  -18.6938   24.1023 C   0  0  0  0  0  0  0  0  0  0  0  0
   13.7179  -19.7764   23.9233 O   0  0  0  0  0  0  0  0  0  0  0  0
   12.6269  -17.3106   21.6936 C   0  0  0  0  0  0  0  0  0  0  0  0
   13.9179  -16.7891   21.5802 O   0  0  0  0  0  0  0  0  0  0  0  0
   13.7844  -17.6662   24.7672 O   0  0  0  0  0  0  0  0  0  0  0  0
   12.2253  -17.9669   20.6996 O   0  0  0  0  0  0  0  0  0  0  0  0
  2  1  1  1
  2  3  1  0
  3  4  1  0
  5  6  2  0
  5  2  1  0
  7  5  1  0
  8  7  1  0
  9  8  1  0
 10  9  1  0
 10 11  1  0
 11  7  1  0
 11 12  1  1
 12 14  1  0
 13 12  2  0
 14 15  1  0
 15 16  1  1
 15 19  1  0
 16 17  1  0
 17 21  1  0
 18 17  2  0
 19 20  1  0
 22 19  2  0
M  END
$$$$
