CPD.pdb
     RDKit          3D

 22 22  0  0  1  0  0  0  0  0999 V2000
    6.6539  -17.1280   22.0780 N   0  0  0  0  0  0  0  0  0  0  0  0
    7.2451  -15.7794   22.3373 C   0  0  1  0  0  0  0  0  0  0  0  0
    7.9715  -15.9988   23.6735 C   0  0  0  0  0  0  0  0  0  0  0  0
    8.3672  -14.4819   24.5380 S   0  0  0  0  0  0  0  0  0  0  0  0
    8.1141  -15.5090   21.2126 C   0  0  0  0  0  0  0  0  0  0  0  0
    9.0429  -16.3911   20.9769 O   0  0  0  0  0  0  0  0  0  0  0  0
    8.1323  -14.4161   20.2959 N   0  0  0  0  0  0  0  0  0  0  0  0
    7.0045  -13.5203   20.2195 C   0  0  0  0  0  0  0  0  0  0  0  0
    7.4890  -12.3100   19.5252 C   0  0  0  0  0  0  0  0  0  0  0  0
    8.8594  -12.5851   19.0214 C   0  0  0  0  0  0  0  0  0  0  0  0
    9.1240  -14.0412   19.3923 C   0  0  1  0  0  0  0  0  0  0  0  0
   10.5389  -14.1111   19.8869 C   0  0  0  0  0  0  0  0  0  0  0  0
   10.7324  -13.8352   21.0922 O   0  0  0  0  0  0  0  0  0  0  0  0
   11.6465  -14.4720   19.0881 N   0  0  0  0  0  0  0  0  0  0  0  0
   13.0065  -14.5532   19.5949 C   0  0  1  0  0  0  0  0  0  0  0  0
   13.0376  -15.7757   20.5027 C   0  0  0  0  0  0  0  0  0  0  0  0
   14.4180  -15.9270   21.0113 C   0  0  0  0  0  0  0  0  0  0  0  0
   15.3308  -15.1368   20.7113 O   0  0  0  0  0  0  0  0  0  0  0  0
   13.9958  -14.7436   18.5458 C   0  0  0  0  0  0  0  0  0  0  0  0
   15.3080  -14.2654   18.5770 O   0  0  0  0  0  0  0  0  0  0  0  0
   14.6890  -16.9942   21.8551 O   0  0  0  0  0  0  0  0  0  0  0  0
   13.6832  -15.3827   17.5095 O   0  0  0  0  0  0  0  0  0  0  0  0
  2  1  1  6
  2  3  1  0
  3  4  1  0
  5  6  2  0
  5  2  1  0
  7  5  1  0
  8  7  1  0
  9  8  1  0
 10  9  1  0
 10 11  1  0
 11  7  1  0
 11 12  1  1
 12 14  1  0
 13 12  2  0
 14 15  1  0
 15 16  1  1
 15 19  1  0
 16 17  1  0
 17 21  1  0
 18 17  2  0
 19 20  1  0
 22 19  2  0
M  END
$$$$
