CPD.pdb
     RDKit          3D

 22 22  0  0  1  0  0  0  0  0999 V2000
    5.7193  -18.8771   23.9232 N   0  0  0  0  0  0  0  0  0  0  0  0
    6.2973  -17.5287   24.2112 C   0  0  1  0  0  0  0  0  0  0  0  0
    6.8163  -17.7018   25.6471 C   0  0  0  0  0  0  0  0  0  0  0  0
    7.6705  -16.2635   26.2846 S   0  0  0  0  0  0  0  0  0  0  0  0
    7.3266  -17.3221   23.2157 C   0  0  0  0  0  0  0  0  0  0  0  0
    8.0479  -18.3621   22.9083 O   0  0  0  0  0  0  0  0  0  0  0  0
    7.6995  -16.1479   22.4964 N   0  0  0  0  0  0  0  0  0  0  0  0
    6.7818  -15.0394   22.4003 C   0  0  0  0  0  0  0  0  0  0  0  0
    7.5888  -13.8743   21.9845 C   0  0  0  0  0  0  0  0  0  0  0  0
    8.9535  -14.3556   21.6474 C   0  0  0  0  0  0  0  0  0  0  0  0
    8.8835  -15.8702   21.8172 C   0  0  1  0  0  0  0  0  0  0  0  0
   10.1555  -16.2887   22.4942 C   0  0  0  0  0  0  0  0  0  0  0  0
   10.2710  -16.0063   23.7080 O   0  0  0  0  0  0  0  0  0  0  0  0
   11.2098  -16.9784   21.8556 N   0  0  0  0  0  0  0  0  0  0  0  0
   12.3811  -17.4770   22.5573 C   0  0  1  0  0  0  0  0  0  0  0  0
   12.9207  -18.6173   21.7039 C   0  0  0  0  0  0  0  0  0  0  0  0
   13.0718  -18.1157   20.3210 C   0  0  0  0  0  0  0  0  0  0  0  0
   13.8902  -17.2292   20.0176 O   0  0  0  0  0  0  0  0  0  0  0  0
   13.4309  -16.4797   22.6954 C   0  0  0  0  0  0  0  0  0  0  0  0
   14.5444  -16.5899   23.5317 O   0  0  0  0  0  0  0  0  0  0  0  0
   12.2648  -18.6656   19.3358 O   0  0  0  0  0  0  0  0  0  0  0  0
   13.3663  -15.4171   22.0270 O   0  0  0  0  0  0  0  0  0  0  0  0
  2  1  1  6
  2  3  1  0
  3  4  1  0
  5  6  2  0
  5  2  1  0
  7  5  1  0
  8  7  1  0
  9  8  1  0
 10  9  1  0
 10 11  1  0
 11  7  1  0
 11 12  1  1
 12 14  1  0
 13 12  2  0
 14 15  1  0
 15 16  1  6
 15 19  1  0
 16 17  1  0
 17 21  1  0
 18 17  2  0
 19 20  1  0
 22 19  2  0
M  END
$$$$
