CPD.pdb
     RDKit          3D

 22 22  0  0  1  0  0  0  0  0999 V2000
    7.3670  -18.5388   18.6597 N   0  0  0  0  0  0  0  0  0  0  0  0
    6.8345  -17.5255   19.6214 C   0  0  1  0  0  0  0  0  0  0  0  0
    6.5085  -18.3890   20.8499 C   0  0  0  0  0  0  0  0  0  0  0  0
    7.9033  -19.3293   21.4624 S   0  0  0  0  0  0  0  0  0  0  0  0
    7.9040  -16.5711   19.8182 C   0  0  0  0  0  0  0  0  0  0  0  0
    9.1165  -17.0374   19.7258 O   0  0  0  0  0  0  0  0  0  0  0  0
    7.8600  -15.1744   20.1052 N   0  0  0  0  0  0  0  0  0  0  0  0
    6.5924  -14.4883   20.1559 C   0  0  0  0  0  0  0  0  0  0  0  0
    6.8426  -13.2171   20.8652 C   0  0  0  0  0  0  0  0  0  0  0  0
    8.3094  -13.0769   21.0562 C   0  0  0  0  0  0  0  0  0  0  0  0
    8.9094  -14.2942   20.3590 C   0  0  1  0  0  0  0  0  0  0  0  0
   10.0078  -14.8027   21.2459 C   0  0  0  0  0  0  0  0  0  0  0  0
   11.1341  -14.2735   21.1134 O   0  0  0  0  0  0  0  0  0  0  0  0
    9.8468  -15.8211   22.2114 N   0  0  0  0  0  0  0  0  0  0  0  0
   10.8943  -16.2192   23.1372 C   0  0  1  0  0  0  0  0  0  0  0  0
   10.2151  -17.1021   24.1758 C   0  0  0  0  0  0  0  0  0  0  0  0
   11.2391  -17.5124   25.1607 C   0  0  0  0  0  0  0  0  0  0  0  0
   12.3478  -17.9644   24.8227 O   0  0  0  0  0  0  0  0  0  0  0  0
   11.9499  -16.9949   22.5050 C   0  0  0  0  0  0  0  0  0  0  0  0
   11.7558  -18.1365   21.7237 O   0  0  0  0  0  0  0  0  0  0  0  0
   10.9379  -17.3807   26.5083 O   0  0  0  0  0  0  0  0  0  0  0  0
   13.1480  -16.6437   22.6518 O   0  0  0  0  0  0  0  0  0  0  0  0
  2  1  1  6
  2  3  1  0
  3  4  1  0
  5  6  2  0
  5  2  1  0
  7  5  1  0
  8  7  1  0
  9  8  1  0
 10  9  1  0
 10 11  1  0
 11  7  1  0
 11 12  1  1
 12 14  1  0
 13 12  2  0
 14 15  1  0
 15 16  1  1
 15 19  1  0
 16 17  1  0
 17 21  1  0
 18 17  2  0
 19 20  1  0
 22 19  2  0
M  END
$$$$
