CPD.pdb
     RDKit          3D

 22 22  0  0  1  0  0  0  0  0999 V2000
    9.9399  -15.5794   15.6015 N   0  0  0  0  0  0  0  0  0  0  0  0
    8.7837  -15.6278   16.5482 C   0  0  1  0  0  0  0  0  0  0  0  0
    8.3501  -17.0988   16.4505 C   0  0  0  0  0  0  0  0  0  0  0  0
    7.2646  -17.6212   17.7748 S   0  0  0  0  0  0  0  0  0  0  0  0
    9.3143  -15.2368   17.8361 C   0  0  0  0  0  0  0  0  0  0  0  0
   10.4198  -15.8187   18.2045 O   0  0  0  0  0  0  0  0  0  0  0  0
    8.8238  -14.3036   18.7972 N   0  0  0  0  0  0  0  0  0  0  0  0
    7.7796  -13.3771   18.4348 C   0  0  0  0  0  0  0  0  0  0  0  0
    7.2237  -12.8689   19.7054 C   0  0  0  0  0  0  0  0  0  0  0  0
    8.0844  -13.3581   20.8133 C   0  0  0  0  0  0  0  0  0  0  0  0
    9.2126  -14.1174   20.1218 C   0  0  1  0  0  0  0  0  0  0  0  0
    9.4550  -15.3599   20.9275 C   0  0  0  0  0  0  0  0  0  0  0  0
    8.5853  -16.2573   20.8608 O   0  0  0  0  0  0  0  0  0  0  0  0
   10.5919  -15.5768   21.7371 N   0  0  0  0  0  0  0  0  0  0  0  0
   10.8362  -16.8146   22.4590 C   0  0  1  0  0  0  0  0  0  0  0  0
   12.1973  -17.3080   21.9860 C   0  0  0  0  0  0  0  0  0  0  0  0
   13.1753  -16.2214   22.2087 C   0  0  0  0  0  0  0  0  0  0  0  0
   13.3989  -15.3395   21.3602 O   0  0  0  0  0  0  0  0  0  0  0  0
   10.8975  -16.6316   23.9006 C   0  0  0  0  0  0  0  0  0  0  0  0
   10.6993  -15.4217   24.5702 O   0  0  0  0  0  0  0  0  0  0  0  0
   13.8599  -16.1970   23.4150 O   0  0  0  0  0  0  0  0  0  0  0  0
   11.1493  -17.6173   24.6390 O   0  0  0  0  0  0  0  0  0  0  0  0
  2  1  1  6
  2  3  1  0
  3  4  1  0
  5  6  2  0
  5  2  1  0
  7  5  1  0
  8  7  1  0
  9  8  1  0
 10  9  1  0
 10 11  1  0
 11  7  1  0
 11 12  1  1
 12 14  1  0
 13 12  2  0
 14 15  1  0
 15 16  1  6
 15 19  1  0
 16 17  1  0
 17 21  1  0
 18 17  2  0
 19 20  1  0
 22 19  2  0
M  END
$$$$
