CPD.pdb
     RDKit          3D

 22 22  0  0  1  0  0  0  0  0999 V2000
    5.3541  -13.9549   26.3752 N   0  0  0  0  0  0  0  0  0  0  0  0
    6.4958  -13.2954   25.6705 C   0  0  1  0  0  0  0  0  0  0  0  0
    7.3409  -12.7763   26.8442 C   0  0  0  0  0  0  0  0  0  0  0  0
    7.8935  -11.0853   26.6440 S   0  0  0  0  0  0  0  0  0  0  0  0
    7.1246  -14.3344   24.8841 C   0  0  0  0  0  0  0  0  0  0  0  0
    7.5297  -15.3859   25.5373 O   0  0  0  0  0  0  0  0  0  0  0  0
    7.3865  -14.4080   23.4837 N   0  0  0  0  0  0  0  0  0  0  0  0
    6.7790  -13.4570   22.5856 C   0  0  0  0  0  0  0  0  0  0  0  0
    7.5509  -13.5297   21.3285 C   0  0  0  0  0  0  0  0  0  0  0  0
    8.4935  -14.6736   21.4320 C   0  0  0  0  0  0  0  0  0  0  0  0
    8.1835  -15.3105   22.7832 C   0  0  1  0  0  0  0  0  0  0  0  0
    9.5017  -15.6619   23.4082 C   0  0  0  0  0  0  0  0  0  0  0  0
    9.9894  -14.8315   24.2075 O   0  0  0  0  0  0  0  0  0  0  0  0
   10.2095  -16.8585   23.1584 N   0  0  0  0  0  0  0  0  0  0  0  0
   11.4858  -17.1775   23.7766 C   0  0  1  0  0  0  0  0  0  0  0  0
   11.3126  -18.5587   24.3947 C   0  0  0  0  0  0  0  0  0  0  0  0
   12.5968  -18.9384   25.0219 C   0  0  0  0  0  0  0  0  0  0  0  0
   13.3233  -19.8387   24.5645 O   0  0  0  0  0  0  0  0  0  0  0  0
   12.5813  -17.2435   22.8221 C   0  0  0  0  0  0  0  0  0  0  0  0
   12.4530  -17.5516   21.4656 O   0  0  0  0  0  0  0  0  0  0  0  0
   12.9935  -18.2545   26.1617 O   0  0  0  0  0  0  0  0  0  0  0  0
   13.7546  -17.0136   23.2104 O   0  0  0  0  0  0  0  0  0  0  0  0
  2  1  1  1
  2  3  1  0
  3  4  1  0
  5  6  2  0
  5  2  1  0
  7  5  1  0
  8  7  1  0
  9  8  1  0
 10  9  1  0
 10 11  1  0
 11  7  1  0
 11 12  1  1
 12 14  1  0
 13 12  2  0
 14 15  1  0
 15 16  1  6
 15 19  1  0
 16 17  1  0
 17 21  1  0
 18 17  2  0
 19 20  1  0
 22 19  2  0
M  END
$$$$
