FYM.pdb
     RDKit          3D

 32 33  0  0  1  0  0  0  0  0999 V2000
    6.2686  -18.5822   21.4293 N   0  0  0  0  0  0  0  0  0  0  0  0
    6.6136  -17.3844   22.1705 C   0  0  1  0  0  0  0  0  0  0  0  0
    5.9623  -17.4807   23.5328 C   0  0  0  0  0  0  0  0  0  0  0  0
    6.2477  -16.2829   24.3578 C   0  0  0  0  0  0  0  0  0  0  0  0
    6.1460  -15.0225   23.8066 C   0  0  0  0  0  0  0  0  0  0  0  0
    6.4038  -13.8667   24.5420 C   0  0  0  0  0  0  0  0  0  0  0  0
    6.7695  -14.0164   25.8577 C   0  0  0  0  0  0  0  0  0  0  0  0
    6.8825  -15.2659   26.4471 C   0  0  0  0  0  0  0  0  0  0  0  0
    6.6147  -16.3792   25.6699 C   0  0  0  0  0  0  0  0  0  0  0  0
    8.0739  -17.3062   22.3424 C   0  0  0  0  0  0  0  0  0  0  0  0
    8.7383  -18.3684   22.4634 O   0  0  0  0  0  0  0  0  0  0  0  0
    7.5962  -13.6878   17.0441 O   0  0  0  0  0  0  0  0  0  0  0  0
    8.3338  -13.9180   18.1974 C   0  0  0  0  0  0  0  0  0  0  0  0
    8.1820  -13.1006   19.2977 C   0  0  0  0  0  0  0  0  0  0  0  0
    8.9162  -13.3355   20.4356 C   0  0  0  0  0  0  0  0  0  0  0  0
    9.7976  -14.3813   20.4755 C   0  0  0  0  0  0  0  0  0  0  0  0
   10.5707  -14.5929   21.7302 C   0  0  0  0  0  0  0  0  0  0  0  0
   10.2277  -15.9893   22.2281 C   0  0  2  0  0  0  0  0  0  0  0  0
    8.7897  -16.0803   22.3802 N   0  0  0  0  0  0  0  0  0  0  0  0
   10.8857  -16.1563   23.5495 C   0  0  0  0  0  0  0  0  0  0  0  0
   12.1407  -16.1593   23.6790 O   0  0  0  0  0  0  0  0  0  0  0  0
    9.9679  -15.2051   19.4027 C   0  0  0  0  0  0  0  0  0  0  0  0
    9.2199  -14.9540   18.2636 C   0  0  0  0  0  0  0  0  0  0  0  0
   11.3028  -13.6300   29.3254 C   0  0  0  0  0  0  0  0  0  0  0  0
    9.8672  -13.2576   28.2507 S   0  0  0  0  0  0  0  0  0  0  0  0
    9.8055  -14.2770   26.8173 C   0  0  0  0  0  0  0  0  0  0  0  0
   10.0095  -15.7127   26.9567 C   0  0  0  0  0  0  0  0  0  0  0  0
   10.8091  -16.5362   26.0218 C   0  0  2  0  0  0  0  0  0  0  0  0
   10.1050  -16.3160   24.6934 N   0  0  0  0  0  0  0  0  0  0  0  0
   10.5352  -18.0116   26.2698 C   0  0  0  0  0  0  0  0  0  0  0  0
    9.5934  -18.5613   25.5639 O   0  0  0  0  0  0  0  0  0  0  0  0
   11.1546  -18.8310   27.1435 O   0  0  0  0  0  0  0  0  0  0  0  0
  2  1  1  6
  3  2  1  0
  3  4  1  0
  4  5  2  0
  5  6  1  0
  7  6  2  0
  8  7  1  0
  9  8  2  0
  9  4  1  0
 10  2  1  0
 10 19  1  0
 11 10  2  0
 13 14  2  0
 13 12  1  0
 15 14  1  0
 16 15  2  0
 17 16  1  0
 18 17  1  1
 18 19  1  0
 20 29  1  0
 20 18  1  0
 21 20  2  0
 22 16  1  0
 22 23  2  0
 23 13  1  0
 24 25  1  0
 25 26  1  0
 26 27  1  0
 28 27  1  1
 28 29  1  0
 28 30  1  0
 30 32  1  0
 31 30  2  0
M  END
$$$$
