FYM.pdb
     RDKit          3D

 32 33  0  0  1  0  0  0  0  0999 V2000
    5.7580  -17.8424   23.8641 N   0  0  0  0  0  0  0  0  0  0  0  0
    6.3492  -16.5266   24.0132 C   0  0  1  0  0  0  0  0  0  0  0  0
    6.3294  -16.1754   25.4848 C   0  0  0  0  0  0  0  0  0  0  0  0
    6.5419  -14.7245   25.7006 C   0  0  0  0  0  0  0  0  0  0  0  0
    7.7934  -14.2505   26.0351 C   0  0  0  0  0  0  0  0  0  0  0  0
    8.0425  -12.8955   26.2475 C   0  0  0  0  0  0  0  0  0  0  0  0
    6.9887  -12.0246   26.1127 C   0  0  0  0  0  0  0  0  0  0  0  0
    5.7169  -12.4627   25.7777 C   0  0  0  0  0  0  0  0  0  0  0  0
    5.5268  -13.8189   25.5784 C   0  0  0  0  0  0  0  0  0  0  0  0
    7.7452  -16.5499   23.5453 C   0  0  0  0  0  0  0  0  0  0  0  0
    8.3979  -17.6245   23.6056 O   0  0  0  0  0  0  0  0  0  0  0  0
    6.7290  -14.2785   17.1218 O   0  0  0  0  0  0  0  0  0  0  0  0
    7.5291  -14.2387   18.2555 C   0  0  0  0  0  0  0  0  0  0  0  0
    8.4915  -15.2041   18.4649 C   0  0  0  0  0  0  0  0  0  0  0  0
    9.2794  -15.1573   19.5900 C   0  0  0  0  0  0  0  0  0  0  0  0
    9.1080  -14.1518   20.5020 C   0  0  0  0  0  0  0  0  0  0  0  0
    9.9849  -14.1461   21.7053 C   0  0  0  0  0  0  0  0  0  0  0  0
    9.7360  -15.4566   22.4373 C   0  0  2  0  0  0  0  0  0  0  0  0
    8.4104  -15.4103   23.0203 N   0  0  0  0  0  0  0  0  0  0  0  0
   10.7561  -15.5574   23.5126 C   0  0  0  0  0  0  0  0  0  0  0  0
   11.5657  -14.6219   23.7599 O   0  0  0  0  0  0  0  0  0  0  0  0
    8.1645  -13.1846   20.3207 C   0  0  0  0  0  0  0  0  0  0  0  0
    7.3788  -13.2469   19.1811 C   0  0  0  0  0  0  0  0  0  0  0  0
   10.4324  -14.7587   29.8188 C   0  0  0  0  0  0  0  0  0  0  0  0
   11.7430  -14.2955   28.6262 S   0  0  0  0  0  0  0  0  0  0  0  0
   12.2254  -15.6332   27.5890 C   0  0  0  0  0  0  0  0  0  0  0  0
   11.6395  -15.7495   26.2603 C   0  0  0  0  0  0  0  0  0  0  0  0
   11.9560  -16.8319   25.3011 C   0  0  2  0  0  0  0  0  0  0  0  0
   10.8341  -16.7170   24.2826 N   0  0  0  0  0  0  0  0  0  0  0  0
   11.6569  -18.1835   25.9311 C   0  0  0  0  0  0  0  0  0  0  0  0
   12.5182  -18.6337   26.7932 O   0  0  0  0  0  0  0  0  0  0  0  0
   10.5965  -18.9846   25.7027 O   0  0  0  0  0  0  0  0  0  0  0  0
  2  1  1  1
  3  2  1  0
  3  4  1  0
  4  5  2  0
  5  6  1  0
  7  6  2  0
  8  7  1  0
  9  8  2  0
  9  4  1  0
 10  2  1  0
 10 19  1  0
 11 10  2  0
 13 14  2  0
 13 12  1  0
 15 14  1  0
 16 15  2  0
 17 16  1  0
 18 17  1  1
 18 19  1  0
 20 29  1  0
 20 18  1  0
 21 20  2  0
 22 16  1  0
 22 23  2  0
 23 13  1  0
 24 25  1  0
 25 26  1  0
 26 27  1  0
 28 27  1  1
 28 29  1  0
 28 30  1  0
 30 32  1  0
 31 30  2  0
M  END
$$$$
