FYM.pdb
     RDKit          3D

 32 33  0  0  1  0  0  0  0  0999 V2000
    6.8563  -18.2400   18.5621 N   0  0  0  0  0  0  0  0  0  0  0  0
    8.0619  -17.7506   19.2024 C   0  0  1  0  0  0  0  0  0  0  0  0
    8.3890  -16.4012   18.6010 C   0  0  0  0  0  0  0  0  0  0  0  0
    8.1099  -15.2997   19.5527 C   0  0  0  0  0  0  0  0  0  0  0  0
    8.2943  -13.9882   19.1668 C   0  0  0  0  0  0  0  0  0  0  0  0
    8.0451  -12.9189   20.0256 C   0  0  0  0  0  0  0  0  0  0  0  0
    7.6016  -13.2088   21.2931 C   0  0  0  0  0  0  0  0  0  0  0  0
    7.4043  -14.5135   21.7175 C   0  0  0  0  0  0  0  0  0  0  0  0
    7.6676  -15.5363   20.8231 C   0  0  0  0  0  0  0  0  0  0  0  0
    7.8295  -17.5872   20.6472 C   0  0  0  0  0  0  0  0  0  0  0  0
    6.6995  -17.2071   21.0509 O   0  0  0  0  0  0  0  0  0  0  0  0
    5.8729  -21.3637   27.4517 O   0  0  0  0  0  0  0  0  0  0  0  0
    6.7269  -20.7840   26.5235 C   0  0  0  0  0  0  0  0  0  0  0  0
    6.4825  -20.9156   25.1726 C   0  0  0  0  0  0  0  0  0  0  0  0
    7.3332  -20.3385   24.2603 C   0  0  0  0  0  0  0  0  0  0  0  0
    8.4225  -19.6332   24.6938 C   0  0  0  0  0  0  0  0  0  0  0  0
    9.3147  -19.0287   23.6664 C   0  0  0  0  0  0  0  0  0  0  0  0
    8.5526  -17.8633   23.0528 C   0  0  2  0  0  0  0  0  0  0  0  0
    8.8237  -17.8380   21.6298 N   0  0  0  0  0  0  0  0  0  0  0  0
    9.0678  -16.6221   23.6861 C   0  0  0  0  0  0  0  0  0  0  0  0
   10.2690  -16.2555   23.5654 O   0  0  0  0  0  0  0  0  0  0  0  0
    8.6884  -19.4871   26.0229 C   0  0  0  0  0  0  0  0  0  0  0  0
    7.8207  -20.0754   26.9290 C   0  0  0  0  0  0  0  0  0  0  0  0
    6.1953  -10.4264   27.8117 C   0  0  0  0  0  0  0  0  0  0  0  0
    6.0023  -11.9026   26.7449 S   0  0  0  0  0  0  0  0  0  0  0  0
    7.5400  -12.6571   26.3395 C   0  0  0  0  0  0  0  0  0  0  0  0
    7.5518  -13.8192   25.4612 C   0  0  0  0  0  0  0  0  0  0  0  0
    8.7714  -14.5718   25.0901 C   0  0  2  0  0  0  0  0  0  0  0  0
    8.2085  -15.8254   24.4414 N   0  0  0  0  0  0  0  0  0  0  0  0
    9.4251  -15.1434   26.3389 C   0  0  0  0  0  0  0  0  0  0  0  0
   10.5074  -14.5585   26.7560 O   0  0  0  0  0  0  0  0  0  0  0  0
    9.0173  -16.1963   27.0762 O   0  0  0  0  0  0  0  0  0  0  0  0
  2  1  1  6
  3  2  1  0
  3  4  1  0
  4  5  2  0
  5  6  1  0
  7  6  2  0
  8  7  1  0
  9  8  2  0
  9  4  1  0
 10  2  1  0
 10 19  1  0
 11 10  2  0
 13 14  2  0
 13 12  1  0
 15 14  1  0
 16 15  2  0
 17 16  1  0
 18 17  1  1
 18 19  1  0
 20 29  1  0
 20 18  1  0
 21 20  2  0
 22 16  1  0
 22 23  2  0
 23 13  1  0
 24 25  1  0
 25 26  1  0
 26 27  1  0
 28 27  1  1
 28 29  1  0
 28 30  1  0
 30 32  1  0
 31 30  2  0
M  END
$$$$
