FYM.pdb
     RDKit          3D

 32 33  0  0  1  0  0  0  0  0999 V2000
    5.4841  -17.9383   23.3399 N   0  0  0  0  0  0  0  0  0  0  0  0
    6.1821  -16.7378   23.7580 C   0  0  1  0  0  0  0  0  0  0  0  0
    6.2096  -16.7228   25.2708 C   0  0  0  0  0  0  0  0  0  0  0  0
    6.8302  -15.4814   25.7911 C   0  0  0  0  0  0  0  0  0  0  0  0
    6.4242  -14.2522   25.3144 C   0  0  0  0  0  0  0  0  0  0  0  0
    6.9775  -13.0577   25.7729 C   0  0  0  0  0  0  0  0  0  0  0  0
    7.9581  -13.1358   26.7319 C   0  0  0  0  0  0  0  0  0  0  0  0
    8.3924  -14.3520   27.2354 C   0  0  0  0  0  0  0  0  0  0  0  0
    7.8082  -15.5064   26.7441 C   0  0  0  0  0  0  0  0  0  0  0  0
    7.5656  -16.7629   23.2543 C   0  0  0  0  0  0  0  0  0  0  0  0
    8.1353  -17.8704   23.0719 O   0  0  0  0  0  0  0  0  0  0  0  0
    6.7408  -13.8953   17.0245 O   0  0  0  0  0  0  0  0  0  0  0  0
    7.5113  -13.9888   18.1754 C   0  0  0  0  0  0  0  0  0  0  0  0
    7.6234  -12.9119   19.0297 C   0  0  0  0  0  0  0  0  0  0  0  0
    8.3883  -13.0129   20.1671 C   0  0  0  0  0  0  0  0  0  0  0  0
    9.0382  -14.1831   20.4509 C   0  0  0  0  0  0  0  0  0  0  0  0
    9.8558  -14.2418   21.6939 C   0  0  0  0  0  0  0  0  0  0  0  0
    9.6088  -15.6070   22.3188 C   0  0  2  0  0  0  0  0  0  0  0  0
    8.3081  -15.5895   22.9568 N   0  0  0  0  0  0  0  0  0  0  0  0
   10.6677  -15.8190   23.3391 C   0  0  0  0  0  0  0  0  0  0  0  0
   11.8930  -15.8449   23.0396 O   0  0  0  0  0  0  0  0  0  0  0  0
    8.9451  -15.2633   19.6244 C   0  0  0  0  0  0  0  0  0  0  0  0
    8.1700  -15.1442   18.4820 C   0  0  0  0  0  0  0  0  0  0  0  0
    9.4511  -13.9961   29.6458 C   0  0  0  0  0  0  0  0  0  0  0  0
   10.5911  -13.2082   28.4484 S   0  0  0  0  0  0  0  0  0  0  0  0
   10.6435  -14.0477   26.9023 C   0  0  0  0  0  0  0  0  0  0  0  0
   10.9211  -15.4776   26.8789 C   0  0  0  0  0  0  0  0  0  0  0  0
   11.4195  -16.2112   25.6936 C   0  0  2  0  0  0  0  0  0  0  0  0
   10.3121  -15.9964   24.6753 N   0  0  0  0  0  0  0  0  0  0  0  0
   11.3229  -17.7096   25.9357 C   0  0  0  0  0  0  0  0  0  0  0  0
   12.2151  -18.2371   26.7189 O   0  0  0  0  0  0  0  0  0  0  0  0
   10.4162  -18.5709   25.4313 O   0  0  0  0  0  0  0  0  0  0  0  0
  2  1  1  1
  3  2  1  0
  3  4  1  0
  4  5  2  0
  5  6  1  0
  7  6  2  0
  8  7  1  0
  9  8  2  0
  9  4  1  0
 10  2  1  0
 10 19  1  0
 11 10  2  0
 13 14  2  0
 13 12  1  0
 15 14  1  0
 16 15  2  0
 17 16  1  0
 18 17  1  1
 18 19  1  0
 20 29  1  0
 20 18  1  0
 21 20  2  0
 22 16  1  0
 22 23  2  0
 23 13  1  0
 24 25  1  0
 25 26  1  0
 26 27  1  0
 28 27  1  1
 28 29  1  0
 28 30  1  0
 30 32  1  0
 31 30  2  0
M  END
$$$$
