FYM.pdb
     RDKit          3D

 32 33  0  0  1  0  0  0  0  0999 V2000
    7.2890  -17.1067   26.7879 N   0  0  0  0  0  0  0  0  0  0  0  0
    6.4005  -16.8595   25.6687 C   0  0  1  0  0  0  0  0  0  0  0  0
    5.5802  -15.6301   25.9930 C   0  0  0  0  0  0  0  0  0  0  0  0
    6.4260  -14.5384   26.5311 C   0  0  0  0  0  0  0  0  0  0  0  0
    7.2503  -13.8220   25.6884 C   0  0  0  0  0  0  0  0  0  0  0  0
    8.0633  -12.7868   26.1473 C   0  0  0  0  0  0  0  0  0  0  0  0
    8.0230  -12.4908   27.4882 C   0  0  0  0  0  0  0  0  0  0  0  0
    7.2078  -13.1879   28.3662 C   0  0  0  0  0  0  0  0  0  0  0  0
    6.4215  -14.2061   27.8559 C   0  0  0  0  0  0  0  0  0  0  0  0
    7.1889  -16.6016   24.4520 C   0  0  0  0  0  0  0  0  0  0  0  0
    8.1962  -17.3156   24.2072 O   0  0  0  0  0  0  0  0  0  0  0  0
    9.0835  -14.1630   16.3662 O   0  0  0  0  0  0  0  0  0  0  0  0
    8.5874  -14.1429   17.6626 C   0  0  0  0  0  0  0  0  0  0  0  0
    8.1627  -15.3082   18.2656 C   0  0  0  0  0  0  0  0  0  0  0  0
    7.6728  -15.2794   19.5494 C   0  0  0  0  0  0  0  0  0  0  0  0
    7.6072  -14.0934   20.2285 C   0  0  0  0  0  0  0  0  0  0  0  0
    7.0672  -14.1143   21.6158 C   0  0  0  0  0  0  0  0  0  0  0  0
    7.5712  -15.3950   22.2649 C   0  0  2  0  0  0  0  0  0  0  0  0
    6.8736  -15.5761   23.5217 N   0  0  0  0  0  0  0  0  0  0  0  0
    9.0242  -15.2151   22.5165 C   0  0  0  0  0  0  0  0  0  0  0  0
    9.4716  -14.2694   23.2216 O   0  0  0  0  0  0  0  0  0  0  0  0
    8.0200  -12.9264   19.6571 C   0  0  0  0  0  0  0  0  0  0  0  0
    8.5110  -12.9734   18.3622 C   0  0  0  0  0  0  0  0  0  0  0  0
   11.3226  -14.1083   27.3193 C   0  0  0  0  0  0  0  0  0  0  0  0
   11.1935  -15.6625   26.3588 S   0  0  0  0  0  0  0  0  0  0  0  0
   11.9857  -15.5630   24.7903 C   0  0  0  0  0  0  0  0  0  0  0  0
   11.4946  -16.3851   23.6925 C   0  0  0  0  0  0  0  0  0  0  0  0
   11.4103  -15.9334   22.2852 C   0  0  2  0  0  0  0  0  0  0  0  0
    9.9362  -16.1124   21.9625 N   0  0  0  0  0  0  0  0  0  0  0  0
   12.0490  -16.9684   21.3718 C   0  0  0  0  0  0  0  0  0  0  0  0
   11.2710  -17.8952   20.8992 O   0  0  0  0  0  0  0  0  0  0  0  0
   13.3391  -17.0465   20.9874 O   0  0  0  0  0  0  0  0  0  0  0  0
  2  1  1  1
  3  2  1  0
  3  4  1  0
  4  5  2  0
  5  6  1  0
  7  6  2  0
  8  7  1  0
  9  8  2  0
  9  4  1  0
 10  2  1  0
 10 19  1  0
 11 10  2  0
 13 14  2  0
 13 12  1  0
 15 14  1  0
 16 15  2  0
 17 16  1  0
 18 17  1  1
 18 19  1  0
 20 29  1  0
 20 18  1  0
 21 20  2  0
 22 16  1  0
 22 23  2  0
 23 13  1  0
 24 25  1  0
 25 26  1  0
 26 27  1  0
 28 27  1  1
 28 29  1  0
 28 30  1  0
 30 32  1  0
 31 30  2  0
M  END
$$$$
