FYM.pdb
     RDKit          3D

 32 33  0  0  1  0  0  0  0  0999 V2000
    6.1743  -19.3569   25.1908 N   0  0  0  0  0  0  0  0  0  0  0  0
    6.2317  -17.9079   25.1781 C   0  0  1  0  0  0  0  0  0  0  0  0
    6.8732  -17.4598   26.4731 C   0  0  0  0  0  0  0  0  0  0  0  0
    6.8011  -15.9882   26.6350 C   0  0  0  0  0  0  0  0  0  0  0  0
    7.8647  -15.2988   27.1794 C   0  0  0  0  0  0  0  0  0  0  0  0
    7.8441  -13.9157   27.3512 C   0  0  0  0  0  0  0  0  0  0  0  0
    6.7144  -13.2409   26.9566 C   0  0  0  0  0  0  0  0  0  0  0  0
    5.6256  -13.8983   26.4055 C   0  0  0  0  0  0  0  0  0  0  0  0
    5.7006  -15.2723   26.2582 C   0  0  0  0  0  0  0  0  0  0  0  0
    7.0602  -17.4504   24.0500 C   0  0  0  0  0  0  0  0  0  0  0  0
    8.0152  -18.1689   23.6551 O   0  0  0  0  0  0  0  0  0  0  0  0
    9.5370  -13.3000   16.8155 O   0  0  0  0  0  0  0  0  0  0  0  0
    8.9083  -13.6033   18.0155 C   0  0  0  0  0  0  0  0  0  0  0  0
    9.0677  -12.7841   19.1135 C   0  0  0  0  0  0  0  0  0  0  0  0
    8.4417  -13.0917   20.2977 C   0  0  0  0  0  0  0  0  0  0  0  0
    7.6601  -14.2113   20.3861 C   0  0  0  0  0  0  0  0  0  0  0  0
    7.0050  -14.5020   21.6910 C   0  0  0  0  0  0  0  0  0  0  0  0
    7.5690  -15.8277   22.1808 C   0  0  2  0  0  0  0  0  0  0  0  0
    6.8407  -16.2236   23.3691 N   0  0  0  0  0  0  0  0  0  0  0  0
    8.9972  -15.5972   22.5186 C   0  0  0  0  0  0  0  0  0  0  0  0
    9.8574  -15.3130   21.6404 O   0  0  0  0  0  0  0  0  0  0  0  0
    7.4851  -15.0388   19.3168 C   0  0  0  0  0  0  0  0  0  0  0  0
    8.1234  -14.7139   18.1306 C   0  0  0  0  0  0  0  0  0  0  0  0
   10.1809  -13.4845   28.3869 C   0  0  0  0  0  0  0  0  0  0  0  0
   11.7448  -14.4082   28.1516 S   0  0  0  0  0  0  0  0  0  0  0  0
   11.9322  -15.0266   26.5145 C   0  0  0  0  0  0  0  0  0  0  0  0
   10.7938  -14.9899   25.6061 C   0  0  0  0  0  0  0  0  0  0  0  0
   10.8598  -15.3485   24.1713 C   0  0  2  0  0  0  0  0  0  0  0  0
    9.4166  -15.6942   23.8446 N   0  0  0  0  0  0  0  0  0  0  0  0
   11.5400  -16.6990   24.0076 C   0  0  0  0  0  0  0  0  0  0  0  0
   12.8350  -16.7209   24.1083 O   0  0  0  0  0  0  0  0  0  0  0  0
   10.9597  -17.8921   23.7663 O   0  0  0  0  0  0  0  0  0  0  0  0
  2  1  1  1
  3  2  1  0
  3  4  1  0
  4  5  2  0
  5  6  1  0
  7  6  2  0
  8  7  1  0
  9  8  2  0
  9  4  1  0
 10  2  1  0
 10 19  1  0
 11 10  2  0
 13 14  2  0
 13 12  1  0
 15 14  1  0
 16 15  2  0
 17 16  1  0
 18 17  1  1
 18 19  1  0
 20 29  1  0
 20 18  1  0
 21 20  2  0
 22 16  1  0
 22 23  2  0
 23 13  1  0
 24 25  1  0
 25 26  1  0
 26 27  1  0
 28 27  1  1
 28 29  1  0
 28 30  1  0
 30 32  1  0
 31 30  2  0
M  END
$$$$
