FYM.pdb
     RDKit          3D

 32 33  0  0  1  0  0  0  0  0999 V2000
    5.9528  -18.2744   22.4229 N   0  0  0  0  0  0  0  0  0  0  0  0
    6.4126  -17.0136   22.9727 C   0  0  1  0  0  0  0  0  0  0  0  0
    6.1121  -17.0195   24.4556 C   0  0  0  0  0  0  0  0  0  0  0  0
    6.3467  -15.6881   25.0633 C   0  0  0  0  0  0  0  0  0  0  0  0
    7.0097  -15.5844   26.2685 C   0  0  0  0  0  0  0  0  0  0  0  0
    7.2541  -14.3552   26.8788 C   0  0  0  0  0  0  0  0  0  0  0  0
    6.8092  -13.2249   26.2371 C   0  0  0  0  0  0  0  0  0  0  0  0
    6.1394  -13.2885   25.0252 C   0  0  0  0  0  0  0  0  0  0  0  0
    5.9241  -14.5354   24.4647 C   0  0  0  0  0  0  0  0  0  0  0  0
    7.8666  -16.8844   22.7792 C   0  0  0  0  0  0  0  0  0  0  0  0
    8.5854  -17.9175   22.7995 O   0  0  0  0  0  0  0  0  0  0  0  0
    7.0710  -13.9058   16.8160 O   0  0  0  0  0  0  0  0  0  0  0  0
    7.8237  -13.9701   17.9806 C   0  0  0  0  0  0  0  0  0  0  0  0
    7.5553  -13.1202   19.0330 C   0  0  0  0  0  0  0  0  0  0  0  0
    8.3054  -13.1905   20.1825 C   0  0  0  0  0  0  0  0  0  0  0  0
    9.3185  -14.1048   20.2816 C   0  0  0  0  0  0  0  0  0  0  0  0
   10.1032  -14.1404   21.5464 C   0  0  0  0  0  0  0  0  0  0  0  0
    9.9000  -15.5217   22.1514 C   0  0  2  0  0  0  0  0  0  0  0  0
    8.5172  -15.6400   22.5673 N   0  0  0  0  0  0  0  0  0  0  0  0
   10.7921  -15.6159   23.3357 C   0  0  0  0  0  0  0  0  0  0  0  0
   11.5538  -14.6707   23.6794 O   0  0  0  0  0  0  0  0  0  0  0  0
    9.6059  -14.9571   19.2570 C   0  0  0  0  0  0  0  0  0  0  0  0
    8.8400  -14.8726   18.1054 C   0  0  0  0  0  0  0  0  0  0  0  0
   12.0418  -13.3847   29.4513 C   0  0  0  0  0  0  0  0  0  0  0  0
   12.1426  -14.3129   27.8757 S   0  0  0  0  0  0  0  0  0  0  0  0
   10.6731  -15.2137   27.5194 C   0  0  0  0  0  0  0  0  0  0  0  0
   10.4673  -15.7350   26.1746 C   0  0  0  0  0  0  0  0  0  0  0  0
   11.3621  -16.7110   25.5125 C   0  0  2  0  0  0  0  0  0  0  0  0
   10.7995  -16.7801   24.1026 N   0  0  0  0  0  0  0  0  0  0  0  0
   11.0677  -18.1121   26.0259 C   0  0  0  0  0  0  0  0  0  0  0  0
   10.0470  -18.7258   25.5073 O   0  0  0  0  0  0  0  0  0  0  0  0
   11.7416  -18.8056   26.9657 O   0  0  0  0  0  0  0  0  0  0  0  0
  2  1  1  1
  3  2  1  0
  3  4  1  0
  4  5  2  0
  5  6  1  0
  7  6  2  0
  8  7  1  0
  9  8  2  0
  9  4  1  0
 10  2  1  0
 10 19  1  0
 11 10  2  0
 13 14  2  0
 13 12  1  0
 15 14  1  0
 16 15  2  0
 17 16  1  0
 18 17  1  1
 18 19  1  0
 20 29  1  0
 20 18  1  0
 21 20  2  0
 22 16  1  0
 22 23  2  0
 23 13  1  0
 24 25  1  0
 25 26  1  0
 26 27  1  0
 28 27  1  1
 28 29  1  0
 28 30  1  0
 30 32  1  0
 31 30  2  0
M  END
$$$$
