FYM.pdb
     RDKit          3D

 32 33  0  0  1  0  0  0  0  0999 V2000
    8.2874  -16.8487   20.4572 N   0  0  0  0  0  0  0  0  0  0  0  0
    8.9823  -15.9949   21.4013 C   0  0  1  0  0  0  0  0  0  0  0  0
    8.0107  -14.9310   21.8637 C   0  0  0  0  0  0  0  0  0  0  0  0
    7.7534  -13.9306   20.8007 C   0  0  0  0  0  0  0  0  0  0  0  0
    6.5397  -13.9136   20.1454 C   0  0  0  0  0  0  0  0  0  0  0  0
    6.2510  -12.9924   19.1398 C   0  0  0  0  0  0  0  0  0  0  0  0
    7.2255  -12.0820   18.8100 C   0  0  0  0  0  0  0  0  0  0  0  0
    8.4572  -12.0675   19.4457 C   0  0  0  0  0  0  0  0  0  0  0  0
    8.6897  -13.0051   20.4368 C   0  0  0  0  0  0  0  0  0  0  0  0
    9.4158  -16.7857   22.5653 C   0  0  0  0  0  0  0  0  0  0  0  0
    8.5588  -17.4227   23.2318 O   0  0  0  0  0  0  0  0  0  0  0  0
   14.0486  -19.7982   29.2712 O   0  0  0  0  0  0  0  0  0  0  0  0
   13.6982  -19.2930   28.0266 C   0  0  0  0  0  0  0  0  0  0  0  0
   14.2041  -18.0844   27.5963 C   0  0  0  0  0  0  0  0  0  0  0  0
   13.8520  -17.5913   26.3626 C   0  0  0  0  0  0  0  0  0  0  0  0
   12.9991  -18.3010   25.5620 C   0  0  0  0  0  0  0  0  0  0  0  0
   12.6467  -17.7238   24.2356 C   0  0  0  0  0  0  0  0  0  0  0  0
   11.1692  -17.3644   24.2907 C   0  0  2  0  0  0  0  0  0  0  0  0
   10.7688  -16.8736   22.9876 N   0  0  0  0  0  0  0  0  0  0  0  0
   11.0185  -16.2875   25.3029 C   0  0  0  0  0  0  0  0  0  0  0  0
   11.3603  -15.0954   25.0709 O   0  0  0  0  0  0  0  0  0  0  0  0
   12.4839  -19.4983   25.9619 C   0  0  0  0  0  0  0  0  0  0  0  0
   12.8492  -19.9805   27.2085 C   0  0  0  0  0  0  0  0  0  0  0  0
    7.7084  -11.5958   26.0360 C   0  0  0  0  0  0  0  0  0  0  0  0
    7.1288  -12.8454   27.2431 S   0  0  0  0  0  0  0  0  0  0  0  0
    8.4477  -13.7625   27.9621 C   0  0  0  0  0  0  0  0  0  0  0  0
    9.1221  -14.7801   27.1671 C   0  0  0  0  0  0  0  0  0  0  0  0
   10.3672  -15.4686   27.5762 C   0  0  2  0  0  0  0  0  0  0  0  0
   10.4836  -16.5877   26.5548 N   0  0  0  0  0  0  0  0  0  0  0  0
   10.1268  -16.2512   28.8580 C   0  0  0  0  0  0  0  0  0  0  0  0
   10.0251  -15.5642   29.9558 O   0  0  0  0  0  0  0  0  0  0  0  0
   10.0060  -17.5868   28.9998 O   0  0  0  0  0  0  0  0  0  0  0  0
  2  1  1  6
  3  2  1  0
  3  4  1  0
  4  5  2  0
  5  6  1  0
  7  6  2  0
  8  7  1  0
  9  8  2  0
  9  4  1  0
 10  2  1  0
 10 19  1  0
 11 10  2  0
 13 14  2  0
 13 12  1  0
 15 14  1  0
 16 15  2  0
 17 16  1  0
 18 17  1  6
 18 19  1  0
 20 29  1  0
 20 18  1  0
 21 20  2  0
 22 16  1  0
 22 23  2  0
 23 13  1  0
 24 25  1  0
 25 26  1  0
 26 27  1  0
 28 27  1  6
 28 29  1  0
 28 30  1  0
 30 32  1  0
 31 30  2  0
M  END
$$$$
