FYM.pdb
     RDKit          3D

 32 33  0  0  1  0  0  0  0  0999 V2000
    8.5186  -17.2805   20.1194 N   0  0  0  0  0  0  0  0  0  0  0  0
    9.0877  -16.4821   21.1880 C   0  0  1  0  0  0  0  0  0  0  0  0
    8.0777  -15.4177   21.5574 C   0  0  0  0  0  0  0  0  0  0  0  0
    7.9298  -14.4110   20.4796 C   0  0  0  0  0  0  0  0  0  0  0  0
    8.9850  -13.5837   20.1556 C   0  0  0  0  0  0  0  0  0  0  0  0
    8.8941  -12.6226   19.1501 C   0  0  0  0  0  0  0  0  0  0  0  0
    7.7025  -12.5168   18.4748 C   0  0  0  0  0  0  0  0  0  0  0  0
    6.6198  -13.3300   18.7714 C   0  0  0  0  0  0  0  0  0  0  0  0
    6.7659  -14.2670   19.7793 C   0  0  0  0  0  0  0  0  0  0  0  0
    9.3417  -17.3300   22.3647 C   0  0  0  0  0  0  0  0  0  0  0  0
    8.6028  -17.2168   23.3774 O   0  0  0  0  0  0  0  0  0  0  0  0
   14.7608  -17.9862   18.9779 O   0  0  0  0  0  0  0  0  0  0  0  0
   14.0161  -18.5035   20.0291 C   0  0  0  0  0  0  0  0  0  0  0  0
   14.5460  -18.5540   21.3014 C   0  0  0  0  0  0  0  0  0  0  0  0
   13.8020  -19.0677   22.3365 C   0  0  0  0  0  0  0  0  0  0  0  0
   12.5350  -19.5288   22.1034 C   0  0  0  0  0  0  0  0  0  0  0  0
   11.7703  -20.0774   23.2570 C   0  0  0  0  0  0  0  0  0  0  0  0
   10.7146  -19.0425   23.6172 C   0  0  2  0  0  0  0  0  0  0  0  0
   10.3906  -18.2855   22.4251 N   0  0  0  0  0  0  0  0  0  0  0  0
   11.3134  -18.1438   24.6374 C   0  0  0  0  0  0  0  0  0  0  0  0
   12.2262  -17.3202   24.3539 O   0  0  0  0  0  0  0  0  0  0  0  0
   11.9861  -19.4910   20.8560 C   0  0  0  0  0  0  0  0  0  0  0  0
   12.7500  -18.9701   19.8239 C   0  0  0  0  0  0  0  0  0  0  0  0
    9.3453  -12.8772   29.7015 C   0  0  0  0  0  0  0  0  0  0  0  0
    9.1123  -14.0985   28.3566 S   0  0  0  0  0  0  0  0  0  0  0  0
   10.4419  -15.2456   28.2388 C   0  0  0  0  0  0  0  0  0  0  0  0
   10.4140  -16.2613   27.1948 C   0  0  0  0  0  0  0  0  0  0  0  0
   11.4863  -17.2573   26.9713 C   0  0  2  0  0  0  0  0  0  0  0  0
   10.8629  -18.2001   25.9556 N   0  0  0  0  0  0  0  0  0  0  0  0
   11.6124  -18.1616   28.1876 C   0  0  0  0  0  0  0  0  0  0  0  0
   12.2656  -17.6890   29.2062 O   0  0  0  0  0  0  0  0  0  0  0  0
   11.1261  -19.4098   28.3426 O   0  0  0  0  0  0  0  0  0  0  0  0
  2  1  1  6
  3  2  1  0
  3  4  1  0
  4  5  2  0
  5  6  1  0
  7  6  2  0
  8  7  1  0
  9  8  2  0
  9  4  1  0
 10  2  1  0
 10 19  1  0
 11 10  2  0
 13 14  2  0
 13 12  1  0
 15 14  1  0
 16 15  2  0
 17 16  1  0
 18 17  1  6
 18 19  1  0
 20 29  1  0
 20 18  1  0
 21 20  2  0
 22 16  1  0
 22 23  2  0
 23 13  1  0
 24 25  1  0
 25 26  1  0
 26 27  1  0
 28 27  1  1
 28 29  1  0
 28 30  1  0
 30 32  1  0
 31 30  2  0
M  END
$$$$
