FYM.pdb
     RDKit          3D

 32 33  0  0  1  0  0  0  0  0999 V2000
    8.4401  -18.0114   18.8139 N   0  0  0  0  0  0  0  0  0  0  0  0
    8.6331  -16.6846   19.3667 C   0  0  1  0  0  0  0  0  0  0  0  0
    7.2834  -16.1723   19.8199 C   0  0  0  0  0  0  0  0  0  0  0  0
    7.3873  -14.8188   20.4150 C   0  0  0  0  0  0  0  0  0  0  0  0
    7.7378  -13.7417   19.6278 C   0  0  0  0  0  0  0  0  0  0  0  0
    7.8480  -12.4505   20.1414 C   0  0  0  0  0  0  0  0  0  0  0  0
    7.5935  -12.2727   21.4797 C   0  0  0  0  0  0  0  0  0  0  0  0
    7.2387  -13.3300   22.3028 C   0  0  0  0  0  0  0  0  0  0  0  0
    7.1443  -14.5906   21.7395 C   0  0  0  0  0  0  0  0  0  0  0  0
    9.5340  -16.7537   20.5294 C   0  0  0  0  0  0  0  0  0  0  0  0
    9.4954  -17.7631   21.2803 O   0  0  0  0  0  0  0  0  0  0  0  0
   14.8965  -15.6518   16.8132 O   0  0  0  0  0  0  0  0  0  0  0  0
   14.2874  -15.4209   18.0390 C   0  0  0  0  0  0  0  0  0  0  0  0
   14.7352  -16.0650   19.1733 C   0  0  0  0  0  0  0  0  0  0  0  0
   14.1264  -15.8306   20.3830 C   0  0  0  0  0  0  0  0  0  0  0  0
   13.0758  -14.9575   20.4607 C   0  0  0  0  0  0  0  0  0  0  0  0
   12.4490  -14.7389   21.7934 C   0  0  0  0  0  0  0  0  0  0  0  0
   11.3923  -15.8202   21.9652 C   0  0  2  0  0  0  0  0  0  0  0  0
   10.4609  -15.7295   20.8592 N   0  0  0  0  0  0  0  0  0  0  0  0
   10.6863  -15.5427   23.2426 C   0  0  0  0  0  0  0  0  0  0  0  0
   10.7462  -14.4186   23.8123 O   0  0  0  0  0  0  0  0  0  0  0  0
   12.6125  -14.3070   19.3557 C   0  0  0  0  0  0  0  0  0  0  0  0
   13.2376  -14.5550   18.1442 C   0  0  0  0  0  0  0  0  0  0  0  0
    6.0783  -12.0011   25.9773 C   0  0  0  0  0  0  0  0  0  0  0  0
    7.1672  -13.4021   26.4311 S   0  0  0  0  0  0  0  0  0  0  0  0
    6.9776  -14.7876   25.3623 C   0  0  0  0  0  0  0  0  0  0  0  0
    8.1225  -15.2518   24.5904 C   0  0  0  0  0  0  0  0  0  0  0  0
    9.1392  -16.2019   25.0958 C   0  0  2  0  0  0  0  0  0  0  0  0
    9.9287  -16.5466   23.8440 N   0  0  0  0  0  0  0  0  0  0  0  0
    8.4836  -17.5360   25.4183 C   0  0  0  0  0  0  0  0  0  0  0  0
    7.8393  -17.6175   26.5433 O   0  0  0  0  0  0  0  0  0  0  0  0
    8.4890  -18.6601   24.6735 O   0  0  0  0  0  0  0  0  0  0  0  0
  2  1  1  1
  3  2  1  0
  3  4  1  0
  4  5  2  0
  5  6  1  0
  7  6  2  0
  8  7  1  0
  9  8  2  0
  9  4  1  0
 10  2  1  0
 10 19  1  0
 11 10  2  0
 13 14  2  0
 13 12  1  0
 15 14  1  0
 16 15  2  0
 17 16  1  0
 18 17  1  6
 18 19  1  0
 20 29  1  0
 20 18  1  0
 21 20  2  0
 22 16  1  0
 22 23  2  0
 23 13  1  0
 24 25  1  0
 25 26  1  0
 26 27  1  0
 28 27  1  6
 28 29  1  0
 28 30  1  0
 30 32  1  0
 31 30  2  0
M  END
$$$$
