FYM.pdb
     RDKit          3D

 32 33  0  0  1  0  0  0  0  0999 V2000
    6.1727  -18.6382   21.2182 N   0  0  0  0  0  0  0  0  0  0  0  0
    6.4544  -17.5803   22.1693 C   0  0  1  0  0  0  0  0  0  0  0  0
    6.0008  -18.0528   23.5333 C   0  0  0  0  0  0  0  0  0  0  0  0
    6.2705  -17.0367   24.5782 C   0  0  0  0  0  0  0  0  0  0  0  0
    6.9350  -17.3917   25.7337 C   0  0  0  0  0  0  0  0  0  0  0  0
    7.2119  -16.4722   26.7441 C   0  0  0  0  0  0  0  0  0  0  0  0
    6.7981  -15.1756   26.5573 C   0  0  0  0  0  0  0  0  0  0  0  0
    6.1279  -14.7806   25.4100 C   0  0  0  0  0  0  0  0  0  0  0  0
    5.8796  -15.7354   24.4395 C   0  0  0  0  0  0  0  0  0  0  0  0
    7.9027  -17.3178   22.2107 C   0  0  0  0  0  0  0  0  0  0  0  0
    8.7070  -18.2662   22.0158 O   0  0  0  0  0  0  0  0  0  0  0  0
    7.3046  -13.6641   16.8754 O   0  0  0  0  0  0  0  0  0  0  0  0
    7.9399  -13.7929   18.1030 C   0  0  0  0  0  0  0  0  0  0  0  0
    9.0236  -14.6342   18.2432 C   0  0  0  0  0  0  0  0  0  0  0  0
    9.6468  -14.7559   19.4621 C   0  0  0  0  0  0  0  0  0  0  0  0
    9.1909  -14.0413   20.5362 C   0  0  0  0  0  0  0  0  0  0  0  0
    9.8986  -14.2090   21.8353 C   0  0  0  0  0  0  0  0  0  0  0  0
    9.8345  -15.6889   22.1834 C   0  0  2  0  0  0  0  0  0  0  0  0
    8.4553  -16.0340   22.4621 N   0  0  0  0  0  0  0  0  0  0  0  0
   10.6599  -15.8876   23.4025 C   0  0  0  0  0  0  0  0  0  0  0  0
   11.8948  -15.6304   23.4266 O   0  0  0  0  0  0  0  0  0  0  0  0
    8.1219  -13.2023   20.4263 C   0  0  0  0  0  0  0  0  0  0  0  0
    7.5053  -13.0917   19.1903 C   0  0  0  0  0  0  0  0  0  0  0  0
    9.9888  -11.8226   28.4807 C   0  0  0  0  0  0  0  0  0  0  0  0
   10.4941  -13.5823   28.4304 S   0  0  0  0  0  0  0  0  0  0  0  0
   10.0007  -14.3917   26.9474 C   0  0  0  0  0  0  0  0  0  0  0  0
   10.1384  -15.8385   26.8476 C   0  0  0  0  0  0  0  0  0  0  0  0
   10.9300  -16.5311   25.8058 C   0  0  2  0  0  0  0  0  0  0  0  0
   10.0653  -16.3732   24.5662 N   0  0  0  0  0  0  0  0  0  0  0  0
   10.8714  -18.0347   26.0274 C   0  0  0  0  0  0  0  0  0  0  0  0
   10.0024  -18.6987   25.3264 O   0  0  0  0  0  0  0  0  0  0  0  0
   11.6174  -18.7744   26.8729 O   0  0  0  0  0  0  0  0  0  0  0  0
  2  1  1  6
  3  2  1  0
  3  4  1  0
  4  5  2  0
  5  6  1  0
  7  6  2  0
  8  7  1  0
  9  8  2  0
  9  4  1  0
 10  2  1  0
 10 19  1  0
 11 10  2  0
 13 14  2  0
 13 12  1  0
 15 14  1  0
 16 15  2  0
 17 16  1  0
 18 17  1  1
 18 19  1  0
 20 29  1  0
 20 18  1  0
 21 20  2  0
 22 16  1  0
 22 23  2  0
 23 13  1  0
 24 25  1  0
 25 26  1  0
 26 27  1  0
 28 27  1  1
 28 29  1  0
 28 30  1  0
 30 32  1  0
 31 30  2  0
M  END
$$$$
