FYM.pdb
     RDKit          3D

 32 33  0  0  1  0  0  0  0  0999 V2000
    5.2713  -18.4110   20.9598 N   0  0  0  0  0  0  0  0  0  0  0  0
    6.2624  -17.3776   21.1895 C   0  0  1  0  0  0  0  0  0  0  0  0
    5.6447  -16.0513   20.8038 C   0  0  0  0  0  0  0  0  0  0  0  0
    6.6262  -14.9451   20.9023 C   0  0  0  0  0  0  0  0  0  0  0  0
    7.4621  -14.6649   19.8414 C   0  0  0  0  0  0  0  0  0  0  0  0
    8.4005  -13.6351   19.8865 C   0  0  0  0  0  0  0  0  0  0  0  0
    8.4744  -12.8896   21.0381 C   0  0  0  0  0  0  0  0  0  0  0  0
    7.6516  -13.1406   22.1250 C   0  0  0  0  0  0  0  0  0  0  0  0
    6.7382  -14.1755   22.0252 C   0  0  0  0  0  0  0  0  0  0  0  0
    6.6242  -17.3403   22.6164 C   0  0  0  0  0  0  0  0  0  0  0  0
    5.7291  -17.1217   23.4739 O   0  0  0  0  0  0  0  0  0  0  0  0
    6.2876  -22.3301   28.0603 O   0  0  0  0  0  0  0  0  0  0  0  0
    7.0003  -21.4663   27.2400 C   0  0  0  0  0  0  0  0  0  0  0  0
    6.8919  -21.5578   25.8682 C   0  0  0  0  0  0  0  0  0  0  0  0
    7.6010  -20.6986   25.0633 C   0  0  0  0  0  0  0  0  0  0  0  0
    8.4144  -19.7523   25.6245 C   0  0  0  0  0  0  0  0  0  0  0  0
    9.1629  -18.8466   24.7101 C   0  0  0  0  0  0  0  0  0  0  0  0
    8.2903  -17.6185   24.4959 C   0  0  2  0  0  0  0  0  0  0  0  0
    7.9479  -17.5402   23.0903 N   0  0  0  0  0  0  0  0  0  0  0  0
    9.0990  -16.4344   24.8843 C   0  0  0  0  0  0  0  0  0  0  0  0
    9.9606  -15.9279   24.1142 O   0  0  0  0  0  0  0  0  0  0  0  0
    8.5407  -19.6393   26.9773 C   0  0  0  0  0  0  0  0  0  0  0  0
    7.8188  -20.5135   27.7739 C   0  0  0  0  0  0  0  0  0  0  0  0
    6.0499  -10.6824   27.2169 C   0  0  0  0  0  0  0  0  0  0  0  0
    6.7998  -12.2129   27.8875 S   0  0  0  0  0  0  0  0  0  0  0  0
    8.2572  -12.6929   27.0253 C   0  0  0  0  0  0  0  0  0  0  0  0
    8.9605  -13.9009   27.4357 C   0  0  0  0  0  0  0  0  0  0  0  0
    9.8241  -14.7070   26.5435 C   0  0  2  0  0  0  0  0  0  0  0  0
    8.9116  -15.8521   26.1370 N   0  0  0  0  0  0  0  0  0  0  0  0
   10.8775  -15.4349   27.3644 C   0  0  0  0  0  0  0  0  0  0  0  0
   10.5498  -16.5971   27.8435 O   0  0  0  0  0  0  0  0  0  0  0  0
   12.1251  -15.0188   27.6625 O   0  0  0  0  0  0  0  0  0  0  0  0
  2  1  1  1
  3  2  1  0
  3  4  1  0
  4  5  2  0
  5  6  1  0
  7  6  2  0
  8  7  1  0
  9  8  2  0
  9  4  1  0
 10  2  1  0
 10 19  1  0
 11 10  2  0
 13 14  2  0
 13 12  1  0
 15 14  1  0
 16 15  2  0
 17 16  1  0
 18 17  1  6
 18 19  1  0
 20 29  1  0
 20 18  1  0
 21 20  2  0
 22 16  1  0
 22 23  2  0
 23 13  1  0
 24 25  1  0
 25 26  1  0
 26 27  1  0
 28 27  1  1
 28 29  1  0
 28 30  1  0
 30 32  1  0
 31 30  2  0
M  END
$$$$
