FYM.pdb
     RDKit          3D

 32 33  0  0  1  0  0  0  0  0999 V2000
    6.5896  -20.4435   24.1266 N   0  0  0  0  0  0  0  0  0  0  0  0
    6.5053  -19.0565   24.5418 C   0  0  1  0  0  0  0  0  0  0  0  0
    7.1323  -18.9465   25.9145 C   0  0  0  0  0  0  0  0  0  0  0  0
    6.9640  -17.5875   26.4818 C   0  0  0  0  0  0  0  0  0  0  0  0
    7.9945  -16.9983   27.1845 C   0  0  0  0  0  0  0  0  0  0  0  0
    7.8839  -15.7230   27.7360 C   0  0  0  0  0  0  0  0  0  0  0  0
    6.6981  -15.0523   27.5591 C   0  0  0  0  0  0  0  0  0  0  0  0
    5.6401  -15.6109   26.8592 C   0  0  0  0  0  0  0  0  0  0  0  0
    5.8051  -16.8802   26.3330 C   0  0  0  0  0  0  0  0  0  0  0  0
    7.2568  -18.2071   23.6027 C   0  0  0  0  0  0  0  0  0  0  0  0
    8.3555  -18.6164   23.1449 O   0  0  0  0  0  0  0  0  0  0  0  0
    8.6744  -12.6458   17.1274 O   0  0  0  0  0  0  0  0  0  0  0  0
    8.1448  -13.2212   18.2743 C   0  0  0  0  0  0  0  0  0  0  0  0
    7.6129  -14.4931   18.2354 C   0  0  0  0  0  0  0  0  0  0  0  0
    7.0905  -15.0554   19.3755 C   0  0  0  0  0  0  0  0  0  0  0  0
    7.0988  -14.3520   20.5491 C   0  0  0  0  0  0  0  0  0  0  0  0
    6.5196  -15.0039   21.7559 C   0  0  0  0  0  0  0  0  0  0  0  0
    7.4099  -16.1937   22.0832 C   0  0  2  0  0  0  0  0  0  0  0  0
    6.8063  -16.9299   23.1754 N   0  0  0  0  0  0  0  0  0  0  0  0
    8.7261  -15.6512   22.5078 C   0  0  0  0  0  0  0  0  0  0  0  0
    9.4849  -15.0313   21.7129 O   0  0  0  0  0  0  0  0  0  0  0  0
    7.6180  -13.0932   20.6165 C   0  0  0  0  0  0  0  0  0  0  0  0
    8.1404  -12.5414   19.4578 C   0  0  0  0  0  0  0  0  0  0  0  0
    7.3005  -11.9413   27.6465 C   0  0  0  0  0  0  0  0  0  0  0  0
    8.8056  -12.9712   27.4767 S   0  0  0  0  0  0  0  0  0  0  0  0
    8.9941  -13.6426   25.8606 C   0  0  0  0  0  0  0  0  0  0  0  0
   10.0572  -14.6068   25.6110 C   0  0  0  0  0  0  0  0  0  0  0  0
   10.4209  -15.1189   24.2705 C   0  0  2  0  0  0  0  0  0  0  0  0
    9.1511  -15.8243   23.8242 N   0  0  0  0  0  0  0  0  0  0  0  0
   11.3849  -16.2873   24.4084 C   0  0  0  0  0  0  0  0  0  0  0  0
   12.6093  -16.0035   24.7364 O   0  0  0  0  0  0  0  0  0  0  0  0
   11.1246  -17.5982   24.2289 O   0  0  0  0  0  0  0  0  0  0  0  0
  2  1  1  6
  3  2  1  0
  3  4  1  0
  4  5  2  0
  5  6  1  0
  7  6  2  0
  8  7  1  0
  9  8  2  0
  9  4  1  0
 10  2  1  0
 10 19  1  0
 11 10  2  0
 13 14  2  0
 13 12  1  0
 15 14  1  0
 16 15  2  0
 17 16  1  0
 18 17  1  1
 18 19  1  0
 20 29  1  0
 20 18  1  0
 21 20  2  0
 22 16  1  0
 22 23  2  0
 23 13  1  0
 24 25  1  0
 25 26  1  0
 26 27  1  0
 28 27  1  1
 28 29  1  0
 28 30  1  0
 30 32  1  0
 31 30  2  0
M  END
$$$$
