FYM.pdb
     RDKit          3D

 32 33  0  0  1  0  0  0  0  0999 V2000
    5.8154  -19.5359   24.9448 N   0  0  0  0  0  0  0  0  0  0  0  0
    6.0124  -18.1031   25.0513 C   0  0  1  0  0  0  0  0  0  0  0  0
    6.7533  -17.8336   26.3428 C   0  0  0  0  0  0  0  0  0  0  0  0
    6.9675  -16.3823   26.5542 C   0  0  0  0  0  0  0  0  0  0  0  0
    5.9508  -15.4873   26.2934 C   0  0  0  0  0  0  0  0  0  0  0  0
    6.1042  -14.1141   26.4770 C   0  0  0  0  0  0  0  0  0  0  0  0
    7.3189  -13.6636   26.9341 C   0  0  0  0  0  0  0  0  0  0  0  0
    8.3644  -14.5317   27.2073 C   0  0  0  0  0  0  0  0  0  0  0  0
    8.1564  -15.8852   27.0070 C   0  0  0  0  0  0  0  0  0  0  0  0
    6.8285  -17.6254   23.9226 C   0  0  0  0  0  0  0  0  0  0  0  0
    7.7991  -18.3215   23.5254 O   0  0  0  0  0  0  0  0  0  0  0  0
    9.5656  -13.1262   16.9846 O   0  0  0  0  0  0  0  0  0  0  0  0
    8.8793  -13.4991   18.1322 C   0  0  0  0  0  0  0  0  0  0  0  0
    8.8667  -12.6739   19.2371 C   0  0  0  0  0  0  0  0  0  0  0  0
    8.1848  -13.0508   20.3693 C   0  0  0  0  0  0  0  0  0  0  0  0
    7.5184  -14.2455   20.3990 C   0  0  0  0  0  0  0  0  0  0  0  0
    6.7964  -14.6093   21.6492 C   0  0  0  0  0  0  0  0  0  0  0  0
    7.3506  -15.9519   22.1025 C   0  0  2  0  0  0  0  0  0  0  0  0
    6.5802  -16.4032   23.2435 N   0  0  0  0  0  0  0  0  0  0  0  0
    8.7631  -15.7285   22.5048 C   0  0  0  0  0  0  0  0  0  0  0  0
    9.6567  -15.4132   21.6718 O   0  0  0  0  0  0  0  0  0  0  0  0
    7.5141  -15.0807   19.3215 C   0  0  0  0  0  0  0  0  0  0  0  0
    8.2066  -14.6854   18.1883 C   0  0  0  0  0  0  0  0  0  0  0  0
    9.8956  -12.9709   28.3291 C   0  0  0  0  0  0  0  0  0  0  0  0
   11.1046  -14.3446   28.2534 S   0  0  0  0  0  0  0  0  0  0  0  0
   11.4605  -14.8501   26.6054 C   0  0  0  0  0  0  0  0  0  0  0  0
   10.3593  -15.1007   25.6853 C   0  0  0  0  0  0  0  0  0  0  0  0
   10.5289  -15.4433   24.2551 C   0  0  2  0  0  0  0  0  0  0  0  0
    9.1293  -15.8678   23.8428 N   0  0  0  0  0  0  0  0  0  0  0  0
   11.2938  -16.7515   24.1249 C   0  0  0  0  0  0  0  0  0  0  0  0
   12.5634  -16.7197   24.3981 O   0  0  0  0  0  0  0  0  0  0  0  0
   10.8130  -17.9558   23.7550 O   0  0  0  0  0  0  0  0  0  0  0  0
  2  1  1  6
  3  2  1  0
  3  4  1  0
  4  5  2  0
  5  6  1  0
  7  6  2  0
  8  7  1  0
  9  8  2  0
  9  4  1  0
 10  2  1  0
 10 19  1  0
 11 10  2  0
 13 14  2  0
 13 12  1  0
 15 14  1  0
 16 15  2  0
 17 16  1  0
 18 17  1  1
 18 19  1  0
 20 29  1  0
 20 18  1  0
 21 20  2  0
 22 16  1  0
 22 23  2  0
 23 13  1  0
 24 25  1  0
 25 26  1  0
 26 27  1  0
 28 27  1  1
 28 29  1  0
 28 30  1  0
 30 32  1  0
 31 30  2  0
M  END
$$$$
