FYM.pdb
     RDKit          3D

 32 33  0  0  1  0  0  0  0  0999 V2000
    6.9863  -16.9168   21.0676 N   0  0  0  0  0  0  0  0  0  0  0  0
    8.2342  -16.3825   21.5780 C   0  0  1  0  0  0  0  0  0  0  0  0
    7.9670  -14.9779   22.0733 C   0  0  0  0  0  0  0  0  0  0  0  0
    7.9127  -14.0078   20.9540 C   0  0  0  0  0  0  0  0  0  0  0  0
    6.6961  -13.5438   20.4985 C   0  0  0  0  0  0  0  0  0  0  0  0
    6.5941  -12.6313   19.4497 C   0  0  0  0  0  0  0  0  0  0  0  0
    7.7598  -12.1955   18.8680 C   0  0  0  0  0  0  0  0  0  0  0  0
    9.0010  -12.6385   19.2978 C   0  0  0  0  0  0  0  0  0  0  0  0
    9.0431  -13.5446   20.3430 C   0  0  0  0  0  0  0  0  0  0  0  0
    8.7070  -17.2053   22.7039 C   0  0  0  0  0  0  0  0  0  0  0  0
    7.9199  -17.4646   23.6513 O   0  0  0  0  0  0  0  0  0  0  0  0
   13.5473  -21.8358   28.1923 O   0  0  0  0  0  0  0  0  0  0  0  0
   13.1417  -21.1351   27.0647 C   0  0  0  0  0  0  0  0  0  0  0  0
   12.1000  -21.6013   26.2904 C   0  0  0  0  0  0  0  0  0  0  0  0
   11.7047  -20.9014   25.1756 C   0  0  0  0  0  0  0  0  0  0  0  0
   12.3457  -19.7415   24.8349 C   0  0  0  0  0  0  0  0  0  0  0  0
   11.8816  -19.0210   23.6175 C   0  0  0  0  0  0  0  0  0  0  0  0
   10.5646  -18.3499   23.9787 C   0  0  2  0  0  0  0  0  0  0  0  0
   10.0229  -17.7331   22.7849 N   0  0  0  0  0  0  0  0  0  0  0  0
   10.8689  -17.3063   24.9913 C   0  0  0  0  0  0  0  0  0  0  0  0
   11.5469  -16.2791   24.7139 O   0  0  0  0  0  0  0  0  0  0  0  0
   13.3784  -19.2575   25.5820 C   0  0  0  0  0  0  0  0  0  0  0  0
   13.7640  -19.9757   26.7025 C   0  0  0  0  0  0  0  0  0  0  0  0
    8.9464  -12.0753   26.3824 C   0  0  0  0  0  0  0  0  0  0  0  0
    8.3270  -13.0782   27.7843 S   0  0  0  0  0  0  0  0  0  0  0  0
    9.4276  -14.3761   28.2334 C   0  0  0  0  0  0  0  0  0  0  0  0
    9.5932  -15.5106   27.3347 C   0  0  0  0  0  0  0  0  0  0  0  0
   10.7779  -16.3983   27.3215 C   0  0  2  0  0  0  0  0  0  0  0  0
   10.3970  -17.4520   26.2950 N   0  0  0  0  0  0  0  0  0  0  0  0
   10.8205  -17.2211   28.5999 C   0  0  0  0  0  0  0  0  0  0  0  0
   10.0573  -18.2712   28.6488 O   0  0  0  0  0  0  0  0  0  0  0  0
   11.5600  -16.9933   29.7043 O   0  0  0  0  0  0  0  0  0  0  0  0
  2  1  1  1
  3  2  1  0
  3  4  1  0
  4  5  2  0
  5  6  1  0
  7  6  2  0
  8  7  1  0
  9  8  2  0
  9  4  1  0
 10  2  1  0
 10 19  1  0
 11 10  2  0
 13 14  2  0
 13 12  1  0
 15 14  1  0
 16 15  2  0
 17 16  1  0
 18 17  1  6
 18 19  1  0
 20 29  1  0
 20 18  1  0
 21 20  2  0
 22 16  1  0
 22 23  2  0
 23 13  1  0
 24 25  1  0
 25 26  1  0
 26 27  1  0
 28 27  1  1
 28 29  1  0
 28 30  1  0
 30 32  1  0
 31 30  2  0
M  END
$$$$
