YWM.pdb
     RDKit          3D

 35 37  0  0  1  0  0  0  0  0999 V2000
    8.4799  -14.9271   13.4050 O   0  0  0  0  0  0  0  0  0  0  0  0
    8.5307  -14.6676   14.7680 C   0  0  0  0  0  0  0  0  0  0  0  0
    9.4869  -15.3324   15.5148 C   0  0  0  0  0  0  0  0  0  0  0  0
    9.5773  -15.1071   16.8780 C   0  0  0  0  0  0  0  0  0  0  0  0
    8.7214  -14.2283   17.4833 C   0  0  0  0  0  0  0  0  0  0  0  0
    8.8183  -13.9877   18.9304 C   0  0  0  0  0  0  0  0  0  0  0  0
    9.4207  -15.2129   19.5813 C   0  0  2  0  0  0  0  0  0  0  0  0
    8.7446  -16.4279   19.2627 N   0  0  0  0  0  0  0  0  0  0  0  0
    9.5541  -15.0778   21.0471 C   0  0  0  0  0  0  0  0  0  0  0  0
   10.3011  -14.1718   21.4960 O   0  0  0  0  0  0  0  0  0  0  0  0
    7.7800  -13.5778   16.7315 C   0  0  0  0  0  0  0  0  0  0  0  0
    7.6686  -13.7871   15.3571 C   0  0  0  0  0  0  0  0  0  0  0  0
    8.8722  -15.9291   21.9311 N   0  0  0  0  0  0  0  0  0  0  0  0
    8.6629  -15.6188   23.3612 C   0  0  1  0  0  0  0  0  0  0  0  0
    7.3351  -16.1467   23.7381 C   0  0  0  0  0  0  0  0  0  0  0  0
    6.5094  -15.3556   24.6533 C   0  0  0  0  0  0  0  0  0  0  0  0
    5.3101  -15.7198   25.2285 C   0  0  0  0  0  0  0  0  0  0  0  0
    4.8383  -14.7294   25.9874 N   0  0  0  0  0  0  0  0  0  0  0  0
    5.7108  -13.7188   25.9200 C   0  0  0  0  0  0  0  0  0  0  0  0
    5.7415  -12.4600   26.5087 C   0  0  0  0  0  0  0  0  0  0  0  0
    6.7762  -11.5600   26.3057 C   0  0  0  0  0  0  0  0  0  0  0  0
    7.8152  -11.9100   25.4964 C   0  0  0  0  0  0  0  0  0  0  0  0
    7.7951  -13.1518   24.9084 C   0  0  0  0  0  0  0  0  0  0  0  0
    6.7653  -14.0796   25.0944 C   0  0  0  0  0  0  0  0  0  0  0  0
    9.8228  -16.0167   24.1284 C   0  0  0  0  0  0  0  0  0  0  0  0
   10.6802  -16.8294   23.7028 O   0  0  0  0  0  0  0  0  0  0  0  0
   10.7443  -15.9560   31.4901 C   0  0  0  0  0  0  0  0  0  0  0  0
   11.6608  -14.9902   30.2883 S   0  0  0  0  0  0  0  0  0  0  0  0
   11.8653  -15.7970   28.7179 C   0  0  0  0  0  0  0  0  0  0  0  0
   11.0378  -15.3466   27.5894 C   0  0  0  0  0  0  0  0  0  0  0  0
   11.1637  -15.9906   26.2689 C   0  0  2  0  0  0  0  0  0  0  0  0
   10.0394  -15.4910   25.4208 N   0  0  0  0  0  0  0  0  0  0  0  0
   11.0227  -17.4356   26.2900 C   0  0  0  0  0  0  0  0  0  0  0  0
    9.7814  -18.0755   26.4163 O   0  0  0  0  0  0  0  0  0  0  0  0
   12.0534  -18.1861   26.1975 O   0  0  0  0  0  0  0  0  0  0  0  0
  2  1  1  0
  3  2  2  0
  4  3  1  0
  5  4  2  0
  5 11  1  0
  6  5  1  0
  7  6  1  0
  7  8  1  1
  9  7  1  0
 10  9  2  0
 11 12  2  0
 12  2  1  0
 13  9  1  0
 14 25  1  0
 14 13  1  0
 14 15  1  1
 16 15  1  0
 17 16  2  0
 18 17  1  0
 19 24  2  0
 19 18  1  0
 20 19  1  0
 21 20  2  0
 21 22  1  0
 22 23  2  0
 23 24  1  0
 24 16  1  0
 25 32  1  0
 26 25  2  0
 27 28  1  0
 28 29  1  0
 29 30  1  0
 31 30  1  1
 31 33  1  0
 32 31  1  0
 33 35  2  0
 33 34  1  0
M  END
$$$$
