YWM.pdb
     RDKit          3D

 35 37  0  0  1  0  0  0  0  0999 V2000
    9.9923  -20.3005   15.6820 O   0  0  0  0  0  0  0  0  0  0  0  0
   10.2558  -19.8770   16.9777 C   0  0  0  0  0  0  0  0  0  0  0  0
    9.2264  -19.9458   17.8994 C   0  0  0  0  0  0  0  0  0  0  0  0
    9.4399  -19.5351   19.2044 C   0  0  0  0  0  0  0  0  0  0  0  0
   10.6676  -19.0623   19.5794 C   0  0  0  0  0  0  0  0  0  0  0  0
   10.8951  -18.6278   20.9654 C   0  0  0  0  0  0  0  0  0  0  0  0
   10.1215  -17.3495   21.2006 C   0  0  2  0  0  0  0  0  0  0  0  0
   10.4895  -16.2826   20.3281 N   0  0  0  0  0  0  0  0  0  0  0  0
   10.1764  -16.8952   22.6060 C   0  0  0  0  0  0  0  0  0  0  0  0
   11.0940  -16.1038   22.9406 O   0  0  0  0  0  0  0  0  0  0  0  0
   11.6768  -18.9998   18.6563 C   0  0  0  0  0  0  0  0  0  0  0  0
   11.4873  -19.4075   17.3360 C   0  0  0  0  0  0  0  0  0  0  0  0
    9.2372  -17.3251   23.5570 N   0  0  0  0  0  0  0  0  0  0  0  0
    9.2902  -16.9425   24.9839 C   0  0  1  0  0  0  0  0  0  0  0  0
    7.8982  -16.7567   25.4436 C   0  0  0  0  0  0  0  0  0  0  0  0
    7.2404  -15.4788   25.1620 C   0  0  0  0  0  0  0  0  0  0  0  0
    6.2424  -15.2338   24.2423 C   0  0  0  0  0  0  0  0  0  0  0  0
    5.9089  -13.9423   24.2505 N   0  0  0  0  0  0  0  0  0  0  0  0
    6.6733  -13.3340   25.1632 C   0  0  0  0  0  0  0  0  0  0  0  0
    6.7501  -12.0170   25.6009 C   0  0  0  0  0  0  0  0  0  0  0  0
    7.6265  -11.6042   26.5926 C   0  0  0  0  0  0  0  0  0  0  0  0
    8.4549  -12.5174   27.1729 C   0  0  0  0  0  0  0  0  0  0  0  0
    8.3882  -13.8223   26.7475 C   0  0  0  0  0  0  0  0  0  0  0  0
    7.5151  -14.2674   25.7497 C   0  0  0  0  0  0  0  0  0  0  0  0
   10.1557  -17.8485   25.7068 C   0  0  0  0  0  0  0  0  0  0  0  0
   10.2922  -19.0582   25.3990 O   0  0  0  0  0  0  0  0  0  0  0  0
   16.5617  -18.1982   30.3668 C   0  0  0  0  0  0  0  0  0  0  0  0
   15.3813  -17.2836   29.3731 S   0  0  0  0  0  0  0  0  0  0  0  0
   13.9329  -18.2147   28.9327 C   0  0  0  0  0  0  0  0  0  0  0  0
   12.9178  -17.5679   28.0889 C   0  0  0  0  0  0  0  0  0  0  0  0
   11.7571  -18.3342   27.5989 C   0  0  2  0  0  0  0  0  0  0  0  0
   10.8999  -17.3927   26.8168 N   0  0  0  0  0  0  0  0  0  0  0  0
   10.9006  -18.8613   28.6463 C   0  0  0  0  0  0  0  0  0  0  0  0
    9.6772  -18.2716   28.9951 O   0  0  0  0  0  0  0  0  0  0  0  0
   11.2486  -19.9020   29.3020 O   0  0  0  0  0  0  0  0  0  0  0  0
  2  1  1  0
  3  2  2  0
  4  3  1  0
  5  4  2  0
  5 11  1  0
  6  5  1  0
  7  6  1  0
  7  8  1  6
  9  7  1  0
 10  9  2  0
 11 12  2  0
 12  2  1  0
 13  9  1  0
 14 25  1  0
 14 13  1  0
 14 15  1  1
 16 15  1  0
 17 16  2  0
 18 17  1  0
 19 24  2  0
 19 18  1  0
 20 19  1  0
 21 20  2  0
 21 22  1  0
 22 23  2  0
 23 24  1  0
 24 16  1  0
 25 32  1  0
 26 25  2  0
 27 28  1  0
 28 29  1  0
 29 30  1  0
 31 30  1  1
 31 33  1  0
 32 31  1  0
 33 35  2  0
 33 34  1  0
M  END
$$$$
