YWM.pdb
     RDKit          3D

 35 37  0  0  1  0  0  0  0  0999 V2000
   10.1414  -20.3290   15.5452 O   0  0  0  0  0  0  0  0  0  0  0  0
   10.2851  -19.8868   16.8534 C   0  0  0  0  0  0  0  0  0  0  0  0
   11.3680  -19.0763   17.1438 C   0  0  0  0  0  0  0  0  0  0  0  0
   11.5545  -18.6097   18.4341 C   0  0  0  0  0  0  0  0  0  0  0  0
   10.6681  -18.9510   19.4186 C   0  0  0  0  0  0  0  0  0  0  0  0
   10.8649  -18.4543   20.7883 C   0  0  0  0  0  0  0  0  0  0  0  0
    9.9513  -17.2683   21.0044 C   0  0  2  0  0  0  0  0  0  0  0  0
   10.2089  -16.1731   20.1275 N   0  0  0  0  0  0  0  0  0  0  0  0
    9.9386  -16.8012   22.4066 C   0  0  0  0  0  0  0  0  0  0  0  0
   10.8400  -16.0076   22.7780 O   0  0  0  0  0  0  0  0  0  0  0  0
    9.6012  -19.7541   19.1164 C   0  0  0  0  0  0  0  0  0  0  0  0
    9.3911  -20.2368   17.8249 C   0  0  0  0  0  0  0  0  0  0  0  0
    8.9538  -17.2212   23.3148 N   0  0  0  0  0  0  0  0  0  0  0  0
    8.9364  -16.8233   24.7384 C   0  0  1  0  0  0  0  0  0  0  0  0
    7.5230  -16.7767   25.1670 C   0  0  0  0  0  0  0  0  0  0  0  0
    6.9727  -15.4906   25.6009 C   0  0  0  0  0  0  0  0  0  0  0  0
    5.6586  -15.1987   25.9005 C   0  0  0  0  0  0  0  0  0  0  0  0
    5.5323  -13.9139   26.2360 N   0  0  0  0  0  0  0  0  0  0  0  0
    6.7451  -13.3564   26.1619 C   0  0  0  0  0  0  0  0  0  0  0  0
    7.2067  -12.0689   26.4095 C   0  0  0  0  0  0  0  0  0  0  0  0
    8.5396  -11.7102   26.2803 C   0  0  0  0  0  0  0  0  0  0  0  0
    9.4485  -12.6494   25.8946 C   0  0  0  0  0  0  0  0  0  0  0  0
    9.0033  -13.9255   25.6464 C   0  0  0  0  0  0  0  0  0  0  0  0
    7.6659  -14.3159   25.7679 C   0  0  0  0  0  0  0  0  0  0  0  0
    9.8738  -17.6301   25.4887 C   0  0  0  0  0  0  0  0  0  0  0  0
   10.0005  -18.8680   25.3207 O   0  0  0  0  0  0  0  0  0  0  0  0
   15.8400  -16.8599   23.9109 C   0  0  0  0  0  0  0  0  0  0  0  0
   15.2349  -16.8225   25.5989 S   0  0  0  0  0  0  0  0  0  0  0  0
   13.5561  -17.3784   25.7769 C   0  0  0  0  0  0  0  0  0  0  0  0
   12.9722  -17.4134   27.1255 C   0  0  0  0  0  0  0  0  0  0  0  0
   11.5882  -17.8804   27.3268 C   0  0  2  0  0  0  0  0  0  0  0  0
   10.7041  -17.0383   26.4653 N   0  0  0  0  0  0  0  0  0  0  0  0
   11.0885  -17.7111   28.6797 C   0  0  0  0  0  0  0  0  0  0  0  0
   10.0508  -16.8242   29.0002 O   0  0  0  0  0  0  0  0  0  0  0  0
   11.5972  -18.3787   29.6439 O   0  0  0  0  0  0  0  0  0  0  0  0
  2  1  1  0
  3  2  2  0
  4  3  1  0
  5  4  2  0
  5 11  1  0
  6  5  1  0
  7  6  1  0
  7  8  1  6
  9  7  1  0
 10  9  2  0
 11 12  2  0
 12  2  1  0
 13  9  1  0
 14 25  1  0
 14 13  1  0
 14 15  1  1
 16 15  1  0
 17 16  2  0
 18 17  1  0
 19 24  2  0
 19 18  1  0
 20 19  1  0
 21 20  2  0
 21 22  1  0
 22 23  2  0
 23 24  1  0
 24 16  1  0
 25 32  1  0
 26 25  2  0
 27 28  1  0
 28 29  1  0
 29 30  1  0
 31 30  1  1
 31 33  1  0
 32 31  1  0
 33 35  2  0
 33 34  1  0
M  END
$$$$
