YWM.pdb
     RDKit          3D

 35 37  0  0  1  0  0  0  0  0999 V2000
   13.4393  -21.8183   15.5524 O   0  0  0  0  0  0  0  0  0  0  0  0
   13.1385  -21.0372   16.6601 C   0  0  0  0  0  0  0  0  0  0  0  0
   14.0541  -20.0695   17.0334 C   0  0  0  0  0  0  0  0  0  0  0  0
   13.7993  -19.2653   18.1313 C   0  0  0  0  0  0  0  0  0  0  0  0
   12.6434  -19.4292   18.8444 C   0  0  0  0  0  0  0  0  0  0  0  0
   12.3718  -18.5741   20.0092 C   0  0  0  0  0  0  0  0  0  0  0  0
   11.1342  -17.7529   19.7234 C   0  0  2  0  0  0  0  0  0  0  0  0
   11.2344  -16.9453   18.5519 N   0  0  0  0  0  0  0  0  0  0  0  0
   10.7159  -16.9249   20.8741 C   0  0  0  0  0  0  0  0  0  0  0  0
   11.5588  -16.1431   21.3827 O   0  0  0  0  0  0  0  0  0  0  0  0
   11.7467  -20.3910   18.4634 C   0  0  0  0  0  0  0  0  0  0  0  0
   11.9799  -21.2136   17.3615 C   0  0  0  0  0  0  0  0  0  0  0  0
    9.4158  -16.9954   21.3993 N   0  0  0  0  0  0  0  0  0  0  0  0
    9.0057  -16.3233   22.6504 C   0  0  1  0  0  0  0  0  0  0  0  0
    7.5518  -16.0741   22.5622 C   0  0  0  0  0  0  0  0  0  0  0  0
    6.8821  -15.4659   23.7140 C   0  0  0  0  0  0  0  0  0  0  0  0
    6.0370  -16.0806   24.6138 C   0  0  0  0  0  0  0  0  0  0  0  0
    5.5991  -15.2013   25.5163 N   0  0  0  0  0  0  0  0  0  0  0  0
    6.1446  -14.0166   25.2230 C   0  0  0  0  0  0  0  0  0  0  0  0
    6.0549  -12.7646   25.8201 C   0  0  0  0  0  0  0  0  0  0  0  0
    6.7350  -11.6542   25.3443 C   0  0  0  0  0  0  0  0  0  0  0  0
    7.5296  -11.7797   24.2443 C   0  0  0  0  0  0  0  0  0  0  0  0
    7.6253  -13.0127   23.6453 C   0  0  0  0  0  0  0  0  0  0  0  0
    6.9511  -14.1496   24.1025 C   0  0  0  0  0  0  0  0  0  0  0  0
    9.5293  -17.0412   23.7918 C   0  0  0  0  0  0  0  0  0  0  0  0
   10.2213  -18.0838   23.6872 O   0  0  0  0  0  0  0  0  0  0  0  0
   10.5556  -12.2759   28.8893 C   0  0  0  0  0  0  0  0  0  0  0  0
   10.2881  -13.9648   29.4307 S   0  0  0  0  0  0  0  0  0  0  0  0
   10.8283  -15.1916   28.2637 C   0  0  0  0  0  0  0  0  0  0  0  0
    9.9847  -15.4563   27.0893 C   0  0  0  0  0  0  0  0  0  0  0  0
   10.3792  -16.4791   26.1032 C   0  0  2  0  0  0  0  0  0  0  0  0
    9.2741  -16.5829   25.1027 N   0  0  0  0  0  0  0  0  0  0  0  0
   10.5332  -17.8144   26.6525 C   0  0  0  0  0  0  0  0  0  0  0  0
   11.7510  -18.2915   27.1581 O   0  0  0  0  0  0  0  0  0  0  0  0
    9.5387  -18.6169   26.6867 O   0  0  0  0  0  0  0  0  0  0  0  0
  2  1  1  0
  3  2  2  0
  4  3  1  0
  5  4  2  0
  5 11  1  0
  6  5  1  0
  7  6  1  0
  7  8  1  6
  9  7  1  0
 10  9  2  0
 11 12  2  0
 12  2  1  0
 13  9  1  0
 14 25  1  0
 14 13  1  0
 14 15  1  1
 16 15  1  0
 17 16  2  0
 18 17  1  0
 19 24  2  0
 19 18  1  0
 20 19  1  0
 21 20  2  0
 21 22  1  0
 22 23  2  0
 23 24  1  0
 24 16  1  0
 25 32  1  0
 26 25  2  0
 27 28  1  0
 28 29  1  0
 29 30  1  0
 31 30  1  1
 31 33  1  0
 32 31  1  0
 33 35  2  0
 33 34  1  0
M  END
$$$$
