YWM.pdb
     RDKit          3D

 35 37  0  0  1  0  0  0  0  0999 V2000
    8.0126  -14.5475   13.3211 O   0  0  0  0  0  0  0  0  0  0  0  0
    8.2521  -14.4222   14.6829 C   0  0  0  0  0  0  0  0  0  0  0  0
    7.3559  -13.6770   15.4283 C   0  0  0  0  0  0  0  0  0  0  0  0
    7.5516  -13.5229   16.7904 C   0  0  0  0  0  0  0  0  0  0  0  0
    8.6300  -14.1074   17.3959 C   0  0  0  0  0  0  0  0  0  0  0  0
    8.8370  -13.9453   18.8424 C   0  0  0  0  0  0  0  0  0  0  0  0
    9.4221  -15.2282   19.3901 C   0  0  2  0  0  0  0  0  0  0  0  0
    8.6858  -16.3970   19.0345 N   0  0  0  0  0  0  0  0  0  0  0  0
    9.6292  -15.1864   20.8529 C   0  0  0  0  0  0  0  0  0  0  0  0
   10.4407  -14.3453   21.3156 O   0  0  0  0  0  0  0  0  0  0  0  0
    9.5086  -14.8418   16.6454 C   0  0  0  0  0  0  0  0  0  0  0  0
    9.3338  -15.0121   15.2723 C   0  0  0  0  0  0  0  0  0  0  0  0
    8.9466  -16.0551   21.7193 N   0  0  0  0  0  0  0  0  0  0  0  0
    8.9154  -15.8822   23.1871 C   0  0  1  0  0  0  0  0  0  0  0  0
    7.6392  -16.4481   23.6717 C   0  0  0  0  0  0  0  0  0  0  0  0
    6.8408  -15.6544   24.6086 C   0  0  0  0  0  0  0  0  0  0  0  0
    5.6838  -16.0342   25.2558 C   0  0  0  0  0  0  0  0  0  0  0  0
    5.2251  -15.0363   26.0128 N   0  0  0  0  0  0  0  0  0  0  0  0
    6.0645  -14.0053   25.8731 C   0  0  0  0  0  0  0  0  0  0  0  0
    6.0910  -12.7306   26.4268 C   0  0  0  0  0  0  0  0  0  0  0  0
    7.0884  -11.8095   26.1460 C   0  0  0  0  0  0  0  0  0  0  0  0
    8.0930  -12.1539   25.2921 C   0  0  0  0  0  0  0  0  0  0  0  0
    8.0766  -13.4114   24.7382 C   0  0  0  0  0  0  0  0  0  0  0  0
    7.0840  -14.3606   25.0024 C   0  0  0  0  0  0  0  0  0  0  0  0
   10.1569  -16.3468   23.7661 C   0  0  0  0  0  0  0  0  0  0  0  0
   10.8933  -17.2009   23.2139 O   0  0  0  0  0  0  0  0  0  0  0  0
   11.3160  -12.7087   28.8231 C   0  0  0  0  0  0  0  0  0  0  0  0
   11.2899  -14.4309   29.3234 S   0  0  0  0  0  0  0  0  0  0  0  0
   11.0058  -15.5672   27.9865 C   0  0  0  0  0  0  0  0  0  0  0  0
   12.0183  -15.6627   26.9252 C   0  0  0  0  0  0  0  0  0  0  0  0
   11.7579  -16.4658   25.7163 C   0  0  2  0  0  0  0  0  0  0  0  0
   10.5985  -15.8427   25.0088 N   0  0  0  0  0  0  0  0  0  0  0  0
   11.3606  -17.8372   25.9809 C   0  0  0  0  0  0  0  0  0  0  0  0
   10.0190  -18.2382   26.0541 O   0  0  0  0  0  0  0  0  0  0  0  0
   12.2453  -18.7413   26.1655 O   0  0  0  0  0  0  0  0  0  0  0  0
  2  1  1  0
  3  2  2  0
  4  3  1  0
  5  4  2  0
  5 11  1  0
  6  5  1  0
  7  6  1  0
  7  8  1  1
  9  7  1  0
 10  9  2  0
 11 12  2  0
 12  2  1  0
 13  9  1  0
 14 25  1  0
 14 13  1  0
 14 15  1  1
 16 15  1  0
 17 16  2  0
 18 17  1  0
 19 24  2  0
 19 18  1  0
 20 19  1  0
 21 20  2  0
 21 22  1  0
 22 23  2  0
 23 24  1  0
 24 16  1  0
 25 32  1  0
 26 25  2  0
 27 28  1  0
 28 29  1  0
 29 30  1  0
 31 30  1  1
 31 33  1  0
 32 31  1  0
 33 35  2  0
 33 34  1  0
M  END
$$$$
