YWM.pdb
     RDKit          3D

 35 37  0  0  1  0  0  0  0  0999 V2000
    7.5967  -14.3199   14.6154 O   0  0  0  0  0  0  0  0  0  0  0  0
    7.9731  -14.1888   15.9453 C   0  0  0  0  0  0  0  0  0  0  0  0
    9.3167  -14.3154   16.2496 C   0  0  0  0  0  0  0  0  0  0  0  0
    9.7418  -14.1926   17.5617 C   0  0  0  0  0  0  0  0  0  0  0  0
    8.8327  -13.9468   18.5539 C   0  0  0  0  0  0  0  0  0  0  0  0
    9.2839  -13.8146   19.9469 C   0  0  0  0  0  0  0  0  0  0  0  0
    9.6743  -15.1842   20.4568 C   0  0  2  0  0  0  0  0  0  0  0  0
    8.8100  -16.2314   20.0197 N   0  0  0  0  0  0  0  0  0  0  0  0
    9.8204  -15.2296   21.9269 C   0  0  0  0  0  0  0  0  0  0  0  0
   10.5768  -14.3892   22.4763 O   0  0  0  0  0  0  0  0  0  0  0  0
    7.5062  -13.8241   18.2378 C   0  0  0  0  0  0  0  0  0  0  0  0
    7.0528  -13.9433   16.9243 C   0  0  0  0  0  0  0  0  0  0  0  0
    9.1403  -16.1788   22.7064 N   0  0  0  0  0  0  0  0  0  0  0  0
    9.0733  -16.1227   24.1821 C   0  0  1  0  0  0  0  0  0  0  0  0
    7.7412  -16.6211   24.5832 C   0  0  0  0  0  0  0  0  0  0  0  0
    6.7837  -15.6649   25.1435 C   0  0  0  0  0  0  0  0  0  0  0  0
    5.4643  -15.8942   25.4728 C   0  0  0  0  0  0  0  0  0  0  0  0
    4.8991  -14.7776   25.9344 N   0  0  0  0  0  0  0  0  0  0  0  0
    5.8284  -13.8168   25.9138 C   0  0  0  0  0  0  0  0  0  0  0  0
    5.8075  -12.4780   26.2871 C   0  0  0  0  0  0  0  0  0  0  0  0
    6.9179  -11.6535   26.1917 C   0  0  0  0  0  0  0  0  0  0  0  0
    8.0877  -12.1629   25.7132 C   0  0  0  0  0  0  0  0  0  0  0  0
    8.1198  -13.4852   25.3404 C   0  0  0  0  0  0  0  0  0  0  0  0
    7.0162  -14.3401   25.4249 C   0  0  0  0  0  0  0  0  0  0  0  0
   10.2545  -16.7310   24.7541 C   0  0  0  0  0  0  0  0  0  0  0  0
   11.0820  -17.3901   24.0777 O   0  0  0  0  0  0  0  0  0  0  0  0
   10.4033  -13.5422   30.6257 C   0  0  0  0  0  0  0  0  0  0  0  0
   11.3091  -15.0415   30.2400 S   0  0  0  0  0  0  0  0  0  0  0  0
   11.2108  -15.5259   28.5328 C   0  0  0  0  0  0  0  0  0  0  0  0
   11.8258  -16.7996   28.1327 C   0  0  0  0  0  0  0  0  0  0  0  0
   11.7141  -17.2772   26.7420 C   0  0  2  0  0  0  0  0  0  0  0  0
   10.5279  -16.6024   26.1333 N   0  0  0  0  0  0  0  0  0  0  0  0
   11.4591  -18.7011   26.6151 C   0  0  0  0  0  0  0  0  0  0  0  0
   10.1666  -19.2445   26.6232 O   0  0  0  0  0  0  0  0  0  0  0  0
   12.4312  -19.5226   26.4952 O   0  0  0  0  0  0  0  0  0  0  0  0
  2  1  1  0
  3  2  2  0
  4  3  1  0
  5  4  2  0
  5 11  1  0
  6  5  1  0
  7  6  1  0
  7  8  1  1
  9  7  1  0
 10  9  2  0
 11 12  2  0
 12  2  1  0
 13  9  1  0
 14 25  1  0
 14 13  1  0
 14 15  1  1
 16 15  1  0
 17 16  2  0
 18 17  1  0
 19 24  2  0
 19 18  1  0
 20 19  1  0
 21 20  2  0
 21 22  1  0
 22 23  2  0
 23 24  1  0
 24 16  1  0
 25 32  1  0
 26 25  2  0
 27 28  1  0
 28 29  1  0
 29 30  1  0
 31 30  1  1
 31 33  1  0
 32 31  1  0
 33 35  2  0
 33 34  1  0
M  END
$$$$
