YWM.pdb
     RDKit          3D

 35 37  0  0  1  0  0  0  0  0999 V2000
   13.1263  -22.8204   16.0358 O   0  0  0  0  0  0  0  0  0  0  0  0
   13.0050  -21.9006   17.0687 C   0  0  0  0  0  0  0  0  0  0  0  0
   13.7111  -20.7157   16.9620 C   0  0  0  0  0  0  0  0  0  0  0  0
   13.6226  -19.7667   17.9664 C   0  0  0  0  0  0  0  0  0  0  0  0
   12.8376  -20.0025   19.0616 C   0  0  0  0  0  0  0  0  0  0  0  0
   12.7420  -18.9943   20.1273 C   0  0  0  0  0  0  0  0  0  0  0  0
   11.5308  -18.1282   19.8612 C   0  0  2  0  0  0  0  0  0  0  0  0
   11.5609  -17.4649   18.5987 N   0  0  0  0  0  0  0  0  0  0  0  0
   11.2756  -17.1506   20.9400 C   0  0  0  0  0  0  0  0  0  0  0  0
   12.0537  -16.1696   21.0509 O   0  0  0  0  0  0  0  0  0  0  0  0
   12.1446  -21.1798   19.1536 C   0  0  0  0  0  0  0  0  0  0  0  0
   12.2169  -22.1514   18.1557 C   0  0  0  0  0  0  0  0  0  0  0  0
   10.1973  -17.2966   21.8274 N   0  0  0  0  0  0  0  0  0  0  0  0
    9.9150  -16.3507   22.9277 C   0  0  1  0  0  0  0  0  0  0  0  0
    8.5433  -15.8381   22.7288 C   0  0  0  0  0  0  0  0  0  0  0  0
    8.1585  -14.6038   23.4168 C   0  0  0  0  0  0  0  0  0  0  0  0
    8.3875  -13.3076   23.0052 C   0  0  0  0  0  0  0  0  0  0  0  0
    7.9138  -12.4435   23.9042 N   0  0  0  0  0  0  0  0  0  0  0  0
    7.3759  -13.1529   24.9014 C   0  0  0  0  0  0  0  0  0  0  0  0
    6.7352  -12.7864   26.0792 C   0  0  0  0  0  0  0  0  0  0  0  0
    6.2315  -13.7117   26.9804 C   0  0  0  0  0  0  0  0  0  0  0  0
    6.3625  -15.0417   26.7140 C   0  0  0  0  0  0  0  0  0  0  0  0
    6.9950  -15.4156   25.5528 C   0  0  0  0  0  0  0  0  0  0  0  0
    7.5131  -14.5053   24.6260 C   0  0  0  0  0  0  0  0  0  0  0  0
   10.2659  -16.9497   24.1968 C   0  0  0  0  0  0  0  0  0  0  0  0
   10.0745  -18.1628   24.4584 O   0  0  0  0  0  0  0  0  0  0  0  0
    8.7951  -12.8926   28.5198 C   0  0  0  0  0  0  0  0  0  0  0  0
   10.5567  -13.1927   28.6741 S   0  0  0  0  0  0  0  0  0  0  0  0
   11.1921  -14.3775   27.5116 C   0  0  0  0  0  0  0  0  0  0  0  0
   10.6764  -15.7530   27.5655 C   0  0  0  0  0  0  0  0  0  0  0  0
   11.1088  -16.7509   26.5697 C   0  0  2  0  0  0  0  0  0  0  0  0
   10.8532  -16.1699   25.2169 N   0  0  0  0  0  0  0  0  0  0  0  0
   10.3632  -17.9964   26.6053 C   0  0  0  0  0  0  0  0  0  0  0  0
    8.9642  -18.0415   26.6895 O   0  0  0  0  0  0  0  0  0  0  0  0
   10.9766  -19.1173   26.5658 O   0  0  0  0  0  0  0  0  0  0  0  0
  2  1  1  0
  3  2  2  0
  4  3  1  0
  5  4  2  0
  5 11  1  0
  6  5  1  0
  7  6  1  0
  7  8  1  6
  9  7  1  0
 10  9  2  0
 11 12  2  0
 12  2  1  0
 13  9  1  0
 14 25  1  0
 14 13  1  0
 14 15  1  1
 16 15  1  0
 17 16  2  0
 18 17  1  0
 19 24  2  0
 19 18  1  0
 20 19  1  0
 21 20  2  0
 21 22  1  0
 22 23  2  0
 23 24  1  0
 24 16  1  0
 25 32  1  0
 26 25  2  0
 27 28  1  0
 28 29  1  0
 29 30  1  0
 31 30  1  1
 31 33  1  0
 32 31  1  0
 33 35  2  0
 33 34  1  0
M  END
$$$$
