YWM.pdb
     RDKit          3D

 35 37  0  0  1  0  0  0  0  0999 V2000
    9.9593  -20.7512   14.1467 O   0  0  0  0  0  0  0  0  0  0  0  0
   10.0951  -19.9621   15.2810 C   0  0  0  0  0  0  0  0  0  0  0  0
   10.6902  -18.7218   15.1350 C   0  0  0  0  0  0  0  0  0  0  0  0
   10.8481  -17.8981   16.2367 C   0  0  0  0  0  0  0  0  0  0  0  0
   10.4157  -18.3122   17.4667 C   0  0  0  0  0  0  0  0  0  0  0  0
   10.5816  -17.4371   18.6363 C   0  0  0  0  0  0  0  0  0  0  0  0
    9.2158  -16.9560   19.0733 C   0  0  2  0  0  0  0  0  0  0  0  0
    8.5903  -16.0718   18.1450 N   0  0  0  0  0  0  0  0  0  0  0  0
    9.2244  -16.3504   20.4216 C   0  0  0  0  0  0  0  0  0  0  0  0
    9.7305  -15.2078   20.5578 O   0  0  0  0  0  0  0  0  0  0  0  0
    9.8287  -19.5424   17.5960 C   0  0  0  0  0  0  0  0  0  0  0  0
    9.6579  -20.3904   16.5020 C   0  0  0  0  0  0  0  0  0  0  0  0
    8.6859  -17.0180   21.5332 N   0  0  0  0  0  0  0  0  0  0  0  0
    8.6932  -16.4578   22.9011 C   0  0  1  0  0  0  0  0  0  0  0  0
    7.4296  -16.8631   23.5513 C   0  0  0  0  0  0  0  0  0  0  0  0
    6.7868  -15.9170   24.4661 C   0  0  0  0  0  0  0  0  0  0  0  0
    5.6261  -16.1040   25.1870 C   0  0  0  0  0  0  0  0  0  0  0  0
    5.3362  -15.0107   25.8940 N   0  0  0  0  0  0  0  0  0  0  0  0
    6.2903  -14.1069   25.6487 C   0  0  0  0  0  0  0  0  0  0  0  0
    6.5054  -12.8146   26.1133 C   0  0  0  0  0  0  0  0  0  0  0  0
    7.5949  -12.0488   25.7279 C   0  0  0  0  0  0  0  0  0  0  0  0
    8.5028  -12.5716   24.8566 C   0  0  0  0  0  0  0  0  0  0  0  0
    8.2998  -13.8481   24.3902 C   0  0  0  0  0  0  0  0  0  0  0  0
    7.2108  -14.6435   24.7607 C   0  0  0  0  0  0  0  0  0  0  0  0
    9.9490  -16.7601   23.5524 C   0  0  0  0  0  0  0  0  0  0  0  0
   10.9769  -17.1183   22.9264 O   0  0  0  0  0  0  0  0  0  0  0  0
    9.6118  -13.0321   28.9806 C   0  0  0  0  0  0  0  0  0  0  0  0
   11.1383  -13.9462   29.2070 S   0  0  0  0  0  0  0  0  0  0  0  0
   11.7545  -14.7024   27.7213 C   0  0  0  0  0  0  0  0  0  0  0  0
   10.7891  -15.3208   26.8014 C   0  0  0  0  0  0  0  0  0  0  0  0
   11.2542  -15.9953   25.5753 C   0  0  2  0  0  0  0  0  0  0  0  0
   10.0682  -16.6606   24.9558 N   0  0  0  0  0  0  0  0  0  0  0  0
   12.2200  -17.0555   25.8032 C   0  0  0  0  0  0  0  0  0  0  0  0
   11.8480  -18.3954   25.9832 O   0  0  0  0  0  0  0  0  0  0  0  0
   13.4695  -16.7904   25.8534 O   0  0  0  0  0  0  0  0  0  0  0  0
  2  1  1  0
  3  2  2  0
  4  3  1  0
  5  4  2  0
  5 11  1  0
  6  5  1  0
  7  6  1  0
  7  8  1  6
  9  7  1  0
 10  9  2  0
 11 12  2  0
 12  2  1  0
 13  9  1  0
 14 25  1  0
 14 13  1  0
 14 15  1  1
 16 15  1  0
 17 16  2  0
 18 17  1  0
 19 24  2  0
 19 18  1  0
 20 19  1  0
 21 20  2  0
 21 22  1  0
 22 23  2  0
 23 24  1  0
 24 16  1  0
 25 32  1  0
 26 25  2  0
 27 28  1  0
 28 29  1  0
 29 30  1  0
 31 30  1  1
 31 33  1  0
 32 31  1  0
 33 35  2  0
 33 34  1  0
M  END
$$$$
