YWM.pdb
     RDKit          3D

 35 37  0  0  1  0  0  0  0  0999 V2000
   12.1192  -21.1081   14.9807 O   0  0  0  0  0  0  0  0  0  0  0  0
   12.0322  -20.4878   16.2198 C   0  0  0  0  0  0  0  0  0  0  0  0
   13.1678  -19.8690   16.7111 C   0  0  0  0  0  0  0  0  0  0  0  0
   13.1312  -19.2367   17.9424 C   0  0  0  0  0  0  0  0  0  0  0  0
   11.9730  -19.2253   18.6702 C   0  0  0  0  0  0  0  0  0  0  0  0
   11.9334  -18.5524   19.9768 C   0  0  0  0  0  0  0  0  0  0  0  0
   11.1846  -17.2474   19.8220 C   0  0  2  0  0  0  0  0  0  0  0  0
   11.8264  -16.3120   18.9572 N   0  0  0  0  0  0  0  0  0  0  0  0
   10.8725  -16.6071   21.1171 C   0  0  0  0  0  0  0  0  0  0  0  0
   11.7463  -15.8731   21.6443 O   0  0  0  0  0  0  0  0  0  0  0  0
   10.8571  -19.8420   18.1713 C   0  0  0  0  0  0  0  0  0  0  0  0
   10.8680  -20.4855   16.9340 C   0  0  0  0  0  0  0  0  0  0  0  0
    9.6380  -16.8012   21.7570 N   0  0  0  0  0  0  0  0  0  0  0  0
    9.2924  -16.1946   23.0600 C   0  0  1  0  0  0  0  0  0  0  0  0
    7.8253  -16.0198   23.0908 C   0  0  0  0  0  0  0  0  0  0  0  0
    7.2315  -15.3519   24.2511 C   0  0  0  0  0  0  0  0  0  0  0  0
    6.5908  -15.9408   25.3210 C   0  0  0  0  0  0  0  0  0  0  0  0
    6.1592  -15.0108   26.1742 N   0  0  0  0  0  0  0  0  0  0  0  0
    6.5074  -13.8181   25.6810 C   0  0  0  0  0  0  0  0  0  0  0  0
    6.3326  -12.5195   26.1448 C   0  0  0  0  0  0  0  0  0  0  0  0
    6.8000  -11.4076   25.4613 C   0  0  0  0  0  0  0  0  0  0  0  0
    7.4612  -11.5790   24.2821 C   0  0  0  0  0  0  0  0  0  0  0  0
    7.6392  -12.8585   23.8135 C   0  0  0  0  0  0  0  0  0  0  0  0
    7.1787  -13.9981   24.4807 C   0  0  0  0  0  0  0  0  0  0  0  0
    9.9377  -16.9221   24.1308 C   0  0  0  0  0  0  0  0  0  0  0  0
   10.1105  -18.1656   24.1076 O   0  0  0  0  0  0  0  0  0  0  0  0
    9.3056  -12.5048   28.7105 C   0  0  0  0  0  0  0  0  0  0  0  0
   10.4102  -13.9166   28.6488 S   0  0  0  0  0  0  0  0  0  0  0  0
    9.7778  -15.2881   27.7117 C   0  0  0  0  0  0  0  0  0  0  0  0
   10.5824  -16.5164   27.6437 C   0  0  0  0  0  0  0  0  0  0  0  0
   11.1329  -16.9768   26.3555 C   0  0  2  0  0  0  0  0  0  0  0  0
   10.4101  -16.2413   25.2739 N   0  0  0  0  0  0  0  0  0  0  0  0
   10.9162  -18.3858   26.0795 C   0  0  0  0  0  0  0  0  0  0  0  0
   11.6279  -19.4047   26.7287 O   0  0  0  0  0  0  0  0  0  0  0  0
   10.0519  -18.7477   25.2098 O   0  0  0  0  0  0  0  0  0  0  0  0
  2  1  1  0
  3  2  2  0
  4  3  1  0
  5  4  2  0
  5 11  1  0
  6  5  1  0
  7  6  1  0
  7  8  1  6
  9  7  1  0
 10  9  2  0
 11 12  2  0
 12  2  1  0
 13  9  1  0
 14 25  1  0
 14 13  1  0
 14 15  1  1
 16 15  1  0
 17 16  2  0
 18 17  1  0
 19 24  2  0
 19 18  1  0
 20 19  1  0
 21 20  2  0
 21 22  1  0
 22 23  2  0
 23 24  1  0
 24 16  1  0
 25 32  1  0
 26 25  2  0
 27 28  1  0
 28 29  1  0
 29 30  1  0
 31 30  1  1
 31 33  1  0
 32 31  1  0
 33 35  2  0
 33 34  1  0
M  END
$$$$
