YWM.pdb
     RDKit          3D

 35 37  0  0  1  0  0  0  0  0999 V2000
   14.1717  -21.9071   16.1721 O   0  0  0  0  0  0  0  0  0  0  0  0
   13.7780  -21.0494   17.1904 C   0  0  0  0  0  0  0  0  0  0  0  0
   14.5715  -19.9451   17.4450 C   0  0  0  0  0  0  0  0  0  0  0  0
   14.2207  -19.0601   18.4505 C   0  0  0  0  0  0  0  0  0  0  0  0
   13.0908  -19.2795   19.1898 C   0  0  0  0  0  0  0  0  0  0  0  0
   12.7171  -18.3390   20.2563 C   0  0  0  0  0  0  0  0  0  0  0  0
   11.4277  -17.6539   19.8618 C   0  0  2  0  0  0  0  0  0  0  0  0
   11.5197  -16.9007   18.6539 N   0  0  0  0  0  0  0  0  0  0  0  0
   10.8709  -16.8120   20.9415 C   0  0  0  0  0  0  0  0  0  0  0  0
   11.4724  -15.7487   21.2376 O   0  0  0  0  0  0  0  0  0  0  0  0
   12.3153  -20.3767   18.9267 C   0  0  0  0  0  0  0  0  0  0  0  0
   12.6468  -21.2827   17.9195 C   0  0  0  0  0  0  0  0  0  0  0  0
    9.7018  -17.1734   21.6298 N   0  0  0  0  0  0  0  0  0  0  0  0
    9.1895  -16.4388   22.8058 C   0  0  1  0  0  0  0  0  0  0  0  0
    7.7366  -16.6953   22.8887 C   0  0  0  0  0  0  0  0  0  0  0  0
    6.9597  -15.9623   23.8909 C   0  0  0  0  0  0  0  0  0  0  0  0
    5.9409  -16.4488   24.6829 C   0  0  0  0  0  0  0  0  0  0  0  0
    5.4529  -15.4806   25.4599 N   0  0  0  0  0  0  0  0  0  0  0  0
    6.1367  -14.3639   25.1905 C   0  0  0  0  0  0  0  0  0  0  0  0
    6.0692  -13.0722   25.6995 C   0  0  0  0  0  0  0  0  0  0  0  0
    6.9060  -12.0519   25.2744 C   0  0  0  0  0  0  0  0  0  0  0  0
    7.8403  -12.3110   24.3167 C   0  0  0  0  0  0  0  0  0  0  0  0
    7.9155  -13.5844   23.8058 C   0  0  0  0  0  0  0  0  0  0  0  0
    7.0850  -14.6328   24.2147 C   0  0  0  0  0  0  0  0  0  0  0  0
   10.0197  -16.7109   23.9588 C   0  0  0  0  0  0  0  0  0  0  0  0
   10.7432  -17.7325   24.0566 O   0  0  0  0  0  0  0  0  0  0  0  0
    9.9238  -12.4662   29.0859 C   0  0  0  0  0  0  0  0  0  0  0  0
   10.6207  -13.9449   29.8240 S   0  0  0  0  0  0  0  0  0  0  0  0
   11.0583  -15.2024   28.6466 C   0  0  0  0  0  0  0  0  0  0  0  0
   10.4867  -15.1214   27.2948 C   0  0  0  0  0  0  0  0  0  0  0  0
   10.8434  -16.1232   26.2732 C   0  0  2  0  0  0  0  0  0  0  0  0
   10.0475  -15.8122   25.0474 N   0  0  0  0  0  0  0  0  0  0  0  0
   10.4976  -17.4888   26.6254 C   0  0  0  0  0  0  0  0  0  0  0  0
   11.4238  -18.3905   27.1688 O   0  0  0  0  0  0  0  0  0  0  0  0
    9.3092  -17.9220   26.4401 O   0  0  0  0  0  0  0  0  0  0  0  0
  2  1  1  0
  3  2  2  0
  4  3  1  0
  5  4  2  0
  5 11  1  0
  6  5  1  0
  7  6  1  0
  7  8  1  6
  9  7  1  0
 10  9  2  0
 11 12  2  0
 12  2  1  0
 13  9  1  0
 14 25  1  0
 14 13  1  0
 14 15  1  1
 16 15  1  0
 17 16  2  0
 18 17  1  0
 19 24  2  0
 19 18  1  0
 20 19  1  0
 21 20  2  0
 21 22  1  0
 22 23  2  0
 23 24  1  0
 24 16  1  0
 25 32  1  0
 26 25  2  0
 27 28  1  0
 28 29  1  0
 29 30  1  0
 31 30  1  1
 31 33  1  0
 32 31  1  0
 33 35  2  0
 33 34  1  0
M  END
$$$$
