YWM.pdb
     RDKit          3D

 35 37  0  0  1  0  0  0  0  0999 V2000
   11.9711  -22.7848   15.7799 O   0  0  0  0  0  0  0  0  0  0  0  0
   11.8867  -21.9108   16.8554 C   0  0  0  0  0  0  0  0  0  0  0  0
   12.6965  -20.7893   16.8387 C   0  0  0  0  0  0  0  0  0  0  0  0
   12.6486  -19.8877   17.8885 C   0  0  0  0  0  0  0  0  0  0  0  0
   11.8011  -20.1077   18.9395 C   0  0  0  0  0  0  0  0  0  0  0  0
   11.7486  -19.1496   20.0534 C   0  0  0  0  0  0  0  0  0  0  0  0
   10.6539  -18.1449   19.7710 C   0  0  2  0  0  0  0  0  0  0  0  0
   10.8738  -17.3654   18.5968 N   0  0  0  0  0  0  0  0  0  0  0  0
   10.3765  -17.2592   20.9213 C   0  0  0  0  0  0  0  0  0  0  0  0
   11.0017  -16.1714   20.9996 O   0  0  0  0  0  0  0  0  0  0  0  0
   11.0057  -21.2221   18.9424 C   0  0  0  0  0  0  0  0  0  0  0  0
   11.0352  -22.1451   17.8973 C   0  0  0  0  0  0  0  0  0  0  0  0
    9.4425  -17.6060   21.9106 N   0  0  0  0  0  0  0  0  0  0  0  0
    9.1656  -16.7697   23.0976 C   0  0  1  0  0  0  0  0  0  0  0  0
    7.7034  -16.5656   23.1630 C   0  0  0  0  0  0  0  0  0  0  0  0
    7.1626  -15.7802   24.2746 C   0  0  0  0  0  0  0  0  0  0  0  0
    6.4892  -16.2486   25.3832 C   0  0  0  0  0  0  0  0  0  0  0  0
    6.1265  -15.2344   26.1701 N   0  0  0  0  0  0  0  0  0  0  0  0
    6.5523  -14.1052   25.5950 C   0  0  0  0  0  0  0  0  0  0  0  0
    6.4687  -12.7688   25.9678 C   0  0  0  0  0  0  0  0  0  0  0  0
    7.0069  -11.7414   25.2084 C   0  0  0  0  0  0  0  0  0  0  0  0
    7.6485  -12.0386   24.0435 C   0  0  0  0  0  0  0  0  0  0  0  0
    7.7365  -13.3566   23.6647 C   0  0  0  0  0  0  0  0  0  0  0  0
    7.2033  -14.4133   24.4096 C   0  0  0  0  0  0  0  0  0  0  0  0
    9.8543  -17.3052   24.2514 C   0  0  0  0  0  0  0  0  0  0  0  0
   10.2001  -18.5086   24.3456 O   0  0  0  0  0  0  0  0  0  0  0  0
    8.5991  -12.5420   28.6144 C   0  0  0  0  0  0  0  0  0  0  0  0
    9.7681  -13.8789   28.8658 S   0  0  0  0  0  0  0  0  0  0  0  0
   10.2165  -14.7364   27.3750 C   0  0  0  0  0  0  0  0  0  0  0  0
   11.0879  -15.9152   27.4835 C   0  0  0  0  0  0  0  0  0  0  0  0
   11.0755  -16.9509   26.4340 C   0  0  2  0  0  0  0  0  0  0  0  0
   10.1719  -16.4706   25.3450 N   0  0  0  0  0  0  0  0  0  0  0  0
   10.5293  -18.2279   26.8576 C   0  0  0  0  0  0  0  0  0  0  0  0
   11.2391  -19.1260   27.6675 O   0  0  0  0  0  0  0  0  0  0  0  0
    9.3574  -18.5825   26.4901 O   0  0  0  0  0  0  0  0  0  0  0  0
  2  1  1  0
  3  2  2  0
  4  3  1  0
  5  4  2  0
  5 11  1  0
  6  5  1  0
  7  6  1  0
  7  8  1  6
  9  7  1  0
 10  9  2  0
 11 12  2  0
 12  2  1  0
 13  9  1  0
 14 25  1  0
 14 13  1  0
 14 15  1  1
 16 15  1  0
 17 16  2  0
 18 17  1  0
 19 24  2  0
 19 18  1  0
 20 19  1  0
 21 20  2  0
 21 22  1  0
 22 23  2  0
 23 24  1  0
 24 16  1  0
 25 32  1  0
 26 25  2  0
 27 28  1  0
 28 29  1  0
 29 30  1  0
 31 30  1  1
 31 33  1  0
 32 31  1  0
 33 35  2  0
 33 34  1  0
M  END
$$$$
