YWM.pdb
     RDKit          3D

 35 37  0  0  1  0  0  0  0  0999 V2000
   13.0330  -21.8444   15.7141 O   0  0  0  0  0  0  0  0  0  0  0  0
   12.8219  -20.8628   16.6731 C   0  0  0  0  0  0  0  0  0  0  0  0
   12.4076  -21.2684   17.9292 C   0  0  0  0  0  0  0  0  0  0  0  0
   12.1838  -20.3269   18.9195 C   0  0  0  0  0  0  0  0  0  0  0  0
   12.3725  -18.9983   18.6539 C   0  0  0  0  0  0  0  0  0  0  0  0
   12.1366  -17.9986   19.7058 C   0  0  0  0  0  0  0  0  0  0  0  0
   10.6517  -17.7203   19.7790 C   0  0  2  0  0  0  0  0  0  0  0  0
   10.0718  -17.3460   18.5306 N   0  0  0  0  0  0  0  0  0  0  0  0
   10.3040  -16.7266   20.8163 C   0  0  0  0  0  0  0  0  0  0  0  0
   11.0620  -15.7355   20.9694 O   0  0  0  0  0  0  0  0  0  0  0  0
   12.7825  -18.6117   17.4061 C   0  0  0  0  0  0  0  0  0  0  0  0
   13.0148  -19.5403   16.3918 C   0  0  0  0  0  0  0  0  0  0  0  0
    9.1611  -16.8682   21.6195 N   0  0  0  0  0  0  0  0  0  0  0  0
    8.8224  -15.9451   22.7232 C   0  0  1  0  0  0  0  0  0  0  0  0
    7.4535  -16.2755   23.1713 C   0  0  0  0  0  0  0  0  0  0  0  0
    6.9225  -15.5805   24.3461 C   0  0  0  0  0  0  0  0  0  0  0  0
    6.2925  -16.1397   25.4380 C   0  0  0  0  0  0  0  0  0  0  0  0
    5.9244  -15.1902   26.2995 N   0  0  0  0  0  0  0  0  0  0  0  0
    6.3038  -14.0139   25.7899 C   0  0  0  0  0  0  0  0  0  0  0  0
    6.1946  -12.7078   26.2525 C   0  0  0  0  0  0  0  0  0  0  0  0
    6.6840  -11.6177   25.5495 C   0  0  0  0  0  0  0  0  0  0  0  0
    7.3012  -11.8194   24.3514 C   0  0  0  0  0  0  0  0  0  0  0  0
    7.4142  -13.1067   23.8838 C   0  0  0  0  0  0  0  0  0  0  0  0
    6.9301  -14.2248   24.5704 C   0  0  0  0  0  0  0  0  0  0  0  0
    9.8946  -15.9206   23.6939 C   0  0  0  0  0  0  0  0  0  0  0  0
   10.6768  -14.9472   23.8267 O   0  0  0  0  0  0  0  0  0  0  0  0
   10.8902  -12.6463   28.3112 C   0  0  0  0  0  0  0  0  0  0  0  0
   10.4030  -14.2666   28.9067 S   0  0  0  0  0  0  0  0  0  0  0  0
   11.0424  -15.6139   27.9398 C   0  0  0  0  0  0  0  0  0  0  0  0
   10.4457  -15.8707   26.6211 C   0  0  0  0  0  0  0  0  0  0  0  0
   11.0129  -16.9034   25.7345 C   0  0  2  0  0  0  0  0  0  0  0  0
   10.1071  -17.0216   24.5519 N   0  0  0  0  0  0  0  0  0  0  0  0
   11.0661  -18.2321   26.3179 C   0  0  0  0  0  0  0  0  0  0  0  0
   12.1593  -18.6885   27.0681 O   0  0  0  0  0  0  0  0  0  0  0  0
   10.0952  -19.0476   26.1556 O   0  0  0  0  0  0  0  0  0  0  0  0
  2  1  1  0
  3  2  2  0
  4  3  1  0
  5  4  2  0
  5 11  1  0
  6  5  1  0
  7  6  1  0
  7  8  1  6
  9  7  1  0
 10  9  2  0
 11 12  2  0
 12  2  1  0
 13  9  1  0
 14 25  1  0
 14 13  1  0
 14 15  1  1
 16 15  1  0
 17 16  2  0
 18 17  1  0
 19 24  2  0
 19 18  1  0
 20 19  1  0
 21 20  2  0
 21 22  1  0
 22 23  2  0
 23 24  1  0
 24 16  1  0
 25 32  1  0
 26 25  2  0
 27 28  1  0
 28 29  1  0
 29 30  1  0
 31 30  1  1
 31 33  1  0
 32 31  1  0
 33 35  2  0
 33 34  1  0
M  END
$$$$
