YWM.pdb
     RDKit          3D

 35 37  0  0  1  0  0  0  0  0999 V2000
   13.6729  -21.6079   15.8397 O   0  0  0  0  0  0  0  0  0  0  0  0
   13.3465  -20.8416   16.9505 C   0  0  0  0  0  0  0  0  0  0  0  0
   14.0515  -19.6686   17.1533 C   0  0  0  0  0  0  0  0  0  0  0  0
   13.7626  -18.8701   18.2470 C   0  0  0  0  0  0  0  0  0  0  0  0
   12.7813  -19.2424   19.1243 C   0  0  0  0  0  0  0  0  0  0  0  0
   12.4732  -18.3937   20.2847 C   0  0  0  0  0  0  0  0  0  0  0  0
   11.3784  -17.4259   19.8941 C   0  0  2  0  0  0  0  0  0  0  0  0
   11.7435  -16.5344   18.8421 N   0  0  0  0  0  0  0  0  0  0  0  0
   10.8500  -16.6620   21.0438 C   0  0  0  0  0  0  0  0  0  0  0  0
   11.4176  -15.5842   21.3540 O   0  0  0  0  0  0  0  0  0  0  0  0
   12.0920  -20.4059   18.9109 C   0  0  0  0  0  0  0  0  0  0  0  0
   12.3638  -21.2274   17.8171 C   0  0  0  0  0  0  0  0  0  0  0  0
    9.7438  -17.1119   21.7823 N   0  0  0  0  0  0  0  0  0  0  0  0
    9.2497  -16.4369   23.0010 C   0  0  1  0  0  0  0  0  0  0  0  0
    7.7743  -16.5189   22.9842 C   0  0  0  0  0  0  0  0  0  0  0  0
    7.0340  -15.9097   24.0914 C   0  0  0  0  0  0  0  0  0  0  0  0
    6.2706  -16.5515   25.0438 C   0  0  0  0  0  0  0  0  0  0  0  0
    5.7271  -15.6651   25.8793 N   0  0  0  0  0  0  0  0  0  0  0  0
    6.1227  -14.4488   25.4903 C   0  0  0  0  0  0  0  0  0  0  0  0
    5.8791  -13.1746   25.9895 C   0  0  0  0  0  0  0  0  0  0  0  0
    6.4175  -12.0296   25.4230 C   0  0  0  0  0  0  0  0  0  0  0  0
    7.2222  -12.1418   24.3289 C   0  0  0  0  0  0  0  0  0  0  0  0
    7.4694  -13.3966   23.8264 C   0  0  0  0  0  0  0  0  0  0  0  0
    6.9402  -14.5686   24.3762 C   0  0  0  0  0  0  0  0  0  0  0  0
    9.9689  -16.9194   24.1596 C   0  0  0  0  0  0  0  0  0  0  0  0
   10.6766  -17.9565   24.1440 O   0  0  0  0  0  0  0  0  0  0  0  0
   11.0590  -12.0136   29.6425 C   0  0  0  0  0  0  0  0  0  0  0  0
   10.2868  -13.6145   29.4017 S   0  0  0  0  0  0  0  0  0  0  0  0
   10.9876  -14.5616   28.0709 C   0  0  0  0  0  0  0  0  0  0  0  0
   10.3428  -15.8303   27.7028 C   0  0  0  0  0  0  0  0  0  0  0  0
   10.8006  -16.5839   26.5209 C   0  0  2  0  0  0  0  0  0  0  0  0
    9.8992  -16.2222   25.3853 N   0  0  0  0  0  0  0  0  0  0  0  0
   10.7001  -18.0265   26.6531 C   0  0  0  0  0  0  0  0  0  0  0  0
    9.6772  -18.7743   26.0526 O   0  0  0  0  0  0  0  0  0  0  0  0
   11.5601  -18.6728   27.3436 O   0  0  0  0  0  0  0  0  0  0  0  0
  2  1  1  0
  3  2  2  0
  4  3  1  0
  5  4  2  0
  5 11  1  0
  6  5  1  0
  7  6  1  0
  7  8  1  6
  9  7  1  0
 10  9  2  0
 11 12  2  0
 12  2  1  0
 13  9  1  0
 14 25  1  0
 14 13  1  0
 14 15  1  1
 16 15  1  0
 17 16  2  0
 18 17  1  0
 19 24  2  0
 19 18  1  0
 20 19  1  0
 21 20  2  0
 21 22  1  0
 22 23  2  0
 23 24  1  0
 24 16  1  0
 25 32  1  0
 26 25  2  0
 27 28  1  0
 28 29  1  0
 29 30  1  0
 31 30  1  1
 31 33  1  0
 32 31  1  0
 33 35  2  0
 33 34  1  0
M  END
$$$$
