YWM.pdb
     RDKit          3D

 35 37  0  0  1  0  0  0  0  0999 V2000
   12.0994  -23.3737   15.8495 O   0  0  0  0  0  0  0  0  0  0  0  0
   12.0317  -22.4646   16.8967 C   0  0  0  0  0  0  0  0  0  0  0  0
   13.0692  -21.5593   17.0314 C   0  0  0  0  0  0  0  0  0  0  0  0
   13.0473  -20.6326   18.0600 C   0  0  0  0  0  0  0  0  0  0  0  0
   12.0005  -20.6141   18.9405 C   0  0  0  0  0  0  0  0  0  0  0  0
   11.9761  -19.6291   20.0317 C   0  0  0  0  0  0  0  0  0  0  0  0
   11.2524  -18.3929   19.5460 C   0  0  2  0  0  0  0  0  0  0  0  0
   11.8535  -17.7819   18.4058 N   0  0  0  0  0  0  0  0  0  0  0  0
   11.0528  -17.3883   20.6117 C   0  0  0  0  0  0  0  0  0  0  0  0
   12.0012  -16.6079   20.8794 O   0  0  0  0  0  0  0  0  0  0  0  0
   10.9810  -21.5163   18.7948 C   0  0  0  0  0  0  0  0  0  0  0  0
   10.9794  -22.4593   17.7674 C   0  0  0  0  0  0  0  0  0  0  0  0
    9.8429  -17.2926   21.3175 N   0  0  0  0  0  0  0  0  0  0  0  0
    9.5961  -16.2927   22.3779 C   0  0  1  0  0  0  0  0  0  0  0  0
    8.2888  -15.6637   22.0965 C   0  0  0  0  0  0  0  0  0  0  0  0
    7.8763  -14.5251   22.9201 C   0  0  0  0  0  0  0  0  0  0  0  0
    8.2062  -13.1979   22.7423 C   0  0  0  0  0  0  0  0  0  0  0  0
    7.6651  -12.4508   23.7058 N   0  0  0  0  0  0  0  0  0  0  0  0
    6.9834  -13.2678   24.5150 C   0  0  0  0  0  0  0  0  0  0  0  0
    6.2228  -13.0436   25.6566 C   0  0  0  0  0  0  0  0  0  0  0  0
    5.5774  -14.0614   26.3419 C   0  0  0  0  0  0  0  0  0  0  0  0
    5.6840  -15.3423   25.8891 C   0  0  0  0  0  0  0  0  0  0  0  0
    6.4341  -15.5758   24.7617 C   0  0  0  0  0  0  0  0  0  0  0  0
    7.0961  -14.5699   24.0505 C   0  0  0  0  0  0  0  0  0  0  0  0
    9.8285  -16.8830   23.6778 C   0  0  0  0  0  0  0  0  0  0  0  0
    9.0587  -17.7308   24.1931 O   0  0  0  0  0  0  0  0  0  0  0  0
   10.7455  -13.5731   29.7159 C   0  0  0  0  0  0  0  0  0  0  0  0
    9.6275  -13.5291   28.3140 S   0  0  0  0  0  0  0  0  0  0  0  0
    9.3551  -15.1142   27.5574 C   0  0  0  0  0  0  0  0  0  0  0  0
    9.8509  -15.3289   26.1903 C   0  0  0  0  0  0  0  0  0  0  0  0
   10.8685  -16.3612   25.9198 C   0  0  2  0  0  0  0  0  0  0  0  0
   10.9615  -16.5170   24.4366 N   0  0  0  0  0  0  0  0  0  0  0  0
   10.5361  -17.6797   26.4294 C   0  0  0  0  0  0  0  0  0  0  0  0
   11.4840  -18.5253   27.0231 O   0  0  0  0  0  0  0  0  0  0  0  0
    9.3397  -18.1218   26.3440 O   0  0  0  0  0  0  0  0  0  0  0  0
  2  1  1  0
  3  2  2  0
  4  3  1  0
  5  4  2  0
  5 11  1  0
  6  5  1  0
  7  6  1  0
  7  8  1  6
  9  7  1  0
 10  9  2  0
 11 12  2  0
 12  2  1  0
 13  9  1  0
 14 25  1  0
 14 13  1  0
 14 15  1  1
 16 15  1  0
 17 16  2  0
 18 17  1  0
 19 24  2  0
 19 18  1  0
 20 19  1  0
 21 20  2  0
 21 22  1  0
 22 23  2  0
 23 24  1  0
 24 16  1  0
 25 32  1  0
 26 25  2  0
 27 28  1  0
 28 29  1  0
 29 30  1  0
 31 30  1  6
 31 33  1  0
 32 31  1  0
 33 35  2  0
 33 34  1  0
M  END
$$$$
