YWM.pdb
     RDKit          3D

 35 37  0  0  1  0  0  0  0  0999 V2000
   12.1831  -24.2776   16.8510 O   0  0  0  0  0  0  0  0  0  0  0  0
   12.1945  -23.1802   17.7015 C   0  0  0  0  0  0  0  0  0  0  0  0
   11.0455  -22.9140   18.4246 C   0  0  0  0  0  0  0  0  0  0  0  0
   11.0077  -21.8308   19.2862 C   0  0  0  0  0  0  0  0  0  0  0  0
   12.1060  -21.0264   19.4206 C   0  0  0  0  0  0  0  0  0  0  0  0
   12.0668  -19.8772   20.3368 C   0  0  0  0  0  0  0  0  0  0  0  0
   11.2196  -18.7923   19.7096 C   0  0  2  0  0  0  0  0  0  0  0  0
   11.6884  -18.3578   18.4344 N   0  0  0  0  0  0  0  0  0  0  0  0
   11.0249  -17.6288   20.6001 C   0  0  0  0  0  0  0  0  0  0  0  0
   11.8251  -16.6642   20.5031 O   0  0  0  0  0  0  0  0  0  0  0  0
   13.2361  -21.3020   18.6984 C   0  0  0  0  0  0  0  0  0  0  0  0
   13.2995  -22.3868   17.8242 C   0  0  0  0  0  0  0  0  0  0  0  0
    9.9793  -17.5835   21.5360 N   0  0  0  0  0  0  0  0  0  0  0  0
    9.7552  -16.4447   22.4515 C   0  0  1  0  0  0  0  0  0  0  0  0
    8.3877  -15.9417   22.2046 C   0  0  0  0  0  0  0  0  0  0  0  0
    7.9850  -14.6872   22.8442 C   0  0  0  0  0  0  0  0  0  0  0  0
    8.1339  -13.4082   22.3503 C   0  0  0  0  0  0  0  0  0  0  0  0
    7.6703  -12.5147   23.2254 N   0  0  0  0  0  0  0  0  0  0  0  0
    7.2180  -13.1878   24.2881 C   0  0  0  0  0  0  0  0  0  0  0  0
    6.6246  -12.7817   25.4777 C   0  0  0  0  0  0  0  0  0  0  0  0
    6.2110  -13.6742   26.4546 C   0  0  0  0  0  0  0  0  0  0  0  0
    6.3870  -15.0106   26.2546 C   0  0  0  0  0  0  0  0  0  0  0  0
    6.9733  -15.4236   25.0824 C   0  0  0  0  0  0  0  0  0  0  0  0
    7.4006  -14.5469   24.0799 C   0  0  0  0  0  0  0  0  0  0  0  0
   10.1392  -16.8094   23.7976 C   0  0  0  0  0  0  0  0  0  0  0  0
    9.9610  -17.9576   24.2738 O   0  0  0  0  0  0  0  0  0  0  0  0
    8.9383  -12.9025   28.8084 C   0  0  0  0  0  0  0  0  0  0  0  0
   10.4782  -13.6711   29.3132 S   0  0  0  0  0  0  0  0  0  0  0  0
   10.9185  -15.1029   28.3565 C   0  0  0  0  0  0  0  0  0  0  0  0
   10.7661  -15.0395   26.8959 C   0  0  0  0  0  0  0  0  0  0  0  0
   11.0876  -16.2118   26.0611 C   0  0  2  0  0  0  0  0  0  0  0  0
   10.7455  -15.8607   24.6495 N   0  0  0  0  0  0  0  0  0  0  0  0
   10.3080  -17.3981   26.3668 C   0  0  0  0  0  0  0  0  0  0  0  0
    9.1420  -17.7412   25.6676 O   0  0  0  0  0  0  0  0  0  0  0  0
   10.6681  -18.1816   27.3105 O   0  0  0  0  0  0  0  0  0  0  0  0
  2  1  1  0
  3  2  2  0
  4  3  1  0
  5  4  2  0
  5 11  1  0
  6  5  1  0
  7  6  1  0
  7  8  1  6
  9  7  1  0
 10  9  2  0
 11 12  2  0
 12  2  1  0
 13  9  1  0
 14 25  1  0
 14 13  1  0
 14 15  1  1
 16 15  1  0
 17 16  2  0
 18 17  1  0
 19 24  2  0
 19 18  1  0
 20 19  1  0
 21 20  2  0
 21 22  1  0
 22 23  2  0
 23 24  1  0
 24 16  1  0
 25 32  1  0
 26 25  2  0
 27 28  1  0
 28 29  1  0
 29 30  1  0
 31 30  1  1
 31 33  1  0
 32 31  1  0
 33 35  2  0
 33 34  1  0
M  END
$$$$
