MDN.pdb
     RDKit          3D

 25 24  0  0  1  0  0  0  0  0999 V2000
   20.9090  -14.3225  -15.3906 C   0  0  0  0  0  0  0  0  0  0  0  0
   22.1284  -13.5380  -16.4941 S   0  0  0  0  0  0  0  0  0  0  0  0
   23.4109  -12.7971  -15.4478 C   0  0  0  0  0  0  0  0  0  0  0  0
   22.8532  -11.5845  -14.6923 C   0  0  0  0  0  0  0  0  0  0  0  0
   22.3129  -10.5717  -15.6633 C   0  0  2  0  0  0  0  0  0  0  0  0
   23.4286  -10.1445  -16.5111 N   0  0  0  0  0  0  0  0  0  0  0  0
   21.7280   -9.3925  -15.0356 C   0  0  0  0  0  0  0  0  0  0  0  0
   20.7561   -9.5113  -14.2512 O   0  0  0  0  0  0  0  0  0  0  0  0
   22.2020   -8.0608  -15.2589 N   0  0  0  0  0  0  0  0  0  0  0  0
   21.6064   -6.8776  -14.7092 C   0  0  1  0  0  0  0  0  0  0  0  0
   22.6373   -5.7957  -14.4273 C   0  0  0  0  0  0  0  0  0  0  0  0
   21.9740   -4.6022  -13.8445 C   0  0  0  0  0  0  0  0  0  0  0  0
   21.6077   -4.6282  -12.6405 O   0  0  0  0  0  0  0  0  0  0  0  0
   20.4762   -6.3729  -15.5118 C   0  0  0  0  0  0  0  0  0  0  0  0
   20.6801   -6.0909  -16.7337 O   0  0  0  0  0  0  0  0  0  0  0  0
   21.7719   -3.4890  -14.6348 O   0  0  0  0  0  0  0  0  0  0  0  0
   15.7911   -8.2178  -14.4671 N   0  0  0  0  0  0  0  0  0  0  0  0
   16.4203   -7.4456  -15.4651 C   0  0  0  0  0  0  0  0  0  0  0  0
   16.6772   -7.9456  -16.5876 O   0  0  0  0  0  0  0  0  0  0  0  0
   16.7781   -6.0504  -15.2054 C   0  0  0  0  0  0  0  0  0  0  0  0
   18.0933   -5.6047  -15.7965 C   0  0  2  0  0  0  0  0  0  0  0  0
   19.1754   -6.1866  -14.9886 N   0  0  0  0  0  0  0  0  0  0  0  0
   18.1879   -4.1373  -15.6803 C   0  0  0  0  0  0  0  0  0  0  0  0
   18.7850   -3.6587  -14.6550 O   0  0  0  0  0  0  0  0  0  0  0  0
   17.7020   -3.2076  -16.5587 O   0  0  0  0  0  0  0  0  0  0  0  0
  1  2  1  0
  2  3  1  0
  4  3  1  0
  5  4  1  0
  5  7  1  0
  5  6  1  6
  7  9  1  0
  8  7  2  0
  9 10  1  0
 10 14  1  0
 10 11  1  6
 12 11  1  0
 13 12  2  0
 14 15  2  0
 16 12  1  0
 18 17  1  0
 18 20  1  0
 19 18  2  0
 21 20  1  1
 21 23  1  0
 22 14  1  0
 22 21  1  0
 23 24  2  0
 23 25  1  0
M  END
$$$$
