MDN.pdb
     RDKit          3D

 25 24  0  0  1  0  0  0  0  0999 V2000
   27.3858  -10.8977  -15.0845 C   0  0  0  0  0  0  0  0  0  0  0  0
   27.3242  -12.6449  -15.5976 S   0  0  0  0  0  0  0  0  0  0  0  0
   25.5810  -13.1443  -15.6180 C   0  0  0  0  0  0  0  0  0  0  0  0
   24.6964  -11.9871  -16.0984 C   0  0  0  0  0  0  0  0  0  0  0  0
   23.2508  -12.4002  -16.0882 C   0  0  2  0  0  0  0  0  0  0  0  0
   23.0764  -13.3972  -17.1473 N   0  0  0  0  0  0  0  0  0  0  0  0
   22.3137  -11.3071  -16.3200 C   0  0  0  0  0  0  0  0  0  0  0  0
   22.1653  -10.8366  -17.4735 O   0  0  0  0  0  0  0  0  0  0  0  0
   21.5223  -10.7118  -15.2869 N   0  0  0  0  0  0  0  0  0  0  0  0
   20.6494   -9.5886  -15.4698 C   0  0  1  0  0  0  0  0  0  0  0  0
   19.2463   -9.8637  -14.9520 C   0  0  0  0  0  0  0  0  0  0  0  0
   18.3684   -8.6969  -15.2205 C   0  0  0  0  0  0  0  0  0  0  0  0
   18.3625   -8.1826  -16.3693 O   0  0  0  0  0  0  0  0  0  0  0  0
   21.2040   -8.3319  -14.9318 C   0  0  0  0  0  0  0  0  0  0  0  0
   21.7490   -8.3533  -13.7843 O   0  0  0  0  0  0  0  0  0  0  0  0
   17.5774   -8.1995  -14.2047 O   0  0  0  0  0  0  0  0  0  0  0  0
   22.9002   -3.3614  -14.5179 N   0  0  0  0  0  0  0  0  0  0  0  0
   23.3078   -4.0250  -15.6934 C   0  0  0  0  0  0  0  0  0  0  0  0
   24.1833   -3.5192  -16.4374 O   0  0  0  0  0  0  0  0  0  0  0  0
   22.7175   -5.3136  -16.0582 C   0  0  0  0  0  0  0  0  0  0  0  0
   21.7285   -5.8708  -15.0637 C   0  0  2  0  0  0  0  0  0  0  0  0
   21.1590   -7.1027  -15.6300 N   0  0  0  0  0  0  0  0  0  0  0  0
   20.6276   -4.9024  -14.9023 C   0  0  0  0  0  0  0  0  0  0  0  0
   20.8948   -3.7860  -14.3375 O   0  0  0  0  0  0  0  0  0  0  0  0
   19.3262   -5.0607  -15.2941 O   0  0  0  0  0  0  0  0  0  0  0  0
  1  2  1  0
  2  3  1  0
  4  3  1  0
  5  4  1  0
  5  7  1  0
  5  6  1  6
  7  9  1  0
  8  7  2  0
  9 10  1  0
 10 14  1  0
 10 11  1  1
 12 11  1  0
 13 12  2  0
 14 15  2  0
 16 12  1  0
 18 17  1  0
 18 20  1  0
 19 18  2  0
 21 20  1  6
 21 23  1  0
 22 14  1  0
 22 21  1  0
 23 24  2  0
 23 25  1  0
M  END
$$$$
