MDN.pdb
     RDKit          3D

 25 24  0  0  1  0  0  0  0  0999 V2000
   21.8159  -15.3622  -17.0582 C   0  0  0  0  0  0  0  0  0  0  0  0
   21.5927  -16.7676  -15.9202 S   0  0  0  0  0  0  0  0  0  0  0  0
   21.0281  -18.1810  -16.9062 C   0  0  0  0  0  0  0  0  0  0  0  0
   20.7511  -19.3893  -16.0030 C   0  0  0  0  0  0  0  0  0  0  0  0
   21.9638  -19.7049  -15.1723 C   0  0  2  0  0  0  0  0  0  0  0  0
   22.9187  -20.3958  -16.0424 N   0  0  0  0  0  0  0  0  0  0  0  0
   21.6938  -20.5501  -14.0149 C   0  0  0  0  0  0  0  0  0  0  0  0
   20.9851  -21.5782  -14.1356 O   0  0  0  0  0  0  0  0  0  0  0  0
   22.1989  -20.2799  -12.7036 N   0  0  0  0  0  0  0  0  0  0  0  0
   21.9232  -21.0734  -11.5412 C   0  0  1  0  0  0  0  0  0  0  0  0
   22.8446  -20.7292  -10.3813 C   0  0  0  0  0  0  0  0  0  0  0  0
   24.2363  -21.1355  -10.7009 C   0  0  0  0  0  0  0  0  0  0  0  0
   24.4718  -21.7214  -11.7897 O   0  0  0  0  0  0  0  0  0  0  0  0
   20.5016  -21.0486  -11.1481 C   0  0  0  0  0  0  0  0  0  0  0  0
   19.9475  -19.9222  -10.9525 O   0  0  0  0  0  0  0  0  0  0  0  0
   25.2433  -20.8631   -9.7972 O   0  0  0  0  0  0  0  0  0  0  0  0
   18.6704  -24.7774  -12.8236 N   0  0  0  0  0  0  0  0  0  0  0  0
   17.8150  -24.3111  -11.8043 C   0  0  0  0  0  0  0  0  0  0  0  0
   17.3029  -25.1152  -10.9874 O   0  0  0  0  0  0  0  0  0  0  0  0
   17.5167  -22.8833  -11.6841 C   0  0  0  0  0  0  0  0  0  0  0  0
   18.2985  -22.1519  -10.6204 C   0  0  2  0  0  0  0  0  0  0  0  0
   19.7235  -22.2173  -10.9775 N   0  0  0  0  0  0  0  0  0  0  0  0
   18.1258  -22.8611   -9.3386 C   0  0  0  0  0  0  0  0  0  0  0  0
   19.1016  -23.5722   -8.9155 O   0  0  0  0  0  0  0  0  0  0  0  0
   17.0212  -22.8478   -8.5312 O   0  0  0  0  0  0  0  0  0  0  0  0
  1  2  1  0
  2  3  1  0
  4  3  1  0
  5  4  1  0
  5  7  1  0
  5  6  1  6
  7  9  1  0
  8  7  2  0
  9 10  1  0
 10 14  1  0
 10 11  1  1
 12 11  1  0
 13 12  2  0
 14 15  2  0
 16 12  1  0
 18 17  1  0
 18 20  1  0
 19 18  2  0
 21 20  1  6
 21 23  1  0
 22 14  1  0
 22 21  1  0
 23 24  2  0
 23 25  1  0
M  END
$$$$
