MDN.pdb
     RDKit          3D

 25 24  0  0  1  0  0  0  0  0999 V2000
   24.1489  -19.9204   -9.1742 C   0  0  0  0  0  0  0  0  0  0  0  0
   25.8837  -20.3866   -8.8694 S   0  0  0  0  0  0  0  0  0  0  0  0
   26.6745  -20.6241  -10.4839 C   0  0  0  0  0  0  0  0  0  0  0  0
   25.6960  -20.2874  -11.6159 C   0  0  0  0  0  0  0  0  0  0  0  0
   25.2080  -21.5490  -12.2723 C   0  0  2  0  0  0  0  0  0  0  0  0
   26.3420  -22.1285  -12.9965 N   0  0  0  0  0  0  0  0  0  0  0  0
   24.1098  -21.3498  -13.2109 C   0  0  0  0  0  0  0  0  0  0  0  0
   24.3477  -21.0948  -14.4160 O   0  0  0  0  0  0  0  0  0  0  0  0
   22.7296  -21.4281  -12.8410 N   0  0  0  0  0  0  0  0  0  0  0  0
   21.6296  -21.2151  -13.7362 C   0  0  1  0  0  0  0  0  0  0  0  0
   20.4300  -22.0816  -13.3854 C   0  0  0  0  0  0  0  0  0  0  0  0
   19.3513  -21.8841  -14.3862 C   0  0  0  0  0  0  0  0  0  0  0  0
   18.4564  -21.0269  -14.1655 O   0  0  0  0  0  0  0  0  0  0  0  0
   21.2655  -19.7924  -13.8767 C   0  0  0  0  0  0  0  0  0  0  0  0
   21.8914  -18.9359  -13.1775 O   0  0  0  0  0  0  0  0  0  0  0  0
   19.3514  -22.6449  -15.5377 O   0  0  0  0  0  0  0  0  0  0  0  0
   21.1994  -16.0579  -17.3446 N   0  0  0  0  0  0  0  0  0  0  0  0
   22.0300  -17.1950  -17.2725 C   0  0  0  0  0  0  0  0  0  0  0  0
   23.0192  -17.3087  -18.0371 O   0  0  0  0  0  0  0  0  0  0  0  0
   21.7510  -18.2548  -16.3025 C   0  0  0  0  0  0  0  0  0  0  0  0
   20.4329  -18.1306  -15.5780 C   0  0  2  0  0  0  0  0  0  0  0  0
   20.2533  -19.3335  -14.7513 N   0  0  0  0  0  0  0  0  0  0  0  0
   19.3477  -18.1083  -16.5767 C   0  0  0  0  0  0  0  0  0  0  0  0
   18.6232  -17.0561  -16.6451 O   0  0  0  0  0  0  0  0  0  0  0  0
   19.0174  -19.1017  -17.4577 O   0  0  0  0  0  0  0  0  0  0  0  0
  1  2  1  0
  2  3  1  0
  4  3  1  0
  5  4  1  0
  5  7  1  0
  5  6  1  6
  7  9  1  0
  8  7  2  0
  9 10  1  0
 10 14  1  0
 10 11  1  1
 12 11  1  0
 13 12  2  0
 14 15  2  0
 16 12  1  0
 18 17  1  0
 18 20  1  0
 19 18  2  0
 21 20  1  6
 21 23  1  0
 22 14  1  0
 22 21  1  0
 23 24  2  0
 23 25  1  0
M  END
$$$$
