MDN.pdb
     RDKit          3D

 25 24  0  0  1  0  0  0  0  0999 V2000
   27.8520  -19.6147   -7.4260 C   0  0  0  0  0  0  0  0  0  0  0  0
   26.5171  -19.9101   -8.6305 S   0  0  0  0  0  0  0  0  0  0  0  0
   27.2815  -20.0291  -10.2706 C   0  0  0  0  0  0  0  0  0  0  0  0
   26.2068  -20.0337  -11.3649 C   0  0  0  0  0  0  0  0  0  0  0  0
   25.3000  -21.2211  -11.1965 C   0  0  2  0  0  0  0  0  0  0  0  0
   26.1032  -22.4202  -11.4479 N   0  0  0  0  0  0  0  0  0  0  0  0
   24.1536  -21.2321  -12.0978 C   0  0  0  0  0  0  0  0  0  0  0  0
   24.2246  -21.8225  -13.2024 O   0  0  0  0  0  0  0  0  0  0  0  0
   22.9078  -20.5940  -11.8000 N   0  0  0  0  0  0  0  0  0  0  0  0
   21.7868  -20.5317  -12.6925 C   0  0  1  0  0  0  0  0  0  0  0  0
   20.4957  -20.1867  -11.9667 C   0  0  0  0  0  0  0  0  0  0  0  0
   20.2053  -21.2119  -10.9328 C   0  0  0  0  0  0  0  0  0  0  0  0
   20.1591  -20.8695   -9.7225 O   0  0  0  0  0  0  0  0  0  0  0  0
   22.0219  -19.6554  -13.8557 C   0  0  0  0  0  0  0  0  0  0  0  0
   22.6321  -18.5564  -13.6717 O   0  0  0  0  0  0  0  0  0  0  0  0
   19.9926  -22.5195  -11.3199 O   0  0  0  0  0  0  0  0  0  0  0  0
   25.5253  -20.7478  -17.8362 N   0  0  0  0  0  0  0  0  0  0  0  0
   24.6931  -19.7512  -17.2865 C   0  0  0  0  0  0  0  0  0  0  0  0
   24.7199  -18.5805  -17.7389 O   0  0  0  0  0  0  0  0  0  0  0  0
   23.7852  -20.0705  -16.1839 C   0  0  0  0  0  0  0  0  0  0  0  0
   22.3725  -19.5658  -16.3494 C   0  0  2  0  0  0  0  0  0  0  0  0
   21.6011  -19.9774  -15.1670 N   0  0  0  0  0  0  0  0  0  0  0  0
   21.7729  -20.2235  -17.5256 C   0  0  0  0  0  0  0  0  0  0  0  0
   21.4057  -21.4429  -17.4031 O   0  0  0  0  0  0  0  0  0  0  0  0
   21.5584  -19.6712  -18.7590 O   0  0  0  0  0  0  0  0  0  0  0  0
  1  2  1  0
  2  3  1  0
  4  3  1  0
  5  4  1  0
  5  7  1  0
  5  6  1  6
  7  9  1  0
  8  7  2  0
  9 10  1  0
 10 14  1  0
 10 11  1  1
 12 11  1  0
 13 12  2  0
 14 15  2  0
 16 12  1  0
 18 17  1  0
 18 20  1  0
 19 18  2  0
 21 20  1  1
 21 23  1  0
 22 14  1  0
 22 21  1  0
 23 24  2  0
 23 25  1  0
M  END
$$$$
