MDN.pdb
     RDKit          3D

 25 24  0  0  1  0  0  0  0  0999 V2000
   22.6076  -24.5590    1.3000 C   0  0  0  0  0  0  0  0  0  0  0  0
   20.8615  -24.0388    1.2749 S   0  0  0  0  0  0  0  0  0  0  0  0
   19.9717  -25.0638    2.4775 C   0  0  0  0  0  0  0  0  0  0  0  0
   20.2258  -24.5609    3.9040 C   0  0  0  0  0  0  0  0  0  0  0  0
   19.5844  -25.4848    4.9018 C   0  0  2  0  0  0  0  0  0  0  0  0
   18.1362  -25.4125    4.6924 N   0  0  0  0  0  0  0  0  0  0  0  0
   19.8698  -25.1549    6.2934 C   0  0  0  0  0  0  0  0  0  0  0  0
   20.3774  -24.0462    6.5881 O   0  0  0  0  0  0  0  0  0  0  0  0
   19.6016  -26.0388    7.3864 N   0  0  0  0  0  0  0  0  0  0  0  0
   19.8431  -25.7304    8.7660 C   0  0  1  0  0  0  0  0  0  0  0  0
   18.6799  -26.1395    9.6562 C   0  0  0  0  0  0  0  0  0  0  0  0
   17.4993  -25.2852    9.3731 C   0  0  0  0  0  0  0  0  0  0  0  0
   16.4765  -25.8017    8.8520 O   0  0  0  0  0  0  0  0  0  0  0  0
   21.1312  -26.2542    9.2586 C   0  0  0  0  0  0  0  0  0  0  0  0
   21.4842  -27.4224    8.9052 O   0  0  0  0  0  0  0  0  0  0  0  0
   17.5475  -23.9419    9.6863 O   0  0  0  0  0  0  0  0  0  0  0  0
   25.4943  -23.8678    8.8948 N   0  0  0  0  0  0  0  0  0  0  0  0
   25.2611  -25.0294    9.6593 C   0  0  0  0  0  0  0  0  0  0  0  0
   25.9054  -26.0818    9.4285 O   0  0  0  0  0  0  0  0  0  0  0  0
   24.2674  -25.0210   10.7338 C   0  0  0  0  0  0  0  0  0  0  0  0
   23.2254  -26.1097   10.6525 C   0  0  2  0  0  0  0  0  0  0  0  0
   21.9938  -25.5206   10.1060 N   0  0  0  0  0  0  0  0  0  0  0  0
   22.9283  -26.5793   12.0188 C   0  0  0  0  0  0  0  0  0  0  0  0
   23.8702  -27.1498   12.6702 O   0  0  0  0  0  0  0  0  0  0  0  0
   21.7386  -26.4743   12.6863 O   0  0  0  0  0  0  0  0  0  0  0  0
  1  2  1  0
  2  3  1  0
  4  3  1  0
  5  4  1  0
  5  7  1  0
  5  6  1  1
  7  9  1  0
  8  7  2  0
  9 10  1  0
 10 14  1  0
 10 11  1  1
 12 11  1  0
 13 12  2  0
 14 15  2  0
 16 12  1  0
 18 17  1  0
 18 20  1  0
 19 18  2  0
 21 20  1  1
 21 23  1  0
 22 14  1  0
 22 21  1  0
 23 24  2  0
 23 25  1  0
M  END
$$$$
