MDN.pdb
     RDKit          3D

 25 24  0  0  1  0  0  0  0  0999 V2000
   27.6894  -20.4473   -6.7912 C   0  0  0  0  0  0  0  0  0  0  0  0
   28.8234  -19.2026   -7.4874 S   0  0  0  0  0  0  0  0  0  0  0  0
   29.6129  -19.9406   -8.9436 C   0  0  0  0  0  0  0  0  0  0  0  0
   28.6532  -19.9262  -10.1399 C   0  0  0  0  0  0  0  0  0  0  0  0
   27.9156  -21.2333  -10.2291 C   0  0  2  0  0  0  0  0  0  0  0  0
   28.8939  -22.2599  -10.5969 N   0  0  0  0  0  0  0  0  0  0  0  0
   26.8367  -21.2467  -11.2101 C   0  0  0  0  0  0  0  0  0  0  0  0
   27.0190  -21.7557  -12.3422 O   0  0  0  0  0  0  0  0  0  0  0  0
   25.5372  -20.7006  -10.9635 N   0  0  0  0  0  0  0  0  0  0  0  0
   24.4761  -20.6470  -11.9269 C   0  0  1  0  0  0  0  0  0  0  0  0
   23.1260  -20.3855  -11.2777 C   0  0  0  0  0  0  0  0  0  0  0  0
   22.2279  -21.5488  -11.4880 C   0  0  0  0  0  0  0  0  0  0  0  0
   22.6117  -22.4983  -12.2196 O   0  0  0  0  0  0  0  0  0  0  0  0
   24.7493  -19.7143  -13.0367 C   0  0  0  0  0  0  0  0  0  0  0  0
   25.8612  -19.0998  -13.0507 O   0  0  0  0  0  0  0  0  0  0  0  0
   20.9902  -21.5649  -10.8775 O   0  0  0  0  0  0  0  0  0  0  0  0
   25.6365  -19.7450  -18.3853 N   0  0  0  0  0  0  0  0  0  0  0  0
   25.9377  -19.0879  -17.1746 C   0  0  0  0  0  0  0  0  0  0  0  0
   26.6581  -18.0598  -17.1719 O   0  0  0  0  0  0  0  0  0  0  0  0
   25.4109  -19.5948  -15.9067 C   0  0  0  0  0  0  0  0  0  0  0  0
   24.2498  -18.8165  -15.3376 C   0  0  2  0  0  0  0  0  0  0  0  0
   23.8343  -19.4691  -14.0870 N   0  0  0  0  0  0  0  0  0  0  0  0
   23.1199  -18.8996  -16.2821 C   0  0  0  0  0  0  0  0  0  0  0  0
   22.5582  -20.0382  -16.4396 O   0  0  0  0  0  0  0  0  0  0  0  0
   22.5901  -17.8804  -17.0255 O   0  0  0  0  0  0  0  0  0  0  0  0
  1  2  1  0
  2  3  1  0
  4  3  1  0
  5  4  1  0
  5  7  1  0
  5  6  1  6
  7  9  1  0
  8  7  2  0
  9 10  1  0
 10 14  1  0
 10 11  1  1
 12 11  1  0
 13 12  2  0
 14 15  2  0
 16 12  1  0
 18 17  1  0
 18 20  1  0
 19 18  2  0
 21 20  1  6
 21 23  1  0
 22 14  1  0
 22 21  1  0
 23 24  2  0
 23 25  1  0
M  END
$$$$
