MDN.pdb
     RDKit          3D

 25 24  0  0  1  0  0  0  0  0999 V2000
   18.2874  -17.3051  -15.0902 C   0  0  0  0  0  0  0  0  0  0  0  0
   18.6683  -15.6448  -15.7368 S   0  0  0  0  0  0  0  0  0  0  0  0
   17.1532  -14.9947  -16.4919 C   0  0  0  0  0  0  0  0  0  0  0  0
   17.4086  -13.6112  -17.1029 C   0  0  0  0  0  0  0  0  0  0  0  0
   17.8767  -12.6540  -16.0422 C   0  0  2  0  0  0  0  0  0  0  0  0
   16.8368  -12.6054  -15.0114 N   0  0  0  0  0  0  0  0  0  0  0  0
   18.1184  -11.2986  -16.5229 C   0  0  0  0  0  0  0  0  0  0  0  0
   18.9016  -11.0993  -17.4824 O   0  0  0  0  0  0  0  0  0  0  0  0
   17.5023  -10.1375  -15.9571 N   0  0  0  0  0  0  0  0  0  0  0  0
   17.7151   -8.7944  -16.4127 C   0  0  1  0  0  0  0  0  0  0  0  0
   16.4357   -8.1560  -16.9306 C   0  0  0  0  0  0  0  0  0  0  0  0
   15.5306   -7.8411  -15.7967 C   0  0  0  0  0  0  0  0  0  0  0  0
   15.4765   -6.6612  -15.3618 O   0  0  0  0  0  0  0  0  0  0  0  0
   18.3952   -7.9464  -15.4153 C   0  0  0  0  0  0  0  0  0  0  0  0
   18.1194   -8.1176  -14.1870 O   0  0  0  0  0  0  0  0  0  0  0  0
   14.7677   -8.8487  -15.2421 O   0  0  0  0  0  0  0  0  0  0  0  0
   23.2192   -4.6161  -14.5265 N   0  0  0  0  0  0  0  0  0  0  0  0
   22.2806   -5.4918  -13.9431 C   0  0  0  0  0  0  0  0  0  0  0  0
   22.1306   -5.5237  -12.6971 O   0  0  0  0  0  0  0  0  0  0  0  0
   21.4673   -6.3716  -14.7836 C   0  0  0  0  0  0  0  0  0  0  0  0
   19.9817   -6.1101  -14.7369 C   0  0  2  0  0  0  0  0  0  0  0  0
   19.3396   -6.9510  -15.7582 N   0  0  0  0  0  0  0  0  0  0  0  0
   19.7405   -4.7013  -15.1015 C   0  0  0  0  0  0  0  0  0  0  0  0
   19.6093   -4.4218  -16.3431 O   0  0  0  0  0  0  0  0  0  0  0  0
   19.6383   -3.6352  -14.2501 O   0  0  0  0  0  0  0  0  0  0  0  0
  1  2  1  0
  2  3  1  0
  4  3  1  0
  5  4  1  0
  5  7  1  0
  5  6  1  1
  7  9  1  0
  8  7  2  0
  9 10  1  0
 10 14  1  0
 10 11  1  1
 12 11  1  0
 13 12  2  0
 14 15  2  0
 16 12  1  0
 18 17  1  0
 18 20  1  0
 19 18  2  0
 21 20  1  6
 21 23  1  0
 22 14  1  0
 22 21  1  0
 23 24  2  0
 23 25  1  0
M  END
$$$$
