RKY.pdb
     RDKit          3D

 33 33  0  0  1  0  0  0  0  0999 V2000
   28.0863  -29.0754  -16.2812 N   0  0  0  0  0  0  0  0  0  0  0  0
   26.7387  -29.4713  -15.9910 C   0  0  0  0  0  0  0  0  0  0  0  0
   26.5127  -30.6116  -15.4630 N   0  0  0  0  0  0  0  0  0  0  0  0
   25.6450  -28.6214  -16.2869 N   0  0  0  0  0  0  0  0  0  0  0  0
   25.8547  -27.3284  -16.8948 C   0  0  0  0  0  0  0  0  0  0  0  0
   26.3008  -26.2734  -15.8988 C   0  0  0  0  0  0  0  0  0  0  0  0
   25.0864  -25.6000  -15.3265 C   0  0  0  0  0  0  0  0  0  0  0  0
   24.5334  -24.5338  -16.2102 C   0  0  2  0  0  0  0  0  0  0  0  0
   25.3930  -23.4612  -16.5526 N   0  0  0  0  0  0  0  0  0  0  0  0
   23.2428  -23.9836  -15.6668 C   0  0  0  0  0  0  0  0  0  0  0  0
   23.3323  -22.9106  -14.9725 O   0  0  0  0  0  0  0  0  0  0  0  0
   25.5602  -30.9604  -15.2799 N   0  0  0  0  0  0  0  0  0  0  0  0
   21.9889  -24.5782  -15.8827 C   0  0  2  0  0  0  0  0  0  0  0  0
   20.7321  -23.9979  -15.4467 C   0  0  0  0  0  0  0  0  0  0  0  0
   19.7310  -23.9059  -16.5390 C   0  0  0  0  0  0  0  0  0  0  0  0
   20.2615  -23.3979  -17.8564 C   0  0  0  0  0  0  0  0  0  0  0  0
   19.1907  -23.2326  -18.9061 C   0  0  0  0  0  0  0  0  0  0  0  0
   19.8093  -22.8167  -20.2430 N   0  0  0  0  0  0  0  0  0  0  0  0
   18.8036  -22.7122  -21.2646 C   0  0  0  0  0  0  0  0  0  0  0  0
   20.2082  -24.7274  -14.2409 O   0  0  0  0  0  0  0  0  0  0  0  0
   20.8851  -25.6446  -13.7209 O   0  0  0  0  0  0  0  0  0  0  0  0
   18.4479  -25.8236   -6.0547 C   0  0  0  0  0  0  0  0  0  0  0  0
   18.7432  -25.4582   -7.3537 C   0  0  0  0  0  0  0  0  0  0  0  0
   19.1800  -26.3927   -8.2863 C   0  0  0  0  0  0  0  0  0  0  0  0
   19.4760  -26.0511   -9.5720 C   0  0  0  0  0  0  0  0  0  0  0  0
   19.3349  -24.7112   -9.9654 C   0  0  0  0  0  0  0  0  0  0  0  0
   19.6936  -24.3761  -11.3562 C   0  0  1  0  0  0  0  0  0  0  0  0
   18.6355  -24.8384  -12.3012 N   0  0  0  0  0  0  0  0  0  0  0  0
   18.9545  -24.4085  -13.6630 C   0  0  0  0  0  0  0  0  0  0  0  0
   17.2701  -24.4231  -11.9240 O   0  0  0  0  0  0  0  0  0  0  0  0
   16.3027  -25.2701  -11.3897 C   0  0  0  0  0  0  0  0  0  0  0  0
   18.9025  -23.7795   -9.0462 C   0  0  0  0  0  0  0  0  0  0  0  0
   18.6121  -24.1515   -7.7605 O   0  0  0  0  0  0  0  0  0  0  0  0
  1  2  1  0
  2  3  2  0
  4  2  1  0
  4  5  1  0
  6  5  1  0
  7  6  1  0
  8  7  1  0
  8  9  1  1
 10  8  1  0
 11 10  2  0
 12 10  1  0
 13 12  1  0
 13 14  1  6
 14 15  1  0
 16 15  1  0
 16 17  1  0
 17 18  1  0
 19 13  1  0
 19 28  1  0
 20 19  2  0
 21 22  1  0
 22 32  2  0
 23 24  2  0
 23 22  1  0
 24 25  1  0
 25 26  1  0
 25 31  2  0
 27 28  1  0
 27 26  1  6
 29 27  1  0
 29 30  1  0
 32 31  1  0
 33 29  2  0
M  END
$$$$
