RKY.pdb
     RDKit          3D

 33 33  0  0  1  0  0  0  0  0999 V2000
   22.7252  -18.3413  -20.7126 N   0  0  0  0  0  0  0  0  0  0  0  0
   21.7395  -18.5269  -21.7377 C   0  0  0  0  0  0  0  0  0  0  0  0
   21.1662  -17.5111  -22.2572 N   0  0  0  0  0  0  0  0  0  0  0  0
   21.3803  -19.8223  -22.1836 N   0  0  0  0  0  0  0  0  0  0  0  0
   21.8328  -20.9999  -21.4808 C   0  0  0  0  0  0  0  0  0  0  0  0
   23.3313  -21.2143  -21.5925 C   0  0  0  0  0  0  0  0  0  0  0  0
   23.8017  -21.9941  -20.3982 C   0  0  0  0  0  0  0  0  0  0  0  0
   24.1235  -21.1341  -19.2232 C   0  0  2  0  0  0  0  0  0  0  0  0
   24.2855  -19.7464  -19.4572 N   0  0  0  0  0  0  0  0  0  0  0  0
   25.3179  -21.6549  -18.4710 C   0  0  0  0  0  0  0  0  0  0  0  0
   25.2657  -22.8815  -18.1046 O   0  0  0  0  0  0  0  0  0  0  0  0
   20.4598  -17.5927  -23.0033 N   0  0  0  0  0  0  0  0  0  0  0  0
   26.4470  -20.8777  -18.1655 C   0  0  1  0  0  0  0  0  0  0  0  0
   27.5658  -21.3524  -17.3721 C   0  0  0  0  0  0  0  0  0  0  0  0
   28.7623  -20.4809  -17.4849 C   0  0  0  0  0  0  0  0  0  0  0  0
   28.4759  -19.0018  -17.5585 C   0  0  0  0  0  0  0  0  0  0  0  0
   29.1175  -18.3291  -18.7466 C   0  0  0  0  0  0  0  0  0  0  0  0
   28.8393  -16.8241  -18.7261 N   0  0  0  0  0  0  0  0  0  0  0  0
   29.3153  -16.1967  -19.9286 C   0  0  0  0  0  0  0  0  0  0  0  0
   27.1417  -21.5722  -15.9465 O   0  0  0  0  0  0  0  0  0  0  0  0
   27.9096  -22.1574  -15.1479 O   0  0  0  0  0  0  0  0  0  0  0  0
   23.6272  -21.2323   -8.0716 C   0  0  0  0  0  0  0  0  0  0  0  0
   24.1497  -20.9908   -9.3273 C   0  0  0  0  0  0  0  0  0  0  0  0
   23.4021  -20.3529  -10.3111 C   0  0  0  0  0  0  0  0  0  0  0  0
   23.9003  -20.1061  -11.5554 C   0  0  0  0  0  0  0  0  0  0  0  0
   25.2114  -20.5103  -11.8514 C   0  0  0  0  0  0  0  0  0  0  0  0
   25.7037  -20.2524  -13.2175 C   0  0  1  0  0  0  0  0  0  0  0  0
   25.4659  -21.4341  -14.0970 N   0  0  0  0  0  0  0  0  0  0  0  0
   25.8828  -21.1336  -15.4670 C   0  0  0  0  0  0  0  0  0  0  0  0
   24.0779  -21.9358  -14.0668 O   0  0  0  0  0  0  0  0  0  0  0  0
   23.1733  -21.8298  -15.1199 C   0  0  0  0  0  0  0  0  0  0  0  0
   25.9582  -21.1433  -10.8810 C   0  0  0  0  0  0  0  0  0  0  0  0
   25.4315  -21.3783   -9.6387 O   0  0  0  0  0  0  0  0  0  0  0  0
  1  2  1  0
  2  3  2  0
  4  2  1  0
  4  5  1  0
  6  5  1  0
  7  6  1  0
  8  7  1  0
  8  9  1  6
 10  8  1  0
 11 10  2  0
 12 10  1  0
 13 12  1  0
 13 14  1  6
 14 15  1  0
 16 15  1  0
 16 17  1  0
 17 18  1  0
 19 13  1  0
 19 28  1  0
 20 19  2  0
 21 22  1  0
 22 32  2  0
 23 24  2  0
 23 22  1  0
 24 25  1  0
 25 26  1  0
 25 31  2  0
 27 28  1  0
 27 26  1  1
 29 27  1  0
 29 30  1  0
 32 31  1  0
 33 29  2  0
M  END
$$$$
