RKY.pdb
     RDKit          3D

 33 33  0  0  1  0  0  0  0  0999 V2000
   16.5672  -18.3979  -14.8794 N   0  0  0  0  0  0  0  0  0  0  0  0
   16.7224  -17.7058  -16.1260 C   0  0  0  0  0  0  0  0  0  0  0  0
   16.0356  -16.6547  -16.3573 N   0  0  0  0  0  0  0  0  0  0  0  0
   17.6221  -18.1713  -17.1160 N   0  0  0  0  0  0  0  0  0  0  0  0
   18.4855  -19.3003  -16.8606 C   0  0  0  0  0  0  0  0  0  0  0  0
   19.3677  -19.1044  -15.6411 C   0  0  0  0  0  0  0  0  0  0  0  0
   20.7669  -19.5336  -15.9786 C   0  0  0  0  0  0  0  0  0  0  0  0
   21.7557  -18.4192  -15.9154 C   0  0  2  0  0  0  0  0  0  0  0  0
   21.5255  -17.2966  -16.7482 N   0  0  0  0  0  0  0  0  0  0  0  0
   23.1596  -18.9168  -16.1275 C   0  0  0  0  0  0  0  0  0  0  0  0
   23.5535  -19.8517  -15.3449 O   0  0  0  0  0  0  0  0  0  0  0  0
   16.1503  -16.0930  -17.2139 N   0  0  0  0  0  0  0  0  0  0  0  0
   24.0244  -18.4151  -17.1138 C   0  0  2  0  0  0  0  0  0  0  0  0
   25.3463  -18.9519  -17.3803 C   0  0  0  0  0  0  0  0  0  0  0  0
   25.9506  -18.4042  -18.6207 C   0  0  0  0  0  0  0  0  0  0  0  0
   27.3572  -18.8662  -18.9091 C   0  0  0  0  0  0  0  0  0  0  0  0
   27.4134  -20.1899  -19.6304 C   0  0  0  0  0  0  0  0  0  0  0  0
   28.8637  -20.5757  -19.9318 N   0  0  0  0  0  0  0  0  0  0  0  0
   28.9288  -21.8411  -20.6106 C   0  0  0  0  0  0  0  0  0  0  0  0
   26.2339  -18.7803  -16.1790 O   0  0  0  0  0  0  0  0  0  0  0  0
   26.4613  -17.6340  -15.7270 O   0  0  0  0  0  0  0  0  0  0  0  0
   23.7382  -21.9593  -10.1598 C   0  0  0  0  0  0  0  0  0  0  0  0
   24.5920  -21.2183  -10.9535 C   0  0  0  0  0  0  0  0  0  0  0  0
   25.5636  -20.3937  -10.3970 C   0  0  0  0  0  0  0  0  0  0  0  0
   26.4147  -19.6554  -11.1637 C   0  0  0  0  0  0  0  0  0  0  0  0
   26.3050  -19.7312  -12.5609 C   0  0  0  0  0  0  0  0  0  0  0  0
   27.2237  -18.8946  -13.3553 C   0  0  1  0  0  0  0  0  0  0  0  0
   27.8227  -19.6814  -14.4727 N   0  0  0  0  0  0  0  0  0  0  0  0
   26.8324  -19.8882  -15.5297 C   0  0  0  0  0  0  0  0  0  0  0  0
   28.4196  -20.9643  -14.0517 O   0  0  0  0  0  0  0  0  0  0  0  0
   28.1539  -22.1952  -14.6456 C   0  0  0  0  0  0  0  0  0  0  0  0
   25.3440  -20.5465  -13.1195 C   0  0  0  0  0  0  0  0  0  0  0  0
   24.5020  -21.2775  -12.3241 O   0  0  0  0  0  0  0  0  0  0  0  0
  1  2  1  0
  2  3  2  0
  4  2  1  0
  4  5  1  0
  6  5  1  0
  7  6  1  0
  8  7  1  0
  8  9  1  6
 10  8  1  0
 11 10  2  0
 12 10  1  0
 13 12  1  0
 13 14  1  1
 14 15  1  0
 16 15  1  0
 16 17  1  0
 17 18  1  0
 19 13  1  0
 19 28  1  0
 20 19  2  0
 21 22  1  0
 22 32  2  0
 23 24  2  0
 23 22  1  0
 24 25  1  0
 25 26  1  0
 25 31  2  0
 27 28  1  0
 27 26  1  6
 29 27  1  0
 29 30  1  0
 32 31  1  0
 33 29  2  0
M  END
$$$$
