RKY.pdb
     RDKit          3D

 33 33  0  0  1  0  0  0  0  0999 V2000
   28.0333  -28.7481  -16.6035 N   0  0  0  0  0  0  0  0  0  0  0  0
   26.6781  -28.3406  -16.8362 C   0  0  0  0  0  0  0  0  0  0  0  0
   25.7169  -29.0402  -16.3705 N   0  0  0  0  0  0  0  0  0  0  0  0
   26.3811  -27.1747  -17.5834 N   0  0  0  0  0  0  0  0  0  0  0  0
   27.4222  -26.2424  -17.9472 C   0  0  0  0  0  0  0  0  0  0  0  0
   28.1223  -25.6402  -16.7426 C   0  0  0  0  0  0  0  0  0  0  0  0
   27.3051  -24.4890  -16.2300 C   0  0  0  0  0  0  0  0  0  0  0  0
   27.6264  -23.1954  -16.8986 C   0  0  2  0  0  0  0  0  0  0  0  0
   28.9929  -22.8355  -16.9975 N   0  0  0  0  0  0  0  0  0  0  0  0
   26.8540  -22.0558  -16.2917 C   0  0  0  0  0  0  0  0  0  0  0  0
   27.0614  -21.8301  -15.0477 O   0  0  0  0  0  0  0  0  0  0  0  0
   24.7273  -28.8134  -16.5483 N   0  0  0  0  0  0  0  0  0  0  0  0
   25.9473  -21.2584  -17.0089 C   0  0  2  0  0  0  0  0  0  0  0  0
   25.1854  -20.1714  -16.4220 C   0  0  0  0  0  0  0  0  0  0  0  0
   25.0263  -19.0175  -17.3424 C   0  0  0  0  0  0  0  0  0  0  0  0
   26.2805  -18.2184  -17.5945 C   0  0  0  0  0  0  0  0  0  0  0  0
   26.0639  -17.0451  -18.5176 C   0  0  0  0  0  0  0  0  0  0  0  0
   27.3898  -16.3360  -18.8045 N   0  0  0  0  0  0  0  0  0  0  0  0
   27.2053  -15.2586  -19.7379 C   0  0  0  0  0  0  0  0  0  0  0  0
   23.8714  -20.6771  -15.8948 O   0  0  0  0  0  0  0  0  0  0  0  0
   23.1994  -21.4935  -16.5670 O   0  0  0  0  0  0  0  0  0  0  0  0
   16.9266  -22.3236  -10.8585 C   0  0  0  0  0  0  0  0  0  0  0  0
   18.1530  -21.8726  -11.3066 C   0  0  0  0  0  0  0  0  0  0  0  0
   18.3773  -20.5248  -11.5651 C   0  0  0  0  0  0  0  0  0  0  0  0
   19.5801  -20.0611  -12.0075 C   0  0  0  0  0  0  0  0  0  0  0  0
   20.6253  -20.9761  -12.2083 C   0  0  0  0  0  0  0  0  0  0  0  0
   21.9019  -20.4398  -12.7162 C   0  0  2  0  0  0  0  0  0  0  0  0
   22.0685  -20.7547  -14.1652 N   0  0  0  0  0  0  0  0  0  0  0  0
   23.3578  -20.2551  -14.6436 C   0  0  0  0  0  0  0  0  0  0  0  0
   20.9657  -20.2667  -15.0167 O   0  0  0  0  0  0  0  0  0  0  0  0
   19.8707  -21.0308  -15.4114 C   0  0  0  0  0  0  0  0  0  0  0  0
   20.4100  -22.3137  -11.9542 C   0  0  0  0  0  0  0  0  0  0  0  0
   19.1905  -22.7514  -11.5101 O   0  0  0  0  0  0  0  0  0  0  0  0
  1  2  1  0
  2  3  2  0
  4  2  1  0
  4  5  1  0
  6  5  1  0
  7  6  1  0
  8  7  1  0
  8  9  1  1
 10  8  1  0
 11 10  2  0
 12 10  1  0
 13 12  1  0
 13 14  1  1
 14 15  1  0
 16 15  1  0
 16 17  1  0
 17 18  1  0
 19 13  1  0
 19 28  1  0
 20 19  2  0
 21 22  1  0
 22 32  2  0
 23 24  2  0
 23 22  1  0
 24 25  1  0
 25 26  1  0
 25 31  2  0
 27 28  1  0
 27 26  1  1
 29 27  1  0
 29 30  1  0
 32 31  1  0
 33 29  2  0
M  END
$$$$
