RKY.pdb
     RDKit          3D

 33 33  0  0  1  0  0  0  0  0999 V2000
   28.2029  -25.0257  -15.7286 N   0  0  0  0  0  0  0  0  0  0  0  0
   28.1213  -25.4953  -17.0814 C   0  0  0  0  0  0  0  0  0  0  0  0
   29.0173  -26.2844  -17.5336 N   0  0  0  0  0  0  0  0  0  0  0  0
   27.0646  -25.0932  -17.9345 N   0  0  0  0  0  0  0  0  0  0  0  0
   25.7648  -24.7628  -17.3991 C   0  0  0  0  0  0  0  0  0  0  0  0
   25.3875  -25.6124  -16.1992 C   0  0  0  0  0  0  0  0  0  0  0  0
   23.9647  -25.3156  -15.8207 C   0  0  0  0  0  0  0  0  0  0  0  0
   22.9738  -26.1588  -16.5492 C   0  0  2  0  0  0  0  0  0  0  0  0
   22.9433  -26.0539  -17.9616 N   0  0  0  0  0  0  0  0  0  0  0  0
   21.5839  -25.9677  -16.0057 C   0  0  0  0  0  0  0  0  0  0  0  0
   20.9547  -24.9283  -16.4121 O   0  0  0  0  0  0  0  0  0  0  0  0
   29.0610  -26.5666  -18.5240 N   0  0  0  0  0  0  0  0  0  0  0  0
   20.9710  -26.8518  -15.1030 C   0  0  1  0  0  0  0  0  0  0  0  0
   19.5859  -26.7473  -14.6818 C   0  0  0  0  0  0  0  0  0  0  0  0
   18.7243  -27.8036  -15.2698 C   0  0  0  0  0  0  0  0  0  0  0  0
   18.4647  -27.6717  -16.7498 C   0  0  0  0  0  0  0  0  0  0  0  0
   17.4889  -28.6942  -17.2770 C   0  0  0  0  0  0  0  0  0  0  0  0
   17.3091  -28.5349  -18.7887 N   0  0  0  0  0  0  0  0  0  0  0  0
   16.4694  -29.5742  -19.3190 C   0  0  0  0  0  0  0  0  0  0  0  0
   19.4965  -26.6954  -13.1819 O   0  0  0  0  0  0  0  0  0  0  0  0
   20.1397  -27.5164  -12.4874 O   0  0  0  0  0  0  0  0  0  0  0  0
   17.1348  -24.3934   -5.0425 C   0  0  0  0  0  0  0  0  0  0  0  0
   17.4688  -24.4008   -6.3828 C   0  0  0  0  0  0  0  0  0  0  0  0
   18.7720  -24.6453   -6.8020 C   0  0  0  0  0  0  0  0  0  0  0  0
   19.1204  -24.6567   -8.1195 C   0  0  0  0  0  0  0  0  0  0  0  0
   18.1296  -24.4130   -9.0833 C   0  0  0  0  0  0  0  0  0  0  0  0
   18.5520  -24.4039  -10.4963 C   0  0  1  0  0  0  0  0  0  0  0  0
   18.5351  -25.7845  -11.0621 N   0  0  0  0  0  0  0  0  0  0  0  0
   18.6966  -25.7346  -12.5155 C   0  0  0  0  0  0  0  0  0  0  0  0
   17.3422  -26.5711  -10.6913 O   0  0  0  0  0  0  0  0  0  0  0  0
   17.2384  -27.3650   -9.5522 C   0  0  0  0  0  0  0  0  0  0  0  0
   16.8357  -24.1696   -8.6750 C   0  0  0  0  0  0  0  0  0  0  0  0
   16.5142  -24.1644   -7.3436 O   0  0  0  0  0  0  0  0  0  0  0  0
  1  2  1  0
  2  3  2  0
  4  2  1  0
  4  5  1  0
  6  5  1  0
  7  6  1  0
  8  7  1  0
  8  9  1  6
 10  8  1  0
 11 10  2  0
 12 10  1  0
 13 12  1  0
 13 14  1  6
 14 15  1  0
 16 15  1  0
 16 17  1  0
 17 18  1  0
 19 13  1  0
 19 28  1  0
 20 19  2  0
 21 22  1  0
 22 32  2  0
 23 24  2  0
 23 22  1  0
 24 25  1  0
 25 26  1  0
 25 31  2  0
 27 28  1  0
 27 26  1  1
 29 27  1  0
 29 30  1  0
 32 31  1  0
 33 29  2  0
M  END
$$$$
