RKY.pdb
     RDKit          3D

 33 33  0  0  1  0  0  0  0  0999 V2000
   20.6282   -9.9132  -16.8914 N   0  0  0  0  0  0  0  0  0  0  0  0
   20.9250  -11.2262  -16.3962 C   0  0  0  0  0  0  0  0  0  0  0  0
   20.2913  -11.6805  -15.3851 N   0  0  0  0  0  0  0  0  0  0  0  0
   21.9183  -12.0320  -17.0044 N   0  0  0  0  0  0  0  0  0  0  0  0
   22.5447  -11.6285  -18.2414 C   0  0  0  0  0  0  0  0  0  0  0  0
   23.4471  -12.7015  -18.8232 C   0  0  0  0  0  0  0  0  0  0  0  0
   24.8169  -12.5633  -18.2230 C   0  0  0  0  0  0  0  0  0  0  0  0
   25.8254  -13.4699  -18.8433 C   0  0  2  0  0  0  0  0  0  0  0  0
   26.1622  -13.2380  -20.1996 N   0  0  0  0  0  0  0  0  0  0  0  0
   25.4496  -14.9156  -18.6637 C   0  0  0  0  0  0  0  0  0  0  0  0
   24.5524  -15.3703  -19.4572 O   0  0  0  0  0  0  0  0  0  0  0  0
   20.4171  -12.6423  -15.0365 N   0  0  0  0  0  0  0  0  0  0  0  0
   26.0227  -15.7561  -17.6955 C   0  0  2  0  0  0  0  0  0  0  0  0
   25.7027  -17.1648  -17.5550 C   0  0  0  0  0  0  0  0  0  0  0  0
   26.8774  -17.9861  -17.1683 C   0  0  0  0  0  0  0  0  0  0  0  0
   26.5884  -19.4458  -16.9218 C   0  0  0  0  0  0  0  0  0  0  0  0
   27.7863  -20.2140  -16.4209 C   0  0  0  0  0  0  0  0  0  0  0  0
   27.4213  -21.6813  -16.1822 N   0  0  0  0  0  0  0  0  0  0  0  0
   28.5307  -22.4022  -15.6203 C   0  0  0  0  0  0  0  0  0  0  0  0
   24.5367  -17.3473  -16.6237 O   0  0  0  0  0  0  0  0  0  0  0  0
   24.4445  -16.6445  -15.5904 O   0  0  0  0  0  0  0  0  0  0  0  0
   17.0640  -17.6083  -12.6754 C   0  0  0  0  0  0  0  0  0  0  0  0
   18.1777  -17.4816  -13.4827 C   0  0  0  0  0  0  0  0  0  0  0  0
   18.1244  -17.7790  -14.8401 C   0  0  0  0  0  0  0  0  0  0  0  0
   19.2123  -17.6602  -15.6523 C   0  0  0  0  0  0  0  0  0  0  0  0
   20.4255  -17.2233  -15.0981 C   0  0  0  0  0  0  0  0  0  0  0  0
   21.5870  -17.1365  -16.0030 C   0  0  2  0  0  0  0  0  0  0  0  0
   22.3651  -18.4095  -15.9880 N   0  0  0  0  0  0  0  0  0  0  0  0
   23.5218  -18.3026  -16.8778 C   0  0  0  0  0  0  0  0  0  0  0  0
   21.5637  -19.6073  -16.3076 O   0  0  0  0  0  0  0  0  0  0  0  0
   21.6685  -20.3402  -17.4868 C   0  0  0  0  0  0  0  0  0  0  0  0
   20.4857  -16.9269  -13.7533 C   0  0  0  0  0  0  0  0  0  0  0  0
   19.3761  -17.0555  -12.9608 O   0  0  0  0  0  0  0  0  0  0  0  0
  1  2  1  0
  2  3  2  0
  4  2  1  0
  4  5  1  0
  6  5  1  0
  7  6  1  0
  8  7  1  0
  8  9  1  6
 10  8  1  0
 11 10  2  0
 12 10  1  0
 13 12  1  0
 13 14  1  1
 14 15  1  0
 16 15  1  0
 16 17  1  0
 17 18  1  0
 19 13  1  0
 19 28  1  0
 20 19  2  0
 21 22  1  0
 22 32  2  0
 23 24  2  0
 23 22  1  0
 24 25  1  0
 25 26  1  0
 25 31  2  0
 27 28  1  0
 27 26  1  1
 29 27  1  0
 29 30  1  0
 32 31  1  0
 33 29  2  0
M  END
$$$$
