RKY.pdb
     RDKit          3D

 33 33  0  0  1  0  0  0  0  0999 V2000
   29.5083  -27.9083  -15.9418 N   0  0  0  0  0  0  0  0  0  0  0  0
   28.4260  -28.3410  -16.7775 C   0  0  0  0  0  0  0  0  0  0  0  0
   28.1031  -29.5759  -16.8077 N   0  0  0  0  0  0  0  0  0  0  0  0
   27.7077  -27.4223  -17.5813 N   0  0  0  0  0  0  0  0  0  0  0  0
   27.9220  -26.0000  -17.4528 C   0  0  0  0  0  0  0  0  0  0  0  0
   27.1182  -25.3818  -16.3234 C   0  0  0  0  0  0  0  0  0  0  0  0
   25.8515  -24.8041  -16.8870 C   0  0  0  0  0  0  0  0  0  0  0  0
   25.8110  -23.3143  -16.8373 C   0  0  2  0  0  0  0  0  0  0  0  0
   26.9886  -22.6184  -17.2055 N   0  0  0  0  0  0  0  0  0  0  0  0
   25.3400  -22.8213  -15.4962 C   0  0  0  0  0  0  0  0  0  0  0  0
   24.1975  -23.2490  -15.1047 O   0  0  0  0  0  0  0  0  0  0  0  0
   27.3163  -29.9311  -17.3709 N   0  0  0  0  0  0  0  0  0  0  0  0
   26.0767  -21.9423  -14.6855 C   0  0  1  0  0  0  0  0  0  0  0  0
   25.5895  -21.3970  -13.4318 C   0  0  0  0  0  0  0  0  0  0  0  0
   26.6611  -20.7592  -12.6265 C   0  0  0  0  0  0  0  0  0  0  0  0
   26.2107  -20.1560  -11.3194 C   0  0  0  0  0  0  0  0  0  0  0  0
   25.4006  -21.1059  -10.4726 C   0  0  0  0  0  0  0  0  0  0  0  0
   24.9111  -20.4076   -9.2015 N   0  0  0  0  0  0  0  0  0  0  0  0
   24.0610  -21.2754   -8.4329 C   0  0  0  0  0  0  0  0  0  0  0  0
   24.4247  -20.4785  -13.6770 O   0  0  0  0  0  0  0  0  0  0  0  0
   24.5968  -19.3984  -14.2884 O   0  0  0  0  0  0  0  0  0  0  0  0
   17.5771  -16.6185  -16.7196 C   0  0  0  0  0  0  0  0  0  0  0  0
   18.6245  -17.4235  -16.3157 C   0  0  0  0  0  0  0  0  0  0  0  0
   19.8975  -16.9038  -16.1081 C   0  0  0  0  0  0  0  0  0  0  0  0
   20.9429  -17.6820  -15.7096 C   0  0  0  0  0  0  0  0  0  0  0  0
   20.7251  -19.0531  -15.5028 C   0  0  0  0  0  0  0  0  0  0  0  0
   21.8878  -19.8669  -15.1013 C   0  0  1  0  0  0  0  0  0  0  0  0
   21.9804  -19.9593  -13.6149 N   0  0  0  0  0  0  0  0  0  0  0  0
   23.1176  -20.7970  -13.2328 C   0  0  0  0  0  0  0  0  0  0  0  0
   20.7404  -20.4254  -12.9635 O   0  0  0  0  0  0  0  0  0  0  0  0
   19.7728  -19.5905  -12.4110 C   0  0  0  0  0  0  0  0  0  0  0  0
   19.4658  -19.5751  -15.7068 C   0  0  0  0  0  0  0  0  0  0  0  0
   18.4335  -18.7689  -16.1073 O   0  0  0  0  0  0  0  0  0  0  0  0
  1  2  1  0
  2  3  2  0
  4  2  1  0
  4  5  1  0
  6  5  1  0
  7  6  1  0
  8  7  1  0
  8  9  1  1
 10  8  1  0
 11 10  2  0
 12 10  1  0
 13 12  1  0
 13 14  1  6
 14 15  1  0
 16 15  1  0
 16 17  1  0
 17 18  1  0
 19 13  1  0
 19 28  1  0
 20 19  2  0
 21 22  1  0
 22 32  2  0
 23 24  2  0
 23 22  1  0
 24 25  1  0
 25 26  1  0
 25 31  2  0
 27 28  1  0
 27 26  1  1
 29 27  1  0
 29 30  1  0
 32 31  1  0
 33 29  2  0
M  END
$$$$
