RKY.pdb
     RDKit          3D

 33 33  0  0  1  0  0  0  0  0999 V2000
   21.6672  -23.3646  -17.1310 N   0  0  0  0  0  0  0  0  0  0  0  0
   20.9989  -22.1349  -17.4446 C   0  0  0  0  0  0  0  0  0  0  0  0
   21.0849  -21.6492  -18.6223 N   0  0  0  0  0  0  0  0  0  0  0  0
   20.2467  -21.4392  -16.4668 N   0  0  0  0  0  0  0  0  0  0  0  0
   20.1165  -21.9571  -15.1251 C   0  0  0  0  0  0  0  0  0  0  0  0
   18.9240  -22.8821  -14.9628 C   0  0  0  0  0  0  0  0  0  0  0  0
   18.3744  -22.7283  -13.5735 C   0  0  0  0  0  0  0  0  0  0  0  0
   19.3760  -23.0221  -12.5086 C   0  0  2  0  0  0  0  0  0  0  0  0
   20.7268  -23.1705  -12.9085 N   0  0  0  0  0  0  0  0  0  0  0  0
   18.9677  -24.2114  -11.6824 C   0  0  0  0  0  0  0  0  0  0  0  0
   17.8289  -24.1329  -11.1006 O   0  0  0  0  0  0  0  0  0  0  0  0
   20.6762  -20.7385  -18.8791 N   0  0  0  0  0  0  0  0  0  0  0  0
   19.7572  -25.3627  -11.5292 C   0  0  1  0  0  0  0  0  0  0  0  0
   19.3727  -26.5062  -10.7221 C   0  0  0  0  0  0  0  0  0  0  0  0
   20.3921  -27.5854  -10.7305 C   0  0  0  0  0  0  0  0  0  0  0  0
   20.0396  -28.8092   -9.9224 C   0  0  0  0  0  0  0  0  0  0  0  0
   19.9595  -30.0675  -10.7507 C   0  0  0  0  0  0  0  0  0  0  0  0
   19.7201  -31.2854   -9.8549 N   0  0  0  0  0  0  0  0  0  0  0  0
   19.7103  -32.4977  -10.6272 C   0  0  0  0  0  0  0  0  0  0  0  0
   19.0056  -26.0671   -9.3319 O   0  0  0  0  0  0  0  0  0  0  0  0
   19.8214  -25.4062   -8.6480 O   0  0  0  0  0  0  0  0  0  0  0  0
   13.6759  -24.8355   -2.4279 C   0  0  0  0  0  0  0  0  0  0  0  0
   14.3139  -24.8831   -3.6521 C   0  0  0  0  0  0  0  0  0  0  0  0
   15.5732  -24.3218   -3.8336 C   0  0  0  0  0  0  0  0  0  0  0  0
   16.2181  -24.3590   -5.0336 C   0  0  0  0  0  0  0  0  0  0  0  0
   15.5885  -24.9848   -6.1208 C   0  0  0  0  0  0  0  0  0  0  0  0
   16.3054  -24.9779   -7.4097 C   0  0  1  0  0  0  0  0  0  0  0  0
   17.4303  -25.9580   -7.3942 N   0  0  0  0  0  0  0  0  0  0  0  0
   17.7485  -26.3803   -8.7586 C   0  0  0  0  0  0  0  0  0  0  0  0
   17.1975  -27.1261   -6.5221 O   0  0  0  0  0  0  0  0  0  0  0  0
   17.4010  -27.1405   -5.1448 C   0  0  0  0  0  0  0  0  0  0  0  0
   14.3401  -25.5432   -5.9482 C   0  0  0  0  0  0  0  0  0  0  0  0
   13.7155  -25.4910   -4.7304 O   0  0  0  0  0  0  0  0  0  0  0  0
  1  2  1  0
  2  3  2  0
  4  2  1  0
  4  5  1  0
  6  5  1  0
  7  6  1  0
  8  7  1  0
  8  9  1  6
 10  8  1  0
 11 10  2  0
 12 10  1  0
 13 12  1  0
 13 14  1  6
 14 15  1  0
 16 15  1  0
 16 17  1  0
 17 18  1  0
 19 13  1  0
 19 28  1  0
 20 19  2  0
 21 22  1  0
 22 32  2  0
 23 24  2  0
 23 22  1  0
 24 25  1  0
 25 26  1  0
 25 31  2  0
 27 28  1  0
 27 26  1  6
 29 27  1  0
 29 30  1  0
 32 31  1  0
 33 29  2  0
M  END
$$$$
