RKY.pdb
     RDKit          3D

 33 33  0  0  1  0  0  0  0  0999 V2000
   30.8063  -23.6610  -17.7117 N   0  0  0  0  0  0  0  0  0  0  0  0
   30.4637  -24.6948  -16.7784 C   0  0  0  0  0  0  0  0  0  0  0  0
   31.3879  -25.3211  -16.1588 N   0  0  0  0  0  0  0  0  0  0  0  0
   29.1130  -25.0433  -16.5335 N   0  0  0  0  0  0  0  0  0  0  0  0
   28.0353  -24.3335  -17.1817 C   0  0  0  0  0  0  0  0  0  0  0  0
   27.4172  -23.2649  -16.2985 C   0  0  0  0  0  0  0  0  0  0  0  0
   26.2460  -23.8558  -15.5671 C   0  0  0  0  0  0  0  0  0  0  0  0
   25.1994  -24.4038  -16.4771 C   0  0  2  0  0  0  0  0  0  0  0  0
   25.1862  -23.9320  -17.8127 N   0  0  0  0  0  0  0  0  0  0  0  0
   23.8242  -24.2587  -15.8842 C   0  0  0  0  0  0  0  0  0  0  0  0
   23.1307  -23.2645  -16.2990 O   0  0  0  0  0  0  0  0  0  0  0  0
   31.2047  -26.1589  -15.5870 N   0  0  0  0  0  0  0  0  0  0  0  0
   23.2899  -25.1382  -14.9285 C   0  0  2  0  0  0  0  0  0  0  0  0
   21.9466  -25.0293  -14.3899 C   0  0  0  0  0  0  0  0  0  0  0  0
   21.5940  -26.1565  -13.4906 C   0  0  0  0  0  0  0  0  0  0  0  0
   20.1745  -26.1525  -12.9805 C   0  0  0  0  0  0  0  0  0  0  0  0
   19.8559  -27.3321  -12.0958 C   0  0  0  0  0  0  0  0  0  0  0  0
   18.4002  -27.2731  -11.6261 N   0  0  0  0  0  0  0  0  0  0  0  0
   18.0599  -28.4398  -10.8586 C   0  0  0  0  0  0  0  0  0  0  0  0
   21.7489  -23.6874  -13.7415 O   0  0  0  0  0  0  0  0  0  0  0  0
   22.6925  -23.1480  -13.1180 O   0  0  0  0  0  0  0  0  0  0  0  0
   20.4450  -16.2659  -17.6142 C   0  0  0  0  0  0  0  0  0  0  0  0
   20.6639  -17.5121  -17.0599 C   0  0  0  0  0  0  0  0  0  0  0  0
   21.3795  -17.6618  -15.8770 C   0  0  0  0  0  0  0  0  0  0  0  0
   21.6056  -18.8826  -15.3152 C   0  0  0  0  0  0  0  0  0  0  0  0
   21.0987  -20.0253  -15.9535 C   0  0  0  0  0  0  0  0  0  0  0  0
   21.3901  -21.3300  -15.3306 C   0  0  1  0  0  0  0  0  0  0  0  0
   20.4697  -21.5860  -14.1844 N   0  0  0  0  0  0  0  0  0  0  0  0
   20.5118  -23.0003  -13.8116 C   0  0  0  0  0  0  0  0  0  0  0  0
   19.0809  -21.1442  -14.4189 O   0  0  0  0  0  0  0  0  0  0  0  0
   18.1763  -21.7851  -15.2613 C   0  0  0  0  0  0  0  0  0  0  0  0
   20.3886  -19.8844  -17.1265 C   0  0  0  0  0  0  0  0  0  0  0  0
   20.1765  -18.6446  -17.6684 O   0  0  0  0  0  0  0  0  0  0  0  0
  1  2  1  0
  2  3  2  0
  4  2  1  0
  4  5  1  0
  6  5  1  0
  7  6  1  0
  8  7  1  0
  8  9  1  6
 10  8  1  0
 11 10  2  0
 12 10  1  0
 13 12  1  0
 13 14  1  6
 14 15  1  0
 16 15  1  0
 16 17  1  0
 17 18  1  0
 19 13  1  0
 19 28  1  0
 20 19  2  0
 21 22  1  0
 22 32  2  0
 23 24  2  0
 23 22  1  0
 24 25  1  0
 25 26  1  0
 25 31  2  0
 27 28  1  0
 27 26  1  1
 29 27  1  0
 29 30  1  0
 32 31  1  0
 33 29  2  0
M  END
$$$$
