RKY.pdb
     RDKit          3D

 33 33  0  0  1  0  0  0  0  0999 V2000
   30.2967  -24.3350  -17.5036 N   0  0  0  0  0  0  0  0  0  0  0  0
   30.2794  -24.4131  -18.9355 C   0  0  0  0  0  0  0  0  0  0  0  0
   30.0142  -25.5238  -19.5067 N   0  0  0  0  0  0  0  0  0  0  0  0
   30.5600  -23.2782  -19.7352 N   0  0  0  0  0  0  0  0  0  0  0  0
   30.6871  -21.9674  -19.1427 C   0  0  0  0  0  0  0  0  0  0  0  0
   29.8369  -20.9202  -19.8389 C   0  0  0  0  0  0  0  0  0  0  0  0
   28.6131  -20.6567  -19.0091 C   0  0  0  0  0  0  0  0  0  0  0  0
   27.3786  -20.4685  -19.8241 C   0  0  2  0  0  0  0  0  0  0  0  0
   27.5065  -19.7632  -21.0460 N   0  0  0  0  0  0  0  0  0  0  0  0
   26.2701  -19.8579  -19.0105 C   0  0  0  0  0  0  0  0  0  0  0  0
   26.6288  -19.0745  -18.0623 O   0  0  0  0  0  0  0  0  0  0  0  0
   30.0660  -25.6498  -20.5283 N   0  0  0  0  0  0  0  0  0  0  0  0
   24.9067  -20.1038  -19.2409 C   0  0  2  0  0  0  0  0  0  0  0  0
   23.8355  -19.5330  -18.4452 C   0  0  0  0  0  0  0  0  0  0  0  0
   22.5232  -19.5659  -19.1385 C   0  0  0  0  0  0  0  0  0  0  0  0
   22.3579  -18.5599  -20.2502 C   0  0  0  0  0  0  0  0  0  0  0  0
   22.0965  -17.1598  -19.7527 C   0  0  0  0  0  0  0  0  0  0  0  0
   21.8863  -16.2030  -20.9289 N   0  0  0  0  0  0  0  0  0  0  0  0
   21.7495  -14.8474  -20.4707 C   0  0  0  0  0  0  0  0  0  0  0  0
   23.7897  -20.1780  -17.0879 O   0  0  0  0  0  0  0  0  0  0  0  0
   23.8491  -21.4253  -16.9849 O   0  0  0  0  0  0  0  0  0  0  0  0
   23.8818  -21.4601   -8.4527 C   0  0  0  0  0  0  0  0  0  0  0  0
   23.9968  -20.8909   -9.7060 C   0  0  0  0  0  0  0  0  0  0  0  0
   22.9693  -20.1288  -10.2512 C   0  0  0  0  0  0  0  0  0  0  0  0
   23.0645  -19.5595  -11.4857 C   0  0  0  0  0  0  0  0  0  0  0  0
   24.2392  -19.7502  -12.2298 C   0  0  0  0  0  0  0  0  0  0  0  0
   24.2919  -19.1435  -13.5730 C   0  0  1  0  0  0  0  0  0  0  0  0
   23.7086  -20.0640  -14.5922 N   0  0  0  0  0  0  0  0  0  0  0  0
   23.6794  -19.4114  -15.9015 C   0  0  0  0  0  0  0  0  0  0  0  0
   22.3756  -20.5885  -14.2352 O   0  0  0  0  0  0  0  0  0  0  0  0
   22.1491  -21.7836  -13.5578 C   0  0  0  0  0  0  0  0  0  0  0  0
   25.2618  -20.5047  -11.6957 C   0  0  0  0  0  0  0  0  0  0  0  0
   25.1385  -21.0650  -10.4520 O   0  0  0  0  0  0  0  0  0  0  0  0
  1  2  1  0
  2  3  2  0
  4  2  1  0
  4  5  1  0
  6  5  1  0
  7  6  1  0
  8  7  1  0
  8  9  1  6
 10  8  1  0
 11 10  2  0
 12 10  1  0
 13 12  1  0
 13 14  1  1
 14 15  1  0
 16 15  1  0
 16 17  1  0
 17 18  1  0
 19 13  1  0
 19 28  1  0
 20 19  2  0
 21 22  1  0
 22 32  2  0
 23 24  2  0
 23 22  1  0
 24 25  1  0
 25 26  1  0
 25 31  2  0
 27 28  1  0
 27 26  1  6
 29 27  1  0
 29 30  1  0
 32 31  1  0
 33 29  2  0
M  END
$$$$
