RKY.pdb
     RDKit          3D

 33 33  0  0  1  0  0  0  0  0999 V2000
   20.5678  -26.4997  -14.0573 N   0  0  0  0  0  0  0  0  0  0  0  0
   20.2119  -27.3414  -15.1627 C   0  0  0  0  0  0  0  0  0  0  0  0
   18.9832  -27.6038  -15.3898 N   0  0  0  0  0  0  0  0  0  0  0  0
   21.2019  -27.8980  -16.0089 N   0  0  0  0  0  0  0  0  0  0  0  0
   22.6058  -27.6800  -15.7501 C   0  0  0  0  0  0  0  0  0  0  0  0
   23.1096  -26.3592  -16.3030 C   0  0  0  0  0  0  0  0  0  0  0  0
   24.1767  -25.8251  -15.3909 C   0  0  0  0  0  0  0  0  0  0  0  0
   23.6714  -24.8045  -14.4282 C   0  0  2  0  0  0  0  0  0  0  0  0
   22.5116  -24.0796  -14.7971 N   0  0  0  0  0  0  0  0  0  0  0  0
   24.7553  -23.8403  -14.0295 C   0  0  0  0  0  0  0  0  0  0  0  0
   25.8948  -24.3539  -13.7479 O   0  0  0  0  0  0  0  0  0  0  0  0
   18.6835  -28.3050  -16.0833 N   0  0  0  0  0  0  0  0  0  0  0  0
   24.5741  -22.4495  -13.9564 C   0  0  1  0  0  0  0  0  0  0  0  0
   25.6099  -21.5186  -13.5476 C   0  0  0  0  0  0  0  0  0  0  0  0
   25.5579  -20.2360  -14.2932 C   0  0  0  0  0  0  0  0  0  0  0  0
   26.6843  -19.2763  -14.0013 C   0  0  0  0  0  0  0  0  0  0  0  0
   26.6391  -18.0289  -14.8485 C   0  0  0  0  0  0  0  0  0  0  0  0
   27.8315  -17.1225  -14.5332 N   0  0  0  0  0  0  0  0  0  0  0  0
   27.7344  -15.8783  -15.2465 C   0  0  0  0  0  0  0  0  0  0  0  0
   25.5811  -21.3237  -12.0571 O   0  0  0  0  0  0  0  0  0  0  0  0
   24.4882  -21.1512  -11.4691 O   0  0  0  0  0  0  0  0  0  0  0  0
   27.9473  -19.1454   -3.9395 C   0  0  0  0  0  0  0  0  0  0  0  0
   27.9854  -19.5223   -5.2679 C   0  0  0  0  0  0  0  0  0  0  0  0
   28.3097  -18.6129   -6.2686 C   0  0  0  0  0  0  0  0  0  0  0  0
   28.3524  -18.9661   -7.5842 C   0  0  0  0  0  0  0  0  0  0  0  0
   28.0586  -20.2921   -7.9384 C   0  0  0  0  0  0  0  0  0  0  0  0
   28.0860  -20.6277   -9.3742 C   0  0  2  0  0  0  0  0  0  0  0  0
   26.7224  -20.9920   -9.8581 N   0  0  0  0  0  0  0  0  0  0  0  0
   26.7668  -21.3280  -11.2816 C   0  0  0  0  0  0  0  0  0  0  0  0
   25.6959  -19.9652   -9.5911 O   0  0  0  0  0  0  0  0  0  0  0  0
   25.7072  -18.6767  -10.1186 C   0  0  0  0  0  0  0  0  0  0  0  0
   27.7362  -21.1989   -6.9516 C   0  0  0  0  0  0  0  0  0  0  0  0
   27.7011  -20.8158   -5.6371 O   0  0  0  0  0  0  0  0  0  0  0  0
  1  2  1  0
  2  3  2  0
  4  2  1  0
  4  5  1  0
  6  5  1  0
  7  6  1  0
  8  7  1  0
  8  9  1  6
 10  8  1  0
 11 10  2  0
 12 10  1  0
 13 12  1  0
 13 14  1  6
 14 15  1  0
 16 15  1  0
 16 17  1  0
 17 18  1  0
 19 13  1  0
 19 28  1  0
 20 19  2  0
 21 22  1  0
 22 32  2  0
 23 24  2  0
 23 22  1  0
 24 25  1  0
 25 26  1  0
 25 31  2  0
 27 28  1  0
 27 26  1  1
 29 27  1  0
 29 30  1  0
 32 31  1  0
 33 29  2  0
M  END
$$$$
