ILY.pdb
     RDKit          3D

 29 29  0  0  1  0  0  0  0  0999 V2000
   26.7204  -27.5137  -18.2546 C   0  0  0  0  0  0  0  0  0  0  0  0
   27.7520  -26.3780  -18.2928 C   0  0  0  0  0  0  0  0  0  0  0  0
   27.3819  -25.4190  -17.2167 C   0  0  2  0  0  0  0  0  0  0  0  0
   25.9275  -25.0230  -17.4098 C   0  0  0  0  0  0  0  0  0  0  0  0
   28.1965  -24.1651  -17.1912 C   0  0  2  0  0  0  0  0  0  0  0  0
   29.5482  -24.5124  -16.7915 N   0  0  0  0  0  0  0  0  0  0  0  0
   27.6657  -23.1152  -16.3161 C   0  0  0  0  0  0  0  0  0  0  0  0
   27.7985  -23.1934  -15.0677 O   0  0  0  0  0  0  0  0  0  0  0  0
   28.5347  -18.8223  -15.3208 C   0  0  0  0  0  0  0  0  0  0  0  0
   28.0181  -19.0592  -16.7586 C   0  0  2  0  0  0  0  0  0  0  0  0
   28.1657  -17.7266  -17.4392 C   0  0  0  0  0  0  0  0  0  0  0  0
   26.6293  -19.5588  -16.6023 C   0  0  0  0  0  0  0  0  0  0  0  0
   26.4732  -20.9176  -15.9835 C   0  0  2  0  0  0  0  0  0  0  0  0
   26.9770  -21.9587  -16.8188 N   0  0  0  0  0  0  0  0  0  0  0  0
   25.0043  -21.1126  -15.7000 C   0  0  0  0  0  0  0  0  0  0  0  0
   24.2675  -21.3805  -16.6740 O   0  0  0  0  0  0  0  0  0  0  0  0
   17.1798  -21.8578  -11.7674 O   0  0  0  0  0  0  0  0  0  0  0  0
   18.5501  -21.6802  -11.9900 C   0  0  0  0  0  0  0  0  0  0  0  0
   19.1139  -20.4423  -11.8295 C   0  0  0  0  0  0  0  0  0  0  0  0
   20.4540  -20.2350  -12.0399 C   0  0  0  0  0  0  0  0  0  0  0  0
   21.3016  -21.2543  -12.4225 C   0  0  0  0  0  0  0  0  0  0  0  0
   22.7481  -21.0551  -12.6668 C   0  0  0  0  0  0  0  0  0  0  0  0
   23.0261  -21.0997  -14.1328 C   0  0  2  0  0  0  0  0  0  0  0  0
   24.4572  -21.0045  -14.4084 N   0  0  0  0  0  0  0  0  0  0  0  0
   22.2554  -20.1590  -14.9599 C   0  0  0  0  0  0  0  0  0  0  0  0
   21.2573  -20.5107  -15.6119 O   0  0  0  0  0  0  0  0  0  0  0  0
   20.7124  -22.5148  -12.5829 C   0  0  0  0  0  0  0  0  0  0  0  0
   19.3761  -22.7179  -12.3720 C   0  0  0  0  0  0  0  0  0  0  0  0
   22.6500  -18.8354  -15.0185 O   0  0  0  0  0  0  0  0  0  0  0  0
  1  2  1  0
  3  2  1  0
  3  4  1  6
  5  6  1  1
  5  3  1  0
  7  5  1  0
  8  7  2  0
 10  9  1  1
 10 12  1  0
 11 10  1  0
 13 12  1  6
 13 15  1  0
 13 14  1  0
 14  7  1  0
 15 24  1  0
 16 15  2  0
 17 18  1  0
 18 28  2  0
 19 18  1  0
 19 20  2  0
 20 21  1  0
 21 27  2  0
 21 22  1  0
 23 22  1  1
 23 25  1  0
 24 23  1  0
 25 26  2  0
 25 29  1  0
 28 27  1  0
M  END
$$$$
