ILY.pdb
     RDKit          3D

 29 29  0  0  1  0  0  0  0  0999 V2000
   18.8492  -20.0873  -20.2645 C   0  0  0  0  0  0  0  0  0  0  0  0
   19.0093  -19.5573  -18.8330 C   0  0  0  0  0  0  0  0  0  0  0  0
   18.4975  -18.1600  -18.8277 C   0  0  2  0  0  0  0  0  0  0  0  0
   19.2803  -17.3610  -19.8565 C   0  0  0  0  0  0  0  0  0  0  0  0
   18.6198  -17.4558  -17.5141 C   0  0  2  0  0  0  0  0  0  0  0  0
   18.1990  -18.3718  -16.4695 N   0  0  0  0  0  0  0  0  0  0  0  0
   17.8605  -16.2047  -17.4240 C   0  0  0  0  0  0  0  0  0  0  0  0
   18.1228  -15.2393  -18.1864 O   0  0  0  0  0  0  0  0  0  0  0  0
   13.2513  -15.0041  -17.5555 C   0  0  0  0  0  0  0  0  0  0  0  0
   13.7143  -15.8305  -16.3337 C   0  0  2  0  0  0  0  0  0  0  0  0
   12.4562  -16.0899  -15.5523 C   0  0  0  0  0  0  0  0  0  0  0  0
   14.7389  -14.9964  -15.6576 C   0  0  0  0  0  0  0  0  0  0  0  0
   16.0349  -14.8043  -16.3906 C   0  0  2  0  0  0  0  0  0  0  0  0
   16.7943  -16.0086  -16.4809 N   0  0  0  0  0  0  0  0  0  0  0  0
   16.8047  -13.7308  -15.6619 C   0  0  0  0  0  0  0  0  0  0  0  0
   17.2433  -14.0167  -14.5263 O   0  0  0  0  0  0  0  0  0  0  0  0
   21.6481  -11.7652  -20.6133 O   0  0  0  0  0  0  0  0  0  0  0  0
   21.0628  -11.7640  -19.3420 C   0  0  0  0  0  0  0  0  0  0  0  0
   20.9726  -12.9306  -18.6299 C   0  0  0  0  0  0  0  0  0  0  0  0
   20.4046  -12.9631  -17.3812 C   0  0  0  0  0  0  0  0  0  0  0  0
   19.8961  -11.8310  -16.7782 C   0  0  0  0  0  0  0  0  0  0  0  0
   19.2684  -11.8409  -15.4374 C   0  0  0  0  0  0  0  0  0  0  0  0
   17.8371  -11.4308  -15.5441 C   0  0  2  0  0  0  0  0  0  0  0  0
   17.0358  -12.4553  -16.2085 N   0  0  0  0  0  0  0  0  0  0  0  0
   17.5931  -10.0999  -16.1202 C   0  0  0  0  0  0  0  0  0  0  0  0
   18.0710   -9.0640  -15.6265 O   0  0  0  0  0  0  0  0  0  0  0  0
   19.9949  -10.6452  -17.5168 C   0  0  0  0  0  0  0  0  0  0  0  0
   20.5620  -10.6164  -18.7614 C   0  0  0  0  0  0  0  0  0  0  0  0
   16.8052   -9.9902  -17.2508 O   0  0  0  0  0  0  0  0  0  0  0  0
  1  2  1  0
  3  2  1  0
  3  4  1  6
  5  6  1  1
  5  3  1  0
  7  5  1  0
  8  7  2  0
 10  9  1  6
 10 12  1  0
 11 10  1  0
 13 12  1  1
 13 15  1  0
 13 14  1  0
 14  7  1  0
 15 24  1  0
 16 15  2  0
 17 18  1  0
 18 28  2  0
 19 18  1  0
 19 20  2  0
 20 21  1  0
 21 27  2  0
 21 22  1  0
 23 22  1  6
 23 25  1  0
 24 23  1  0
 25 26  2  0
 25 29  1  0
 28 27  1  0
M  END
$$$$
