ILY.pdb
     RDKit          3D

 29 29  0  0  1  0  0  0  0  0999 V2000
   27.9441  -20.2446   -6.4366 C   0  0  0  0  0  0  0  0  0  0  0  0
   28.1642  -20.9848   -7.7630 C   0  0  0  0  0  0  0  0  0  0  0  0
   27.0502  -20.5932   -8.6686 C   0  0  2  0  0  0  0  0  0  0  0  0
   25.7390  -20.9955   -8.0139 C   0  0  0  0  0  0  0  0  0  0  0  0
   27.0960  -21.2248  -10.0233 C   0  0  2  0  0  0  0  0  0  0  0  0
   28.4606  -21.1464  -10.5125 N   0  0  0  0  0  0  0  0  0  0  0  0
   26.1755  -20.6333  -10.9994 C   0  0  0  0  0  0  0  0  0  0  0  0
   25.3810  -19.7194  -10.6593 O   0  0  0  0  0  0  0  0  0  0  0  0
   26.4899  -17.9677  -14.4896 C   0  0  0  0  0  0  0  0  0  0  0  0
   27.0832  -19.3723  -14.7446 C   0  0  2  0  0  0  0  0  0  0  0  0
   27.7672  -19.2588  -16.0788 C   0  0  0  0  0  0  0  0  0  0  0  0
   25.9308  -20.3055  -14.6825 C   0  0  0  0  0  0  0  0  0  0  0  0
   25.2657  -20.4586  -13.3454 C   0  0  2  0  0  0  0  0  0  0  0  0
   26.1252  -21.0513  -12.3732 N   0  0  0  0  0  0  0  0  0  0  0  0
   24.0275  -21.2944  -13.5561 C   0  0  0  0  0  0  0  0  0  0  0  0
   24.1929  -22.5201  -13.7400 O   0  0  0  0  0  0  0  0  0  0  0  0
   18.4026  -16.0581  -12.8597 O   0  0  0  0  0  0  0  0  0  0  0  0
   18.9629  -17.3362  -12.7532 C   0  0  0  0  0  0  0  0  0  0  0  0
   18.3426  -18.4057  -13.3427 C   0  0  0  0  0  0  0  0  0  0  0  0
   18.8659  -19.6714  -13.2569 C   0  0  0  0  0  0  0  0  0  0  0  0
   20.0371  -19.9350  -12.5767 C   0  0  0  0  0  0  0  0  0  0  0  0
   20.6168  -21.2923  -12.4596 C   0  0  0  0  0  0  0  0  0  0  0  0
   21.5186  -21.5607  -13.6185 C   0  0  2  0  0  0  0  0  0  0  0  0
   22.7308  -20.7489  -13.5517 N   0  0  0  0  0  0  0  0  0  0  0  0
   20.8935  -21.4853  -14.9476 C   0  0  0  0  0  0  0  0  0  0  0  0
   21.1932  -20.6068  -15.7743 O   0  0  0  0  0  0  0  0  0  0  0  0
   20.6611  -18.8329  -11.9789 C   0  0  0  0  0  0  0  0  0  0  0  0
   20.1367  -17.5724  -12.0666 C   0  0  0  0  0  0  0  0  0  0  0  0
   19.9381  -22.4218  -15.2959 O   0  0  0  0  0  0  0  0  0  0  0  0
  1  2  1  0
  3  2  1  0
  3  4  1  1
  5  6  1  6
  5  3  1  0
  7  5  1  0
  8  7  2  0
 10  9  1  6
 10 12  1  0
 11 10  1  0
 13 12  1  6
 13 15  1  0
 13 14  1  0
 14  7  1  0
 15 24  1  0
 16 15  2  0
 17 18  1  0
 18 28  2  0
 19 18  1  0
 19 20  2  0
 20 21  1  0
 21 27  2  0
 21 22  1  0
 23 22  1  1
 23 25  1  0
 24 23  1  0
 25 26  2  0
 25 29  1  0
 28 27  1  0
M  END
$$$$
