ILY.pdb
     RDKit          3D

 29 29  0  0  1  0  0  0  0  0999 V2000
   19.9130  -26.0746  -11.4615 C   0  0  0  0  0  0  0  0  0  0  0  0
   20.2478  -26.9715  -12.6611 C   0  0  0  0  0  0  0  0  0  0  0  0
   20.2027  -28.3780  -12.1775 C   0  0  2  0  0  0  0  0  0  0  0  0
   21.1688  -28.5133  -11.0122 C   0  0  0  0  0  0  0  0  0  0  0  0
   20.5767  -29.4021  -13.2012 C   0  0  2  0  0  0  0  0  0  0  0  0
   19.5873  -29.3621  -14.2627 N   0  0  0  0  0  0  0  0  0  0  0  0
   20.6997  -30.7661  -12.6774 C   0  0  0  0  0  0  0  0  0  0  0  0
   19.7202  -31.3324  -12.1278 O   0  0  0  0  0  0  0  0  0  0  0  0
   20.0414  -34.6711  -13.5958 C   0  0  0  0  0  0  0  0  0  0  0  0
   21.2027  -34.0175  -14.3797 C   0  0  2  0  0  0  0  0  0  0  0  0
   21.4814  -34.9701  -15.5092 C   0  0  0  0  0  0  0  0  0  0  0  0
   22.2969  -33.8423  -13.3924 C   0  0  0  0  0  0  0  0  0  0  0  0
   22.0462  -32.8621  -12.2833 C   0  0  2  0  0  0  0  0  0  0  0  0
   21.9185  -31.5227  -12.7575 N   0  0  0  0  0  0  0  0  0  0  0  0
   23.1927  -32.9862  -11.3106 C   0  0  0  0  0  0  0  0  0  0  0  0
   24.2550  -32.3961  -11.6051 O   0  0  0  0  0  0  0  0  0  0  0  0
   28.5893  -33.1679   -4.6165 O   0  0  0  0  0  0  0  0  0  0  0  0
   27.6307  -33.0030   -5.6230 C   0  0  0  0  0  0  0  0  0  0  0  0
   26.3131  -32.8312   -5.2904 C   0  0  0  0  0  0  0  0  0  0  0  0
   25.3490  -32.6669   -6.2531 C   0  0  0  0  0  0  0  0  0  0  0  0
   25.6510  -32.6662   -7.5994 C   0  0  0  0  0  0  0  0  0  0  0  0
   24.6289  -32.5024   -8.6578 C   0  0  0  0  0  0  0  0  0  0  0  0
   24.1988  -33.8408   -9.1596 C   0  0  2  0  0  0  0  0  0  0  0  0
   23.1021  -33.7254  -10.1171 N   0  0  0  0  0  0  0  0  0  0  0  0
   23.9087  -34.8487   -8.1286 C   0  0  0  0  0  0  0  0  0  0  0  0
   22.7630  -35.2898   -7.9338 O   0  0  0  0  0  0  0  0  0  0  0  0
   27.0015  -32.8426   -7.9255 C   0  0  0  0  0  0  0  0  0  0  0  0
   27.9601  -33.0059   -6.9633 C   0  0  0  0  0  0  0  0  0  0  0  0
   24.9425  -35.3264   -7.3449 O   0  0  0  0  0  0  0  0  0  0  0  0
  1  2  1  0
  3  2  1  0
  3  4  1  1
  5  6  1  6
  5  3  1  0
  7  5  1  0
  8  7  2  0
 10  9  1  1
 10 12  1  0
 11 10  1  0
 13 12  1  6
 13 15  1  0
 13 14  1  0
 14  7  1  0
 15 24  1  0
 16 15  2  0
 17 18  1  0
 18 28  2  0
 19 18  1  0
 19 20  2  0
 20 21  1  0
 21 27  2  0
 21 22  1  0
 23 22  1  1
 23 25  1  0
 24 23  1  0
 25 26  2  0
 25 29  1  0
 28 27  1  0
M  END
$$$$
