ILY.pdb
     RDKit          3D

 29 29  0  0  1  0  0  0  0  0999 V2000
   12.5122  -22.8673    3.5350 C   0  0  0  0  0  0  0  0  0  0  0  0
   12.8698  -21.6730    2.6398 C   0  0  0  0  0  0  0  0  0  0  0  0
   14.2492  -21.2529    3.0073 C   0  0  2  0  0  0  0  0  0  0  0  0
   14.2482  -20.8378    4.4692 C   0  0  0  0  0  0  0  0  0  0  0  0
   14.7864  -20.1083    2.2086 C   0  0  2  0  0  0  0  0  0  0  0  0
   14.7997  -20.4996    0.8107 N   0  0  0  0  0  0  0  0  0  0  0  0
   16.1195  -19.6558    2.6185 C   0  0  0  0  0  0  0  0  0  0  0  0
   17.1392  -20.3430    2.3536 O   0  0  0  0  0  0  0  0  0  0  0  0
   19.1778  -16.1118    2.0180 C   0  0  0  0  0  0  0  0  0  0  0  0
   17.8074  -15.7305    2.6236 C   0  0  2  0  0  0  0  0  0  0  0  0
   17.8557  -14.2338    2.7595 C   0  0  0  0  0  0  0  0  0  0  0  0
   17.7091  -16.4953    3.8918 C   0  0  0  0  0  0  0  0  0  0  0  0
   17.6242  -17.9889    3.7670 C   0  0  2  0  0  0  0  0  0  0  0  0
   16.3385  -18.4279    3.3318 N   0  0  0  0  0  0  0  0  0  0  0  0
   17.9675  -18.5695    5.1165 C   0  0  0  0  0  0  0  0  0  0  0  0
   17.0882  -18.5067    6.0033 O   0  0  0  0  0  0  0  0  0  0  0  0
   21.5126  -23.1902   11.6724 O   0  0  0  0  0  0  0  0  0  0  0  0
   21.2881  -22.6017   10.4225 C   0  0  0  0  0  0  0  0  0  0  0  0
   20.1352  -22.8754    9.7354 C   0  0  0  0  0  0  0  0  0  0  0  0
   19.8850  -22.3148    8.5081 C   0  0  0  0  0  0  0  0  0  0  0  0
   20.7743  -21.4511    7.9024 C   0  0  0  0  0  0  0  0  0  0  0  0
   20.5338  -20.8418    6.5747 C   0  0  0  0  0  0  0  0  0  0  0  0
   19.5625  -19.7155    6.7016 C   0  0  2  0  0  0  0  0  0  0  0  0
   19.2125  -19.1620    5.3962 N   0  0  0  0  0  0  0  0  0  0  0  0
   19.9302  -18.6565    7.6536 C   0  0  0  0  0  0  0  0  0  0  0  0
   20.6536  -17.6974    7.3343 O   0  0  0  0  0  0  0  0  0  0  0  0
   21.9487  -21.1797    8.6157 C   0  0  0  0  0  0  0  0  0  0  0  0
   22.1948  -21.7402    9.8391 C   0  0  0  0  0  0  0  0  0  0  0  0
   19.4577  -18.7244    8.9510 O   0  0  0  0  0  0  0  0  0  0  0  0
  1  2  1  0
  3  2  1  0
  3  4  1  1
  5  6  1  6
  5  3  1  0
  7  5  1  0
  8  7  2  0
 10  9  1  1
 10 12  1  0
 11 10  1  0
 13 12  1  1
 13 15  1  0
 13 14  1  0
 14  7  1  0
 15 24  1  0
 16 15  2  0
 17 18  1  0
 18 28  2  0
 19 18  1  0
 19 20  2  0
 20 21  1  0
 21 27  2  0
 21 22  1  0
 23 22  1  6
 23 25  1  0
 24 23  1  0
 25 26  2  0
 25 29  1  0
 28 27  1  0
M  END
$$$$
