ILY.pdb
     RDKit          3D

 29 29  0  0  1  0  0  0  0  0999 V2000
   27.7723  -17.6068  -17.6242 C   0  0  0  0  0  0  0  0  0  0  0  0
   28.4523  -18.3717  -16.4804 C   0  0  0  0  0  0  0  0  0  0  0  0
   27.3852  -19.1244  -15.7669 C   0  0  2  0  0  0  0  0  0  0  0  0
   26.3522  -18.1287  -15.2659 C   0  0  0  0  0  0  0  0  0  0  0  0
   27.8607  -19.9183  -14.5921 C   0  0  2  0  0  0  0  0  0  0  0  0
   28.8394  -20.8812  -15.0637 N   0  0  0  0  0  0  0  0  0  0  0  0
   26.7959  -20.6027  -13.8519 C   0  0  0  0  0  0  0  0  0  0  0  0
   26.2373  -21.6235  -14.3295 O   0  0  0  0  0  0  0  0  0  0  0  0
   26.7606  -21.9126   -9.5059 C   0  0  0  0  0  0  0  0  0  0  0  0
   26.4418  -20.4047   -9.6278 C   0  0  2  0  0  0  0  0  0  0  0  0
   26.3499  -19.9203   -8.2073 C   0  0  0  0  0  0  0  0  0  0  0  0
   25.1909  -20.3280  -10.4227 C   0  0  0  0  0  0  0  0  0  0  0  0
   25.2753  -20.7908  -11.8484 C   0  0  2  0  0  0  0  0  0  0  0  0
   26.3353  -20.1598  -12.5650 N   0  0  0  0  0  0  0  0  0  0  0  0
   23.9405  -20.5038  -12.4903 C   0  0  0  0  0  0  0  0  0  0  0  0
   23.6495  -19.3035  -12.6858 O   0  0  0  0  0  0  0  0  0  0  0  0
   16.4792  -21.1114  -17.0671 O   0  0  0  0  0  0  0  0  0  0  0  0
   17.7288  -21.3548  -16.4853 C   0  0  0  0  0  0  0  0  0  0  0  0
   18.8423  -20.7186  -16.9664 C   0  0  0  0  0  0  0  0  0  0  0  0
   20.0815  -20.9353  -16.4183 C   0  0  0  0  0  0  0  0  0  0  0  0
   20.2733  -21.8000  -15.3603 C   0  0  0  0  0  0  0  0  0  0  0  0
   21.6006  -22.0600  -14.7582 C   0  0  0  0  0  0  0  0  0  0  0  0
   21.7581  -21.2565  -13.5101 C   0  0  2  0  0  0  0  0  0  0  0  0
   23.0411  -21.5190  -12.8638 N   0  0  0  0  0  0  0  0  0  0  0  0
   20.6461  -21.3381  -12.5510 C   0  0  0  0  0  0  0  0  0  0  0  0
   20.5608  -22.2474  -11.7079 O   0  0  0  0  0  0  0  0  0  0  0  0
   19.1267  -22.4436  -14.8780 C   0  0  0  0  0  0  0  0  0  0  0  0
   17.8928  -22.2250  -15.4267 C   0  0  0  0  0  0  0  0  0  0  0  0
   19.6575  -20.3723  -12.5833 O   0  0  0  0  0  0  0  0  0  0  0  0
  1  2  1  0
  3  2  1  0
  3  4  1  1
  5  6  1  6
  5  3  1  0
  7  5  1  0
  8  7  2  0
 10  9  1  1
 10 12  1  0
 11 10  1  0
 13 12  1  1
 13 15  1  0
 13 14  1  0
 14  7  1  0
 15 24  1  0
 16 15  2  0
 17 18  1  0
 18 28  2  0
 19 18  1  0
 19 20  2  0
 20 21  1  0
 21 27  2  0
 21 22  1  0
 23 22  1  6
 23 25  1  0
 24 23  1  0
 25 26  2  0
 25 29  1  0
 28 27  1  0
M  END
$$$$
