ILY.pdb
     RDKit          3D

 29 29  0  0  1  0  0  0  0  0999 V2000
   25.1787  -20.4532  -16.3687 C   0  0  0  0  0  0  0  0  0  0  0  0
   25.1796  -19.4999  -15.1659 C   0  0  0  0  0  0  0  0  0  0  0  0
   24.9619  -20.3326  -13.9519 C   0  0  2  0  0  0  0  0  0  0  0  0
   23.6808  -21.1278  -14.1421 C   0  0  0  0  0  0  0  0  0  0  0  0
   24.8333  -19.5583  -12.6790 C   0  0  2  0  0  0  0  0  0  0  0  0
   25.9906  -18.6901  -12.5594 N   0  0  0  0  0  0  0  0  0  0  0  0
   24.6977  -20.3865  -11.4767 C   0  0  0  0  0  0  0  0  0  0  0  0
   24.4218  -21.6103  -11.5691 O   0  0  0  0  0  0  0  0  0  0  0  0
   27.6663  -21.0178   -7.9376 C   0  0  0  0  0  0  0  0  0  0  0  0
   26.8933  -19.6800   -7.9910 C   0  0  2  0  0  0  0  0  0  0  0  0
   27.5140  -18.8397   -6.9095 C   0  0  0  0  0  0  0  0  0  0  0  0
   25.4667  -20.0398   -7.7961 C   0  0  0  0  0  0  0  0  0  0  0  0
   24.7672  -20.6608   -8.9704 C   0  0  2  0  0  0  0  0  0  0  0  0
   24.8675  -19.8636  -10.1492 N   0  0  0  0  0  0  0  0  0  0  0  0
   23.3258  -20.8646   -8.5744 C   0  0  0  0  0  0  0  0  0  0  0  0
   22.5547  -19.8899   -8.7119 O   0  0  0  0  0  0  0  0  0  0  0  0
   15.5628  -24.4153   -6.4833 O   0  0  0  0  0  0  0  0  0  0  0  0
   16.9022  -24.2351   -6.8477 C   0  0  0  0  0  0  0  0  0  0  0  0
   17.2234  -23.9376   -8.1455 C   0  0  0  0  0  0  0  0  0  0  0  0
   18.5265  -23.7549   -8.5349 C   0  0  0  0  0  0  0  0  0  0  0  0
   19.5777  -23.8605   -7.6475 C   0  0  0  0  0  0  0  0  0  0  0  0
   20.9926  -23.6794   -8.0440 C   0  0  0  0  0  0  0  0  0  0  0  0
   21.4444  -22.2997   -7.6967 C   0  0  2  0  0  0  0  0  0  0  0  0
   22.8399  -22.0846   -8.0698 N   0  0  0  0  0  0  0  0  0  0  0  0
   21.1849  -21.8695   -6.3145 C   0  0  0  0  0  0  0  0  0  0  0  0
   20.0872  -21.4090   -5.9566 O   0  0  0  0  0  0  0  0  0  0  0  0
   19.2354  -24.1649   -6.3240 C   0  0  0  0  0  0  0  0  0  0  0  0
   17.9352  -24.3461   -5.9392 C   0  0  0  0  0  0  0  0  0  0  0  0
   22.1934  -21.9784   -5.3753 O   0  0  0  0  0  0  0  0  0  0  0  0
  1  2  1  0
  3  2  1  0
  3  4  1  6
  5  6  1  1
  5  3  1  0
  7  5  1  0
  8  7  2  0
 10  9  1  1
 10 12  1  0
 11 10  1  0
 13 12  1  1
 13 15  1  0
 13 14  1  0
 14  7  1  0
 15 24  1  0
 16 15  2  0
 17 18  1  0
 18 28  2  0
 19 18  1  0
 19 20  2  0
 20 21  1  0
 21 27  2  0
 21 22  1  0
 23 22  1  1
 23 25  1  0
 24 23  1  0
 25 26  2  0
 25 29  1  0
 28 27  1  0
M  END
$$$$
