ILY.pdb
     RDKit          3D

 29 29  0  0  1  0  0  0  0  0999 V2000
   19.1764  -11.2520  -22.5043 C   0  0  0  0  0  0  0  0  0  0  0  0
   20.0230  -11.8689  -21.3826 C   0  0  0  0  0  0  0  0  0  0  0  0
   19.9234  -10.9561  -20.2115 C   0  0  2  0  0  0  0  0  0  0  0  0
   20.5197   -9.6136  -20.6008 C   0  0  0  0  0  0  0  0  0  0  0  0
   20.6356  -11.4334  -18.9862 C   0  0  2  0  0  0  0  0  0  0  0  0
   20.1422  -12.7602  -18.6647 N   0  0  0  0  0  0  0  0  0  0  0  0
   20.5009  -10.5497  -17.8239 C   0  0  0  0  0  0  0  0  0  0  0  0
   19.3722  -10.3270  -17.3154 O   0  0  0  0  0  0  0  0  0  0  0  0
   21.8419  -10.8138  -13.6229 C   0  0  0  0  0  0  0  0  0  0  0  0
   22.9996  -10.5108  -14.6018 C   0  0  2  0  0  0  0  0  0  0  0  0
   24.2435  -10.6226  -13.7645 C   0  0  0  0  0  0  0  0  0  0  0  0
   22.7075   -9.1650  -15.1550 C   0  0  0  0  0  0  0  0  0  0  0  0
   21.5145   -9.0586  -16.0601 C   0  0  2  0  0  0  0  0  0  0  0  0
   21.6239   -9.8985  -17.2081 N   0  0  0  0  0  0  0  0  0  0  0  0
   21.3848   -7.6093  -16.4587 C   0  0  0  0  0  0  0  0  0  0  0  0
   22.0764   -7.2211  -17.4255 O   0  0  0  0  0  0  0  0  0  0  0  0
   18.7584   -0.1580  -19.6196 O   0  0  0  0  0  0  0  0  0  0  0  0
   19.0330   -1.4526  -19.1638 C   0  0  0  0  0  0  0  0  0  0  0  0
   18.0099   -2.2608  -18.7441 C   0  0  0  0  0  0  0  0  0  0  0  0
   18.2457   -3.5347  -18.2918 C   0  0  0  0  0  0  0  0  0  0  0  0
   19.5169   -4.0681  -18.2346 C   0  0  0  0  0  0  0  0  0  0  0  0
   19.7995   -5.4348  -17.7404 C   0  0  0  0  0  0  0  0  0  0  0  0
   20.2093   -5.3812  -16.3061 C   0  0  2  0  0  0  0  0  0  0  0  0
   20.5327   -6.7097  -15.7927 N   0  0  0  0  0  0  0  0  0  0  0  0
   19.2946   -4.6644  -15.4047 C   0  0  0  0  0  0  0  0  0  0  0  0
   18.3539   -5.2319  -14.8233 O   0  0  0  0  0  0  0  0  0  0  0  0
   20.5536   -3.2314  -18.6668 C   0  0  0  0  0  0  0  0  0  0  0  0
   20.3149   -1.9619  -19.1174 C   0  0  0  0  0  0  0  0  0  0  0  0
   19.4824   -3.3113  -15.1925 O   0  0  0  0  0  0  0  0  0  0  0  0
  1  2  1  0
  3  2  1  0
  3  4  1  6
  5  6  1  1
  5  3  1  0
  7  5  1  0
  8  7  2  0
 10  9  1  1
 10 12  1  0
 11 10  1  0
 13 12  1  1
 13 15  1  0
 13 14  1  0
 14  7  1  0
 15 24  1  0
 16 15  2  0
 17 18  1  0
 18 28  2  0
 19 18  1  0
 19 20  2  0
 20 21  1  0
 21 27  2  0
 21 22  1  0
 23 22  1  6
 23 25  1  0
 24 23  1  0
 25 26  2  0
 25 29  1  0
 28 27  1  0
M  END
$$$$
