ILY.pdb
     RDKit          3D

 29 29  0  0  1  0  0  0  0  0999 V2000
   29.7582  -18.8374  -17.0025 C   0  0  0  0  0  0  0  0  0  0  0  0
   28.5317  -18.1932  -16.3418 C   0  0  0  0  0  0  0  0  0  0  0  0
   27.6574  -19.3030  -15.8744 C   0  0  2  0  0  0  0  0  0  0  0  0
   27.4123  -20.2423  -17.0436 C   0  0  0  0  0  0  0  0  0  0  0  0
   26.3254  -18.8695  -15.3506 C   0  0  2  0  0  0  0  0  0  0  0  0
   26.5205  -17.6694  -14.5575 N   0  0  0  0  0  0  0  0  0  0  0  0
   25.6240  -19.8871  -14.5616 C   0  0  0  0  0  0  0  0  0  0  0  0
   25.1688  -20.9230  -15.1110 O   0  0  0  0  0  0  0  0  0  0  0  0
   27.0975  -21.5390  -10.9221 C   0  0  0  0  0  0  0  0  0  0  0  0
   26.2878  -20.2902  -10.5036 C   0  0  2  0  0  0  0  0  0  0  0  0
   26.5310  -20.1582   -9.0256 C   0  0  0  0  0  0  0  0  0  0  0  0
   24.8883  -20.5723  -10.9091 C   0  0  0  0  0  0  0  0  0  0  0  0
   24.6281  -20.6791  -12.3838 C   0  0  2  0  0  0  0  0  0  0  0  0
   25.4180  -19.7668  -13.1447 N   0  0  0  0  0  0  0  0  0  0  0  0
   23.1555  -20.4294  -12.5962 C   0  0  0  0  0  0  0  0  0  0  0  0
   22.7151  -19.3069  -12.2651 O   0  0  0  0  0  0  0  0  0  0  0  0
   15.9336  -19.7237  -17.3536 O   0  0  0  0  0  0  0  0  0  0  0  0
   17.1950  -20.0258  -16.8278 C   0  0  0  0  0  0  0  0  0  0  0  0
   17.8910  -19.0737  -16.1312 C   0  0  0  0  0  0  0  0  0  0  0  0
   19.1297  -19.3380  -15.6032 C   0  0  0  0  0  0  0  0  0  0  0  0
   19.7386  -20.5681  -15.7439 C   0  0  0  0  0  0  0  0  0  0  0  0
   21.0783  -20.8755  -15.1940 C   0  0  0  0  0  0  0  0  0  0  0  0
   20.9877  -21.0729  -13.7171 C   0  0  2  0  0  0  0  0  0  0  0  0
   22.2900  -21.3959  -13.1402 N   0  0  0  0  0  0  0  0  0  0  0  0
   19.9494  -22.0079  -13.2582 C   0  0  0  0  0  0  0  0  0  0  0  0
   20.0945  -23.2412  -13.3123 O   0  0  0  0  0  0  0  0  0  0  0  0
   19.0162  -21.5324  -16.4580 C   0  0  0  0  0  0  0  0  0  0  0  0
   17.7814  -21.2655  -16.9829 C   0  0  0  0  0  0  0  0  0  0  0  0
   18.7679  -21.5035  -12.7475 O   0  0  0  0  0  0  0  0  0  0  0  0
  1  2  1  0
  3  2  1  0
  3  4  1  6
  5  6  1  1
  5  3  1  0
  7  5  1  0
  8  7  2  0
 10  9  1  1
 10 12  1  0
 11 10  1  0
 13 12  1  1
 13 15  1  0
 13 14  1  0
 14  7  1  0
 15 24  1  0
 16 15  2  0
 17 18  1  0
 18 28  2  0
 19 18  1  0
 19 20  2  0
 20 21  1  0
 21 27  2  0
 21 22  1  0
 23 22  1  6
 23 25  1  0
 24 23  1  0
 25 26  2  0
 25 29  1  0
 28 27  1  0
M  END
$$$$
