ILY.pdb
     RDKit          3D

 29 29  0  0  1  0  0  0  0  0999 V2000
   15.6375  -13.1205  -16.2063 C   0  0  0  0  0  0  0  0  0  0  0  0
   16.7062  -12.4650  -17.0916 C   0  0  0  0  0  0  0  0  0  0  0  0
   17.5597  -11.6348  -16.1990 C   0  0  2  0  0  0  0  0  0  0  0  0
   16.6973  -10.5359  -15.6006 C   0  0  0  0  0  0  0  0  0  0  0  0
   18.7228  -10.9835  -16.8769 C   0  0  2  0  0  0  0  0  0  0  0  0
   19.4067  -11.9905  -17.6678 N   0  0  0  0  0  0  0  0  0  0  0  0
   19.6677  -10.3305  -15.9655 C   0  0  0  0  0  0  0  0  0  0  0  0
   19.2627   -9.7763  -14.9114 O   0  0  0  0  0  0  0  0  0  0  0  0
   23.8837  -11.6447  -14.2474 C   0  0  0  0  0  0  0  0  0  0  0  0
   23.8935  -11.2430  -15.7403 C   0  0  2  0  0  0  0  0  0  0  0  0
   25.3081  -11.4848  -16.1890 C   0  0  0  0  0  0  0  0  0  0  0  0
   23.4334   -9.8324  -15.7732 C   0  0  0  0  0  0  0  0  0  0  0  0
   22.0055   -9.5855  -15.3809 C   0  0  2  0  0  0  0  0  0  0  0  0
   21.0821  -10.2841  -16.2143 N   0  0  0  0  0  0  0  0  0  0  0  0
   21.7760   -8.0959  -15.4467 C   0  0  0  0  0  0  0  0  0  0  0  0
   21.8602   -7.5564  -16.5716 O   0  0  0  0  0  0  0  0  0  0  0  0
   16.8835   -6.7079   -9.8594 O   0  0  0  0  0  0  0  0  0  0  0  0
   17.6175   -6.3942  -11.0091 C   0  0  0  0  0  0  0  0  0  0  0  0
   17.7291   -7.3114  -12.0202 C   0  0  0  0  0  0  0  0  0  0  0  0
   18.4414   -7.0349  -13.1600 C   0  0  0  0  0  0  0  0  0  0  0  0
   19.0803   -5.8267  -13.3494 C   0  0  0  0  0  0  0  0  0  0  0  0
   19.8642   -5.5075  -14.5641 C   0  0  0  0  0  0  0  0  0  0  0  0
   21.2964   -5.8719  -14.3542 C   0  0  2  0  0  0  0  0  0  0  0  0
   21.4786   -7.3203  -14.3113 N   0  0  0  0  0  0  0  0  0  0  0  0
   21.9664   -5.2119  -13.2235 C   0  0  0  0  0  0  0  0  0  0  0  0
   22.0838   -3.9767  -13.1493 O   0  0  0  0  0  0  0  0  0  0  0  0
   18.9580   -4.8980  -12.3082 C   0  0  0  0  0  0  0  0  0  0  0  0
   18.2470   -5.1769  -11.1733 C   0  0  0  0  0  0  0  0  0  0  0  0
   22.4861   -5.9873  -12.2037 O   0  0  0  0  0  0  0  0  0  0  0  0
  1  2  1  0
  3  2  1  0
  3  4  1  6
  5  6  1  1
  5  3  1  0
  7  5  1  0
  8  7  2  0
 10  9  1  1
 10 12  1  0
 11 10  1  0
 13 12  1  6
 13 15  1  0
 13 14  1  0
 14  7  1  0
 15 24  1  0
 16 15  2  0
 17 18  1  0
 18 28  2  0
 19 18  1  0
 19 20  2  0
 20 21  1  0
 21 27  2  0
 21 22  1  0
 23 22  1  1
 23 25  1  0
 24 23  1  0
 25 26  2  0
 25 29  1  0
 28 27  1  0
M  END
$$$$
