ILY.pdb
     RDKit          3D

 29 29  0  0  1  0  0  0  0  0999 V2000
   27.1263  -17.9322  -18.1665 C   0  0  0  0  0  0  0  0  0  0  0  0
   27.7369  -18.7189  -16.9986 C   0  0  0  0  0  0  0  0  0  0  0  0
   26.6040  -19.2885  -16.2197 C   0  0  2  0  0  0  0  0  0  0  0  0
   25.7813  -18.1383  -15.6632 C   0  0  0  0  0  0  0  0  0  0  0  0
   27.0103  -20.1560  -15.0714 C   0  0  2  0  0  0  0  0  0  0  0  0
   27.8782  -21.2024  -15.5805 N   0  0  0  0  0  0  0  0  0  0  0  0
   25.8904  -20.7454  -14.3309 C   0  0  0  0  0  0  0  0  0  0  0  0
   25.2280  -21.6962  -14.8203 O   0  0  0  0  0  0  0  0  0  0  0  0
   26.2891  -22.4517  -10.5442 C   0  0  0  0  0  0  0  0  0  0  0  0
   25.9992  -20.9552  -10.2860 C   0  0  2  0  0  0  0  0  0  0  0  0
   26.1876  -20.7825   -8.8042 C   0  0  0  0  0  0  0  0  0  0  0  0
   24.6253  -20.7247  -10.7976 C   0  0  0  0  0  0  0  0  0  0  0  0
   24.4297  -20.8728  -12.2786 C   0  0  2  0  0  0  0  0  0  0  0  0
   25.4894  -20.2841  -13.0306 N   0  0  0  0  0  0  0  0  0  0  0  0
   23.1045  -20.2372  -12.6194 C   0  0  0  0  0  0  0  0  0  0  0  0
   22.9393  -19.0466  -12.2747 O   0  0  0  0  0  0  0  0  0  0  0  0
   22.1413  -21.8313  -19.8093 O   0  0  0  0  0  0  0  0  0  0  0  0
   21.9155  -21.2020  -18.5796 C   0  0  0  0  0  0  0  0  0  0  0  0
   20.6347  -21.0211  -18.1294 C   0  0  0  0  0  0  0  0  0  0  0  0
   20.3796  -20.4080  -16.9285 C   0  0  0  0  0  0  0  0  0  0  0  0
   21.3916  -19.9428  -16.1141 C   0  0  0  0  0  0  0  0  0  0  0  0
   21.1432  -19.2681  -14.8199 C   0  0  0  0  0  0  0  0  0  0  0  0
   20.8561  -20.2842  -13.7647 C   0  0  2  0  0  0  0  0  0  0  0  0
   22.0804  -20.9265  -13.2940 N   0  0  0  0  0  0  0  0  0  0  0  0
   19.8214  -21.2758  -14.0948 C   0  0  0  0  0  0  0  0  0  0  0  0
   18.6358  -20.9590  -14.2924 O   0  0  0  0  0  0  0  0  0  0  0  0
   22.6962  -20.1343  -16.5861 C   0  0  0  0  0  0  0  0  0  0  0  0
   22.9469  -20.7461  -17.7838 C   0  0  0  0  0  0  0  0  0  0  0  0
   20.1734  -22.6093  -14.1902 O   0  0  0  0  0  0  0  0  0  0  0  0
  1  2  1  0
  3  2  1  0
  3  4  1  1
  5  6  1  6
  5  3  1  0
  7  5  1  0
  8  7  2  0
 10  9  1  1
 10 12  1  0
 11 10  1  0
 13 12  1  1
 13 15  1  0
 13 14  1  0
 14  7  1  0
 15 24  1  0
 16 15  2  0
 17 18  1  0
 18 28  2  0
 19 18  1  0
 19 20  2  0
 20 21  1  0
 21 27  2  0
 21 22  1  0
 23 22  1  6
 23 25  1  0
 24 23  1  0
 25 26  2  0
 25 29  1  0
 28 27  1  0
M  END
$$$$
