ILY.pdb
     RDKit          3D

 29 29  0  0  1  0  0  0  0  0999 V2000
   21.8706  -32.8937  -10.5630 C   0  0  0  0  0  0  0  0  0  0  0  0
   23.3825  -32.8419  -10.3037 C   0  0  0  0  0  0  0  0  0  0  0  0
   23.6025  -33.3380   -8.9181 C   0  0  2  0  0  0  0  0  0  0  0  0
   22.7315  -32.5240   -7.9757 C   0  0  0  0  0  0  0  0  0  0  0  0
   25.0145  -33.2366   -8.4360 C   0  0  2  0  0  0  0  0  0  0  0  0
   25.8603  -33.9755   -9.3559 N   0  0  0  0  0  0  0  0  0  0  0  0
   25.2228  -33.7137   -7.0652 C   0  0  0  0  0  0  0  0  0  0  0  0
   24.9521  -34.9014   -6.7519 O   0  0  0  0  0  0  0  0  0  0  0  0
   27.8585  -35.6670   -4.4942 C   0  0  0  0  0  0  0  0  0  0  0  0
   28.2343  -34.2484   -4.9807 C   0  0  2  0  0  0  0  0  0  0  0  0
   29.7020  -34.1207   -4.6803 C   0  0  0  0  0  0  0  0  0  0  0  0
   27.3370  -33.3262   -4.2410 C   0  0  0  0  0  0  0  0  0  0  0  0
   25.8983  -33.3063   -4.6695 C   0  0  2  0  0  0  0  0  0  0  0  0
   25.7370  -32.8734   -6.0193 N   0  0  0  0  0  0  0  0  0  0  0  0
   25.1617  -32.3975   -3.7168 C   0  0  0  0  0  0  0  0  0  0  0  0
   25.6677  -31.2760   -3.4943 O   0  0  0  0  0  0  0  0  0  0  0  0
   19.0701  -27.1043   -0.8646 O   0  0  0  0  0  0  0  0  0  0  0  0
   19.8748  -28.0572   -1.4998 C   0  0  0  0  0  0  0  0  0  0  0  0
   21.1353  -27.7194   -1.9157 C   0  0  0  0  0  0  0  0  0  0  0  0
   21.9491  -28.6302   -2.5413 C   0  0  0  0  0  0  0  0  0  0  0  0
   21.5456  -29.9271   -2.7846 C   0  0  0  0  0  0  0  0  0  0  0  0
   22.3994  -30.9255   -3.4673 C   0  0  0  0  0  0  0  0  0  0  0  0
   23.0557  -31.8074   -2.4574 C   0  0  2  0  0  0  0  0  0  0  0  0
   23.9571  -32.7663   -3.0907 N   0  0  0  0  0  0  0  0  0  0  0  0
   22.1543  -32.4674   -1.5009 C   0  0  0  0  0  0  0  0  0  0  0  0
   21.9107  -31.9905   -0.3792 O   0  0  0  0  0  0  0  0  0  0  0  0
   20.2549  -30.2593   -2.3541 C   0  0  0  0  0  0  0  0  0  0  0  0
   19.4464  -29.3488   -1.7306 C   0  0  0  0  0  0  0  0  0  0  0  0
   21.5535  -33.6608   -1.8560 O   0  0  0  0  0  0  0  0  0  0  0  0
  1  2  1  0
  3  2  1  0
  3  4  1  1
  5  6  1  6
  5  3  1  0
  7  5  1  0
  8  7  2  0
 10  9  1  1
 10 12  1  0
 11 10  1  0
 13 12  1  1
 13 15  1  0
 13 14  1  0
 14  7  1  0
 15 24  1  0
 16 15  2  0
 17 18  1  0
 18 28  2  0
 19 18  1  0
 19 20  2  0
 20 21  1  0
 21 27  2  0
 21 22  1  0
 23 22  1  6
 23 25  1  0
 24 23  1  0
 25 26  2  0
 25 29  1  0
 28 27  1  0
M  END
$$$$
