MMR.pdb
     RDKit          3D

 28 27  0  0  1  0  0  0  0  0999 V2000
   29.7705  -23.7815  -16.6958 C   0  0  0  0  0  0  0  0  0  0  0  0
   29.9129  -22.3240  -17.7894 S   0  0  0  0  0  0  0  0  0  0  0  0
   29.0518  -20.9513  -16.9977 C   0  0  0  0  0  0  0  0  0  0  0  0
   28.6104  -21.3910  -15.6365 C   0  0  0  0  0  0  0  0  0  0  0  0
   27.8272  -20.3281  -14.9326 C   0  0  2  0  0  0  0  0  0  0  0  0
   28.5679  -19.1325  -14.6867 N   0  0  0  0  0  0  0  0  0  0  0  0
   27.0037  -20.8058  -13.8097 C   0  0  0  0  0  0  0  0  0  0  0  0
   26.1401  -21.7250  -14.0292 O   0  0  0  0  0  0  0  0  0  0  0  0
   27.3756  -19.5075   -7.5565 C   0  0  0  0  0  0  0  0  0  0  0  0
   25.9044  -20.5731   -7.3946 S   0  0  0  0  0  0  0  0  0  0  0  0
   25.2811  -20.8913   -9.0944 C   0  0  0  0  0  0  0  0  0  0  0  0
   26.3546  -20.4822  -10.0827 C   0  0  0  0  0  0  0  0  0  0  0  0
   26.0821  -20.7543  -11.4877 C   0  0  2  0  0  0  0  0  0  0  0  0
   27.0706  -20.3381  -12.4601 N   0  0  0  0  0  0  0  0  0  0  0  0
   24.6793  -20.4663  -11.9517 C   0  0  0  0  0  0  0  0  0  0  0  0
   24.4227  -19.3198  -12.3108 O   0  0  0  0  0  0  0  0  0  0  0  0
   19.7552  -25.8121  -16.6681 N   0  0  0  0  0  0  0  0  0  0  0  0
   18.7993  -24.8412  -16.2011 C   0  0  0  0  0  0  0  0  0  0  0  0
   17.5939  -24.9293  -16.7294 N   0  0  0  0  0  0  0  0  0  0  0  0
   19.1020  -23.8537  -15.2564 N   0  0  0  0  0  0  0  0  0  0  0  0
   20.4319  -23.7706  -14.6609 C   0  0  0  0  0  0  0  0  0  0  0  0
   20.5363  -22.5796  -13.6926 C   0  0  0  0  0  0  0  0  0  0  0  0
   21.9186  -22.5157  -13.1938 C   0  0  0  0  0  0  0  0  0  0  0  0
   22.2872  -21.3463  -12.3142 C   0  0  2  0  0  0  0  0  0  0  0  0
   23.6712  -21.4165  -11.9806 N   0  0  0  0  0  0  0  0  0  0  0  0
   21.3089  -20.9891  -11.3140 C   0  0  0  0  0  0  0  0  0  0  0  0
   20.1848  -20.4963  -11.7020 O   0  0  0  0  0  0  0  0  0  0  0  0
   21.3264  -21.0589   -9.9627 O   0  0  0  0  0  0  0  0  0  0  0  0
  2  1  1  0
  3  2  1  0
  4  5  1  0
  4  3  1  0
  5  6  1  1
  7  8  2  0
  7  5  1  0
 10  9  1  0
 11 10  1  0
 11 12  1  0
 13 12  1  1
 13 14  1  0
 14  7  1  0
 15 25  1  0
 15 13  1  0
 16 15  2  0
 17 18  1  0
 18 20  1  0
 19 18  2  0
 20 21  1  0
 21 22  1  0
 22 23  1  0
 24 23  1  1
 24 25  1  0
 24 26  1  0
 26 28  1  0
 27 26  2  0
M  END
$$$$
