MMR.pdb
     RDKit          3D

 28 27  0  0  1  0  0  0  0  0999 V2000
   25.2847  -18.7439  -17.7523 C   0  0  0  0  0  0  0  0  0  0  0  0
   25.2320  -20.1738  -18.8894 S   0  0  0  0  0  0  0  0  0  0  0  0
   24.5243  -21.5691  -17.9922 C   0  0  0  0  0  0  0  0  0  0  0  0
   23.6425  -21.0358  -16.9063 C   0  0  0  0  0  0  0  0  0  0  0  0
   23.0479  -22.1325  -16.0803 C   0  0  2  0  0  0  0  0  0  0  0  0
   22.5218  -23.2142  -16.8495 N   0  0  0  0  0  0  0  0  0  0  0  0
   22.2027  -21.6790  -14.9634 C   0  0  0  0  0  0  0  0  0  0  0  0
   22.7378  -20.9821  -14.0323 O   0  0  0  0  0  0  0  0  0  0  0  0
   18.6692  -16.0994  -12.2171 C   0  0  0  0  0  0  0  0  0  0  0  0
   19.6951  -17.0655  -13.3748 S   0  0  0  0  0  0  0  0  0  0  0  0
   19.2990  -18.8385  -13.0934 C   0  0  0  0  0  0  0  0  0  0  0  0
   20.2076  -19.6771  -13.9696 C   0  0  0  0  0  0  0  0  0  0  0  0
   19.9966  -21.1181  -13.9328 C   0  0  2  0  0  0  0  0  0  0  0  0
   20.8060  -21.9415  -14.8063 N   0  0  0  0  0  0  0  0  0  0  0  0
   18.5612  -21.5706  -13.9026 C   0  0  0  0  0  0  0  0  0  0  0  0
   17.8901  -21.4029  -14.9179 O   0  0  0  0  0  0  0  0  0  0  0  0
   18.9069  -25.9893   -8.7454 N   0  0  0  0  0  0  0  0  0  0  0  0
   18.6321  -24.7539   -8.0578 C   0  0  0  0  0  0  0  0  0  0  0  0
   19.5613  -24.3549   -7.2107 N   0  0  0  0  0  0  0  0  0  0  0  0
   17.4631  -24.0083   -8.2494 N   0  0  0  0  0  0  0  0  0  0  0  0
   16.4353  -24.4555   -9.1841 C   0  0  0  0  0  0  0  0  0  0  0  0
   16.8822  -24.2552  -10.6426 C   0  0  0  0  0  0  0  0  0  0  0  0
   16.4873  -22.9012  -11.0601 C   0  0  0  0  0  0  0  0  0  0  0  0
   16.6243  -22.5566  -12.5227 C   0  0  2  0  0  0  0  0  0  0  0  0
   17.9625  -22.1478  -12.7943 N   0  0  0  0  0  0  0  0  0  0  0  0
   15.5085  -21.8446  -13.1000 C   0  0  0  0  0  0  0  0  0  0  0  0
   15.3450  -20.6053  -12.7930 O   0  0  0  0  0  0  0  0  0  0  0  0
   14.5259  -22.2314  -13.9462 O   0  0  0  0  0  0  0  0  0  0  0  0
  2  1  1  0
  3  2  1  0
  4  5  1  0
  4  3  1  0
  5  6  1  6
  7  8  2  0
  7  5  1  0
 10  9  1  0
 11 10  1  0
 11 12  1  0
 13 12  1  6
 13 14  1  0
 14  7  1  0
 15 25  1  0
 15 13  1  0
 16 15  2  0
 17 18  1  0
 18 20  1  0
 19 18  2  0
 20 21  1  0
 21 22  1  0
 22 23  1  0
 24 23  1  1
 24 25  1  0
 24 26  1  0
 26 28  1  0
 27 26  2  0
M  END
$$$$
