MMR.pdb
     RDKit          3D

 28 27  0  0  1  0  0  0  0  0999 V2000
   10.4548  -13.1193    9.2180 C   0  0  0  0  0  0  0  0  0  0  0  0
   11.4690  -11.6665    9.6667 S   0  0  0  0  0  0  0  0  0  0  0  0
   12.3040  -11.0919    8.1750 C   0  0  0  0  0  0  0  0  0  0  0  0
   13.1385  -12.2125    7.6378 C   0  0  0  0  0  0  0  0  0  0  0  0
   13.8412  -11.8296    6.3736 C   0  0  2  0  0  0  0  0  0  0  0  0
   12.9596  -11.4810    5.3060 N   0  0  0  0  0  0  0  0  0  0  0  0
   14.9711  -12.6984    6.0046 C   0  0  0  0  0  0  0  0  0  0  0  0
   14.8227  -13.5192    5.0334 O   0  0  0  0  0  0  0  0  0  0  0  0
   21.1165  -11.7780    7.4604 C   0  0  0  0  0  0  0  0  0  0  0  0
   20.6794  -11.4846    5.7143 S   0  0  0  0  0  0  0  0  0  0  0  0
   18.8959  -11.8904    5.5308 C   0  0  0  0  0  0  0  0  0  0  0  0
   18.6429  -13.2390    6.1741 C   0  0  0  0  0  0  0  0  0  0  0  0
   17.2566  -13.6832    6.2281 C   0  0  2  0  0  0  0  0  0  0  0  0
   16.2545  -12.7207    6.6345 N   0  0  0  0  0  0  0  0  0  0  0  0
   17.0243  -15.0346    6.8493 C   0  0  0  0  0  0  0  0  0  0  0  0
   16.6701  -15.0673    8.0252 O   0  0  0  0  0  0  0  0  0  0  0  0
   14.8162  -20.9097    1.3409 N   0  0  0  0  0  0  0  0  0  0  0  0
   14.1558  -19.7583    1.9000 C   0  0  0  0  0  0  0  0  0  0  0  0
   13.2132  -19.2221    1.1490 N   0  0  0  0  0  0  0  0  0  0  0  0
   14.4761  -19.2173    3.1506 N   0  0  0  0  0  0  0  0  0  0  0  0
   15.4232  -19.8880    4.0355 C   0  0  0  0  0  0  0  0  0  0  0  0
   15.5524  -19.1482    5.3782 C   0  0  0  0  0  0  0  0  0  0  0  0
   16.8613  -18.4777    5.4068 C   0  0  0  0  0  0  0  0  0  0  0  0
   17.1636  -17.5923    6.5907 C   0  0  2  0  0  0  0  0  0  0  0  0
   17.2015  -16.2304    6.1719 N   0  0  0  0  0  0  0  0  0  0  0  0
   18.1503  -18.1038    7.5126 C   0  0  0  0  0  0  0  0  0  0  0  0
   19.2655  -17.4721    7.6323 O   0  0  0  0  0  0  0  0  0  0  0  0
   18.1564  -19.1846    8.3269 O   0  0  0  0  0  0  0  0  0  0  0  0
  2  1  1  0
  3  2  1  0
  4  5  1  0
  4  3  1  0
  5  6  1  6
  7  8  2  0
  7  5  1  0
 10  9  1  0
 11 10  1  0
 11 12  1  0
 13 12  1  1
 13 14  1  0
 14  7  1  0
 15 25  1  0
 15 13  1  0
 16 15  2  0
 17 18  1  0
 18 20  1  0
 19 18  2  0
 20 21  1  0
 21 22  1  0
 22 23  1  0
 24 23  1  6
 24 25  1  0
 24 26  1  0
 26 28  1  0
 27 26  2  0
M  END
$$$$
