MMR.pdb
     RDKit          3D

 28 27  0  0  1  0  0  0  0  0999 V2000
   25.8797  -20.5507  -19.9302 C   0  0  0  0  0  0  0  0  0  0  0  0
   27.4199  -21.3556  -19.3643 S   0  0  0  0  0  0  0  0  0  0  0  0
   27.0061  -23.0261  -18.8254 C   0  0  0  0  0  0  0  0  0  0  0  0
   25.9947  -22.9322  -17.7256 C   0  0  0  0  0  0  0  0  0  0  0  0
   26.6088  -23.1614  -16.3807 C   0  0  2  0  0  0  0  0  0  0  0  0
   27.4671  -24.3011  -16.3247 N   0  0  0  0  0  0  0  0  0  0  0  0
   25.6869  -23.0057  -15.2434 C   0  0  0  0  0  0  0  0  0  0  0  0
   24.8438  -23.9390  -15.0044 O   0  0  0  0  0  0  0  0  0  0  0  0
   24.7868  -20.5030   -9.0051 C   0  0  0  0  0  0  0  0  0  0  0  0
   26.3990  -20.5655   -9.8553 S   0  0  0  0  0  0  0  0  0  0  0  0
   26.1752  -21.6017  -11.3571 C   0  0  0  0  0  0  0  0  0  0  0  0
   24.9387  -21.1220  -12.0902 C   0  0  0  0  0  0  0  0  0  0  0  0
   24.6104  -21.8114  -13.3308 C   0  0  2  0  0  0  0  0  0  0  0  0
   25.6345  -21.8897  -14.3511 N   0  0  0  0  0  0  0  0  0  0  0  0
   23.2568  -21.5047  -13.9136 C   0  0  0  0  0  0  0  0  0  0  0  0
   23.2075  -20.7155  -14.8539 O   0  0  0  0  0  0  0  0  0  0  0  0
   16.4838  -26.2944  -11.3250 N   0  0  0  0  0  0  0  0  0  0  0  0
   17.2052  -26.3259  -12.5713 C   0  0  0  0  0  0  0  0  0  0  0  0
   17.3159  -27.5132  -13.1352 N   0  0  0  0  0  0  0  0  0  0  0  0
   17.7686  -25.1904  -13.1649 N   0  0  0  0  0  0  0  0  0  0  0  0
   17.7200  -23.8942  -12.4959 C   0  0  0  0  0  0  0  0  0  0  0  0
   18.3965  -22.8030  -13.3436 C   0  0  0  0  0  0  0  0  0  0  0  0
   19.8429  -22.8502  -13.0798 C   0  0  0  0  0  0  0  0  0  0  0  0
   20.7056  -21.8061  -13.7451 C   0  0  2  0  0  0  0  0  0  0  0  0
   22.0757  -22.0518  -13.4385 N   0  0  0  0  0  0  0  0  0  0  0  0
   20.1793  -20.4615  -13.7255 C   0  0  0  0  0  0  0  0  0  0  0  0
   20.4917  -19.6935  -12.7408 O   0  0  0  0  0  0  0  0  0  0  0  0
   19.3651  -19.7938  -14.5755 O   0  0  0  0  0  0  0  0  0  0  0  0
  2  1  1  0
  3  2  1  0
  4  5  1  0
  4  3  1  0
  5  6  1  6
  7  8  2  0
  7  5  1  0
 10  9  1  0
 11 10  1  0
 11 12  1  0
 13 12  1  1
 13 14  1  0
 14  7  1  0
 15 25  1  0
 15 13  1  0
 16 15  2  0
 17 18  1  0
 18 20  1  0
 19 18  2  0
 20 21  1  0
 21 22  1  0
 22 23  1  0
 24 23  1  1
 24 25  1  0
 24 26  1  0
 26 28  1  0
 27 26  2  0
M  END
$$$$
