MMR.pdb
     RDKit          3D

 28 27  0  0  1  0  0  0  0  0999 V2000
   31.4094  -21.0689  -10.1231 C   0  0  0  0  0  0  0  0  0  0  0  0
   30.6484  -22.6774   -9.7059 S   0  0  0  0  0  0  0  0  0  0  0  0
   28.8768  -22.5495  -10.0181 C   0  0  0  0  0  0  0  0  0  0  0  0
   28.6111  -21.2514  -10.7148 C   0  0  0  0  0  0  0  0  0  0  0  0
   27.1920  -21.1453  -11.1767 C   0  0  2  0  0  0  0  0  0  0  0  0
   26.4356  -22.3430  -10.9976 N   0  0  0  0  0  0  0  0  0  0  0  0
   27.0102  -20.4684  -12.4714 C   0  0  0  0  0  0  0  0  0  0  0  0
   27.1451  -19.1964  -12.5234 O   0  0  0  0  0  0  0  0  0  0  0  0
   27.7626  -18.5118  -18.2499 C   0  0  0  0  0  0  0  0  0  0  0  0
   28.9530  -18.3066  -16.8836 S   0  0  0  0  0  0  0  0  0  0  0  0
   28.6149  -19.6452  -15.6700 C   0  0  0  0  0  0  0  0  0  0  0  0
   27.2535  -20.2365  -15.9760 C   0  0  0  0  0  0  0  0  0  0  0  0
   26.3133  -20.3115  -14.8658 C   0  0  2  0  0  0  0  0  0  0  0  0
   26.6912  -21.1017  -13.7131 N   0  0  0  0  0  0  0  0  0  0  0  0
   24.8700  -20.5171  -15.2410 C   0  0  0  0  0  0  0  0  0  0  0  0
   24.5049  -21.6629  -15.4925 O   0  0  0  0  0  0  0  0  0  0  0  0
   17.3372  -21.9136  -13.3065 N   0  0  0  0  0  0  0  0  0  0  0  0
   18.4626  -22.6875  -12.8490 C   0  0  0  0  0  0  0  0  0  0  0  0
   18.2160  -23.9595  -12.6019 N   0  0  0  0  0  0  0  0  0  0  0  0
   19.7421  -22.1517  -12.6626 N   0  0  0  0  0  0  0  0  0  0  0  0
   20.0195  -20.7525  -12.9712 C   0  0  0  0  0  0  0  0  0  0  0  0
   20.5992  -20.5978  -14.3879 C   0  0  0  0  0  0  0  0  0  0  0  0
   21.7946  -19.7450  -14.3023 C   0  0  0  0  0  0  0  0  0  0  0  0
   22.5441  -19.4674  -15.5822 C   0  0  2  0  0  0  0  0  0  0  0  0
   23.9467  -19.4877  -15.3290 N   0  0  0  0  0  0  0  0  0  0  0  0
   21.9669  -18.4526  -16.4320 C   0  0  0  0  0  0  0  0  0  0  0  0
   20.7960  -18.6576  -16.9260 O   0  0  0  0  0  0  0  0  0  0  0  0
   22.4298  -17.2537  -16.8557 O   0  0  0  0  0  0  0  0  0  0  0  0
  2  1  1  0
  3  2  1  0
  4  5  1  0
  4  3  1  0
  5  6  1  6
  7  8  2  0
  7  5  1  0
 10  9  1  0
 11 10  1  0
 11 12  1  0
 13 12  1  6
 13 14  1  0
 14  7  1  0
 15 25  1  0
 15 13  1  0
 16 15  2  0
 17 18  1  0
 18 20  1  0
 19 18  2  0
 20 21  1  0
 21 22  1  0
 22 23  1  0
 24 23  1  1
 24 25  1  0
 24 26  1  0
 26 28  1  0
 27 26  2  0
M  END
$$$$
