MMR.pdb
     RDKit          3D

 28 27  0  0  1  0  0  0  0  0999 V2000
   29.0385  -19.4026   -5.0483 C   0  0  0  0  0  0  0  0  0  0  0  0
   27.9008  -19.0705   -6.4395 S   0  0  0  0  0  0  0  0  0  0  0  0
   28.2608  -20.2608   -7.7457 C   0  0  0  0  0  0  0  0  0  0  0  0
   27.8318  -19.6728   -9.0538 C   0  0  0  0  0  0  0  0  0  0  0  0
   26.7418  -20.4722   -9.6952 C   0  0  2  0  0  0  0  0  0  0  0  0
   27.0093  -21.8737   -9.7496 N   0  0  0  0  0  0  0  0  0  0  0  0
   26.1835  -19.8853  -10.9245 C   0  0  0  0  0  0  0  0  0  0  0  0
   25.5531  -18.7740  -10.8429 O   0  0  0  0  0  0  0  0  0  0  0  0
   27.4891  -18.4078  -16.8401 C   0  0  0  0  0  0  0  0  0  0  0  0
   28.0145  -17.4129  -15.4048 S   0  0  0  0  0  0  0  0  0  0  0  0
   27.2400  -18.1647  -13.9168 C   0  0  0  0  0  0  0  0  0  0  0  0
   26.2002  -19.1683  -14.3733 C   0  0  0  0  0  0  0  0  0  0  0  0
   25.4934  -19.8934  -13.3260 C   0  0  2  0  0  0  0  0  0  0  0  0
   26.2759  -20.4418  -12.2384 N   0  0  0  0  0  0  0  0  0  0  0  0
   24.4303  -20.8510  -13.7938 C   0  0  0  0  0  0  0  0  0  0  0  0
   24.3852  -21.9565  -13.2599 O   0  0  0  0  0  0  0  0  0  0  0  0
   17.8518  -21.5674  -10.9877 N   0  0  0  0  0  0  0  0  0  0  0  0
   17.6053  -22.7383  -11.7895 C   0  0  0  0  0  0  0  0  0  0  0  0
   16.3535  -23.1526  -11.8223 N   0  0  0  0  0  0  0  0  0  0  0  0
   18.6080  -23.4168  -12.4920 N   0  0  0  0  0  0  0  0  0  0  0  0
   19.9747  -22.9060  -12.5253 C   0  0  0  0  0  0  0  0  0  0  0  0
   20.2731  -22.1966  -13.8575 C   0  0  0  0  0  0  0  0  0  0  0  0
   21.6387  -21.6540  -13.7907 C   0  0  0  0  0  0  0  0  0  0  0  0
   22.1642  -20.9410  -15.0124 C   0  0  2  0  0  0  0  0  0  0  0  0
   23.5191  -20.5554  -14.7950 N   0  0  0  0  0  0  0  0  0  0  0  0
   21.2372  -20.0356  -15.6496 C   0  0  0  0  0  0  0  0  0  0  0  0
   21.4969  -18.7750  -15.6292 O   0  0  0  0  0  0  0  0  0  0  0  0
   20.0693  -20.2433  -16.3008 O   0  0  0  0  0  0  0  0  0  0  0  0
  2  1  1  0
  3  2  1  0
  4  5  1  0
  4  3  1  0
  5  6  1  6
  7  8  2  0
  7  5  1  0
 10  9  1  0
 11 10  1  0
 11 12  1  0
 13 12  1  6
 13 14  1  0
 14  7  1  0
 15 25  1  0
 15 13  1  0
 16 15  2  0
 17 18  1  0
 18 20  1  0
 19 18  2  0
 20 21  1  0
 21 22  1  0
 22 23  1  0
 24 23  1  1
 24 25  1  0
 24 26  1  0
 26 28  1  0
 27 26  2  0
M  END
$$$$
