MMR.pdb
     RDKit          3D

 28 27  0  0  1  0  0  0  0  0999 V2000
   27.4511  -17.2309  -15.3924 C   0  0  0  0  0  0  0  0  0  0  0  0
   28.6424  -18.3107  -16.2615 S   0  0  0  0  0  0  0  0  0  0  0  0
   27.8038  -19.8588  -16.6524 C   0  0  0  0  0  0  0  0  0  0  0  0
   26.9933  -20.2718  -15.4634 C   0  0  0  0  0  0  0  0  0  0  0  0
   27.7553  -21.1880  -14.5587 C   0  0  2  0  0  0  0  0  0  0  0  0
   28.2161  -22.3786  -15.1981 N   0  0  0  0  0  0  0  0  0  0  0  0
   27.1640  -21.3738  -13.2233 C   0  0  0  0  0  0  0  0  0  0  0  0
   26.2215  -22.2288  -13.0828 O   0  0  0  0  0  0  0  0  0  0  0  0
   26.1386  -19.9204   -5.4868 C   0  0  0  0  0  0  0  0  0  0  0  0
   27.2941  -19.8944   -6.8975 S   0  0  0  0  0  0  0  0  0  0  0  0
   26.3265  -20.3462   -8.3937 C   0  0  0  0  0  0  0  0  0  0  0  0
   27.2746  -20.4180   -9.5737 C   0  0  0  0  0  0  0  0  0  0  0  0
   26.6732  -20.6720  -10.8760 C   0  0  2  0  0  0  0  0  0  0  0  0
   27.5445  -20.6805  -12.0321 N   0  0  0  0  0  0  0  0  0  0  0  0
   25.3783  -19.9555  -11.1518 C   0  0  0  0  0  0  0  0  0  0  0  0
   25.4393  -18.8690  -11.7220 O   0  0  0  0  0  0  0  0  0  0  0  0
   19.5029  -22.2683  -15.9185 N   0  0  0  0  0  0  0  0  0  0  0  0
   20.4683  -21.4337  -16.5864 C   0  0  0  0  0  0  0  0  0  0  0  0
   20.0219  -20.7781  -17.6403 N   0  0  0  0  0  0  0  0  0  0  0  0
   21.7999  -21.3121  -16.1723 N   0  0  0  0  0  0  0  0  0  0  0  0
   22.2701  -21.9755  -14.9605 C   0  0  0  0  0  0  0  0  0  0  0  0
   21.8831  -21.1792  -13.7023 C   0  0  0  0  0  0  0  0  0  0  0  0
   23.0692  -21.0864  -12.8371 C   0  0  0  0  0  0  0  0  0  0  0  0
   22.8810  -20.5001  -11.4595 C   0  0  2  0  0  0  0  0  0  0  0  0
   24.1362  -20.4489  -10.7861 N   0  0  0  0  0  0  0  0  0  0  0  0
   21.6908  -20.9254  -10.7611 C   0  0  0  0  0  0  0  0  0  0  0  0
   21.7795  -21.9132   -9.9406 O   0  0  0  0  0  0  0  0  0  0  0  0
   20.4127  -20.4819  -10.7939 O   0  0  0  0  0  0  0  0  0  0  0  0
  2  1  1  0
  3  2  1  0
  4  5  1  0
  4  3  1  0
  5  6  1  6
  7  8  2  0
  7  5  1  0
 10  9  1  0
 11 10  1  0
 11 12  1  0
 13 12  1  1
 13 14  1  0
 14  7  1  0
 15 25  1  0
 15 13  1  0
 16 15  2  0
 17 18  1  0
 18 20  1  0
 19 18  2  0
 20 21  1  0
 21 22  1  0
 22 23  1  0
 24 23  1  6
 24 25  1  0
 24 26  1  0
 26 28  1  0
 27 26  2  0
M  END
$$$$
