MMR.pdb
     RDKit          3D

 28 27  0  0  1  0  0  0  0  0999 V2000
   32.2467  -22.4299   -7.5198 C   0  0  0  0  0  0  0  0  0  0  0  0
   33.0351  -22.6967   -9.1470 S   0  0  0  0  0  0  0  0  0  0  0  0
   32.1070  -21.7547  -10.3733 C   0  0  0  0  0  0  0  0  0  0  0  0
   30.7154  -22.3027  -10.4376 C   0  0  0  0  0  0  0  0  0  0  0  0
   29.8421  -21.5041  -11.3531 C   0  0  2  0  0  0  0  0  0  0  0  0
   30.3938  -20.2391  -11.7191 N   0  0  0  0  0  0  0  0  0  0  0  0
   28.4142  -21.4931  -10.9949 C   0  0  0  0  0  0  0  0  0  0  0  0
   27.7754  -22.6026  -10.9842 O   0  0  0  0  0  0  0  0  0  0  0  0
   27.5083  -18.6689   -6.0582 C   0  0  0  0  0  0  0  0  0  0  0  0
   26.2205  -19.9551   -6.1734 S   0  0  0  0  0  0  0  0  0  0  0  0
   26.5065  -20.8633   -7.7458 C   0  0  0  0  0  0  0  0  0  0  0  0
   25.9151  -20.0528   -8.8815 C   0  0  0  0  0  0  0  0  0  0  0  0
   26.2638  -20.4751  -10.2314 C   0  0  2  0  0  0  0  0  0  0  0  0
   27.6444  -20.3399  -10.6458 N   0  0  0  0  0  0  0  0  0  0  0  0
   25.3067  -20.0599  -11.3167 C   0  0  0  0  0  0  0  0  0  0  0  0
   25.1448  -18.8564  -11.5030 O   0  0  0  0  0  0  0  0  0  0  0  0
   18.4661  -24.7672  -12.7272 N   0  0  0  0  0  0  0  0  0  0  0  0
   18.7906  -24.5564  -14.1146 C   0  0  0  0  0  0  0  0  0  0  0  0
   17.7960  -24.7269  -14.9641 N   0  0  0  0  0  0  0  0  0  0  0  0
   20.0683  -24.2010  -14.5622 N   0  0  0  0  0  0  0  0  0  0  0  0
   21.1547  -23.9682  -13.6159 C   0  0  0  0  0  0  0  0  0  0  0  0
   21.4349  -22.4649  -13.4468 C   0  0  0  0  0  0  0  0  0  0  0  0
   22.8182  -22.3082  -12.9718 C   0  0  0  0  0  0  0  0  0  0  0  0
   23.3040  -20.9066  -12.6952 C   0  0  2  0  0  0  0  0  0  0  0  0
   24.5971  -20.9579  -12.0977 N   0  0  0  0  0  0  0  0  0  0  0  0
   22.3041  -19.9890  -12.2018 C   0  0  0  0  0  0  0  0  0  0  0  0
   21.9566  -20.0654  -10.9647 O   0  0  0  0  0  0  0  0  0  0  0  0
   21.6000  -19.0040  -12.8063 O   0  0  0  0  0  0  0  0  0  0  0  0
  2  1  1  0
  3  2  1  0
  4  5  1  0
  4  3  1  0
  5  6  1  1
  7  8  2  0
  7  5  1  0
 10  9  1  0
 11 10  1  0
 11 12  1  0
 13 12  1  1
 13 14  1  0
 14  7  1  0
 15 25  1  0
 15 13  1  0
 16 15  2  0
 17 18  1  0
 18 20  1  0
 19 18  2  0
 20 21  1  0
 21 22  1  0
 22 23  1  0
 24 23  1  1
 24 25  1  0
 24 26  1  0
 26 28  1  0
 27 26  2  0
M  END
$$$$
