MMR.pdb
     RDKit          3D

 28 27  0  0  1  0  0  0  0  0999 V2000
   29.9533  -21.1870   -5.9287 C   0  0  0  0  0  0  0  0  0  0  0  0
   28.8340  -19.9983   -5.1074 S   0  0  0  0  0  0  0  0  0  0  0  0
   27.2113  -20.7726   -4.9657 C   0  0  0  0  0  0  0  0  0  0  0  0
   26.6631  -20.9789   -6.3433 C   0  0  0  0  0  0  0  0  0  0  0  0
   26.8509  -19.7712   -7.2061 C   0  0  2  0  0  0  0  0  0  0  0  0
   26.5744  -18.5382   -6.5414 N   0  0  0  0  0  0  0  0  0  0  0  0
   26.3076  -19.8922   -8.5691 C   0  0  0  0  0  0  0  0  0  0  0  0
   25.1623  -19.3787   -8.8213 O   0  0  0  0  0  0  0  0  0  0  0  0
   27.4095  -19.7269  -16.3468 C   0  0  0  0  0  0  0  0  0  0  0  0
   28.1566  -19.8783  -14.6901 S   0  0  0  0  0  0  0  0  0  0  0  0
   26.7767  -20.1003  -13.4960 C   0  0  0  0  0  0  0  0  0  0  0  0
   27.3633  -20.2304  -12.1048 C   0  0  0  0  0  0  0  0  0  0  0  0
   26.4143  -20.4018  -11.0130 C   0  0  2  0  0  0  0  0  0  0  0  0
   26.9445  -20.5405   -9.6730 N   0  0  0  0  0  0  0  0  0  0  0  0
   25.2815  -21.3587  -11.2723 C   0  0  0  0  0  0  0  0  0  0  0  0
   25.5318  -22.5609  -11.2341 O   0  0  0  0  0  0  0  0  0  0  0  0
   19.5392  -23.8012   -8.5423 N   0  0  0  0  0  0  0  0  0  0  0  0
   18.3884  -23.5728   -9.3778 C   0  0  0  0  0  0  0  0  0  0  0  0
   17.4456  -24.4931   -9.3123 N   0  0  0  0  0  0  0  0  0  0  0  0
   18.2543  -22.4619  -10.2187 N   0  0  0  0  0  0  0  0  0  0  0  0
   19.3476  -21.5084  -10.3787 C   0  0  0  0  0  0  0  0  0  0  0  0
   20.3908  -22.0197  -11.3873 C   0  0  0  0  0  0  0  0  0  0  0  0
   21.6538  -21.3076  -11.1394 C   0  0  0  0  0  0  0  0  0  0  0  0
   22.8338  -21.6604  -12.0112 C   0  0  2  0  0  0  0  0  0  0  0  0
   23.9880  -20.9549  -11.5621 N   0  0  0  0  0  0  0  0  0  0  0  0
   22.5498  -21.7794  -13.4221 C   0  0  0  0  0  0  0  0  0  0  0  0
   22.2070  -22.9304  -13.8852 O   0  0  0  0  0  0  0  0  0  0  0  0
   22.5774  -20.8788  -14.4318 O   0  0  0  0  0  0  0  0  0  0  0  0
  2  1  1  0
  3  2  1  0
  4  5  1  0
  4  3  1  0
  5  6  1  1
  7  8  2  0
  7  5  1  0
 10  9  1  0
 11 10  1  0
 11 12  1  0
 13 12  1  6
 13 14  1  0
 14  7  1  0
 15 25  1  0
 15 13  1  0
 16 15  2  0
 17 18  1  0
 18 20  1  0
 19 18  2  0
 20 21  1  0
 21 22  1  0
 22 23  1  0
 24 23  1  1
 24 25  1  0
 24 26  1  0
 26 28  1  0
 27 26  2  0
M  END
$$$$
