MMR.pdb
     RDKit          3D

 28 27  0  0  1  0  0  0  0  0999 V2000
   30.1590  -23.9349  -16.4022 C   0  0  0  0  0  0  0  0  0  0  0  0
   28.9629  -23.1010  -17.5040 S   0  0  0  0  0  0  0  0  0  0  0  0
   28.3569  -21.6312  -16.6525 C   0  0  0  0  0  0  0  0  0  0  0  0
   27.4111  -22.0638  -15.5757 C   0  0  0  0  0  0  0  0  0  0  0  0
   26.7788  -20.8967  -14.8854 C   0  0  2  0  0  0  0  0  0  0  0  0
   27.6442  -19.7694  -14.7475 N   0  0  0  0  0  0  0  0  0  0  0  0
   25.9861  -21.2370  -13.6923 C   0  0  0  0  0  0  0  0  0  0  0  0
   25.2478  -22.2824  -13.7234 O   0  0  0  0  0  0  0  0  0  0  0  0
   28.4475  -19.9872   -7.2845 C   0  0  0  0  0  0  0  0  0  0  0  0
   26.7192  -19.8392   -7.8477 S   0  0  0  0  0  0  0  0  0  0  0  0
   26.6402  -20.5608   -9.5366 C   0  0  0  0  0  0  0  0  0  0  0  0
   25.2465  -20.3377  -10.0881 C   0  0  0  0  0  0  0  0  0  0  0  0
   24.9940  -20.8315  -11.4352 C   0  0  2  0  0  0  0  0  0  0  0  0
   25.9551  -20.5017  -12.4664 N   0  0  0  0  0  0  0  0  0  0  0  0
   23.5763  -20.7053  -11.9253 C   0  0  0  0  0  0  0  0  0  0  0  0
   23.3199  -19.7820  -12.6942 O   0  0  0  0  0  0  0  0  0  0  0  0
   18.1363  -24.8226   -6.8382 N   0  0  0  0  0  0  0  0  0  0  0  0
   18.4511  -25.2652   -8.1722 C   0  0  0  0  0  0  0  0  0  0  0  0
   18.3532  -26.5643   -8.3790 N   0  0  0  0  0  0  0  0  0  0  0  0
   18.8447  -24.3994   -9.1992 N   0  0  0  0  0  0  0  0  0  0  0  0
   18.6586  -22.9572   -9.0742 C   0  0  0  0  0  0  0  0  0  0  0  0
   19.0509  -22.2295  -10.3717 C   0  0  0  0  0  0  0  0  0  0  0  0
   20.5180  -22.1324  -10.4159 C   0  0  0  0  0  0  0  0  0  0  0  0
   21.1348  -21.4626  -11.6191 C   0  0  2  0  0  0  0  0  0  0  0  0
   22.5549  -21.5613  -11.5457 N   0  0  0  0  0  0  0  0  0  0  0  0
   20.5057  -20.2310  -12.0345 C   0  0  0  0  0  0  0  0  0  0  0  0
   19.4485  -20.2969  -12.7659 O   0  0  0  0  0  0  0  0  0  0  0  0
   20.8169  -18.9332  -11.8105 O   0  0  0  0  0  0  0  0  0  0  0  0
  2  1  1  0
  3  2  1  0
  4  5  1  0
  4  3  1  0
  5  6  1  1
  7  8  2  0
  7  5  1  0
 10  9  1  0
 11 10  1  0
 11 12  1  0
 13 12  1  1
 13 14  1  0
 14  7  1  0
 15 25  1  0
 15 13  1  0
 16 15  2  0
 17 18  1  0
 18 20  1  0
 19 18  2  0
 20 21  1  0
 21 22  1  0
 22 23  1  0
 24 23  1  1
 24 25  1  0
 24 26  1  0
 26 28  1  0
 27 26  2  0
M  END
$$$$
