MMR.pdb
     RDKit          3D

 28 27  0  0  1  0  0  0  0  0999 V2000
   27.5896   -9.1546  -16.9671 C   0  0  0  0  0  0  0  0  0  0  0  0
   28.2865   -9.8621  -18.5014 S   0  0  0  0  0  0  0  0  0  0  0  0
   27.4579  -11.4334  -18.8130 C   0  0  0  0  0  0  0  0  0  0  0  0
   27.1911  -12.0971  -17.4979 C   0  0  0  0  0  0  0  0  0  0  0  0
   27.7111  -13.4996  -17.4642 C   0  0  2  0  0  0  0  0  0  0  0  0
   27.6405  -14.1719  -18.7218 N   0  0  0  0  0  0  0  0  0  0  0  0
   27.2857  -14.2907  -16.2978 C   0  0  0  0  0  0  0  0  0  0  0  0
   26.6759  -13.6961  -15.3420 O   0  0  0  0  0  0  0  0  0  0  0  0
   22.7506  -15.4116  -17.4885 C   0  0  0  0  0  0  0  0  0  0  0  0
   22.3892  -16.7145  -16.2647 S   0  0  0  0  0  0  0  0  0  0  0  0
   23.9844  -17.1612  -15.4677 C   0  0  0  0  0  0  0  0  0  0  0  0
   25.0637  -16.2462  -16.0103 C   0  0  0  0  0  0  0  0  0  0  0  0
   26.4280  -16.5263  -15.5833 C   0  0  2  0  0  0  0  0  0  0  0  0
   27.4865  -15.6948  -16.1163 N   0  0  0  0  0  0  0  0  0  0  0  0
   26.8184  -17.9796  -15.5451 C   0  0  0  0  0  0  0  0  0  0  0  0
   26.6127  -18.6509  -16.5532 O   0  0  0  0  0  0  0  0  0  0  0  0
   25.6638  -20.7347   -7.7219 N   0  0  0  0  0  0  0  0  0  0  0  0
   24.8186  -21.0017   -8.8573 C   0  0  0  0  0  0  0  0  0  0  0  0
   23.5283  -21.0908   -8.5981 N   0  0  0  0  0  0  0  0  0  0  0  0
   25.3056  -21.1674  -10.1590 N   0  0  0  0  0  0  0  0  0  0  0  0
   26.7407  -21.1895  -10.4237 C   0  0  0  0  0  0  0  0  0  0  0  0
   27.0286  -21.3639  -11.9249 C   0  0  0  0  0  0  0  0  0  0  0  0
   27.1178  -20.0270  -12.5318 C   0  0  0  0  0  0  0  0  0  0  0  0
   27.4279  -19.9519  -14.0066 C   0  0  2  0  0  0  0  0  0  0  0  0
   27.3794  -18.5938  -14.4369 N   0  0  0  0  0  0  0  0  0  0  0  0
   26.8507  -20.9988  -14.8165 C   0  0  0  0  0  0  0  0  0  0  0  0
   25.5842  -20.9717  -15.0448 O   0  0  0  0  0  0  0  0  0  0  0  0
   27.3932  -22.0812  -15.4209 O   0  0  0  0  0  0  0  0  0  0  0  0
  2  1  1  0
  3  2  1  0
  4  5  1  0
  4  3  1  0
  5  6  1  6
  7  8  2  0
  7  5  1  0
 10  9  1  0
 11 10  1  0
 11 12  1  0
 13 12  1  6
 13 14  1  0
 14  7  1  0
 15 25  1  0
 15 13  1  0
 16 15  2  0
 17 18  1  0
 18 20  1  0
 19 18  2  0
 20 21  1  0
 21 22  1  0
 22 23  1  0
 24 23  1  1
 24 25  1  0
 24 26  1  0
 26 28  1  0
 27 26  2  0
M  END
$$$$
