MMR.pdb
     RDKit          3D

 28 27  0  0  1  0  0  0  0  0999 V2000
   23.1894  -25.9555  -17.7805 C   0  0  0  0  0  0  0  0  0  0  0  0
   22.5157  -25.0070  -19.1900 S   0  0  0  0  0  0  0  0  0  0  0  0
   21.6762  -23.5540  -18.5292 C   0  0  0  0  0  0  0  0  0  0  0  0
   21.7981  -23.5742  -17.0373 C   0  0  0  0  0  0  0  0  0  0  0  0
   20.6658  -22.8553  -16.3743 C   0  0  2  0  0  0  0  0  0  0  0  0
   20.4640  -21.5267  -16.8568 N   0  0  0  0  0  0  0  0  0  0  0  0
   20.6008  -23.0154  -14.9123 C   0  0  0  0  0  0  0  0  0  0  0  0
   20.8501  -24.1659  -14.4090 O   0  0  0  0  0  0  0  0  0  0  0  0
   20.1234  -19.3393   -9.4337 C   0  0  0  0  0  0  0  0  0  0  0  0
   21.4000  -18.8583  -10.6439 S   0  0  0  0  0  0  0  0  0  0  0  0
   21.4121  -20.1477  -11.9541 C   0  0  0  0  0  0  0  0  0  0  0  0
   20.3580  -21.1830  -11.6171 C   0  0  0  0  0  0  0  0  0  0  0  0
   20.2112  -22.2893  -12.5533 C   0  0  2  0  0  0  0  0  0  0  0  0
   20.2808  -21.9904  -13.9682 N   0  0  0  0  0  0  0  0  0  0  0  0
   19.1171  -23.2743  -12.2389 C   0  0  0  0  0  0  0  0  0  0  0  0
   18.0029  -23.0564  -12.7085 O   0  0  0  0  0  0  0  0  0  0  0  0
   19.8303  -29.1032   -8.0388 N   0  0  0  0  0  0  0  0  0  0  0  0
   18.9802  -30.1209   -8.6012 C   0  0  0  0  0  0  0  0  0  0  0  0
   18.4692  -30.9770   -7.7376 N   0  0  0  0  0  0  0  0  0  0  0  0
   18.7025  -30.2242   -9.9692 N   0  0  0  0  0  0  0  0  0  0  0  0
   19.1051  -29.1712  -10.8960 C   0  0  0  0  0  0  0  0  0  0  0  0
   18.2306  -27.9165  -10.7291 C   0  0  0  0  0  0  0  0  0  0  0  0
   19.0721  -26.7361  -10.9784 C   0  0  0  0  0  0  0  0  0  0  0  0
   18.4008  -25.3849  -10.9504 C   0  0  2  0  0  0  0  0  0  0  0  0
   19.2992  -24.3944  -11.4438 N   0  0  0  0  0  0  0  0  0  0  0  0
   17.5844  -25.1213   -9.7889 C   0  0  0  0  0  0  0  0  0  0  0  0
   18.0695  -24.3855   -8.8507 O   0  0  0  0  0  0  0  0  0  0  0  0
   16.3356  -25.5169   -9.4494 O   0  0  0  0  0  0  0  0  0  0  0  0
  2  1  1  0
  3  2  1  0
  4  5  1  0
  4  3  1  0
  5  6  1  1
  7  8  2  0
  7  5  1  0
 10  9  1  0
 11 10  1  0
 11 12  1  0
 13 12  1  1
 13 14  1  0
 14  7  1  0
 15 25  1  0
 15 13  1  0
 16 15  2  0
 17 18  1  0
 18 20  1  0
 19 18  2  0
 20 21  1  0
 21 22  1  0
 22 23  1  0
 24 23  1  1
 24 25  1  0
 24 26  1  0
 26 28  1  0
 27 26  2  0
M  END
$$$$
