MMR.pdb
     RDKit          3D

 28 27  0  0  1  0  0  0  0  0999 V2000
   14.9371  -23.0063  -10.2119 C   0  0  0  0  0  0  0  0  0  0  0  0
   16.3829  -22.3695  -11.1310 S   0  0  0  0  0  0  0  0  0  0  0  0
   17.8710  -22.9527  -10.2955 C   0  0  0  0  0  0  0  0  0  0  0  0
   17.4841  -24.0415   -9.3438 C   0  0  0  0  0  0  0  0  0  0  0  0
   18.6803  -24.7068   -8.7397 C   0  0  2  0  0  0  0  0  0  0  0  0
   19.5981  -25.2280   -9.7012 N   0  0  0  0  0  0  0  0  0  0  0  0
   18.3883  -25.5899   -7.5984 C   0  0  0  0  0  0  0  0  0  0  0  0
   18.3789  -26.8559   -7.7886 O   0  0  0  0  0  0  0  0  0  0  0  0
   20.6268  -27.0127   -1.6933 C   0  0  0  0  0  0  0  0  0  0  0  0
   18.9081  -26.5405   -1.3072 S   0  0  0  0  0  0  0  0  0  0  0  0
   17.9078  -26.8726   -2.8133 C   0  0  0  0  0  0  0  0  0  0  0  0
   18.3252  -25.8927   -3.8913 C   0  0  0  0  0  0  0  0  0  0  0  0
   17.8108  -26.1426   -5.2311 C   0  0  2  0  0  0  0  0  0  0  0  0
   18.1079  -25.1694   -6.2609 N   0  0  0  0  0  0  0  0  0  0  0  0
   16.3876  -26.6272   -5.3078 C   0  0  0  0  0  0  0  0  0  0  0  0
   15.4947  -25.7954   -5.1655 O   0  0  0  0  0  0  0  0  0  0  0  0
   16.8852  -33.7935   -5.0271 N   0  0  0  0  0  0  0  0  0  0  0  0
   17.7628  -32.9581   -4.2482 C   0  0  0  0  0  0  0  0  0  0  0  0
   19.0508  -33.0993   -4.4952 N   0  0  0  0  0  0  0  0  0  0  0  0
   17.3089  -32.0531   -3.2817 N   0  0  0  0  0  0  0  0  0  0  0  0
   15.8838  -31.9099   -3.0015 C   0  0  0  0  0  0  0  0  0  0  0  0
   15.1700  -31.1339   -4.1218 C   0  0  0  0  0  0  0  0  0  0  0  0
   15.5006  -29.7083   -3.9729 C   0  0  0  0  0  0  0  0  0  0  0  0
   14.9730  -28.7589   -5.0204 C   0  0  2  0  0  0  0  0  0  0  0  0
   16.0390  -27.9522   -5.5148 N   0  0  0  0  0  0  0  0  0  0  0  0
   13.6828  -28.1758   -4.7364 C   0  0  0  0  0  0  0  0  0  0  0  0
   13.4241  -27.8143   -3.5284 O   0  0  0  0  0  0  0  0  0  0  0  0
   12.6112  -27.9187   -5.5218 O   0  0  0  0  0  0  0  0  0  0  0  0
  2  1  1  0
  3  2  1  0
  4  5  1  0
  4  3  1  0
  5  6  1  6
  7  8  2  0
  7  5  1  0
 10  9  1  0
 11 10  1  0
 11 12  1  0
 13 12  1  1
 13 14  1  0
 14  7  1  0
 15 25  1  0
 15 13  1  0
 16 15  2  0
 17 18  1  0
 18 20  1  0
 19 18  2  0
 20 21  1  0
 21 22  1  0
 22 23  1  0
 24 23  1  1
 24 25  1  0
 24 26  1  0
 26 28  1  0
 27 26  2  0
M  END
$$$$
