MMR.pdb
     RDKit          3D

 28 27  0  0  1  0  0  0  0  0999 V2000
   15.9900  -24.2478   -5.0112 C   0  0  0  0  0  0  0  0  0  0  0  0
   17.1324  -22.8811   -5.4205 S   0  0  0  0  0  0  0  0  0  0  0  0
   18.5631  -23.5879   -6.2606 C   0  0  0  0  0  0  0  0  0  0  0  0
   19.5221  -22.4820   -6.5747 C   0  0  0  0  0  0  0  0  0  0  0  0
   20.7419  -22.9839   -7.2808 C   0  0  2  0  0  0  0  0  0  0  0  0
   21.2222  -24.2340   -6.7857 N   0  0  0  0  0  0  0  0  0  0  0  0
   21.7733  -21.9650   -7.5370 C   0  0  0  0  0  0  0  0  0  0  0  0
   21.4514  -20.9190   -8.2011 O   0  0  0  0  0  0  0  0  0  0  0  0
   27.2322  -18.2865   -5.0246 C   0  0  0  0  0  0  0  0  0  0  0  0
   27.6647  -19.6408   -6.1668 S   0  0  0  0  0  0  0  0  0  0  0  0
   26.2745  -19.8041   -7.3584 C   0  0  0  0  0  0  0  0  0  0  0  0
   25.3056  -20.8401   -6.8250 C   0  0  0  0  0  0  0  0  0  0  0  0
   24.1088  -21.0805   -7.6198 C   0  0  2  0  0  0  0  0  0  0  0  0
   23.1360  -22.0225   -7.1077 N   0  0  0  0  0  0  0  0  0  0  0  0
   24.3262  -21.2443   -9.1004 C   0  0  0  0  0  0  0  0  0  0  0  0
   24.5439  -22.3776   -9.5217 O   0  0  0  0  0  0  0  0  0  0  0  0
   19.1770  -18.3004  -15.1835 N   0  0  0  0  0  0  0  0  0  0  0  0
   20.2871  -18.8228  -15.9381 C   0  0  0  0  0  0  0  0  0  0  0  0
   20.0938  -18.9238  -17.2390 N   0  0  0  0  0  0  0  0  0  0  0  0
   21.4993  -19.2124  -15.3569 N   0  0  0  0  0  0  0  0  0  0  0  0
   21.6964  -19.1329  -13.9130 C   0  0  0  0  0  0  0  0  0  0  0  0
   23.0878  -19.6512  -13.5103 C   0  0  0  0  0  0  0  0  0  0  0  0
   23.1597  -19.6741  -12.0413 C   0  0  0  0  0  0  0  0  0  0  0  0
   24.4564  -20.1254  -11.4153 C   0  0  2  0  0  0  0  0  0  0  0  0
   24.3069  -20.1900   -9.9993 N   0  0  0  0  0  0  0  0  0  0  0  0
   25.6545  -19.5723  -12.0018 C   0  0  0  0  0  0  0  0  0  0  0  0
   26.2816  -18.6478  -11.3622 O   0  0  0  0  0  0  0  0  0  0  0  0
   26.2978  -19.8304  -13.1640 O   0  0  0  0  0  0  0  0  0  0  0  0
  2  1  1  0
  3  2  1  0
  4  5  1  0
  4  3  1  0
  5  6  1  1
  7  8  2  0
  7  5  1  0
 10  9  1  0
 11 10  1  0
 11 12  1  0
 13 12  1  1
 13 14  1  0
 14  7  1  0
 15 25  1  0
 15 13  1  0
 16 15  2  0
 17 18  1  0
 18 20  1  0
 19 18  2  0
 20 21  1  0
 21 22  1  0
 22 23  1  0
 24 23  1  6
 24 25  1  0
 24 26  1  0
 26 28  1  0
 27 26  2  0
M  END
$$$$
