MMR.pdb
     RDKit          3D

 28 27  0  0  1  0  0  0  0  0999 V2000
   21.8398   -1.5947  -14.5433 C   0  0  0  0  0  0  0  0  0  0  0  0
   21.7798   -3.4213  -14.5274 S   0  0  0  0  0  0  0  0  0  0  0  0
   23.0189   -4.0263  -15.6898 C   0  0  0  0  0  0  0  0  0  0  0  0
   22.7924   -5.4905  -15.9040 C   0  0  0  0  0  0  0  0  0  0  0  0
   23.8628   -6.1035  -16.7507 C   0  0  2  0  0  0  0  0  0  0  0  0
   24.1671   -5.3551  -17.9280 N   0  0  0  0  0  0  0  0  0  0  0  0
   23.7483   -7.5594  -16.9371 C   0  0  0  0  0  0  0  0  0  0  0  0
   23.1929   -8.0001  -18.0032 O   0  0  0  0  0  0  0  0  0  0  0  0
   27.2666  -12.5182  -14.8476 C   0  0  0  0  0  0  0  0  0  0  0  0
   27.7643  -11.6741  -16.3857 S   0  0  0  0  0  0  0  0  0  0  0  0
   26.4938  -10.3911  -16.7304 C   0  0  0  0  0  0  0  0  0  0  0  0
   25.1769  -10.8494  -16.1369 C   0  0  0  0  0  0  0  0  0  0  0  0
   24.0345   -9.9665  -16.3309 C   0  0  2  0  0  0  0  0  0  0  0  0
   24.2074   -8.5617  -16.0266 N   0  0  0  0  0  0  0  0  0  0  0  0
   22.7103  -10.4899  -15.8425 C   0  0  0  0  0  0  0  0  0  0  0  0
   22.4260  -10.3055  -14.6616 O   0  0  0  0  0  0  0  0  0  0  0  0
   14.2747  -10.5313  -19.7516 N   0  0  0  0  0  0  0  0  0  0  0  0
   15.3431  -11.4969  -19.7789 C   0  0  0  0  0  0  0  0  0  0  0  0
   15.5197  -12.1182  -20.9290 N   0  0  0  0  0  0  0  0  0  0  0  0
   16.1518  -11.7835  -18.6729 N   0  0  0  0  0  0  0  0  0  0  0  0
   17.3155  -10.9590  -18.3632 C   0  0  0  0  0  0  0  0  0  0  0  0
   18.1214  -11.5484  -17.1928 C   0  0  0  0  0  0  0  0  0  0  0  0
   19.5434  -11.2479  -17.4196 C   0  0  0  0  0  0  0  0  0  0  0  0
   20.5318  -11.7460  -16.3939 C   0  0  2  0  0  0  0  0  0  0  0  0
   21.8124  -11.1735  -16.6465 N   0  0  0  0  0  0  0  0  0  0  0  0
   20.4088  -13.1404  -16.0393 C   0  0  0  0  0  0  0  0  0  0  0  0
   21.1330  -14.0003  -16.6662 O   0  0  0  0  0  0  0  0  0  0  0  0
   19.6353  -13.7806  -15.1320 O   0  0  0  0  0  0  0  0  0  0  0  0
  2  1  1  0
  3  2  1  0
  4  5  1  0
  4  3  1  0
  5  6  1  6
  7  8  2  0
  7  5  1  0
 10  9  1  0
 11 10  1  0
 11 12  1  0
 13 12  1  1
 13 14  1  0
 14  7  1  0
 15 25  1  0
 15 13  1  0
 16 15  2  0
 17 18  1  0
 18 20  1  0
 19 18  2  0
 20 21  1  0
 21 22  1  0
 22 23  1  0
 24 23  1  6
 24 25  1  0
 24 26  1  0
 26 28  1  0
 27 26  2  0
M  END
$$$$
