YTK.pdb
     RDKit          3D

 29 29  0  0  1  0  0  0  0  0999 V2000
    5.1967  -10.0594   27.8290 O   0  0  0  0  0  0  0  0  0  0  0  0
    5.8554  -11.1362   27.2500 C   0  0  0  0  0  0  0  0  0  0  0  0
    6.7699  -11.0208   26.2399 C   0  0  0  0  0  0  0  0  0  0  0  0
    7.4155  -12.0991   25.6752 C   0  0  0  0  0  0  0  0  0  0  0  0
    7.1448  -13.3828   26.1340 C   0  0  0  0  0  0  0  0  0  0  0  0
    7.8162  -14.5694   25.5555 C   0  0  0  0  0  0  0  0  0  0  0  0
    6.8736  -15.3514   24.6485 C   0  0  2  0  0  0  0  0  0  0  0  0
    6.0754  -16.2060   25.4705 N   0  0  0  0  0  0  0  0  0  0  0  0
    7.6574  -16.1420   23.6839 C   0  0  0  0  0  0  0  0  0  0  0  0
    7.9908  -17.3395   23.9784 O   0  0  0  0  0  0  0  0  0  0  0  0
    6.2242  -13.5020   27.1511 C   0  0  0  0  0  0  0  0  0  0  0  0
    5.5792  -12.4233   27.7151 C   0  0  0  0  0  0  0  0  0  0  0  0
    7.6434  -15.3582   19.8438 C   0  0  0  0  0  0  0  0  0  0  0  0
    9.0424  -15.8022   20.2192 C   0  0  1  0  0  0  0  0  0  0  0  0
    9.8802  -14.6653   20.2096 O   0  0  0  0  0  0  0  0  0  0  0  0
    9.0582  -16.3644   21.5957 C   0  0  2  0  0  0  0  0  0  0  0  0
    8.0858  -15.6681   22.4153 N   0  0  0  0  0  0  0  0  0  0  0  0
   10.3761  -16.4351   22.2358 C   0  0  0  0  0  0  0  0  0  0  0  0
   10.6356  -15.5712   23.1149 O   0  0  0  0  0  0  0  0  0  0  0  0
   11.3456  -17.3984   21.9250 N   0  0  0  0  0  0  0  0  0  0  0  0
   12.5354  -17.6387   22.8725 C   0  0  1  0  0  0  0  0  0  0  0  0
   12.0227  -18.5852   23.8337 C   0  0  0  0  0  0  0  0  0  0  0  0
   12.7445  -19.1951   24.9293 C   0  0  0  0  0  0  0  0  0  0  0  0
   12.2437  -20.1309   25.9148 C   0  0  0  0  0  0  0  0  0  0  0  0
   12.9624  -20.6524   27.0653 C   0  0  0  0  0  0  0  0  0  0  0  0
   13.7462  -21.8461   26.8088 N   0  0  0  0  0  0  0  0  0  0  0  0
   13.6793  -17.8474   22.0274 C   0  0  0  0  0  0  0  0  0  0  0  0
   14.8429  -17.6039   22.5291 O   0  0  0  0  0  0  0  0  0  0  0  0
   13.7254  -18.2965   20.7250 O   0  0  0  0  0  0  0  0  0  0  0  0
  2 12  2  0
  2  1  1  0
  3  2  1  0
  4  5  1  0
  4  3  2  0
  5 11  2  0
  6  5  1  0
  7  9  1  0
  7  6  1  0
  7  8  1  1
  9 10  2  0
 11 12  1  0
 14 13  1  1
 14 15  1  0
 16 14  1  0
 16 17  1  1
 17  9  1  0
 18 16  1  0
 19 18  2  0
 20 18  1  0
 21 20  1  0
 21 22  1  6
 23 22  1  0
 24 25  1  0
 24 23  1  0
 26 25  1  0
 27 21  1  0
 27 29  1  0
 28 27  2  0
M  END
$$$$
