YTK.pdb
     RDKit          3D

 29 29  0  0  1  0  0  0  0  0999 V2000
    7.4867  -12.2200   27.1913 O   0  0  0  0  0  0  0  0  0  0  0  0
    7.6126  -12.5432   25.8466 C   0  0  0  0  0  0  0  0  0  0  0  0
    8.7037  -13.1676   25.3084 C   0  0  0  0  0  0  0  0  0  0  0  0
    8.8141  -13.4818   23.9714 C   0  0  0  0  0  0  0  0  0  0  0  0
    7.7804  -13.1606   23.0996 C   0  0  0  0  0  0  0  0  0  0  0  0
    7.8578  -13.4804   21.6556 C   0  0  0  0  0  0  0  0  0  0  0  0
    7.2994  -14.8684   21.3654 C   0  0  2  0  0  0  0  0  0  0  0  0
    5.9649  -14.9243   21.8746 N   0  0  0  0  0  0  0  0  0  0  0  0
    8.1451  -15.8871   22.0111 C   0  0  0  0  0  0  0  0  0  0  0  0
    7.7017  -16.5157   23.0310 O   0  0  0  0  0  0  0  0  0  0  0  0
    6.6805  -12.5317   23.6390 C   0  0  0  0  0  0  0  0  0  0  0  0
    6.5709  -12.2179   24.9758 C   0  0  0  0  0  0  0  0  0  0  0  0
   10.1190  -18.4030   19.9318 C   0  0  0  0  0  0  0  0  0  0  0  0
   11.0084  -17.9970   21.0890 C   0  0  1  0  0  0  0  0  0  0  0  0
   11.9483  -17.0577   20.6106 O   0  0  0  0  0  0  0  0  0  0  0  0
   10.2082  -17.3347   22.1530 C   0  0  2  0  0  0  0  0  0  0  0  0
    9.4520  -16.2385   21.5799 N   0  0  0  0  0  0  0  0  0  0  0  0
   10.9559  -16.9295   23.3482 C   0  0  0  0  0  0  0  0  0  0  0  0
   11.1755  -15.6984   23.4993 O   0  0  0  0  0  0  0  0  0  0  0  0
   11.4305  -17.8264   24.3149 N   0  0  0  0  0  0  0  0  0  0  0  0
   12.1701  -17.3070   25.5618 C   0  0  1  0  0  0  0  0  0  0  0  0
   11.1203  -17.1377   26.5374 C   0  0  0  0  0  0  0  0  0  0  0  0
   11.2565  -16.6413   27.8896 C   0  0  0  0  0  0  0  0  0  0  0  0
   10.2132  -16.4381   28.8734 C   0  0  0  0  0  0  0  0  0  0  0  0
   10.3843  -15.9879   30.2446 C   0  0  0  0  0  0  0  0  0  0  0  0
    9.6668  -14.7738   30.5851 N   0  0  0  0  0  0  0  0  0  0  0  0
   13.3238  -18.1500   25.7182 C   0  0  0  0  0  0  0  0  0  0  0  0
   13.2487  -19.3534   25.2589 O   0  0  0  0  0  0  0  0  0  0  0  0
   14.5429  -17.8549   26.2898 O   0  0  0  0  0  0  0  0  0  0  0  0
  2 12  2  0
  2  1  1  0
  3  2  1  0
  4  5  1  0
  4  3  2  0
  5 11  2  0
  6  5  1  0
  7  9  1  0
  7  6  1  0
  7  8  1  1
  9 10  2  0
 11 12  1  0
 14 13  1  6
 14 15  1  0
 16 14  1  0
 16 17  1  6
 17  9  1  0
 18 16  1  0
 19 18  2  0
 20 18  1  0
 21 20  1  0
 21 22  1  1
 23 22  1  0
 24 25  1  0
 24 23  1  0
 26 25  1  0
 27 21  1  0
 27 29  1  0
 28 27  2  0
M  END
$$$$
