YTK.pdb
     RDKit          3D

 29 29  0  0  1  0  0  0  0  0999 V2000
    2.1386  -27.4283   29.3608 O   0  0  0  0  0  0  0  0  0  0  0  0
    3.4726  -27.0441   29.3987 C   0  0  0  0  0  0  0  0  0  0  0  0
    4.5199  -27.9207   29.4681 C   0  0  0  0  0  0  0  0  0  0  0  0
    5.8389  -27.5241   29.5051 C   0  0  0  0  0  0  0  0  0  0  0  0
    6.1535  -26.1707   29.4717 C   0  0  0  0  0  0  0  0  0  0  0  0
    7.5575  -25.7010   29.5092 C   0  0  0  0  0  0  0  0  0  0  0  0
    7.9976  -25.1630   28.1529 C   0  0  2  0  0  0  0  0  0  0  0  0
    7.8680  -26.2163   27.1953 N   0  0  0  0  0  0  0  0  0  0  0  0
    9.3945  -24.7022   28.2327 C   0  0  0  0  0  0  0  0  0  0  0  0
   10.3423  -25.5382   28.0466 O   0  0  0  0  0  0  0  0  0  0  0  0
    5.1007  -25.2857   29.4018 C   0  0  0  0  0  0  0  0  0  0  0  0
    3.7823  -25.6832   29.3649 C   0  0  0  0  0  0  0  0  0  0  0  0
   10.9479  -22.0628   26.2439 C   0  0  0  0  0  0  0  0  0  0  0  0
   11.3400  -21.7399   27.6712 C   0  0  1  0  0  0  0  0  0  0  0  0
   10.4706  -20.7342   28.1476 O   0  0  0  0  0  0  0  0  0  0  0  0
   11.1699  -22.9342   28.5405 C   0  0  2  0  0  0  0  0  0  0  0  0
    9.7858  -23.3648   28.5079 N   0  0  0  0  0  0  0  0  0  0  0  0
   11.6777  -22.7983   29.9100 C   0  0  0  0  0  0  0  0  0  0  0  0
   10.8334  -22.5702   30.8164 O   0  0  0  0  0  0  0  0  0  0  0  0
   13.0314  -22.9074   30.2563 N   0  0  0  0  0  0  0  0  0  0  0  0
   13.4809  -22.6977   31.7141 C   0  0  1  0  0  0  0  0  0  0  0  0
   14.2489  -23.8831   32.0101 C   0  0  0  0  0  0  0  0  0  0  0  0
   14.2775  -25.1165   31.2542 C   0  0  0  0  0  0  0  0  0  0  0  0
   15.1460  -26.2593   31.4465 C   0  0  0  0  0  0  0  0  0  0  0  0
   15.1657  -27.4810   30.6594 C   0  0  0  0  0  0  0  0  0  0  0  0
   16.1656  -28.4526   31.0609 N   0  0  0  0  0  0  0  0  0  0  0  0
   13.9711  -21.3484   31.7876 C   0  0  0  0  0  0  0  0  0  0  0  0
   14.1814  -20.7297   30.6749 O   0  0  0  0  0  0  0  0  0  0  0  0
   14.2460  -20.5846   32.9016 O   0  0  0  0  0  0  0  0  0  0  0  0
  2 12  2  0
  2  1  1  0
  3  2  1  0
  4  5  1  0
  4  3  2  0
  5 11  2  0
  6  5  1  0
  7  9  1  0
  7  6  1  0
  7  8  1  6
  9 10  2  0
 11 12  1  0
 14 13  1  6
 14 15  1  0
 16 14  1  0
 16 17  1  1
 17  9  1  0
 18 16  1  0
 19 18  2  0
 20 18  1  0
 21 20  1  0
 21 22  1  6
 23 22  1  0
 24 25  1  0
 24 23  1  0
 26 25  1  0
 27 21  1  0
 27 29  1  0
 28 27  2  0
M  END
$$$$
