YTK.pdb
     RDKit          3D

 29 29  0  0  1  0  0  0  0  0999 V2000
    5.3831  -10.3968   28.5181 O   0  0  0  0  0  0  0  0  0  0  0  0
    5.9759  -11.2839   27.6292 C   0  0  0  0  0  0  0  0  0  0  0  0
    5.8100  -11.2337   26.2728 C   0  0  0  0  0  0  0  0  0  0  0  0
    6.4051  -12.1215   25.4032 C   0  0  0  0  0  0  0  0  0  0  0  0
    7.2214  -13.1310   25.8994 C   0  0  0  0  0  0  0  0  0  0  0  0
    7.8805  -14.1060   25.0004 C   0  0  0  0  0  0  0  0  0  0  0  0
    6.8812  -15.1188   24.4543 C   0  0  2  0  0  0  0  0  0  0  0  0
    6.4845  -15.9735   25.5292 N   0  0  0  0  0  0  0  0  0  0  0  0
    7.5080  -15.8995   23.3737 C   0  0  0  0  0  0  0  0  0  0  0  0
    7.9448  -17.0743   23.6208 O   0  0  0  0  0  0  0  0  0  0  0  0
    7.3901  -13.1839   27.2651 C   0  0  0  0  0  0  0  0  0  0  0  0
    6.7948  -12.2958   28.1338 C   0  0  0  0  0  0  0  0  0  0  0  0
    6.8926  -14.8354   19.6163 C   0  0  0  0  0  0  0  0  0  0  0  0
    8.2458  -15.5099   19.7115 C   0  0  1  0  0  0  0  0  0  0  0  0
    9.2404  -14.5117   19.6169 O   0  0  0  0  0  0  0  0  0  0  0  0
    8.4016  -16.1803   21.0296 C   0  0  2  0  0  0  0  0  0  0  0  0
    7.6716  -15.4397   22.0399 N   0  0  0  0  0  0  0  0  0  0  0  0
    9.7820  -16.4636   21.4369 C   0  0  0  0  0  0  0  0  0  0  0  0
   10.2599  -15.7682   22.3721 O   0  0  0  0  0  0  0  0  0  0  0  0
   10.5834  -17.4518   20.8491 N   0  0  0  0  0  0  0  0  0  0  0  0
   11.9463  -17.8169   21.4659 C   0  0  1  0  0  0  0  0  0  0  0  0
   11.6225  -18.8376   22.4333 C   0  0  0  0  0  0  0  0  0  0  0  0
   12.4968  -19.3914   23.4444 C   0  0  0  0  0  0  0  0  0  0  0  0
   12.1763  -20.3758   24.4572 C   0  0  0  0  0  0  0  0  0  0  0  0
   13.0459  -20.8436   25.5236 C   0  0  0  0  0  0  0  0  0  0  0  0
   12.3728  -21.5474   26.5991 N   0  0  0  0  0  0  0  0  0  0  0  0
   12.8520  -17.9747   20.3609 C   0  0  0  0  0  0  0  0  0  0  0  0
   14.1047  -17.7582   20.5819 O   0  0  0  0  0  0  0  0  0  0  0  0
   12.5796  -18.3480   19.0623 O   0  0  0  0  0  0  0  0  0  0  0  0
  2 12  2  0
  2  1  1  0
  3  2  1  0
  4  5  1  0
  4  3  2  0
  5 11  2  0
  6  5  1  0
  7  9  1  0
  7  6  1  0
  7  8  1  1
  9 10  2  0
 11 12  1  0
 14 13  1  1
 14 15  1  0
 16 14  1  0
 16 17  1  1
 17  9  1  0
 18 16  1  0
 19 18  2  0
 20 18  1  0
 21 20  1  0
 21 22  1  6
 23 22  1  0
 24 25  1  0
 24 23  1  0
 26 25  1  0
 27 21  1  0
 27 29  1  0
 28 27  2  0
M  END
$$$$
