YTK.pdb
     RDKit          3D

 29 29  0  0  1  0  0  0  0  0999 V2000
    5.5879  -10.2664   28.1915 O   0  0  0  0  0  0  0  0  0  0  0  0
    6.1615  -11.2750   27.4282 C   0  0  0  0  0  0  0  0  0  0  0  0
    5.8303  -11.5322   26.1267 C   0  0  0  0  0  0  0  0  0  0  0  0
    6.4084  -12.5371   25.3820 C   0  0  0  0  0  0  0  0  0  0  0  0
    7.3811  -13.3478   25.9549 C   0  0  0  0  0  0  0  0  0  0  0  0
    8.0282  -14.4388   25.1905 C   0  0  0  0  0  0  0  0  0  0  0  0
    6.9929  -15.3650   24.5635 C   0  0  2  0  0  0  0  0  0  0  0  0
    6.4426  -16.1806   25.6004 N   0  0  0  0  0  0  0  0  0  0  0  0
    7.6345  -16.1984   23.5321 C   0  0  0  0  0  0  0  0  0  0  0  0
    7.8505  -17.4348   23.7697 O   0  0  0  0  0  0  0  0  0  0  0  0
    7.7165  -13.0909   27.2656 C   0  0  0  0  0  0  0  0  0  0  0  0
    7.1380  -12.0861   28.0093 C   0  0  0  0  0  0  0  0  0  0  0  0
    9.4968  -16.7795   18.9703 C   0  0  0  0  0  0  0  0  0  0  0  0
    8.6998  -15.9551   19.9604 C   0  0  1  0  0  0  0  0  0  0  0  0
    7.3387  -16.0206   19.5895 O   0  0  0  0  0  0  0  0  0  0  0  0
    8.8236  -16.5228   21.3291 C   0  0  2  0  0  0  0  0  0  0  0  0
    8.0450  -15.7260   22.2570 N   0  0  0  0  0  0  0  0  0  0  0  0
   10.1947  -16.7444   21.8012 C   0  0  0  0  0  0  0  0  0  0  0  0
   10.7805  -15.7705   22.3440 O   0  0  0  0  0  0  0  0  0  0  0  0
   10.8752  -17.9638   21.6816 N   0  0  0  0  0  0  0  0  0  0  0  0
   12.2610  -18.1480   22.3272 C   0  0  1  0  0  0  0  0  0  0  0  0
   12.1222  -19.3606   23.0971 C   0  0  0  0  0  0  0  0  0  0  0  0
   12.8735  -19.7384   24.2745 C   0  0  0  0  0  0  0  0  0  0  0  0
   12.3745  -19.9654   25.6150 C   0  0  0  0  0  0  0  0  0  0  0  0
   13.1402  -20.4161   26.7651 C   0  0  0  0  0  0  0  0  0  0  0  0
   12.4651  -20.2803   28.0422 N   0  0  0  0  0  0  0  0  0  0  0  0
   13.2191  -17.9338   21.2772 C   0  0  0  0  0  0  0  0  0  0  0  0
   12.8226  -18.1161   20.0629 O   0  0  0  0  0  0  0  0  0  0  0  0
   14.5355  -17.5364   21.3717 O   0  0  0  0  0  0  0  0  0  0  0  0
  2 12  2  0
  2  1  1  0
  3  2  1  0
  4  5  1  0
  4  3  2  0
  5 11  2  0
  6  5  1  0
  7  9  1  0
  7  6  1  0
  7  8  1  1
  9 10  2  0
 11 12  1  0
 14 13  1  6
 14 15  1  0
 16 14  1  0
 16 17  1  1
 17  9  1  0
 18 16  1  0
 19 18  2  0
 20 18  1  0
 21 20  1  0
 21 22  1  6
 23 22  1  0
 24 25  1  0
 24 23  1  0
 26 25  1  0
 27 21  1  0
 27 29  1  0
 28 27  2  0
M  END
$$$$
