YTK.pdb
     RDKit          3D

 29 29  0  0  1  0  0  0  0  0999 V2000
    6.3832  -12.4321   19.1697 O   0  0  0  0  0  0  0  0  0  0  0  0
    7.2964  -13.0254   20.0316 C   0  0  0  0  0  0  0  0  0  0  0  0
    8.5708  -13.3712   19.6764 C   0  0  0  0  0  0  0  0  0  0  0  0
    9.4658  -13.9597   20.5431 C   0  0  0  0  0  0  0  0  0  0  0  0
    9.0836  -14.2282   21.8521 C   0  0  0  0  0  0  0  0  0  0  0  0
   10.0139  -14.8591   22.8164 C   0  0  0  0  0  0  0  0  0  0  0  0
   10.2467  -16.3274   22.4812 C   0  0  2  0  0  0  0  0  0  0  0  0
    9.0534  -17.0484   22.7966 N   0  0  0  0  0  0  0  0  0  0  0  0
   11.3852  -16.8392   23.2634 C   0  0  0  0  0  0  0  0  0  0  0  0
   11.1663  -17.6042   24.2627 O   0  0  0  0  0  0  0  0  0  0  0  0
    7.8006  -13.8809   22.2124 C   0  0  0  0  0  0  0  0  0  0  0  0
    6.9065  -13.2926   21.3452 C   0  0  0  0  0  0  0  0  0  0  0  0
   12.1995  -19.3470   23.0239 C   0  0  0  0  0  0  0  0  0  0  0  0
   13.4938  -18.7678   22.4907 C   0  0  1  0  0  0  0  0  0  0  0  0
   13.3104  -18.4720   21.1220 O   0  0  0  0  0  0  0  0  0  0  0  0
   13.8214  -17.4962   23.1885 C   0  0  2  0  0  0  0  0  0  0  0  0
   12.7471  -16.5431   22.9896 N   0  0  0  0  0  0  0  0  0  0  0  0
   15.1363  -16.9245   22.8790 C   0  0  0  0  0  0  0  0  0  0  0  0
   15.1926  -16.0863   21.9405 O   0  0  0  0  0  0  0  0  0  0  0  0
   16.3139  -17.2570   23.5624 N   0  0  0  0  0  0  0  0  0  0  0  0
   17.6486  -16.5891   23.1832 C   0  0  1  0  0  0  0  0  0  0  0  0
   18.2050  -16.1892   24.4532 C   0  0  0  0  0  0  0  0  0  0  0  0
   19.3872  -15.3849   24.6744 C   0  0  0  0  0  0  0  0  0  0  0  0
   19.8849  -14.8587   25.9285 C   0  0  0  0  0  0  0  0  0  0  0  0
   21.0493  -14.0094   26.1163 C   0  0  0  0  0  0  0  0  0  0  0  0
   21.2884  -13.5908   27.4847 N   0  0  0  0  0  0  0  0  0  0  0  0
   18.2788  -17.4708   22.2389 C   0  0  0  0  0  0  0  0  0  0  0  0
   17.8778  -18.6969   22.2094 O   0  0  0  0  0  0  0  0  0  0  0  0
   19.2684  -17.1940   21.3201 O   0  0  0  0  0  0  0  0  0  0  0  0
  2 12  2  0
  2  1  1  0
  3  2  1  0
  4  5  1  0
  4  3  2  0
  5 11  2  0
  6  5  1  0
  7  9  1  0
  7  6  1  0
  7  8  1  1
  9 10  2  0
 11 12  1  0
 14 13  1  1
 14 15  1  0
 16 14  1  0
 16 17  1  6
 17  9  1  0
 18 16  1  0
 19 18  2  0
 20 18  1  0
 21 20  1  0
 21 22  1  1
 23 22  1  0
 24 25  1  0
 24 23  1  0
 26 25  1  0
 27 21  1  0
 27 29  1  0
 28 27  2  0
M  END
$$$$
