YTK.pdb
     RDKit          3D

 29 29  0  0  1  0  0  0  0  0999 V2000
    7.6508  -12.5514   16.4700 O   0  0  0  0  0  0  0  0  0  0  0  0
    7.8302  -13.2367   17.6644 C   0  0  0  0  0  0  0  0  0  0  0  0
    6.9086  -13.2691   18.6742 C   0  0  0  0  0  0  0  0  0  0  0  0
    7.1012  -13.9539   19.8542 C   0  0  0  0  0  0  0  0  0  0  0  0
    8.2822  -14.6574   20.0587 C   0  0  0  0  0  0  0  0  0  0  0  0
    8.5300  -15.4069   21.3118 C   0  0  0  0  0  0  0  0  0  0  0  0
    9.1327  -16.7775   21.0270 C   0  0  2  0  0  0  0  0  0  0  0  0
    8.1884  -17.5254   20.2574 N   0  0  0  0  0  0  0  0  0  0  0  0
    9.4266  -17.4626   22.2975 C   0  0  0  0  0  0  0  0  0  0  0  0
    8.4729  -18.0013   22.9549 O   0  0  0  0  0  0  0  0  0  0  0  0
    9.2121  -14.6264   19.0434 C   0  0  0  0  0  0  0  0  0  0  0  0
    9.0188  -13.9415   17.8640 C   0  0  0  0  0  0  0  0  0  0  0  0
   12.0325  -20.0215   23.2025 C   0  0  0  0  0  0  0  0  0  0  0  0
   12.1565  -18.9249   24.2403 C   0  0  1  0  0  0  0  0  0  0  0  0
   13.2733  -18.1283   23.9046 O   0  0  0  0  0  0  0  0  0  0  0  0
   10.9542  -18.0502   24.2193 C   0  0  2  0  0  0  0  0  0  0  0  0
   10.7220  -17.5769   22.8687 N   0  0  0  0  0  0  0  0  0  0  0  0
   10.9476  -16.9591   25.1997 C   0  0  0  0  0  0  0  0  0  0  0  0
   11.3820  -15.8402   24.8178 O   0  0  0  0  0  0  0  0  0  0  0  0
   10.4904  -17.0949   26.5176 N   0  0  0  0  0  0  0  0  0  0  0  0
   10.4980  -15.8865   27.4722 C   0  0  1  0  0  0  0  0  0  0  0  0
    9.2689  -15.1968   27.1621 C   0  0  0  0  0  0  0  0  0  0  0  0
    8.8706  -13.8791   27.6075 C   0  0  0  0  0  0  0  0  0  0  0  0
    7.6374  -13.1764   27.3198 C   0  0  0  0  0  0  0  0  0  0  0  0
    7.2847  -11.8292   27.7357 C   0  0  0  0  0  0  0  0  0  0  0  0
    5.9653  -11.3867   27.3255 N   0  0  0  0  0  0  0  0  0  0  0  0
   10.8592  -16.4040   28.7637 C   0  0  0  0  0  0  0  0  0  0  0  0
   10.7249  -17.6729   28.9557 O   0  0  0  0  0  0  0  0  0  0  0  0
   11.3569  -15.7320   29.8594 O   0  0  0  0  0  0  0  0  0  0  0  0
  2 12  2  0
  2  1  1  0
  3  2  1  0
  4  5  1  0
  4  3  2  0
  5 11  2  0
  6  5  1  0
  7  9  1  0
  7  6  1  0
  7  8  1  6
  9 10  2  0
 11 12  1  0
 14 13  1  6
 14 15  1  0
 16 14  1  0
 16 17  1  6
 17  9  1  0
 18 16  1  0
 19 18  2  0
 20 18  1  0
 21 20  1  0
 21 22  1  1
 23 22  1  0
 24 25  1  0
 24 23  1  0
 26 25  1  0
 27 21  1  0
 27 29  1  0
 28 27  2  0
M  END
$$$$
