YTK.pdb
     RDKit          3D

 29 29  0  0  1  0  0  0  0  0999 V2000
    5.1968   -9.8916   27.3189 O   0  0  0  0  0  0  0  0  0  0  0  0
    5.8575  -11.0478   26.9247 C   0  0  0  0  0  0  0  0  0  0  0  0
    5.9969  -12.1563   27.7132 C   0  0  0  0  0  0  0  0  0  0  0  0
    6.6556  -13.2966   27.3078 C   0  0  0  0  0  0  0  0  0  0  0  0
    7.2179  -13.3539   26.0381 C   0  0  0  0  0  0  0  0  0  0  0  0
    7.9341  -14.5597   25.5622 C   0  0  0  0  0  0  0  0  0  0  0  0
    7.0287  -15.4410   24.7100 C   0  0  2  0  0  0  0  0  0  0  0  0
    6.2875  -16.2929   25.5865 N   0  0  0  0  0  0  0  0  0  0  0  0
    7.8469  -16.2380   23.7797 C   0  0  0  0  0  0  0  0  0  0  0  0
    8.1668  -17.4344   24.0929 O   0  0  0  0  0  0  0  0  0  0  0  0
    7.0790  -12.2389   25.2419 C   0  0  0  0  0  0  0  0  0  0  0  0
    6.4203  -11.0993   25.6481 C   0  0  0  0  0  0  0  0  0  0  0  0
    7.7509  -15.5709   19.9204 C   0  0  0  0  0  0  0  0  0  0  0  0
    9.1577  -15.9965   20.2875 C   0  0  1  0  0  0  0  0  0  0  0  0
    9.9815  -14.8495   20.2684 O   0  0  0  0  0  0  0  0  0  0  0  0
    9.1899  -16.5538   21.6658 C   0  0  2  0  0  0  0  0  0  0  0  0
    8.3234  -15.7715   22.5257 N   0  0  0  0  0  0  0  0  0  0  0  0
   10.5256  -16.7392   22.2430 C   0  0  0  0  0  0  0  0  0  0  0  0
   10.9365  -15.8532   23.0383 O   0  0  0  0  0  0  0  0  0  0  0  0
   11.3546  -17.8333   21.9599 N   0  0  0  0  0  0  0  0  0  0  0  0
   12.7455  -17.9446   22.6114 C   0  0  1  0  0  0  0  0  0  0  0  0
   12.8692  -19.3493   22.9177 C   0  0  0  0  0  0  0  0  0  0  0  0
   13.5732  -19.9409   24.0348 C   0  0  0  0  0  0  0  0  0  0  0  0
   13.0103  -20.5176   25.2381 C   0  0  0  0  0  0  0  0  0  0  0  0
   13.7355  -21.1849   26.3063 C   0  0  0  0  0  0  0  0  0  0  0  0
   12.9052  -21.7262   27.3658 N   0  0  0  0  0  0  0  0  0  0  0  0
   13.6380  -17.1942   21.7709 C   0  0  0  0  0  0  0  0  0  0  0  0
   14.7472  -16.7895   22.2914 O   0  0  0  0  0  0  0  0  0  0  0  0
   13.4917  -16.8416   20.4464 O   0  0  0  0  0  0  0  0  0  0  0  0
  2 12  2  0
  2  1  1  0
  3  2  1  0
  4  5  1  0
  4  3  2  0
  5 11  2  0
  6  5  1  0
  7  9  1  0
  7  6  1  0
  7  8  1  1
  9 10  2  0
 11 12  1  0
 14 13  1  1
 14 15  1  0
 16 14  1  0
 16 17  1  1
 17  9  1  0
 18 16  1  0
 19 18  2  0
 20 18  1  0
 21 20  1  0
 21 22  1  6
 23 22  1  0
 24 25  1  0
 24 23  1  0
 26 25  1  0
 27 21  1  0
 27 29  1  0
 28 27  2  0
M  END
$$$$
