YTK.pdb
     RDKit          3D

 29 29  0  0  1  0  0  0  0  0999 V2000
    5.1105  -10.5672   27.5118 O   0  0  0  0  0  0  0  0  0  0  0  0
    5.8466  -11.6451   27.0374 C   0  0  0  0  0  0  0  0  0  0  0  0
    6.0068  -12.8209   27.7170 C   0  0  0  0  0  0  0  0  0  0  0  0
    6.7406  -13.8819   27.2331 C   0  0  0  0  0  0  0  0  0  0  0  0
    7.3619  -13.7828   25.9939 C   0  0  0  0  0  0  0  0  0  0  0  0
    8.1596  -14.8991   25.4362 C   0  0  0  0  0  0  0  0  0  0  0  0
    7.3791  -15.6585   24.3700 C   0  0  2  0  0  0  0  0  0  0  0  0
    6.3309  -16.3817   25.0193 N   0  0  0  0  0  0  0  0  0  0  0  0
    8.2818  -16.5793   23.6576 C   0  0  0  0  0  0  0  0  0  0  0  0
    8.4125  -17.7789   24.0767 O   0  0  0  0  0  0  0  0  0  0  0  0
    7.2022  -12.5998   25.3073 C   0  0  0  0  0  0  0  0  0  0  0  0
    6.4684  -11.5395   25.7919 C   0  0  0  0  0  0  0  0  0  0  0  0
    8.9589  -16.5662   19.7972 C   0  0  0  0  0  0  0  0  0  0  0  0
   10.2822  -16.7299   20.5164 C   0  0  1  0  0  0  0  0  0  0  0  0
   10.9512  -15.4863   20.4914 O   0  0  0  0  0  0  0  0  0  0  0  0
   10.0588  -17.0949   21.9405 C   0  0  2  0  0  0  0  0  0  0  0  0
    9.0413  -16.2324   22.5086 N   0  0  0  0  0  0  0  0  0  0  0  0
   11.2638  -17.1576   22.7747 C   0  0  0  0  0  0  0  0  0  0  0  0
   11.5271  -16.1487   23.4813 O   0  0  0  0  0  0  0  0  0  0  0  0
   12.1228  -18.2638   22.8256 N   0  0  0  0  0  0  0  0  0  0  0  0
   13.3999  -18.2183   23.6849 C   0  0  1  0  0  0  0  0  0  0  0  0
   13.4269  -19.5102   24.3275 C   0  0  0  0  0  0  0  0  0  0  0  0
   14.4028  -19.9907   25.2816 C   0  0  0  0  0  0  0  0  0  0  0  0
   14.3803  -21.2294   26.0317 C   0  0  0  0  0  0  0  0  0  0  0  0
   15.3289  -21.6488   27.0498 C   0  0  0  0  0  0  0  0  0  0  0  0
   14.9390  -22.8258   27.8032 N   0  0  0  0  0  0  0  0  0  0  0  0
   14.4313  -17.6899   22.8345 C   0  0  0  0  0  0  0  0  0  0  0  0
   14.2425  -17.7531   21.5596 O   0  0  0  0  0  0  0  0  0  0  0  0
   15.6236  -17.0936   23.1846 O   0  0  0  0  0  0  0  0  0  0  0  0
  2 12  2  0
  2  1  1  0
  3  2  1  0
  4  5  1  0
  4  3  2  0
  5 11  2  0
  6  5  1  0
  7  9  1  0
  7  6  1  0
  7  8  1  1
  9 10  2  0
 11 12  1  0
 14 13  1  6
 14 15  1  0
 16 14  1  0
 16 17  1  1
 17  9  1  0
 18 16  1  0
 19 18  2  0
 20 18  1  0
 21 20  1  0
 21 22  1  6
 23 22  1  0
 24 25  1  0
 24 23  1  0
 26 25  1  0
 27 21  1  0
 27 29  1  0
 28 27  2  0
M  END
$$$$
