YTK.pdb
     RDKit          3D

 29 29  0  0  1  0  0  0  0  0999 V2000
    5.2143  -10.9600   28.6532 O   0  0  0  0  0  0  0  0  0  0  0  0
    5.8395  -11.7290   27.6805 C   0  0  0  0  0  0  0  0  0  0  0  0
    5.2459  -12.1132   26.5100 C   0  0  0  0  0  0  0  0  0  0  0  0
    5.8795  -12.8768   25.5540 C   0  0  0  0  0  0  0  0  0  0  0  0
    7.1892  -13.2935   25.7606 C   0  0  0  0  0  0  0  0  0  0  0  0
    7.9075  -14.1149   24.7593 C   0  0  0  0  0  0  0  0  0  0  0  0
    7.0555  -15.2895   24.2930 C   0  0  2  0  0  0  0  0  0  0  0  0
    6.6702  -16.0422   25.4455 N   0  0  0  0  0  0  0  0  0  0  0  0
    7.8327  -16.1257   23.3620 C   0  0  0  0  0  0  0  0  0  0  0  0
    7.2599  -17.1001   22.7667 O   0  0  0  0  0  0  0  0  0  0  0  0
    7.7894  -12.9080   26.9386 C   0  0  0  0  0  0  0  0  0  0  0  0
    7.1552  -12.1446   27.8938 C   0  0  0  0  0  0  0  0  0  0  0  0
    7.5964  -16.3336   20.9106 C   0  0  0  0  0  0  0  0  0  0  0  0
    9.0799  -16.1361   20.6758 C   0  0  1  0  0  0  0  0  0  0  0  0
    9.3038  -14.7661   20.4158 O   0  0  0  0  0  0  0  0  0  0  0  0
    9.8523  -16.4976   21.8940 C   0  0  2  0  0  0  0  0  0  0  0  0
    9.2075  -15.9318   23.0628 N   0  0  0  0  0  0  0  0  0  0  0  0
   11.2865  -16.1932   21.8480 C   0  0  0  0  0  0  0  0  0  0  0  0
   11.6138  -14.9853   21.7061 O   0  0  0  0  0  0  0  0  0  0  0  0
   12.2948  -17.1611   21.9524 N   0  0  0  0  0  0  0  0  0  0  0  0
   13.4557  -16.9712   22.9462 C   0  0  1  0  0  0  0  0  0  0  0  0
   13.1557  -17.9035   24.0061 C   0  0  0  0  0  0  0  0  0  0  0  0
   12.2809  -17.6870   25.1380 C   0  0  0  0  0  0  0  0  0  0  0  0
   11.9662  -18.6086   26.2099 C   0  0  0  0  0  0  0  0  0  0  0  0
   11.0512  -18.3795   27.3156 C   0  0  0  0  0  0  0  0  0  0  0  0
   10.9906  -19.4501   28.2929 N   0  0  0  0  0  0  0  0  0  0  0  0
   14.6568  -16.9669   22.1565 C   0  0  0  0  0  0  0  0  0  0  0  0
   14.6241  -17.5758   21.0194 O   0  0  0  0  0  0  0  0  0  0  0  0
   15.8735  -16.3803   22.4310 O   0  0  0  0  0  0  0  0  0  0  0  0
  2 12  2  0
  2  1  1  0
  3  2  1  0
  4  5  1  0
  4  3  2  0
  5 11  2  0
  6  5  1  0
  7  9  1  0
  7  6  1  0
  7  8  1  1
  9 10  2  0
 11 12  1  0
 14 13  1  1
 14 15  1  0
 16 14  1  0
 16 17  1  1
 17  9  1  0
 18 16  1  0
 19 18  2  0
 20 18  1  0
 21 20  1  0
 21 22  1  1
 23 22  1  0
 24 25  1  0
 24 23  1  0
 26 25  1  0
 27 21  1  0
 27 29  1  0
 28 27  2  0
M  END
$$$$
