YTK.pdb
     RDKit          3D

 29 29  0  0  1  0  0  0  0  0999 V2000
    9.6784  -17.4833   27.9240 O   0  0  0  0  0  0  0  0  0  0  0  0
    8.7231  -17.2239   26.9500 C   0  0  0  0  0  0  0  0  0  0  0  0
    8.7114  -16.1012   26.1693 C   0  0  0  0  0  0  0  0  0  0  0  0
    7.7563  -15.8578   25.2065 C   0  0  0  0  0  0  0  0  0  0  0  0
    6.7398  -16.7814   24.9941 C   0  0  0  0  0  0  0  0  0  0  0  0
    5.6935  -16.5595   23.9697 C   0  0  0  0  0  0  0  0  0  0  0  0
    5.7886  -17.5884   22.8494 C   0  0  2  0  0  0  0  0  0  0  0  0
    5.8959  -18.8833   23.4452 N   0  0  0  0  0  0  0  0  0  0  0  0
    6.9669  -17.3019   22.0130 C   0  0  0  0  0  0  0  0  0  0  0  0
    7.0337  -17.7912   20.8349 O   0  0  0  0  0  0  0  0  0  0  0  0
    6.7492  -17.9129   25.7790 C   0  0  0  0  0  0  0  0  0  0  0  0
    7.7045  -18.1556   26.7413 C   0  0  0  0  0  0  0  0  0  0  0  0
    7.3880  -16.2077   19.7782 C   0  0  0  0  0  0  0  0  0  0  0  0
    8.5447  -15.4070   20.3405 C   0  0  1  0  0  0  0  0  0  0  0  0
    8.0440  -14.1601   20.7752 O   0  0  0  0  0  0  0  0  0  0  0  0
    9.1295  -16.0963   21.5212 C   0  0  2  0  0  0  0  0  0  0  0  0
    8.0676  -16.5024   22.4210 N   0  0  0  0  0  0  0  0  0  0  0  0
   10.1979  -15.3686   22.2145 C   0  0  0  0  0  0  0  0  0  0  0  0
    9.8500  -14.4514   23.0046 O   0  0  0  0  0  0  0  0  0  0  0  0
   11.5631  -15.6367   22.0461 N   0  0  0  0  0  0  0  0  0  0  0  0
   12.4585  -15.9118   23.2684 C   0  0  1  0  0  0  0  0  0  0  0  0
   11.7740  -16.9759   23.9624 C   0  0  0  0  0  0  0  0  0  0  0  0
   12.0349  -18.3953   23.8594 C   0  0  0  0  0  0  0  0  0  0  0  0
   11.4469  -19.4678   24.6349 C   0  0  0  0  0  0  0  0  0  0  0  0
   11.5586  -20.8934   24.3752 C   0  0  0  0  0  0  0  0  0  0  0  0
   11.4611  -21.7398   25.5496 N   0  0  0  0  0  0  0  0  0  0  0  0
   13.8044  -15.9754   22.7675 C   0  0  0  0  0  0  0  0  0  0  0  0
   13.9608  -16.2076   21.5079 O   0  0  0  0  0  0  0  0  0  0  0  0
   14.9918  -15.8063   23.4467 O   0  0  0  0  0  0  0  0  0  0  0  0
  2 12  2  0
  2  1  1  0
  3  2  1  0
  4  5  1  0
  4  3  2  0
  5 11  2  0
  6  5  1  0
  7  9  1  0
  7  6  1  0
  7  8  1  1
  9 10  2  0
 11 12  1  0
 14 13  1  1
 14 15  1  0
 16 14  1  0
 16 17  1  1
 17  9  1  0
 18 16  1  0
 19 18  2  0
 20 18  1  0
 21 20  1  0
 21 22  1  6
 23 22  1  0
 24 25  1  0
 24 23  1  0
 26 25  1  0
 27 21  1  0
 27 29  1  0
 28 27  2  0
M  END
$$$$
