YTK.pdb
     RDKit          3D

 29 29  0  0  1  0  0  0  0  0999 V2000
    4.8215  -10.6299   28.3810 O   0  0  0  0  0  0  0  0  0  0  0  0
    5.5761  -11.5009   27.6060 C   0  0  0  0  0  0  0  0  0  0  0  0
    6.6255  -12.2365   28.0830 C   0  0  0  0  0  0  0  0  0  0  0  0
    7.3652  -13.0969   27.3013 C   0  0  0  0  0  0  0  0  0  0  0  0
    7.0534  -13.2466   25.9552 C   0  0  0  0  0  0  0  0  0  0  0  0
    7.8221  -14.1605   25.0793 C   0  0  0  0  0  0  0  0  0  0  0  0
    6.9269  -15.2419   24.4860 C   0  0  2  0  0  0  0  0  0  0  0  0
    6.5104  -16.1037   25.5476 N   0  0  0  0  0  0  0  0  0  0  0  0
    7.6736  -15.9977   23.4656 C   0  0  0  0  0  0  0  0  0  0  0  0
    8.1401  -17.1510   23.7557 O   0  0  0  0  0  0  0  0  0  0  0  0
    5.9970  -12.5069   25.4721 C   0  0  0  0  0  0  0  0  0  0  0  0
    5.2580  -11.6470   26.2544 C   0  0  0  0  0  0  0  0  0  0  0  0
    9.3979  -16.4153   18.8189 C   0  0  0  0  0  0  0  0  0  0  0  0
    8.6261  -15.6223   19.8535 C   0  0  1  0  0  0  0  0  0  0  0  0
    7.2647  -15.6201   19.4777 O   0  0  0  0  0  0  0  0  0  0  0  0
    8.7262  -16.2713   21.1876 C   0  0  2  0  0  0  0  0  0  0  0  0
    7.9248  -15.5358   22.1462 N   0  0  0  0  0  0  0  0  0  0  0  0
   10.0889  -16.5148   21.6728 C   0  0  0  0  0  0  0  0  0  0  0  0
   10.6767  -15.5569   22.2415 O   0  0  0  0  0  0  0  0  0  0  0  0
   10.7596  -17.7381   21.5386 N   0  0  0  0  0  0  0  0  0  0  0  0
   12.1654  -17.9246   22.1388 C   0  0  1  0  0  0  0  0  0  0  0  0
   12.0447  -19.1268   22.9278 C   0  0  0  0  0  0  0  0  0  0  0  0
   12.9320  -19.5740   23.9795 C   0  0  0  0  0  0  0  0  0  0  0  0
   12.7996  -19.3638   25.4063 C   0  0  0  0  0  0  0  0  0  0  0  0
   13.7045  -19.8303   26.4435 C   0  0  0  0  0  0  0  0  0  0  0  0
   13.3382  -21.0949   27.0531 N   0  0  0  0  0  0  0  0  0  0  0  0
   13.0885  -17.7298   21.0543 C   0  0  0  0  0  0  0  0  0  0  0  0
   14.3057  -17.4253   21.3555 O   0  0  0  0  0  0  0  0  0  0  0  0
   12.8683  -17.8363   19.6978 O   0  0  0  0  0  0  0  0  0  0  0  0
  2 12  2  0
  2  1  1  0
  3  2  1  0
  4  5  1  0
  4  3  2  0
  5 11  2  0
  6  5  1  0
  7  9  1  0
  7  6  1  0
  7  8  1  1
  9 10  2  0
 11 12  1  0
 14 13  1  6
 14 15  1  0
 16 14  1  0
 16 17  1  1
 17  9  1  0
 18 16  1  0
 19 18  2  0
 20 18  1  0
 21 20  1  0
 21 22  1  6
 23 22  1  0
 24 25  1  0
 24 23  1  0
 26 25  1  0
 27 21  1  0
 27 29  1  0
 28 27  2  0
M  END
$$$$
