YTK.pdb
     RDKit          3D

 29 29  0  0  1  0  0  0  0  0999 V2000
   14.3286  -14.5012   21.1931 O   0  0  0  0  0  0  0  0  0  0  0  0
   13.1649  -14.2465   20.4793 C   0  0  0  0  0  0  0  0  0  0  0  0
   11.9443  -14.0311   21.0570 C   0  0  0  0  0  0  0  0  0  0  0  0
   10.7981  -13.7794   20.3350 C   0  0  0  0  0  0  0  0  0  0  0  0
   10.8527  -13.7359   18.9470 C   0  0  0  0  0  0  0  0  0  0  0  0
    9.6449  -13.4684   18.1326 C   0  0  0  0  0  0  0  0  0  0  0  0
    8.9953  -14.7648   17.6636 C   0  0  2  0  0  0  0  0  0  0  0  0
    7.8057  -14.4295   16.9453 N   0  0  0  0  0  0  0  0  0  0  0  0
    8.6786  -15.6094   18.8282 C   0  0  0  0  0  0  0  0  0  0  0  0
    7.6902  -15.3009   19.5764 O   0  0  0  0  0  0  0  0  0  0  0  0
   12.0807  -13.9525   18.3626 C   0  0  0  0  0  0  0  0  0  0  0  0
   13.2262  -14.2040   19.0851 C   0  0  0  0  0  0  0  0  0  0  0  0
    7.4200  -18.8232   19.2270 C   0  0  0  0  0  0  0  0  0  0  0  0
    8.6764  -18.8866   20.0710 C   0  0  1  0  0  0  0  0  0  0  0  0
    9.6888  -19.5041   19.3040 O   0  0  0  0  0  0  0  0  0  0  0  0
    9.1416  -17.5169   20.4154 C   0  0  2  0  0  0  0  0  0  0  0  0
    9.4035  -16.7732   19.1987 N   0  0  0  0  0  0  0  0  0  0  0  0
   10.2605  -17.4472   21.3614 C   0  0  0  0  0  0  0  0  0  0  0  0
   11.4082  -17.2505   20.8812 O   0  0  0  0  0  0  0  0  0  0  0  0
   10.1208  -17.5857   22.7491 N   0  0  0  0  0  0  0  0  0  0  0  0
   11.3610  -17.5659   23.6617 C   0  0  1  0  0  0  0  0  0  0  0  0
   10.8063  -17.5378   24.9936 C   0  0  0  0  0  0  0  0  0  0  0  0
   11.5263  -17.6625   26.2424 C   0  0  0  0  0  0  0  0  0  0  0  0
   10.9856  -17.6674   27.5859 C   0  0  0  0  0  0  0  0  0  0  0  0
   11.7377  -17.7356   28.8276 C   0  0  0  0  0  0  0  0  0  0  0  0
   10.9297  -17.8127   30.0302 N   0  0  0  0  0  0  0  0  0  0  0  0
   12.2461  -18.5763   23.1498 C   0  0  0  0  0  0  0  0  0  0  0  0
   13.4987  -18.2802   23.0585 O   0  0  0  0  0  0  0  0  0  0  0  0
   11.9537  -19.8599   22.7416 O   0  0  0  0  0  0  0  0  0  0  0  0
  2 12  2  0
  2  1  1  0
  3  2  1  0
  4  5  1  0
  4  3  2  0
  5 11  2  0
  6  5  1  0
  7  9  1  0
  7  6  1  0
  7  8  1  1
  9 10  2  0
 11 12  1  0
 14 13  1  6
 14 15  1  0
 16 14  1  0
 16 17  1  6
 17  9  1  0
 18 16  1  0
 19 18  2  0
 20 18  1  0
 21 20  1  0
 21 22  1  1
 23 22  1  0
 24 25  1  0
 24 23  1  0
 26 25  1  0
 27 21  1  0
 27 29  1  0
 28 27  2  0
M  END
$$$$
