YTK.pdb
     RDKit          3D

 29 29  0  0  1  0  0  0  0  0999 V2000
    8.2846  -12.4874   25.3866 O   0  0  0  0  0  0  0  0  0  0  0  0
    7.8485  -13.1290   24.2347 C   0  0  0  0  0  0  0  0  0  0  0  0
    8.1527  -12.7165   22.9670 C   0  0  0  0  0  0  0  0  0  0  0  0
    7.7122  -13.3638   21.8332 C   0  0  0  0  0  0  0  0  0  0  0  0
    6.9163  -14.4971   21.9512 C   0  0  0  0  0  0  0  0  0  0  0  0
    6.4216  -15.2233   20.7590 C   0  0  0  0  0  0  0  0  0  0  0  0
    7.5749  -15.7184   19.8944 C   0  0  2  0  0  0  0  0  0  0  0  0
    7.0245  -16.4694   18.8098 N   0  0  0  0  0  0  0  0  0  0  0  0
    8.4753  -16.5578   20.7036 C   0  0  0  0  0  0  0  0  0  0  0  0
    8.0160  -17.6085   21.2665 O   0  0  0  0  0  0  0  0  0  0  0  0
    6.6084  -14.9147   23.2268 C   0  0  0  0  0  0  0  0  0  0  0  0
    7.0492  -14.2669   24.3597 C   0  0  0  0  0  0  0  0  0  0  0  0
   11.3187  -18.3284   19.5655 C   0  0  0  0  0  0  0  0  0  0  0  0
   11.8502  -17.6104   20.7891 C   0  0  1  0  0  0  0  0  0  0  0  0
   12.5377  -16.4556   20.3552 O   0  0  0  0  0  0  0  0  0  0  0  0
   10.7295  -17.1690   21.6611 C   0  0  2  0  0  0  0  0  0  0  0  0
    9.8533  -16.2866   20.9156 N   0  0  0  0  0  0  0  0  0  0  0  0
   11.1204  -16.6007   22.9557 C   0  0  0  0  0  0  0  0  0  0  0  0
   11.1675  -15.3450   23.0419 O   0  0  0  0  0  0  0  0  0  0  0  0
   11.4388  -17.3700   24.0831 N   0  0  0  0  0  0  0  0  0  0  0  0
   12.0048  -16.6990   25.3483 C   0  0  1  0  0  0  0  0  0  0  0  0
   11.0019  -16.9599   26.3527 C   0  0  0  0  0  0  0  0  0  0  0  0
   11.1344  -16.7912   27.7836 C   0  0  0  0  0  0  0  0  0  0  0  0
   10.4888  -15.8078   28.6283 C   0  0  0  0  0  0  0  0  0  0  0  0
   10.6333  -15.6659   30.0675 C   0  0  0  0  0  0  0  0  0  0  0  0
   10.7481  -16.9142   30.7979 N   0  0  0  0  0  0  0  0  0  0  0  0
   13.3836  -17.0979   25.4255 C   0  0  0  0  0  0  0  0  0  0  0  0
   14.1985  -16.3087   26.0404 O   0  0  0  0  0  0  0  0  0  0  0  0
   13.9852  -18.2389   24.9395 O   0  0  0  0  0  0  0  0  0  0  0  0
  2 12  2  0
  2  1  1  0
  3  2  1  0
  4  5  1  0
  4  3  2  0
  5 11  2  0
  6  5  1  0
  7  9  1  0
  7  6  1  0
  7  8  1  6
  9 10  2  0
 11 12  1  0
 14 13  1  6
 14 15  1  0
 16 14  1  0
 16 17  1  6
 17  9  1  0
 18 16  1  0
 19 18  2  0
 20 18  1  0
 21 20  1  0
 21 22  1  1
 23 22  1  0
 24 25  1  0
 24 23  1  0
 26 25  1  0
 27 21  1  0
 27 29  1  0
 28 27  2  0
M  END
$$$$
