RFH.pdb
     RDKit          3D

 33 34  0  0  1  0  0  0  0  0999 V2000
   27.7936  -35.0480   -5.3902 N   0  0  0  0  0  0  0  0  0  0  0  0
   28.9812  -34.9514   -6.1416 C   0  0  0  0  0  0  0  0  0  0  0  0
   28.8916  -34.8011   -7.4234 N   0  0  0  0  0  0  0  0  0  0  0  0
   30.2200  -35.0240   -5.4638 N   0  0  0  0  0  0  0  0  0  0  0  0
   30.2512  -35.2601   -4.0576 C   0  0  0  0  0  0  0  0  0  0  0  0
   31.6780  -35.3540   -3.5064 C   0  0  0  0  0  0  0  0  0  0  0  0
   31.5328  -35.5061   -2.0052 C   0  0  0  0  0  0  0  0  0  0  0  0
   32.8804  -35.5834   -1.3204 C   0  0  2  0  0  0  0  0  0  0  0  0
   33.3448  -36.9336   -1.2441 N   0  0  0  0  0  0  0  0  0  0  0  0
   32.6785  -35.0625    0.0661 C   0  0  0  0  0  0  0  0  0  0  0  0
   32.1952  -35.8153    0.9476 O   0  0  0  0  0  0  0  0  0  0  0  0
   29.7281  -34.7466   -8.0095 N   0  0  0  0  0  0  0  0  0  0  0  0
   33.0207  -33.7242    0.4234 C   0  0  2  0  0  0  0  0  0  0  0  0
   32.8915  -33.1580    1.7275 C   0  0  0  0  0  0  0  0  0  0  0  0
   33.7857  -31.9625    2.0045 C   0  0  0  0  0  0  0  0  0  0  0  0
   33.6779  -31.4700    3.3982 C   0  0  0  0  0  0  0  0  0  0  0  0
   32.9770  -30.2723    3.6295 C   0  0  0  0  0  0  0  0  0  0  0  0
   32.8249  -29.7260    4.8768 C   0  0  0  0  0  0  0  0  0  0  0  0
   33.3758  -30.3642    5.9607 C   0  0  0  0  0  0  0  0  0  0  0  0
   34.0621  -31.5243    5.7840 C   0  0  0  0  0  0  0  0  0  0  0  0
   34.2061  -32.0625    4.5147 C   0  0  0  0  0  0  0  0  0  0  0  0
   31.5157  -33.0126    2.2113 O   0  0  0  0  0  0  0  0  0  0  0  0
   30.6514  -32.3674    1.5161 N   0  0  0  0  0  0  0  0  0  0  0  0
   31.0222  -33.5365    3.4233 C   0  0  1  0  0  0  0  0  0  0  0  0
   29.6218  -33.3032    3.8509 C   0  0  0  0  0  0  0  0  0  0  0  0
   29.2659  -34.5227    4.6543 C   0  0  0  0  0  0  0  0  0  0  0  0
   28.8180  -35.6778    3.8821 C   0  0  0  0  0  0  0  0  0  0  0  0
   28.7108  -35.6135    2.4898 N   0  0  0  0  0  0  0  0  0  0  0  0
   28.2815  -36.7990    2.0494 C   0  0  0  0  0  0  0  0  0  0  0  0
   28.1291  -37.5709    3.1421 N   0  0  0  0  0  0  0  0  0  0  0  0
   28.4507  -36.8996    4.2431 C   0  0  0  0  0  0  0  0  0  0  0  0
   29.5347  -32.0367    4.6001 O   0  0  0  0  0  0  0  0  0  0  0  0
   30.5944  -31.6074    5.4230 O   0  0  0  0  0  0  0  0  0  0  0  0
  2  4  1  0
  2  1  1  0
  3  2  2  0
  5  4  1  0
  6  5  1  0
  7  6  1  0
  8  7  1  0
  8  9  1  1
 10  8  1  0
 10 12  1  0
 11 10  2  0
 13 12  1  0
 13 14  1  6
 15 14  1  0
 15 16  2  0
 17 16  1  0
 18 17  2  0
 19 20  2  0
 19 18  1  0
 20 15  1  0
 21 13  1  0
 21 22  2  0
 23 24  1  0
 23 21  1  0
 24 25  1  1
 25 26  1  0
 26 30  1  0
 27 28  1  0
 27 26  2  0
 28 29  1  0
 29 30  2  0
 31 24  1  0
 32 31  1  0
 33 31  2  0
M  END
$$$$
