RFH.pdb
     RDKit          3D

 33 34  0  0  1  0  0  0  0  0999 V2000
   30.1733  -22.6986  -18.3904 N   0  0  0  0  0  0  0  0  0  0  0  0
   29.5297  -22.7129  -19.6433 C   0  0  0  0  0  0  0  0  0  0  0  0
   30.1399  -23.2569  -20.6459 N   0  0  0  0  0  0  0  0  0  0  0  0
   28.2454  -22.1314  -19.7525 N   0  0  0  0  0  0  0  0  0  0  0  0
   27.3612  -22.1391  -18.6334 C   0  0  0  0  0  0  0  0  0  0  0  0
   26.0357  -22.8471  -18.9333 C   0  0  0  0  0  0  0  0  0  0  0  0
   25.1842  -22.6757  -17.6910 C   0  0  0  0  0  0  0  0  0  0  0  0
   25.9715  -22.9677  -16.4317 C   0  0  2  0  0  0  0  0  0  0  0  0
   26.4696  -24.3080  -16.4325 N   0  0  0  0  0  0  0  0  0  0  0  0
   25.0174  -22.8072  -15.2922 C   0  0  0  0  0  0  0  0  0  0  0  0
   24.2096  -23.7308  -15.0244 O   0  0  0  0  0  0  0  0  0  0  0  0
   29.7553  -23.2029  -21.5921 N   0  0  0  0  0  0  0  0  0  0  0  0
   24.9951  -21.6266  -14.4912 C   0  0  1  0  0  0  0  0  0  0  0  0
   24.1248  -21.3955  -13.3834 C   0  0  0  0  0  0  0  0  0  0  0  0
   24.6275  -20.3865  -12.3662 C   0  0  0  0  0  0  0  0  0  0  0  0
   23.7872  -20.3265  -11.1468 C   0  0  0  0  0  0  0  0  0  0  0  0
   22.6362  -19.5178  -11.1698 C   0  0  0  0  0  0  0  0  0  0  0  0
   21.7958  -19.3857  -10.0956 C   0  0  0  0  0  0  0  0  0  0  0  0
   22.0758  -20.0669   -8.9368 C   0  0  0  0  0  0  0  0  0  0  0  0
   23.1779  -20.8600   -8.8693 C   0  0  0  0  0  0  0  0  0  0  0  0
   24.0171  -20.9817   -9.9660 C   0  0  0  0  0  0  0  0  0  0  0  0
   22.7053  -21.2608  -13.7224 O   0  0  0  0  0  0  0  0  0  0  0  0
   22.3303  -20.4089  -14.6059 N   0  0  0  0  0  0  0  0  0  0  0  0
   21.6591  -22.0101  -13.1472 C   0  0  1  0  0  0  0  0  0  0  0  0
   20.2419  -21.7518  -13.4984 C   0  0  0  0  0  0  0  0  0  0  0  0
   19.6871  -23.1058  -13.8423 C   0  0  0  0  0  0  0  0  0  0  0  0
   18.2671  -23.1383  -14.1798 C   0  0  0  0  0  0  0  0  0  0  0  0
   17.8445  -23.4161  -15.4830 N   0  0  0  0  0  0  0  0  0  0  0  0
   16.5097  -23.3787  -15.5054 C   0  0  0  0  0  0  0  0  0  0  0  0
   16.1227  -23.0859  -14.2493 N   0  0  0  0  0  0  0  0  0  0  0  0
   17.1763  -22.9412  -13.4523 C   0  0  0  0  0  0  0  0  0  0  0  0
   19.5632  -21.0866  -12.3717 O   0  0  0  0  0  0  0  0  0  0  0  0
   18.5884  -20.0947  -12.5967 O   0  0  0  0  0  0  0  0  0  0  0  0
  2  4  1  0
  2  1  1  0
  3  2  2  0
  5  4  1  0
  6  5  1  0
  7  6  1  0
  8  7  1  0
  8  9  1  6
 10  8  1  0
 10 12  1  0
 11 10  2  0
 13 12  1  0
 13 14  1  1
 15 14  1  0
 15 16  2  0
 17 16  1  0
 18 17  2  0
 19 20  2  0
 19 18  1  0
 20 15  1  0
 21 13  1  0
 21 22  2  0
 23 24  1  0
 23 21  1  0
 24 25  1  1
 25 26  1  0
 26 30  1  0
 27 28  1  0
 27 26  2  0
 28 29  1  0
 29 30  2  0
 31 24  1  0
 32 31  1  0
 33 31  2  0
M  END
$$$$
