RFH.pdb
     RDKit          3D

 33 34  0  0  1  0  0  0  0  0999 V2000
   27.5889  -21.4519  -21.4355 N   0  0  0  0  0  0  0  0  0  0  0  0
   27.9327  -22.7709  -21.0799 C   0  0  0  0  0  0  0  0  0  0  0  0
   28.5205  -23.5154  -21.9595 N   0  0  0  0  0  0  0  0  0  0  0  0
   27.6199  -23.2254  -19.7780 N   0  0  0  0  0  0  0  0  0  0  0  0
   27.0829  -22.3198  -18.8158 C   0  0  0  0  0  0  0  0  0  0  0  0
   28.1077  -21.9135  -17.7514 C   0  0  0  0  0  0  0  0  0  0  0  0
   27.6189  -22.5223  -16.4521 C   0  0  0  0  0  0  0  0  0  0  0  0
   26.3497  -21.8550  -15.9674 C   0  0  2  0  0  0  0  0  0  0  0  0
   26.2827  -20.4943  -16.4016 N   0  0  0  0  0  0  0  0  0  0  0  0
   26.4031  -21.8838  -14.4738 C   0  0  0  0  0  0  0  0  0  0  0  0
   26.4876  -22.9855  -13.8769 O   0  0  0  0  0  0  0  0  0  0  0  0
   28.7489  -24.4919  -21.7586 N   0  0  0  0  0  0  0  0  0  0  0  0
   26.3607  -20.6876  -13.6971 C   0  0  1  0  0  0  0  0  0  0  0  0
   26.3721  -20.6272  -12.2709 C   0  0  0  0  0  0  0  0  0  0  0  0
   27.3142  -19.5961  -11.6752 C   0  0  0  0  0  0  0  0  0  0  0  0
   27.3290  -19.6139  -10.1933 C   0  0  0  0  0  0  0  0  0  0  0  0
   28.1925  -20.5166   -9.5462 C   0  0  0  0  0  0  0  0  0  0  0  0
   28.2785  -20.6194   -8.1825 C   0  0  0  0  0  0  0  0  0  0  0  0
   27.4928  -19.8119   -7.3978 C   0  0  0  0  0  0  0  0  0  0  0  0
   26.6432  -18.9247   -7.9803 C   0  0  0  0  0  0  0  0  0  0  0  0
   26.5693  -18.8343   -9.3616 C   0  0  0  0  0  0  0  0  0  0  0  0
   25.0538  -20.6857  -11.6332 O   0  0  0  0  0  0  0  0  0  0  0  0
   24.0453  -20.1117  -12.1812 N   0  0  0  0  0  0  0  0  0  0  0  0
   24.7683  -21.3416  -10.4187 C   0  0  2  0  0  0  0  0  0  0  0  0
   23.3873  -21.4051   -9.8825 C   0  0  0  0  0  0  0  0  0  0  0  0
   23.5635  -21.7494   -8.4300 C   0  0  0  0  0  0  0  0  0  0  0  0
   22.3298  -21.9375   -7.6724 C   0  0  0  0  0  0  0  0  0  0  0  0
   21.0817  -21.7556   -8.2753 N   0  0  0  0  0  0  0  0  0  0  0  0
   20.1382  -21.9888   -7.3593 C   0  0  0  0  0  0  0  0  0  0  0  0
   20.7895  -22.3055   -6.2240 N   0  0  0  0  0  0  0  0  0  0  0  0
   22.1050  -22.2752   -6.4102 C   0  0  0  0  0  0  0  0  0  0  0  0
   22.7006  -20.1232  -10.1230 O   0  0  0  0  0  0  0  0  0  0  0  0
   21.3135  -20.0785  -10.3645 O   0  0  0  0  0  0  0  0  0  0  0  0
  2  4  1  0
  2  1  1  0
  3  2  2  0
  5  4  1  0
  6  5  1  0
  7  6  1  0
  8  7  1  0
  8  9  1  1
 10  8  1  0
 10 12  1  0
 11 10  2  0
 13 12  1  0
 13 14  1  1
 15 14  1  0
 15 16  2  0
 17 16  1  0
 18 17  2  0
 19 20  2  0
 19 18  1  0
 20 15  1  0
 21 13  1  0
 21 22  2  0
 23 24  1  0
 23 21  1  0
 24 25  1  1
 25 26  1  0
 26 30  1  0
 27 28  1  0
 27 26  2  0
 28 29  1  0
 29 30  2  0
 31 24  1  0
 32 31  1  0
 33 31  2  0
M  END
$$$$
