RFH.pdb
     RDKit          3D

 33 34  0  0  1  0  0  0  0  0999 V2000
   20.7279  -29.2640   -8.7893 N   0  0  0  0  0  0  0  0  0  0  0  0
   20.5421  -29.7214  -10.1086 C   0  0  0  0  0  0  0  0  0  0  0  0
   21.0709  -29.0467  -11.0774 N   0  0  0  0  0  0  0  0  0  0  0  0
   19.7849  -30.8970  -10.3181 N   0  0  0  0  0  0  0  0  0  0  0  0
   19.2813  -31.6296   -9.2028 C   0  0  0  0  0  0  0  0  0  0  0  0
   17.7523  -31.7318   -9.2057 C   0  0  0  0  0  0  0  0  0  0  0  0
   17.2857  -30.9951   -7.9658 C   0  0  0  0  0  0  0  0  0  0  0  0
   17.3045  -31.8906   -6.7457 C   0  0  2  0  0  0  0  0  0  0  0  0
   16.1359  -32.7127   -6.6899 N   0  0  0  0  0  0  0  0  0  0  0  0
   17.3146  -30.9834   -5.5578 C   0  0  0  0  0  0  0  0  0  0  0  0
   16.2311  -30.5267   -5.1164 O   0  0  0  0  0  0  0  0  0  0  0  0
   20.9691  -29.3481  -12.0494 N   0  0  0  0  0  0  0  0  0  0  0  0
   18.5279  -30.6162   -4.9028 C   0  0  2  0  0  0  0  0  0  0  0  0
   18.6326  -29.7134   -3.8019 C   0  0  0  0  0  0  0  0  0  0  0  0
   19.8863  -29.8650   -2.9588 C   0  0  0  0  0  0  0  0  0  0  0  0
   19.9019  -28.9682   -1.7789 C   0  0  0  0  0  0  0  0  0  0  0  0
   20.5657  -27.7328   -1.8896 C   0  0  0  0  0  0  0  0  0  0  0  0
   20.6461  -26.8342   -0.8583 C   0  0  0  0  0  0  0  0  0  0  0  0
   20.0575  -27.1385    0.3443 C   0  0  0  0  0  0  0  0  0  0  0  0
   19.4055  -28.3216    0.4966 C   0  0  0  0  0  0  0  0  0  0  0  0
   19.3341  -29.2188   -0.5577 C   0  0  0  0  0  0  0  0  0  0  0  0
   18.2616  -28.3262   -4.0949 O   0  0  0  0  0  0  0  0  0  0  0  0
   18.8763  -27.6733   -5.0129 N   0  0  0  0  0  0  0  0  0  0  0  0
   17.2470  -27.6014   -3.4374 C   0  0  1  0  0  0  0  0  0  0  0  0
   16.9009  -26.2179   -3.8430 C   0  0  0  0  0  0  0  0  0  0  0  0
   16.2349  -26.3740   -5.1815 C   0  0  0  0  0  0  0  0  0  0  0  0
   16.9941  -25.8775   -6.3252 C   0  0  0  0  0  0  0  0  0  0  0  0
   18.2657  -25.3216   -6.1569 N   0  0  0  0  0  0  0  0  0  0  0  0
   18.7219  -24.9532   -7.3568 C   0  0  0  0  0  0  0  0  0  0  0  0
   17.7563  -25.2743   -8.2387 N   0  0  0  0  0  0  0  0  0  0  0  0
   16.7185  -25.8293   -7.6212 C   0  0  0  0  0  0  0  0  0  0  0  0
   16.0515  -25.5948   -2.8119 O   0  0  0  0  0  0  0  0  0  0  0  0
   15.9880  -24.1942   -2.6750 O   0  0  0  0  0  0  0  0  0  0  0  0
  2  4  1  0
  2  1  1  0
  3  2  2  0
  5  4  1  0
  6  5  1  0
  7  6  1  0
  8  7  1  0
  8  9  1  1
 10  8  1  0
 10 12  1  0
 11 10  2  0
 13 12  1  0
 13 14  1  1
 15 14  1  0
 15 16  2  0
 17 16  1  0
 18 17  2  0
 19 20  2  0
 19 18  1  0
 20 15  1  0
 21 13  1  0
 21 22  2  0
 23 24  1  0
 23 21  1  0
 24 25  1  1
 25 26  1  0
 26 30  1  0
 27 28  1  0
 27 26  2  0
 28 29  1  0
 29 30  2  0
 31 24  1  0
 32 31  1  0
 33 31  2  0
M  END
$$$$
