RFH.pdb
     RDKit          3D

 33 34  0  0  1  0  0  0  0  0999 V2000
   23.5989  -19.4487  -17.6632 N   0  0  0  0  0  0  0  0  0  0  0  0
   22.7096  -20.1949  -16.8653 C   0  0  0  0  0  0  0  0  0  0  0  0
   21.8097  -20.9164  -17.4511 N   0  0  0  0  0  0  0  0  0  0  0  0
   22.8370  -20.1227  -15.4589 N   0  0  0  0  0  0  0  0  0  0  0  0
   23.8675  -19.3277  -14.8757 C   0  0  0  0  0  0  0  0  0  0  0  0
   25.1571  -20.1189  -14.6322 C   0  0  0  0  0  0  0  0  0  0  0  0
   25.1667  -20.4502  -13.1531 C   0  0  0  0  0  0  0  0  0  0  0  0
   26.4065  -21.2266  -12.7643 C   0  0  2  0  0  0  0  0  0  0  0  0
   26.4060  -22.5297  -13.3530 N   0  0  0  0  0  0  0  0  0  0  0  0
   26.3653  -21.3681  -11.2768 C   0  0  0  0  0  0  0  0  0  0  0  0
   25.6212  -22.2355  -10.7562 O   0  0  0  0  0  0  0  0  0  0  0  0
   21.1626  -21.4962  -16.9115 N   0  0  0  0  0  0  0  0  0  0  0  0
   27.1525  -20.5408  -10.4212 C   0  0  2  0  0  0  0  0  0  0  0  0
   26.9943  -20.4271   -9.0070 C   0  0  0  0  0  0  0  0  0  0  0  0
   28.1358  -19.7362   -8.2825 C   0  0  0  0  0  0  0  0  0  0  0  0
   27.9806  -19.7538   -6.8086 C   0  0  0  0  0  0  0  0  0  0  0  0
   28.1648  -20.9743   -6.1336 C   0  0  0  0  0  0  0  0  0  0  0  0
   28.0376  -21.1022   -4.7754 C   0  0  0  0  0  0  0  0  0  0  0  0
   27.7157  -19.9984   -4.0247 C   0  0  0  0  0  0  0  0  0  0  0  0
   27.5281  -18.7982   -4.6350 C   0  0  0  0  0  0  0  0  0  0  0  0
   27.6610  -18.6874   -6.0103 C   0  0  0  0  0  0  0  0  0  0  0  0
   25.6582  -20.0247   -8.5588 O   0  0  0  0  0  0  0  0  0  0  0  0
   25.0806  -19.0059   -9.0835 N   0  0  0  0  0  0  0  0  0  0  0  0
   24.9067  -20.6767   -7.5603 C   0  0  1  0  0  0  0  0  0  0  0  0
   23.4249  -20.6271   -7.5543 C   0  0  0  0  0  0  0  0  0  0  0  0
   23.0285  -21.0633   -8.9371 C   0  0  0  0  0  0  0  0  0  0  0  0
   21.5923  -21.1504   -9.1834 C   0  0  0  0  0  0  0  0  0  0  0  0
   20.6708  -20.8068   -8.1899 N   0  0  0  0  0  0  0  0  0  0  0  0
   19.4418  -20.9813   -8.6826 C   0  0  0  0  0  0  0  0  0  0  0  0
   19.6041  -21.4204   -9.9452 N   0  0  0  0  0  0  0  0  0  0  0  0
   20.8943  -21.5224  -10.2475 C   0  0  0  0  0  0  0  0  0  0  0  0
   22.9025  -21.4843   -6.4749 O   0  0  0  0  0  0  0  0  0  0  0  0
   23.0832  -22.8810   -6.5073 O   0  0  0  0  0  0  0  0  0  0  0  0
  2  4  1  0
  2  1  1  0
  3  2  2  0
  5  4  1  0
  6  5  1  0
  7  6  1  0
  8  7  1  0
  8  9  1  6
 10  8  1  0
 10 12  1  0
 11 10  2  0
 13 12  1  0
 13 14  1  6
 15 14  1  0
 15 16  2  0
 17 16  1  0
 18 17  2  0
 19 20  2  0
 19 18  1  0
 20 15  1  0
 21 13  1  0
 21 22  2  0
 23 24  1  0
 23 21  1  0
 24 25  1  1
 25 26  1  0
 26 30  1  0
 27 28  1  0
 27 26  2  0
 28 29  1  0
 29 30  2  0
 31 24  1  0
 32 31  1  0
 33 31  2  0
M  END
$$$$
