RFH.pdb
     RDKit          3D

 33 34  0  0  1  0  0  0  0  0999 V2000
   32.3111  -20.9523  -20.4967 N   0  0  0  0  0  0  0  0  0  0  0  0
   31.1666  -21.2053  -21.2781 C   0  0  0  0  0  0  0  0  0  0  0  0
   30.9548  -20.4698  -22.3210 N   0  0  0  0  0  0  0  0  0  0  0  0
   30.2978  -22.2508  -20.8891 N   0  0  0  0  0  0  0  0  0  0  0  0
   30.5383  -22.9653  -19.6784 C   0  0  0  0  0  0  0  0  0  0  0  0
   30.1567  -22.1597  -18.4319 C   0  0  0  0  0  0  0  0  0  0  0  0
   29.1280  -22.9961  -17.6972 C   0  0  0  0  0  0  0  0  0  0  0  0
   27.7726  -22.3226  -17.6792 C   0  0  2  0  0  0  0  0  0  0  0  0
   27.8665  -20.9607  -18.1048 N   0  0  0  0  0  0  0  0  0  0  0  0
   27.3055  -22.3544  -16.2596 C   0  0  0  0  0  0  0  0  0  0  0  0
   27.2498  -23.4504  -15.6490 O   0  0  0  0  0  0  0  0  0  0  0  0
   30.1670  -20.6534  -22.9469 N   0  0  0  0  0  0  0  0  0  0  0  0
   26.9173  -21.1674  -15.5694 C   0  0  1  0  0  0  0  0  0  0  0  0
   26.3899  -21.1169  -14.2439 C   0  0  0  0  0  0  0  0  0  0  0  0
   27.1859  -20.2742  -13.2633 C   0  0  0  0  0  0  0  0  0  0  0  0
   26.5961  -20.2566  -11.9037 C   0  0  0  0  0  0  0  0  0  0  0  0
   27.1074  -21.1489  -10.9438 C   0  0  0  0  0  0  0  0  0  0  0  0
   26.6294  -21.2196   -9.6616 C   0  0  0  0  0  0  0  0  0  0  0  0
   25.6048  -20.3887   -9.2806 C   0  0  0  0  0  0  0  0  0  0  0  0
   25.0796  -19.5104  -10.1756 C   0  0  0  0  0  0  0  0  0  0  0  0
   25.5757  -19.4527  -11.4687 C   0  0  0  0  0  0  0  0  0  0  0  0
   24.9375  -20.9415  -14.1563 O   0  0  0  0  0  0  0  0  0  0  0  0
   24.3804  -19.9037  -14.6657 N   0  0  0  0  0  0  0  0  0  0  0  0
   24.0471  -21.8428  -13.5384 C   0  0  2  0  0  0  0  0  0  0  0  0
   22.5879  -21.5821  -13.5014 C   0  0  0  0  0  0  0  0  0  0  0  0
   22.4764  -20.0997  -13.2792 C   0  0  0  0  0  0  0  0  0  0  0  0
   21.1168  -19.5710  -13.2234 C   0  0  0  0  0  0  0  0  0  0  0  0
   20.0128  -20.4283  -13.2014 N   0  0  0  0  0  0  0  0  0  0  0  0
   18.9062  -19.6822  -13.1523 C   0  0  0  0  0  0  0  0  0  0  0  0
   19.3195  -18.4007  -13.1443 N   0  0  0  0  0  0  0  0  0  0  0  0
   20.6460  -18.3320  -13.1869 C   0  0  0  0  0  0  0  0  0  0  0  0
   21.9657  -22.0567  -14.7506 O   0  0  0  0  0  0  0  0  0  0  0  0
   20.6784  -22.6287  -14.7469 O   0  0  0  0  0  0  0  0  0  0  0  0
  2  4  1  0
  2  1  1  0
  3  2  2  0
  5  4  1  0
  6  5  1  0
  7  6  1  0
  8  7  1  0
  8  9  1  1
 10  8  1  0
 10 12  1  0
 11 10  2  0
 13 12  1  0
 13 14  1  1
 15 14  1  0
 15 16  2  0
 17 16  1  0
 18 17  2  0
 19 20  2  0
 19 18  1  0
 20 15  1  0
 21 13  1  0
 21 22  2  0
 23 24  1  0
 23 21  1  0
 24 25  1  1
 25 26  1  0
 26 30  1  0
 27 28  1  0
 27 26  2  0
 28 29  1  0
 29 30  2  0
 31 24  1  0
 32 31  1  0
 33 31  2  0
M  END
$$$$
