RFH.pdb
     RDKit          3D

 33 34  0  0  1  0  0  0  0  0999 V2000
   27.4028  -33.3386    5.5920 N   0  0  0  0  0  0  0  0  0  0  0  0
   28.4568  -32.7229    4.8888 C   0  0  0  0  0  0  0  0  0  0  0  0
   28.8687  -33.2679    3.7902 N   0  0  0  0  0  0  0  0  0  0  0  0
   29.0203  -31.5370    5.4136 N   0  0  0  0  0  0  0  0  0  0  0  0
   28.4527  -30.9293    6.5724 C   0  0  0  0  0  0  0  0  0  0  0  0
   28.2829  -31.9156    7.7329 C   0  0  0  0  0  0  0  0  0  0  0  0
   27.5549  -31.1525    8.8217 C   0  0  0  0  0  0  0  0  0  0  0  0
   28.4919  -30.7465    9.9389 C   0  0  2  0  0  0  0  0  0  0  0  0
   28.3839  -31.6361   11.0531 N   0  0  0  0  0  0  0  0  0  0  0  0
   28.0668  -29.3794   10.3688 C   0  0  0  0  0  0  0  0  0  0  0  0
   27.2777  -29.2507   11.3373 O   0  0  0  0  0  0  0  0  0  0  0  0
   29.6166  -32.8430    3.2368 N   0  0  0  0  0  0  0  0  0  0  0  0
   28.5338  -28.2045    9.7074 C   0  0  2  0  0  0  0  0  0  0  0  0
   28.1846  -26.8651   10.0567 C   0  0  0  0  0  0  0  0  0  0  0  0
   29.2543  -25.8244    9.7769 C   0  0  0  0  0  0  0  0  0  0  0  0
   28.8336  -24.4504   10.1398 C   0  0  0  0  0  0  0  0  0  0  0  0
   29.3666  -23.8770   11.3087 C   0  0  0  0  0  0  0  0  0  0  0  0
   29.0389  -22.6179   11.7383 C   0  0  0  0  0  0  0  0  0  0  0  0
   28.1512  -21.8689   11.0060 C   0  0  0  0  0  0  0  0  0  0  0  0
   27.6107  -22.3830    9.8694 C   0  0  0  0  0  0  0  0  0  0  0  0
   27.9538  -23.6589    9.4498 C   0  0  0  0  0  0  0  0  0  0  0  0
   26.8273  -26.4566    9.6840 O   0  0  0  0  0  0  0  0  0  0  0  0
   26.4648  -26.4673    8.4530 N   0  0  0  0  0  0  0  0  0  0  0  0
   25.8310  -26.0325   10.5864 C   0  0  1  0  0  0  0  0  0  0  0  0
   24.4919  -25.6073   10.1127 C   0  0  0  0  0  0  0  0  0  0  0  0
   23.5394  -26.1502   11.1411 C   0  0  0  0  0  0  0  0  0  0  0  0
   23.1670  -27.5522   10.9776 C   0  0  0  0  0  0  0  0  0  0  0  0
   23.8139  -28.3629   10.0402 N   0  0  0  0  0  0  0  0  0  0  0  0
   23.2764  -29.5838   10.1032 C   0  0  0  0  0  0  0  0  0  0  0  0
   22.3247  -29.5248   11.0540 N   0  0  0  0  0  0  0  0  0  0  0  0
   22.2577  -28.3060   11.5799 C   0  0  0  0  0  0  0  0  0  0  0  0
   24.4575  -24.1407    9.9687 O   0  0  0  0  0  0  0  0  0  0  0  0
   23.7143  -23.3424   10.8602 O   0  0  0  0  0  0  0  0  0  0  0  0
  2  4  1  0
  2  1  1  0
  3  2  2  0
  5  4  1  0
  6  5  1  0
  7  6  1  0
  8  7  1  0
  8  9  1  1
 10  8  1  0
 10 12  1  0
 11 10  2  0
 13 12  1  0
 13 14  1  1
 15 14  1  0
 15 16  2  0
 17 16  1  0
 18 17  2  0
 19 20  2  0
 19 18  1  0
 20 15  1  0
 21 13  1  0
 21 22  2  0
 23 24  1  0
 23 21  1  0
 24 25  1  6
 25 26  1  0
 26 30  1  0
 27 28  1  0
 27 26  2  0
 28 29  1  0
 29 30  2  0
 31 24  1  0
 32 31  1  0
 33 31  2  0
M  END
$$$$
