RFH.pdb
     RDKit          3D

 33 34  0  0  1  0  0  0  0  0999 V2000
   25.0349  -30.9907  -19.0142 N   0  0  0  0  0  0  0  0  0  0  0  0
   23.9416  -31.0487  -18.1279 C   0  0  0  0  0  0  0  0  0  0  0  0
   23.5204  -32.2088  -17.7403 N   0  0  0  0  0  0  0  0  0  0  0  0
   23.3503  -29.8374  -17.7007 N   0  0  0  0  0  0  0  0  0  0  0  0
   23.9705  -28.5916  -18.0130 C   0  0  0  0  0  0  0  0  0  0  0  0
   25.0142  -28.1744  -16.9714 C   0  0  0  0  0  0  0  0  0  0  0  0
   24.3378  -27.1340  -16.1009 C   0  0  0  0  0  0  0  0  0  0  0  0
   24.6158  -25.7300  -16.5933 C   0  0  2  0  0  0  0  0  0  0  0  0
   25.9864  -25.5765  -16.9706 N   0  0  0  0  0  0  0  0  0  0  0  0
   24.3249  -24.8165  -15.4465 C   0  0  0  0  0  0  0  0  0  0  0  0
   23.2469  -24.9386  -14.8137 O   0  0  0  0  0  0  0  0  0  0  0  0
   22.7267  -32.2972  -17.1013 N   0  0  0  0  0  0  0  0  0  0  0  0
   25.2420  -23.8003  -15.0437 C   0  0  1  0  0  0  0  0  0  0  0  0
   24.9904  -22.8059  -14.0508 C   0  0  0  0  0  0  0  0  0  0  0  0
   26.2286  -22.2052  -13.4095 C   0  0  0  0  0  0  0  0  0  0  0  0
   25.9112  -21.2518  -12.3200 C   0  0  0  0  0  0  0  0  0  0  0  0
   25.6045  -21.7705  -11.0488 C   0  0  0  0  0  0  0  0  0  0  0  0
   25.2899  -20.9784   -9.9759 C   0  0  0  0  0  0  0  0  0  0  0  0
   25.2684  -19.6144  -10.1323 C   0  0  0  0  0  0  0  0  0  0  0  0
   25.5579  -19.0691  -11.3434 C   0  0  0  0  0  0  0  0  0  0  0  0
   25.8741  -19.8859  -12.4179 C   0  0  0  0  0  0  0  0  0  0  0  0
   23.9499  -21.8319  -14.3925 O   0  0  0  0  0  0  0  0  0  0  0  0
   23.9986  -21.1995  -15.5081 N   0  0  0  0  0  0  0  0  0  0  0  0
   22.8465  -21.5042  -13.5789 C   0  0  2  0  0  0  0  0  0  0  0  0
   21.8967  -20.4323  -13.9627 C   0  0  0  0  0  0  0  0  0  0  0  0
   21.0406  -20.2342  -12.7431 C   0  0  0  0  0  0  0  0  0  0  0  0
   20.0072  -19.2095  -12.8577 C   0  0  0  0  0  0  0  0  0  0  0  0
   19.1157  -19.2055  -13.9345 N   0  0  0  0  0  0  0  0  0  0  0  0
   18.2888  -18.1671  -13.7874 C   0  0  0  0  0  0  0  0  0  0  0  0
   18.6625  -17.5497  -12.6505 N   0  0  0  0  0  0  0  0  0  0  0  0
   19.6938  -18.1741  -12.0911 C   0  0  0  0  0  0  0  0  0  0  0  0
   22.6432  -19.2321  -14.3811 O   0  0  0  0  0  0  0  0  0  0  0  0
   23.6688  -18.6994  -13.5755 O   0  0  0  0  0  0  0  0  0  0  0  0
  2  4  1  0
  2  1  1  0
  3  2  2  0
  5  4  1  0
  6  5  1  0
  7  6  1  0
  8  7  1  0
  8  9  1  1
 10  8  1  0
 10 12  1  0
 11 10  2  0
 13 12  1  0
 13 14  1  6
 15 14  1  0
 15 16  2  0
 17 16  1  0
 18 17  2  0
 19 20  2  0
 19 18  1  0
 20 15  1  0
 21 13  1  0
 21 22  2  0
 23 24  1  0
 23 21  1  0
 24 25  1  1
 25 26  1  0
 26 30  1  0
 27 28  1  0
 27 26  2  0
 28 29  1  0
 29 30  2  0
 31 24  1  0
 32 31  1  0
 33 31  2  0
M  END
$$$$
