RFH.pdb
     RDKit          3D

 33 34  0  0  1  0  0  0  0  0999 V2000
   28.7535  -23.1152  -18.0499 N   0  0  0  0  0  0  0  0  0  0  0  0
   30.1230  -23.4135  -17.9101 C   0  0  0  0  0  0  0  0  0  0  0  0
   30.5851  -24.4795  -18.4790 N   0  0  0  0  0  0  0  0  0  0  0  0
   30.9340  -22.5366  -17.1533 N   0  0  0  0  0  0  0  0  0  0  0  0
   30.3320  -21.5351  -16.3355 C   0  0  0  0  0  0  0  0  0  0  0  0
   28.9349  -21.9330  -15.8475 C   0  0  0  0  0  0  0  0  0  0  0  0
   28.4465  -20.7743  -15.0009 C   0  0  0  0  0  0  0  0  0  0  0  0
   28.7646  -20.9822  -13.5357 C   0  0  2  0  0  0  0  0  0  0  0  0
   29.6813  -22.0645  -13.3543 N   0  0  0  0  0  0  0  0  0  0  0  0
   27.4719  -21.3267  -12.8691 C   0  0  0  0  0  0  0  0  0  0  0  0
   26.8398  -22.3496  -13.2317 O   0  0  0  0  0  0  0  0  0  0  0  0
   31.5561  -24.7719  -18.3458 N   0  0  0  0  0  0  0  0  0  0  0  0
   26.9278  -20.5226  -11.8235 C   0  0  1  0  0  0  0  0  0  0  0  0
   25.6639  -20.7304  -11.1932 C   0  0  0  0  0  0  0  0  0  0  0  0
   25.6019  -20.3441   -9.7261 C   0  0  0  0  0  0  0  0  0  0  0  0
   26.9342  -20.3208   -9.0772 C   0  0  0  0  0  0  0  0  0  0  0  0
   27.8598  -21.3235   -9.4195 C   0  0  0  0  0  0  0  0  0  0  0  0
   29.1144  -21.3984   -8.8736 C   0  0  0  0  0  0  0  0  0  0  0  0
   29.5010  -20.4598   -7.9490 C   0  0  0  0  0  0  0  0  0  0  0  0
   28.6388  -19.4727   -7.5879 C   0  0  0  0  0  0  0  0  0  0  0  0
   27.3733  -19.4125   -8.1506 C   0  0  0  0  0  0  0  0  0  0  0  0
   24.4986  -20.3168  -11.9801 O   0  0  0  0  0  0  0  0  0  0  0  0
   24.6575  -19.7505  -13.1206 N   0  0  0  0  0  0  0  0  0  0  0  0
   23.1546  -20.4873  -11.5907 C   0  0  1  0  0  0  0  0  0  0  0  0
   22.0737  -20.6356  -12.5947 C   0  0  0  0  0  0  0  0  0  0  0  0
   22.4802  -21.8304  -13.4112 C   0  0  0  0  0  0  0  0  0  0  0  0
   21.5694  -22.1949  -14.4922 C   0  0  0  0  0  0  0  0  0  0  0  0
   21.5661  -21.4878  -15.6981 N   0  0  0  0  0  0  0  0  0  0  0  0
   20.6426  -22.0293  -16.4966 C   0  0  0  0  0  0  0  0  0  0  0  0
   20.0934  -23.0422  -15.7998 N   0  0  0  0  0  0  0  0  0  0  0  0
   20.6485  -23.1431  -14.5964 C   0  0  0  0  0  0  0  0  0  0  0  0
   20.7759  -20.7814  -11.9110 O   0  0  0  0  0  0  0  0  0  0  0  0
   19.6691  -19.9928  -12.2817 O   0  0  0  0  0  0  0  0  0  0  0  0
  2  4  1  0
  2  1  1  0
  3  2  2  0
  5  4  1  0
  6  5  1  0
  7  6  1  0
  8  7  1  0
  8  9  1  6
 10  8  1  0
 10 12  1  0
 11 10  2  0
 13 12  1  0
 13 14  1  1
 15 14  1  0
 15 16  2  0
 17 16  1  0
 18 17  2  0
 19 20  2  0
 19 18  1  0
 20 15  1  0
 21 13  1  0
 21 22  2  0
 23 24  1  0
 23 21  1  0
 24 25  1  6
 25 26  1  0
 26 30  1  0
 27 28  1  0
 27 26  2  0
 28 29  1  0
 29 30  2  0
 31 24  1  0
 32 31  1  0
 33 31  2  0
M  END
$$$$
