RFH.pdb
     RDKit          3D

 33 34  0  0  1  0  0  0  0  0999 V2000
   26.8229  -22.1218  -17.1443 N   0  0  0  0  0  0  0  0  0  0  0  0
   28.1302  -22.2780  -17.6453 C   0  0  0  0  0  0  0  0  0  0  0  0
   28.2919  -22.4067  -18.9223 N   0  0  0  0  0  0  0  0  0  0  0  0
   29.2094  -22.2887  -16.7318 N   0  0  0  0  0  0  0  0  0  0  0  0
   28.9571  -22.2438  -15.3287 C   0  0  0  0  0  0  0  0  0  0  0  0
   27.9091  -21.1916  -14.9509 C   0  0  0  0  0  0  0  0  0  0  0  0
   28.4491  -20.4931  -13.7187 C   0  0  0  0  0  0  0  0  0  0  0  0
   29.2825  -21.4281  -12.8689 C   0  0  2  0  0  0  0  0  0  0  0  0
   29.2827  -22.7532  -13.4063 N   0  0  0  0  0  0  0  0  0  0  0  0
   28.6412  -21.4540  -11.5189 C   0  0  0  0  0  0  0  0  0  0  0  0
   27.5550  -22.0639  -11.3593 O   0  0  0  0  0  0  0  0  0  0  0  0
   29.2162  -22.5821  -19.3236 N   0  0  0  0  0  0  0  0  0  0  0  0
   29.2298  -20.8015  -10.3946 C   0  0  2  0  0  0  0  0  0  0  0  0
   28.6512  -20.7155   -9.0924 C   0  0  0  0  0  0  0  0  0  0  0  0
   29.6148  -20.3407   -7.9805 C   0  0  0  0  0  0  0  0  0  0  0  0
   28.9392  -20.1161   -6.6807 C   0  0  0  0  0  0  0  0  0  0  0  0
   28.9917  -21.1395   -5.7167 C   0  0  0  0  0  0  0  0  0  0  0  0
   28.3952  -21.0376   -4.4874 C   0  0  0  0  0  0  0  0  0  0  0  0
   27.7111  -19.8911   -4.1664 C   0  0  0  0  0  0  0  0  0  0  0  0
   27.6342  -18.8761   -5.0675 C   0  0  0  0  0  0  0  0  0  0  0  0
   28.2438  -18.9966   -6.3067 C   0  0  0  0  0  0  0  0  0  0  0  0
   27.3555  -20.0335   -9.0290 O   0  0  0  0  0  0  0  0  0  0  0  0
   27.1710  -18.9366   -9.6689 N   0  0  0  0  0  0  0  0  0  0  0  0
   26.2363  -20.4838   -8.2999 C   0  0  1  0  0  0  0  0  0  0  0  0
   24.8541  -20.1982   -8.7541 C   0  0  0  0  0  0  0  0  0  0  0  0
   24.8182  -20.6823  -10.1767 C   0  0  0  0  0  0  0  0  0  0  0  0
   23.5270  -20.5702  -10.8485 C   0  0  0  0  0  0  0  0  0  0  0  0
   22.4152  -20.0430  -10.1850 N   0  0  0  0  0  0  0  0  0  0  0  0
   21.3794  -20.0607  -11.0279 C   0  0  0  0  0  0  0  0  0  0  0  0
   21.8427  -20.5847  -12.1785 N   0  0  0  0  0  0  0  0  0  0  0  0
   23.1316  -20.8911  -12.0727 C   0  0  0  0  0  0  0  0  0  0  0  0
   23.8891  -20.8655   -7.8618 O   0  0  0  0  0  0  0  0  0  0  0  0
   24.1714  -22.1279   -7.3038 O   0  0  0  0  0  0  0  0  0  0  0  0
  2  4  1  0
  2  1  1  0
  3  2  2  0
  5  4  1  0
  6  5  1  0
  7  6  1  0
  8  7  1  0
  8  9  1  6
 10  8  1  0
 10 12  1  0
 11 10  2  0
 13 12  1  0
 13 14  1  6
 15 14  1  0
 15 16  2  0
 17 16  1  0
 18 17  2  0
 19 20  2  0
 19 18  1  0
 20 15  1  0
 21 13  1  0
 21 22  2  0
 23 24  1  0
 23 21  1  0
 24 25  1  1
 25 26  1  0
 26 30  1  0
 27 28  1  0
 27 26  2  0
 28 29  1  0
 29 30  2  0
 31 24  1  0
 32 31  1  0
 33 31  2  0
M  END
$$$$
