RFH.pdb
     RDKit          3D

 33 34  0  0  1  0  0  0  0  0999 V2000
   25.4269  -17.9546  -19.6469 N   0  0  0  0  0  0  0  0  0  0  0  0
   24.2329  -18.5701  -19.2227 C   0  0  0  0  0  0  0  0  0  0  0  0
   23.1752  -17.8382  -19.0840 N   0  0  0  0  0  0  0  0  0  0  0  0
   24.2412  -19.9604  -18.9654 N   0  0  0  0  0  0  0  0  0  0  0  0
   25.3919  -20.7389  -19.2879 C   0  0  0  0  0  0  0  0  0  0  0  0
   25.6747  -21.8316  -18.2514 C   0  0  0  0  0  0  0  0  0  0  0  0
   26.9644  -21.4275  -17.5650 C   0  0  0  0  0  0  0  0  0  0  0  0
   27.4771  -22.5223  -16.6541 C   0  0  2  0  0  0  0  0  0  0  0  0
   27.2267  -23.8160  -17.2092 N   0  0  0  0  0  0  0  0  0  0  0  0
   26.7202  -22.3917  -15.3717 C   0  0  0  0  0  0  0  0  0  0  0  0
   25.7398  -23.1447  -15.1503 O   0  0  0  0  0  0  0  0  0  0  0  0
   22.2662  -18.2566  -18.8725 N   0  0  0  0  0  0  0  0  0  0  0  0
   27.0798  -21.4294  -14.3815 C   0  0  2  0  0  0  0  0  0  0  0  0
   26.3945  -21.2177  -13.1472 C   0  0  0  0  0  0  0  0  0  0  0  0
   27.2606  -20.7183  -12.0044 C   0  0  0  0  0  0  0  0  0  0  0  0
   26.4863  -20.4340  -10.7731 C   0  0  0  0  0  0  0  0  0  0  0  0
   26.0978  -21.5181   -9.9650 C   0  0  0  0  0  0  0  0  0  0  0  0
   25.3742  -21.3668   -8.8112 C   0  0  0  0  0  0  0  0  0  0  0  0
   25.0037  -20.1063   -8.4120 C   0  0  0  0  0  0  0  0  0  0  0  0
   25.3571  -19.0293   -9.1624 C   0  0  0  0  0  0  0  0  0  0  0  0
   26.0892  -19.2012  -10.3269 C   0  0  0  0  0  0  0  0  0  0  0  0
   25.0950  -20.5495  -13.2614 O   0  0  0  0  0  0  0  0  0  0  0  0
   24.9904  -19.4473  -13.9103 N   0  0  0  0  0  0  0  0  0  0  0  0
   23.8892  -21.0193  -12.7028 C   0  0  1  0  0  0  0  0  0  0  0  0
   22.6217  -20.2659  -12.8590 C   0  0  0  0  0  0  0  0  0  0  0  0
   22.3767  -20.2456  -14.3419 C   0  0  0  0  0  0  0  0  0  0  0  0
   21.1251  -19.6252  -14.7657 C   0  0  0  0  0  0  0  0  0  0  0  0
   20.8587  -18.2815  -14.4869 N   0  0  0  0  0  0  0  0  0  0  0  0
   19.6551  -17.9833  -14.9830 C   0  0  0  0  0  0  0  0  0  0  0  0
   19.1945  -19.1137  -15.5515 N   0  0  0  0  0  0  0  0  0  0  0  0
   20.0756  -20.1003  -15.4221 C   0  0  0  0  0  0  0  0  0  0  0  0
   21.5557  -20.9176  -12.0769 O   0  0  0  0  0  0  0  0  0  0  0  0
   21.8012  -22.1128  -11.3728 O   0  0  0  0  0  0  0  0  0  0  0  0
  2  4  1  0
  2  1  1  0
  3  2  2  0
  5  4  1  0
  6  5  1  0
  7  6  1  0
  8  7  1  0
  8  9  1  6
 10  8  1  0
 10 12  1  0
 11 10  2  0
 13 12  1  0
 13 14  1  6
 15 14  1  0
 15 16  2  0
 17 16  1  0
 18 17  2  0
 19 20  2  0
 19 18  1  0
 20 15  1  0
 21 13  1  0
 21 22  2  0
 23 24  1  0
 23 21  1  0
 24 25  1  1
 25 26  1  0
 26 30  1  0
 27 28  1  0
 27 26  2  0
 28 29  1  0
 29 30  2  0
 31 24  1  0
 32 31  1  0
 33 31  2  0
M  END
$$$$
