RFH.pdb
     RDKit          3D

 33 34  0  0  1  0  0  0  0  0999 V2000
   23.6842  -18.1173  -16.6450 N   0  0  0  0  0  0  0  0  0  0  0  0
   22.6410  -17.9772  -15.7088 C   0  0  0  0  0  0  0  0  0  0  0  0
   21.4797  -17.5931  -16.1297 N   0  0  0  0  0  0  0  0  0  0  0  0
   22.9076  -18.2608  -14.3494 N   0  0  0  0  0  0  0  0  0  0  0  0
   24.1744  -18.7924  -13.9665 C   0  0  0  0  0  0  0  0  0  0  0  0
   24.3236  -20.2757  -14.3213 C   0  0  0  0  0  0  0  0  0  0  0  0
   24.6207  -20.9860  -13.0155 C   0  0  0  0  0  0  0  0  0  0  0  0
   26.1086  -21.0604  -12.7481 C   0  0  2  0  0  0  0  0  0  0  0  0
   26.6988  -22.1778  -13.4172 N   0  0  0  0  0  0  0  0  0  0  0  0
   26.2623  -21.2442  -11.2726 C   0  0  0  0  0  0  0  0  0  0  0  0
   25.9395  -22.3378  -10.7464 O   0  0  0  0  0  0  0  0  0  0  0  0
   20.6846  -17.5149  -15.4910 N   0  0  0  0  0  0  0  0  0  0  0  0
   26.7693  -20.2063  -10.4348 C   0  0  2  0  0  0  0  0  0  0  0  0
   26.9234  -20.2887   -9.0180 C   0  0  0  0  0  0  0  0  0  0  0  0
   28.0322  -19.4291   -8.4374 C   0  0  0  0  0  0  0  0  0  0  0  0
   28.1229  -19.5215   -6.9610 C   0  0  0  0  0  0  0  0  0  0  0  0
   28.9681  -20.4992   -6.4051 C   0  0  0  0  0  0  0  0  0  0  0  0
   29.1190  -20.6742   -5.0545 C   0  0  0  0  0  0  0  0  0  0  0  0
   28.4205  -19.8668   -4.1910 C   0  0  0  0  0  0  0  0  0  0  0  0
   27.5916  -18.9086   -4.6840 C   0  0  0  0  0  0  0  0  0  0  0  0
   27.4512  -18.7458   -6.0534 C   0  0  0  0  0  0  0  0  0  0  0  0
   25.6740  -20.2675   -8.2521 O   0  0  0  0  0  0  0  0  0  0  0  0
   24.8307  -19.3146   -8.4183 N   0  0  0  0  0  0  0  0  0  0  0  0
   25.2864  -21.2366   -7.3048 C   0  0  1  0  0  0  0  0  0  0  0  0
   24.0154  -21.1135   -6.5512 C   0  0  0  0  0  0  0  0  0  0  0  0
   23.1208  -22.1632   -7.1489 C   0  0  0  0  0  0  0  0  0  0  0  0
   22.1021  -21.6723   -8.0721 C   0  0  0  0  0  0  0  0  0  0  0  0
   21.9337  -20.3024   -8.2940 N   0  0  0  0  0  0  0  0  0  0  0  0
   20.9415  -20.1412   -9.1733 C   0  0  0  0  0  0  0  0  0  0  0  0
   20.5120  -21.3791   -9.4835 N   0  0  0  0  0  0  0  0  0  0  0  0
   21.2075  -22.2994   -8.8234 C   0  0  0  0  0  0  0  0  0  0  0  0
   24.2727  -21.2849   -5.1100 O   0  0  0  0  0  0  0  0  0  0  0  0
   23.4531  -20.6617   -4.1486 O   0  0  0  0  0  0  0  0  0  0  0  0
  2  4  1  0
  2  1  1  0
  3  2  2  0
  5  4  1  0
  6  5  1  0
  7  6  1  0
  8  7  1  0
  8  9  1  6
 10  8  1  0
 10 12  1  0
 11 10  2  0
 13 12  1  0
 13 14  1  6
 15 14  1  0
 15 16  2  0
 17 16  1  0
 18 17  2  0
 19 20  2  0
 19 18  1  0
 20 15  1  0
 21 13  1  0
 21 22  2  0
 23 24  1  0
 23 21  1  0
 24 25  1  1
 25 26  1  0
 26 30  1  0
 27 28  1  0
 27 26  2  0
 28 29  1  0
 29 30  2  0
 31 24  1  0
 32 31  1  0
 33 31  2  0
M  END
$$$$
