GTG.pdb
     RDKit          3D

 16 15  0  0  1  0  0  0  0  0999 V2000
   24.8130  -20.7957   -8.3826 N   0  0  0  0  0  0  0  0  0  0  0  0
   24.6308  -21.3202   -9.7204 C   0  0  0  0  0  0  0  0  0  0  0  0
   25.2912  -20.3908  -10.7034 C   0  0  0  0  0  0  0  0  0  0  0  0
   25.6871  -19.2629  -10.3158 O   0  0  0  0  0  0  0  0  0  0  0  0
   28.2746  -20.6929  -12.6063 C   0  0  0  0  0  0  0  0  0  0  0  0
   27.2175  -20.4497  -13.6615 C   0  0  1  0  0  0  0  0  0  0  0  0
   26.9353  -21.6558  -14.2681 O   0  0  0  0  0  0  0  0  0  0  0  0
   25.9757  -19.8124  -13.0569 C   0  0  2  0  0  0  0  0  0  0  0  0
   25.4835  -20.7404  -12.0512 N   0  0  0  0  0  0  0  0  0  0  0  0
   24.9643  -19.5396  -14.0894 C   0  0  0  0  0  0  0  0  0  0  0  0
   23.9454  -20.3106  -14.1210 O   0  0  0  0  0  0  0  0  0  0  0  0
   25.0789  -18.4781  -15.0257 N   0  0  0  0  0  0  0  0  0  0  0  0
   23.9495  -18.2327  -15.8928 C   0  0  0  0  0  0  0  0  0  0  0  0
   23.8713  -19.1604  -17.0188 C   0  0  0  0  0  0  0  0  0  0  0  0
   24.8274  -20.1359  -17.2170 O   0  0  0  0  0  0  0  0  0  0  0  0
   22.9203  -19.0792  -17.8298 O   0  0  0  0  0  0  0  0  0  0  0  0
  2  1  1  0
  2  3  1  0
  3  4  2  0
  6  5  1  1
  6  8  1  0
  7  6  1  0
  9  3  1  0
  8  9  1  1
 10  8  1  0
 10 12  1  0
 11 10  2  0
 13 12  1  0
 14 13  1  0
 15 14  1  0
 16 14  2  0
M  END
$$$$
