GTG.pdb
     RDKit          3D

 16 15  0  0  1  0  0  0  0  0999 V2000
   16.0719  -12.2337  -15.6218 N   0  0  0  0  0  0  0  0  0  0  0  0
   16.2993  -10.8105  -15.7663 C   0  0  0  0  0  0  0  0  0  0  0  0
   17.6706  -10.4794  -15.2407 C   0  0  0  0  0  0  0  0  0  0  0  0
   18.0351  -10.9444  -14.1317 O   0  0  0  0  0  0  0  0  0  0  0  0
   20.8246  -11.3180  -16.6423 C   0  0  0  0  0  0  0  0  0  0  0  0
   20.8799   -9.8115  -16.5101 C   0  0  1  0  0  0  0  0  0  0  0  0
   20.6322   -9.2652  -17.7521 O   0  0  0  0  0  0  0  0  0  0  0  0
   19.8931   -9.3164  -15.4636 C   0  0  2  0  0  0  0  0  0  0  0  0
   18.5671   -9.6620  -15.9505 N   0  0  0  0  0  0  0  0  0  0  0  0
   20.0344   -7.8687  -15.2456 C   0  0  0  0  0  0  0  0  0  0  0  0
   19.2817   -7.1019  -15.9378 O   0  0  0  0  0  0  0  0  0  0  0  0
   20.9532   -7.3103  -14.3179 N   0  0  0  0  0  0  0  0  0  0  0  0
   20.9806   -5.8709  -14.1950 C   0  0  0  0  0  0  0  0  0  0  0  0
   21.9220   -5.3935  -13.1848 C   0  0  0  0  0  0  0  0  0  0  0  0
   22.1673   -4.0470  -13.0070 O   0  0  0  0  0  0  0  0  0  0  0  0
   22.5265   -6.2144  -12.4572 O   0  0  0  0  0  0  0  0  0  0  0  0
  2  1  1  0
  2  3  1  0
  3  4  2  0
  6  5  1  6
  6  8  1  0
  7  6  1  0
  9  3  1  0
  8  9  1  6
 10  8  1  0
 10 12  1  0
 11 10  2  0
 13 12  1  0
 14 13  1  0
 15 14  1  0
 16 14  2  0
M  END
$$$$
