GTG.pdb
     RDKit          3D

 16 15  0  0  1  0  0  0  0  0999 V2000
   20.7160  -12.8110  -16.5413 N   0  0  0  0  0  0  0  0  0  0  0  0
   19.8745  -11.8961  -15.7980 C   0  0  0  0  0  0  0  0  0  0  0  0
   20.0950  -10.4997  -16.3155 C   0  0  0  0  0  0  0  0  0  0  0  0
   20.9582  -10.3013  -17.2069 O   0  0  0  0  0  0  0  0  0  0  0  0
   17.8535   -8.5837  -18.1058 C   0  0  0  0  0  0  0  0  0  0  0  0
   18.2138   -7.6482  -16.9722 C   0  0  1  0  0  0  0  0  0  0  0  0
   17.1774   -7.6621  -16.0622 O   0  0  0  0  0  0  0  0  0  0  0  0
   19.5367   -8.0442  -16.3340 C   0  0  2  0  0  0  0  0  0  0  0  0
   19.3648   -9.3991  -15.8346 N   0  0  0  0  0  0  0  0  0  0  0  0
   19.9074   -7.1096  -15.2605 C   0  0  0  0  0  0  0  0  0  0  0  0
   19.6544   -7.4738  -14.0617 O   0  0  0  0  0  0  0  0  0  0  0  0
   20.5199   -5.8518  -15.5046 N   0  0  0  0  0  0  0  0  0  0  0  0
   20.8929   -5.0607  -14.3546 C   0  0  0  0  0  0  0  0  0  0  0  0
   22.1970   -5.4202  -13.8025 C   0  0  0  0  0  0  0  0  0  0  0  0
   23.3706   -5.0745  -14.4414 O   0  0  0  0  0  0  0  0  0  0  0  0
   22.2654   -6.0564  -12.7258 O   0  0  0  0  0  0  0  0  0  0  0  0
  2  1  1  0
  2  3  1  0
  3  4  2  0
  6  5  1  6
  6  8  1  0
  7  6  1  0
  9  3  1  0
  8  9  1  1
 10  8  1  0
 10 12  1  0
 11 10  2  0
 13 12  1  0
 14 13  1  0
 15 14  1  0
 16 14  2  0
M  END
$$$$
