GTG.pdb
     RDKit          3D

 16 15  0  0  1  0  0  0  0  0999 V2000
   17.9456  -12.6277  -16.0451 N   0  0  0  0  0  0  0  0  0  0  0  0
   18.2892  -11.2792  -16.4467 C   0  0  0  0  0  0  0  0  0  0  0  0
   19.1794  -10.6690  -15.3972 C   0  0  0  0  0  0  0  0  0  0  0  0
   18.9591  -10.9121  -14.1842 O   0  0  0  0  0  0  0  0  0  0  0  0
   22.5999  -11.1429  -14.7726 C   0  0  0  0  0  0  0  0  0  0  0  0
   22.5042   -9.6430  -14.9492 C   0  0  1  0  0  0  0  0  0  0  0  0
   22.9712   -9.3314  -16.2090 O   0  0  0  0  0  0  0  0  0  0  0  0
   21.0795   -9.1553  -14.7337 C   0  0  2  0  0  0  0  0  0  0  0  0
   20.2579   -9.8297  -15.7262 N   0  0  0  0  0  0  0  0  0  0  0  0
   20.9960   -7.6922  -14.8589 C   0  0  0  0  0  0  0  0  0  0  0  0
   20.3892   -7.2318  -15.8853 O   0  0  0  0  0  0  0  0  0  0  0  0
   21.5512   -6.7994  -13.9043 N   0  0  0  0  0  0  0  0  0  0  0  0
   21.4470   -5.3847  -14.1792 C   0  0  0  0  0  0  0  0  0  0  0  0
   22.0963   -4.5494  -13.1714 C   0  0  0  0  0  0  0  0  0  0  0  0
   22.5651   -5.0815  -11.9873 O   0  0  0  0  0  0  0  0  0  0  0  0
   22.2368   -3.3216  -13.3744 O   0  0  0  0  0  0  0  0  0  0  0  0
  2  1  1  0
  2  3  1  0
  3  4  2  0
  6  5  1  6
  6  8  1  0
  7  6  1  0
  9  3  1  0
  8  9  1  6
 10  8  1  0
 10 12  1  0
 11 10  2  0
 13 12  1  0
 14 13  1  0
 15 14  1  0
 16 14  2  0
M  END
$$$$
