GTG.pdb
     RDKit          3D

 16 15  0  0  1  0  0  0  0  0999 V2000
   27.7547  -19.1546  -16.2864 N   0  0  0  0  0  0  0  0  0  0  0  0
   26.5556  -18.6956  -15.6160 C   0  0  0  0  0  0  0  0  0  0  0  0
   25.5789  -19.8376  -15.5261 C   0  0  0  0  0  0  0  0  0  0  0  0
   25.6158  -20.7503  -16.3890 O   0  0  0  0  0  0  0  0  0  0  0  0
   25.4309  -22.3814  -13.3839 C   0  0  0  0  0  0  0  0  0  0  0  0
   24.0234  -21.8476  -13.2292 C   0  0  1  0  0  0  0  0  0  0  0  0
   23.9610  -21.1477  -12.0423 O   0  0  0  0  0  0  0  0  0  0  0  0
   23.6299  -20.9858  -14.4193 C   0  0  2  0  0  0  0  0  0  0  0  0
   24.6182  -19.9223  -14.5035 N   0  0  0  0  0  0  0  0  0  0  0  0
   22.2678  -20.4539  -14.2606 C   0  0  0  0  0  0  0  0  0  0  0  0
   22.1531  -19.3123  -13.6974 O   0  0  0  0  0  0  0  0  0  0  0  0
   21.1087  -21.1468  -14.7001 N   0  0  0  0  0  0  0  0  0  0  0  0
   19.8325  -20.4996  -14.5001 C   0  0  0  0  0  0  0  0  0  0  0  0
   19.0180  -21.1323  -13.4652 C   0  0  0  0  0  0  0  0  0  0  0  0
   17.7344  -20.7028  -13.1951 O   0  0  0  0  0  0  0  0  0  0  0  0
   19.4832  -22.0869  -12.8011 O   0  0  0  0  0  0  0  0  0  0  0  0
  2  1  1  0
  2  3  1  0
  3  4  2  0
  6  5  1  6
  6  8  1  0
  7  6  1  0
  9  3  1  0
  8  9  1  1
 10  8  1  0
 10 12  1  0
 11 10  2  0
 13 12  1  0
 14 13  1  0
 15 14  1  0
 16 14  2  0
M  END
$$$$
