GTG.pdb
     RDKit          3D

 16 15  0  0  1  0  0  0  0  0999 V2000
   23.0865  -13.6207  -18.8173 N   0  0  0  0  0  0  0  0  0  0  0  0
   23.3546  -12.2049  -18.9647 C   0  0  0  0  0  0  0  0  0  0  0  0
   23.3864  -11.5693  -17.6005 C   0  0  0  0  0  0  0  0  0  0  0  0
   22.7162  -12.0779  -16.6671 O   0  0  0  0  0  0  0  0  0  0  0  0
   26.0187  -11.3152  -15.3803 C   0  0  0  0  0  0  0  0  0  0  0  0
   25.5961   -9.8688  -15.5187 C   0  0  1  0  0  0  0  0  0  0  0  0
   26.4936   -9.2408  -16.3568 O   0  0  0  0  0  0  0  0  0  0  0  0
   24.1678   -9.7614  -16.0311 C   0  0  2  0  0  0  0  0  0  0  0  0
   24.1447  -10.4173  -17.3289 N   0  0  0  0  0  0  0  0  0  0  0  0
   23.7420   -8.3565  -16.1218 C   0  0  0  0  0  0  0  0  0  0  0  0
   23.7423   -7.8245  -17.2840 O   0  0  0  0  0  0  0  0  0  0  0  0
   23.3417   -7.5932  -14.9932 N   0  0  0  0  0  0  0  0  0  0  0  0
   22.8394   -6.2606  -15.2372 C   0  0  0  0  0  0  0  0  0  0  0  0
   22.2932   -5.6198  -14.0432 C   0  0  0  0  0  0  0  0  0  0  0  0
   21.7965   -4.3325  -14.0791 O   0  0  0  0  0  0  0  0  0  0  0  0
   22.2694   -6.2416  -12.9563 O   0  0  0  0  0  0  0  0  0  0  0  0
  2  1  1  0
  2  3  1  0
  3  4  2  0
  6  5  1  6
  6  8  1  0
  7  6  1  0
  9  3  1  0
  8  9  1  6
 10  8  1  0
 10 12  1  0
 11 10  2  0
 13 12  1  0
 14 13  1  0
 15 14  1  0
 16 14  2  0
M  END
$$$$
