GTG.pdb
     RDKit          3D

 16 15  0  0  1  0  0  0  0  0999 V2000
   20.8580  -13.6810  -18.0255 N   0  0  0  0  0  0  0  0  0  0  0  0
   21.6982  -12.6117  -18.5242 C   0  0  0  0  0  0  0  0  0  0  0  0
   22.2961  -11.8751  -17.3554 C   0  0  0  0  0  0  0  0  0  0  0  0
   21.7935  -12.0193  -16.2127 O   0  0  0  0  0  0  0  0  0  0  0  0
   26.1505   -9.5826  -15.3961 C   0  0  0  0  0  0  0  0  0  0  0  0
   25.4682  -10.3219  -16.5265 C   0  0  1  0  0  0  0  0  0  0  0  0
   25.9145  -11.6269  -16.5130 O   0  0  0  0  0  0  0  0  0  0  0  0
   23.9544  -10.2368  -16.4025 C   0  0  2  0  0  0  0  0  0  0  0  0
   23.4060  -11.0240  -17.4954 N   0  0  0  0  0  0  0  0  0  0  0  0
   23.4967   -8.8399  -16.4526 C   0  0  0  0  0  0  0  0  0  0  0  0
   23.5964   -8.2370  -17.5752 O   0  0  0  0  0  0  0  0  0  0  0  0
   22.9628   -8.1581  -15.3271 N   0  0  0  0  0  0  0  0  0  0  0  0
   22.6124   -6.7669  -15.4984 C   0  0  0  0  0  0  0  0  0  0  0  0
   22.0637   -6.1547  -14.2906 C   0  0  0  0  0  0  0  0  0  0  0  0
   21.7864   -4.8041  -14.2290 O   0  0  0  0  0  0  0  0  0  0  0  0
   21.8353   -6.8604  -13.2814 O   0  0  0  0  0  0  0  0  0  0  0  0
  2  1  1  0
  2  3  1  0
  3  4  2  0
  6  5  1  1
  6  8  1  0
  7  6  1  0
  9  3  1  0
  8  9  1  6
 10  8  1  0
 10 12  1  0
 11 10  2  0
 13 12  1  0
 14 13  1  0
 15 14  1  0
 16 14  2  0
M  END
$$$$
