GTG.pdb
     RDKit          3D

 16 15  0  0  1  0  0  0  0  0999 V2000
   18.1046  -12.4488  -15.9741 N   0  0  0  0  0  0  0  0  0  0  0  0
   18.2086  -11.0562  -16.3586 C   0  0  0  0  0  0  0  0  0  0  0  0
   18.9379  -10.3043  -15.2774 C   0  0  0  0  0  0  0  0  0  0  0  0
   18.5729  -10.4342  -14.0820 O   0  0  0  0  0  0  0  0  0  0  0  0
   22.3073  -10.6828  -14.3878 C   0  0  0  0  0  0  0  0  0  0  0  0
   22.1992   -9.1917  -14.6219 C   0  0  1  0  0  0  0  0  0  0  0  0
   22.7569   -8.9117  -15.8519 O   0  0  0  0  0  0  0  0  0  0  0  0
   20.7537   -8.7261  -14.5332 C   0  0  2  0  0  0  0  0  0  0  0  0
   20.0220   -9.4545  -15.5573 N   0  0  0  0  0  0  0  0  0  0  0  0
   20.6536   -7.2708  -14.7215 C   0  0  0  0  0  0  0  0  0  0  0  0
   20.5613   -6.8468  -15.9238 O   0  0  0  0  0  0  0  0  0  0  0  0
   20.6560   -6.3473  -13.6427 N   0  0  0  0  0  0  0  0  0  0  0  0
   20.5930   -4.9418  -13.9718 C   0  0  0  0  0  0  0  0  0  0  0  0
   21.8796   -4.2602  -13.8500 C   0  0  0  0  0  0  0  0  0  0  0  0
   22.0132   -2.9162  -14.1346 O   0  0  0  0  0  0  0  0  0  0  0  0
   22.8918   -4.8983  -13.4801 O   0  0  0  0  0  0  0  0  0  0  0  0
  2  1  1  0
  2  3  1  0
  3  4  2  0
  6  5  1  6
  6  8  1  0
  7  6  1  0
  9  3  1  0
  8  9  1  6
 10  8  1  0
 10 12  1  0
 11 10  2  0
 13 12  1  0
 14 13  1  0
 15 14  1  0
 16 14  2  0
M  END
$$$$
