GTG.pdb
     RDKit          3D

 16 15  0  0  1  0  0  0  0  0999 V2000
   21.7140  -13.2819  -17.4045 N   0  0  0  0  0  0  0  0  0  0  0  0
   22.1234  -11.9858  -17.9049 C   0  0  0  0  0  0  0  0  0  0  0  0
   22.5667  -11.1329  -16.7463 C   0  0  0  0  0  0  0  0  0  0  0  0
   22.0178  -11.2811  -15.6257 O   0  0  0  0  0  0  0  0  0  0  0  0
   25.9745  -10.7568  -15.3958 C   0  0  0  0  0  0  0  0  0  0  0  0
   25.5053   -9.3557  -15.7226 C   0  0  1  0  0  0  0  0  0  0  0  0
   26.0911   -8.9767  -16.9124 O   0  0  0  0  0  0  0  0  0  0  0  0
   23.9871   -9.2872  -15.7885 C   0  0  2  0  0  0  0  0  0  0  0  0
   23.5810  -10.1679  -16.8721 N   0  0  0  0  0  0  0  0  0  0  0  0
   23.5283   -7.9067  -16.0059 C   0  0  0  0  0  0  0  0  0  0  0  0
   23.0836   -7.6200  -17.1694 O   0  0  0  0  0  0  0  0  0  0  0  0
   23.5618   -6.9102  -14.9947 N   0  0  0  0  0  0  0  0  0  0  0  0
   22.9996   -5.6187  -15.3165 C   0  0  0  0  0  0  0  0  0  0  0  0
   21.8566   -5.2597  -14.4802 C   0  0  0  0  0  0  0  0  0  0  0  0
   21.2486   -4.0248  -14.5817 O   0  0  0  0  0  0  0  0  0  0  0  0
   21.4087   -6.0821  -13.6485 O   0  0  0  0  0  0  0  0  0  0  0  0
  2  1  1  0
  2  3  1  0
  3  4  2  0
  6  5  1  6
  6  8  1  0
  7  6  1  0
  9  3  1  0
  8  9  1  6
 10  8  1  0
 10 12  1  0
 11 10  2  0
 13 12  1  0
 14 13  1  0
 15 14  1  0
 16 14  2  0
M  END
$$$$
