GTG.pdb
     RDKit          3D

 16 15  0  0  1  0  0  0  0  0999 V2000
   22.5734  -13.4165  -19.0563 N   0  0  0  0  0  0  0  0  0  0  0  0
   22.3278  -11.9928  -19.1584 C   0  0  0  0  0  0  0  0  0  0  0  0
   22.3923  -11.3863  -17.7821 C   0  0  0  0  0  0  0  0  0  0  0  0
   21.7557  -11.9230  -16.8409 O   0  0  0  0  0  0  0  0  0  0  0  0
   25.5331   -8.9203  -16.7602 C   0  0  0  0  0  0  0  0  0  0  0  0
   24.6448   -9.6232  -15.7568 C   0  0  1  0  0  0  0  0  0  0  0  0
   24.8223   -9.0159  -14.5313 O   0  0  0  0  0  0  0  0  0  0  0  0
   23.1897   -9.5969  -16.1996 C   0  0  2  0  0  0  0  0  0  0  0  0
   23.1449  -10.2313  -17.5074 N   0  0  0  0  0  0  0  0  0  0  0  0
   22.6742   -8.2201  -16.2428 C   0  0  0  0  0  0  0  0  0  0  0  0
   22.9843   -7.5166  -17.2639 O   0  0  0  0  0  0  0  0  0  0  0  0
   21.8661   -7.6622  -15.2169 N   0  0  0  0  0  0  0  0  0  0  0  0
   21.4358   -6.2927  -15.3815 C   0  0  0  0  0  0  0  0  0  0  0  0
   22.2058   -5.3434  -14.5810 C   0  0  0  0  0  0  0  0  0  0  0  0
   21.8676   -4.0064  -14.5255 O   0  0  0  0  0  0  0  0  0  0  0  0
   23.1971   -5.7390  -13.9258 O   0  0  0  0  0  0  0  0  0  0  0  0
  2  1  1  0
  2  3  1  0
  3  4  2  0
  6  5  1  6
  6  8  1  0
  7  6  1  0
  9  3  1  0
  8  9  1  6
 10  8  1  0
 10 12  1  0
 11 10  2  0
 13 12  1  0
 14 13  1  0
 15 14  1  0
 16 14  2  0
M  END
$$$$
