GTG.pdb
     RDKit          3D

 16 15  0  0  1  0  0  0  0  0999 V2000
   16.9062  -12.4578  -15.1891 N   0  0  0  0  0  0  0  0  0  0  0  0
   16.9398  -11.1460  -15.8024 C   0  0  0  0  0  0  0  0  0  0  0  0
   18.3321  -10.5863  -15.6821 C   0  0  0  0  0  0  0  0  0  0  0  0
   19.2051  -11.2340  -15.0516 O   0  0  0  0  0  0  0  0  0  0  0  0
   20.6094  -10.0531  -18.2154 C   0  0  0  0  0  0  0  0  0  0  0  0
   20.5815   -8.6924  -17.5539 C   0  0  1  0  0  0  0  0  0  0  0  0
   19.8350   -7.8474  -18.3485 O   0  0  0  0  0  0  0  0  0  0  0  0
   20.0274   -8.7812  -16.1400 C   0  0  2  0  0  0  0  0  0  0  0  0
   18.6959   -9.3549  -16.2539 N   0  0  0  0  0  0  0  0  0  0  0  0
   19.9987   -7.4581  -15.4984 C   0  0  0  0  0  0  0  0  0  0  0  0
   18.9286   -6.7720  -15.6320 O   0  0  0  0  0  0  0  0  0  0  0  0
   21.0894   -6.9324  -14.7563 N   0  0  0  0  0  0  0  0  0  0  0  0
   20.9456   -5.5988  -14.2192 C   0  0  0  0  0  0  0  0  0  0  0  0
   22.1287   -5.1337  -13.4990 C   0  0  0  0  0  0  0  0  0  0  0  0
   22.2365   -3.8315  -13.0545 O   0  0  0  0  0  0  0  0  0  0  0  0
   23.0734   -5.9245  -13.2735 O   0  0  0  0  0  0  0  0  0  0  0  0
  2  1  1  0
  2  3  1  0
  3  4  2  0
  6  5  1  6
  6  8  1  0
  7  6  1  0
  9  3  1  0
  8  9  1  6
 10  8  1  0
 10 12  1  0
 11 10  2  0
 13 12  1  0
 14 13  1  0
 15 14  1  0
 16 14  2  0
M  END
$$$$
