GTG.pdb
     RDKit          3D

 16 15  0  0  1  0  0  0  0  0999 V2000
   19.0494  -13.6866  -16.9592 N   0  0  0  0  0  0  0  0  0  0  0  0
   19.0543  -12.7743  -15.8342 C   0  0  0  0  0  0  0  0  0  0  0  0
   19.9039  -11.5800  -16.1778 C   0  0  0  0  0  0  0  0  0  0  0  0
   21.0415  -11.7566  -16.6817 O   0  0  0  0  0  0  0  0  0  0  0  0
   19.0705   -9.0886  -18.5365 C   0  0  0  0  0  0  0  0  0  0  0  0
   19.3800   -8.2892  -17.2895 C   0  0  1  0  0  0  0  0  0  0  0  0
   18.1832   -7.9107  -16.7178 O   0  0  0  0  0  0  0  0  0  0  0  0
   20.2433   -9.0891  -16.3257 C   0  0  2  0  0  0  0  0  0  0  0  0
   19.4686  -10.2623  -15.9541 N   0  0  0  0  0  0  0  0  0  0  0  0
   20.6115   -8.2836  -15.1513 C   0  0  0  0  0  0  0  0  0  0  0  0
   20.1884   -8.6882  -14.0151 O   0  0  0  0  0  0  0  0  0  0  0  0
   21.3991   -7.1050  -15.2354 N   0  0  0  0  0  0  0  0  0  0  0  0
   21.6937   -6.4138  -14.0013 C   0  0  0  0  0  0  0  0  0  0  0  0
   22.5714   -5.2594  -14.1791 C   0  0  0  0  0  0  0  0  0  0  0  0
   22.8764   -4.4171  -13.1291 O   0  0  0  0  0  0  0  0  0  0  0  0
   23.0647   -5.0176  -15.3046 O   0  0  0  0  0  0  0  0  0  0  0  0
  2  1  1  0
  2  3  1  0
  3  4  2  0
  6  5  1  6
  6  8  1  0
  7  6  1  0
  9  3  1  0
  8  9  1  1
 10  8  1  0
 10 12  1  0
 11 10  2  0
 13 12  1  0
 14 13  1  0
 15 14  1  0
 16 14  2  0
M  END
$$$$
