GTG.pdb
     RDKit          3D

 16 15  0  0  1  0  0  0  0  0999 V2000
   17.0883  -12.5054    4.4008 N   0  0  0  0  0  0  0  0  0  0  0  0
   17.3652  -12.0901    5.7606 C   0  0  0  0  0  0  0  0  0  0  0  0
   18.5678  -12.8419    6.2653 C   0  0  0  0  0  0  0  0  0  0  0  0
   19.1009  -13.7147    5.5352 O   0  0  0  0  0  0  0  0  0  0  0  0
   21.5898  -11.1090    7.8596 C   0  0  0  0  0  0  0  0  0  0  0  0
   21.1148  -12.2094    8.7835 C   0  0  1  0  0  0  0  0  0  0  0  0
   20.3687  -11.6300    9.7884 O   0  0  0  0  0  0  0  0  0  0  0  0
   20.3233  -13.2616    8.0215 C   0  0  2  0  0  0  0  0  0  0  0  0
   19.1222  -12.6020    7.5345 N   0  0  0  0  0  0  0  0  0  0  0  0
   20.0042  -14.4107    8.8824 C   0  0  0  0  0  0  0  0  0  0  0  0
   18.7746  -14.5849    9.1846 O   0  0  0  0  0  0  0  0  0  0  0  0
   20.9889  -15.3076    9.3749 N   0  0  0  0  0  0  0  0  0  0  0  0
   20.5324  -16.4200   10.1760 C   0  0  0  0  0  0  0  0  0  0  0  0
   21.0327  -17.7119    9.7120 C   0  0  0  0  0  0  0  0  0  0  0  0
   20.7853  -18.8749   10.4129 O   0  0  0  0  0  0  0  0  0  0  0  0
   21.7025  -17.7793    8.6558 O   0  0  0  0  0  0  0  0  0  0  0  0
  2  1  1  0
  2  3  1  0
  3  4  2  0
  6  5  1  6
  6  8  1  0
  7  6  1  0
  9  3  1  0
  8  9  1  1
 10  8  1  0
 10 12  1  0
 11 10  2  0
 13 12  1  0
 14 13  1  0
 15 14  1  0
 16 14  2  0
M  END
$$$$
