GTG.pdb
     RDKit          3D

 16 15  0  0  1  0  0  0  0  0999 V2000
   28.7752  -21.7570  -15.5684 N   0  0  0  0  0  0  0  0  0  0  0  0
   27.8877  -20.6895  -15.1553 C   0  0  0  0  0  0  0  0  0  0  0  0
   26.7104  -21.2860  -14.4312 C   0  0  0  0  0  0  0  0  0  0  0  0
   26.2962  -22.4257  -14.7608 O   0  0  0  0  0  0  0  0  0  0  0  0
   26.5056  -21.6669  -10.8496 C   0  0  0  0  0  0  0  0  0  0  0  0
   25.1868  -21.0158  -11.2056 C   0  0  1  0  0  0  0  0  0  0  0  0
   25.2407  -19.6970  -10.8054 O   0  0  0  0  0  0  0  0  0  0  0  0
   24.8939  -21.1479  -12.6925 C   0  0  2  0  0  0  0  0  0  0  0  0
   26.0507  -20.6098  -13.3903 N   0  0  0  0  0  0  0  0  0  0  0  0
   23.6585  -20.4362  -13.0540 C   0  0  0  0  0  0  0  0  0  0  0  0
   23.7362  -19.1665  -13.1789 O   0  0  0  0  0  0  0  0  0  0  0  0
   22.4176  -21.0941  -13.2633 N   0  0  0  0  0  0  0  0  0  0  0  0
   21.2700  -20.2681  -13.5607 C   0  0  0  0  0  0  0  0  0  0  0  0
   20.0086  -20.8393  -13.0944 C   0  0  0  0  0  0  0  0  0  0  0  0
   18.9480  -21.0427  -13.9538 O   0  0  0  0  0  0  0  0  0  0  0  0
   19.8739  -21.1557  -11.8901 O   0  0  0  0  0  0  0  0  0  0  0  0
  2  1  1  0
  2  3  1  0
  3  4  2  0
  6  5  1  6
  6  8  1  0
  7  6  1  0
  9  3  1  0
  8  9  1  6
 10  8  1  0
 10 12  1  0
 11 10  2  0
 13 12  1  0
 14 13  1  0
 15 14  1  0
 16 14  2  0
M  END
$$$$
