GTG.pdb
     RDKit          3D

 16 15  0  0  1  0  0  0  0  0999 V2000
   17.4226  -11.6626  -15.9459 N   0  0  0  0  0  0  0  0  0  0  0  0
   17.4769  -10.2695  -15.5531 C   0  0  0  0  0  0  0  0  0  0  0  0
   18.8937   -9.9218  -15.1816 C   0  0  0  0  0  0  0  0  0  0  0  0
   19.5363  -10.6853  -14.4178 O   0  0  0  0  0  0  0  0  0  0  0  0
   21.6353   -9.6696  -17.3905 C   0  0  0  0  0  0  0  0  0  0  0  0
   21.6458   -8.3360  -16.6753 C   0  0  1  0  0  0  0  0  0  0  0  0
   21.0876   -7.3966  -17.5168 O   0  0  0  0  0  0  0  0  0  0  0  0
   20.9085   -8.4202  -15.3474 C   0  0  2  0  0  0  0  0  0  0  0  0
   19.5309   -8.7645  -15.6614 N   0  0  0  0  0  0  0  0  0  0  0  0
   20.9995   -7.1509  -14.6099 C   0  0  0  0  0  0  0  0  0  0  0  0
   20.0121   -6.3463  -14.7165 O   0  0  0  0  0  0  0  0  0  0  0  0
   22.1161   -6.7996  -13.8059 N   0  0  0  0  0  0  0  0  0  0  0  0
   22.0388   -5.5600  -13.0675 C   0  0  0  0  0  0  0  0  0  0  0  0
   22.2818   -4.3785  -13.8919 C   0  0  0  0  0  0  0  0  0  0  0  0
   22.2834   -3.1092  -13.3500 O   0  0  0  0  0  0  0  0  0  0  0  0
   22.4948   -4.5068  -15.1195 O   0  0  0  0  0  0  0  0  0  0  0  0
  2  1  1  0
  2  3  1  0
  3  4  2  0
  6  5  1  6
  6  8  1  0
  7  6  1  0
  9  3  1  0
  8  9  1  6
 10  8  1  0
 10 12  1  0
 11 10  2  0
 13 12  1  0
 14 13  1  0
 15 14  1  0
 16 14  2  0
M  END
$$$$
