GTG.pdb
     RDKit          3D

 16 15  0  0  1  0  0  0  0  0999 V2000
   19.0050  -13.3790  -16.1596 N   0  0  0  0  0  0  0  0  0  0  0  0
   19.4592  -12.1060  -16.6802 C   0  0  0  0  0  0  0  0  0  0  0  0
   20.3165  -11.4319  -15.6425 C   0  0  0  0  0  0  0  0  0  0  0  0
   20.0780  -11.6264  -14.4242 O   0  0  0  0  0  0  0  0  0  0  0  0
   24.0346  -11.5077  -15.1910 C   0  0  0  0  0  0  0  0  0  0  0  0
   23.6297  -10.0623  -15.3826 C   0  0  1  0  0  0  0  0  0  0  0  0
   23.8849   -9.7183  -16.6937 O   0  0  0  0  0  0  0  0  0  0  0  0
   22.1700   -9.8480  -15.0119 C   0  0  2  0  0  0  0  0  0  0  0  0
   21.3837  -10.5850  -15.9883 N   0  0  0  0  0  0  0  0  0  0  0  0
   21.8300   -8.4170  -15.0051 C   0  0  0  0  0  0  0  0  0  0  0  0
   22.2908   -7.7162  -14.0406 O   0  0  0  0  0  0  0  0  0  0  0  0
   21.0296   -7.8055  -16.0062 N   0  0  0  0  0  0  0  0  0  0  0  0
   20.8018   -6.3829  -15.8968 C   0  0  0  0  0  0  0  0  0  0  0  0
   19.5612   -6.0466  -15.2020 C   0  0  0  0  0  0  0  0  0  0  0  0
   19.1142   -4.7437  -15.1146 O   0  0  0  0  0  0  0  0  0  0  0  0
   18.8787   -6.9517  -14.6696 O   0  0  0  0  0  0  0  0  0  0  0  0
  2  1  1  0
  2  3  1  0
  3  4  2  0
  6  5  1  6
  6  8  1  0
  7  6  1  0
  9  3  1  0
  8  9  1  6
 10  8  1  0
 10 12  1  0
 11 10  2  0
 13 12  1  0
 14 13  1  0
 15 14  1  0
 16 14  2  0
M  END
$$$$
