GTG.pdb
     RDKit          3D

 16 15  0  0  1  0  0  0  0  0999 V2000
   19.6740  -13.5857  -17.2313 N   0  0  0  0  0  0  0  0  0  0  0  0
   19.8548  -12.1977  -17.6036 C   0  0  0  0  0  0  0  0  0  0  0  0
   20.4751  -11.4590  -16.4478 C   0  0  0  0  0  0  0  0  0  0  0  0
   20.0727  -11.6909  -15.2801 O   0  0  0  0  0  0  0  0  0  0  0  0
   23.8457  -11.5139  -15.3580 C   0  0  0  0  0  0  0  0  0  0  0  0
   23.5747  -10.0385  -15.5574 C   0  0  1  0  0  0  0  0  0  0  0  0
   24.1583   -9.6547  -16.7467 O   0  0  0  0  0  0  0  0  0  0  0  0
   22.0817   -9.7475  -15.5361 C   0  0  2  0  0  0  0  0  0  0  0  0
   21.4970  -10.5107  -16.6271 N   0  0  0  0  0  0  0  0  0  0  0  0
   21.8210   -8.3068  -15.6766 C   0  0  0  0  0  0  0  0  0  0  0  0
   21.4358   -7.8965  -16.8242 O   0  0  0  0  0  0  0  0  0  0  0  0
   21.9783   -7.3827  -14.6098 N   0  0  0  0  0  0  0  0  0  0  0  0
   21.6176   -6.0070  -14.8645 C   0  0  0  0  0  0  0  0  0  0  0  0
   21.9024   -5.1161  -13.7420 C   0  0  0  0  0  0  0  0  0  0  0  0
   21.6859   -3.7557  -13.8284 O   0  0  0  0  0  0  0  0  0  0  0  0
   22.3534   -5.5848  -12.6717 O   0  0  0  0  0  0  0  0  0  0  0  0
  2  1  1  0
  2  3  1  0
  3  4  2  0
  6  5  1  6
  6  8  1  0
  7  6  1  0
  9  3  1  0
  8  9  1  6
 10  8  1  0
 10 12  1  0
 11 10  2  0
 13 12  1  0
 14 13  1  0
 15 14  1  0
 16 14  2  0
M  END
$$$$
