GTG.pdb
     RDKit          3D

 16 15  0  0  1  0  0  0  0  0999 V2000
   21.0628  -11.0288  -18.9498 N   0  0  0  0  0  0  0  0  0  0  0  0
   21.3289   -9.6159  -18.7742 C   0  0  0  0  0  0  0  0  0  0  0  0
   21.0180   -9.2336  -17.3517 C   0  0  0  0  0  0  0  0  0  0  0  0
   19.8241   -9.2335  -16.9598 O   0  0  0  0  0  0  0  0  0  0  0  0
   21.9954  -10.8748  -14.3657 C   0  0  0  0  0  0  0  0  0  0  0  0
   22.5077   -9.4633  -14.1783 C   0  0  1  0  0  0  0  0  0  0  0  0
   23.8606   -9.4617  -14.4466 O   0  0  0  0  0  0  0  0  0  0  0  0
   21.7511   -8.4834  -15.0623 C   0  0  2  0  0  0  0  0  0  0  0  0
   22.0224   -8.8733  -16.4367 N   0  0  0  0  0  0  0  0  0  0  0  0
   22.1681   -7.0985  -14.7952 C   0  0  0  0  0  0  0  0  0  0  0  0
   22.9982   -6.5748  -15.6141 O   0  0  0  0  0  0  0  0  0  0  0  0
   21.6926   -6.3450  -13.6895 N   0  0  0  0  0  0  0  0  0  0  0  0
   22.2374   -5.0195  -13.5057 C   0  0  0  0  0  0  0  0  0  0  0  0
   21.3778   -3.9617  -14.0319 C   0  0  0  0  0  0  0  0  0  0  0  0
   21.7062   -2.6286  -13.8904 O   0  0  0  0  0  0  0  0  0  0  0  0
   20.3163   -4.2579  -14.6268 O   0  0  0  0  0  0  0  0  0  0  0  0
  2  1  1  0
  2  3  1  0
  3  4  2  0
  6  5  1  6
  6  8  1  0
  7  6  1  0
  9  3  1  0
  8  9  1  6
 10  8  1  0
 10 12  1  0
 11 10  2  0
 13 12  1  0
 14 13  1  0
 15 14  1  0
 16 14  2  0
M  END
$$$$
