WQV.pdb
     RDKit          3D

 31 32  0  0  1  0  0  0  0  0999 V2000
   23.0312  -17.0787  -17.9201 N   0  0  0  0  0  0  0  0  0  0  0  0
   23.8419  -16.6307  -16.8112 C   0  0  1  0  0  0  0  0  0  0  0  0
   23.0426  -15.7677  -15.8671 C   0  0  0  0  0  0  0  0  0  0  0  0
   23.4310  -14.3555  -16.1015 C   0  0  0  0  0  0  0  0  0  0  0  0
   22.6403  -13.3172  -16.5313 C   0  0  0  0  0  0  0  0  0  0  0  0
   23.3794  -12.2072  -16.6112 N   0  0  0  0  0  0  0  0  0  0  0  0
   24.6643  -12.4594  -16.2451 C   0  0  0  0  0  0  0  0  0  0  0  0
   25.8063  -11.6742  -16.1534 C   0  0  0  0  0  0  0  0  0  0  0  0
   27.0005  -12.2342  -15.7378 C   0  0  0  0  0  0  0  0  0  0  0  0
   27.0229  -13.5860  -15.4194 C   0  0  0  0  0  0  0  0  0  0  0  0
   25.8783  -14.3536  -15.5157 C   0  0  0  0  0  0  0  0  0  0  0  0
   24.6947  -13.8009  -15.9272 C   0  0  0  0  0  0  0  0  0  0  0  0
   24.2453  -17.8545  -16.0294 C   0  0  0  0  0  0  0  0  0  0  0  0
   23.4865  -18.8422  -15.9890 O   0  0  0  0  0  0  0  0  0  0  0  0
   28.5775  -20.8803  -15.7271 N   0  0  0  0  0  0  0  0  0  0  0  0
   28.4556  -21.0526  -14.3277 C   0  0  0  0  0  0  0  0  0  0  0  0
   28.7957  -22.1114  -13.7462 O   0  0  0  0  0  0  0  0  0  0  0  0
   27.9054  -19.9505  -13.4880 C   0  0  0  0  0  0  0  0  0  0  0  0
   27.5127  -18.7588  -14.3181 C   0  0  0  0  0  0  0  0  0  0  0  0
   26.0360  -18.8540  -14.6297 C   0  0  2  0  0  0  0  0  0  0  0  0
   25.4826  -17.7894  -15.3855 N   0  0  0  0  0  0  0  0  0  0  0  0
   25.1757  -19.2897  -13.5596 C   0  0  0  0  0  0  0  0  0  0  0  0
   24.8129  -18.4288  -12.6855 O   0  0  0  0  0  0  0  0  0  0  0  0
   21.7342  -20.8818  -13.5599 C   0  0  0  0  0  0  0  0  0  0  0  0
   22.5948  -21.6533  -12.6162 C   0  0  1  0  0  0  0  0  0  0  0  0
   22.9647  -22.9811  -13.2205 C   0  0  0  0  0  0  0  0  0  0  0  0
   23.8545  -20.9194  -12.2183 C   0  0  2  0  0  0  0  0  0  0  0  0
   24.6783  -20.6069  -13.3720 N   0  0  0  0  0  0  0  0  0  0  0  0
   24.6285  -21.7724  -11.2831 C   0  0  0  0  0  0  0  0  0  0  0  0
   24.2402  -21.9580   -9.9668 O   0  0  0  0  0  0  0  0  0  0  0  0
   25.6721  -22.3566  -11.6693 O   0  0  0  0  0  0  0  0  0  0  0  0
  2  1  1  6
  3  4  1  0
  3  2  1  0
  4  5  2  0
  6  5  1  0
  7  6  1  0
  8  7  2  0
  9  8  1  0
 10  9  2  0
 10 11  1  0
 11 12  2  0
 12  7  1  0
 12  4  1  0
 13  2  1  0
 13 14  2  0
 16 15  1  0
 16 17  2  0
 18 19  1  0
 18 16  1  0
 20 19  1  1
 20 21  1  0
 21 13  1  0
 22 28  1  0
 22 20  1  0
 23 22  2  0
 25 24  1  6
 26 25  1  0
 27 25  1  0
 27 29  1  0
 27 28  1  6
 29 30  1  0
 31 29  2  0
M  END
$$$$
