WQV.pdb
     RDKit          3D

 31 32  0  0  1  0  0  0  0  0999 V2000
   26.8892  -21.0700  -13.7071 N   0  0  0  0  0  0  0  0  0  0  0  0
   27.7687  -20.9101  -12.5721 C   0  0  1  0  0  0  0  0  0  0  0  0
   28.9893  -20.1037  -12.9394 C   0  0  0  0  0  0  0  0  0  0  0  0
   29.9215  -20.9959  -13.6708 C   0  0  0  0  0  0  0  0  0  0  0  0
   30.0612  -21.1486  -15.0292 C   0  0  0  0  0  0  0  0  0  0  0  0
   31.0143  -22.0524  -15.2731 N   0  0  0  0  0  0  0  0  0  0  0  0
   31.5348  -22.5261  -14.1098 C   0  0  0  0  0  0  0  0  0  0  0  0
   32.5230  -23.4549  -13.8102 C   0  0  0  0  0  0  0  0  0  0  0  0
   32.8371  -23.7314  -12.4922 C   0  0  0  0  0  0  0  0  0  0  0  0
   32.1445  -23.0619  -11.4916 C   0  0  0  0  0  0  0  0  0  0  0  0
   31.1641  -22.1407  -11.8059 C   0  0  0  0  0  0  0  0  0  0  0  0
   30.8515  -21.8655  -13.1106 C   0  0  0  0  0  0  0  0  0  0  0  0
   27.0231  -20.1050  -11.5388 C   0  0  0  0  0  0  0  0  0  0  0  0
   26.6930  -18.9296  -11.7888 O   0  0  0  0  0  0  0  0  0  0  0  0
   21.8609  -20.1183   -9.6847 N   0  0  0  0  0  0  0  0  0  0  0  0
   22.6255  -21.0026  -10.4824 C   0  0  0  0  0  0  0  0  0  0  0  0
   22.1034  -21.7803  -11.3175 O   0  0  0  0  0  0  0  0  0  0  0  0
   24.1097  -21.0322  -10.3459 C   0  0  0  0  0  0  0  0  0  0  0  0
   24.5929  -20.0726   -9.2927 C   0  0  0  0  0  0  0  0  0  0  0  0
   26.1024  -20.1422   -9.2333 C   0  0  2  0  0  0  0  0  0  0  0  0
   26.7476  -20.7580  -10.3357 N   0  0  0  0  0  0  0  0  0  0  0  0
   26.6839  -20.5066   -7.9668 C   0  0  0  0  0  0  0  0  0  0  0  0
   26.8357  -21.7498   -7.7054 O   0  0  0  0  0  0  0  0  0  0  0  0
   29.8577  -19.4861   -5.7800 C   0  0  0  0  0  0  0  0  0  0  0  0
   28.5858  -19.3422   -5.0133 C   0  0  1  0  0  0  0  0  0  0  0  0
   28.2186  -17.8880   -4.8878 C   0  0  0  0  0  0  0  0  0  0  0  0
   27.4285  -20.0965   -5.6263 C   0  0  2  0  0  0  0  0  0  0  0  0
   27.1153  -19.6064   -6.9563 N   0  0  0  0  0  0  0  0  0  0  0  0
   26.2388  -19.9356   -4.7546 C   0  0  0  0  0  0  0  0  0  0  0  0
   26.1670  -20.5117   -3.4973 O   0  0  0  0  0  0  0  0  0  0  0  0
   25.2514  -19.2617   -5.1426 O   0  0  0  0  0  0  0  0  0  0  0  0
  2  1  1  6
  3  4  1  0
  3  2  1  0
  4  5  2  0
  6  5  1  0
  7  6  1  0
  8  7  2  0
  9  8  1  0
 10  9  2  0
 10 11  1  0
 11 12  2  0
 12  7  1  0
 12  4  1  0
 13  2  1  0
 13 14  2  0
 16 15  1  0
 16 17  2  0
 18 19  1  0
 18 16  1  0
 20 19  1  1
 20 21  1  0
 21 13  1  0
 22 28  1  0
 22 20  1  0
 23 22  2  0
 25 24  1  6
 26 25  1  0
 27 25  1  0
 27 29  1  0
 27 28  1  6
 29 30  1  0
 31 29  2  0
M  END
$$$$
