WQV.pdb
     RDKit          3D

 31 32  0  0  1  0  0  0  0  0999 V2000
   25.1679  -20.7667   -8.6006 N   0  0  0  0  0  0  0  0  0  0  0  0
   26.4059  -20.3360   -9.2082 C   0  0  1  0  0  0  0  0  0  0  0  0
   27.5940  -20.7614   -8.3820 C   0  0  0  0  0  0  0  0  0  0  0  0
   27.6181  -19.9276   -7.1556 C   0  0  0  0  0  0  0  0  0  0  0  0
   26.9129  -18.7771   -6.8966 C   0  0  0  0  0  0  0  0  0  0  0  0
   27.2231  -18.3388   -5.6733 N   0  0  0  0  0  0  0  0  0  0  0  0
   28.1282  -19.1642   -5.0834 C   0  0  0  0  0  0  0  0  0  0  0  0
   28.7634  -19.1634   -3.8483 C   0  0  0  0  0  0  0  0  0  0  0  0
   29.6593  -20.1674   -3.5294 C   0  0  0  0  0  0  0  0  0  0  0  0
   29.9012  -21.1622   -4.4681 C   0  0  0  0  0  0  0  0  0  0  0  0
   29.2613  -21.1490   -5.6924 C   0  0  0  0  0  0  0  0  0  0  0  0
   28.3737  -20.1555   -6.0101 C   0  0  0  0  0  0  0  0  0  0  0  0
   26.5287  -21.0521  -10.5287 C   0  0  0  0  0  0  0  0  0  0  0  0
   26.7617  -22.2761  -10.5506 O   0  0  0  0  0  0  0  0  0  0  0  0
   24.5538  -24.0789  -13.0254 N   0  0  0  0  0  0  0  0  0  0  0  0
   23.9244  -23.3164  -14.0380 C   0  0  0  0  0  0  0  0  0  0  0  0
   23.4897  -23.8300  -15.0974 O   0  0  0  0  0  0  0  0  0  0  0  0
   23.7583  -21.8449  -13.8660 C   0  0  0  0  0  0  0  0  0  0  0  0
   24.3176  -21.3697  -12.5526 C   0  0  0  0  0  0  0  0  0  0  0  0
   25.6337  -20.6721  -12.8133 C   0  0  2  0  0  0  0  0  0  0  0  0
   26.3667  -20.2641  -11.6700 N   0  0  0  0  0  0  0  0  0  0  0  0
   25.6487  -19.6925  -13.8693 C   0  0  0  0  0  0  0  0  0  0  0  0
   25.0577  -18.5759  -13.6680 O   0  0  0  0  0  0  0  0  0  0  0  0
   28.6260  -17.6558  -17.1389 C   0  0  0  0  0  0  0  0  0  0  0  0
   28.1300  -18.8358  -16.3720 C   0  0  1  0  0  0  0  0  0  0  0  0
   29.0335  -19.1083  -15.1996 C   0  0  0  0  0  0  0  0  0  0  0  0
   26.7102  -18.6761  -15.8795 C   0  0  2  0  0  0  0  0  0  0  0  0
   26.2666  -19.8435  -15.1394 N   0  0  0  0  0  0  0  0  0  0  0  0
   25.8196  -18.4725  -17.0486 C   0  0  0  0  0  0  0  0  0  0  0  0
   25.6889  -17.2397  -17.6656 O   0  0  0  0  0  0  0  0  0  0  0  0
   25.1515  -19.4297  -17.5146 O   0  0  0  0  0  0  0  0  0  0  0  0
  2  1  1  1
  3  4  1  0
  3  2  1  0
  4  5  2  0
  6  5  1  0
  7  6  1  0
  8  7  2  0
  9  8  1  0
 10  9  2  0
 10 11  1  0
 11 12  2  0
 12  7  1  0
 12  4  1  0
 13  2  1  0
 13 14  2  0
 16 15  1  0
 16 17  2  0
 18 19  1  0
 18 16  1  0
 20 19  1  1
 20 21  1  0
 21 13  1  0
 22 28  1  0
 22 20  1  0
 23 22  2  0
 25 24  1  1
 26 25  1  0
 27 25  1  0
 27 29  1  0
 27 28  1  6
 29 30  1  0
 31 29  2  0
M  END
$$$$
