WQV.pdb
     RDKit          3D

 31 32  0  0  1  0  0  0  0  0999 V2000
   28.0257  -20.6853   -9.4086 N   0  0  0  0  0  0  0  0  0  0  0  0
   26.7811  -21.4188   -9.4256 C   0  0  1  0  0  0  0  0  0  0  0  0
   25.9533  -21.1136   -8.2021 C   0  0  0  0  0  0  0  0  0  0  0  0
   26.6975  -20.1256   -7.3835 C   0  0  0  0  0  0  0  0  0  0  0  0
   26.8005  -18.7690   -7.5753 C   0  0  0  0  0  0  0  0  0  0  0  0
   27.5642  -18.2466   -6.6114 N   0  0  0  0  0  0  0  0  0  0  0  0
   27.9900  -19.2163   -5.7588 C   0  0  0  0  0  0  0  0  0  0  0  0
   28.7856  -19.2094   -4.6204 C   0  0  0  0  0  0  0  0  0  0  0  0
   29.0469  -20.3909   -3.9507 C   0  0  0  0  0  0  0  0  0  0  0  0
   28.4974  -21.5673   -4.4439 C   0  0  0  0  0  0  0  0  0  0  0  0
   27.7079  -21.5576   -5.5775 C   0  0  0  0  0  0  0  0  0  0  0  0
   27.4480  -20.3886   -6.2422 C   0  0  0  0  0  0  0  0  0  0  0  0
   25.9879  -20.9260  -10.6086 C   0  0  0  0  0  0  0  0  0  0  0  0
   25.9554  -19.7077  -10.8689 O   0  0  0  0  0  0  0  0  0  0  0  0
   27.0648  -22.7047  -15.4140 N   0  0  0  0  0  0  0  0  0  0  0  0
   25.8949  -22.0656  -15.8890 C   0  0  0  0  0  0  0  0  0  0  0  0
   25.8178  -21.5669  -17.0380 O   0  0  0  0  0  0  0  0  0  0  0  0
   24.6934  -21.9669  -15.0120 C   0  0  0  0  0  0  0  0  0  0  0  0
   24.9090  -22.6524  -13.6903 C   0  0  0  0  0  0  0  0  0  0  0  0
   24.6684  -21.6510  -12.5830 C   0  0  2  0  0  0  0  0  0  0  0  0
   25.3248  -21.9046  -11.3519 N   0  0  0  0  0  0  0  0  0  0  0  0
   23.3154  -21.1869  -12.4130 C   0  0  0  0  0  0  0  0  0  0  0  0
   22.6348  -21.6500  -11.4337 O   0  0  0  0  0  0  0  0  0  0  0  0
   21.8761  -17.3623  -12.9528 C   0  0  0  0  0  0  0  0  0  0  0  0
   21.0027  -18.4451  -13.4924 C   0  0  1  0  0  0  0  0  0  0  0  0
   21.1278  -18.5129  -14.9907 C   0  0  0  0  0  0  0  0  0  0  0  0
   21.3034  -19.8050  -12.9058 C   0  0  2  0  0  0  0  0  0  0  0  0
   22.6452  -20.2467  -13.2403 N   0  0  0  0  0  0  0  0  0  0  0  0
   20.3216  -20.7818  -13.4379 C   0  0  0  0  0  0  0  0  0  0  0  0
   19.0658  -20.9402  -12.8761 O   0  0  0  0  0  0  0  0  0  0  0  0
   20.6107  -21.5008  -14.4273 O   0  0  0  0  0  0  0  0  0  0  0  0
  2  1  1  1
  3  4  1  0
  3  2  1  0
  4  5  2  0
  6  5  1  0
  7  6  1  0
  8  7  2  0
  9  8  1  0
 10  9  2  0
 10 11  1  0
 11 12  2  0
 12  7  1  0
 12  4  1  0
 13  2  1  0
 13 14  2  0
 16 15  1  0
 16 17  2  0
 18 19  1  0
 18 16  1  0
 20 19  1  6
 20 21  1  0
 21 13  1  0
 22 28  1  0
 22 20  1  0
 23 22  2  0
 25 24  1  1
 26 25  1  0
 27 25  1  0
 27 29  1  0
 27 28  1  6
 29 30  1  0
 31 29  2  0
M  END
$$$$
