WQV.pdb
     RDKit          3D

 31 32  0  0  1  0  0  0  0  0999 V2000
   27.5386  -21.6830  -13.8291 N   0  0  0  0  0  0  0  0  0  0  0  0
   26.5642  -21.7747  -12.7663 C   0  0  1  0  0  0  0  0  0  0  0  0
   26.5765  -20.5339  -11.9088 C   0  0  0  0  0  0  0  0  0  0  0  0
   27.6049  -20.7179  -10.8560 C   0  0  0  0  0  0  0  0  0  0  0  0
   28.9255  -21.0646  -11.0099 C   0  0  0  0  0  0  0  0  0  0  0  0
   29.5063  -21.1235   -9.8082 N   0  0  0  0  0  0  0  0  0  0  0  0
   28.6123  -20.8243   -8.8285 C   0  0  0  0  0  0  0  0  0  0  0  0
   28.6984  -20.7443   -7.4445 C   0  0  0  0  0  0  0  0  0  0  0  0
   27.5834  -20.4064   -6.6995 C   0  0  0  0  0  0  0  0  0  0  0  0
   26.3922  -20.1531   -7.3675 C   0  0  0  0  0  0  0  0  0  0  0  0
   26.3228  -20.2368   -8.7447 C   0  0  0  0  0  0  0  0  0  0  0  0
   27.4259  -20.5714   -9.4843 C   0  0  0  0  0  0  0  0  0  0  0  0
   25.2032  -21.8316  -13.4114 C   0  0  0  0  0  0  0  0  0  0  0  0
   24.9221  -21.0445  -14.3358 O   0  0  0  0  0  0  0  0  0  0  0  0
   22.2768  -27.4370  -13.7159 N   0  0  0  0  0  0  0  0  0  0  0  0
   21.4479  -26.5384  -14.4287 C   0  0  0  0  0  0  0  0  0  0  0  0
   20.4235  -26.9133  -15.0493 O   0  0  0  0  0  0  0  0  0  0  0  0
   21.7807  -25.0856  -14.4605 C   0  0  0  0  0  0  0  0  0  0  0  0
   22.9845  -24.7699  -13.6151 C   0  0  0  0  0  0  0  0  0  0  0  0
   23.1905  -23.2718  -13.6101 C   0  0  2  0  0  0  0  0  0  0  0  0
   24.3269  -22.7954  -12.9084 N   0  0  0  0  0  0  0  0  0  0  0  0
   22.0200  -22.4585  -13.4018 C   0  0  0  0  0  0  0  0  0  0  0  0
   21.8341  -21.9504  -12.2425 O   0  0  0  0  0  0  0  0  0  0  0  0
   18.9669  -21.3783  -16.3589 C   0  0  0  0  0  0  0  0  0  0  0  0
   19.4407  -20.5060  -15.2450 C   0  0  1  0  0  0  0  0  0  0  0  0
   18.3456  -19.5632  -14.8240 C   0  0  0  0  0  0  0  0  0  0  0  0
   19.9205  -21.2813  -14.0398 C   0  0  2  0  0  0  0  0  0  0  0  0
   21.0294  -22.1566  -14.3740 N   0  0  0  0  0  0  0  0  0  0  0  0
   18.7959  -22.0964  -13.5181 C   0  0  0  0  0  0  0  0  0  0  0  0
   17.8766  -21.5867  -12.6166 O   0  0  0  0  0  0  0  0  0  0  0  0
   18.6482  -23.2885  -13.8878 O   0  0  0  0  0  0  0  0  0  0  0  0
  2  1  1  6
  3  4  1  0
  3  2  1  0
  4  5  2  0
  6  5  1  0
  7  6  1  0
  8  7  2  0
  9  8  1  0
 10  9  2  0
 10 11  1  0
 11 12  2  0
 12  7  1  0
 12  4  1  0
 13  2  1  0
 13 14  2  0
 16 15  1  0
 16 17  2  0
 18 19  1  0
 18 16  1  0
 20 19  1  1
 20 21  1  0
 21 13  1  0
 22 28  1  0
 22 20  1  0
 23 22  2  0
 25 24  1  6
 26 25  1  0
 27 25  1  0
 27 29  1  0
 27 28  1  6
 29 30  1  0
 31 29  2  0
M  END
$$$$
