WQV.pdb
     RDKit          3D

 31 32  0  0  1  0  0  0  0  0999 V2000
   28.1940  -20.2743  -10.0272 N   0  0  0  0  0  0  0  0  0  0  0  0
   27.0051  -21.0169   -9.6774 C   0  0  1  0  0  0  0  0  0  0  0  0
   26.3543  -20.4502   -8.4403 C   0  0  0  0  0  0  0  0  0  0  0  0
   27.3924  -19.7188   -7.6738 C   0  0  0  0  0  0  0  0  0  0  0  0
   28.2262  -18.7191   -8.1133 C   0  0  0  0  0  0  0  0  0  0  0  0
   29.0133  -18.3303   -7.1062 N   0  0  0  0  0  0  0  0  0  0  0  0
   28.7389  -19.0422   -5.9809 C   0  0  0  0  0  0  0  0  0  0  0  0
   29.2550  -19.0329   -4.6915 C   0  0  0  0  0  0  0  0  0  0  0  0
   28.7547  -19.9017   -3.7389 C   0  0  0  0  0  0  0  0  0  0  0  0
   27.7354  -20.7711   -4.1053 C   0  0  0  0  0  0  0  0  0  0  0  0
   27.2327  -20.7681   -5.3921 C   0  0  0  0  0  0  0  0  0  0  0  0
   27.7268  -19.9085   -6.3370 C   0  0  0  0  0  0  0  0  0  0  0  0
   26.0163  -20.8322  -10.7998 C   0  0  0  0  0  0  0  0  0  0  0  0
   25.8712  -19.7088  -11.3194 O   0  0  0  0  0  0  0  0  0  0  0  0
   23.1978  -25.6540  -15.0108 N   0  0  0  0  0  0  0  0  0  0  0  0
   24.0487  -24.5451  -15.2321 C   0  0  0  0  0  0  0  0  0  0  0  0
   24.9444  -24.5470  -16.1111 O   0  0  0  0  0  0  0  0  0  0  0  0
   23.8974  -23.3148  -14.4039 C   0  0  0  0  0  0  0  0  0  0  0  0
   24.6571  -23.4163  -13.1093 C   0  0  0  0  0  0  0  0  0  0  0  0
   24.5914  -22.0793  -12.4057 C   0  0  2  0  0  0  0  0  0  0  0  0
   25.3110  -21.9729  -11.1885 N   0  0  0  0  0  0  0  0  0  0  0  0
   23.3026  -21.4380  -12.3543 C   0  0  0  0  0  0  0  0  0  0  0  0
   22.6398  -21.4972  -11.2616 O   0  0  0  0  0  0  0  0  0  0  0  0
   22.2127  -17.7946  -13.8120 C   0  0  0  0  0  0  0  0  0  0  0  0
   21.2278  -18.8778  -14.1000 C   0  0  1  0  0  0  0  0  0  0  0  0
   21.3308  -19.3018  -15.5404 C   0  0  0  0  0  0  0  0  0  0  0  0
   21.3931  -20.0891  -13.2116 C   0  0  2  0  0  0  0  0  0  0  0  0
   22.6789  -20.7311  -13.4167 N   0  0  0  0  0  0  0  0  0  0  0  0
   20.3107  -21.0565  -13.5175 C   0  0  0  0  0  0  0  0  0  0  0  0
   19.0405  -20.9307  -12.9803 O   0  0  0  0  0  0  0  0  0  0  0  0
   20.5239  -22.0294  -14.2841 O   0  0  0  0  0  0  0  0  0  0  0  0
  2  1  1  6
  3  4  1  0
  3  2  1  0
  4  5  2  0
  6  5  1  0
  7  6  1  0
  8  7  2  0
  9  8  1  0
 10  9  2  0
 10 11  1  0
 11 12  2  0
 12  7  1  0
 12  4  1  0
 13  2  1  0
 13 14  2  0
 16 15  1  0
 16 17  2  0
 18 19  1  0
 18 16  1  0
 20 19  1  1
 20 21  1  0
 21 13  1  0
 22 28  1  0
 22 20  1  0
 23 22  2  0
 25 24  1  1
 26 25  1  0
 27 25  1  0
 27 29  1  0
 27 28  1  6
 29 30  1  0
 31 29  2  0
M  END
$$$$
