WQV.pdb
     RDKit          3D

 31 32  0  0  1  0  0  0  0  0999 V2000
   27.6217  -21.5587  -11.0886 N   0  0  0  0  0  0  0  0  0  0  0  0
   26.2964  -21.2256  -10.6194 C   0  0  1  0  0  0  0  0  0  0  0  0
   26.3526  -20.2020   -9.5129 C   0  0  0  0  0  0  0  0  0  0  0  0
   27.6494  -20.3610   -8.8107 C   0  0  0  0  0  0  0  0  0  0  0  0
   28.7235  -21.1362   -9.1757 C   0  0  0  0  0  0  0  0  0  0  0  0
   29.6943  -20.9953   -8.2686 N   0  0  0  0  0  0  0  0  0  0  0  0
   29.3108  -20.1382   -7.2853 C   0  0  0  0  0  0  0  0  0  0  0  0
   29.9281  -19.6598   -6.1368 C   0  0  0  0  0  0  0  0  0  0  0  0
   29.2626  -18.7718   -5.3114 C   0  0  0  0  0  0  0  0  0  0  0  0
   27.9771  -18.3788   -5.6607 C   0  0  0  0  0  0  0  0  0  0  0  0
   27.3768  -18.8638   -6.8066 C   0  0  0  0  0  0  0  0  0  0  0  0
   28.0341  -19.7432   -7.6253 C   0  0  0  0  0  0  0  0  0  0  0  0
   25.5675  -20.5723  -11.7655 C   0  0  0  0  0  0  0  0  0  0  0  0
   26.1952  -19.8629  -12.5753 O   0  0  0  0  0  0  0  0  0  0  0  0
   26.3297  -22.7186  -14.4670 N   0  0  0  0  0  0  0  0  0  0  0  0
   25.1637  -23.4808  -14.2170 C   0  0  0  0  0  0  0  0  0  0  0  0
   25.1906  -24.7272  -14.0732 O   0  0  0  0  0  0  0  0  0  0  0  0
   23.8398  -22.8030  -14.1158 C   0  0  0  0  0  0  0  0  0  0  0  0
   23.9631  -21.3113  -14.2680 C   0  0  0  0  0  0  0  0  0  0  0  0
   23.4249  -20.6531  -13.0174 C   0  0  2  0  0  0  0  0  0  0  0  0
   24.1950  -20.8185  -11.8383 N   0  0  0  0  0  0  0  0  0  0  0  0
   22.0082  -20.7687  -12.7840 C   0  0  0  0  0  0  0  0  0  0  0  0
   21.6026  -21.6414  -11.9410 O   0  0  0  0  0  0  0  0  0  0  0  0
   20.1126  -17.6717  -11.7453 C   0  0  0  0  0  0  0  0  0  0  0  0
   19.2343  -18.4639  -12.6548 C   0  0  1  0  0  0  0  0  0  0  0  0
   19.1743  -17.8151  -14.0115 C   0  0  0  0  0  0  0  0  0  0  0  0
   19.6741  -19.9014  -12.8097 C   0  0  2  0  0  0  0  0  0  0  0  0
   20.9934  -19.9953  -13.4082 N   0  0  0  0  0  0  0  0  0  0  0  0
   18.6961  -20.6095  -13.6719 C   0  0  0  0  0  0  0  0  0  0  0  0
   17.4176  -20.9133  -13.2348 O   0  0  0  0  0  0  0  0  0  0  0  0
   19.0094  -20.9562  -14.8386 O   0  0  0  0  0  0  0  0  0  0  0  0
  2  1  1  6
  3  4  1  0
  3  2  1  0
  4  5  2  0
  6  5  1  0
  7  6  1  0
  8  7  2  0
  9  8  1  0
 10  9  2  0
 10 11  1  0
 11 12  2  0
 12  7  1  0
 12  4  1  0
 13  2  1  0
 13 14  2  0
 16 15  1  0
 16 17  2  0
 18 19  1  0
 18 16  1  0
 20 19  1  6
 20 21  1  0
 21 13  1  0
 22 28  1  0
 22 20  1  0
 23 22  2  0
 25 24  1  1
 26 25  1  0
 27 25  1  0
 27 29  1  0
 27 28  1  6
 29 30  1  0
 31 29  2  0
M  END
$$$$
