WQV.pdb
     RDKit          3D

 31 32  0  0  1  0  0  0  0  0999 V2000
   28.0946  -32.0396  -19.1969 N   0  0  0  0  0  0  0  0  0  0  0  0
   28.6554  -30.8887  -18.5275 C   0  0  1  0  0  0  0  0  0  0  0  0
   28.2601  -30.8599  -17.0721 C   0  0  0  0  0  0  0  0  0  0  0  0
   26.7866  -30.7045  -17.0034 C   0  0  0  0  0  0  0  0  0  0  0  0
   25.8624  -31.5851  -16.4951 C   0  0  0  0  0  0  0  0  0  0  0  0
   24.6401  -31.0616  -16.6252 N   0  0  0  0  0  0  0  0  0  0  0  0
   24.7032  -29.8373  -17.2132 C   0  0  0  0  0  0  0  0  0  0  0  0
   23.7471  -28.8946  -17.5685 C   0  0  0  0  0  0  0  0  0  0  0  0
   24.1321  -27.7099  -18.1691 C   0  0  0  0  0  0  0  0  0  0  0  0
   25.4842  -27.4945  -18.4027 C   0  0  0  0  0  0  0  0  0  0  0  0
   26.4231  -28.4421  -18.0434 C   0  0  0  0  0  0  0  0  0  0  0  0
   26.0438  -29.6160  -17.4486 C   0  0  0  0  0  0  0  0  0  0  0  0
   30.1546  -31.0408  -18.5572 C   0  0  0  0  0  0  0  0  0  0  0  0
   30.6599  -32.1538  -18.8001 O   0  0  0  0  0  0  0  0  0  0  0  0
   34.0139  -25.8893  -19.0818 N   0  0  0  0  0  0  0  0  0  0  0  0
   34.8304  -27.0309  -19.2637 C   0  0  0  0  0  0  0  0  0  0  0  0
   36.0451  -26.9498  -19.5686 O   0  0  0  0  0  0  0  0  0  0  0  0
   34.2515  -28.3940  -19.0928 C   0  0  0  0  0  0  0  0  0  0  0  0
   32.8145  -28.3389  -18.6507 C   0  0  0  0  0  0  0  0  0  0  0  0
   32.2756  -29.7504  -18.5861 C   0  0  2  0  0  0  0  0  0  0  0  0
   30.8928  -29.8835  -18.3016 N   0  0  0  0  0  0  0  0  0  0  0  0
   33.0867  -30.7217  -17.8980 C   0  0  0  0  0  0  0  0  0  0  0  0
   33.1376  -30.6723  -16.6206 O   0  0  0  0  0  0  0  0  0  0  0  0
   32.6499  -34.2088  -17.1968 C   0  0  0  0  0  0  0  0  0  0  0  0
   34.0149  -34.0889  -17.7875 C   0  0  1  0  0  0  0  0  0  0  0  0
   33.9933  -34.5130  -19.2313 C   0  0  0  0  0  0  0  0  0  0  0  0
   34.5905  -32.6952  -17.6867 C   0  0  2  0  0  0  0  0  0  0  0  0
   33.8527  -31.7514  -18.5067 N   0  0  0  0  0  0  0  0  0  0  0  0
   36.0044  -32.7294  -18.1351 C   0  0  0  0  0  0  0  0  0  0  0  0
   37.0142  -33.2446  -17.3397 O   0  0  0  0  0  0  0  0  0  0  0  0
   36.3249  -32.2843  -19.2659 O   0  0  0  0  0  0  0  0  0  0  0  0
  2  1  1  6
  3  4  1  0
  3  2  1  0
  4  5  2  0
  6  5  1  0
  7  6  1  0
  8  7  2  0
  9  8  1  0
 10  9  2  0
 10 11  1  0
 11 12  2  0
 12  7  1  0
 12  4  1  0
 13  2  1  0
 13 14  2  0
 16 15  1  0
 16 17  2  0
 18 19  1  0
 18 16  1  0
 20 19  1  1
 20 21  1  0
 21 13  1  0
 22 28  1  0
 22 20  1  0
 23 22  2  0
 25 24  1  6
 26 25  1  0
 27 25  1  0
 27 29  1  0
 27 28  1  6
 29 30  1  0
 31 29  2  0
M  END
$$$$
