WQV.pdb
     RDKit          3D

 31 32  0  0  1  0  0  0  0  0999 V2000
   26.5510  -22.9348  -11.9889 N   0  0  0  0  0  0  0  0  0  0  0  0
   25.8041  -21.7394  -11.6716 C   0  0  1  0  0  0  0  0  0  0  0  0
   26.6988  -20.5250  -11.6649 C   0  0  0  0  0  0  0  0  0  0  0  0
   27.7629  -20.7488  -10.6561 C   0  0  0  0  0  0  0  0  0  0  0  0
   29.0773  -21.0879  -10.8688 C   0  0  0  0  0  0  0  0  0  0  0  0
   29.6991  -21.1928   -9.6909 N   0  0  0  0  0  0  0  0  0  0  0  0
   28.8395  -20.9328   -8.6701 C   0  0  0  0  0  0  0  0  0  0  0  0
   28.9732  -20.9065   -7.2879 C   0  0  0  0  0  0  0  0  0  0  0  0
   27.8847  -20.5989   -6.4924 C   0  0  0  0  0  0  0  0  0  0  0  0
   26.6713  -20.3211   -7.1086 C   0  0  0  0  0  0  0  0  0  0  0  0
   26.5544  -20.3514   -8.4848 C   0  0  0  0  0  0  0  0  0  0  0  0
   27.6313  -20.6558   -9.2744 C   0  0  0  0  0  0  0  0  0  0  0  0
   24.8080  -21.5267  -12.7825 C   0  0  0  0  0  0  0  0  0  0  0  0
   25.0958  -21.8663  -13.9465 O   0  0  0  0  0  0  0  0  0  0  0  0
   19.2572  -23.4649  -11.8853 N   0  0  0  0  0  0  0  0  0  0  0  0
   19.7579  -22.4732  -11.0087 C   0  0  0  0  0  0  0  0  0  0  0  0
   19.2999  -22.3009   -9.8530 O   0  0  0  0  0  0  0  0  0  0  0  0
   20.8715  -21.5852  -11.4489 C   0  0  0  0  0  0  0  0  0  0  0  0
   21.3460  -21.9297  -12.8344 C   0  0  0  0  0  0  0  0  0  0  0  0
   22.4332  -20.9551  -13.2278 C   0  0  2  0  0  0  0  0  0  0  0  0
   23.5937  -20.9447  -12.4130 N   0  0  0  0  0  0  0  0  0  0  0  0
   22.0086  -19.6350  -13.6176 C   0  0  0  0  0  0  0  0  0  0  0  0
   21.8997  -18.7409  -12.7090 O   0  0  0  0  0  0  0  0  0  0  0  0
   22.1583  -18.2923  -17.7408 C   0  0  0  0  0  0  0  0  0  0  0  0
   22.6807  -17.6216  -16.5145 C   0  0  1  0  0  0  0  0  0  0  0  0
   22.8606  -16.1488  -16.7667 C   0  0  0  0  0  0  0  0  0  0  0  0
   21.7971  -17.8149  -15.3038 C   0  0  2  0  0  0  0  0  0  0  0  0
   21.6915  -19.2155  -14.9371 N   0  0  0  0  0  0  0  0  0  0  0  0
   20.4446  -17.2881  -15.6111 C   0  0  0  0  0  0  0  0  0  0  0  0
   20.1609  -15.9329  -15.5821 O   0  0  0  0  0  0  0  0  0  0  0  0
   19.5086  -18.0717  -15.9100 O   0  0  0  0  0  0  0  0  0  0  0  0
  2  1  1  6
  3  4  1  0
  3  2  1  0
  4  5  2  0
  6  5  1  0
  7  6  1  0
  8  7  2  0
  9  8  1  0
 10  9  2  0
 10 11  1  0
 11 12  2  0
 12  7  1  0
 12  4  1  0
 13  2  1  0
 13 14  2  0
 16 15  1  0
 16 17  2  0
 18 19  1  0
 18 16  1  0
 20 19  1  1
 20 21  1  0
 21 13  1  0
 22 28  1  0
 22 20  1  0
 23 22  2  0
 25 24  1  6
 26 25  1  0
 27 25  1  0
 27 29  1  0
 27 28  1  6
 29 30  1  0
 31 29  2  0
M  END
$$$$
