WQV.pdb
     RDKit          3D

 31 32  0  0  1  0  0  0  0  0999 V2000
   27.6903  -22.6467  -12.1372 N   0  0  0  0  0  0  0  0  0  0  0  0
   26.6395  -21.7163  -11.7942 C   0  0  1  0  0  0  0  0  0  0  0  0
   27.1903  -20.3284  -11.5806 C   0  0  0  0  0  0  0  0  0  0  0  0
   28.0938  -20.3729  -10.4051 C   0  0  0  0  0  0  0  0  0  0  0  0
   29.4381  -20.6561  -10.3772 C   0  0  0  0  0  0  0  0  0  0  0  0
   29.8740  -20.5896   -9.1161 N   0  0  0  0  0  0  0  0  0  0  0  0
   28.8570  -20.2661   -8.2737 C   0  0  0  0  0  0  0  0  0  0  0  0
   28.7742  -20.0749   -6.9005 C   0  0  0  0  0  0  0  0  0  0  0  0
   27.5641  -19.7433   -6.3190 C   0  0  0  0  0  0  0  0  0  0  0  0
   26.4503  -19.6093   -7.1379 C   0  0  0  0  0  0  0  0  0  0  0  0
   26.5490  -19.8027   -8.5022 C   0  0  0  0  0  0  0  0  0  0  0  0
   27.7465  -20.1312   -9.0800 C   0  0  0  0  0  0  0  0  0  0  0  0
   25.7154  -21.6282  -12.9816 C   0  0  0  0  0  0  0  0  0  0  0  0
   26.1893  -21.5246  -14.1295 O   0  0  0  0  0  0  0  0  0  0  0  0
   24.5799  -25.2980  -14.8819 N   0  0  0  0  0  0  0  0  0  0  0  0
   23.9191  -24.5566  -15.8901 C   0  0  0  0  0  0  0  0  0  0  0  0
   24.0510  -24.8124  -17.1116 O   0  0  0  0  0  0  0  0  0  0  0  0
   23.0263  -23.4231  -15.5151 C   0  0  0  0  0  0  0  0  0  0  0  0
   22.9466  -23.2450  -14.0233 C   0  0  0  0  0  0  0  0  0  0  0  0
   23.3425  -21.8252  -13.6856 C   0  0  2  0  0  0  0  0  0  0  0  0
   24.3487  -21.6706  -12.6984 N   0  0  0  0  0  0  0  0  0  0  0  0
   22.2730  -20.8696  -13.5521 C   0  0  0  0  0  0  0  0  0  0  0  0
   21.7613  -20.6914  -12.3931 O   0  0  0  0  0  0  0  0  0  0  0  0
   21.7497  -17.2278  -15.4758 C   0  0  0  0  0  0  0  0  0  0  0  0
   20.5350  -18.0897  -15.3861 C   0  0  1  0  0  0  0  0  0  0  0  0
   20.2613  -18.7389  -16.7161 C   0  0  0  0  0  0  0  0  0  0  0  0
   20.6362  -19.1582  -14.3222 C   0  0  2  0  0  0  0  0  0  0  0  0
   21.7163  -20.0878  -14.5992 N   0  0  0  0  0  0  0  0  0  0  0  0
   19.3538  -19.9025  -14.2698 C   0  0  0  0  0  0  0  0  0  0  0  0
   18.3078  -19.5055  -13.4537 O   0  0  0  0  0  0  0  0  0  0  0  0
   19.1831  -20.9278  -14.9763 O   0  0  0  0  0  0  0  0  0  0  0  0
  2  1  1  6
  3  4  1  0
  3  2  1  0
  4  5  2  0
  6  5  1  0
  7  6  1  0
  8  7  2  0
  9  8  1  0
 10  9  2  0
 10 11  1  0
 11 12  2  0
 12  7  1  0
 12  4  1  0
 13  2  1  0
 13 14  2  0
 16 15  1  0
 16 17  2  0
 18 19  1  0
 18 16  1  0
 20 19  1  1
 20 21  1  0
 21 13  1  0
 22 28  1  0
 22 20  1  0
 23 22  2  0
 25 24  1  6
 26 25  1  0
 27 25  1  0
 27 29  1  0
 27 28  1  6
 29 30  1  0
 31 29  2  0
M  END
$$$$
