WQV.pdb
     RDKit          3D

 31 32  0  0  1  0  0  0  0  0999 V2000
   21.3002  -23.1335  -13.9144 N   0  0  0  0  0  0  0  0  0  0  0  0
   20.2820  -22.6556  -13.0076 C   0  0  1  0  0  0  0  0  0  0  0  0
   19.1363  -22.0256  -13.7597 C   0  0  0  0  0  0  0  0  0  0  0  0
   19.6514  -20.8140  -14.4429 C   0  0  0  0  0  0  0  0  0  0  0  0
   20.6273  -19.9471  -14.0140 C   0  0  0  0  0  0  0  0  0  0  0  0
   20.7916  -18.9855  -14.9269 N   0  0  0  0  0  0  0  0  0  0  0  0
   19.9481  -19.1721  -15.9768 C   0  0  0  0  0  0  0  0  0  0  0  0
   19.7207  -18.4782  -17.1583 C   0  0  0  0  0  0  0  0  0  0  0  0
   18.7683  -18.9288  -18.0540 C   0  0  0  0  0  0  0  0  0  0  0  0
   18.0564  -20.0796  -17.7408 C   0  0  0  0  0  0  0  0  0  0  0  0
   18.2944  -20.7586  -16.5615 C   0  0  0  0  0  0  0  0  0  0  0  0
   19.2371  -20.3139  -15.6731 C   0  0  0  0  0  0  0  0  0  0  0  0
   19.7143  -23.8585  -12.2988 C   0  0  0  0  0  0  0  0  0  0  0  0
   19.5289  -24.9182  -12.9279 O   0  0  0  0  0  0  0  0  0  0  0  0
   18.9689  -25.0990   -5.9353 N   0  0  0  0  0  0  0  0  0  0  0  0
   18.1320  -24.1190   -6.5202 C   0  0  0  0  0  0  0  0  0  0  0  0
   17.2581  -23.5005   -5.8655 O   0  0  0  0  0  0  0  0  0  0  0  0
   18.2723  -23.7890   -7.9672 C   0  0  0  0  0  0  0  0  0  0  0  0
   19.3871  -24.5670   -8.6118 C   0  0  0  0  0  0  0  0  0  0  0  0
   19.0608  -24.7528  -10.0767 C   0  0  2  0  0  0  0  0  0  0  0  0
   19.4278  -23.6914  -10.9424 N   0  0  0  0  0  0  0  0  0  0  0  0
   17.7687  -25.3091  -10.3863 C   0  0  0  0  0  0  0  0  0  0  0  0
   16.8004  -24.5035  -10.6105 O   0  0  0  0  0  0  0  0  0  0  0  0
   16.6555  -27.6251  -13.2580 C   0  0  0  0  0  0  0  0  0  0  0  0
   16.1653  -28.1572  -11.9531 C   0  0  1  0  0  0  0  0  0  0  0  0
   17.0274  -29.3070  -11.5060 C   0  0  0  0  0  0  0  0  0  0  0  0
   16.1204  -27.1145  -10.8601 C   0  0  2  0  0  0  0  0  0  0  0  0
   17.4531  -26.6915  -10.4697 N   0  0  0  0  0  0  0  0  0  0  0  0
   15.4261  -27.6884   -9.6813 C   0  0  0  0  0  0  0  0  0  0  0  0
   14.0734  -27.9846   -9.6986 O   0  0  0  0  0  0  0  0  0  0  0  0
   16.0591  -27.9234   -8.6212 O   0  0  0  0  0  0  0  0  0  0  0  0
  2  1  1  6
  3  4  1  0
  3  2  1  0
  4  5  2  0
  6  5  1  0
  7  6  1  0
  8  7  2  0
  9  8  1  0
 10  9  2  0
 10 11  1  0
 11 12  2  0
 12  7  1  0
 12  4  1  0
 13  2  1  0
 13 14  2  0
 16 15  1  0
 16 17  2  0
 18 19  1  0
 18 16  1  0
 20 19  1  1
 20 21  1  0
 21 13  1  0
 22 28  1  0
 22 20  1  0
 23 22  2  0
 25 24  1  6
 26 25  1  0
 27 25  1  0
 27 29  1  0
 27 28  1  1
 29 30  1  0
 31 29  2  0
M  END
$$$$
