WQV.pdb
     RDKit          3D

 31 32  0  0  1  0  0  0  0  0999 V2000
   28.0052  -21.4955  -10.3244 N   0  0  0  0  0  0  0  0  0  0  0  0
   26.7831  -20.8907   -9.8469 C   0  0  1  0  0  0  0  0  0  0  0  0
   27.0736  -19.7217   -8.9390 C   0  0  0  0  0  0  0  0  0  0  0  0
   28.1487  -20.1290   -8.0018 C   0  0  0  0  0  0  0  0  0  0  0  0
   29.1446  -21.0543   -8.2020 C   0  0  0  0  0  0  0  0  0  0  0  0
   29.9071  -21.1216   -7.1069 N   0  0  0  0  0  0  0  0  0  0  0  0
   29.4567  -20.2610   -6.1555 C   0  0  0  0  0  0  0  0  0  0  0  0
   29.8779  -19.9485   -4.8695 C   0  0  0  0  0  0  0  0  0  0  0  0
   29.1943  -19.0029   -4.1272 C   0  0  0  0  0  0  0  0  0  0  0  0
   28.0898  -18.3841   -4.6986 C   0  0  0  0  0  0  0  0  0  0  0  0
   27.6834  -18.7059   -5.9792 C   0  0  0  0  0  0  0  0  0  0  0  0
   28.3591  -19.6422   -6.7158 C   0  0  0  0  0  0  0  0  0  0  0  0
   26.0643  -20.3283  -11.0463 C   0  0  0  0  0  0  0  0  0  0  0  0
   26.7076  -19.7297  -11.9300 O   0  0  0  0  0  0  0  0  0  0  0  0
   25.4475  -24.3965  -14.3626 N   0  0  0  0  0  0  0  0  0  0  0  0
   24.2754  -23.7518  -14.8246 C   0  0  0  0  0  0  0  0  0  0  0  0
   23.6574  -24.1291  -15.8496 O   0  0  0  0  0  0  0  0  0  0  0  0
   23.7321  -22.5772  -14.0847 C   0  0  0  0  0  0  0  0  0  0  0  0
   24.5476  -22.2627  -12.8601 C   0  0  0  0  0  0  0  0  0  0  0  0
   23.9834  -21.0183  -12.2119 C   0  0  2  0  0  0  0  0  0  0  0  0
   24.6825  -20.5263  -11.0805 N   0  0  0  0  0  0  0  0  0  0  0  0
   22.5525  -20.9617  -12.0565 C   0  0  0  0  0  0  0  0  0  0  0  0
   22.0142  -21.6746  -11.1406 O   0  0  0  0  0  0  0  0  0  0  0  0
   20.4039  -17.4663  -12.6533 C   0  0  0  0  0  0  0  0  0  0  0  0
   19.6917  -18.7267  -13.0143 C   0  0  1  0  0  0  0  0  0  0  0  0
   19.6682  -18.8981  -14.5094 C   0  0  0  0  0  0  0  0  0  0  0  0
   20.2967  -19.9586  -12.3816 C   0  0  2  0  0  0  0  0  0  0  0  0
   21.6587  -20.1778  -12.8337 N   0  0  0  0  0  0  0  0  0  0  0  0
   19.4682  -21.1356  -12.7413 C   0  0  0  0  0  0  0  0  0  0  0  0
   18.2718  -21.4139  -12.1017 O   0  0  0  0  0  0  0  0  0  0  0  0
   19.8382  -21.9213  -13.6498 O   0  0  0  0  0  0  0  0  0  0  0  0
  2  1  1  6
  3  4  1  0
  3  2  1  0
  4  5  2  0
  6  5  1  0
  7  6  1  0
  8  7  2  0
  9  8  1  0
 10  9  2  0
 10 11  1  0
 11 12  2  0
 12  7  1  0
 12  4  1  0
 13  2  1  0
 13 14  2  0
 16 15  1  0
 16 17  2  0
 18 19  1  0
 18 16  1  0
 20 19  1  1
 20 21  1  0
 21 13  1  0
 22 28  1  0
 22 20  1  0
 23 22  2  0
 25 24  1  6
 26 25  1  0
 27 25  1  0
 27 29  1  0
 27 28  1  6
 29 30  1  0
 31 29  2  0
M  END
$$$$
