WQV.pdb
     RDKit          3D

 31 32  0  0  1  0  0  0  0  0999 V2000
   28.1923  -21.5165  -15.9033 N   0  0  0  0  0  0  0  0  0  0  0  0
   28.3750  -21.5305  -14.4702 C   0  0  1  0  0  0  0  0  0  0  0  0
   29.5661  -20.6982  -14.0658 C   0  0  0  0  0  0  0  0  0  0  0  0
   30.6898  -21.6219  -13.7757 C   0  0  0  0  0  0  0  0  0  0  0  0
   31.4296  -22.3649  -14.6637 C   0  0  0  0  0  0  0  0  0  0  0  0
   32.3479  -23.0647  -13.9916 N   0  0  0  0  0  0  0  0  0  0  0  0
   32.2561  -22.8191  -12.6575 C   0  0  0  0  0  0  0  0  0  0  0  0
   32.9555  -23.2773  -11.5485 C   0  0  0  0  0  0  0  0  0  0  0  0
   32.6182  -22.8308  -10.2838 C   0  0  0  0  0  0  0  0  0  0  0  0
   31.5741  -21.9235  -10.1582 C   0  0  0  0  0  0  0  0  0  0  0  0
   30.8881  -21.4772  -11.2712 C   0  0  0  0  0  0  0  0  0  0  0  0
   31.2206  -21.9182  -12.5245 C   0  0  0  0  0  0  0  0  0  0  0  0
   27.1669  -20.8680  -13.8591 C   0  0  0  0  0  0  0  0  0  0  0  0
   26.9559  -19.6565  -14.0610 O   0  0  0  0  0  0  0  0  0  0  0  0
   21.4024  -22.1696  -13.9213 N   0  0  0  0  0  0  0  0  0  0  0  0
   22.2498  -21.3075  -14.6571 C   0  0  0  0  0  0  0  0  0  0  0  0
   21.9211  -20.8251  -15.7680 O   0  0  0  0  0  0  0  0  0  0  0  0
   23.5898  -20.9419  -14.1156 C   0  0  0  0  0  0  0  0  0  0  0  0
   23.8706  -21.6311  -12.8080 C   0  0  0  0  0  0  0  0  0  0  0  0
   25.2429  -21.2142  -12.3285 C   0  0  2  0  0  0  0  0  0  0  0  0
   26.3445  -21.6889  -13.0847 N   0  0  0  0  0  0  0  0  0  0  0  0
   25.4741  -21.2631  -10.9075 C   0  0  0  0  0  0  0  0  0  0  0  0
   25.9786  -22.3294  -10.4124 O   0  0  0  0  0  0  0  0  0  0  0  0
   25.9873  -19.6303   -6.3238 C   0  0  0  0  0  0  0  0  0  0  0  0
   25.9243  -19.3891   -7.7949 C   0  0  1  0  0  0  0  0  0  0  0  0
   27.3118  -19.2109   -8.3502 C   0  0  0  0  0  0  0  0  0  0  0  0
   25.2227  -20.4921   -8.5531 C   0  0  2  0  0  0  0  0  0  0  0  0
   25.1929  -20.2250   -9.9798 N   0  0  0  0  0  0  0  0  0  0  0  0
   23.8320  -20.6075   -8.0495 C   0  0  0  0  0  0  0  0  0  0  0  0
   23.5233  -21.3222   -6.9042 O   0  0  0  0  0  0  0  0  0  0  0  0
   22.8852  -20.0504   -8.6600 O   0  0  0  0  0  0  0  0  0  0  0  0
  2  1  1  6
  3  4  1  0
  3  2  1  0
  4  5  2  0
  6  5  1  0
  7  6  1  0
  8  7  2  0
  9  8  1  0
 10  9  2  0
 10 11  1  0
 11 12  2  0
 12  7  1  0
 12  4  1  0
 13  2  1  0
 13 14  2  0
 16 15  1  0
 16 17  2  0
 18 19  1  0
 18 16  1  0
 20 19  1  1
 20 21  1  0
 21 13  1  0
 22 28  1  0
 22 20  1  0
 23 22  2  0
 25 24  1  1
 26 25  1  0
 27 25  1  0
 27 29  1  0
 27 28  1  6
 29 30  1  0
 31 29  2  0
M  END
$$$$
