QDL.pdb
     RDKit          3D

 26 25  0  0  1  0  0  0  0  0999 V2000
    8.5539  -13.5261   16.8586 N   0  0  0  0  0  0  0  0  0  0  0  0
    8.7355  -13.0517   18.1804 C   0  0  0  0  0  0  0  0  0  0  0  0
    9.9358  -12.9331   18.5797 O   0  0  0  0  0  0  0  0  0  0  0  0
    7.5945  -12.7056   19.0692 C   0  0  0  0  0  0  0  0  0  0  0  0
    7.7679  -13.4511   20.3652 C   0  0  0  0  0  0  0  0  0  0  0  0
    7.6847  -14.9352   20.2008 C   0  0  2  0  0  0  0  0  0  0  0  0
    6.4066  -15.3635   19.7242 N   0  0  0  0  0  0  0  0  0  0  0  0
    7.9947  -15.6083   21.4910 C   0  0  0  0  0  0  0  0  0  0  0  0
    7.0268  -16.0162   22.2071 O   0  0  0  0  0  0  0  0  0  0  0  0
    9.3257  -15.8054   21.9399 N   0  0  0  0  0  0  0  0  0  0  0  0
    9.5705  -16.6473   23.0953 C   0  0  1  0  0  0  0  0  0  0  0  0
   10.7417  -17.5439   22.7861 C   0  0  0  0  0  0  0  0  0  0  0  0
   11.0794  -18.4413   23.9029 C   0  0  0  0  0  0  0  0  0  0  0  0
   10.2356  -19.0252   24.6373 O   0  0  0  0  0  0  0  0  0  0  0  0
    9.7372  -15.8459   24.3268 C   0  0  0  0  0  0  0  0  0  0  0  0
   10.7904  -15.1953   24.5120 O   0  0  0  0  0  0  0  0  0  0  0  0
   12.4497  -18.6471   24.1505 O   0  0  0  0  0  0  0  0  0  0  0  0
    8.5558  -12.0637   26.1525 C   0  0  0  0  0  0  0  0  0  0  0  0
    7.4105  -13.0747   25.9733 C   0  0  2  0  0  0  0  0  0  0  0  0
    6.1362  -12.3463   26.2640 C   0  0  0  0  0  0  0  0  0  0  0  0
    7.7040  -14.1966   26.8990 C   0  0  0  0  0  0  0  0  0  0  0  0
    8.9136  -15.0156   26.5753 C   0  0  2  0  0  0  0  0  0  0  0  0
    8.7209  -15.7814   25.3404 N   0  0  0  0  0  0  0  0  0  0  0  0
    9.3626  -15.9141   27.6595 C   0  0  0  0  0  0  0  0  0  0  0  0
   10.0069  -15.4358   28.8028 O   0  0  0  0  0  0  0  0  0  0  0  0
    9.1696  -17.1395   27.5693 O   0  0  0  0  0  0  0  0  0  0  0  0
  1  2  1  0
  2  3  2  0
  4  5  1  0
  4  2  1  0
  6  7  1  1
  6  5  1  0
  8  6  1  0
  8 10  1  0
  9  8  2  0
 11 10  1  0
 11 12  1  6
 13 12  1  0
 13 17  1  0
 14 13  2  0
 15 11  1  0
 16 15  2  0
 19 18  1  1
 20 19  1  0
 21 19  1  0
 22 21  1  1
 22 23  1  0
 23 15  1  0
 24 25  1  0
 24 22  1  0
 26 24  2  0
M  END
$$$$
