QDL.pdb
     RDKit          3D

 26 25  0  0  1  0  0  0  0  0999 V2000
    6.7011  -22.8443   21.7207 N   0  0  0  0  0  0  0  0  0  0  0  0
    5.8572  -21.7263   21.5132 C   0  0  0  0  0  0  0  0  0  0  0  0
    5.6921  -21.3571   20.3088 O   0  0  0  0  0  0  0  0  0  0  0  0
    5.1907  -21.0093   22.6327 C   0  0  0  0  0  0  0  0  0  0  0  0
    6.1998  -20.8185   23.7330 C   0  0  0  0  0  0  0  0  0  0  0  0
    6.2223  -19.4226   24.2693 C   0  0  2  0  0  0  0  0  0  0  0  0
    5.3260  -18.5531   23.5731 N   0  0  0  0  0  0  0  0  0  0  0  0
    7.6049  -18.8766   24.2094 C   0  0  0  0  0  0  0  0  0  0  0  0
    8.5516  -19.5757   24.6902 O   0  0  0  0  0  0  0  0  0  0  0  0
    7.8937  -17.6112   23.6370 N   0  0  0  0  0  0  0  0  0  0  0  0
    9.2651  -17.1401   23.6050 C   0  0  1  0  0  0  0  0  0  0  0  0
    9.7019  -17.0573   22.1650 C   0  0  0  0  0  0  0  0  0  0  0  0
   11.0757  -16.5499   22.0174 C   0  0  0  0  0  0  0  0  0  0  0  0
   12.0348  -16.8353   22.7863 O   0  0  0  0  0  0  0  0  0  0  0  0
    9.4232  -15.8747   24.3536 C   0  0  0  0  0  0  0  0  0  0  0  0
    9.2607  -14.7788   23.7712 O   0  0  0  0  0  0  0  0  0  0  0  0
   11.3123  -15.6849   20.9325 O   0  0  0  0  0  0  0  0  0  0  0  0
    8.3696  -12.3758   26.0742 C   0  0  0  0  0  0  0  0  0  0  0  0
    7.2902  -13.4408   25.8150 C   0  0  2  0  0  0  0  0  0  0  0  0
    6.0002  -12.8902   26.3360 C   0  0  0  0  0  0  0  0  0  0  0  0
    7.7555  -14.6725   26.4991 C   0  0  0  0  0  0  0  0  0  0  0  0
    9.2368  -14.8198   26.6506 C   0  0  2  0  0  0  0  0  0  0  0  0
    9.7624  -15.8496   25.7496 N   0  0  0  0  0  0  0  0  0  0  0  0
    9.6966  -15.0772   28.0314 C   0  0  0  0  0  0  0  0  0  0  0  0
   10.1265  -14.0507   28.8756 O   0  0  0  0  0  0  0  0  0  0  0  0
    9.7085  -16.2392   28.4745 O   0  0  0  0  0  0  0  0  0  0  0  0
  1  2  1  0
  2  3  2  0
  4  5  1  0
  4  2  1  0
  6  7  1  6
  6  5  1  0
  8  6  1  0
  8 10  1  0
  9  8  2  0
 11 10  1  0
 11 12  1  6
 13 12  1  0
 13 17  1  0
 14 13  2  0
 15 11  1  0
 16 15  2  0
 19 18  1  1
 20 19  1  0
 21 19  1  0
 22 21  1  1
 22 23  1  0
 23 15  1  0
 24 25  1  0
 24 22  1  0
 26 24  2  0
M  END
$$$$
