QDL.pdb
     RDKit          3D

 26 25  0  0  1  0  0  0  0  0999 V2000
    6.0566  -20.5222   18.6629 N   0  0  0  0  0  0  0  0  0  0  0  0
    6.8143  -19.5110   18.0239 C   0  0  0  0  0  0  0  0  0  0  0  0
    7.0657  -19.6855   16.7908 O   0  0  0  0  0  0  0  0  0  0  0  0
    7.2989  -18.3016   18.7410 C   0  0  0  0  0  0  0  0  0  0  0  0
    6.8028  -18.3689   20.1604 C   0  0  0  0  0  0  0  0  0  0  0  0
    7.0566  -17.1108   20.9281 C   0  0  2  0  0  0  0  0  0  0  0  0
    7.2171  -15.9725   20.0780 N   0  0  0  0  0  0  0  0  0  0  0  0
    8.2598  -17.2733   21.7880 C   0  0  0  0  0  0  0  0  0  0  0  0
    8.2777  -18.2277   22.6274 O   0  0  0  0  0  0  0  0  0  0  0  0
    9.3758  -16.4022   21.6987 N   0  0  0  0  0  0  0  0  0  0  0  0
   10.4813  -16.5636   22.6237 C   0  0  1  0  0  0  0  0  0  0  0  0
   11.7463  -16.1334   21.9266 C   0  0  0  0  0  0  0  0  0  0  0  0
   12.9502  -16.3686   22.7402 C   0  0  0  0  0  0  0  0  0  0  0  0
   13.1013  -17.3331   23.5397 O   0  0  0  0  0  0  0  0  0  0  0  0
   10.2301  -15.8596   23.8995 C   0  0  0  0  0  0  0  0  0  0  0  0
   11.1716  -15.6603   24.6999 O   0  0  0  0  0  0  0  0  0  0  0  0
   13.9952  -15.4362   22.5991 O   0  0  0  0  0  0  0  0  0  0  0  0
    5.5904  -12.8055   26.5559 C   0  0  0  0  0  0  0  0  0  0  0  0
    7.1073  -13.0436   26.6476 C   0  0  2  0  0  0  0  0  0  0  0  0
    7.7518  -11.7008   26.7905 C   0  0  0  0  0  0  0  0  0  0  0  0
    7.4831  -13.7794   25.4151 C   0  0  0  0  0  0  0  0  0  0  0  0
    8.6961  -14.6498   25.5141 C   0  0  2  0  0  0  0  0  0  0  0  0
    8.9246  -15.3852   24.2668 N   0  0  0  0  0  0  0  0  0  0  0  0
    8.6959  -15.5864   26.6574 C   0  0  0  0  0  0  0  0  0  0  0  0
    8.1451  -16.8670   26.5697 O   0  0  0  0  0  0  0  0  0  0  0  0
    9.1979  -15.2413   27.7417 O   0  0  0  0  0  0  0  0  0  0  0  0
  1  2  1  0
  2  3  2  0
  4  5  1  0
  4  2  1  0
  6  7  1  6
  6  5  1  0
  8  6  1  0
  8 10  1  0
  9  8  2  0
 11 10  1  0
 11 12  1  6
 13 12  1  0
 13 17  1  0
 14 13  2  0
 15 11  1  0
 16 15  2  0
 19 18  1  6
 20 19  1  0
 21 19  1  0
 22 21  1  6
 22 23  1  0
 23 15  1  0
 24 25  1  0
 24 22  1  0
 26 24  2  0
M  END
$$$$
