QDL.pdb
     RDKit          3D

 26 25  0  0  1  0  0  0  0  0999 V2000
   10.6674  -13.2640   18.6109 N   0  0  0  0  0  0  0  0  0  0  0  0
    9.3113  -12.9732   18.3253 C   0  0  0  0  0  0  0  0  0  0  0  0
    8.9824  -12.9543   17.0982 O   0  0  0  0  0  0  0  0  0  0  0  0
    8.3104  -12.7017   19.3911 C   0  0  0  0  0  0  0  0  0  0  0  0
    7.3473  -13.8575   19.4341 C   0  0  0  0  0  0  0  0  0  0  0  0
    8.0227  -15.1856   19.3058 C   0  0  2  0  0  0  0  0  0  0  0  0
    7.2999  -16.0897   18.4666 N   0  0  0  0  0  0  0  0  0  0  0  0
    8.2166  -15.7901   20.6513 C   0  0  0  0  0  0  0  0  0  0  0  0
    7.1882  -16.0358   21.3569 O   0  0  0  0  0  0  0  0  0  0  0  0
    9.5033  -16.0965   21.1639 N   0  0  0  0  0  0  0  0  0  0  0  0
    9.6253  -16.6451   22.5010 C   0  0  1  0  0  0  0  0  0  0  0  0
   10.8289  -17.5516   22.5310 C   0  0  0  0  0  0  0  0  0  0  0  0
   11.0522  -18.1541   23.8552 C   0  0  0  0  0  0  0  0  0  0  0  0
   12.1248  -18.0661   24.5142 O   0  0  0  0  0  0  0  0  0  0  0  0
    9.6513  -15.5795   23.5259 C   0  0  0  0  0  0  0  0  0  0  0  0
   10.5268  -14.6863   23.4776 O   0  0  0  0  0  0  0  0  0  0  0  0
    9.9768  -18.8764   24.4058 O   0  0  0  0  0  0  0  0  0  0  0  0
    6.9718  -13.1325   27.7375 C   0  0  0  0  0  0  0  0  0  0  0  0
    7.3679  -12.4595   26.4122 C   0  0  2  0  0  0  0  0  0  0  0  0
    6.2988  -11.4627   26.0926 C   0  0  0  0  0  0  0  0  0  0  0  0
    7.5058  -13.5545   25.4204 C   0  0  0  0  0  0  0  0  0  0  0  0
    8.7023  -14.4386   25.5805 C   0  0  2  0  0  0  0  0  0  0  0  0
    8.6947  -15.5250   24.5965 N   0  0  0  0  0  0  0  0  0  0  0  0
    8.8880  -14.9911   26.9386 C   0  0  0  0  0  0  0  0  0  0  0  0
    9.6779  -14.3547   27.8989 O   0  0  0  0  0  0  0  0  0  0  0  0
    8.3308  -16.0568   27.2560 O   0  0  0  0  0  0  0  0  0  0  0  0
  1  2  1  0
  2  3  2  0
  4  5  1  0
  4  2  1  0
  6  7  1  6
  6  5  1  0
  8  6  1  0
  8 10  1  0
  9  8  2  0
 11 10  1  0
 11 12  1  6
 13 12  1  0
 13 17  1  0
 14 13  2  0
 15 11  1  0
 16 15  2  0
 19 18  1  1
 20 19  1  0
 21 19  1  0
 22 21  1  1
 22 23  1  0
 23 15  1  0
 24 25  1  0
 24 22  1  0
 26 24  2  0
M  END
$$$$
