QDL.pdb
     RDKit          3D

 26 25  0  0  1  0  0  0  0  0999 V2000
    9.2931  -13.1266   16.9936 N   0  0  0  0  0  0  0  0  0  0  0  0
    8.1420  -13.9505   16.9601 C   0  0  0  0  0  0  0  0  0  0  0  0
    8.0161  -14.7069   15.9471 O   0  0  0  0  0  0  0  0  0  0  0  0
    7.1232  -13.9451   18.0436 C   0  0  0  0  0  0  0  0  0  0  0  0
    7.6249  -13.0605   19.1532 C   0  0  0  0  0  0  0  0  0  0  0  0
    8.8011  -13.6381   19.8740 C   0  0  2  0  0  0  0  0  0  0  0  0
    9.6518  -14.3996   19.0136 N   0  0  0  0  0  0  0  0  0  0  0  0
    8.3384  -14.4852   21.0062 C   0  0  0  0  0  0  0  0  0  0  0  0
    7.3268  -14.1012   21.6736 O   0  0  0  0  0  0  0  0  0  0  0  0
    8.9873  -15.6963   21.3585 N   0  0  0  0  0  0  0  0  0  0  0  0
    8.5749  -16.4034   22.5559 C   0  0  1  0  0  0  0  0  0  0  0  0
    9.0765  -17.8214   22.4627 C   0  0  0  0  0  0  0  0  0  0  0  0
    8.4272  -18.5830   21.3834 C   0  0  0  0  0  0  0  0  0  0  0  0
    8.9710  -18.8791   20.2839 O   0  0  0  0  0  0  0  0  0  0  0  0
    9.0033  -15.6946   23.7809 C   0  0  0  0  0  0  0  0  0  0  0  0
   10.1486  -15.1939   23.8457 O   0  0  0  0  0  0  0  0  0  0  0  0
    7.1034  -19.0000   21.6180 O   0  0  0  0  0  0  0  0  0  0  0  0
    7.9118  -11.9212   25.8087 C   0  0  0  0  0  0  0  0  0  0  0  0
    6.8553  -13.0334   25.9220 C   0  0  2  0  0  0  0  0  0  0  0  0
    5.6255  -12.4095   26.5027 C   0  0  0  0  0  0  0  0  0  0  0  0
    7.4637  -14.0942   26.7623 C   0  0  0  0  0  0  0  0  0  0  0  0
    8.5850  -14.8637   26.1385 C   0  0  2  0  0  0  0  0  0  0  0  0
    8.1432  -15.5539   24.9231 N   0  0  0  0  0  0  0  0  0  0  0  0
    9.2600  -15.8188   27.0422 C   0  0  0  0  0  0  0  0  0  0  0  0
   10.0463  -15.3970   28.1169 O   0  0  0  0  0  0  0  0  0  0  0  0
    9.1361  -17.0422   26.8559 O   0  0  0  0  0  0  0  0  0  0  0  0
  1  2  1  0
  2  3  2  0
  4  5  1  0
  4  2  1  0
  6  7  1  6
  6  5  1  0
  8  6  1  0
  8 10  1  0
  9  8  2  0
 11 10  1  0
 11 12  1  6
 13 12  1  0
 13 17  1  0
 14 13  2  0
 15 11  1  0
 16 15  2  0
 19 18  1  1
 20 19  1  0
 21 19  1  0
 22 21  1  1
 22 23  1  0
 23 15  1  0
 24 25  1  0
 24 22  1  0
 26 24  2  0
M  END
$$$$
