QDL.pdb
     RDKit          3D

 26 25  0  0  1  0  0  0  0  0999 V2000
    9.3116  -11.7144   19.0520 N   0  0  0  0  0  0  0  0  0  0  0  0
    8.3615  -12.7246   18.7660 C   0  0  0  0  0  0  0  0  0  0  0  0
    8.6247  -13.4885   17.7856 O   0  0  0  0  0  0  0  0  0  0  0  0
    7.1159  -12.8981   19.5598 C   0  0  0  0  0  0  0  0  0  0  0  0
    7.4667  -13.6302   20.8272 C   0  0  0  0  0  0  0  0  0  0  0  0
    7.6993  -15.0918   20.6122 C   0  0  2  0  0  0  0  0  0  0  0  0
    6.5374  -15.7658   20.1225 N   0  0  0  0  0  0  0  0  0  0  0  0
    8.1557  -15.7261   21.8783 C   0  0  0  0  0  0  0  0  0  0  0  0
    7.2763  -16.1297   22.7027 O   0  0  0  0  0  0  0  0  0  0  0  0
    9.5301  -15.8913   22.1882 N   0  0  0  0  0  0  0  0  0  0  0  0
    9.9082  -16.6259   23.3803 C   0  0  1  0  0  0  0  0  0  0  0  0
   11.1379  -17.4376   23.0639 C   0  0  0  0  0  0  0  0  0  0  0  0
   10.9122  -18.4115   21.9835 C   0  0  0  0  0  0  0  0  0  0  0  0
    9.9956  -19.2787   21.9763 O   0  0  0  0  0  0  0  0  0  0  0  0
   10.0648  -15.7288   24.5452 C   0  0  0  0  0  0  0  0  0  0  0  0
   11.0432  -14.9508   24.6086 O   0  0  0  0  0  0  0  0  0  0  0  0
   11.7962  -18.3517   20.8898 O   0  0  0  0  0  0  0  0  0  0  0  0
    8.1502  -12.2050   26.2593 C   0  0  0  0  0  0  0  0  0  0  0  0
    7.3445  -13.5042   26.4299 C   0  0  2  0  0  0  0  0  0  0  0  0
    5.9809  -13.1126   26.9052 C   0  0  0  0  0  0  0  0  0  0  0  0
    8.1126  -14.3418   27.3838 C   0  0  0  0  0  0  0  0  0  0  0  0
    9.3738  -14.9497   26.8559 C   0  0  2  0  0  0  0  0  0  0  0  0
    9.1224  -15.7124   25.6297 N   0  0  0  0  0  0  0  0  0  0  0  0
   10.1128  -15.7853   27.8255 C   0  0  0  0  0  0  0  0  0  0  0  0
   10.3671  -17.1398   27.5979 O   0  0  0  0  0  0  0  0  0  0  0  0
   10.5299  -15.2842   28.8846 O   0  0  0  0  0  0  0  0  0  0  0  0
  1  2  1  0
  2  3  2  0
  4  5  1  0
  4  2  1  0
  6  7  1  1
  6  5  1  0
  8  6  1  0
  8 10  1  0
  9  8  2  0
 11 10  1  0
 11 12  1  6
 13 12  1  0
 13 17  1  0
 14 13  2  0
 15 11  1  0
 16 15  2  0
 19 18  1  1
 20 19  1  0
 21 19  1  0
 22 21  1  1
 22 23  1  0
 23 15  1  0
 24 25  1  0
 24 22  1  0
 26 24  2  0
M  END
$$$$
