QDL.pdb
     RDKit          3D

 26 25  0  0  1  0  0  0  0  0999 V2000
    6.4296  -12.8878   17.2546 N   0  0  0  0  0  0  0  0  0  0  0  0
    7.4487  -13.7375   16.7602 C   0  0  0  0  0  0  0  0  0  0  0  0
    7.3086  -14.1564   15.5690 O   0  0  0  0  0  0  0  0  0  0  0  0
    8.6280  -14.1302   17.5768 C   0  0  0  0  0  0  0  0  0  0  0  0
    8.4714  -13.5254   18.9462 C   0  0  0  0  0  0  0  0  0  0  0  0
    9.6334  -13.8059   19.8449 C   0  0  2  0  0  0  0  0  0  0  0  0
   10.7515  -14.3527   19.1413 N   0  0  0  0  0  0  0  0  0  0  0  0
    9.2216  -14.7298   20.9359 C   0  0  0  0  0  0  0  0  0  0  0  0
    8.1044  -14.5287   21.5079 O   0  0  0  0  0  0  0  0  0  0  0  0
   10.0321  -15.8172   21.3516 N   0  0  0  0  0  0  0  0  0  0  0  0
    9.5815  -16.6675   22.4368 C   0  0  1  0  0  0  0  0  0  0  0  0
   10.3294  -17.9733   22.3548 C   0  0  0  0  0  0  0  0  0  0  0  0
    9.6487  -18.9643   21.5057 C   0  0  0  0  0  0  0  0  0  0  0  0
    8.4473  -19.3252   21.6426 O   0  0  0  0  0  0  0  0  0  0  0  0
    9.7010  -15.9888   23.7452 C   0  0  0  0  0  0  0  0  0  0  0  0
   10.3558  -14.9264   23.8413 O   0  0  0  0  0  0  0  0  0  0  0  0
   10.4142  -19.5375   20.4728 O   0  0  0  0  0  0  0  0  0  0  0  0
    6.3391  -12.8042   26.3502 C   0  0  0  0  0  0  0  0  0  0  0  0
    7.5427  -13.6154   26.8598 C   0  0  2  0  0  0  0  0  0  0  0  0
    8.5871  -12.6295   27.2792 C   0  0  0  0  0  0  0  0  0  0  0  0
    7.9455  -14.5008   25.7394 C   0  0  0  0  0  0  0  0  0  0  0  0
    8.8234  -15.6577   26.0997 C   0  0  2  0  0  0  0  0  0  0  0  0
    9.0851  -16.5081   24.9349 N   0  0  0  0  0  0  0  0  0  0  0  0
    8.3331  -16.4818   27.2243 C   0  0  0  0  0  0  0  0  0  0  0  0
    8.7846  -16.2979   28.5333 O   0  0  0  0  0  0  0  0  0  0  0  0
    7.4907  -17.3734   27.0185 O   0  0  0  0  0  0  0  0  0  0  0  0
  1  2  1  0
  2  3  2  0
  4  5  1  0
  4  2  1  0
  6  7  1  6
  6  5  1  0
  8  6  1  0
  8 10  1  0
  9  8  2  0
 11 10  1  0
 11 12  1  1
 13 12  1  0
 13 17  1  0
 14 13  2  0
 15 11  1  0
 16 15  2  0
 19 18  1  6
 20 19  1  0
 21 19  1  0
 22 21  1  6
 22 23  1  0
 23 15  1  0
 24 25  1  0
 24 22  1  0
 26 24  2  0
M  END
$$$$
