QDL.pdb
     RDKit          3D

 26 25  0  0  1  0  0  0  0  0999 V2000
    8.3974  -13.1309   16.0425 N   0  0  0  0  0  0  0  0  0  0  0  0
    7.8128  -14.3675   16.4085 C   0  0  0  0  0  0  0  0  0  0  0  0
    7.6135  -15.1998   15.4695 O   0  0  0  0  0  0  0  0  0  0  0  0
    7.4447  -14.6933   17.8121 C   0  0  0  0  0  0  0  0  0  0  0  0
    7.5639  -13.4361   18.6310 C   0  0  0  0  0  0  0  0  0  0  0  0
    8.7789  -13.4200   19.5028 C   0  0  2  0  0  0  0  0  0  0  0  0
    9.9832  -13.6571   18.7696 N   0  0  0  0  0  0  0  0  0  0  0  0
    8.6404  -14.4288   20.5875 C   0  0  0  0  0  0  0  0  0  0  0  0
    7.4963  -14.5937   21.1164 O   0  0  0  0  0  0  0  0  0  0  0  0
    9.7376  -15.2036   21.0436 N   0  0  0  0  0  0  0  0  0  0  0  0
    9.5372  -16.1614   22.1143 C   0  0  1  0  0  0  0  0  0  0  0  0
   10.5581  -17.2594   21.9623 C   0  0  0  0  0  0  0  0  0  0  0  0
   10.3329  -18.0811   20.7620 C   0  0  0  0  0  0  0  0  0  0  0  0
    9.2118  -18.5323   20.3988 O   0  0  0  0  0  0  0  0  0  0  0  0
    9.5533  -15.5065   23.4400 C   0  0  0  0  0  0  0  0  0  0  0  0
   10.3258  -14.5451   23.6535 O   0  0  0  0  0  0  0  0  0  0  0  0
   11.4656  -18.3716   19.9785 O   0  0  0  0  0  0  0  0  0  0  0  0
    7.9900  -12.4527   26.8162 C   0  0  0  0  0  0  0  0  0  0  0  0
    6.8930  -12.8567   25.8165 C   0  0  2  0  0  0  0  0  0  0  0  0
    5.7549  -13.4073   26.6167 C   0  0  0  0  0  0  0  0  0  0  0  0
    7.5208  -13.8291   24.8881 C   0  0  0  0  0  0  0  0  0  0  0  0
    8.2055  -14.9971   25.5250 C   0  0  2  0  0  0  0  0  0  0  0  0
    8.7025  -15.9361   24.5152 N   0  0  0  0  0  0  0  0  0  0  0  0
    7.3954  -15.7194   26.5283 C   0  0  0  0  0  0  0  0  0  0  0  0
    6.3903  -16.6187   26.1648 O   0  0  0  0  0  0  0  0  0  0  0  0
    7.6004  -15.5339   27.7409 O   0  0  0  0  0  0  0  0  0  0  0  0
  1  2  1  0
  2  3  2  0
  4  5  1  0
  4  2  1  0
  6  7  1  6
  6  5  1  0
  8  6  1  0
  8 10  1  0
  9  8  2  0
 11 10  1  0
 11 12  1  1
 13 12  1  0
 13 17  1  0
 14 13  2  0
 15 11  1  0
 16 15  2  0
 19 18  1  1
 20 19  1  0
 21 19  1  0
 22 21  1  6
 22 23  1  0
 23 15  1  0
 24 25  1  0
 24 22  1  0
 26 24  2  0
M  END
$$$$
