QDL.pdb
     RDKit          3D

 26 25  0  0  1  0  0  0  0  0999 V2000
    7.7307  -13.2997   15.7128 N   0  0  0  0  0  0  0  0  0  0  0  0
    7.6535  -14.6117   16.2399 C   0  0  0  0  0  0  0  0  0  0  0  0
    7.5389  -15.5550   15.3966 O   0  0  0  0  0  0  0  0  0  0  0  0
    7.7023  -14.8908   17.6998 C   0  0  0  0  0  0  0  0  0  0  0  0
    7.6915  -13.5739   18.4286 C   0  0  0  0  0  0  0  0  0  0  0  0
    8.8673  -13.3991   19.3363 C   0  0  2  0  0  0  0  0  0  0  0  0
   10.1136  -13.5883   18.6619 N   0  0  0  0  0  0  0  0  0  0  0  0
    8.7668  -14.3383   20.4858 C   0  0  0  0  0  0  0  0  0  0  0  0
    7.6761  -14.3807   21.1374 O   0  0  0  0  0  0  0  0  0  0  0  0
    9.8425  -15.1787   20.8715 N   0  0  0  0  0  0  0  0  0  0  0  0
    9.6501  -16.1347   21.9451 C   0  0  1  0  0  0  0  0  0  0  0  0
   10.6841  -17.2214   21.8000 C   0  0  0  0  0  0  0  0  0  0  0  0
   10.5400  -18.2802   22.8123 C   0  0  0  0  0  0  0  0  0  0  0  0
   10.8181  -18.1483   24.0361 O   0  0  0  0  0  0  0  0  0  0  0  0
    9.6549  -15.4749   23.2683 C   0  0  0  0  0  0  0  0  0  0  0  0
   10.6764  -14.8670   23.6606 O   0  0  0  0  0  0  0  0  0  0  0  0
   10.0554  -19.5212   22.3581 O   0  0  0  0  0  0  0  0  0  0  0  0
    5.6244  -12.4339   26.5058 C   0  0  0  0  0  0  0  0  0  0  0  0
    7.0297  -13.0466   26.6322 C   0  0  2  0  0  0  0  0  0  0  0  0
    7.9817  -11.9131   26.8504 C   0  0  0  0  0  0  0  0  0  0  0  0
    7.2585  -13.8114   25.3814 C   0  0  0  0  0  0  0  0  0  0  0  0
    8.4621  -14.7001   25.3661 C   0  0  2  0  0  0  0  0  0  0  0  0
    8.5135  -15.5027   24.1407 N   0  0  0  0  0  0  0  0  0  0  0  0
    8.6009  -15.5769   26.5479 C   0  0  0  0  0  0  0  0  0  0  0  0
    8.5324  -16.9688   26.4534 O   0  0  0  0  0  0  0  0  0  0  0  0
    8.7852  -15.0777   27.6721 O   0  0  0  0  0  0  0  0  0  0  0  0
  1  2  1  0
  2  3  2  0
  4  5  1  0
  4  2  1  0
  6  7  1  6
  6  5  1  0
  8  6  1  0
  8 10  1  0
  9  8  2  0
 11 10  1  0
 11 12  1  1
 13 12  1  0
 13 17  1  0
 14 13  2  0
 15 11  1  0
 16 15  2  0
 19 18  1  6
 20 19  1  0
 21 19  1  0
 22 21  1  1
 22 23  1  0
 23 15  1  0
 24 25  1  0
 24 22  1  0
 26 24  2  0
M  END
$$$$
