QDL.pdb
     RDKit          3D

 26 25  0  0  1  0  0  0  0  0999 V2000
    8.1849  -13.3896   15.8814 N   0  0  0  0  0  0  0  0  0  0  0  0
    7.4588  -13.9647   16.9525 C   0  0  0  0  0  0  0  0  0  0  0  0
    7.2008  -15.2053   16.8601 O   0  0  0  0  0  0  0  0  0  0  0  0
    7.0133  -13.1751   18.1313 C   0  0  0  0  0  0  0  0  0  0  0  0
    7.1030  -14.0579   19.3470 C   0  0  0  0  0  0  0  0  0  0  0  0
    8.3165  -13.7863   20.1778 C   0  0  2  0  0  0  0  0  0  0  0  0
    9.5262  -13.8475   19.4182 N   0  0  0  0  0  0  0  0  0  0  0  0
    8.3824  -14.7471   21.3118 C   0  0  0  0  0  0  0  0  0  0  0  0
    7.3590  -14.8753   22.0549 O   0  0  0  0  0  0  0  0  0  0  0  0
    9.5428  -15.5160   21.5846 N   0  0  0  0  0  0  0  0  0  0  0  0
    9.5315  -16.4554   22.6896 C   0  0  1  0  0  0  0  0  0  0  0  0
   10.5888  -17.4982   22.4331 C   0  0  0  0  0  0  0  0  0  0  0  0
   10.6218  -18.5400   23.4724 C   0  0  0  0  0  0  0  0  0  0  0  0
    9.6841  -18.7781   24.2826 O   0  0  0  0  0  0  0  0  0  0  0  0
    9.6714  -15.7665   23.9905 C   0  0  0  0  0  0  0  0  0  0  0  0
   10.7216  -15.1396   24.2567 O   0  0  0  0  0  0  0  0  0  0  0  0
   11.7953  -19.3135   23.5488 O   0  0  0  0  0  0  0  0  0  0  0  0
    8.2850  -12.0898   26.3059 C   0  0  0  0  0  0  0  0  0  0  0  0
    7.2448  -13.1287   25.8531 C   0  0  2  0  0  0  0  0  0  0  0  0
    5.8955  -12.5324   26.1028 C   0  0  0  0  0  0  0  0  0  0  0  0
    7.5281  -14.3599   26.6313 C   0  0  0  0  0  0  0  0  0  0  0  0
    8.7792  -15.0945   26.2656 C   0  0  2  0  0  0  0  0  0  0  0  0
    8.6319  -15.7871   24.9822 N   0  0  0  0  0  0  0  0  0  0  0  0
    9.2675  -16.0379   27.2933 C   0  0  0  0  0  0  0  0  0  0  0  0
   10.0186  -15.6164   28.3930 O   0  0  0  0  0  0  0  0  0  0  0  0
    9.0115  -17.2509   27.1932 O   0  0  0  0  0  0  0  0  0  0  0  0
  1  2  1  0
  2  3  2  0
  4  5  1  0
  4  2  1  0
  6  7  1  6
  6  5  1  0
  8  6  1  0
  8 10  1  0
  9  8  2  0
 11 10  1  0
 11 12  1  6
 13 12  1  0
 13 17  1  0
 14 13  2  0
 15 11  1  0
 16 15  2  0
 19 18  1  1
 20 19  1  0
 21 19  1  0
 22 21  1  1
 22 23  1  0
 23 15  1  0
 24 25  1  0
 24 22  1  0
 26 24  2  0
M  END
$$$$
