QDL.pdb
     RDKit          3D

 26 25  0  0  1  0  0  0  0  0999 V2000
    9.3825  -12.6670   18.6046 N   0  0  0  0  0  0  0  0  0  0  0  0
    8.4028  -12.7056   19.6263 C   0  0  0  0  0  0  0  0  0  0  0  0
    8.0985  -11.5943   20.1615 O   0  0  0  0  0  0  0  0  0  0  0  0
    7.7533  -13.9700   20.0634 C   0  0  0  0  0  0  0  0  0  0  0  0
    8.3350  -15.0987   19.2553 C   0  0  0  0  0  0  0  0  0  0  0  0
    7.7815  -16.4350   19.6356 C   0  0  2  0  0  0  0  0  0  0  0  0
    6.3896  -16.5584   19.3331 N   0  0  0  0  0  0  0  0  0  0  0  0
    8.0082  -16.6862   21.0844 C   0  0  0  0  0  0  0  0  0  0  0  0
    7.0268  -16.5527   21.8812 O   0  0  0  0  0  0  0  0  0  0  0  0
    9.2753  -17.0662   21.5964 N   0  0  0  0  0  0  0  0  0  0  0  0
    9.4167  -17.3459   23.0125 C   0  0  1  0  0  0  0  0  0  0  0  0
   10.5911  -18.2725   23.1954 C   0  0  0  0  0  0  0  0  0  0  0  0
   10.5168  -19.0419   24.4480 C   0  0  0  0  0  0  0  0  0  0  0  0
    9.5993  -18.9311   25.3073 O   0  0  0  0  0  0  0  0  0  0  0  0
    9.5048  -16.1017   23.8066 C   0  0  0  0  0  0  0  0  0  0  0  0
   10.3412  -15.2222   23.5006 O   0  0  0  0  0  0  0  0  0  0  0  0
   11.5563  -19.9616   24.6824 O   0  0  0  0  0  0  0  0  0  0  0  0
    7.6781  -12.7794   27.6949 C   0  0  0  0  0  0  0  0  0  0  0  0
    7.5260  -12.4498   26.2001 C   0  0  2  0  0  0  0  0  0  0  0  0
    6.2573  -11.6705   26.0521 C   0  0  0  0  0  0  0  0  0  0  0  0
    7.5358  -13.7521   25.4891 C   0  0  0  0  0  0  0  0  0  0  0  0
    8.7409  -14.6112   25.7089 C   0  0  2  0  0  0  0  0  0  0  0  0
    8.6539  -15.8547   24.9377 N   0  0  0  0  0  0  0  0  0  0  0  0
    9.0349  -14.9169   27.1247 C   0  0  0  0  0  0  0  0  0  0  0  0
    9.9934  -14.2101   27.8546 O   0  0  0  0  0  0  0  0  0  0  0  0
    8.4191  -15.8299   27.7028 O   0  0  0  0  0  0  0  0  0  0  0  0
  1  2  1  0
  2  3  2  0
  4  5  1  0
  4  2  1  0
  6  7  1  1
  6  5  1  0
  8  6  1  0
  8 10  1  0
  9  8  2  0
 11 10  1  0
 11 12  1  6
 13 12  1  0
 13 17  1  0
 14 13  2  0
 15 11  1  0
 16 15  2  0
 19 18  1  1
 20 19  1  0
 21 19  1  0
 22 21  1  1
 22 23  1  0
 23 15  1  0
 24 25  1  0
 24 22  1  0
 26 24  2  0
M  END
$$$$
