QDL.pdb
     RDKit          3D

 26 25  0  0  1  0  0  0  0  0999 V2000
   10.0441  -13.2717   17.5547 N   0  0  0  0  0  0  0  0  0  0  0  0
   10.1558  -12.9572   18.9308 C   0  0  0  0  0  0  0  0  0  0  0  0
   11.3333  -12.8965   19.4042 O   0  0  0  0  0  0  0  0  0  0  0  0
    8.9697  -12.7079   19.7926 C   0  0  0  0  0  0  0  0  0  0  0  0
    7.8318  -13.5473   19.2769 C   0  0  0  0  0  0  0  0  0  0  0  0
    8.1827  -14.9960   19.1561 C   0  0  2  0  0  0  0  0  0  0  0  0
    7.2273  -15.7294   18.3858 N   0  0  0  0  0  0  0  0  0  0  0  0
    8.3143  -15.6022   20.5084 C   0  0  0  0  0  0  0  0  0  0  0  0
    7.2594  -15.7829   21.1944 O   0  0  0  0  0  0  0  0  0  0  0  0
    9.5704  -15.9802   21.0483 N   0  0  0  0  0  0  0  0  0  0  0  0
    9.6225  -16.6295   22.3442 C   0  0  1  0  0  0  0  0  0  0  0  0
   10.8424  -17.5136   22.3801 C   0  0  0  0  0  0  0  0  0  0  0  0
   11.0161  -18.1881   23.6769 C   0  0  0  0  0  0  0  0  0  0  0  0
   12.0882  -18.2035   24.3422 O   0  0  0  0  0  0  0  0  0  0  0  0
    9.5608  -15.6472   23.4477 C   0  0  0  0  0  0  0  0  0  0  0  0
   10.3801  -14.7018   23.4903 O   0  0  0  0  0  0  0  0  0  0  0  0
    9.8903  -18.8581   24.1916 O   0  0  0  0  0  0  0  0  0  0  0  0
    5.6739  -12.6621   26.8355 C   0  0  0  0  0  0  0  0  0  0  0  0
    7.1686  -13.0143   26.7463 C   0  0  2  0  0  0  0  0  0  0  0  0
    7.9050  -11.7340   26.5067 C   0  0  0  0  0  0  0  0  0  0  0  0
    7.2917  -14.0099   25.6530 C   0  0  0  0  0  0  0  0  0  0  0  0
    8.5676  -14.7906   25.6165 C   0  0  2  0  0  0  0  0  0  0  0  0
    8.5805  -15.7338   24.4945 N   0  0  0  0  0  0  0  0  0  0  0  0
    8.8986  -15.4973   26.8717 C   0  0  0  0  0  0  0  0  0  0  0  0
    8.5580  -16.8353   27.0838 O   0  0  0  0  0  0  0  0  0  0  0  0
    9.4997  -14.8980   27.7807 O   0  0  0  0  0  0  0  0  0  0  0  0
  1  2  1  0
  2  3  2  0
  4  5  1  0
  4  2  1  0
  6  7  1  6
  6  5  1  0
  8  6  1  0
  8 10  1  0
  9  8  2  0
 11 10  1  0
 11 12  1  6
 13 12  1  0
 13 17  1  0
 14 13  2  0
 15 11  1  0
 16 15  2  0
 19 18  1  6
 20 19  1  0
 21 19  1  0
 22 21  1  1
 22 23  1  0
 23 15  1  0
 24 25  1  0
 24 22  1  0
 26 24  2  0
M  END
$$$$
