QDL.pdb
     RDKit          3D

 26 25  0  0  1  0  0  0  0  0999 V2000
   12.4592  -21.0629   18.7049 N   0  0  0  0  0  0  0  0  0  0  0  0
   12.0956  -21.1886   20.0676 C   0  0  0  0  0  0  0  0  0  0  0  0
   12.9020  -21.8285   20.8123 O   0  0  0  0  0  0  0  0  0  0  0  0
   10.8408  -20.6094   20.6168 C   0  0  0  0  0  0  0  0  0  0  0  0
   11.1100  -19.1757   20.9873 C   0  0  0  0  0  0  0  0  0  0  0  0
   10.4551  -18.7709   22.2694 C   0  0  2  0  0  0  0  0  0  0  0  0
    9.2288  -19.4679   22.5028 N   0  0  0  0  0  0  0  0  0  0  0  0
   10.2114  -17.3033   22.2752 C   0  0  0  0  0  0  0  0  0  0  0  0
   11.2156  -16.5243   22.2500 O   0  0  0  0  0  0  0  0  0  0  0  0
    8.9038  -16.7543   22.3081 N   0  0  0  0  0  0  0  0  0  0  0  0
    8.7354  -15.3138   22.2949 C   0  0  1  0  0  0  0  0  0  0  0  0
    7.3665  -15.0038   21.7461 C   0  0  0  0  0  0  0  0  0  0  0  0
    7.1571  -15.5575   20.3984 C   0  0  0  0  0  0  0  0  0  0  0  0
    6.5633  -16.6430   20.1506 O   0  0  0  0  0  0  0  0  0  0  0  0
    8.9962  -14.7235   23.6253 C   0  0  0  0  0  0  0  0  0  0  0  0
    9.6482  -13.6593   23.7207 O   0  0  0  0  0  0  0  0  0  0  0  0
    7.6654  -14.8034   19.3241 O   0  0  0  0  0  0  0  0  0  0  0  0
    7.9381  -11.7167   26.3411 C   0  0  0  0  0  0  0  0  0  0  0  0
    7.0353  -12.8903   25.9242 C   0  0  2  0  0  0  0  0  0  0  0  0
    5.6279  -12.4909   26.2377 C   0  0  0  0  0  0  0  0  0  0  0  0
    7.5230  -14.0718   26.6778 C   0  0  0  0  0  0  0  0  0  0  0  0
    8.7624  -14.7222   26.1490 C   0  0  2  0  0  0  0  0  0  0  0  0
    8.5234  -15.3323   24.8378 N   0  0  0  0  0  0  0  0  0  0  0  0
    9.3809  -15.7098   27.0582 C   0  0  0  0  0  0  0  0  0  0  0  0
    9.6856  -17.0097   26.6478 O   0  0  0  0  0  0  0  0  0  0  0  0
    9.6462  -15.3919   28.2310 O   0  0  0  0  0  0  0  0  0  0  0  0
  1  2  1  0
  2  3  2  0
  4  5  1  0
  4  2  1  0
  6  7  1  6
  6  5  1  0
  8  6  1  0
  8 10  1  0
  9  8  2  0
 11 10  1  0
 11 12  1  1
 13 12  1  0
 13 17  1  0
 14 13  2  0
 15 11  1  0
 16 15  2  0
 19 18  1  1
 20 19  1  0
 21 19  1  0
 22 21  1  1
 22 23  1  0
 23 15  1  0
 24 25  1  0
 24 22  1  0
 26 24  2  0
M  END
$$$$
