EVF.pdb
     RDKit          3D

 28 28  0  0  1  0  0  0  0  0999 V2000
   19.6771  -15.3745  -18.6038 N   0  0  0  0  0  0  0  0  0  0  0  0
   18.8137  -14.3021  -18.2072 C   0  0  1  0  0  0  0  0  0  0  0  0
   18.1395  -14.5253  -16.8954 C   0  0  0  0  0  0  0  0  0  0  0  0
   17.1913  -15.6719  -16.8455 C   0  0  0  0  0  0  0  0  0  0  0  0
   16.4928  -15.8548  -15.5724 C   0  0  0  0  0  0  0  0  0  0  0  0
   16.9322  -16.4735  -14.5783 O   0  0  0  0  0  0  0  0  0  0  0  0
   19.5557  -12.9943  -18.1465 C   0  0  0  0  0  0  0  0  0  0  0  0
   20.8034  -12.9604  -17.9969 O   0  0  0  0  0  0  0  0  0  0  0  0
   15.2229  -15.2960  -15.4388 O   0  0  0  0  0  0  0  0  0  0  0  0
   17.5896   -9.4554  -19.2892 C   0  0  0  0  0  0  0  0  0  0  0  0
   19.0834   -9.6496  -19.4449 C   0  0  1  0  0  0  0  0  0  0  0  0
   19.7133   -8.2833  -19.4908 C   0  0  0  0  0  0  0  0  0  0  0  0
   19.6031  -10.4871  -18.2923 C   0  0  2  0  0  0  0  0  0  0  0  0
   18.8795  -11.7430  -18.2554 N   0  0  0  0  0  0  0  0  0  0  0  0
   19.5063   -9.7569  -17.0041 C   0  0  0  0  0  0  0  0  0  0  0  0
   18.4093   -9.7608  -16.3919 O   0  0  0  0  0  0  0  0  0  0  0  0
   20.6270   -9.0673  -16.4718 N   0  0  0  0  0  0  0  0  0  0  0  0
   20.6173   -8.3055  -15.2429 C   0  0  1  0  0  0  0  0  0  0  0  0
   21.9291   -8.2855  -14.5535 C   0  0  0  0  0  0  0  0  0  0  0  0
   21.8501   -7.5302  -13.2884 C   0  0  0  0  0  0  0  0  0  0  0  0
   21.4404   -8.1363  -12.0960 C   0  0  0  0  0  0  0  0  0  0  0  0
   21.3827   -7.4522  -10.9125 C   0  0  0  0  0  0  0  0  0  0  0  0
   21.7388   -6.1137  -10.8772 C   0  0  0  0  0  0  0  0  0  0  0  0
   22.1482   -5.5057  -12.0656 C   0  0  0  0  0  0  0  0  0  0  0  0
   22.2062   -6.1927  -13.2547 C   0  0  0  0  0  0  0  0  0  0  0  0
   19.9843   -6.9894  -15.4711 C   0  0  0  0  0  0  0  0  0  0  0  0
   19.0461   -6.5133  -14.5676 O   0  0  0  0  0  0  0  0  0  0  0  0
   20.2299   -6.2352  -16.4441 O   0  0  0  0  0  0  0  0  0  0  0  0
  2  1  1  1
  2  3  1  0
  3  4  1  0
  4  5  1  0
  5  9  1  0
  6  5  2  0
  7  8  2  0
  7  2  1  0
 11 10  1  1
 11 13  1  0
 11 12  1  0
 13 14  1  1
 14  7  1  0
 15 13  1  0
 16 15  2  0
 17 15  1  0
 18 17  1  0
 18 19  1  6
 19 20  1  0
 20 25  2  0
 20 21  1  0
 21 22  2  0
 22 23  1  0
 24 23  2  0
 25 24  1  0
 26 18  1  0
 27 26  1  0
 28 26  2  0
M  END
$$$$
