EVF.pdb
     RDKit          3D

 28 28  0  0  1  0  0  0  0  0999 V2000
   27.7180  -17.8283  -15.0205 N   0  0  0  0  0  0  0  0  0  0  0  0
   26.5440  -17.2208  -14.4677 C   0  0  1  0  0  0  0  0  0  0  0  0
   25.5821  -16.7247  -15.4944 C   0  0  0  0  0  0  0  0  0  0  0  0
   25.9538  -16.9971  -16.9099 C   0  0  0  0  0  0  0  0  0  0  0  0
   26.6498  -15.9086  -17.5976 C   0  0  0  0  0  0  0  0  0  0  0  0
   26.3159  -14.7034  -17.5864 O   0  0  0  0  0  0  0  0  0  0  0  0
   25.8173  -18.1665  -13.5500 C   0  0  0  0  0  0  0  0  0  0  0  0
   24.6821  -17.8834  -13.0901 O   0  0  0  0  0  0  0  0  0  0  0  0
   27.7886  -16.2258  -18.3359 O   0  0  0  0  0  0  0  0  0  0  0  0
   26.7997  -22.1892  -13.3555 C   0  0  0  0  0  0  0  0  0  0  0  0
   25.4878  -21.6392  -12.8361 C   0  0  1  0  0  0  0  0  0  0  0  0
   24.9349  -22.6409  -11.8579 C   0  0  0  0  0  0  0  0  0  0  0  0
   25.7288  -20.2834  -12.2007 C   0  0  2  0  0  0  0  0  0  0  0  0
   26.3817  -19.4184  -13.1639 N   0  0  0  0  0  0  0  0  0  0  0  0
   26.5130  -20.4034  -10.9467 C   0  0  0  0  0  0  0  0  0  0  0  0
   27.7517  -20.5968  -11.0286 O   0  0  0  0  0  0  0  0  0  0  0  0
   25.8809  -20.3026   -9.6799 N   0  0  0  0  0  0  0  0  0  0  0  0
   26.5534  -20.4583   -8.4094 C   0  0  1  0  0  0  0  0  0  0  0  0
   27.3516  -19.2725   -8.0177 C   0  0  0  0  0  0  0  0  0  0  0  0
   28.0038  -19.4824   -6.7109 C   0  0  0  0  0  0  0  0  0  0  0  0
   29.0943  -20.3463   -6.5651 C   0  0  0  0  0  0  0  0  0  0  0  0
   29.7207  -20.5338   -5.3632 C   0  0  0  0  0  0  0  0  0  0  0  0
   29.2719  -19.8522   -4.2435 C   0  0  0  0  0  0  0  0  0  0  0  0
   28.1836  -18.9890   -4.3856 C   0  0  0  0  0  0  0  0  0  0  0  0
   27.5542  -18.8006   -5.5929 C   0  0  0  0  0  0  0  0  0  0  0  0
   25.6044  -20.9651   -7.3959 C   0  0  0  0  0  0  0  0  0  0  0  0
   26.0863  -21.6056   -6.2641 O   0  0  0  0  0  0  0  0  0  0  0  0
   24.3554  -20.8625   -7.4690 O   0  0  0  0  0  0  0  0  0  0  0  0
  2  1  1  6
  2  3  1  0
  3  4  1  0
  4  5  1  0
  5  9  1  0
  6  5  2  0
  7  8  2  0
  7  2  1  0
 11 10  1  1
 11 13  1  0
 11 12  1  0
 13 14  1  6
 14  7  1  0
 15 13  1  0
 16 15  2  0
 17 15  1  0
 18 17  1  0
 18 19  1  1
 19 20  1  0
 20 25  2  0
 20 21  1  0
 21 22  2  0
 22 23  1  0
 24 23  2  0
 25 24  1  0
 26 18  1  0
 27 26  1  0
 28 26  2  0
M  END
$$$$
