EVF.pdb
     RDKit          3D

 28 28  0  0  1  0  0  0  0  0999 V2000
   22.5989  -19.9704  -14.6316 N   0  0  0  0  0  0  0  0  0  0  0  0
   23.1309  -19.8717  -13.3049 C   0  0  1  0  0  0  0  0  0  0  0  0
   22.1484  -20.2115  -12.2351 C   0  0  0  0  0  0  0  0  0  0  0  0
   20.9514  -19.3300  -12.1565 C   0  0  0  0  0  0  0  0  0  0  0  0
   19.6688  -19.9877  -12.4106 C   0  0  0  0  0  0  0  0  0  0  0  0
   19.0875  -20.7819  -11.6389 O   0  0  0  0  0  0  0  0  0  0  0  0
   24.3443  -20.7453  -13.1341 C   0  0  0  0  0  0  0  0  0  0  0  0
   24.3362  -21.9485  -13.4981 O   0  0  0  0  0  0  0  0  0  0  0  0
   19.0236  -19.7158  -13.6157 O   0  0  0  0  0  0  0  0  0  0  0  0
   28.1229  -19.0436  -12.5912 C   0  0  0  0  0  0  0  0  0  0  0  0
   27.8813  -20.4242  -13.1647 C   0  0  1  0  0  0  0  0  0  0  0  0
   29.1649  -21.1989  -13.0309 C   0  0  0  0  0  0  0  0  0  0  0  0
   26.7308  -21.0800  -12.4256 C   0  0  2  0  0  0  0  0  0  0  0  0
   25.5498  -20.2490  -12.5550 N   0  0  0  0  0  0  0  0  0  0  0  0
   27.0734  -21.3341  -11.0043 C   0  0  0  0  0  0  0  0  0  0  0  0
   28.1760  -21.8748  -10.7393 O   0  0  0  0  0  0  0  0  0  0  0  0
   26.1773  -20.9754   -9.9637 N   0  0  0  0  0  0  0  0  0  0  0  0
   26.5413  -20.8515   -8.5699 C   0  0  1  0  0  0  0  0  0  0  0  0
   27.8172  -20.1278   -8.3577 C   0  0  0  0  0  0  0  0  0  0  0  0
   28.1328  -20.0228   -6.9202 C   0  0  0  0  0  0  0  0  0  0  0  0
   28.8343  -21.0288   -6.2473 C   0  0  0  0  0  0  0  0  0  0  0  0
   29.1512  -20.9340   -4.9197 C   0  0  0  0  0  0  0  0  0  0  0  0
   28.7715  -19.8103   -4.2036 C   0  0  0  0  0  0  0  0  0  0  0  0
   28.0711  -18.8043   -4.8723 C   0  0  0  0  0  0  0  0  0  0  0  0
   27.7528  -18.8993   -6.2060 C   0  0  0  0  0  0  0  0  0  0  0  0
   25.3837  -20.3685   -7.7879 C   0  0  0  0  0  0  0  0  0  0  0  0
   24.4367  -19.5568   -8.3942 O   0  0  0  0  0  0  0  0  0  0  0  0
   25.1718  -20.6382   -6.5804 O   0  0  0  0  0  0  0  0  0  0  0  0
  2  1  1  6
  2  3  1  0
  3  4  1  0
  4  5  1  0
  5  9  1  0
  6  5  2  0
  7  8  2  0
  7  2  1  0
 11 10  1  1
 11 13  1  0
 11 12  1  0
 13 14  1  1
 14  7  1  0
 15 13  1  0
 16 15  2  0
 17 15  1  0
 18 17  1  0
 18 19  1  6
 19 20  1  0
 20 25  2  0
 20 21  1  0
 21 22  2  0
 22 23  1  0
 24 23  2  0
 25 24  1  0
 26 18  1  0
 27 26  1  0
 28 26  2  0
M  END
$$$$
