EVF.pdb
     RDKit          3D

 28 28  0  0  1  0  0  0  0  0999 V2000
   19.0740  -11.3004  -15.8655 N   0  0  0  0  0  0  0  0  0  0  0  0
   20.1577  -10.8633  -16.6947 C   0  0  1  0  0  0  0  0  0  0  0  0
   20.2042  -11.5322  -18.0273 C   0  0  0  0  0  0  0  0  0  0  0  0
   20.2792  -13.0187  -17.9995 C   0  0  0  0  0  0  0  0  0  0  0  0
   21.1950  -13.6200  -18.9700 C   0  0  0  0  0  0  0  0  0  0  0  0
   20.9033  -14.5114  -19.7974 O   0  0  0  0  0  0  0  0  0  0  0  0
   20.1186   -9.3743  -16.9087 C   0  0  0  0  0  0  0  0  0  0  0  0
   21.0020   -8.7909  -17.5866 O   0  0  0  0  0  0  0  0  0  0  0  0
   22.5143  -13.1708  -18.9873 O   0  0  0  0  0  0  0  0  0  0  0  0
   16.6851   -7.1729  -15.8201 C   0  0  0  0  0  0  0  0  0  0  0  0
   17.6229   -6.7244  -16.9214 C   0  0  1  0  0  0  0  0  0  0  0  0
   17.4719   -5.2334  -17.0626 C   0  0  0  0  0  0  0  0  0  0  0  0
   19.0409   -7.1310  -16.5691 C   0  0  2  0  0  0  0  0  0  0  0  0
   19.0832   -8.5643  -16.3549 N   0  0  0  0  0  0  0  0  0  0  0  0
   19.5431   -6.3821  -15.3906 C   0  0  0  0  0  0  0  0  0  0  0  0
   19.0616   -6.6463  -14.2607 O   0  0  0  0  0  0  0  0  0  0  0  0
   20.5460   -5.3878  -15.5327 N   0  0  0  0  0  0  0  0  0  0  0  0
   21.2003   -4.7151  -14.4327 C   0  0  1  0  0  0  0  0  0  0  0  0
   22.5738   -5.2087  -14.1752 C   0  0  0  0  0  0  0  0  0  0  0  0
   22.5556   -6.6160  -13.7323 C   0  0  0  0  0  0  0  0  0  0  0  0
   21.9187   -7.0049  -12.5490 C   0  0  0  0  0  0  0  0  0  0  0  0
   21.8769   -8.3092  -12.1379 C   0  0  0  0  0  0  0  0  0  0  0  0
   22.4810   -9.2897  -12.9083 C   0  0  0  0  0  0  0  0  0  0  0  0
   23.1176   -8.9049  -14.0900 C   0  0  0  0  0  0  0  0  0  0  0  0
   23.1596   -7.5946  -14.5031 C   0  0  0  0  0  0  0  0  0  0  0  0
   21.0535   -3.2515  -14.5784 C   0  0  0  0  0  0  0  0  0  0  0  0
   20.4446   -2.7323  -15.7110 O   0  0  0  0  0  0  0  0  0  0  0  0
   21.4433   -2.4050  -13.7373 O   0  0  0  0  0  0  0  0  0  0  0  0
  2  1  1  6
  2  3  1  0
  3  4  1  0
  4  5  1  0
  5  9  1  0
  6  5  2  0
  7  8  2  0
  7  2  1  0
 11 10  1  1
 11 13  1  0
 11 12  1  0
 13 14  1  1
 14  7  1  0
 15 13  1  0
 16 15  2  0
 17 15  1  0
 18 17  1  0
 18 19  1  6
 19 20  1  0
 20 25  2  0
 20 21  1  0
 21 22  2  0
 22 23  1  0
 24 23  2  0
 25 24  1  0
 26 18  1  0
 27 26  1  0
 28 26  2  0
M  END
$$$$
