EVF.pdb
     RDKit          3D

 28 28  0  0  1  0  0  0  0  0999 V2000
   23.1624  -20.1373  -18.0850 N   0  0  0  0  0  0  0  0  0  0  0  0
   23.4344  -19.3474  -16.9211 C   0  0  1  0  0  0  0  0  0  0  0  0
   22.2089  -18.8835  -16.2079 C   0  0  0  0  0  0  0  0  0  0  0  0
   21.4751  -17.7601  -16.8526 C   0  0  0  0  0  0  0  0  0  0  0  0
   20.6199  -18.1331  -17.9803 C   0  0  0  0  0  0  0  0  0  0  0  0
   19.6621  -18.9362  -17.9387 O   0  0  0  0  0  0  0  0  0  0  0  0
   24.3029  -20.0920  -15.9434 C   0  0  0  0  0  0  0  0  0  0  0  0
   24.0956  -21.3037  -15.6806 O   0  0  0  0  0  0  0  0  0  0  0  0
   20.8825  -17.5504  -19.2189 O   0  0  0  0  0  0  0  0  0  0  0  0
   28.0329  -20.3168  -15.9386 C   0  0  0  0  0  0  0  0  0  0  0  0
   27.6603  -19.8615  -14.5432 C   0  0  1  0  0  0  0  0  0  0  0  0
   27.9693  -18.3911  -14.4512 C   0  0  0  0  0  0  0  0  0  0  0  0
   26.1948  -20.1608  -14.2925 C   0  0  2  0  0  0  0  0  0  0  0  0
   25.3932  -19.4591  -15.2760 N   0  0  0  0  0  0  0  0  0  0  0  0
   25.7987  -19.8098  -12.9062 C   0  0  0  0  0  0  0  0  0  0  0  0
   25.2056  -18.7202  -12.7081 O   0  0  0  0  0  0  0  0  0  0  0  0
   26.0820  -20.6839  -11.8244 N   0  0  0  0  0  0  0  0  0  0  0  0
   25.4733  -20.5984  -10.5156 C   0  0  1  0  0  0  0  0  0  0  0  0
   24.2280  -21.3927  -10.3936 C   0  0  0  0  0  0  0  0  0  0  0  0
   23.0427  -20.5674  -10.6955 C   0  0  0  0  0  0  0  0  0  0  0  0
   22.3922  -20.6415  -11.9317 C   0  0  0  0  0  0  0  0  0  0  0  0
   21.2802  -19.8970  -12.2166 C   0  0  0  0  0  0  0  0  0  0  0  0
   20.7690  -19.0360  -11.2590 C   0  0  0  0  0  0  0  0  0  0  0  0
   21.4159  -18.9596  -10.0239 C   0  0  0  0  0  0  0  0  0  0  0  0
   22.5330  -19.7075   -9.7376 C   0  0  0  0  0  0  0  0  0  0  0  0
   26.4930  -20.8259   -9.4700 C   0  0  0  0  0  0  0  0  0  0  0  0
   26.3739  -20.1872   -8.2448 O   0  0  0  0  0  0  0  0  0  0  0  0
   27.4930  -21.5744   -9.5951 O   0  0  0  0  0  0  0  0  0  0  0  0
  2  1  1  6
  2  3  1  0
  3  4  1  0
  4  5  1  0
  5  9  1  0
  6  5  2  0
  7  8  2  0
  7  2  1  0
 11 10  1  6
 11 13  1  0
 11 12  1  0
 13 14  1  6
 14  7  1  0
 15 13  1  0
 16 15  2  0
 17 15  1  0
 18 17  1  0
 18 19  1  6
 19 20  1  0
 20 25  2  0
 20 21  1  0
 21 22  2  0
 22 23  1  0
 24 23  2  0
 25 24  1  0
 26 18  1  0
 27 26  1  0
 28 26  2  0
M  END
$$$$
