EVF.pdb
     RDKit          3D

 28 28  0  0  1  0  0  0  0  0999 V2000
   26.8133  -22.6233  -18.1408 N   0  0  0  0  0  0  0  0  0  0  0  0
   26.0628  -21.6626  -17.3881 C   0  0  1  0  0  0  0  0  0  0  0  0
   24.5916  -21.9093  -17.3934 C   0  0  0  0  0  0  0  0  0  0  0  0
   24.1174  -22.9949  -16.4917 C   0  0  0  0  0  0  0  0  0  0  0  0
   22.8780  -22.7128  -15.7662 C   0  0  0  0  0  0  0  0  0  0  0  0
   21.7366  -22.6307  -16.2708 O   0  0  0  0  0  0  0  0  0  0  0  0
   26.5311  -21.5981  -15.9594 C   0  0  0  0  0  0  0  0  0  0  0  0
   27.0498  -22.5967  -15.3989 O   0  0  0  0  0  0  0  0  0  0  0  0
   22.9588  -22.5152  -14.3888 O   0  0  0  0  0  0  0  0  0  0  0  0
   28.6891  -18.7777  -14.6732 C   0  0  0  0  0  0  0  0  0  0  0  0
   27.5845  -18.9548  -13.6525 C   0  0  1  0  0  0  0  0  0  0  0  0
   26.6055  -17.8281  -13.8477 C   0  0  0  0  0  0  0  0  0  0  0  0
   26.9431  -20.3164  -13.8388 C   0  0  2  0  0  0  0  0  0  0  0  0
   26.4077  -20.4077  -15.1831 N   0  0  0  0  0  0  0  0  0  0  0  0
   25.9024  -20.5710  -12.8121 C   0  0  0  0  0  0  0  0  0  0  0  0
   24.6985  -20.3804  -13.1165 O   0  0  0  0  0  0  0  0  0  0  0  0
   26.2556  -21.0204  -11.5129 N   0  0  0  0  0  0  0  0  0  0  0  0
   25.3143  -21.2722  -10.4446 C   0  0  1  0  0  0  0  0  0  0  0  0
   25.9051  -22.0082   -9.3019 C   0  0  0  0  0  0  0  0  0  0  0  0
   26.7522  -21.1205   -8.4824 C   0  0  0  0  0  0  0  0  0  0  0  0
   26.2048  -20.0888   -7.7125 C   0  0  0  0  0  0  0  0  0  0  0  0
   26.9772  -19.2721   -6.9325 C   0  0  0  0  0  0  0  0  0  0  0  0
   28.3493  -19.4605   -6.8929 C   0  0  0  0  0  0  0  0  0  0  0  0
   28.8990  -20.4895   -7.6602 C   0  0  0  0  0  0  0  0  0  0  0  0
   28.1231  -21.3100   -8.4439 C   0  0  0  0  0  0  0  0  0  0  0  0
   24.5880  -20.0292  -10.1098 C   0  0  0  0  0  0  0  0  0  0  0  0
   23.2835  -20.1007   -9.6444 O   0  0  0  0  0  0  0  0  0  0  0  0
   25.0637  -18.8718  -10.2108 O   0  0  0  0  0  0  0  0  0  0  0  0
  2  1  1  6
  2  3  1  0
  3  4  1  0
  4  5  1  0
  5  9  1  0
  6  5  2  0
  7  8  2  0
  7  2  1  0
 11 10  1  6
 11 13  1  0
 11 12  1  0
 13 14  1  6
 14  7  1  0
 15 13  1  0
 16 15  2  0
 17 15  1  0
 18 17  1  0
 18 19  1  1
 19 20  1  0
 20 25  2  0
 20 21  1  0
 21 22  2  0
 22 23  1  0
 24 23  2  0
 25 24  1  0
 26 18  1  0
 27 26  1  0
 28 26  2  0
M  END
$$$$
