EVF.pdb
     RDKit          3D

 28 28  0  0  1  0  0  0  0  0999 V2000
   20.7103  -27.5001  -14.5121 N   0  0  0  0  0  0  0  0  0  0  0  0
   20.7968  -26.0919  -14.7618 C   0  0  1  0  0  0  0  0  0  0  0  0
   19.7903  -25.2845  -14.0131 C   0  0  0  0  0  0  0  0  0  0  0  0
   18.4605  -25.1452  -14.6678 C   0  0  0  0  0  0  0  0  0  0  0  0
   18.4915  -24.7359  -16.0726 C   0  0  0  0  0  0  0  0  0  0  0  0
   18.8821  -23.6290  -16.5044 O   0  0  0  0  0  0  0  0  0  0  0  0
   22.1682  -25.5613  -14.4421 C   0  0  0  0  0  0  0  0  0  0  0  0
   22.7835  -25.9286  -13.4092 O   0  0  0  0  0  0  0  0  0  0  0  0
   18.0497  -25.6492  -17.0282 O   0  0  0  0  0  0  0  0  0  0  0  0
   24.7391  -24.3282  -17.3876 C   0  0  0  0  0  0  0  0  0  0  0  0
   25.1399  -24.7225  -15.9814 C   0  0  1  0  0  0  0  0  0  0  0  0
   26.5448  -24.2300  -15.7584 C   0  0  0  0  0  0  0  0  0  0  0  0
   24.1551  -24.1271  -14.9936 C   0  0  2  0  0  0  0  0  0  0  0  0
   22.8261  -24.6236  -15.2922 N   0  0  0  0  0  0  0  0  0  0  0  0
   24.2052  -22.6441  -15.0045 C   0  0  0  0  0  0  0  0  0  0  0  0
   23.4972  -22.0249  -15.8374 O   0  0  0  0  0  0  0  0  0  0  0  0
   25.0340  -21.9365  -14.0950 N   0  0  0  0  0  0  0  0  0  0  0  0
   25.1776  -20.4982  -14.0599 C   0  0  1  0  0  0  0  0  0  0  0  0
   25.5918  -19.9811  -12.7342 C   0  0  0  0  0  0  0  0  0  0  0  0
   26.9818  -20.3687  -12.4261 C   0  0  0  0  0  0  0  0  0  0  0  0
   27.2737  -21.4462  -11.5830 C   0  0  0  0  0  0  0  0  0  0  0  0
   28.5579  -21.8285  -11.3060 C   0  0  0  0  0  0  0  0  0  0  0  0
   29.6158  -21.1354  -11.8718 C   0  0  0  0  0  0  0  0  0  0  0  0
   29.3279  -20.0594  -12.7139 C   0  0  0  0  0  0  0  0  0  0  0  0
   28.0379  -19.6752  -12.9923 C   0  0  0  0  0  0  0  0  0  0  0  0
   25.9823  -20.0441  -15.2136 C   0  0  0  0  0  0  0  0  0  0  0  0
   26.9107  -20.9025  -15.7833 O   0  0  0  0  0  0  0  0  0  0  0  0
   25.8966  -18.9100  -15.7451 O   0  0  0  0  0  0  0  0  0  0  0  0
  2  1  1  1
  2  3  1  0
  3  4  1  0
  4  5  1  0
  5  9  1  0
  6  5  2  0
  7  8  2  0
  7  2  1  0
 11 10  1  6
 11 13  1  0
 11 12  1  0
 13 14  1  6
 14  7  1  0
 15 13  1  0
 16 15  2  0
 17 15  1  0
 18 17  1  0
 18 19  1  1
 19 20  1  0
 20 25  2  0
 20 21  1  0
 21 22  2  0
 22 23  1  0
 24 23  2  0
 25 24  1  0
 26 18  1  0
 27 26  1  0
 28 26  2  0
M  END
$$$$
