EVF.pdb
     RDKit          3D

 28 28  0  0  1  0  0  0  0  0999 V2000
   23.2963  -22.2737  -15.8116 N   0  0  0  0  0  0  0  0  0  0  0  0
   23.1954  -21.8769  -14.4385 C   0  0  1  0  0  0  0  0  0  0  0  0
   22.1687  -22.6352  -13.6663 C   0  0  0  0  0  0  0  0  0  0  0  0
   20.9546  -21.8649  -13.2801 C   0  0  0  0  0  0  0  0  0  0  0  0
   20.1149  -21.4164  -14.3918 C   0  0  0  0  0  0  0  0  0  0  0  0
   19.7113  -22.1277  -15.3380 O   0  0  0  0  0  0  0  0  0  0  0  0
   24.5173  -22.0070  -13.7314 C   0  0  0  0  0  0  0  0  0  0  0  0
   25.1064  -23.1147  -13.6517 O   0  0  0  0  0  0  0  0  0  0  0  0
   19.7205  -20.0798  -14.4136 O   0  0  0  0  0  0  0  0  0  0  0  0
   26.8502  -18.5830  -12.5885 C   0  0  0  0  0  0  0  0  0  0  0  0
   27.3794  -19.9549  -12.9508 C   0  0  1  0  0  0  0  0  0  0  0  0
   28.7544  -20.0804  -12.3514 C   0  0  0  0  0  0  0  0  0  0  0  0
   26.4245  -21.0135  -12.4334 C   0  0  2  0  0  0  0  0  0  0  0  0
   25.1562  -20.8855  -13.1240 N   0  0  0  0  0  0  0  0  0  0  0  0
   26.2622  -20.9248  -10.9610 C   0  0  0  0  0  0  0  0  0  0  0  0
   25.1771  -20.4895  -10.5011 O   0  0  0  0  0  0  0  0  0  0  0  0
   27.3081  -21.3221  -10.0877 N   0  0  0  0  0  0  0  0  0  0  0  0
   27.3112  -21.1111   -8.6573 C   0  0  1  0  0  0  0  0  0  0  0  0
   28.6655  -20.8846   -8.0995 C   0  0  0  0  0  0  0  0  0  0  0  0
   28.5927  -20.4770   -6.6833 C   0  0  0  0  0  0  0  0  0  0  0  0
   28.7079  -21.4073   -5.6448 C   0  0  0  0  0  0  0  0  0  0  0  0
   28.6628  -21.0395   -4.3278 C   0  0  0  0  0  0  0  0  0  0  0  0
   28.4979  -19.7047   -3.9948 C   0  0  0  0  0  0  0  0  0  0  0  0
   28.3826  -18.7735   -5.0290 C   0  0  0  0  0  0  0  0  0  0  0  0
   28.4279  -19.1429   -6.3521 C   0  0  0  0  0  0  0  0  0  0  0  0
   26.2843  -20.1123   -8.2933 C   0  0  0  0  0  0  0  0  0  0  0  0
   25.2572  -20.4668   -7.4315 O   0  0  0  0  0  0  0  0  0  0  0  0
   26.2582  -18.9276   -8.7077 O   0  0  0  0  0  0  0  0  0  0  0  0
  2  1  1  6
  2  3  1  0
  3  4  1  0
  4  5  1  0
  5  9  1  0
  6  5  2  0
  7  8  2  0
  7  2  1  0
 11 10  1  1
 11 13  1  0
 11 12  1  0
 13 14  1  6
 14  7  1  0
 15 13  1  0
 16 15  2  0
 17 15  1  0
 18 17  1  0
 18 19  1  6
 19 20  1  0
 20 25  2  0
 20 21  1  0
 21 22  2  0
 22 23  1  0
 24 23  2  0
 25 24  1  0
 26 18  1  0
 27 26  1  0
 28 26  2  0
M  END
$$$$
