EVF.pdb
     RDKit          3D

 28 28  0  0  1  0  0  0  0  0999 V2000
   21.9253  -21.3825  -13.7681 N   0  0  0  0  0  0  0  0  0  0  0  0
   22.3934  -20.4165  -12.8190 C   0  0  1  0  0  0  0  0  0  0  0  0
   21.3364  -19.9264  -11.8873 C   0  0  0  0  0  0  0  0  0  0  0  0
   20.4398  -18.8690  -12.4296 C   0  0  0  0  0  0  0  0  0  0  0  0
   19.7032  -19.2304  -13.6416 C   0  0  0  0  0  0  0  0  0  0  0  0
   19.9073  -18.7715  -14.7869 O   0  0  0  0  0  0  0  0  0  0  0  0
   23.5357  -20.9583  -12.0029 C   0  0  0  0  0  0  0  0  0  0  0  0
   23.3872  -21.9632  -11.2623 O   0  0  0  0  0  0  0  0  0  0  0  0
   18.6790  -20.1688  -13.5271 O   0  0  0  0  0  0  0  0  0  0  0  0
   28.3804  -21.2781  -11.2752 C   0  0  0  0  0  0  0  0  0  0  0  0
   27.1994  -20.8249  -12.1077 C   0  0  1  0  0  0  0  0  0  0  0  0
   27.1351  -21.7140  -13.3206 C   0  0  0  0  0  0  0  0  0  0  0  0
   25.9374  -20.8983  -11.2698 C   0  0  2  0  0  0  0  0  0  0  0  0
   24.8297  -20.3586  -12.0337 N   0  0  0  0  0  0  0  0  0  0  0  0
   26.1059  -20.1977   -9.9725 C   0  0  0  0  0  0  0  0  0  0  0  0
   25.8168  -18.9769   -9.9067 O   0  0  0  0  0  0  0  0  0  0  0  0
   26.5834  -20.8886   -8.8283 N   0  0  0  0  0  0  0  0  0  0  0  0
   27.0542  -20.2515   -7.6187 C   0  0  1  0  0  0  0  0  0  0  0  0
   27.0845  -21.1609   -6.4489 C   0  0  0  0  0  0  0  0  0  0  0  0
   27.6384  -20.4791   -5.2633 C   0  0  0  0  0  0  0  0  0  0  0  0
   29.0177  -20.3581   -5.0637 C   0  0  0  0  0  0  0  0  0  0  0  0
   29.5436  -19.7104   -3.9794 C   0  0  0  0  0  0  0  0  0  0  0  0
   28.6949  -19.1500   -3.0384 C   0  0  0  0  0  0  0  0  0  0  0  0
   27.3176  -19.2689   -3.2348 C   0  0  0  0  0  0  0  0  0  0  0  0
   26.7891  -19.9196   -4.3240 C   0  0  0  0  0  0  0  0  0  0  0  0
   28.3010  -19.5070   -7.8941 C   0  0  0  0  0  0  0  0  0  0  0  0
   29.3305  -20.1253   -8.5878 O   0  0  0  0  0  0  0  0  0  0  0  0
   28.5195  -18.3210   -7.5453 O   0  0  0  0  0  0  0  0  0  0  0  0
  2  1  1  6
  2  3  1  0
  3  4  1  0
  4  5  1  0
  5  9  1  0
  6  5  2  0
  7  8  2  0
  7  2  1  0
 11 10  1  1
 11 13  1  0
 11 12  1  0
 13 14  1  6
 14  7  1  0
 15 13  1  0
 16 15  2  0
 17 15  1  0
 18 17  1  0
 18 19  1  1
 19 20  1  0
 20 25  2  0
 20 21  1  0
 21 22  2  0
 22 23  1  0
 24 23  2  0
 25 24  1  0
 26 18  1  0
 27 26  1  0
 28 26  2  0
M  END
$$$$
