EVF.pdb
     RDKit          3D

 28 28  0  0  1  0  0  0  0  0999 V2000
   19.1107  -11.4748  -21.7165 N   0  0  0  0  0  0  0  0  0  0  0  0
   18.5918  -10.7896  -20.5701 C   0  0  1  0  0  0  0  0  0  0  0  0
   18.5823  -11.6156  -19.3279 C   0  0  0  0  0  0  0  0  0  0  0  0
   17.8239  -12.8939  -19.4103 C   0  0  0  0  0  0  0  0  0  0  0  0
   17.8001  -13.6908  -18.1830 C   0  0  0  0  0  0  0  0  0  0  0  0
   18.3824  -13.4059  -17.1134 O   0  0  0  0  0  0  0  0  0  0  0  0
   19.3563   -9.5228  -20.2956 C   0  0  0  0  0  0  0  0  0  0  0  0
   20.1556   -9.0488  -21.1423 O   0  0  0  0  0  0  0  0  0  0  0  0
   17.0676  -14.8766  -18.1891 O   0  0  0  0  0  0  0  0  0  0  0  0
   17.7434   -6.3884  -19.4218 C   0  0  0  0  0  0  0  0  0  0  0  0
   19.2196   -6.4886  -19.7446 C   0  0  1  0  0  0  0  0  0  0  0  0
   19.8176   -5.1211  -19.5496 C   0  0  0  0  0  0  0  0  0  0  0  0
   19.8591   -7.5321  -18.8488 C   0  0  2  0  0  0  0  0  0  0  0  0
   19.2085   -8.8087  -19.0696 N   0  0  0  0  0  0  0  0  0  0  0  0
   19.8089   -7.1268  -17.4222 C   0  0  0  0  0  0  0  0  0  0  0  0
   18.6956   -7.1130  -16.8402 O   0  0  0  0  0  0  0  0  0  0  0  0
   20.9911   -6.7618  -16.7266 N   0  0  0  0  0  0  0  0  0  0  0  0
   21.1937   -6.9266  -15.3045 C   0  0  1  0  0  0  0  0  0  0  0  0
   22.5671   -7.3585  -14.9526 C   0  0  0  0  0  0  0  0  0  0  0  0
   22.6577   -7.7219  -13.5254 C   0  0  0  0  0  0  0  0  0  0  0  0
   22.7610   -6.7492  -12.5254 C   0  0  0  0  0  0  0  0  0  0  0  0
   22.8249   -7.0722  -11.1974 C   0  0  0  0  0  0  0  0  0  0  0  0
   22.7871   -8.4031  -10.8139 C   0  0  0  0  0  0  0  0  0  0  0  0
   22.6839   -9.3766  -11.8096 C   0  0  0  0  0  0  0  0  0  0  0  0
   22.6198   -9.0522  -13.1437 C   0  0  0  0  0  0  0  0  0  0  0  0
   20.6807   -5.7433  -14.5823 C   0  0  0  0  0  0  0  0  0  0  0  0
   19.7212   -5.9052  -13.5941 O   0  0  0  0  0  0  0  0  0  0  0  0
   21.0503   -4.5616  -14.7891 O   0  0  0  0  0  0  0  0  0  0  0  0
  2  1  1  6
  2  3  1  0
  3  4  1  0
  4  5  1  0
  5  9  1  0
  6  5  2  0
  7  8  2  0
  7  2  1  0
 11 10  1  1
 11 13  1  0
 11 12  1  0
 13 14  1  1
 14  7  1  0
 15 13  1  0
 16 15  2  0
 17 15  1  0
 18 17  1  0
 18 19  1  6
 19 20  1  0
 20 25  2  0
 20 21  1  0
 21 22  2  0
 22 23  1  0
 24 23  2  0
 25 24  1  0
 26 18  1  0
 27 26  1  0
 28 26  2  0
M  END
$$$$
