EVF.pdb
     RDKit          3D

 28 28  0  0  1  0  0  0  0  0999 V2000
   26.4447  -19.3578  -16.3483 N   0  0  0  0  0  0  0  0  0  0  0  0
   26.9047  -20.0653  -15.1903 C   0  0  1  0  0  0  0  0  0  0  0  0
   28.3304  -19.7938  -14.8453 C   0  0  0  0  0  0  0  0  0  0  0  0
   29.2509  -20.9593  -14.9472 C   0  0  0  0  0  0  0  0  0  0  0  0
   29.1559  -21.7285  -16.1888 C   0  0  0  0  0  0  0  0  0  0  0  0
   28.9708  -22.9625  -16.2735 O   0  0  0  0  0  0  0  0  0  0  0  0
   26.0552  -19.7585  -13.9867 C   0  0  0  0  0  0  0  0  0  0  0  0
   25.0226  -19.0480  -14.0830 O   0  0  0  0  0  0  0  0  0  0  0  0
   29.2806  -21.0398  -17.3941 O   0  0  0  0  0  0  0  0  0  0  0  0
   23.6419  -19.9697  -13.1745 C   0  0  0  0  0  0  0  0  0  0  0  0
   24.1300  -20.5982  -11.8861 C   0  0  1  0  0  0  0  0  0  0  0  0
   24.1342  -22.0901  -12.0856 C   0  0  0  0  0  0  0  0  0  0  0  0
   25.5067  -20.0557  -11.5536 C   0  0  2  0  0  0  0  0  0  0  0  0
   26.3826  -20.2576  -12.6911 N   0  0  0  0  0  0  0  0  0  0  0  0
   26.0514  -20.6768  -10.3209 C   0  0  0  0  0  0  0  0  0  0  0  0
   26.6577  -21.7729  -10.4175 O   0  0  0  0  0  0  0  0  0  0  0  0
   25.8930  -20.0491   -9.0578 N   0  0  0  0  0  0  0  0  0  0  0  0
   26.6697  -20.3628   -7.8793 C   0  0  1  0  0  0  0  0  0  0  0  0
   27.6645  -19.3191   -7.5360 C   0  0  0  0  0  0  0  0  0  0  0  0
   28.3440  -19.6340   -6.2647 C   0  0  0  0  0  0  0  0  0  0  0  0
   27.9907  -19.0025   -5.0675 C   0  0  0  0  0  0  0  0  0  0  0  0
   28.5988  -19.3004   -3.8786 C   0  0  0  0  0  0  0  0  0  0  0  0
   29.5999  -20.2576   -3.8425 C   0  0  0  0  0  0  0  0  0  0  0  0
   29.9549  -20.8900   -5.0358 C   0  0  0  0  0  0  0  0  0  0  0  0
   29.3441  -20.5907   -6.2302 C   0  0  0  0  0  0  0  0  0  0  0  0
   25.7735  -20.7897   -6.7842 C   0  0  0  0  0  0  0  0  0  0  0  0
   24.4203  -20.4933   -6.8499 O   0  0  0  0  0  0  0  0  0  0  0  0
   26.1400  -21.4215   -5.7632 O   0  0  0  0  0  0  0  0  0  0  0  0
  2  1  1  6
  2  3  1  0
  3  4  1  0
  4  5  1  0
  5  9  1  0
  6  5  2  0
  7  8  2  0
  7  2  1  0
 11 10  1  6
 11 13  1  0
 11 12  1  0
 13 14  1  6
 14  7  1  0
 15 13  1  0
 16 15  2  0
 17 15  1  0
 18 17  1  0
 18 19  1  1
 19 20  1  0
 20 25  2  0
 20 21  1  0
 21 22  2  0
 22 23  1  0
 24 23  2  0
 25 24  1  0
 26 18  1  0
 27 26  1  0
 28 26  2  0
M  END
$$$$
