EVF.pdb
     RDKit          3D

 28 28  0  0  1  0  0  0  0  0999 V2000
   13.9374  -12.6556  -18.7626 N   0  0  0  0  0  0  0  0  0  0  0  0
   15.0267  -12.3369  -17.8882 C   0  0  1  0  0  0  0  0  0  0  0  0
   16.2222  -13.2101  -18.0722 C   0  0  0  0  0  0  0  0  0  0  0  0
   16.0345  -14.6428  -17.7138 C   0  0  0  0  0  0  0  0  0  0  0  0
   16.2972  -14.9801  -16.3141 C   0  0  0  0  0  0  0  0  0  0  0  0
   16.5789  -14.1680  -15.4056 O   0  0  0  0  0  0  0  0  0  0  0  0
   15.4543  -10.9026  -18.0448 C   0  0  0  0  0  0  0  0  0  0  0  0
   15.3041  -10.2941  -19.1346 O   0  0  0  0  0  0  0  0  0  0  0  0
   16.2318  -16.3219  -15.9430 O   0  0  0  0  0  0  0  0  0  0  0  0
   14.0393   -8.3443  -16.1968 C   0  0  0  0  0  0  0  0  0  0  0  0
   15.0121   -8.0173  -17.3104 C   0  0  1  0  0  0  0  0  0  0  0  0
   15.1924   -6.5230  -17.3271 C   0  0  0  0  0  0  0  0  0  0  0  0
   16.3158   -8.7540  -17.0698 C   0  0  2  0  0  0  0  0  0  0  0  0
   16.0453  -10.1749  -16.9697 N   0  0  0  0  0  0  0  0  0  0  0  0
   17.0157   -8.2396  -15.8667 C   0  0  0  0  0  0  0  0  0  0  0  0
   16.4904   -8.4248  -14.7406 O   0  0  0  0  0  0  0  0  0  0  0  0
   18.2524   -7.5526  -15.9815 N   0  0  0  0  0  0  0  0  0  0  0  0
   19.2636   -7.4994  -14.9495 C   0  0  1  0  0  0  0  0  0  0  0  0
   20.6470   -7.5007  -15.4814 C   0  0  0  0  0  0  0  0  0  0  0  0
   21.6346   -7.4481  -14.3864 C   0  0  0  0  0  0  0  0  0  0  0  0
   22.0557   -6.2332  -13.8354 C   0  0  0  0  0  0  0  0  0  0  0  0
   22.9550   -6.1718  -12.8062 C   0  0  0  0  0  0  0  0  0  0  0  0
   23.4754   -7.3436  -12.2809 C   0  0  0  0  0  0  0  0  0  0  0  0
   23.0571   -8.5580  -12.8286 C   0  0  0  0  0  0  0  0  0  0  0  0
   22.1537   -8.6198  -13.8625 C   0  0  0  0  0  0  0  0  0  0  0  0
   18.9413   -6.4284  -13.9831 C   0  0  0  0  0  0  0  0  0  0  0  0
   18.9927   -6.6933  -12.6228 O   0  0  0  0  0  0  0  0  0  0  0  0
   18.6148   -5.2569  -14.2942 O   0  0  0  0  0  0  0  0  0  0  0  0
  2  1  1  6
  2  3  1  0
  3  4  1  0
  4  5  1  0
  5  9  1  0
  6  5  2  0
  7  8  2  0
  7  2  1  0
 11 10  1  1
 11 13  1  0
 11 12  1  0
 13 14  1  1
 14  7  1  0
 15 13  1  0
 16 15  2  0
 17 15  1  0
 18 17  1  0
 18 19  1  6
 19 20  1  0
 20 25  2  0
 20 21  1  0
 21 22  2  0
 22 23  1  0
 24 23  2  0
 25 24  1  0
 26 18  1  0
 27 26  1  0
 28 26  2  0
M  END
$$$$
