EVF.pdb
     RDKit          3D

 28 28  0  0  1  0  0  0  0  0999 V2000
   28.3420  -19.5582  -17.6546 N   0  0  0  0  0  0  0  0  0  0  0  0
   28.6817  -18.3887  -16.8998 C   0  0  1  0  0  0  0  0  0  0  0  0
   28.5411  -17.1159  -17.6651 C   0  0  0  0  0  0  0  0  0  0  0  0
   28.9154  -17.1851  -19.1043 C   0  0  0  0  0  0  0  0  0  0  0  0
   30.3488  -17.3019  -19.3760 C   0  0  0  0  0  0  0  0  0  0  0  0
   31.2698  -17.0653  -18.5636 O   0  0  0  0  0  0  0  0  0  0  0  0
   27.8558  -18.2859  -15.6461 C   0  0  0  0  0  0  0  0  0  0  0  0
   27.9570  -17.2946  -14.8796 O   0  0  0  0  0  0  0  0  0  0  0  0
   30.7402  -17.7123  -20.6492 O   0  0  0  0  0  0  0  0  0  0  0  0
   24.4880  -17.9165  -15.2993 C   0  0  0  0  0  0  0  0  0  0  0  0
   24.6927  -19.1007  -14.3778 C   0  0  1  0  0  0  0  0  0  0  0  0
   24.1587  -20.3184  -15.0833 C   0  0  0  0  0  0  0  0  0  0  0  0
   26.1664  -19.2266  -14.0428 C   0  0  2  0  0  0  0  0  0  0  0  0
   26.9272  -19.3031  -15.2746 N   0  0  0  0  0  0  0  0  0  0  0  0
   26.4249  -20.3922  -13.1616 C   0  0  0  0  0  0  0  0  0  0  0  0
   26.7586  -21.4824  -13.6894 O   0  0  0  0  0  0  0  0  0  0  0  0
   26.2989  -20.2819  -11.7522 N   0  0  0  0  0  0  0  0  0  0  0  0
   26.2343  -21.4028  -10.8411 C   0  0  1  0  0  0  0  0  0  0  0  0
   27.5087  -21.6546  -10.1277 C   0  0  0  0  0  0  0  0  0  0  0  0
   27.6315  -20.7853   -8.9418 C   0  0  0  0  0  0  0  0  0  0  0  0
   26.5339  -20.0882   -8.4258 C   0  0  0  0  0  0  0  0  0  0  0  0
   26.6301  -19.2954   -7.3148 C   0  0  0  0  0  0  0  0  0  0  0  0
   27.8486  -19.1684   -6.6677 C   0  0  0  0  0  0  0  0  0  0  0  0
   28.9462  -19.8629   -7.1801 C   0  0  0  0  0  0  0  0  0  0  0  0
   28.8497  -20.6594   -8.2961 C   0  0  0  0  0  0  0  0  0  0  0  0
   25.0274  -21.2949   -9.9946 C   0  0  0  0  0  0  0  0  0  0  0  0
   24.2836  -20.1245  -10.0060 O   0  0  0  0  0  0  0  0  0  0  0  0
   24.5980  -22.2015   -9.2398 O   0  0  0  0  0  0  0  0  0  0  0  0
  2  1  1  6
  2  3  1  0
  3  4  1  0
  4  5  1  0
  5  9  1  0
  6  5  2  0
  7  8  2  0
  7  2  1  0
 11 10  1  6
 11 13  1  0
 11 12  1  0
 13 14  1  6
 14  7  1  0
 15 13  1  0
 16 15  2  0
 17 15  1  0
 18 17  1  0
 18 19  1  1
 19 20  1  0
 20 25  2  0
 20 21  1  0
 21 22  2  0
 22 23  1  0
 24 23  2  0
 25 24  1  0
 26 18  1  0
 27 26  1  0
 28 26  2  0
M  END
$$$$
