EVF.pdb
     RDKit          3D

 28 28  0  0  1  0  0  0  0  0999 V2000
   17.2078  -15.0611  -17.6709 N   0  0  0  0  0  0  0  0  0  0  0  0
   16.6022  -13.7649  -17.5940 C   0  0  1  0  0  0  0  0  0  0  0  0
   15.9739  -13.4709  -16.2733 C   0  0  0  0  0  0  0  0  0  0  0  0
   14.8307  -14.3462  -15.8950 C   0  0  0  0  0  0  0  0  0  0  0  0
   14.2989  -14.1380  -14.5474 C   0  0  0  0  0  0  0  0  0  0  0  0
   13.7790  -13.0838  -14.1200 O   0  0  0  0  0  0  0  0  0  0  0  0
   17.5944  -12.6766  -17.9037 C   0  0  0  0  0  0  0  0  0  0  0  0
   18.8312  -12.9014  -17.8928 O   0  0  0  0  0  0  0  0  0  0  0  0
   14.3701  -15.1993  -13.6467 O   0  0  0  0  0  0  0  0  0  0  0  0
   16.2625   -8.9727  -19.4408 C   0  0  0  0  0  0  0  0  0  0  0  0
   17.6464   -9.5179  -19.7253 C   0  0  1  0  0  0  0  0  0  0  0  0
   18.5358   -8.3461  -20.0442 C   0  0  0  0  0  0  0  0  0  0  0  0
   18.1334  -10.3026  -18.5224 C   0  0  2  0  0  0  0  0  0  0  0  0
   17.1772  -11.3501  -18.2215 N   0  0  0  0  0  0  0  0  0  0  0  0
   18.3667   -9.4168  -17.3549 C   0  0  0  0  0  0  0  0  0  0  0  0
   17.3782   -9.0498  -16.6719 O   0  0  0  0  0  0  0  0  0  0  0  0
   19.6771   -8.9911  -17.0140 N   0  0  0  0  0  0  0  0  0  0  0  0
   20.0017   -8.1510  -15.8829 C   0  0  1  0  0  0  0  0  0  0  0  0
   21.3409   -8.4267  -15.3111 C   0  0  0  0  0  0  0  0  0  0  0  0
   21.5910   -7.5890  -14.1225 C   0  0  0  0  0  0  0  0  0  0  0  0
   21.3265   -8.0519  -12.8292 C   0  0  0  0  0  0  0  0  0  0  0  0
   21.5734   -7.2928  -11.7180 C   0  0  0  0  0  0  0  0  0  0  0  0
   22.1031   -6.0207  -11.8617 C   0  0  0  0  0  0  0  0  0  0  0  0
   22.3684   -5.5555  -13.1512 C   0  0  0  0  0  0  0  0  0  0  0  0
   22.1205   -6.3180  -14.2676 C   0  0  0  0  0  0  0  0  0  0  0  0
   19.7125   -6.7378  -16.2056 C   0  0  0  0  0  0  0  0  0  0  0  0
   19.0552   -5.9429  -15.2786 O   0  0  0  0  0  0  0  0  0  0  0  0
   20.0214   -6.1709  -17.2822 O   0  0  0  0  0  0  0  0  0  0  0  0
  2  1  1  1
  2  3  1  0
  3  4  1  0
  4  5  1  0
  5  9  1  0
  6  5  2  0
  7  8  2  0
  7  2  1  0
 11 10  1  1
 11 13  1  0
 11 12  1  0
 13 14  1  1
 14  7  1  0
 15 13  1  0
 16 15  2  0
 17 15  1  0
 18 17  1  0
 18 19  1  6
 19 20  1  0
 20 25  2  0
 20 21  1  0
 21 22  2  0
 22 23  1  0
 24 23  2  0
 25 24  1  0
 26 18  1  0
 27 26  1  0
 28 26  2  0
M  END
$$$$
