EVF.pdb
     RDKit          3D

 28 28  0  0  1  0  0  0  0  0999 V2000
   26.0509  -18.7757  -16.2307 N   0  0  0  0  0  0  0  0  0  0  0  0
   26.6559  -19.5258  -15.1704 C   0  0  1  0  0  0  0  0  0  0  0  0
   28.1042  -19.2282  -14.9721 C   0  0  0  0  0  0  0  0  0  0  0  0
   29.0364  -19.9128  -15.9093 C   0  0  0  0  0  0  0  0  0  0  0  0
   28.8227  -21.3519  -16.0690 C   0  0  0  0  0  0  0  0  0  0  0  0
   28.0303  -21.8898  -16.8733 O   0  0  0  0  0  0  0  0  0  0  0  0
   25.9400  -19.3059  -13.8651 C   0  0  0  0  0  0  0  0  0  0  0  0
   25.6133  -18.1518  -13.4885 O   0  0  0  0  0  0  0  0  0  0  0  0
   29.5602  -22.2147  -15.2600 O   0  0  0  0  0  0  0  0  0  0  0  0
   22.7397  -20.3463  -12.8971 C   0  0  0  0  0  0  0  0  0  0  0  0
   23.5873  -20.9027  -11.7722 C   0  0  1  0  0  0  0  0  0  0  0  0
   23.7435  -22.3802  -12.0138 C   0  0  0  0  0  0  0  0  0  0  0  0
   24.9192  -20.1780  -11.7422 C   0  0  2  0  0  0  0  0  0  0  0  0
   25.6027  -20.3912  -13.0030 N   0  0  0  0  0  0  0  0  0  0  0  0
   25.7454  -20.6087  -10.5872 C   0  0  0  0  0  0  0  0  0  0  0  0
   26.3563  -21.7040  -10.6605 O   0  0  0  0  0  0  0  0  0  0  0  0
   25.8457  -19.8033   -9.4229 N   0  0  0  0  0  0  0  0  0  0  0  0
   26.6074  -20.1513   -8.2442 C   0  0  1  0  0  0  0  0  0  0  0  0
   27.2103  -18.9790   -7.5667 C   0  0  0  0  0  0  0  0  0  0  0  0
   27.9506  -19.3897   -6.3582 C   0  0  0  0  0  0  0  0  0  0  0  0
   28.5308  -18.4510   -5.4984 C   0  0  0  0  0  0  0  0  0  0  0  0
   29.2020  -18.8180   -4.3640 C   0  0  0  0  0  0  0  0  0  0  0  0
   29.3196  -20.1605   -4.0420 C   0  0  0  0  0  0  0  0  0  0  0  0
   28.7416  -21.1000   -4.8981 C   0  0  0  0  0  0  0  0  0  0  0  0
   28.0673  -20.7315   -6.0378 C   0  0  0  0  0  0  0  0  0  0  0  0
   25.8203  -21.0622   -7.3866 C   0  0  0  0  0  0  0  0  0  0  0  0
   26.4719  -22.0153   -6.6182 O   0  0  0  0  0  0  0  0  0  0  0  0
   24.5691  -21.0493   -7.2861 O   0  0  0  0  0  0  0  0  0  0  0  0
  2  1  1  6
  2  3  1  0
  3  4  1  0
  4  5  1  0
  5  9  1  0
  6  5  2  0
  7  8  2  0
  7  2  1  0
 11 10  1  6
 11 13  1  0
 11 12  1  0
 13 14  1  6
 14  7  1  0
 15 13  1  0
 16 15  2  0
 17 15  1  0
 18 17  1  0
 18 19  1  1
 19 20  1  0
 20 25  2  0
 20 21  1  0
 21 22  2  0
 22 23  1  0
 24 23  2  0
 25 24  1  0
 26 18  1  0
 27 26  1  0
 28 26  2  0
M  END
$$$$
