ASD.pdb
     RDKit          3D

 20 19  0  0  1  0  0  0  0  0999 V2000
    6.7246  -18.7149   18.4821 C   0  0  0  0  0  0  0  0  0  0  0  0
    7.2228  -17.3980   17.9280 C   0  0  2  0  0  0  0  0  0  0  0  0
    7.9504  -17.5703   16.6942 N   0  0  0  0  0  0  0  0  0  0  0  0
    8.0334  -16.7311   18.9700 C   0  0  0  0  0  0  0  0  0  0  0  0
    9.2798  -16.9088   18.9504 O   0  0  0  0  0  0  0  0  0  0  0  0
    6.4977  -14.9669   22.4533 O   0  0  0  0  0  0  0  0  0  0  0  0
    7.5007  -14.3413   21.7528 C   0  0  0  0  0  0  0  0  0  0  0  0
    8.3696  -15.3499   20.9831 C   0  0  2  0  0  0  0  0  0  0  0  0
    7.4995  -15.9115   19.9799 N   0  0  0  0  0  0  0  0  0  0  0  0
    8.8665  -16.3831   21.9213 C   0  0  0  0  0  0  0  0  0  0  0  0
    8.3463  -17.5254   21.8584 O   0  0  0  0  0  0  0  0  0  0  0  0
    9.8894  -16.1288   22.8681 N   0  0  0  0  0  0  0  0  0  0  0  0
   10.5063  -17.1553   23.6865 C   0  0  1  0  0  0  0  0  0  0  0  0
   11.2150  -18.1838   22.8344 C   0  0  0  0  0  0  0  0  0  0  0  0
   12.0260  -19.1437   23.5929 C   0  0  0  0  0  0  0  0  0  0  0  0
   11.7677  -19.3486   24.7993 O   0  0  0  0  0  0  0  0  0  0  0  0
   11.3836  -16.4657   24.6498 C   0  0  0  0  0  0  0  0  0  0  0  0
   12.4040  -15.6156   24.2670 O   0  0  0  0  0  0  0  0  0  0  0  0
   13.0793  -19.8436   23.0281 O   0  0  0  0  0  0  0  0  0  0  0  0
   11.2032  -16.6529   25.8734 O   0  0  0  0  0  0  0  0  0  0  0  0
  2  1  1  1
  2  3  1  0
  4  2  1  0
  4  5  2  0
  6  7  1  0
  8  7  1  1
  8  9  1  0
  9  4  1  0
 10  8  1  0
 11 10  2  0
 12 10  1  0
 13 17  1  0
 13 12  1  0
 13 14  1  6
 15 14  1  0
 15 16  2  0
 17 18  1  0
 19 15  1  0
 20 17  2  0
M  END
$$$$
