ASD.pdb
     RDKit          3D

 20 19  0  0  1  0  0  0  0  0999 V2000
    7.9957  -15.4034   18.7115 C   0  0  0  0  0  0  0  0  0  0  0  0
    7.7672  -14.0497   19.3477 C   0  0  2  0  0  0  0  0  0  0  0  0
    8.2550  -12.9732   18.5202 N   0  0  0  0  0  0  0  0  0  0  0  0
    8.3905  -14.0541   20.6890 C   0  0  0  0  0  0  0  0  0  0  0  0
    9.6036  -13.7282   20.7760 O   0  0  0  0  0  0  0  0  0  0  0  0
    6.4863  -15.5358   24.0396 O   0  0  0  0  0  0  0  0  0  0  0  0
    7.3444  -14.4761   24.2100 C   0  0  0  0  0  0  0  0  0  0  0  0
    8.4305  -14.4450   23.1219 C   0  0  2  0  0  0  0  0  0  0  0  0
    7.7134  -14.3991   21.8719 N   0  0  0  0  0  0  0  0  0  0  0  0
    9.2675  -15.6625   23.2316 C   0  0  0  0  0  0  0  0  0  0  0  0
    8.9862  -16.6320   22.4830 O   0  0  0  0  0  0  0  0  0  0  0  0
   10.3533  -15.7658   24.1358 N   0  0  0  0  0  0  0  0  0  0  0  0
   11.1765  -16.9517   24.2777 C   0  0  1  0  0  0  0  0  0  0  0  0
   12.6474  -16.6018   24.2746 C   0  0  0  0  0  0  0  0  0  0  0  0
   13.2560  -16.5551   22.9398 C   0  0  0  0  0  0  0  0  0  0  0  0
   12.5319  -16.3495   21.9410 O   0  0  0  0  0  0  0  0  0  0  0  0
   10.7260  -17.6424   25.4997 C   0  0  0  0  0  0  0  0  0  0  0  0
    9.8710  -17.0666   26.4205 O   0  0  0  0  0  0  0  0  0  0  0  0
   14.6138  -16.7305   22.7304 O   0  0  0  0  0  0  0  0  0  0  0  0
   11.1316  -18.8046   25.7217 O   0  0  0  0  0  0  0  0  0  0  0  0
  2  1  1  6
  2  3  1  0
  4  2  1  0
  4  5  2  0
  6  7  1  0
  8  7  1  1
  8  9  1  0
  9  4  1  0
 10  8  1  0
 11 10  2  0
 12 10  1  0
 13 17  1  0
 13 12  1  0
 13 14  1  1
 15 14  1  0
 15 16  2  0
 17 18  1  0
 19 15  1  0
 20 17  2  0
M  END
$$$$
