ASD.pdb
     RDKit          3D

 20 19  0  0  1  0  0  0  0  0999 V2000
    6.6941  -19.6231   19.1996 C   0  0  0  0  0  0  0  0  0  0  0  0
    6.9032  -18.3400   18.4255 C   0  0  2  0  0  0  0  0  0  0  0  0
    7.4546  -18.5823   17.1145 N   0  0  0  0  0  0  0  0  0  0  0  0
    7.7535  -17.4407   19.2353 C   0  0  0  0  0  0  0  0  0  0  0  0
    8.9960  -17.6445   19.2331 O   0  0  0  0  0  0  0  0  0  0  0  0
    8.0563  -13.6195   22.1918 O   0  0  0  0  0  0  0  0  0  0  0  0
    7.3283  -14.4211   21.3458 C   0  0  0  0  0  0  0  0  0  0  0  0
    8.1655  -15.5989   20.8201 C   0  0  2  0  0  0  0  0  0  0  0  0
    7.2613  -16.3732   20.0066 N   0  0  0  0  0  0  0  0  0  0  0  0
    8.6818  -16.3821   21.9668 C   0  0  0  0  0  0  0  0  0  0  0  0
    7.9024  -17.2070   22.5068 O   0  0  0  0  0  0  0  0  0  0  0  0
   10.0003  -16.2333   22.4636 N   0  0  0  0  0  0  0  0  0  0  0  0
   10.5468  -17.0198   23.5530 C   0  0  1  0  0  0  0  0  0  0  0  0
   10.7017  -18.4710   23.1578 C   0  0  0  0  0  0  0  0  0  0  0  0
   11.4093  -19.2952   24.1448 C   0  0  0  0  0  0  0  0  0  0  0  0
   10.9178  -19.4466   25.2849 O   0  0  0  0  0  0  0  0  0  0  0  0
   11.8060  -16.3706   23.9606 C   0  0  0  0  0  0  0  0  0  0  0  0
   12.3193  -15.2545   23.3271 O   0  0  0  0  0  0  0  0  0  0  0  0
   12.6132  -19.9225   23.8701 O   0  0  0  0  0  0  0  0  0  0  0  0
   12.4467  -16.8454   24.9243 O   0  0  0  0  0  0  0  0  0  0  0  0
  2  1  1  1
  2  3  1  0
  4  2  1  0
  4  5  2  0
  6  7  1  0
  8  7  1  1
  8  9  1  0
  9  4  1  0
 10  8  1  0
 11 10  2  0
 12 10  1  0
 13 17  1  0
 13 12  1  0
 13 14  1  6
 15 14  1  0
 15 16  2  0
 17 18  1  0
 19 15  1  0
 20 17  2  0
M  END
$$$$
