ASD.pdb
     RDKit          3D

 20 19  0  0  1  0  0  0  0  0999 V2000
    7.4389  -18.4430   19.3650 C   0  0  0  0  0  0  0  0  0  0  0  0
    7.7700  -17.0703   18.8214 C   0  0  2  0  0  0  0  0  0  0  0  0
    8.4445  -17.1404   17.5480 N   0  0  0  0  0  0  0  0  0  0  0  0
    8.5629  -16.3455   19.8381 C   0  0  0  0  0  0  0  0  0  0  0  0
    9.8130  -16.3067   19.6926 O   0  0  0  0  0  0  0  0  0  0  0  0
    6.9662  -14.8905   23.3676 O   0  0  0  0  0  0  0  0  0  0  0  0
    7.9334  -14.1426   22.7405 C   0  0  0  0  0  0  0  0  0  0  0  0
    8.8693  -15.0209   21.8935 C   0  0  2  0  0  0  0  0  0  0  0  0
    8.0082  -15.6976   20.9557 N   0  0  0  0  0  0  0  0  0  0  0  0
    9.5774  -15.9754   22.7780 C   0  0  0  0  0  0  0  0  0  0  0  0
    9.0503  -17.1017   22.9599 O   0  0  0  0  0  0  0  0  0  0  0  0
   10.8055  -15.6645   23.4124 N   0  0  0  0  0  0  0  0  0  0  0  0
   11.4827  -16.5504   24.3401 C   0  0  1  0  0  0  0  0  0  0  0  0
   12.9202  -16.1310   24.5487 C   0  0  0  0  0  0  0  0  0  0  0  0
   13.7926  -16.3621   23.3912 C   0  0  0  0  0  0  0  0  0  0  0  0
   13.6178  -17.3780   22.6829 O   0  0  0  0  0  0  0  0  0  0  0  0
   10.6784  -16.5734   25.5753 C   0  0  0  0  0  0  0  0  0  0  0  0
    9.9930  -15.4711   26.0505 O   0  0  0  0  0  0  0  0  0  0  0  0
   14.8154  -15.4964   23.0408 O   0  0  0  0  0  0  0  0  0  0  0  0
   10.6071  -17.6364   26.2307 O   0  0  0  0  0  0  0  0  0  0  0  0
  2  1  1  1
  2  3  1  0
  4  2  1  0
  4  5  2  0
  6  7  1  0
  8  7  1  1
  8  9  1  0
  9  4  1  0
 10  8  1  0
 11 10  2  0
 12 10  1  0
 13 17  1  0
 13 12  1  0
 13 14  1  1
 15 14  1  0
 15 16  2  0
 17 18  1  0
 19 15  1  0
 20 17  2  0
M  END
$$$$
