ASD.pdb
     RDKit          3D

 20 19  0  0  1  0  0  0  0  0999 V2000
    7.7688  -12.8795   18.6857 C   0  0  0  0  0  0  0  0  0  0  0  0
    8.1922  -14.2698   19.1065 C   0  0  2  0  0  0  0  0  0  0  0  0
    7.1081  -15.2173   19.0140 N   0  0  0  0  0  0  0  0  0  0  0  0
    8.7553  -14.1920   20.4719 C   0  0  0  0  0  0  0  0  0  0  0  0
    9.8750  -13.6346   20.6165 O   0  0  0  0  0  0  0  0  0  0  0  0
    6.7553  -15.5476   23.8321 O   0  0  0  0  0  0  0  0  0  0  0  0
    7.6419  -14.5022   23.9287 C   0  0  0  0  0  0  0  0  0  0  0  0
    8.7766  -14.6237   22.8982 C   0  0  2  0  0  0  0  0  0  0  0  0
    8.1188  -14.7010   21.6175 N   0  0  0  0  0  0  0  0  0  0  0  0
    9.5687  -15.8425   23.1843 C   0  0  0  0  0  0  0  0  0  0  0  0
    9.2070  -16.9141   22.6362 O   0  0  0  0  0  0  0  0  0  0  0  0
   10.6984  -15.8379   24.0393 N   0  0  0  0  0  0  0  0  0  0  0  0
   11.4783  -17.0197   24.3540 C   0  0  1  0  0  0  0  0  0  0  0  0
   12.9593  -16.7154   24.3545 C   0  0  0  0  0  0  0  0  0  0  0  0
   13.5113  -16.3907   23.0338 C   0  0  0  0  0  0  0  0  0  0  0  0
   12.8848  -16.7290   22.0056 O   0  0  0  0  0  0  0  0  0  0  0  0
   10.9713  -17.5386   25.6374 C   0  0  0  0  0  0  0  0  0  0  0  0
   10.3920  -16.7343   26.6007 O   0  0  0  0  0  0  0  0  0  0  0  0
   14.7107  -15.7177   22.8694 O   0  0  0  0  0  0  0  0  0  0  0  0
   11.0656  -18.7632   25.8741 O   0  0  0  0  0  0  0  0  0  0  0  0
  2  1  1  1
  2  3  1  0
  4  2  1  0
  4  5  2  0
  6  7  1  0
  8  7  1  1
  8  9  1  0
  9  4  1  0
 10  8  1  0
 11 10  2  0
 12 10  1  0
 13 17  1  0
 13 12  1  0
 13 14  1  1
 15 14  1  0
 15 16  2  0
 17 18  1  0
 19 15  1  0
 20 17  2  0
M  END
$$$$
