ASD.pdb
     RDKit          3D

 20 19  0  0  1  0  0  0  0  0999 V2000
    5.9371  -17.0706   20.8844 C   0  0  0  0  0  0  0  0  0  0  0  0
    6.6803  -15.7966   20.5467 C   0  0  2  0  0  0  0  0  0  0  0  0
    7.2426  -15.8337   19.2186 N   0  0  0  0  0  0  0  0  0  0  0  0
    7.7077  -15.5672   21.5856 C   0  0  0  0  0  0  0  0  0  0  0  0
    8.8938  -15.8994   21.3248 O   0  0  0  0  0  0  0  0  0  0  0  0
    6.7950  -14.1570   25.3419 O   0  0  0  0  0  0  0  0  0  0  0  0
    7.9953  -13.7739   24.7935 C   0  0  0  0  0  0  0  0  0  0  0  0
    8.5172  -14.8137   23.7880 C   0  0  2  0  0  0  0  0  0  0  0  0
    7.4426  -15.0017   22.8452 N   0  0  0  0  0  0  0  0  0  0  0  0
    8.8446  -16.0673   24.5064 C   0  0  0  0  0  0  0  0  0  0  0  0
    7.9136  -16.8900   24.6958 O   0  0  0  0  0  0  0  0  0  0  0  0
   10.1481  -16.3617   24.9768 N   0  0  0  0  0  0  0  0  0  0  0  0
   10.4943  -17.5757   25.6912 C   0  0  1  0  0  0  0  0  0  0  0  0
   11.9269  -17.9792   25.4249 C   0  0  0  0  0  0  0  0  0  0  0  0
   12.1669  -18.5067   24.0764 C   0  0  0  0  0  0  0  0  0  0  0  0
   11.2106  -18.9751   23.4204 O   0  0  0  0  0  0  0  0  0  0  0  0
   10.1921  -17.3367   27.1141 C   0  0  0  0  0  0  0  0  0  0  0  0
    9.9569  -18.3560   28.0175 O   0  0  0  0  0  0  0  0  0  0  0  0
   13.4202  -18.5108   23.4871 O   0  0  0  0  0  0  0  0  0  0  0  0
   10.1443  -16.1588   27.5324 O   0  0  0  0  0  0  0  0  0  0  0  0
  2  1  1  1
  2  3  1  0
  4  2  1  0
  4  5  2  0
  6  7  1  0
  8  7  1  1
  8  9  1  0
  9  4  1  0
 10  8  1  0
 11 10  2  0
 12 10  1  0
 13 17  1  0
 13 12  1  0
 13 14  1  1
 15 14  1  0
 15 16  2  0
 17 18  1  0
 19 15  1  0
 20 17  2  0
M  END
$$$$
