ASD.pdb
     RDKit          3D

 20 19  0  0  1  0  0  0  0  0999 V2000
    6.9357  -14.9974   19.0657 C   0  0  0  0  0  0  0  0  0  0  0  0
    7.2863  -13.6269   19.6024 C   0  0  2  0  0  0  0  0  0  0  0  0
    7.9484  -12.8112   18.6136 N   0  0  0  0  0  0  0  0  0  0  0  0
    8.1006  -13.7996   20.8249 C   0  0  0  0  0  0  0  0  0  0  0  0
    9.3536  -13.8118   20.7014 O   0  0  0  0  0  0  0  0  0  0  0  0
    6.5668  -14.8340   24.5467 O   0  0  0  0  0  0  0  0  0  0  0  0
    7.5402  -13.8662   24.4820 C   0  0  0  0  0  0  0  0  0  0  0  0
    8.4443  -14.0524   23.2522 C   0  0  2  0  0  0  0  0  0  0  0  0
    7.5633  -13.9507   22.1153 N   0  0  0  0  0  0  0  0  0  0  0  0
    9.0997  -15.3791   23.3234 C   0  0  0  0  0  0  0  0  0  0  0  0
    8.5290  -16.3420   22.7520 O   0  0  0  0  0  0  0  0  0  0  0  0
   10.3252  -15.5919   24.0019 N   0  0  0  0  0  0  0  0  0  0  0  0
   10.9811  -16.8819   24.0997 C   0  0  1  0  0  0  0  0  0  0  0  0
   12.4750  -16.7538   23.9049 C   0  0  0  0  0  0  0  0  0  0  0  0
   13.2184  -18.0070   24.0810 C   0  0  0  0  0  0  0  0  0  0  0  0
   12.8459  -19.0336   23.4714 O   0  0  0  0  0  0  0  0  0  0  0  0
   10.5923  -17.4631   25.3975 C   0  0  0  0  0  0  0  0  0  0  0  0
   10.3699  -16.7016   26.5294 O   0  0  0  0  0  0  0  0  0  0  0  0
   14.3291  -18.1086   24.9023 O   0  0  0  0  0  0  0  0  0  0  0  0
   10.4547  -18.7031   25.4878 O   0  0  0  0  0  0  0  0  0  0  0  0
  2  1  1  6
  2  3  1  0
  4  2  1  0
  4  5  2  0
  6  7  1  0
  8  7  1  1
  8  9  1  0
  9  4  1  0
 10  8  1  0
 11 10  2  0
 12 10  1  0
 13 17  1  0
 13 12  1  0
 13 14  1  1
 15 14  1  0
 15 16  2  0
 17 18  1  0
 19 15  1  0
 20 17  2  0
M  END
$$$$
