ASD.pdb
     RDKit          3D

 20 19  0  0  1  0  0  0  0  0999 V2000
    7.5553  -15.2255   18.3150 C   0  0  0  0  0  0  0  0  0  0  0  0
    7.5041  -13.8378   18.9159 C   0  0  2  0  0  0  0  0  0  0  0  0
    8.0318  -12.8393   18.0182 N   0  0  0  0  0  0  0  0  0  0  0  0
    8.2193  -13.8640   20.2103 C   0  0  0  0  0  0  0  0  0  0  0  0
    9.4448  -13.5752   20.2122 O   0  0  0  0  0  0  0  0  0  0  0  0
    6.5767  -15.3072   23.7495 O   0  0  0  0  0  0  0  0  0  0  0  0
    7.3748  -14.1894   23.7936 C   0  0  0  0  0  0  0  0  0  0  0  0
    8.4002  -14.1790   22.6478 C   0  0  2  0  0  0  0  0  0  0  0  0
    7.6164  -14.1907   21.4376 N   0  0  0  0  0  0  0  0  0  0  0  0
    9.2651  -15.3770   22.7547 C   0  0  0  0  0  0  0  0  0  0  0  0
    8.9504  -16.3852   22.0736 O   0  0  0  0  0  0  0  0  0  0  0  0
   10.4130  -15.4208   23.5841 N   0  0  0  0  0  0  0  0  0  0  0  0
   11.2318  -16.6037   23.7688 C   0  0  1  0  0  0  0  0  0  0  0  0
   12.7011  -16.2838   23.6116 C   0  0  0  0  0  0  0  0  0  0  0  0
   13.5765  -17.4613   23.5723 C   0  0  0  0  0  0  0  0  0  0  0  0
   13.0743  -18.6037   23.6558 O   0  0  0  0  0  0  0  0  0  0  0  0
   10.8775  -17.1692   25.0833 C   0  0  0  0  0  0  0  0  0  0  0  0
   10.0551  -16.5223   25.9865 O   0  0  0  0  0  0  0  0  0  0  0  0
   14.9524  -17.3663   23.4455 O   0  0  0  0  0  0  0  0  0  0  0  0
   11.3384  -18.2867   25.4049 O   0  0  0  0  0  0  0  0  0  0  0  0
  2  1  1  6
  2  3  1  0
  4  2  1  0
  4  5  2  0
  6  7  1  0
  8  7  1  1
  8  9  1  0
  9  4  1  0
 10  8  1  0
 11 10  2  0
 12 10  1  0
 13 17  1  0
 13 12  1  0
 13 14  1  1
 15 14  1  0
 15 16  2  0
 17 18  1  0
 19 15  1  0
 20 17  2  0
M  END
$$$$
