ASD.pdb
     RDKit          3D

 20 19  0  0  1  0  0  0  0  0999 V2000
   -1.0519  -20.6997   23.9537 C   0  0  0  0  0  0  0  0  0  0  0  0
   -1.1210  -22.1725   23.6141 C   0  0  2  0  0  0  0  0  0  0  0  0
   -0.8911  -22.4160   22.2108 N   0  0  0  0  0  0  0  0  0  0  0  0
   -2.4283  -22.6944   24.0682 C   0  0  0  0  0  0  0  0  0  0  0  0
   -3.4693  -22.1798   23.5816 O   0  0  0  0  0  0  0  0  0  0  0  0
   -2.8322  -26.1933   26.1540 O   0  0  0  0  0  0  0  0  0  0  0  0
   -3.8279  -25.7150   25.3367 C   0  0  0  0  0  0  0  0  0  0  0  0
   -3.9015  -24.1795   25.3712 C   0  0  2  0  0  0  0  0  0  0  0  0
   -2.5809  -23.7286   25.0083 N   0  0  0  0  0  0  0  0  0  0  0  0
   -4.2781  -23.7385   26.7345 C   0  0  0  0  0  0  0  0  0  0  0  0
   -3.3508  -23.5381   27.5587 O   0  0  0  0  0  0  0  0  0  0  0  0
   -5.6240  -23.5396   27.1300 N   0  0  0  0  0  0  0  0  0  0  0  0
   -6.0193  -23.0786   28.4472 C   0  0  1  0  0  0  0  0  0  0  0  0
   -7.3983  -22.4592   28.4205 C   0  0  0  0  0  0  0  0  0  0  0  0
   -7.8708  -21.9765   29.7236 C   0  0  0  0  0  0  0  0  0  0  0  0
   -7.0648  -21.8898   30.6761 O   0  0  0  0  0  0  0  0  0  0  0  0
   -5.8956  -24.2301   29.3593 C   0  0  0  0  0  0  0  0  0  0  0  0
   -5.3663  -24.1313   30.6323 O   0  0  0  0  0  0  0  0  0  0  0  0
   -9.1858  -21.6070   29.9523 O   0  0  0  0  0  0  0  0  0  0  0  0
   -6.2855  -25.3535   28.9711 O   0  0  0  0  0  0  0  0  0  0  0  0
  2  1  1  6
  2  3  1  0
  4  2  1  0
  4  5  2  0
  6  7  1  0
  8  7  1  1
  8  9  1  0
  9  4  1  0
 10  8  1  0
 11 10  2  0
 12 10  1  0
 13 17  1  0
 13 12  1  0
 13 14  1  6
 15 14  1  0
 15 16  2  0
 17 18  1  0
 19 15  1  0
 20 17  2  0
M  END
$$$$
