ASD.pdb
     RDKit          3D

 20 19  0  0  1  0  0  0  0  0999 V2000
   -1.0613  -27.1701   27.6395 C   0  0  0  0  0  0  0  0  0  0  0  0
   -1.5887  -25.8678   28.2008 C   0  0  2  0  0  0  0  0  0  0  0  0
   -0.8702  -25.4571   29.3826 N   0  0  0  0  0  0  0  0  0  0  0  0
   -3.0386  -26.0210   28.4496 C   0  0  0  0  0  0  0  0  0  0  0  0
   -3.7861  -26.2406   27.4605 O   0  0  0  0  0  0  0  0  0  0  0  0
   -4.7250  -25.6095   32.1994 O   0  0  0  0  0  0  0  0  0  0  0  0
   -5.3176  -26.4634   31.3004 C   0  0  0  0  0  0  0  0  0  0  0  0
   -5.0672  -26.0219   29.8489 C   0  0  2  0  0  0  0  0  0  0  0  0
   -3.6336  -25.9368   29.7206 N   0  0  0  0  0  0  0  0  0  0  0  0
   -5.7191  -24.7119   29.6169 C   0  0  0  0  0  0  0  0  0  0  0  0
   -5.0494  -23.6768   29.8610 O   0  0  0  0  0  0  0  0  0  0  0  0
   -7.0471  -24.5920   29.1380 N   0  0  0  0  0  0  0  0  0  0  0  0
   -7.7453  -23.3280   29.0003 C   0  0  1  0  0  0  0  0  0  0  0  0
   -8.9260  -23.4529   28.0642 C   0  0  0  0  0  0  0  0  0  0  0  0
   -9.7242  -22.2285   27.9294 C   0  0  0  0  0  0  0  0  0  0  0  0
   -9.1869  -21.1184   28.1375 O   0  0  0  0  0  0  0  0  0  0  0  0
   -8.1014  -22.8848   30.3604 C   0  0  0  0  0  0  0  0  0  0  0  0
   -7.9725  -21.5760   30.7858 O   0  0  0  0  0  0  0  0  0  0  0  0
  -11.0637  -22.2439   27.5778 O   0  0  0  0  0  0  0  0  0  0  0  0
   -8.5418  -23.7261   31.1746 O   0  0  0  0  0  0  0  0  0  0  0  0
  2  1  1  1
  2  3  1  0
  4  2  1  0
  4  5  2  0
  6  7  1  0
  8  7  1  1
  8  9  1  0
  9  4  1  0
 10  8  1  0
 11 10  2  0
 12 10  1  0
 13 17  1  0
 13 12  1  0
 13 14  1  6
 15 14  1  0
 15 16  2  0
 17 18  1  0
 19 15  1  0
 20 17  2  0
M  END
$$$$
