ASD.pdb
     RDKit          3D

 20 19  0  0  1  0  0  0  0  0999 V2000
    8.4319  -16.9796   15.1475 C   0  0  0  0  0  0  0  0  0  0  0  0
    8.1375  -15.5123   14.9242 C   0  0  2  0  0  0  0  0  0  0  0  0
    8.4334  -15.1002   13.5736 N   0  0  0  0  0  0  0  0  0  0  0  0
    8.8888  -14.7283   15.9283 C   0  0  0  0  0  0  0  0  0  0  0  0
   10.0757  -14.4069   15.6572 O   0  0  0  0  0  0  0  0  0  0  0  0
    7.4368  -13.9433   19.7337 O   0  0  0  0  0  0  0  0  0  0  0  0
    8.2500  -13.0106   19.1361 C   0  0  0  0  0  0  0  0  0  0  0  0
    9.2103  -13.6596   18.1256 C   0  0  2  0  0  0  0  0  0  0  0  0
    8.3608  -14.3197   17.1656 N   0  0  0  0  0  0  0  0  0  0  0  0
   10.0898  -14.6190   18.8334 C   0  0  0  0  0  0  0  0  0  0  0  0
    9.7945  -15.8387   18.7660 O   0  0  0  0  0  0  0  0  0  0  0  0
   11.2304  -14.2125   19.5690 N   0  0  0  0  0  0  0  0  0  0  0  0
   12.0855  -15.1253   20.3037 C   0  0  1  0  0  0  0  0  0  0  0  0
   13.5056  -14.6110   20.3726 C   0  0  0  0  0  0  0  0  0  0  0  0
   14.2301  -14.6601   19.0971 C   0  0  0  0  0  0  0  0  0  0  0  0
   14.0675  -15.6384   18.3351 O   0  0  0  0  0  0  0  0  0  0  0  0
   11.4576  -15.3342   21.6210 C   0  0  0  0  0  0  0  0  0  0  0  0
   11.8802  -16.3011   22.5138 O   0  0  0  0  0  0  0  0  0  0  0  0
   15.0983  -13.6602   18.6911 O   0  0  0  0  0  0  0  0  0  0  0  0
   10.4965  -14.6067   21.9549 O   0  0  0  0  0  0  0  0  0  0  0  0
  2  1  1  6
  2  3  1  0
  4  2  1  0
  4  5  2  0
  6  7  1  0
  8  7  1  1
  8  9  1  0
  9  4  1  0
 10  8  1  0
 11 10  2  0
 12 10  1  0
 13 17  1  0
 13 12  1  0
 13 14  1  1
 15 14  1  0
 15 16  2  0
 17 18  1  0
 19 15  1  0
 20 17  2  0
M  END
$$$$
