ASD.pdb
     RDKit          3D

 20 19  0  0  1  0  0  0  0  0999 V2000
    8.7656  -17.0495   18.0153 C   0  0  0  0  0  0  0  0  0  0  0  0
    9.2576  -17.9142   19.1554 C   0  0  2  0  0  0  0  0  0  0  0  0
    8.1761  -18.5978   19.8222 N   0  0  0  0  0  0  0  0  0  0  0  0
   10.0405  -17.0655   20.0795 C   0  0  0  0  0  0  0  0  0  0  0  0
   11.0782  -16.5096   19.6328 O   0  0  0  0  0  0  0  0  0  0  0  0
    8.9014  -16.3248   23.9922 O   0  0  0  0  0  0  0  0  0  0  0  0
    9.5686  -15.3638   23.2713 C   0  0  0  0  0  0  0  0  0  0  0  0
   10.5255  -15.9887   22.2426 C   0  0  2  0  0  0  0  0  0  0  0  0
    9.6986  -16.8408   21.4246 N   0  0  0  0  0  0  0  0  0  0  0  0
   11.5736  -16.7573   22.9535 C   0  0  0  0  0  0  0  0  0  0  0  0
   11.3888  -17.9911   23.1056 O   0  0  0  0  0  0  0  0  0  0  0  0
   12.7540  -16.1571   23.4571 N   0  0  0  0  0  0  0  0  0  0  0  0
   13.7646  -16.8717   24.2135 C   0  0  1  0  0  0  0  0  0  0  0  0
   15.1121  -16.1948   24.1045 C   0  0  0  0  0  0  0  0  0  0  0  0
   15.6345  -16.1023   22.7360 C   0  0  0  0  0  0  0  0  0  0  0  0
   15.5014  -17.0743   21.9603 O   0  0  0  0  0  0  0  0  0  0  0  0
   13.2620  -16.9907   25.5943 C   0  0  0  0  0  0  0  0  0  0  0  0
   13.8314  -17.8277   26.5353 O   0  0  0  0  0  0  0  0  0  0  0  0
   16.2774  -14.9735   22.2556 O   0  0  0  0  0  0  0  0  0  0  0  0
   12.2740  -16.3055   25.9392 O   0  0  0  0  0  0  0  0  0  0  0  0
  2  1  1  6
  2  3  1  0
  4  2  1  0
  4  5  2  0
  6  7  1  0
  8  7  1  1
  8  9  1  0
  9  4  1  0
 10  8  1  0
 11 10  2  0
 12 10  1  0
 13 17  1  0
 13 12  1  0
 13 14  1  1
 15 14  1  0
 15 16  2  0
 17 18  1  0
 19 15  1  0
 20 17  2  0
M  END
$$$$
