ASD.pdb
     RDKit          3D

 20 19  0  0  1  0  0  0  0  0999 V2000
    8.5686  -16.9758   15.3940 C   0  0  0  0  0  0  0  0  0  0  0  0
    8.4156  -15.4895   15.1553 C   0  0  2  0  0  0  0  0  0  0  0  0
    8.8750  -15.1017   13.8438 N   0  0  0  0  0  0  0  0  0  0  0  0
    9.1244  -14.7688   16.2349 C   0  0  0  0  0  0  0  0  0  0  0  0
   10.3369  -14.4812   16.0539 O   0  0  0  0  0  0  0  0  0  0  0  0
    7.4200  -14.0075   19.9278 O   0  0  0  0  0  0  0  0  0  0  0  0
    8.3215  -13.0992   19.4274 C   0  0  0  0  0  0  0  0  0  0  0  0
    9.3296  -13.7654   18.4764 C   0  0  2  0  0  0  0  0  0  0  0  0
    8.5294  -14.3850   17.4494 N   0  0  0  0  0  0  0  0  0  0  0  0
   10.1268  -14.7619   19.2290 C   0  0  0  0  0  0  0  0  0  0  0  0
    9.7572  -15.9620   19.1777 O   0  0  0  0  0  0  0  0  0  0  0  0
   11.2697  -14.4113   19.9892 N   0  0  0  0  0  0  0  0  0  0  0  0
   12.0314  -15.3549   20.7851 C   0  0  1  0  0  0  0  0  0  0  0  0
   13.4538  -14.8824   20.9837 C   0  0  0  0  0  0  0  0  0  0  0  0
   14.2685  -14.8837   19.7628 C   0  0  0  0  0  0  0  0  0  0  0  0
   14.0210  -15.7128   18.8596 O   0  0  0  0  0  0  0  0  0  0  0  0
   11.2850  -15.5576   22.0401 C   0  0  0  0  0  0  0  0  0  0  0  0
   11.5723  -16.5722   22.9337 O   0  0  0  0  0  0  0  0  0  0  0  0
   15.3137  -13.9979   19.5601 O   0  0  0  0  0  0  0  0  0  0  0  0
   10.3458  -14.7793   22.3174 O   0  0  0  0  0  0  0  0  0  0  0  0
  2  1  1  1
  2  3  1  0
  4  2  1  0
  4  5  2  0
  6  7  1  0
  8  7  1  1
  8  9  1  0
  9  4  1  0
 10  8  1  0
 11 10  2  0
 12 10  1  0
 13 17  1  0
 13 12  1  0
 13 14  1  1
 15 14  1  0
 15 16  2  0
 17 18  1  0
 19 15  1  0
 20 17  2  0
M  END
$$$$
