ASD.pdb
     RDKit          3D

 20 19  0  0  1  0  0  0  0  0999 V2000
    7.6274  -15.3122   18.0529 C   0  0  0  0  0  0  0  0  0  0  0  0
    7.6203  -13.8865   18.5595 C   0  0  2  0  0  0  0  0  0  0  0  0
    8.2183  -12.9736   17.6159 N   0  0  0  0  0  0  0  0  0  0  0  0
    8.2949  -13.8563   19.8754 C   0  0  0  0  0  0  0  0  0  0  0  0
    9.5362  -13.6462   19.8964 O   0  0  0  0  0  0  0  0  0  0  0  0
    6.5761  -15.0905   23.5004 O   0  0  0  0  0  0  0  0  0  0  0  0
    7.3337  -13.9453   23.4497 C   0  0  0  0  0  0  0  0  0  0  0  0
    8.3888  -14.0120   22.3331 C   0  0  2  0  0  0  0  0  0  0  0  0
    7.6372  -14.0472   21.1031 N   0  0  0  0  0  0  0  0  0  0  0  0
    9.2116  -15.2312   22.5101 C   0  0  0  0  0  0  0  0  0  0  0  0
    8.8748  -16.2591   21.8701 O   0  0  0  0  0  0  0  0  0  0  0  0
   10.3437  -15.2736   23.3609 N   0  0  0  0  0  0  0  0  0  0  0  0
   11.1703  -16.4509   23.5479 C   0  0  1  0  0  0  0  0  0  0  0  0
   12.6010  -16.1874   23.1362 C   0  0  0  0  0  0  0  0  0  0  0  0
   13.5270  -17.2890   23.4252 C   0  0  0  0  0  0  0  0  0  0  0  0
   13.1898  -18.4625   23.1544 O   0  0  0  0  0  0  0  0  0  0  0  0
   11.0162  -16.8637   24.9547 C   0  0  0  0  0  0  0  0  0  0  0  0
   10.4495  -16.0542   25.9211 O   0  0  0  0  0  0  0  0  0  0  0  0
   14.7747  -17.0880   23.9918 O   0  0  0  0  0  0  0  0  0  0  0  0
   11.4144  -17.9984   25.2989 O   0  0  0  0  0  0  0  0  0  0  0  0
  2  1  1  6
  2  3  1  0
  4  2  1  0
  4  5  2  0
  6  7  1  0
  8  7  1  1
  8  9  1  0
  9  4  1  0
 10  8  1  0
 11 10  2  0
 12 10  1  0
 13 17  1  0
 13 12  1  0
 13 14  1  1
 15 14  1  0
 15 16  2  0
 17 18  1  0
 19 15  1  0
 20 17  2  0
M  END
$$$$
