ASD.pdb
     RDKit          3D

 20 19  0  0  1  0  0  0  0  0999 V2000
    7.1544  -15.1768   19.5137 C   0  0  0  0  0  0  0  0  0  0  0  0
    7.4684  -13.7596   19.9408 C   0  0  2  0  0  0  0  0  0  0  0  0
    8.1461  -13.0193   18.9044 N   0  0  0  0  0  0  0  0  0  0  0  0
    8.2498  -13.8135   21.1954 C   0  0  0  0  0  0  0  0  0  0  0  0
    9.5038  -13.7359   21.1123 O   0  0  0  0  0  0  0  0  0  0  0  0
    6.5128  -14.3313   24.9169 O   0  0  0  0  0  0  0  0  0  0  0  0
    7.6607  -13.5830   24.8142 C   0  0  0  0  0  0  0  0  0  0  0  0
    8.5324  -14.0405   23.6330 C   0  0  2  0  0  0  0  0  0  0  0  0
    7.6801  -13.9456   22.4739 N   0  0  0  0  0  0  0  0  0  0  0  0
    8.9861  -15.4308   23.8699 C   0  0  0  0  0  0  0  0  0  0  0  0
    8.2361  -16.3621   23.4830 O   0  0  0  0  0  0  0  0  0  0  0  0
   10.2145  -15.7371   24.5060 N   0  0  0  0  0  0  0  0  0  0  0  0
   10.6914  -17.0879   24.7342 C   0  0  1  0  0  0  0  0  0  0  0  0
   12.1916  -17.1752   24.5678 C   0  0  0  0  0  0  0  0  0  0  0  0
   12.6425  -17.2575   23.1734 C   0  0  0  0  0  0  0  0  0  0  0  0
   11.8030  -17.4481   22.2661 O   0  0  0  0  0  0  0  0  0  0  0  0
   10.2104  -17.4926   26.0677 C   0  0  0  0  0  0  0  0  0  0  0  0
    9.7675  -16.5902   27.0163 O   0  0  0  0  0  0  0  0  0  0  0  0
   13.9729  -17.1326   22.8090 O   0  0  0  0  0  0  0  0  0  0  0  0
   10.1990  -18.7081   26.3631 O   0  0  0  0  0  0  0  0  0  0  0  0
  2  1  1  6
  2  3  1  0
  4  2  1  0
  4  5  2  0
  6  7  1  0
  8  7  1  1
  8  9  1  0
  9  4  1  0
 10  8  1  0
 11 10  2  0
 12 10  1  0
 13 17  1  0
 13 12  1  0
 13 14  1  1
 15 14  1  0
 15 16  2  0
 17 18  1  0
 19 15  1  0
 20 17  2  0
M  END
$$$$
