ARN.pdb
     RDKit          3D

 25 24  0  0  1  0  0  0  0  0999 V2000
   21.9600  -16.6419  -18.2756 C   0  0  0  0  0  0  0  0  0  0  0  0
   23.1570  -17.3046  -17.6440 C   0  0  2  0  0  0  0  0  0  0  0  0
   24.1168  -17.6731  -18.6428 N   0  0  0  0  0  0  0  0  0  0  0  0
   22.6987  -18.5243  -16.9430 C   0  0  0  0  0  0  0  0  0  0  0  0
   22.3428  -19.5292  -17.6367 O   0  0  0  0  0  0  0  0  0  0  0  0
   24.9681  -23.3438  -12.7620 N   0  0  0  0  0  0  0  0  0  0  0  0
   25.5850  -22.0823  -12.5729 C   0  0  0  0  0  0  0  0  0  0  0  0
   26.7510  -21.8581  -13.1135 N   0  0  0  0  0  0  0  0  0  0  0  0
   25.0052  -21.0395  -11.8266 N   0  0  0  0  0  0  0  0  0  0  0  0
   23.6137  -21.0362  -11.4558 C   0  0  0  0  0  0  0  0  0  0  0  0
   22.7427  -21.0189  -12.6979 C   0  0  0  0  0  0  0  0  0  0  0  0
   23.0797  -19.8488  -13.5498 C   0  0  0  0  0  0  0  0  0  0  0  0
   22.2886  -19.7459  -14.8193 C   0  0  2  0  0  0  0  0  0  0  0  0
   22.6649  -18.5492  -15.5409 N   0  0  0  0  0  0  0  0  0  0  0  0
   20.8605  -19.6099  -14.4244 C   0  0  0  0  0  0  0  0  0  0  0  0
   20.4814  -18.5397  -13.8895 O   0  0  0  0  0  0  0  0  0  0  0  0
   27.2383  -22.5516  -13.6981 N   0  0  0  0  0  0  0  0  0  0  0  0
   15.8520  -20.3059  -14.0339 C   0  0  0  0  0  0  0  0  0  0  0  0
   16.3221  -21.2177  -15.0158 O   0  0  0  0  0  0  0  0  0  0  0  0
   15.4830  -21.8671  -15.6597 C   0  0  0  0  0  0  0  0  0  0  0  0
   17.7579  -21.3762  -15.2504 C   0  0  2  0  0  0  0  0  0  0  0  0
   18.5522  -20.4672  -14.3439 N   0  0  0  0  0  0  0  0  0  0  0  0
   19.9745  -20.6821  -14.6600 C   0  0  0  0  0  0  0  0  0  0  0  0
   18.4140  -20.9863  -12.9468 O   0  0  0  0  0  0  0  0  0  0  0  0
   17.6810  -20.3396  -11.9776 O   0  0  0  0  0  0  0  0  0  0  0  0
  2  1  1  6
  2  3  1  0
  4  2  1  0
  5  4  2  0
  6  7  1  0
  7  8  2  0
  7  9  1  0
  9 10  1  0
 10 11  1  0
 11 12  1  0
 13 12  1  1
 13 14  1  0
 14  4  1  0
 15 16  2  0
 15 13  1  0
 18 20  1  0
 18 17  1  0
 19 18  2  0
 21 20  1  6
 21 22  1  0
 22 15  1  0
 23 21  1  0
 24 23  1  0
 25 23  2  0
M  END
$$$$
