ARN.pdb
     RDKit          3D

 25 24  0  0  1  0  0  0  0  0999 V2000
   26.0034  -11.8841  -15.3596 C   0  0  0  0  0  0  0  0  0  0  0  0
   24.9280  -12.4701  -16.2377 C   0  0  2  0  0  0  0  0  0  0  0  0
   25.4842  -12.9432  -17.4711 N   0  0  0  0  0  0  0  0  0  0  0  0
   23.9370  -11.4112  -16.5308 C   0  0  0  0  0  0  0  0  0  0  0  0
   24.1796  -10.5930  -17.4739 O   0  0  0  0  0  0  0  0  0  0  0  0
   15.6501  -12.9452  -15.3989 N   0  0  0  0  0  0  0  0  0  0  0  0
   16.1757  -11.6849  -15.7773 C   0  0  0  0  0  0  0  0  0  0  0  0
   15.3712  -10.6616  -15.8647 N   0  0  0  0  0  0  0  0  0  0  0  0
   17.5355  -11.4671  -16.0672 N   0  0  0  0  0  0  0  0  0  0  0  0
   18.5099  -12.5272  -16.0424 C   0  0  0  0  0  0  0  0  0  0  0  0
   19.8399  -12.0260  -16.5732 C   0  0  0  0  0  0  0  0  0  0  0  0
   20.3778  -10.9558  -15.6936 C   0  0  0  0  0  0  0  0  0  0  0  0
   21.7054  -10.4019  -16.1161 C   0  0  2  0  0  0  0  0  0  0  0  0
   22.7611  -11.3298  -15.7706 N   0  0  0  0  0  0  0  0  0  0  0  0
   21.9191   -9.1557  -15.3316 C   0  0  0  0  0  0  0  0  0  0  0  0
   22.3204   -9.2502  -14.1461 O   0  0  0  0  0  0  0  0  0  0  0  0
   15.6849   -9.7286  -16.1670 N   0  0  0  0  0  0  0  0  0  0  0  0
   22.4824   -3.1108  -16.1490 C   0  0  0  0  0  0  0  0  0  0  0  0
   22.5398   -4.3387  -15.4381 O   0  0  0  0  0  0  0  0  0  0  0  0
   22.7908   -4.2994  -14.2233 C   0  0  0  0  0  0  0  0  0  0  0  0
   22.3074   -5.6062  -16.1318 C   0  0  2  0  0  0  0  0  0  0  0  0
   21.9632   -6.6992  -15.1491 N   0  0  0  0  0  0  0  0  0  0  0  0
   21.6660   -7.9072  -15.9375 C   0  0  0  0  0  0  0  0  0  0  0  0
   20.6498   -6.3490  -14.5224 O   0  0  0  0  0  0  0  0  0  0  0  0
   20.5475   -5.6936  -13.3163 O   0  0  0  0  0  0  0  0  0  0  0  0
  2  1  1  1
  2  3  1  0
  4  2  1  0
  5  4  2  0
  6  7  1  0
  7  8  2  0
  7  9  1  0
  9 10  1  0
 10 11  1  0
 11 12  1  0
 13 12  1  1
 13 14  1  0
 14  4  1  0
 15 16  2  0
 15 13  1  0
 18 20  1  0
 18 17  1  0
 19 18  2  0
 21 20  1  1
 21 22  1  0
 22 15  1  0
 23 21  1  0
 24 23  1  0
 25 23  2  0
M  END
$$$$
