ARN.pdb
     RDKit          3D

 25 24  0  0  1  0  0  0  0  0999 V2000
   15.1253   -6.7420   -7.4030 C   0  0  0  0  0  0  0  0  0  0  0  0
   14.5358   -7.5182   -8.5523 C   0  0  2  0  0  0  0  0  0  0  0  0
   13.5708   -8.4669   -8.0797 N   0  0  0  0  0  0  0  0  0  0  0  0
   15.6299   -8.2432   -9.2351 C   0  0  0  0  0  0  0  0  0  0  0  0
   15.8690   -9.4459   -8.8968 O   0  0  0  0  0  0  0  0  0  0  0  0
   16.8134  -13.9452  -14.3462 N   0  0  0  0  0  0  0  0  0  0  0  0
   17.4352  -12.9023  -15.0767 C   0  0  0  0  0  0  0  0  0  0  0  0
   18.0873  -13.1931  -16.1686 N   0  0  0  0  0  0  0  0  0  0  0  0
   17.3891  -11.5500  -14.6897 N   0  0  0  0  0  0  0  0  0  0  0  0
   16.7435  -11.1149  -13.4783 C   0  0  0  0  0  0  0  0  0  0  0  0
   16.8313   -9.6055  -13.3534 C   0  0  0  0  0  0  0  0  0  0  0  0
   16.2344   -9.1571  -12.0685 C   0  0  0  0  0  0  0  0  0  0  0  0
   17.1488   -8.3485  -11.1979 C   0  0  2  0  0  0  0  0  0  0  0  0
   16.3760   -7.5973  -10.2320 N   0  0  0  0  0  0  0  0  0  0  0  0
   17.8372   -7.3745  -12.0876 C   0  0  0  0  0  0  0  0  0  0  0  0
   17.1533   -6.4897  -12.6574 O   0  0  0  0  0  0  0  0  0  0  0  0
   18.5727  -12.4834  -16.7351 N   0  0  0  0  0  0  0  0  0  0  0  0
   21.4791   -4.7923  -14.5635 C   0  0  0  0  0  0  0  0  0  0  0  0
   21.9864   -5.2173  -13.3070 O   0  0  0  0  0  0  0  0  0  0  0  0
   23.0885   -4.7778  -12.9429 C   0  0  0  0  0  0  0  0  0  0  0  0
   21.2200   -6.1470  -12.4764 C   0  0  1  0  0  0  0  0  0  0  0  0
   19.8805   -6.4470  -13.1047 N   0  0  0  0  0  0  0  0  0  0  0  0
   19.2331   -7.4707  -12.2667 C   0  0  0  0  0  0  0  0  0  0  0  0
   20.1347   -7.1532  -14.3997 O   0  0  0  0  0  0  0  0  0  0  0  0
   20.1392   -6.5077  -15.6154 O   0  0  0  0  0  0  0  0  0  0  0  0
  2  1  1  1
  2  3  1  0
  4  2  1  0
  5  4  2  0
  6  7  1  0
  7  8  2  0
  7  9  1  0
  9 10  1  0
 10 11  1  0
 11 12  1  0
 13 12  1  6
 13 14  1  0
 14  4  1  0
 15 16  2  0
 15 13  1  0
 18 20  1  0
 18 17  1  0
 19 18  2  0
 21 20  1  1
 21 22  1  0
 22 15  1  0
 23 21  1  0
 24 23  1  0
 25 23  2  0
M  END
$$$$
