ARN.pdb
     RDKit          3D

 25 24  0  0  1  0  0  0  0  0999 V2000
   25.1606  -13.0850  -17.5443 C   0  0  0  0  0  0  0  0  0  0  0  0
   25.3149  -11.9597  -16.5540 C   0  0  2  0  0  0  0  0  0  0  0  0
   25.1902  -12.4466  -15.2116 N   0  0  0  0  0  0  0  0  0  0  0  0
   24.2481  -10.9662  -16.8073 C   0  0  0  0  0  0  0  0  0  0  0  0
   24.1920  -10.4092  -17.9495 O   0  0  0  0  0  0  0  0  0  0  0  0
   16.5006  -13.1901  -14.8185 N   0  0  0  0  0  0  0  0  0  0  0  0
   17.1537  -13.4431  -16.0503 C   0  0  0  0  0  0  0  0  0  0  0  0
   16.6351  -14.3078  -16.8782 N   0  0  0  0  0  0  0  0  0  0  0  0
   18.3462  -12.8061  -16.4411 N   0  0  0  0  0  0  0  0  0  0  0  0
   19.0319  -11.8643  -15.5946 C   0  0  0  0  0  0  0  0  0  0  0  0
   20.2724  -11.3411  -16.2941 C   0  0  0  0  0  0  0  0  0  0  0  0
   20.9623  -10.3377  -15.4422 C   0  0  0  0  0  0  0  0  0  0  0  0
   22.2159   -9.7657  -16.0331 C   0  0  2  0  0  0  0  0  0  0  0  0
   23.3284  -10.6598  -15.7935 N   0  0  0  0  0  0  0  0  0  0  0  0
   22.4891   -8.4942  -15.3100 C   0  0  0  0  0  0  0  0  0  0  0  0
   23.0860   -8.5434  -14.2071 O   0  0  0  0  0  0  0  0  0  0  0  0
   17.0498  -14.5203  -17.7963 N   0  0  0  0  0  0  0  0  0  0  0  0
   23.8724   -3.0700  -15.5883 C   0  0  0  0  0  0  0  0  0  0  0  0
   22.5611   -3.6133  -15.5475 O   0  0  0  0  0  0  0  0  0  0  0  0
   21.6771   -2.9634  -14.9673 C   0  0  0  0  0  0  0  0  0  0  0  0
   22.2755   -4.9036  -16.1762 C   0  0  1  0  0  0  0  0  0  0  0  0
   22.4748   -6.0333  -15.1948 N   0  0  0  0  0  0  0  0  0  0  0  0
   22.0717   -7.2731  -15.8800 C   0  0  0  0  0  0  0  0  0  0  0  0
   21.4558   -5.8768  -14.1097 O   0  0  0  0  0  0  0  0  0  0  0  0
   21.7416   -5.3009  -12.8925 O   0  0  0  0  0  0  0  0  0  0  0  0
  2  1  1  6
  2  3  1  0
  4  2  1  0
  5  4  2  0
  6  7  1  0
  7  8  2  0
  7  9  1  0
  9 10  1  0
 10 11  1  0
 11 12  1  0
 13 12  1  1
 13 14  1  0
 14  4  1  0
 15 16  2  0
 15 13  1  0
 18 20  1  0
 18 17  1  0
 19 18  2  0
 21 20  1  6
 21 22  1  0
 22 15  1  0
 23 21  1  0
 24 23  1  0
 25 23  2  0
M  END
$$$$
