ARN.pdb
     RDKit          3D

 25 24  0  0  1  0  0  0  0  0999 V2000
   37.2922  -10.9280  -17.0129 C   0  0  0  0  0  0  0  0  0  0  0  0
   36.1507  -10.4781  -16.1380 C   0  0  2  0  0  0  0  0  0  0  0  0
   35.3803  -11.6023  -15.6939 N   0  0  0  0  0  0  0  0  0  0  0  0
   35.2812   -9.5812  -16.9309 C   0  0  0  0  0  0  0  0  0  0  0  0
   35.7751   -8.5033  -17.3915 O   0  0  0  0  0  0  0  0  0  0  0  0
   27.7177  -11.5028  -21.3634 N   0  0  0  0  0  0  0  0  0  0  0  0
   28.0384  -10.1349  -21.5473 C   0  0  0  0  0  0  0  0  0  0  0  0
   27.3185   -9.4185  -22.3663 N   0  0  0  0  0  0  0  0  0  0  0  0
   29.1025   -9.4922  -20.8877 N   0  0  0  0  0  0  0  0  0  0  0  0
   29.9447  -10.1711  -19.9373 C   0  0  0  0  0  0  0  0  0  0  0  0
   31.0168   -9.2286  -19.4234 C   0  0  0  0  0  0  0  0  0  0  0  0
   31.9493   -9.9497  -18.5185 C   0  0  0  0  0  0  0  0  0  0  0  0
   33.0835   -9.1215  -17.9937 C   0  0  2  0  0  0  0  0  0  0  0  0
   33.9421   -9.9321  -17.1568 N   0  0  0  0  0  0  0  0  0  0  0  0
   32.4814   -8.0629  -17.1388 C   0  0  0  0  0  0  0  0  0  0  0  0
   31.8023   -8.4067  -16.1409 O   0  0  0  0  0  0  0  0  0  0  0  0
   27.5180   -8.4281  -22.5651 N   0  0  0  0  0  0  0  0  0  0  0  0
   32.5297   -4.1094  -13.5267 C   0  0  0  0  0  0  0  0  0  0  0  0
   32.6755   -4.0071  -14.9355 O   0  0  0  0  0  0  0  0  0  0  0  0
   32.3812   -2.9297  -15.4768 C   0  0  0  0  0  0  0  0  0  0  0  0
   33.1603   -5.1480  -15.7133 C   0  0  1  0  0  0  0  0  0  0  0  0
   32.0677   -5.6947  -16.6000 N   0  0  0  0  0  0  0  0  0  0  0  0
   32.6882   -6.7075  -17.4708 C   0  0  0  0  0  0  0  0  0  0  0  0
   31.6649   -4.6074  -17.5466 O   0  0  0  0  0  0  0  0  0  0  0  0
   30.5983   -3.7693  -17.3130 O   0  0  0  0  0  0  0  0  0  0  0  0
  2  1  1  6
  2  3  1  0
  4  2  1  0
  5  4  2  0
  6  7  1  0
  7  8  2  0
  7  9  1  0
  9 10  1  0
 10 11  1  0
 11 12  1  0
 13 12  1  1
 13 14  1  0
 14  4  1  0
 15 16  2  0
 15 13  1  0
 18 20  1  0
 18 17  1  0
 19 18  2  0
 21 20  1  1
 21 22  1  0
 22 15  1  0
 23 21  1  0
 24 23  1  0
 25 23  2  0
M  END
$$$$
