ARN.pdb
     RDKit          3D

 25 24  0  0  1  0  0  0  0  0999 V2000
   10.8000  -17.1573   -0.5037 C   0  0  0  0  0  0  0  0  0  0  0  0
   10.2398  -18.4057   -1.1349 C   0  0  2  0  0  0  0  0  0  0  0  0
    8.8708  -18.5944   -0.7543 N   0  0  0  0  0  0  0  0  0  0  0  0
   11.0342  -19.5623   -0.6655 C   0  0  0  0  0  0  0  0  0  0  0  0
   10.8814  -19.9613    0.5326 O   0  0  0  0  0  0  0  0  0  0  0  0
   16.7043  -24.9144   -5.2719 N   0  0  0  0  0  0  0  0  0  0  0  0
   16.4277  -25.4773   -4.0013 C   0  0  0  0  0  0  0  0  0  0  0  0
   16.9188  -26.6493   -3.7054 N   0  0  0  0  0  0  0  0  0  0  0  0
   15.6441  -24.8370   -3.0232 N   0  0  0  0  0  0  0  0  0  0  0  0
   14.9908  -23.5760   -3.2610 C   0  0  0  0  0  0  0  0  0  0  0  0
   14.1585  -23.1839   -2.0546 C   0  0  0  0  0  0  0  0  0  0  0  0
   13.4499  -21.9026   -2.3092 C   0  0  0  0  0  0  0  0  0  0  0  0
   12.6524  -21.3835   -1.1507 C   0  0  2  0  0  0  0  0  0  0  0  0
   11.9323  -20.1903   -1.5409 N   0  0  0  0  0  0  0  0  0  0  0  0
   13.6290  -21.0017   -0.0949 C   0  0  0  0  0  0  0  0  0  0  0  0
   14.2894  -19.9440   -0.2376 O   0  0  0  0  0  0  0  0  0  0  0  0
   16.7577  -27.1097   -2.7986 N   0  0  0  0  0  0  0  0  0  0  0  0
   16.3436  -20.7323    4.1626 C   0  0  0  0  0  0  0  0  0  0  0  0
   14.9549  -20.8817    4.4193 O   0  0  0  0  0  0  0  0  0  0  0  0
   14.5590  -20.7483    5.5880 C   0  0  0  0  0  0  0  0  0  0  0  0
   14.0295  -21.1841    3.3267 C   0  0  1  0  0  0  0  0  0  0  0  0
   14.7810  -21.4288    2.0405 N   0  0  0  0  0  0  0  0  0  0  0  0
   13.7864  -21.8344    1.0328 C   0  0  0  0  0  0  0  0  0  0  0  0
   15.6183  -22.6549    2.2304 O   0  0  0  0  0  0  0  0  0  0  0  0
   16.8717  -22.6242    2.7986 O   0  0  0  0  0  0  0  0  0  0  0  0
  2  1  1  1
  2  3  1  0
  4  2  1  0
  5  4  2  0
  6  7  1  0
  7  8  2  0
  7  9  1  0
  9 10  1  0
 10 11  1  0
 11 12  1  0
 13 12  1  6
 13 14  1  0
 14  4  1  0
 15 16  2  0
 15 13  1  0
 18 20  1  0
 18 17  1  0
 19 18  2  0
 21 20  1  6
 21 22  1  0
 22 15  1  0
 23 21  1  0
 24 23  1  0
 25 23  2  0
M  END
$$$$
