ARN.pdb
     RDKit          3D

 25 24  0  0  1  0  0  0  0  0999 V2000
   26.5830  -20.8593  -18.2746 C   0  0  0  0  0  0  0  0  0  0  0  0
   27.1088  -21.3675  -16.9569 C   0  0  2  0  0  0  0  0  0  0  0  0
   27.9829  -22.4855  -17.1585 N   0  0  0  0  0  0  0  0  0  0  0  0
   25.9591  -21.7976  -16.1309 C   0  0  0  0  0  0  0  0  0  0  0  0
   25.3027  -22.8271  -16.4878 O   0  0  0  0  0  0  0  0  0  0  0  0
   26.1107  -20.0041   -8.5323 N   0  0  0  0  0  0  0  0  0  0  0  0
   24.9886  -20.6676   -9.0875 C   0  0  0  0  0  0  0  0  0  0  0  0
   23.8086  -20.4602   -8.5710 N   0  0  0  0  0  0  0  0  0  0  0  0
   25.0717  -21.5494  -10.1811 N   0  0  0  0  0  0  0  0  0  0  0  0
   26.3260  -21.9068  -10.7914 C   0  0  0  0  0  0  0  0  0  0  0  0
   26.2285  -21.7758  -12.2998 C   0  0  0  0  0  0  0  0  0  0  0  0
   24.8887  -21.2641  -12.6892 C   0  0  0  0  0  0  0  0  0  0  0  0
   24.5250  -21.4826  -14.1271 C   0  0  2  0  0  0  0  0  0  0  0  0
   25.6173  -21.0692  -14.9819 N   0  0  0  0  0  0  0  0  0  0  0  0
   23.3623  -20.5996  -14.4141 C   0  0  0  0  0  0  0  0  0  0  0  0
   23.5642  -19.5056  -14.9951 O   0  0  0  0  0  0  0  0  0  0  0  0
   22.9487  -20.8733   -8.9586 N   0  0  0  0  0  0  0  0  0  0  0  0
   21.9307  -20.7396  -18.3914 C   0  0  0  0  0  0  0  0  0  0  0  0
   21.3435  -20.2489  -17.1952 O   0  0  0  0  0  0  0  0  0  0  0  0
   21.1853  -19.0231  -17.0819 C   0  0  0  0  0  0  0  0  0  0  0  0
   20.9415  -21.1744  -16.1351 C   0  0  2  0  0  0  0  0  0  0  0  0
   20.9310  -20.4809  -14.7943 N   0  0  0  0  0  0  0  0  0  0  0  0
   22.0702  -21.0128  -14.0271 C   0  0  0  0  0  0  0  0  0  0  0  0
   19.7333  -20.9686  -14.0406 O   0  0  0  0  0  0  0  0  0  0  0  0
   19.5943  -22.2715  -13.6189 O   0  0  0  0  0  0  0  0  0  0  0  0
  2  1  1  6
  2  3  1  0
  4  2  1  0
  5  4  2  0
  6  7  1  0
  7  8  2  0
  7  9  1  0
  9 10  1  0
 10 11  1  0
 11 12  1  0
 13 12  1  1
 13 14  1  0
 14  4  1  0
 15 16  2  0
 15 13  1  0
 18 20  1  0
 18 17  1  0
 19 18  2  0
 21 20  1  6
 21 22  1  0
 22 15  1  0
 23 21  1  0
 24 23  1  0
 25 23  2  0
M  END
$$$$
