ARN.pdb
     RDKit          3D

 25 24  0  0  1  0  0  0  0  0999 V2000
   22.2612  -17.9756  -18.7050 C   0  0  0  0  0  0  0  0  0  0  0  0
   23.3175  -18.7068  -17.9174 C   0  0  2  0  0  0  0  0  0  0  0  0
   24.1563  -19.4761  -18.7887 N   0  0  0  0  0  0  0  0  0  0  0  0
   22.6429  -19.6195  -16.9682 C   0  0  0  0  0  0  0  0  0  0  0  0
   22.1305  -20.6945  -17.4152 O   0  0  0  0  0  0  0  0  0  0  0  0
   24.9850  -20.7136   -8.7658 N   0  0  0  0  0  0  0  0  0  0  0  0
   25.3130  -20.8844  -10.1336 C   0  0  0  0  0  0  0  0  0  0  0  0
   26.5664  -21.0022  -10.4762 N   0  0  0  0  0  0  0  0  0  0  0  0
   24.3525  -20.9372  -11.1609 N   0  0  0  0  0  0  0  0  0  0  0  0
   22.9655  -20.6204  -10.9384 C   0  0  0  0  0  0  0  0  0  0  0  0
   22.1670  -20.8532  -12.2072 C   0  0  0  0  0  0  0  0  0  0  0  0
   22.6299  -19.9403  -13.2846 C   0  0  0  0  0  0  0  0  0  0  0  0
   22.0284  -20.2020  -14.6328 C   0  0  2  0  0  0  0  0  0  0  0  0
   22.5809  -19.2856  -15.6072 N   0  0  0  0  0  0  0  0  0  0  0  0
   20.5725  -19.9186  -14.5148 C   0  0  0  0  0  0  0  0  0  0  0  0
   20.1896  -18.7235  -14.4985 O   0  0  0  0  0  0  0  0  0  0  0  0
   26.8703  -21.1126  -11.4538 N   0  0  0  0  0  0  0  0  0  0  0  0
   15.5479  -20.3435  -14.8157 C   0  0  0  0  0  0  0  0  0  0  0  0
   16.2489  -20.9907  -15.8675 O   0  0  0  0  0  0  0  0  0  0  0  0
   15.6083  -21.3288  -16.8753 C   0  0  0  0  0  0  0  0  0  0  0  0
   17.6855  -21.2446  -15.7520 C   0  0  2  0  0  0  0  0  0  0  0  0
   18.2282  -20.6747  -14.4637 N   0  0  0  0  0  0  0  0  0  0  0  0
   19.6652  -20.9951  -14.4245 C   0  0  0  0  0  0  0  0  0  0  0  0
   17.6528  -21.4735  -13.3362 O   0  0  0  0  0  0  0  0  0  0  0  0
   16.7212  -20.9660  -12.4591 O   0  0  0  0  0  0  0  0  0  0  0  0
  2  1  1  6
  2  3  1  0
  4  2  1  0
  5  4  2  0
  6  7  1  0
  7  8  2  0
  7  9  1  0
  9 10  1  0
 10 11  1  0
 11 12  1  0
 13 12  1  1
 13 14  1  0
 14  4  1  0
 15 16  2  0
 15 13  1  0
 18 20  1  0
 18 17  1  0
 19 18  2  0
 21 20  1  6
 21 22  1  0
 22 15  1  0
 23 21  1  0
 24 23  1  0
 25 23  2  0
M  END
$$$$
