ARN.pdb
     RDKit          3D

 25 24  0  0  1  0  0  0  0  0999 V2000
   24.0159  -14.7200  -16.9726 C   0  0  0  0  0  0  0  0  0  0  0  0
   24.9348  -15.5732  -16.1369 C   0  0  2  0  0  0  0  0  0  0  0  0
   26.2284  -15.6705  -16.7466 N   0  0  0  0  0  0  0  0  0  0  0  0
   24.3478  -16.9274  -16.0334 C   0  0  0  0  0  0  0  0  0  0  0  0
   24.3641  -17.6793  -17.0592 O   0  0  0  0  0  0  0  0  0  0  0  0
   25.0028  -23.1828  -13.3936 N   0  0  0  0  0  0  0  0  0  0  0  0
   25.7894  -22.3255  -12.5849 C   0  0  0  0  0  0  0  0  0  0  0  0
   27.0864  -22.4665  -12.5843 N   0  0  0  0  0  0  0  0  0  0  0  0
   25.2469  -21.3137  -11.7709 N   0  0  0  0  0  0  0  0  0  0  0  0
   23.8298  -21.0769  -11.6744 C   0  0  0  0  0  0  0  0  0  0  0  0
   23.2849  -20.6187  -13.0142 C   0  0  0  0  0  0  0  0  0  0  0  0
   23.7970  -19.2635  -13.3449 C   0  0  0  0  0  0  0  0  0  0  0  0
   23.3052  -18.7051  -14.6465 C   0  0  2  0  0  0  0  0  0  0  0  0
   23.7894  -17.3522  -14.8188 N   0  0  0  0  0  0  0  0  0  0  0  0
   21.8211  -18.6500  -14.5557 C   0  0  0  0  0  0  0  0  0  0  0  0
   21.2907  -17.7224  -13.8974 O   0  0  0  0  0  0  0  0  0  0  0  0
   27.7081  -21.9135  -11.9777 N   0  0  0  0  0  0  0  0  0  0  0  0
   16.8979  -19.2961  -15.4739 C   0  0  0  0  0  0  0  0  0  0  0  0
   17.5645  -20.2516  -16.2859 O   0  0  0  0  0  0  0  0  0  0  0  0
   16.8874  -20.9040  -17.0960 C   0  0  0  0  0  0  0  0  0  0  0  0
   19.0089  -20.4499  -16.1597 C   0  0  2  0  0  0  0  0  0  0  0  0
   19.5873  -19.5253  -15.1158 N   0  0  0  0  0  0  0  0  0  0  0  0
   21.0529  -19.6370  -15.2082 C   0  0  0  0  0  0  0  0  0  0  0  0
   19.2686  -20.1022  -13.7720 O   0  0  0  0  0  0  0  0  0  0  0  0
   18.4052  -19.5001  -12.8850 O   0  0  0  0  0  0  0  0  0  0  0  0
  2  1  1  6
  2  3  1  0
  4  2  1  0
  5  4  2  0
  6  7  1  0
  7  8  2  0
  7  9  1  0
  9 10  1  0
 10 11  1  0
 11 12  1  0
 13 12  1  1
 13 14  1  0
 14  4  1  0
 15 16  2  0
 15 13  1  0
 18 20  1  0
 18 17  1  0
 19 18  2  0
 21 20  1  6
 21 22  1  0
 22 15  1  0
 23 21  1  0
 24 23  1  0
 25 23  2  0
M  END
$$$$
