ARN.pdb
     RDKit          3D

 25 24  0  0  1  0  0  0  0  0999 V2000
   27.6095  -23.4186  -16.6245 C   0  0  0  0  0  0  0  0  0  0  0  0
   26.7336  -22.2202  -16.8838 C   0  0  2  0  0  0  0  0  0  0  0  0
   27.4279  -21.0075  -16.5644 N   0  0  0  0  0  0  0  0  0  0  0  0
   25.5317  -22.3271  -16.0275 C   0  0  0  0  0  0  0  0  0  0  0  0
   24.7846  -23.3493  -16.1498 O   0  0  0  0  0  0  0  0  0  0  0  0
   26.1813  -20.7453   -8.0806 N   0  0  0  0  0  0  0  0  0  0  0  0
   27.1268  -20.7567   -9.1359 C   0  0  0  0  0  0  0  0  0  0  0  0
   28.3592  -21.1003   -8.8807 N   0  0  0  0  0  0  0  0  0  0  0  0
   26.8106  -20.4160  -10.4643 N   0  0  0  0  0  0  0  0  0  0  0  0
   25.4537  -20.2495  -10.9168 C   0  0  0  0  0  0  0  0  0  0  0  0
   25.1662  -21.1991  -12.0646 C   0  0  0  0  0  0  0  0  0  0  0  0
   24.2405  -20.5665  -13.0399 C   0  0  0  0  0  0  0  0  0  0  0  0
   24.0355  -21.3415  -14.3069 C   0  0  2  0  0  0  0  0  0  0  0  0
   25.2411  -21.3095  -15.1069 N   0  0  0  0  0  0  0  0  0  0  0  0
   22.9648  -20.6428  -15.0681 C   0  0  0  0  0  0  0  0  0  0  0  0
   23.2094  -19.5117  -15.5538 O   0  0  0  0  0  0  0  0  0  0  0  0
   29.0921  -21.1293   -9.6034 N   0  0  0  0  0  0  0  0  0  0  0  0
   19.2373  -20.3138  -19.0368 C   0  0  0  0  0  0  0  0  0  0  0  0
   19.0196  -20.8527  -17.7412 O   0  0  0  0  0  0  0  0  0  0  0  0
   17.8774  -20.7777  -17.2615 C   0  0  0  0  0  0  0  0  0  0  0  0
   20.1203  -21.4757  -17.0050 C   0  0  1  0  0  0  0  0  0  0  0  0
   20.6738  -20.5294  -15.9671 N   0  0  0  0  0  0  0  0  0  0  0  0
   21.7090  -21.2665  -15.2228 C   0  0  0  0  0  0  0  0  0  0  0  0
   19.6013  -20.2938  -14.9500 O   0  0  0  0  0  0  0  0  0  0  0  0
   18.8396  -19.1477  -14.9177 O   0  0  0  0  0  0  0  0  0  0  0  0
  2  1  1  1
  2  3  1  0
  4  2  1  0
  5  4  2  0
  6  7  1  0
  7  8  2  0
  7  9  1  0
  9 10  1  0
 10 11  1  0
 11 12  1  0
 13 12  1  1
 13 14  1  0
 14  4  1  0
 15 16  2  0
 15 13  1  0
 18 20  1  0
 18 17  1  0
 19 18  2  0
 21 20  1  6
 21 22  1  0
 22 15  1  0
 23 21  1  0
 24 23  1  0
 25 23  2  0
M  END
$$$$
