ARN.pdb
     RDKit          3D

 25 24  0  0  1  0  0  0  0  0999 V2000
   14.3420  -10.6026   -8.1679 C   0  0  0  0  0  0  0  0  0  0  0  0
   13.9680   -9.1822   -8.5046 C   0  0  2  0  0  0  0  0  0  0  0  0
   12.9944   -9.1512   -9.5561 N   0  0  0  0  0  0  0  0  0  0  0  0
   15.1864   -8.4737   -8.9551 C   0  0  0  0  0  0  0  0  0  0  0  0
   16.1642   -8.3684   -8.1484 O   0  0  0  0  0  0  0  0  0  0  0  0
   20.0991   -9.5747  -14.3613 N   0  0  0  0  0  0  0  0  0  0  0  0
   19.0146  -10.4471  -14.6265 C   0  0  0  0  0  0  0  0  0  0  0  0
   19.2618  -11.6769  -14.9850 N   0  0  0  0  0  0  0  0  0  0  0  0
   17.6653  -10.0608  -14.5230 N   0  0  0  0  0  0  0  0  0  0  0  0
   17.2698   -8.7391  -14.1103 C   0  0  0  0  0  0  0  0  0  0  0  0
   17.0534   -8.7041  -12.6090 C   0  0  0  0  0  0  0  0  0  0  0  0
   16.5596   -7.3671  -12.1885 C   0  0  0  0  0  0  0  0  0  0  0  0
   16.3943   -7.1941  -10.7084 C   0  0  2  0  0  0  0  0  0  0  0  0
   15.2396   -7.9361  -10.2495 N   0  0  0  0  0  0  0  0  0  0  0  0
   16.1306   -5.7488  -10.4727 C   0  0  0  0  0  0  0  0  0  0  0  0
   15.0169   -5.2762  -10.8067 O   0  0  0  0  0  0  0  0  0  0  0  0
   18.5229  -12.3849  -15.0989 N   0  0  0  0  0  0  0  0  0  0  0  0
   16.7134   -0.8603   -9.1295 C   0  0  0  0  0  0  0  0  0  0  0  0
   17.4471   -1.6585   -8.2124 O   0  0  0  0  0  0  0  0  0  0  0  0
   17.9627   -1.0982   -7.2323 C   0  0  0  0  0  0  0  0  0  0  0  0
   17.5824   -3.0994   -8.4300 C   0  0  1  0  0  0  0  0  0  0  0  0
   16.8265   -3.5280   -9.6644 N   0  0  0  0  0  0  0  0  0  0  0  0
   17.1342   -4.9515   -9.8834 C   0  0  0  0  0  0  0  0  0  0  0  0
   17.4506   -2.8423  -10.8395 O   0  0  0  0  0  0  0  0  0  0  0  0
   16.8853   -1.7479  -11.4540 O   0  0  0  0  0  0  0  0  0  0  0  0
  2  1  1  6
  2  3  1  0
  4  2  1  0
  5  4  2  0
  6  7  1  0
  7  8  2  0
  7  9  1  0
  9 10  1  0
 10 11  1  0
 11 12  1  0
 13 12  1  6
 13 14  1  0
 14  4  1  0
 15 16  2  0
 15 13  1  0
 18 20  1  0
 18 17  1  0
 19 18  2  0
 21 20  1  1
 21 22  1  0
 22 15  1  0
 23 21  1  0
 24 23  1  0
 25 23  2  0
M  END
$$$$
