ARN.pdb
     RDKit          3D

 25 24  0  0  1  0  0  0  0  0999 V2000
   27.6107  -18.2804  -17.6994 C   0  0  0  0  0  0  0  0  0  0  0  0
   26.2082  -17.7314  -17.7499 C   0  0  2  0  0  0  0  0  0  0  0  0
   26.2264  -16.3196  -17.9974 N   0  0  0  0  0  0  0  0  0  0  0  0
   25.5617  -17.9831  -16.4430 C   0  0  0  0  0  0  0  0  0  0  0  0
   25.9301  -17.2963  -15.4378 O   0  0  0  0  0  0  0  0  0  0  0  0
   20.1374  -22.5299  -11.8660 N   0  0  0  0  0  0  0  0  0  0  0  0
   19.4357  -21.3538  -12.2291 C   0  0  0  0  0  0  0  0  0  0  0  0
   18.5875  -20.8341  -11.3848 N   0  0  0  0  0  0  0  0  0  0  0  0
   19.6028  -20.7011  -13.4647 N   0  0  0  0  0  0  0  0  0  0  0  0
   20.6222  -21.0820  -14.4077 C   0  0  0  0  0  0  0  0  0  0  0  0
   21.9338  -20.4027  -14.0610 C   0  0  0  0  0  0  0  0  0  0  0  0
   22.6183  -19.9387  -15.2957 C   0  0  0  0  0  0  0  0  0  0  0  0
   23.9397  -19.2677  -15.0685 C   0  0  2  0  0  0  0  0  0  0  0  0
   24.5654  -18.9649  -16.3378 N   0  0  0  0  0  0  0  0  0  0  0  0
   24.8024  -20.2499  -14.3578 C   0  0  0  0  0  0  0  0  0  0  0  0
   25.2719  -21.2187  -15.0029 O   0  0  0  0  0  0  0  0  0  0  0  0
   18.0424  -19.9854  -11.5916 N   0  0  0  0  0  0  0  0  0  0  0  0
   28.2716  -21.0726   -9.9893 C   0  0  0  0  0  0  0  0  0  0  0  0
   28.2726  -21.0639  -11.4094 O   0  0  0  0  0  0  0  0  0  0  0  0
   29.1115  -21.7645  -11.9975 C   0  0  0  0  0  0  0  0  0  0  0  0
   27.3058  -20.2473  -12.1444 C   0  0  2  0  0  0  0  0  0  0  0  0
   26.0136  -21.0008  -12.3481 N   0  0  0  0  0  0  0  0  0  0  0  0
   25.0684  -20.0676  -12.9844 C   0  0  0  0  0  0  0  0  0  0  0  0
   25.4161  -21.2501  -10.9985 O   0  0  0  0  0  0  0  0  0  0  0  0
   25.8082  -22.2909  -10.1875 O   0  0  0  0  0  0  0  0  0  0  0  0
  2  1  1  1
  2  3  1  0
  4  2  1  0
  5  4  2  0
  6  7  1  0
  7  8  2  0
  7  9  1  0
  9 10  1  0
 10 11  1  0
 11 12  1  0
 13 12  1  6
 13 14  1  0
 14  4  1  0
 15 16  2  0
 15 13  1  0
 18 20  1  0
 18 17  1  0
 19 18  2  0
 21 20  1  6
 21 22  1  0
 22 15  1  0
 23 21  1  0
 24 23  1  0
 25 23  2  0
M  END
$$$$
