ARN.pdb
     RDKit          3D

 25 24  0  0  1  0  0  0  0  0999 V2000
   26.1811  -16.0137  -15.5903 C   0  0  0  0  0  0  0  0  0  0  0  0
   26.1588  -17.4571  -16.0226 C   0  0  2  0  0  0  0  0  0  0  0  0
   26.8189  -17.6174  -17.2848 N   0  0  0  0  0  0  0  0  0  0  0  0
   24.7478  -17.8810  -16.1594 C   0  0  0  0  0  0  0  0  0  0  0  0
   24.1331  -17.6146  -17.2407 O   0  0  0  0  0  0  0  0  0  0  0  0
   25.8713  -23.0167  -14.0293 N   0  0  0  0  0  0  0  0  0  0  0  0
   25.1049  -22.6603  -12.8920 C   0  0  0  0  0  0  0  0  0  0  0  0
   25.7132  -22.4465  -11.7578 N   0  0  0  0  0  0  0  0  0  0  0  0
   23.7048  -22.5191  -12.9134 N   0  0  0  0  0  0  0  0  0  0  0  0
   22.9261  -22.7241  -14.1072 C   0  0  0  0  0  0  0  0  0  0  0  0
   23.0921  -21.5451  -15.0474 C   0  0  0  0  0  0  0  0  0  0  0  0
   22.5981  -20.2986  -14.4065 C   0  0  0  0  0  0  0  0  0  0  0  0
   22.7671  -19.0576  -15.2305 C   0  0  2  0  0  0  0  0  0  0  0  0
   24.1207  -18.5610  -15.1050 N   0  0  0  0  0  0  0  0  0  0  0  0
   21.8513  -18.0345  -14.6571 C   0  0  0  0  0  0  0  0  0  0  0  0
   22.3442  -17.0754  -14.0150 O   0  0  0  0  0  0  0  0  0  0  0  0
   25.2127  -22.1923  -10.8947 N   0  0  0  0  0  0  0  0  0  0  0  0
   18.7499  -13.7838  -15.9325 C   0  0  0  0  0  0  0  0  0  0  0  0
   19.1740  -14.6913  -14.9260 O   0  0  0  0  0  0  0  0  0  0  0  0
   18.8390  -14.4614  -13.7532 C   0  0  0  0  0  0  0  0  0  0  0  0
   19.9822  -15.8597  -15.2769 C   0  0  2  0  0  0  0  0  0  0  0  0
   19.6064  -17.0468  -14.4233 N   0  0  0  0  0  0  0  0  0  0  0  0
   20.4602  -18.1689  -14.8489 C   0  0  0  0  0  0  0  0  0  0  0  0
   18.2286  -17.4744  -14.8222 O   0  0  0  0  0  0  0  0  0  0  0  0
   17.9913  -18.4711  -15.7414 O   0  0  0  0  0  0  0  0  0  0  0  0
  2  1  1  6
  2  3  1  0
  4  2  1  0
  5  4  2  0
  6  7  1  0
  7  8  2  0
  7  9  1  0
  9 10  1  0
 10 11  1  0
 11 12  1  0
 13 12  1  1
 13 14  1  0
 14  4  1  0
 15 16  2  0
 15 13  1  0
 18 20  1  0
 18 17  1  0
 19 18  2  0
 21 20  1  1
 21 22  1  0
 22 15  1  0
 23 21  1  0
 24 23  1  0
 25 23  2  0
M  END
$$$$
