ARN.pdb
     RDKit          3D

 25 24  0  0  1  0  0  0  0  0999 V2000
   16.3587  -22.5445  -13.7815 C   0  0  0  0  0  0  0  0  0  0  0  0
   17.5922  -22.7095  -12.9317 C   0  0  2  0  0  0  0  0  0  0  0  0
   17.2376  -22.8848  -11.5540 N   0  0  0  0  0  0  0  0  0  0  0  0
   18.4171  -21.4885  -13.0653 C   0  0  0  0  0  0  0  0  0  0  0  0
   17.9928  -20.4062  -12.5490 O   0  0  0  0  0  0  0  0  0  0  0  0
   26.0660  -22.7156  -12.0714 N   0  0  0  0  0  0  0  0  0  0  0  0
   25.0743  -23.0648  -13.0212 C   0  0  0  0  0  0  0  0  0  0  0  0
   24.9493  -24.3132  -13.3792 N   0  0  0  0  0  0  0  0  0  0  0  0
   24.2010  -22.1312  -13.6097 N   0  0  0  0  0  0  0  0  0  0  0  0
   24.1465  -20.7544  -13.1913 C   0  0  0  0  0  0  0  0  0  0  0  0
   22.7064  -20.3349  -12.9631 C   0  0  0  0  0  0  0  0  0  0  0  0
   21.8683  -20.7043  -14.1334 C   0  0  0  0  0  0  0  0  0  0  0  0
   20.4167  -20.3523  -14.0042 C   0  0  2  0  0  0  0  0  0  0  0  0
   19.6387  -21.5463  -13.7523 N   0  0  0  0  0  0  0  0  0  0  0  0
   19.9910  -19.7998  -15.3186 C   0  0  0  0  0  0  0  0  0  0  0  0
   19.3330  -20.5324  -16.0967 O   0  0  0  0  0  0  0  0  0  0  0  0
   24.2573  -24.6287  -14.0733 N   0  0  0  0  0  0  0  0  0  0  0  0
   18.6337  -16.5935  -18.9798 C   0  0  0  0  0  0  0  0  0  0  0  0
   17.9514  -16.5463  -17.7354 O   0  0  0  0  0  0  0  0  0  0  0  0
   16.8861  -15.9122  -17.6766 C   0  0  0  0  0  0  0  0  0  0  0  0
   18.5009  -17.2309  -16.5644 C   0  0  1  0  0  0  0  0  0  0  0  0
   19.7936  -17.9298  -16.9104 N   0  0  0  0  0  0  0  0  0  0  0  0
   20.3368  -18.4739  -15.6542 C   0  0  0  0  0  0  0  0  0  0  0  0
   20.7855  -16.8802  -17.3040 O   0  0  0  0  0  0  0  0  0  0  0  0
   20.9178  -16.4227  -18.5955 O   0  0  0  0  0  0  0  0  0  0  0  0
  2  1  1  6
  2  3  1  0
  4  2  1  0
  5  4  2  0
  6  7  1  0
  7  8  2  0
  7  9  1  0
  9 10  1  0
 10 11  1  0
 11 12  1  0
 13 12  1  6
 13 14  1  0
 14  4  1  0
 15 16  2  0
 15 13  1  0
 18 20  1  0
 18 17  1  0
 19 18  2  0
 21 20  1  6
 21 22  1  0
 22 15  1  0
 23 21  1  0
 24 23  1  0
 25 23  2  0
M  END
$$$$
