HES.pdb
     RDKit          3D

 26 26  0  0  1  0  0  0  0  0999 V2000
    8.9932  -17.7680   14.8237 N   0  0  0  0  0  0  0  0  0  0  0  0
   10.0683  -17.7597   15.7905 C   0  0  1  0  0  0  0  0  0  0  0  0
   11.0059  -16.6397   15.4982 C   0  0  0  0  0  0  0  0  0  0  0  0
   11.7297  -16.7786   14.2229 C   0  0  0  0  0  0  0  0  0  0  0  0
   12.9359  -17.4138   14.0544 C   0  0  0  0  0  0  0  0  0  0  0  0
   13.2660  -17.3286   12.7475 N   0  0  0  0  0  0  0  0  0  0  0  0
   12.3064  -16.6602   12.0883 C   0  0  0  0  0  0  0  0  0  0  0  0
   11.3810  -16.3351   13.0071 N   0  0  0  0  0  0  0  0  0  0  0  0
    9.5578  -17.8349   17.1573 C   0  0  0  0  0  0  0  0  0  0  0  0
    8.7162  -17.0060   17.6368 O   0  0  0  0  0  0  0  0  0  0  0  0
    9.9726  -18.8547   18.0550 N   0  0  0  0  0  0  0  0  0  0  0  0
    9.5402  -18.9466   19.4291 C   0  0  1  0  0  0  0  0  0  0  0  0
    9.3722  -20.3943   19.8001 C   0  0  0  0  0  0  0  0  0  0  0  0
    8.1996  -21.0850   19.2182 C   0  0  0  0  0  0  0  0  0  0  0  0
    8.1132  -22.5253   19.4854 C   0  0  0  0  0  0  0  0  0  0  0  0
    7.6690  -23.0168   20.5540 O   0  0  0  0  0  0  0  0  0  0  0  0
   10.5557  -18.3985   20.3668 C   0  0  0  0  0  0  0  0  0  0  0  0
   11.7627  -18.5258   20.0530 O   0  0  0  0  0  0  0  0  0  0  0  0
    8.5352  -23.4536   18.5318 O   0  0  0  0  0  0  0  0  0  0  0  0
   11.5674  -15.5069   24.1271 O   0  0  0  0  0  0  0  0  0  0  0  0
   10.5871  -16.0164   23.2799 C   0  0  0  0  0  0  0  0  0  0  0  0
   11.1990  -17.1223   22.4476 C   0  0  2  0  0  0  0  0  0  0  0  0
   10.2428  -17.7478   21.5810 N   0  0  0  0  0  0  0  0  0  0  0  0
   11.8143  -18.1225   23.3310 C   0  0  0  0  0  0  0  0  0  0  0  0
   11.3141  -19.4035   23.5095 O   0  0  0  0  0  0  0  0  0  0  0  0
   12.8531  -17.8045   23.9634 O   0  0  0  0  0  0  0  0  0  0  0  0
  2  1  1  6
  2  9  1  0
  3  4  1  0
  3  2  1  0
  4  8  1  0
  5  6  1  0
  5  4  2  0
  6  7  1  0
  7  8  2  0
  9 11  1  0
  9 10  2  0
 11 12  1  0
 12 17  1  0
 12 13  1  1
 13 14  1  0
 14 15  1  0
 15 19  1  0
 16 15  2  0
 17 18  2  0
 20 21  1  0
 22 21  1  1
 22 24  1  0
 23 17  1  0
 23 22  1  0
 24 25  1  0
 26 24  2  0
M  END
$$$$
