HES.pdb
     RDKit          3D

 26 26  0  0  1  0  0  0  0  0999 V2000
    8.2857  -17.1434   18.2401 N   0  0  0  0  0  0  0  0  0  0  0  0
    9.2692  -16.7498   19.2241 C   0  0  1  0  0  0  0  0  0  0  0  0
    8.6492  -15.8381   20.2258 C   0  0  0  0  0  0  0  0  0  0  0  0
    8.3895  -14.4787   19.7221 C   0  0  0  0  0  0  0  0  0  0  0  0
    8.6491  -14.0361   18.4479 C   0  0  0  0  0  0  0  0  0  0  0  0
    8.2734  -12.7406   18.3784 N   0  0  0  0  0  0  0  0  0  0  0  0
    7.7858  -12.3539   19.5679 C   0  0  0  0  0  0  0  0  0  0  0  0
    7.8664  -13.4287   20.3706 N   0  0  0  0  0  0  0  0  0  0  0  0
    9.9826  -17.9075   19.7585 C   0  0  0  0  0  0  0  0  0  0  0  0
    9.5549  -19.1037   19.6519 O   0  0  0  0  0  0  0  0  0  0  0  0
   11.2205  -17.7723   20.4419 N   0  0  0  0  0  0  0  0  0  0  0  0
   11.7809  -18.7835   21.3063 C   0  0  1  0  0  0  0  0  0  0  0  0
   13.1874  -19.0860   20.8684 C   0  0  0  0  0  0  0  0  0  0  0  0
   13.6082  -18.5010   19.5755 C   0  0  0  0  0  0  0  0  0  0  0  0
   14.7131  -19.1878   18.8967 C   0  0  0  0  0  0  0  0  0  0  0  0
   15.8735  -19.2911   19.3698 O   0  0  0  0  0  0  0  0  0  0  0  0
   11.8818  -18.3147   22.7137 C   0  0  0  0  0  0  0  0  0  0  0  0
   12.4703  -17.2275   22.9216 O   0  0  0  0  0  0  0  0  0  0  0  0
   14.5231  -19.7815   17.6475 O   0  0  0  0  0  0  0  0  0  0  0  0
    9.5274  -17.1326   24.8039 O   0  0  0  0  0  0  0  0  0  0  0  0
   10.0100  -18.1187   25.6601 C   0  0  0  0  0  0  0  0  0  0  0  0
   11.3785  -18.5468   25.1766 C   0  0  2  0  0  0  0  0  0  0  0  0
   11.3578  -19.0169   23.8218 N   0  0  0  0  0  0  0  0  0  0  0  0
   11.9140  -19.5863   26.0666 C   0  0  0  0  0  0  0  0  0  0  0  0
   12.0940  -19.4139   27.4307 O   0  0  0  0  0  0  0  0  0  0  0  0
   12.2285  -20.6968   25.5687 O   0  0  0  0  0  0  0  0  0  0  0  0
  2  1  1  6
  2  9  1  0
  3  4  1  0
  3  2  1  0
  4  8  1  0
  5  6  1  0
  5  4  2  0
  6  7  1  0
  7  8  2  0
  9 11  1  0
  9 10  2  0
 11 12  1  0
 12 17  1  0
 12 13  1  6
 13 14  1  0
 14 15  1  0
 15 19  1  0
 16 15  2  0
 17 18  2  0
 20 21  1  0
 22 21  1  1
 22 24  1  0
 23 17  1  0
 23 22  1  0
 24 25  1  0
 26 24  2  0
M  END
$$$$
