HES.pdb
     RDKit          3D

 26 26  0  0  1  0  0  0  0  0999 V2000
   10.0682  -15.8960   17.7797 N   0  0  0  0  0  0  0  0  0  0  0  0
   11.1509  -15.1947   18.4329 C   0  0  1  0  0  0  0  0  0  0  0  0
   10.8236  -13.7458   18.5447 C   0  0  0  0  0  0  0  0  0  0  0  0
    9.4335  -13.4728   18.9480 C   0  0  0  0  0  0  0  0  0  0  0  0
    8.4587  -14.4201   19.1461 C   0  0  0  0  0  0  0  0  0  0  0  0
    7.3274  -13.7762   19.5065 N   0  0  0  0  0  0  0  0  0  0  0  0
    7.5591  -12.4544   19.5417 C   0  0  0  0  0  0  0  0  0  0  0  0
    8.8483  -12.2931   19.1980 N   0  0  0  0  0  0  0  0  0  0  0  0
   11.5518  -15.8638   19.6683 C   0  0  0  0  0  0  0  0  0  0  0  0
   10.7812  -16.6356   20.3282 O   0  0  0  0  0  0  0  0  0  0  0  0
   12.8489  -15.6952   20.2225 N   0  0  0  0  0  0  0  0  0  0  0  0
   13.2959  -16.3287   21.4400 C   0  0  1  0  0  0  0  0  0  0  0  0
   14.7331  -15.9632   21.6902 C   0  0  0  0  0  0  0  0  0  0  0  0
   15.3630  -16.5723   22.8830 C   0  0  0  0  0  0  0  0  0  0  0  0
   16.7874  -16.2742   23.0717 C   0  0  0  0  0  0  0  0  0  0  0  0
   17.2452  -15.1179   23.2570 O   0  0  0  0  0  0  0  0  0  0  0  0
   12.5383  -15.8468   22.6252 C   0  0  0  0  0  0  0  0  0  0  0  0
   12.0314  -14.7019   22.5626 O   0  0  0  0  0  0  0  0  0  0  0  0
   17.7379  -17.2966   23.0542 O   0  0  0  0  0  0  0  0  0  0  0  0
    8.8256  -16.9305   24.6310 O   0  0  0  0  0  0  0  0  0  0  0  0
    9.9344  -16.9589   23.7894 C   0  0  0  0  0  0  0  0  0  0  0  0
   11.1621  -16.6060   24.6007 C   0  0  2  0  0  0  0  0  0  0  0  0
   12.3575  -16.5972   23.8083 N   0  0  0  0  0  0  0  0  0  0  0  0
   11.3019  -17.5477   25.7201 C   0  0  0  0  0  0  0  0  0  0  0  0
   10.5018  -17.5218   26.8524 O   0  0  0  0  0  0  0  0  0  0  0  0
   12.1959  -18.4289   25.6530 O   0  0  0  0  0  0  0  0  0  0  0  0
  2  1  1  1
  2  9  1  0
  3  4  1  0
  3  2  1  0
  4  8  1  0
  5  6  1  0
  5  4  2  0
  6  7  1  0
  7  8  2  0
  9 11  1  0
  9 10  2  0
 11 12  1  0
 12 17  1  0
 12 13  1  1
 13 14  1  0
 14 15  1  0
 15 19  1  0
 16 15  2  0
 17 18  2  0
 20 21  1  0
 22 21  1  6
 22 24  1  0
 23 17  1  0
 23 22  1  0
 24 25  1  0
 26 24  2  0
M  END
$$$$
