HES.pdb
     RDKit          3D

 26 26  0  0  1  0  0  0  0  0999 V2000
    7.4389  -17.1996   19.7463 N   0  0  0  0  0  0  0  0  0  0  0  0
    8.5892  -16.7821   20.5164 C   0  0  1  0  0  0  0  0  0  0  0  0
    8.2307  -15.6191   21.3754 C   0  0  0  0  0  0  0  0  0  0  0  0
    8.0411  -14.3602   20.6347 C   0  0  0  0  0  0  0  0  0  0  0  0
    8.1871  -14.2021   19.2781 C   0  0  0  0  0  0  0  0  0  0  0  0
    7.9287  -12.9092   18.9850 N   0  0  0  0  0  0  0  0  0  0  0  0
    7.6247  -12.2488   20.1135 C   0  0  0  0  0  0  0  0  0  0  0  0
    7.6996  -13.1526   21.1053 N   0  0  0  0  0  0  0  0  0  0  0  0
    9.2191  -17.9143   21.1916 C   0  0  0  0  0  0  0  0  0  0  0  0
    8.5608  -18.8777   21.7050 O   0  0  0  0  0  0  0  0  0  0  0  0
   10.6301  -18.0167   21.3207 N   0  0  0  0  0  0  0  0  0  0  0  0
   11.3036  -19.1064   21.9859 C   0  0  1  0  0  0  0  0  0  0  0  0
   12.6331  -19.3449   21.3247 C   0  0  0  0  0  0  0  0  0  0  0  0
   12.5890  -19.8699   19.9416 C   0  0  0  0  0  0  0  0  0  0  0  0
   13.5483  -19.2740   19.0046 C   0  0  0  0  0  0  0  0  0  0  0  0
   13.2223  -18.5464   18.0324 O   0  0  0  0  0  0  0  0  0  0  0  0
   11.6041  -18.7867   23.4067 C   0  0  0  0  0  0  0  0  0  0  0  0
   11.8852  -17.5974   23.6861 O   0  0  0  0  0  0  0  0  0  0  0  0
   14.9191  -19.4938   19.1522 O   0  0  0  0  0  0  0  0  0  0  0  0
   10.6970  -19.3009   27.9539 O   0  0  0  0  0  0  0  0  0  0  0  0
   10.4407  -19.5313   26.6050 C   0  0  0  0  0  0  0  0  0  0  0  0
   11.7447  -19.4285   25.8441 C   0  0  2  0  0  0  0  0  0  0  0  0
   11.5915  -19.7369   24.4519 N   0  0  0  0  0  0  0  0  0  0  0  0
   12.7439  -20.3168   26.4540 C   0  0  0  0  0  0  0  0  0  0  0  0
   13.2345  -20.1549   27.7409 O   0  0  0  0  0  0  0  0  0  0  0  0
   13.1823  -21.2798   25.7754 O   0  0  0  0  0  0  0  0  0  0  0  0
  2  1  1  1
  2  9  1  0
  3  4  1  0
  3  2  1  0
  4  8  1  0
  5  6  1  0
  5  4  2  0
  6  7  1  0
  7  8  2  0
  9 11  1  0
  9 10  2  0
 11 12  1  0
 12 17  1  0
 12 13  1  6
 13 14  1  0
 14 15  1  0
 15 19  1  0
 16 15  2  0
 17 18  2  0
 20 21  1  0
 22 21  1  1
 22 24  1  0
 23 17  1  0
 23 22  1  0
 24 25  1  0
 26 24  2  0
M  END
$$$$
