HES.pdb
     RDKit          3D

 26 26  0  0  1  0  0  0  0  0999 V2000
    9.0602  -17.4902   19.7725 N   0  0  0  0  0  0  0  0  0  0  0  0
    9.4132  -16.5930   20.8501 C   0  0  1  0  0  0  0  0  0  0  0  0
    8.2465  -15.7357   21.2003 C   0  0  0  0  0  0  0  0  0  0  0  0
    7.9582  -14.6802   20.2142 C   0  0  0  0  0  0  0  0  0  0  0  0
    8.6625  -14.4551   19.0565 C   0  0  0  0  0  0  0  0  0  0  0  0
    8.0917  -13.4059   18.4259 N   0  0  0  0  0  0  0  0  0  0  0  0
    7.0511  -12.9637   19.1495 C   0  0  0  0  0  0  0  0  0  0  0  0
    6.9889  -13.7548   20.2341 N   0  0  0  0  0  0  0  0  0  0  0  0
   10.0438  -17.3094   21.9563 C   0  0  0  0  0  0  0  0  0  0  0  0
    9.6165  -18.4246   22.4021 O   0  0  0  0  0  0  0  0  0  0  0  0
   11.1941  -16.8010   22.6168 N   0  0  0  0  0  0  0  0  0  0  0  0
   11.8769  -17.4830   23.6902 C   0  0  1  0  0  0  0  0  0  0  0  0
   13.2180  -16.8397   23.9124 C   0  0  0  0  0  0  0  0  0  0  0  0
   14.2059  -16.9972   22.8216 C   0  0  0  0  0  0  0  0  0  0  0  0
   15.4663  -16.2662   22.9951 C   0  0  0  0  0  0  0  0  0  0  0  0
   15.7403  -15.5663   24.0030 O   0  0  0  0  0  0  0  0  0  0  0  0
   11.1449  -17.3597   24.9786 C   0  0  0  0  0  0  0  0  0  0  0  0
   10.7280  -16.2225   25.3017 O   0  0  0  0  0  0  0  0  0  0  0  0
   16.4587  -16.3139   22.0142 O   0  0  0  0  0  0  0  0  0  0  0  0
    9.1264  -20.3925   26.5821 O   0  0  0  0  0  0  0  0  0  0  0  0
    8.8762  -19.1127   27.0699 C   0  0  0  0  0  0  0  0  0  0  0  0
   10.1796  -18.3442   27.0932 C   0  0  2  0  0  0  0  0  0  0  0  0
   10.8935  -18.4403   25.8531 N   0  0  0  0  0  0  0  0  0  0  0  0
   11.0174  -18.8263   28.2001 C   0  0  0  0  0  0  0  0  0  0  0  0
   10.6424  -18.7628   29.5336 O   0  0  0  0  0  0  0  0  0  0  0  0
   12.1387  -19.3255   27.9287 O   0  0  0  0  0  0  0  0  0  0  0  0
  2  1  1  6
  2  9  1  0
  3  4  1  0
  3  2  1  0
  4  8  1  0
  5  6  1  0
  5  4  2  0
  6  7  1  0
  7  8  2  0
  9 11  1  0
  9 10  2  0
 11 12  1  0
 12 17  1  0
 12 13  1  1
 13 14  1  0
 14 15  1  0
 15 19  1  0
 16 15  2  0
 17 18  2  0
 20 21  1  0
 22 21  1  6
 22 24  1  0
 23 17  1  0
 23 22  1  0
 24 25  1  0
 26 24  2  0
M  END
$$$$
