HES.pdb
     RDKit          3D

 26 26  0  0  1  0  0  0  0  0999 V2000
    9.6015  -15.1635   22.1873 N   0  0  0  0  0  0  0  0  0  0  0  0
    8.2962  -15.7782   22.0934 C   0  0  1  0  0  0  0  0  0  0  0  0
    7.8104  -15.7271   20.6861 C   0  0  0  0  0  0  0  0  0  0  0  0
    7.9903  -14.4181   20.0351 C   0  0  0  0  0  0  0  0  0  0  0  0
    9.1867  -13.7615   19.8792 C   0  0  0  0  0  0  0  0  0  0  0  0
    8.9370  -12.5997   19.2372 N   0  0  0  0  0  0  0  0  0  0  0  0
    7.6221  -12.5043   18.9842 C   0  0  0  0  0  0  0  0  0  0  0  0
    7.0656  -13.6230   19.4791 N   0  0  0  0  0  0  0  0  0  0  0  0
    8.2764  -17.0900   22.7365 C   0  0  0  0  0  0  0  0  0  0  0  0
    7.2385  -17.8284   22.7888 O   0  0  0  0  0  0  0  0  0  0  0  0
    9.4327  -17.6368   23.3545 N   0  0  0  0  0  0  0  0  0  0  0  0
    9.4633  -18.9161   24.0223 C   0  0  1  0  0  0  0  0  0  0  0  0
   10.8232  -19.5340   23.8475 C   0  0  0  0  0  0  0  0  0  0  0  0
   11.9662  -18.7558   24.3753 C   0  0  0  0  0  0  0  0  0  0  0  0
   13.2846  -19.3827   24.2273 C   0  0  0  0  0  0  0  0  0  0  0  0
   13.9764  -19.3261   23.1789 O   0  0  0  0  0  0  0  0  0  0  0  0
    9.2607  -18.7799   25.4891 C   0  0  0  0  0  0  0  0  0  0  0  0
    9.4245  -17.6441   25.9937 O   0  0  0  0  0  0  0  0  0  0  0  0
   13.8558  -20.0986   25.2811 O   0  0  0  0  0  0  0  0  0  0  0  0
    7.3671  -20.5454   29.5706 O   0  0  0  0  0  0  0  0  0  0  0  0
    7.6152  -20.7610   28.2177 C   0  0  0  0  0  0  0  0  0  0  0  0
    8.6008  -19.7178   27.7380 C   0  0  2  0  0  0  0  0  0  0  0  0
    8.8972  -19.8467   26.3407 N   0  0  0  0  0  0  0  0  0  0  0  0
    9.8361  -19.8047   28.5292 C   0  0  0  0  0  0  0  0  0  0  0  0
    9.9119  -19.4834   29.8760 O   0  0  0  0  0  0  0  0  0  0  0  0
   10.8869  -20.1916   27.9579 O   0  0  0  0  0  0  0  0  0  0  0  0
  2  1  1  6
  2  9  1  0
  3  4  1  0
  3  2  1  0
  4  8  1  0
  5  6  1  0
  5  4  2  0
  6  7  1  0
  7  8  2  0
  9 11  1  0
  9 10  2  0
 11 12  1  0
 12 17  1  0
 12 13  1  1
 13 14  1  0
 14 15  1  0
 15 19  1  0
 16 15  2  0
 17 18  2  0
 20 21  1  0
 22 21  1  1
 22 24  1  0
 23 17  1  0
 23 22  1  0
 24 25  1  0
 26 24  2  0
M  END
$$$$
