HES.pdb
     RDKit          3D

 26 26  0  0  1  0  0  0  0  0999 V2000
   11.8306  -16.8248   18.4081 N   0  0  0  0  0  0  0  0  0  0  0  0
   12.9181  -16.6819   19.3503 C   0  0  1  0  0  0  0  0  0  0  0  0
   12.9586  -15.2872   19.8719 C   0  0  0  0  0  0  0  0  0  0  0  0
   14.0954  -14.4926   19.3762 C   0  0  0  0  0  0  0  0  0  0  0  0
   14.0393  -13.5605   18.3688 C   0  0  0  0  0  0  0  0  0  0  0  0
   15.2805  -13.0518   18.2102 N   0  0  0  0  0  0  0  0  0  0  0  0
   16.1156  -13.6339   19.0853 C   0  0  0  0  0  0  0  0  0  0  0  0
   15.3719  -14.5078   19.7849 N   0  0  0  0  0  0  0  0  0  0  0  0
   12.9002  -17.7459   20.3515 C   0  0  0  0  0  0  0  0  0  0  0  0
   11.8447  -18.3812   20.6790 O   0  0  0  0  0  0  0  0  0  0  0  0
   14.0785  -18.1484   21.0353 N   0  0  0  0  0  0  0  0  0  0  0  0
   14.1299  -19.2322   21.9873 C   0  0  1  0  0  0  0  0  0  0  0  0
   15.5647  -19.6125   22.2285 C   0  0  0  0  0  0  0  0  0  0  0  0
   15.7947  -20.7163   23.1873 C   0  0  0  0  0  0  0  0  0  0  0  0
   17.1955  -21.1076   23.3819 C   0  0  0  0  0  0  0  0  0  0  0  0
   17.7315  -22.1014   22.8287 O   0  0  0  0  0  0  0  0  0  0  0  0
   13.5838  -18.8324   23.3112 C   0  0  0  0  0  0  0  0  0  0  0  0
   14.0677  -17.8106   23.8530 O   0  0  0  0  0  0  0  0  0  0  0  0
   18.0318  -20.3690   24.2211 O   0  0  0  0  0  0  0  0  0  0  0  0
   10.1831  -20.5737   24.7949 O   0  0  0  0  0  0  0  0  0  0  0  0
   10.5042  -19.3187   25.3050 C   0  0  0  0  0  0  0  0  0  0  0  0
   12.0073  -19.1509   25.2569 C   0  0  2  0  0  0  0  0  0  0  0  0
   12.5600  -19.5307   23.9892 N   0  0  0  0  0  0  0  0  0  0  0  0
   12.6263  -19.9337   26.3357 C   0  0  0  0  0  0  0  0  0  0  0  0
   12.3693  -19.7263   27.6825 O   0  0  0  0  0  0  0  0  0  0  0  0
   13.4357  -20.8443   26.0259 O   0  0  0  0  0  0  0  0  0  0  0  0
  2  1  1  1
  2  9  1  0
  3  4  1  0
  3  2  1  0
  4  8  1  0
  5  6  1  0
  5  4  2  0
  6  7  1  0
  7  8  2  0
  9 11  1  0
  9 10  2  0
 11 12  1  0
 12 17  1  0
 12 13  1  1
 13 14  1  0
 14 15  1  0
 15 19  1  0
 16 15  2  0
 17 18  2  0
 20 21  1  0
 22 21  1  6
 22 24  1  0
 23 17  1  0
 23 22  1  0
 24 25  1  0
 26 24  2  0
M  END
$$$$
