HES.pdb
     RDKit          3D

 26 26  0  0  1  0  0  0  0  0999 V2000
    9.6677  -16.4501   18.0258 N   0  0  0  0  0  0  0  0  0  0  0  0
   10.4747  -15.3295   18.4543 C   0  0  1  0  0  0  0  0  0  0  0  0
    9.7950  -14.6101   19.5676 C   0  0  0  0  0  0  0  0  0  0  0  0
    8.5990  -13.8560   19.1547 C   0  0  0  0  0  0  0  0  0  0  0  0
    8.1184  -13.7613   17.8714 C   0  0  0  0  0  0  0  0  0  0  0  0
    7.0118  -12.9875   17.9033 N   0  0  0  0  0  0  0  0  0  0  0  0
    6.7808  -12.5924   19.1654 C   0  0  0  0  0  0  0  0  0  0  0  0
    7.7601  -13.1334   19.9099 N   0  0  0  0  0  0  0  0  0  0  0  0
   11.8594  -15.7295   18.6936 C   0  0  0  0  0  0  0  0  0  0  0  0
   12.2026  -16.9206   18.9911 O   0  0  0  0  0  0  0  0  0  0  0  0
   12.9310  -14.8009   18.6075 N   0  0  0  0  0  0  0  0  0  0  0  0
   14.3072  -15.1261   18.8972 C   0  0  1  0  0  0  0  0  0  0  0  0
   15.2051  -14.1222   18.2282 C   0  0  0  0  0  0  0  0  0  0  0  0
   16.6587  -14.3050   18.4386 C   0  0  0  0  0  0  0  0  0  0  0  0
   17.5286  -13.3787   17.7046 C   0  0  0  0  0  0  0  0  0  0  0  0
   18.4435  -12.7011   18.2381 O   0  0  0  0  0  0  0  0  0  0  0  0
   14.6031  -15.0354   20.3516 C   0  0  0  0  0  0  0  0  0  0  0  0
   14.2147  -14.0099   20.9591 O   0  0  0  0  0  0  0  0  0  0  0  0
   17.3774  -13.1982   16.3284 O   0  0  0  0  0  0  0  0  0  0  0  0
   15.0397  -17.2557   24.5030 O   0  0  0  0  0  0  0  0  0  0  0  0
   14.8605  -17.3153   23.1236 C   0  0  0  0  0  0  0  0  0  0  0  0
   15.4253  -16.0522   22.5109 C   0  0  2  0  0  0  0  0  0  0  0  0
   15.2907  -16.0290   21.0833 N   0  0  0  0  0  0  0  0  0  0  0  0
   16.8377  -15.9080   22.8902 C   0  0  0  0  0  0  0  0  0  0  0  0
   17.2669  -15.6855   24.1899 O   0  0  0  0  0  0  0  0  0  0  0  0
   17.7107  -15.9902   21.9895 O   0  0  0  0  0  0  0  0  0  0  0  0
  2  1  1  1
  2  9  1  0
  3  4  1  0
  3  2  1  0
  4  8  1  0
  5  6  1  0
  5  4  2  0
  6  7  1  0
  7  8  2  0
  9 11  1  0
  9 10  2  0
 11 12  1  0
 12 17  1  0
 12 13  1  6
 13 14  1  0
 14 15  1  0
 15 19  1  0
 16 15  2  0
 17 18  2  0
 20 21  1  0
 22 21  1  6
 22 24  1  0
 23 17  1  0
 23 22  1  0
 24 25  1  0
 26 24  2  0
M  END
$$$$
