HES.pdb
     RDKit          3D

 26 26  0  0  1  0  0  0  0  0999 V2000
    9.3277  -17.2176   17.8084 N   0  0  0  0  0  0  0  0  0  0  0  0
    9.9131  -16.3041   18.7642 C   0  0  1  0  0  0  0  0  0  0  0  0
    8.8664  -15.3897   19.3001 C   0  0  0  0  0  0  0  0  0  0  0  0
    8.2467  -14.5233   18.2829 C   0  0  0  0  0  0  0  0  0  0  0  0
    8.5245  -14.5461   16.9379 C   0  0  0  0  0  0  0  0  0  0  0  0
    7.7557  -13.6081   16.3436 N   0  0  0  0  0  0  0  0  0  0  0  0
    7.0031  -12.9958   17.2714 C   0  0  0  0  0  0  0  0  0  0  0  0
    7.3189  -13.5696   18.4449 N   0  0  0  0  0  0  0  0  0  0  0  0
   10.7206  -17.0128   19.7543 C   0  0  0  0  0  0  0  0  0  0  0  0
   10.4004  -18.1492   20.2351 O   0  0  0  0  0  0  0  0  0  0  0  0
   11.9360  -16.4721   20.2527 N   0  0  0  0  0  0  0  0  0  0  0  0
   12.6653  -17.0199   21.3715 C   0  0  1  0  0  0  0  0  0  0  0  0
   14.0428  -16.4177   21.4080 C   0  0  0  0  0  0  0  0  0  0  0  0
   14.9798  -16.9921   22.3994 C   0  0  0  0  0  0  0  0  0  0  0  0
   16.3317  -16.4212   22.4013 C   0  0  0  0  0  0  0  0  0  0  0  0
   17.3846  -17.1073   22.4395 O   0  0  0  0  0  0  0  0  0  0  0  0
   12.0309  -16.6706   22.6702 C   0  0  0  0  0  0  0  0  0  0  0  0
   11.7296  -15.4692   22.8634 O   0  0  0  0  0  0  0  0  0  0  0  0
   16.5215  -15.0387   22.3593 O   0  0  0  0  0  0  0  0  0  0  0  0
    8.9871  -17.2280   24.0121 O   0  0  0  0  0  0  0  0  0  0  0  0
    9.7230  -17.7824   25.0560 C   0  0  0  0  0  0  0  0  0  0  0  0
   11.1493  -17.2872   24.9539 C   0  0  2  0  0  0  0  0  0  0  0  0
   11.7500  -17.6057   23.6911 N   0  0  0  0  0  0  0  0  0  0  0  0
   11.9473  -17.8500   26.0521 C   0  0  0  0  0  0  0  0  0  0  0  0
   11.6388  -17.6804   27.3934 O   0  0  0  0  0  0  0  0  0  0  0  0
   12.9686  -18.5244   25.7654 O   0  0  0  0  0  0  0  0  0  0  0  0
  2  1  1  6
  2  9  1  0
  3  4  1  0
  3  2  1  0
  4  8  1  0
  5  6  1  0
  5  4  2  0
  6  7  1  0
  7  8  2  0
  9 11  1  0
  9 10  2  0
 11 12  1  0
 12 17  1  0
 12 13  1  1
 13 14  1  0
 14 15  1  0
 15 19  1  0
 16 15  2  0
 17 18  2  0
 20 21  1  0
 22 21  1  6
 22 24  1  0
 23 17  1  0
 23 22  1  0
 24 25  1  0
 26 24  2  0
M  END
$$$$
