HES.pdb
     RDKit          3D

 26 26  0  0  1  0  0  0  0  0999 V2000
   12.2079  -21.4738   16.7260 N   0  0  0  0  0  0  0  0  0  0  0  0
   12.4982  -20.2779   17.4851 C   0  0  1  0  0  0  0  0  0  0  0  0
   11.4394  -19.2569   17.2495 C   0  0  0  0  0  0  0  0  0  0  0  0
   11.2905  -18.8594   15.8391 C   0  0  0  0  0  0  0  0  0  0  0  0
   12.2778  -18.3148   15.0545 C   0  0  0  0  0  0  0  0  0  0  0  0
   11.7527  -18.0903   13.8305 N   0  0  0  0  0  0  0  0  0  0  0  0
   10.4670  -18.4762   13.8197 C   0  0  0  0  0  0  0  0  0  0  0  0
   10.2076  -18.9412   15.0536 N   0  0  0  0  0  0  0  0  0  0  0  0
   12.7951  -20.5906   18.8811 C   0  0  0  0  0  0  0  0  0  0  0  0
   11.9715  -21.1771   19.6575 O   0  0  0  0  0  0  0  0  0  0  0  0
   14.0426  -20.2565   19.4728 N   0  0  0  0  0  0  0  0  0  0  0  0
   14.3787  -20.5185   20.8519 C   0  0  1  0  0  0  0  0  0  0  0  0
   15.8404  -20.2383   21.0677 C   0  0  0  0  0  0  0  0  0  0  0  0
   16.3439  -20.4260   22.4468 C   0  0  0  0  0  0  0  0  0  0  0  0
   17.7811  -20.1972   22.6353 C   0  0  0  0  0  0  0  0  0  0  0  0
   18.6332  -21.1169   22.7289 O   0  0  0  0  0  0  0  0  0  0  0  0
   13.6472  -19.6168   21.7808 C   0  0  0  0  0  0  0  0  0  0  0  0
   13.2996  -18.4940   21.3448 O   0  0  0  0  0  0  0  0  0  0  0  0
   18.2907  -18.9004   22.7231 O   0  0  0  0  0  0  0  0  0  0  0  0
    9.8312  -19.2716   23.8924 O   0  0  0  0  0  0  0  0  0  0  0  0
   10.8841  -19.7199   23.0994 C   0  0  0  0  0  0  0  0  0  0  0  0
   12.1824  -19.4549   23.8304 C   0  0  2  0  0  0  0  0  0  0  0  0
   13.3234  -19.9484   23.1152 N   0  0  0  0  0  0  0  0  0  0  0  0
   12.1255  -20.0539   25.1711 C   0  0  0  0  0  0  0  0  0  0  0  0
   11.5306  -19.4409   26.2635 O   0  0  0  0  0  0  0  0  0  0  0  0
   12.6438  -21.1860   25.3434 O   0  0  0  0  0  0  0  0  0  0  0  0
  2  1  1  6
  2  9  1  0
  3  4  1  0
  3  2  1  0
  4  8  1  0
  5  6  1  0
  5  4  2  0
  6  7  1  0
  7  8  2  0
  9 11  1  0
  9 10  2  0
 11 12  1  0
 12 17  1  0
 12 13  1  6
 13 14  1  0
 14 15  1  0
 15 19  1  0
 16 15  2  0
 17 18  2  0
 20 21  1  0
 22 21  1  6
 22 24  1  0
 23 17  1  0
 23 22  1  0
 24 25  1  0
 26 24  2  0
M  END
$$$$
