HES.pdb
     RDKit          3D

 26 26  0  0  1  0  0  0  0  0999 V2000
    8.3114  -17.3429   18.0739 N   0  0  0  0  0  0  0  0  0  0  0  0
    8.8937  -16.5386   19.1249 C   0  0  1  0  0  0  0  0  0  0  0  0
    8.0022  -15.3864   19.4361 C   0  0  0  0  0  0  0  0  0  0  0  0
    7.8143  -14.4512   18.3138 C   0  0  0  0  0  0  0  0  0  0  0  0
    8.4027  -14.5592   17.0772 C   0  0  0  0  0  0  0  0  0  0  0  0
    7.9825  -13.5157   16.3298 N   0  0  0  0  0  0  0  0  0  0  0  0
    7.1487  -12.7546   17.0562 C   0  0  0  0  0  0  0  0  0  0  0  0
    7.0612  -13.3437   18.2610 N   0  0  0  0  0  0  0  0  0  0  0  0
    9.3067  -17.3609   20.2598 C   0  0  0  0  0  0  0  0  0  0  0  0
    8.6740  -18.4011   20.6376 O   0  0  0  0  0  0  0  0  0  0  0  0
   10.4605  -17.0493   21.0277 N   0  0  0  0  0  0  0  0  0  0  0  0
   10.8839  -17.7951   22.1887 C   0  0  1  0  0  0  0  0  0  0  0  0
   12.2746  -18.3200   21.9606 C   0  0  0  0  0  0  0  0  0  0  0  0
   12.3984  -19.4484   21.0108 C   0  0  0  0  0  0  0  0  0  0  0  0
   13.7644  -19.9231   20.7623 C   0  0  0  0  0  0  0  0  0  0  0  0
   14.6326  -19.2681   20.1313 O   0  0  0  0  0  0  0  0  0  0  0  0
   10.9638  -16.9360   23.3997 C   0  0  0  0  0  0  0  0  0  0  0  0
   11.8065  -16.0079   23.3972 O   0  0  0  0  0  0  0  0  0  0  0  0
   14.1819  -21.1701   21.2312 O   0  0  0  0  0  0  0  0  0  0  0  0
    7.8534  -16.4912   25.8035 O   0  0  0  0  0  0  0  0  0  0  0  0
    8.8858  -15.5738   25.9795 C   0  0  0  0  0  0  0  0  0  0  0  0
   10.2008  -16.2737   25.7131 C   0  0  2  0  0  0  0  0  0  0  0  0
   10.1523  -17.1028   24.5439 N   0  0  0  0  0  0  0  0  0  0  0  0
   10.5817  -17.0724   26.8864 C   0  0  0  0  0  0  0  0  0  0  0  0
   10.7669  -16.5396   28.1532 O   0  0  0  0  0  0  0  0  0  0  0  0
   10.7507  -18.3093   26.7394 O   0  0  0  0  0  0  0  0  0  0  0  0
  2  1  1  6
  2  9  1  0
  3  4  1  0
  3  2  1  0
  4  8  1  0
  5  6  1  0
  5  4  2  0
  6  7  1  0
  7  8  2  0
  9 11  1  0
  9 10  2  0
 11 12  1  0
 12 17  1  0
 12 13  1  6
 13 14  1  0
 14 15  1  0
 15 19  1  0
 16 15  2  0
 17 18  2  0
 20 21  1  0
 22 21  1  1
 22 24  1  0
 23 17  1  0
 23 22  1  0
 24 25  1  0
 26 24  2  0
M  END
$$$$
