HES.pdb
     RDKit          3D

 26 26  0  0  1  0  0  0  0  0999 V2000
   10.8918  -14.8347   17.9033 N   0  0  0  0  0  0  0  0  0  0  0  0
    9.7719  -15.5152   18.5144 C   0  0  1  0  0  0  0  0  0  0  0  0
    8.8863  -16.0840   17.4603 C   0  0  0  0  0  0  0  0  0  0  0  0
    8.2664  -15.0736   16.5860 C   0  0  0  0  0  0  0  0  0  0  0  0
    8.5093  -13.7223   16.6302 C   0  0  0  0  0  0  0  0  0  0  0  0
    7.7545  -13.1378   15.6747 N   0  0  0  0  0  0  0  0  0  0  0  0
    7.0447  -14.0779   15.0308 C   0  0  0  0  0  0  0  0  0  0  0  0
    7.3726  -15.2489   15.6028 N   0  0  0  0  0  0  0  0  0  0  0  0
   10.2130  -16.4400   19.5559 C   0  0  0  0  0  0  0  0  0  0  0  0
    9.4134  -17.1731   20.2255 O   0  0  0  0  0  0  0  0  0  0  0  0
   11.5850  -16.5850   19.8945 N   0  0  0  0  0  0  0  0  0  0  0  0
   12.0865  -17.5580   20.8355 C   0  0  1  0  0  0  0  0  0  0  0  0
   13.5256  -17.8581   20.5184 C   0  0  0  0  0  0  0  0  0  0  0  0
   13.7710  -18.6653   19.3023 C   0  0  0  0  0  0  0  0  0  0  0  0
   15.1004  -18.5173   18.6988 C   0  0  0  0  0  0  0  0  0  0  0  0
   16.1782  -18.6179   19.3384 O   0  0  0  0  0  0  0  0  0  0  0  0
   12.0737  -17.0384   22.2286 C   0  0  0  0  0  0  0  0  0  0  0  0
   12.7406  -16.0042   22.4676 O   0  0  0  0  0  0  0  0  0  0  0  0
   15.2383  -18.2479   17.3359 O   0  0  0  0  0  0  0  0  0  0  0  0
    8.9440  -17.2685   24.5645 O   0  0  0  0  0  0  0  0  0  0  0  0
    9.9907  -16.4215   24.9186 C   0  0  0  0  0  0  0  0  0  0  0  0
   11.2980  -17.1267   24.6293 C   0  0  2  0  0  0  0  0  0  0  0  0
   11.3597  -17.6371   23.2904 N   0  0  0  0  0  0  0  0  0  0  0  0
   11.4971  -18.2144   25.5971 C   0  0  0  0  0  0  0  0  0  0  0  0
   11.6420  -18.0140   26.9616 O   0  0  0  0  0  0  0  0  0  0  0  0
   11.5392  -19.3958   25.1695 O   0  0  0  0  0  0  0  0  0  0  0  0
  2  1  1  6
  2  9  1  0
  3  4  1  0
  3  2  1  0
  4  8  1  0
  5  6  1  0
  5  4  2  0
  6  7  1  0
  7  8  2  0
  9 11  1  0
  9 10  2  0
 11 12  1  0
 12 17  1  0
 12 13  1  6
 13 14  1  0
 14 15  1  0
 15 19  1  0
 16 15  2  0
 17 18  2  0
 20 21  1  0
 22 21  1  1
 22 24  1  0
 23 17  1  0
 23 22  1  0
 24 25  1  0
 26 24  2  0
M  END
$$$$
