HES.pdb
     RDKit          3D

 26 26  0  0  1  0  0  0  0  0999 V2000
    8.4680  -16.8866   19.9290 N   0  0  0  0  0  0  0  0  0  0  0  0
    8.8740  -15.9064   20.9114 C   0  0  1  0  0  0  0  0  0  0  0  0
    7.9550  -14.7348   20.8701 C   0  0  0  0  0  0  0  0  0  0  0  0
    7.8982  -14.0609   19.5616 C   0  0  0  0  0  0  0  0  0  0  0  0
    8.4413  -12.8330   19.2716 C   0  0  0  0  0  0  0  0  0  0  0  0
    8.1801  -12.5644   17.9739 N   0  0  0  0  0  0  0  0  0  0  0  0
    7.4902  -13.5838   17.4382 C   0  0  0  0  0  0  0  0  0  0  0  0
    7.3302  -14.4836   18.4235 N   0  0  0  0  0  0  0  0  0  0  0  0
    9.0822  -16.5184   22.2216 C   0  0  0  0  0  0  0  0  0  0  0  0
    8.1796  -17.1726   22.8401 O   0  0  0  0  0  0  0  0  0  0  0  0
   10.3257  -16.4231   22.9019 N   0  0  0  0  0  0  0  0  0  0  0  0
   10.5664  -16.9519   24.2232 C   0  0  1  0  0  0  0  0  0  0  0  0
   11.9183  -17.6098   24.2551 C   0  0  0  0  0  0  0  0  0  0  0  0
   12.0594  -18.8496   23.4591 C   0  0  0  0  0  0  0  0  0  0  0  0
   13.3804  -19.4870   23.5041 C   0  0  0  0  0  0  0  0  0  0  0  0
   14.0346  -19.8221   22.4840 O   0  0  0  0  0  0  0  0  0  0  0  0
   10.6093  -15.8774   25.2501 C   0  0  0  0  0  0  0  0  0  0  0  0
   11.3527  -14.8927   25.0278 O   0  0  0  0  0  0  0  0  0  0  0  0
   13.9975  -19.7625   24.7258 O   0  0  0  0  0  0  0  0  0  0  0  0
    8.4800  -13.1743   28.4269 O   0  0  0  0  0  0  0  0  0  0  0  0
    8.4265  -14.2394   27.5320 C   0  0  0  0  0  0  0  0  0  0  0  0
    9.8139  -14.8301   27.4049 C   0  0  2  0  0  0  0  0  0  0  0  0
    9.8676  -15.9007   26.4522 N   0  0  0  0  0  0  0  0  0  0  0  0
   10.2742  -15.2971   28.7200 C   0  0  0  0  0  0  0  0  0  0  0  0
   10.6188  -16.6124   28.9926 O   0  0  0  0  0  0  0  0  0  0  0  0
   10.3626  -14.4614   29.6548 O   0  0  0  0  0  0  0  0  0  0  0  0
  2  1  1  6
  2  9  1  0
  3  4  1  0
  3  2  1  0
  4  8  1  0
  5  6  1  0
  5  4  2  0
  6  7  1  0
  7  8  2  0
  9 11  1  0
  9 10  2  0
 11 12  1  0
 12 17  1  0
 12 13  1  6
 13 14  1  0
 14 15  1  0
 15 19  1  0
 16 15  2  0
 17 18  2  0
 20 21  1  0
 22 21  1  1
 22 24  1  0
 23 17  1  0
 23 22  1  0
 24 25  1  0
 26 24  2  0
M  END
$$$$
