HES.pdb
     RDKit          3D

 26 26  0  0  1  0  0  0  0  0999 V2000
   10.2476  -15.2902   20.6685 N   0  0  0  0  0  0  0  0  0  0  0  0
    8.9982  -14.9713   21.3227 C   0  0  1  0  0  0  0  0  0  0  0  0
    7.8576  -15.2645   20.4104 C   0  0  0  0  0  0  0  0  0  0  0  0
    7.8437  -14.4492   19.1838 C   0  0  0  0  0  0  0  0  0  0  0  0
    8.8027  -13.5347   18.8219 C   0  0  0  0  0  0  0  0  0  0  0  0
    8.4332  -12.9986   17.6385 N   0  0  0  0  0  0  0  0  0  0  0  0
    7.2727  -13.5463   17.2443 C   0  0  0  0  0  0  0  0  0  0  0  0
    6.9327  -14.4268   18.2009 N   0  0  0  0  0  0  0  0  0  0  0  0
    8.9276  -15.5636   22.6564 C   0  0  0  0  0  0  0  0  0  0  0  0
    7.9119  -15.4528   23.4186 O   0  0  0  0  0  0  0  0  0  0  0  0
   10.0045  -16.3149   23.1984 N   0  0  0  0  0  0  0  0  0  0  0  0
   10.0601  -16.7774   24.5646 C   0  0  1  0  0  0  0  0  0  0  0  0
   11.1812  -17.7695   24.7069 C   0  0  0  0  0  0  0  0  0  0  0  0
   11.2022  -18.8756   23.7236 C   0  0  0  0  0  0  0  0  0  0  0  0
   12.3503  -19.7850   23.8145 C   0  0  0  0  0  0  0  0  0  0  0  0
   12.2859  -21.0223   23.6001 O   0  0  0  0  0  0  0  0  0  0  0  0
   10.3681  -15.6725   25.5109 C   0  0  0  0  0  0  0  0  0  0  0  0
   11.3807  -14.9724   25.2744 O   0  0  0  0  0  0  0  0  0  0  0  0
   13.6156  -19.3036   24.1555 O   0  0  0  0  0  0  0  0  0  0  0  0
    8.3442  -12.9455   26.4641 O   0  0  0  0  0  0  0  0  0  0  0  0
    8.7524  -13.3379   27.7360 C   0  0  0  0  0  0  0  0  0  0  0  0
    9.8893  -14.3261   27.5919 C   0  0  2  0  0  0  0  0  0  0  0  0
    9.5928  -15.3678   26.6518 N   0  0  0  0  0  0  0  0  0  0  0  0
   10.2114  -14.9032   28.9044 C   0  0  0  0  0  0  0  0  0  0  0  0
   10.5152  -14.1452   30.0251 O   0  0  0  0  0  0  0  0  0  0  0  0
   10.2133  -16.1546   29.0239 O   0  0  0  0  0  0  0  0  0  0  0  0
  2  1  1  6
  2  9  1  0
  3  4  1  0
  3  2  1  0
  4  8  1  0
  5  6  1  0
  5  4  2  0
  6  7  1  0
  7  8  2  0
  9 11  1  0
  9 10  2  0
 11 12  1  0
 12 17  1  0
 12 13  1  6
 13 14  1  0
 14 15  1  0
 15 19  1  0
 16 15  2  0
 17 18  2  0
 20 21  1  0
 22 21  1  1
 22 24  1  0
 23 17  1  0
 23 22  1  0
 24 25  1  0
 26 24  2  0
M  END
$$$$
