CLG.pdb
     RDKit          3D

 19 18  0  0  1  0  0  0  0  0999 V2000
   18.4143  -12.0078  -18.0005 N   0  0  0  0  0  0  0  0  0  0  0  0
   19.2014  -10.8388  -18.4749 C   0  0  1  0  0  0  0  0  0  0  0  0
   18.3190  -10.0485  -19.3802 C   0  0  0  0  0  0  0  0  0  0  0  0
   18.3969  -10.6525  -21.0613 S   0  0  0  0  0  0  0  0  0  0  0  0
   19.5075  -10.0539  -17.2532 C   0  0  0  0  0  0  0  0  0  0  0  0
   18.6235   -9.8877  -16.3373 O   0  0  0  0  0  0  0  0  0  0  0  0
   21.6724  -10.4519  -13.4963 C   0  0  0  0  0  0  0  0  0  0  0  0
   22.5937  -10.1571  -14.6773 C   0  0  2  0  0  0  0  0  0  0  0  0
   24.0054  -10.3890  -14.2398 C   0  0  0  0  0  0  0  0  0  0  0  0
   22.2859   -8.7859  -15.1682 C   0  0  0  0  0  0  0  0  0  0  0  0
   20.9439   -8.6175  -15.8183 C   0  0  2  0  0  0  0  0  0  0  0  0
   20.7480   -9.4278  -16.9628 N   0  0  0  0  0  0  0  0  0  0  0  0
   20.7535   -7.1587  -16.0198 C   0  0  0  0  0  0  0  0  0  0  0  0
   21.5426   -6.6033  -16.8290 O   0  0  0  0  0  0  0  0  0  0  0  0
   19.7855   -6.3630  -15.3951 N   0  0  0  0  0  0  0  0  0  0  0  0
   19.6119   -4.9442  -15.6846 C   0  0  0  0  0  0  0  0  0  0  0  0
   18.4313   -4.3861  -15.0263 C   0  0  0  0  0  0  0  0  0  0  0  0
   17.5209   -5.1163  -14.5752 O   0  0  0  0  0  0  0  0  0  0  0  0
   18.3034   -3.0177  -14.8913 O   0  0  0  0  0  0  0  0  0  0  0  0
  2  1  1  1
  2  3  1  0
  4  3  1  0
  5  6  2  0
  5  2  1  0
  8  7  1  1
  8 10  1  0
  9  8  1  0
 11 10  1  6
 11 12  1  0
 12  5  1  0
 13 15  1  0
 13 11  1  0
 14 13  2  0
 16 15  1  0
 17 16  1  0
 18 17  2  0
 19 17  1  0
M  END
$$$$
