CLG.pdb
     RDKit          3D

 19 18  0  0  1  0  0  0  0  0999 V2000
   20.1664  -11.6241  -18.7887 N   0  0  0  0  0  0  0  0  0  0  0  0
   19.1382  -11.8116  -17.7310 C   0  0  1  0  0  0  0  0  0  0  0  0
   18.7859  -13.2601  -17.7075 C   0  0  0  0  0  0  0  0  0  0  0  0
   18.0033  -13.7683  -19.2328 S   0  0  0  0  0  0  0  0  0  0  0  0
   19.8101  -11.4327  -16.4633 C   0  0  0  0  0  0  0  0  0  0  0  0
   19.2138  -11.5684  -15.3346 O   0  0  0  0  0  0  0  0  0  0  0  0
   22.4588  -13.0564  -13.7805 C   0  0  0  0  0  0  0  0  0  0  0  0
   23.2292  -12.4007  -14.9238 C   0  0  2  0  0  0  0  0  0  0  0  0
   24.6465  -12.8763  -14.8673 C   0  0  0  0  0  0  0  0  0  0  0  0
   23.0369  -10.9282  -14.8216 C   0  0  0  0  0  0  0  0  0  0  0  0
   21.6526  -10.4339  -15.1241 C   0  0  2  0  0  0  0  0  0  0  0  0
   21.1233  -10.9055  -16.3498 N   0  0  0  0  0  0  0  0  0  0  0  0
   21.6869   -8.9585  -14.9608 C   0  0  0  0  0  0  0  0  0  0  0  0
   22.0206   -8.5344  -13.8229 O   0  0  0  0  0  0  0  0  0  0  0  0
   21.3840   -8.0156  -15.9505 N   0  0  0  0  0  0  0  0  0  0  0  0
   21.5140   -6.5772  -15.7477 C   0  0  0  0  0  0  0  0  0  0  0  0
   20.2734   -5.9728  -15.2638 C   0  0  0  0  0  0  0  0  0  0  0  0
   19.2550   -6.6593  -15.0245 O   0  0  0  0  0  0  0  0  0  0  0  0
   20.2084   -4.6084  -15.0606 O   0  0  0  0  0  0  0  0  0  0  0  0
  2  1  1  6
  2  3  1  0
  4  3  1  0
  5  6  2  0
  5  2  1  0
  8  7  1  1
  8 10  1  0
  9  8  1  0
 11 10  1  6
 11 12  1  0
 12  5  1  0
 13 15  1  0
 13 11  1  0
 14 13  2  0
 16 15  1  0
 17 16  1  0
 18 17  2  0
 19 17  1  0
M  END
$$$$
