CLG.pdb
     RDKit          3D

 19 18  0  0  1  0  0  0  0  0999 V2000
   21.1645  -12.6805  -18.6156 N   0  0  0  0  0  0  0  0  0  0  0  0
   21.5533  -11.2917  -18.9778 C   0  0  1  0  0  0  0  0  0  0  0  0
   20.3602  -10.6440  -19.5940 C   0  0  0  0  0  0  0  0  0  0  0  0
   20.1138  -11.1930  -21.2777 S   0  0  0  0  0  0  0  0  0  0  0  0
   21.8808  -10.6307  -17.6902 C   0  0  0  0  0  0  0  0  0  0  0  0
   21.2126  -10.8923  -16.6258 O   0  0  0  0  0  0  0  0  0  0  0  0
   24.8824  -11.1533  -14.7678 C   0  0  0  0  0  0  0  0  0  0  0  0
   25.4001  -10.2867  -15.9130 C   0  0  2  0  0  0  0  0  0  0  0  0
   26.8855  -10.1710  -15.7786 C   0  0  0  0  0  0  0  0  0  0  0  0
   24.6472   -9.0027  -15.8934 C   0  0  0  0  0  0  0  0  0  0  0  0
   23.1871   -9.1037  -16.2248 C   0  0  2  0  0  0  0  0  0  0  0  0
   22.9178   -9.6824  -17.4887 N   0  0  0  0  0  0  0  0  0  0  0  0
   22.6088   -7.7554  -15.9957 C   0  0  0  0  0  0  0  0  0  0  0  0
   22.7597   -7.2765  -14.8408 O   0  0  0  0  0  0  0  0  0  0  0  0
   21.9211   -6.9855  -16.9415 N   0  0  0  0  0  0  0  0  0  0  0  0
   21.4803   -5.6185  -16.6884 C   0  0  0  0  0  0  0  0  0  0  0  0
   20.1430   -5.5691  -16.0986 C   0  0  0  0  0  0  0  0  0  0  0  0
   19.5822   -4.4844  -15.8259 O   0  0  0  0  0  0  0  0  0  0  0  0
   19.4678   -6.7434  -15.8296 O   0  0  0  0  0  0  0  0  0  0  0  0
  2  1  1  1
  2  3  1  0
  4  3  1  0
  5  6  2  0
  5  2  1  0
  8  7  1  1
  8 10  1  0
  9  8  1  0
 11 10  1  6
 11 12  1  0
 12  5  1  0
 13 15  1  0
 13 11  1  0
 14 13  2  0
 16 15  1  0
 17 16  1  0
 18 17  2  0
 19 17  1  0
M  END
$$$$
