CLG.pdb
     RDKit          3D

 19 18  0  0  1  0  0  0  0  0999 V2000
   19.8012  -13.1833  -17.3402 N   0  0  0  0  0  0  0  0  0  0  0  0
   19.8377  -11.6984  -17.2718 C   0  0  1  0  0  0  0  0  0  0  0  0
   18.6182  -11.2587  -16.5355 C   0  0  0  0  0  0  0  0  0  0  0  0
   18.6451   -9.4996  -16.2160 S   0  0  0  0  0  0  0  0  0  0  0  0
   21.0513  -11.3747  -16.4815 C   0  0  0  0  0  0  0  0  0  0  0  0
   21.3209  -12.0078  -15.3978 O   0  0  0  0  0  0  0  0  0  0  0  0
   26.7756   -9.3998  -16.5552 C   0  0  0  0  0  0  0  0  0  0  0  0
   25.5657   -9.7182  -15.6804 C   0  0  2  0  0  0  0  0  0  0  0  0
   25.9606  -10.7793  -14.7025 C   0  0  0  0  0  0  0  0  0  0  0  0
   24.4274  -10.0574  -16.5776 C   0  0  0  0  0  0  0  0  0  0  0  0
   23.0692  -10.0255  -15.9401 C   0  0  2  0  0  0  0  0  0  0  0  0
   22.0111  -10.3820  -16.8108 N   0  0  0  0  0  0  0  0  0  0  0  0
   22.9442   -8.7009  -15.2808 C   0  0  0  0  0  0  0  0  0  0  0  0
   23.7902   -8.4465  -14.3833 O   0  0  0  0  0  0  0  0  0  0  0  0
   21.9798   -7.7278  -15.5696 N   0  0  0  0  0  0  0  0  0  0  0  0
   21.9564   -6.4154  -14.9340 C   0  0  0  0  0  0  0  0  0  0  0  0
   22.6574   -5.4052  -15.7257 C   0  0  0  0  0  0  0  0  0  0  0  0
   23.2152   -5.6872  -16.8096 O   0  0  0  0  0  0  0  0  0  0  0  0
   22.7140   -4.1000  -15.2779 O   0  0  0  0  0  0  0  0  0  0  0  0
  2  1  1  1
  2  3  1  0
  4  3  1  0
  5  6  2  0
  5  2  1  0
  8  7  1  6
  8 10  1  0
  9  8  1  0
 11 10  1  6
 11 12  1  0
 12  5  1  0
 13 15  1  0
 13 11  1  0
 14 13  2  0
 16 15  1  0
 17 16  1  0
 18 17  2  0
 19 17  1  0
M  END
$$$$
