CLG.pdb
     RDKit          3D

 19 18  0  0  1  0  0  0  0  0999 V2000
   27.6964  -22.2799  -16.4743 N   0  0  0  0  0  0  0  0  0  0  0  0
   26.9780  -21.0866  -15.9538 C   0  0  1  0  0  0  0  0  0  0  0  0
   26.2928  -20.4423  -17.1106 C   0  0  0  0  0  0  0  0  0  0  0  0
   27.4119  -19.3987  -18.0356 S   0  0  0  0  0  0  0  0  0  0  0  0
   25.9722  -21.6217  -15.0028 C   0  0  0  0  0  0  0  0  0  0  0  0
   25.5691  -22.8378  -15.0842 O   0  0  0  0  0  0  0  0  0  0  0  0
   25.2816  -20.4402   -9.4938 C   0  0  0  0  0  0  0  0  0  0  0  0
   25.3114  -21.3638  -10.7090 C   0  0  2  0  0  0  0  0  0  0  0  0
   26.7302  -21.4913  -11.1660 C   0  0  0  0  0  0  0  0  0  0  0  0
   24.3537  -20.8291  -11.7153 C   0  0  0  0  0  0  0  0  0  0  0  0
   24.4136  -21.4709  -13.0705 C   0  0  2  0  0  0  0  0  0  0  0  0
   25.3683  -20.8950  -13.9434 N   0  0  0  0  0  0  0  0  0  0  0  0
   23.0188  -21.5149  -13.5780 C   0  0  0  0  0  0  0  0  0  0  0  0
   22.1931  -22.1546  -12.8744 O   0  0  0  0  0  0  0  0  0  0  0  0
   22.5537  -20.9143  -14.7540 N   0  0  0  0  0  0  0  0  0  0  0  0
   21.1699  -21.0103  -15.2048 C   0  0  0  0  0  0  0  0  0  0  0  0
   20.4129  -19.7899  -14.9291 C   0  0  0  0  0  0  0  0  0  0  0  0
   19.5939  -19.7209  -13.9856 O   0  0  0  0  0  0  0  0  0  0  0  0
   20.5959  -18.6747  -15.7228 O   0  0  0  0  0  0  0  0  0  0  0  0
  2  1  1  6
  2  3  1  0
  4  3  1  0
  5  6  2  0
  5  2  1  0
  8  7  1  1
  8 10  1  0
  9  8  1  0
 11 10  1  1
 11 12  1  0
 12  5  1  0
 13 15  1  0
 13 11  1  0
 14 13  2  0
 16 15  1  0
 17 16  1  0
 18 17  2  0
 19 17  1  0
M  END
$$$$
