CLG.pdb
     RDKit          3D

 19 18  0  0  1  0  0  0  0  0999 V2000
   21.6981  -19.8271   -8.4702 N   0  0  0  0  0  0  0  0  0  0  0  0
   22.6110  -20.7553   -7.7518 C   0  0  1  0  0  0  0  0  0  0  0  0
   22.3664  -22.1234   -8.2914 C   0  0  0  0  0  0  0  0  0  0  0  0
   20.9167  -22.8677   -7.5554 S   0  0  0  0  0  0  0  0  0  0  0  0
   23.9804  -20.3075   -8.1074 C   0  0  0  0  0  0  0  0  0  0  0  0
   24.1694  -19.4228   -9.0182 O   0  0  0  0  0  0  0  0  0  0  0  0
   27.6767  -18.3858   -5.7698 C   0  0  0  0  0  0  0  0  0  0  0  0
   27.3888  -19.8701   -5.5591 C   0  0  2  0  0  0  0  0  0  0  0  0
   28.2758  -20.3684   -4.4623 C   0  0  0  0  0  0  0  0  0  0  0  0
   27.5357  -20.5568   -6.8716 C   0  0  0  0  0  0  0  0  0  0  0  0
   26.4564  -20.2727   -7.8749 C   0  0  2  0  0  0  0  0  0  0  0  0
   25.1826  -20.7749   -7.5143 N   0  0  0  0  0  0  0  0  0  0  0  0
   26.9772  -20.7190   -9.1919 C   0  0  0  0  0  0  0  0  0  0  0  0
   28.1938  -20.4831   -9.4155 O   0  0  0  0  0  0  0  0  0  0  0  0
   26.2398  -21.3693  -10.1887 N   0  0  0  0  0  0  0  0  0  0  0  0
   26.8173  -21.7928  -11.4592 C   0  0  0  0  0  0  0  0  0  0  0  0
   25.8788  -21.6422  -12.5706 C   0  0  0  0  0  0  0  0  0  0  0  0
   24.7165  -21.2121  -12.3984 O   0  0  0  0  0  0  0  0  0  0  0  0
   26.2713  -21.9798  -13.8508 O   0  0  0  0  0  0  0  0  0  0  0  0
  2  1  1  6
  2  3  1  0
  4  3  1  0
  5  6  2  0
  5  2  1  0
  8  7  1  6
  8 10  1  0
  9  8  1  0
 11 10  1  1
 11 12  1  0
 12  5  1  0
 13 15  1  0
 13 11  1  0
 14 13  2  0
 16 15  1  0
 17 16  1  0
 18 17  2  0
 19 17  1  0
M  END
$$$$
