CLG.pdb
     RDKit          3D

 19 18  0  0  1  0  0  0  0  0999 V2000
   27.4562  -19.1922  -17.0321 N   0  0  0  0  0  0  0  0  0  0  0  0
   27.2474  -18.4239  -15.7762 C   0  0  1  0  0  0  0  0  0  0  0  0
   26.4219  -17.2307  -16.1187 C   0  0  0  0  0  0  0  0  0  0  0  0
   26.7754  -15.8561  -15.0312 S   0  0  0  0  0  0  0  0  0  0  0  0
   26.4813  -19.3321  -14.8870 C   0  0  0  0  0  0  0  0  0  0  0  0
   25.7625  -20.2786  -15.3722 O   0  0  0  0  0  0  0  0  0  0  0  0
   25.5079  -20.6996   -8.8989 C   0  0  0  0  0  0  0  0  0  0  0  0
   25.2933  -21.0942  -10.3580 C   0  0  2  0  0  0  0  0  0  0  0  0
   25.7100  -22.5214  -10.5236 C   0  0  0  0  0  0  0  0  0  0  0  0
   26.0117  -20.1079  -11.2104 C   0  0  0  0  0  0  0  0  0  0  0  0
   25.7176  -20.1871  -12.6799 C   0  0  2  0  0  0  0  0  0  0  0  0
   26.4535  -19.2703  -13.4690 N   0  0  0  0  0  0  0  0  0  0  0  0
   24.2409  -20.1180  -12.8184 C   0  0  0  0  0  0  0  0  0  0  0  0
   23.7292  -18.9706  -12.7313 O   0  0  0  0  0  0  0  0  0  0  0  0
   23.3847  -21.2046  -13.0341 N   0  0  0  0  0  0  0  0  0  0  0  0
   21.9310  -21.0868  -13.0314 C   0  0  0  0  0  0  0  0  0  0  0  0
   21.3630  -21.2216  -14.3723 C   0  0  0  0  0  0  0  0  0  0  0  0
   20.1317  -21.1386  -14.5782 O   0  0  0  0  0  0  0  0  0  0  0  0
   22.1956  -21.4470  -15.4508 O   0  0  0  0  0  0  0  0  0  0  0  0
  2  1  1  6
  2  3  1  0
  4  3  1  0
  5  6  2  0
  5  2  1  0
  8  7  1  1
  8 10  1  0
  9  8  1  0
 11 10  1  1
 11 12  1  0
 12  5  1  0
 13 15  1  0
 13 11  1  0
 14 13  2  0
 16 15  1  0
 17 16  1  0
 18 17  2  0
 19 17  1  0
M  END
$$$$
