CLG.pdb
     RDKit          3D

 19 18  0  0  1  0  0  0  0  0999 V2000
   19.1418  -12.1049  -18.4768 N   0  0  0  0  0  0  0  0  0  0  0  0
   20.0358  -10.9376  -18.6988 C   0  0  1  0  0  0  0  0  0  0  0  0
   19.1893   -9.8221  -19.2103 C   0  0  0  0  0  0  0  0  0  0  0  0
   20.1326   -8.3136  -19.3892 S   0  0  0  0  0  0  0  0  0  0  0  0
   20.5692  -10.5950  -17.3570 C   0  0  0  0  0  0  0  0  0  0  0  0
   19.7874  -10.4854  -16.3447 O   0  0  0  0  0  0  0  0  0  0  0  0
   22.2856  -12.6188  -14.3228 C   0  0  0  0  0  0  0  0  0  0  0  0
   23.4089  -12.2260  -15.2790 C   0  0  2  0  0  0  0  0  0  0  0  0
   24.6331  -13.0016  -14.9077 C   0  0  0  0  0  0  0  0  0  0  0  0
   23.5463  -10.7443  -15.2414 C   0  0  0  0  0  0  0  0  0  0  0  0
   22.3665   -9.9718  -15.7548 C   0  0  2  0  0  0  0  0  0  0  0  0
   21.9345  -10.3625  -17.0454 N   0  0  0  0  0  0  0  0  0  0  0  0
   22.7017   -8.5343  -15.5939 C   0  0  0  0  0  0  0  0  0  0  0  0
   23.6883   -8.1177  -16.2565 O   0  0  0  0  0  0  0  0  0  0  0  0
   22.0231   -7.6191  -14.7801 N   0  0  0  0  0  0  0  0  0  0  0  0
   22.3663   -6.2031  -14.7148 C   0  0  0  0  0  0  0  0  0  0  0  0
   21.5126   -5.4699  -13.7809 C   0  0  0  0  0  0  0  0  0  0  0  0
   20.5183   -6.0024  -13.2392 O   0  0  0  0  0  0  0  0  0  0  0  0
   21.7988   -4.1532  -13.4784 O   0  0  0  0  0  0  0  0  0  0  0  0
  2  1  1  1
  2  3  1  0
  4  3  1  0
  5  6  2  0
  5  2  1  0
  8  7  1  1
  8 10  1  0
  9  8  1  0
 11 10  1  6
 11 12  1  0
 12  5  1  0
 13 15  1  0
 13 11  1  0
 14 13  2  0
 16 15  1  0
 17 16  1  0
 18 17  2  0
 19 17  1  0
M  END
$$$$
