CLG.pdb
     RDKit          3D

 19 18  0  0  1  0  0  0  0  0999 V2000
   15.5928  -11.9172  -11.8017 N   0  0  0  0  0  0  0  0  0  0  0  0
   14.4348  -11.2668  -12.4703 C   0  0  1  0  0  0  0  0  0  0  0  0
   13.2145  -11.6285  -11.6940 C   0  0  0  0  0  0  0  0  0  0  0  0
   12.8922  -13.3860  -11.7625 S   0  0  0  0  0  0  0  0  0  0  0  0
   14.6909   -9.8091  -12.3620 C   0  0  0  0  0  0  0  0  0  0  0  0
   13.8794   -8.9569  -12.8751 O   0  0  0  0  0  0  0  0  0  0  0  0
   13.8367   -6.7058   -9.8455 C   0  0  0  0  0  0  0  0  0  0  0  0
   15.0331   -7.4995   -9.3265 C   0  0  2  0  0  0  0  0  0  0  0  0
   15.2723   -7.1091   -7.9023 C   0  0  0  0  0  0  0  0  0  0  0  0
   16.1719   -7.2748  -10.2584 C   0  0  0  0  0  0  0  0  0  0  0  0
   15.9856   -7.8091  -11.6483 C   0  0  2  0  0  0  0  0  0  0  0  0
   15.8019   -9.2117  -11.7109 N   0  0  0  0  0  0  0  0  0  0  0  0
   17.1040   -7.2676  -12.4613 C   0  0  0  0  0  0  0  0  0  0  0  0
   18.2505   -7.7148  -12.1941 O   0  0  0  0  0  0  0  0  0  0  0  0
   16.9911   -6.3170  -13.4830 N   0  0  0  0  0  0  0  0  0  0  0  0
   18.1235   -5.8739  -14.2882 C   0  0  0  0  0  0  0  0  0  0  0  0
   18.7714   -4.6893  -13.7264 C   0  0  0  0  0  0  0  0  0  0  0  0
   18.3376   -4.1264  -12.6965 O   0  0  0  0  0  0  0  0  0  0  0  0
   19.8935   -4.1657  -14.3379 O   0  0  0  0  0  0  0  0  0  0  0  0
  2  1  1  1
  2  3  1  0
  4  3  1  0
  5  6  2  0
  5  2  1  0
  8  7  1  6
  8 10  1  0
  9  8  1  0
 11 10  1  1
 11 12  1  0
 12  5  1  0
 13 15  1  0
 13 11  1  0
 14 13  2  0
 16 15  1  0
 17 16  1  0
 18 17  2  0
 19 17  1  0
M  END
$$$$
