CLG.pdb
     RDKit          3D

 19 18  0  0  1  0  0  0  0  0999 V2000
   25.6250  -37.0572  -11.7324 N   0  0  0  0  0  0  0  0  0  0  0  0
   26.0218  -37.1167  -10.3006 C   0  0  1  0  0  0  0  0  0  0  0  0
   27.2864  -37.9023  -10.2235 C   0  0  0  0  0  0  0  0  0  0  0  0
   27.9656  -37.8887   -8.5695 S   0  0  0  0  0  0  0  0  0  0  0  0
   26.2753  -35.7082   -9.9080 C   0  0  0  0  0  0  0  0  0  0  0  0
   26.7919  -34.8752  -10.7369 O   0  0  0  0  0  0  0  0  0  0  0  0
   24.8242  -32.2654  -10.5371 C   0  0  0  0  0  0  0  0  0  0  0  0
   24.0749  -32.9421   -9.3920 C   0  0  2  0  0  0  0  0  0  0  0  0
   22.7653  -32.2420   -9.2104 C   0  0  0  0  0  0  0  0  0  0  0  0
   24.9705  -32.9567   -8.2031 C   0  0  0  0  0  0  0  0  0  0  0  0
   26.2208  -33.7745   -8.3448 C   0  0  2  0  0  0  0  0  0  0  0  0
   25.9904  -35.1403   -8.6385 N   0  0  0  0  0  0  0  0  0  0  0  0
   27.0408  -33.5033   -7.1370 C   0  0  0  0  0  0  0  0  0  0  0  0
   26.4104  -33.1393   -6.1093 O   0  0  0  0  0  0  0  0  0  0  0  0
   28.4334  -33.6169   -7.0476 N   0  0  0  0  0  0  0  0  0  0  0  0
   29.1728  -33.4040   -5.8087 C   0  0  0  0  0  0  0  0  0  0  0  0
   29.0594  -34.5403   -4.8951 C   0  0  0  0  0  0  0  0  0  0  0  0
   28.3932  -35.5581   -5.1881 O   0  0  0  0  0  0  0  0  0  0  0  0
   29.6994  -34.5040   -3.6719 O   0  0  0  0  0  0  0  0  0  0  0  0
  2  1  1  6
  2  3  1  0
  4  3  1  0
  5  6  2  0
  5  2  1  0
  8  7  1  6
  8 10  1  0
  9  8  1  0
 11 10  1  1
 11 12  1  0
 12  5  1  0
 13 15  1  0
 13 11  1  0
 14 13  2  0
 16 15  1  0
 17 16  1  0
 18 17  2  0
 19 17  1  0
M  END
$$$$
