CLG.pdb
     RDKit          3D

 19 18  0  0  1  0  0  0  0  0999 V2000
   20.3013  -13.1573  -17.5028 N   0  0  0  0  0  0  0  0  0  0  0  0
   20.4854  -11.8084  -18.1007 C   0  0  1  0  0  0  0  0  0  0  0  0
   19.1280  -11.2577  -18.3782 C   0  0  0  0  0  0  0  0  0  0  0  0
   18.4421  -11.9352  -19.8841 S   0  0  0  0  0  0  0  0  0  0  0  0
   21.1534  -11.0037  -17.0479 C   0  0  0  0  0  0  0  0  0  0  0  0
   20.8108  -11.1150  -15.8157 O   0  0  0  0  0  0  0  0  0  0  0  0
   26.5046   -9.7976  -15.6318 C   0  0  0  0  0  0  0  0  0  0  0  0
   25.0193  -10.0613  -15.3980 C   0  0  2  0  0  0  0  0  0  0  0  0
   24.7665  -11.5229  -15.5924 C   0  0  0  0  0  0  0  0  0  0  0  0
   24.2462   -9.1482  -16.2837 C   0  0  0  0  0  0  0  0  0  0  0  0
   22.7539   -9.2913  -16.2161 C   0  0  2  0  0  0  0  0  0  0  0  0
   22.1975  -10.0662  -17.2625 N   0  0  0  0  0  0  0  0  0  0  0  0
   22.2053   -7.9195  -16.0668 C   0  0  0  0  0  0  0  0  0  0  0  0
   22.2054   -7.2066  -17.1049 O   0  0  0  0  0  0  0  0  0  0  0  0
   21.6967   -7.3626  -14.8872 N   0  0  0  0  0  0  0  0  0  0  0  0
   21.1445   -6.0147  -14.8156 C   0  0  0  0  0  0  0  0  0  0  0  0
   22.1290   -5.0379  -14.3517 C   0  0  0  0  0  0  0  0  0  0  0  0
   23.3011   -5.3684  -14.0645 O   0  0  0  0  0  0  0  0  0  0  0  0
   21.7704   -3.7106  -14.2220 O   0  0  0  0  0  0  0  0  0  0  0  0
  2  1  1  1
  2  3  1  0
  4  3  1  0
  5  6  2  0
  5  2  1  0
  8  7  1  6
  8 10  1  0
  9  8  1  0
 11 10  1  6
 11 12  1  0
 12  5  1  0
 13 15  1  0
 13 11  1  0
 14 13  2  0
 16 15  1  0
 17 16  1  0
 18 17  2  0
 19 17  1  0
M  END
$$$$
