CLG.pdb
     RDKit          3D

 19 18  0  0  1  0  0  0  0  0999 V2000
   20.5163  -21.7618  -13.3342 N   0  0  0  0  0  0  0  0  0  0  0  0
   21.6936  -21.9447  -14.2239 C   0  0  1  0  0  0  0  0  0  0  0  0
   21.3047  -21.4594  -15.5789 C   0  0  0  0  0  0  0  0  0  0  0  0
   22.6669  -21.5749  -16.7314 S   0  0  0  0  0  0  0  0  0  0  0  0
   22.7502  -21.0707  -13.6563 C   0  0  0  0  0  0  0  0  0  0  0  0
   22.5427  -19.8167  -13.4766 O   0  0  0  0  0  0  0  0  0  0  0  0
   24.0716  -19.7040  -10.2104 C   0  0  0  0  0  0  0  0  0  0  0  0
   24.7801  -21.0467  -10.3708 C   0  0  2  0  0  0  0  0  0  0  0  0
   25.4239  -21.3957   -9.0664 C   0  0  0  0  0  0  0  0  0  0  0  0
   25.6983  -20.9443  -11.5380 C   0  0  0  0  0  0  0  0  0  0  0  0
   25.0493  -20.5841  -12.8422 C   0  0  2  0  0  0  0  0  0  0  0  0
   24.0471  -21.4921  -13.2617 N   0  0  0  0  0  0  0  0  0  0  0  0
   26.1506  -20.3461  -13.8094 C   0  0  0  0  0  0  0  0  0  0  0  0
   27.0922  -19.6127  -13.4076 O   0  0  0  0  0  0  0  0  0  0  0  0
   26.2273  -20.8608  -15.1092 N   0  0  0  0  0  0  0  0  0  0  0  0
   27.4291  -20.7747  -15.9310 C   0  0  0  0  0  0  0  0  0  0  0  0
   27.9626  -22.0935  -16.2700 C   0  0  0  0  0  0  0  0  0  0  0  0
   27.4225  -23.1471  -15.8655 O   0  0  0  0  0  0  0  0  0  0  0  0
   29.0928  -22.1949  -17.0571 O   0  0  0  0  0  0  0  0  0  0  0  0
  2  1  1  1
  2  3  1  0
  4  3  1  0
  5  6  2  0
  5  2  1  0
  8  7  1  1
  8 10  1  0
  9  8  1  0
 11 10  1  1
 11 12  1  0
 12  5  1  0
 13 15  1  0
 13 11  1  0
 14 13  2  0
 16 15  1  0
 17 16  1  0
 18 17  2  0
 19 17  1  0
M  END
$$$$
