CLG.pdb
     RDKit          3D

 19 18  0  0  1  0  0  0  0  0999 V2000
   21.2111  -12.8008  -17.6423 N   0  0  0  0  0  0  0  0  0  0  0  0
   22.1043  -11.9191  -18.4397 C   0  0  1  0  0  0  0  0  0  0  0  0
   21.2420  -11.1512  -19.3828 C   0  0  0  0  0  0  0  0  0  0  0  0
   20.5933  -12.1994  -20.6780 S   0  0  0  0  0  0  0  0  0  0  0  0
   22.7232  -10.9982  -17.4543 C   0  0  0  0  0  0  0  0  0  0  0  0
   22.0853  -10.6326  -16.4020 O   0  0  0  0  0  0  0  0  0  0  0  0
   26.4192  -11.6182  -15.1623 C   0  0  0  0  0  0  0  0  0  0  0  0
   26.7255  -10.9493  -16.4999 C   0  0  2  0  0  0  0  0  0  0  0  0
   28.2084  -10.9541  -16.6977 C   0  0  0  0  0  0  0  0  0  0  0  0
   26.0774   -9.6092  -16.5017 C   0  0  0  0  0  0  0  0  0  0  0  0
   24.5772   -9.6160  -16.5390 C   0  0  2  0  0  0  0  0  0  0  0  0
   24.0259  -10.4418  -17.5484 N   0  0  0  0  0  0  0  0  0  0  0  0
   24.1499   -8.1941  -16.5633 C   0  0  0  0  0  0  0  0  0  0  0  0
   24.2522   -7.6035  -17.6709 O   0  0  0  0  0  0  0  0  0  0  0  0
   23.6511   -7.4680  -15.4751 N   0  0  0  0  0  0  0  0  0  0  0  0
   23.1339   -6.1095  -15.5930 C   0  0  0  0  0  0  0  0  0  0  0  0
   21.6744   -6.0646  -15.5118 C   0  0  0  0  0  0  0  0  0  0  0  0
   20.9816   -7.1065  -15.5132 O   0  0  0  0  0  0  0  0  0  0  0  0
   21.0287   -4.8465  -15.4308 O   0  0  0  0  0  0  0  0  0  0  0  0
  2  1  1  1
  2  3  1  0
  4  3  1  0
  5  6  2  0
  5  2  1  0
  8  7  1  1
  8 10  1  0
  9  8  1  0
 11 10  1  6
 11 12  1  0
 12  5  1  0
 13 15  1  0
 13 11  1  0
 14 13  2  0
 16 15  1  0
 17 16  1  0
 18 17  2  0
 19 17  1  0
M  END
$$$$
