HGH.pdb
     RDKit          3D

 25 26  0  0  1  0  0  0  0  0999 V2000
   39.6269  -10.2132   -8.5374 N   0  0  0  0  0  0  0  0  0  0  0  0
   38.8597   -9.5143   -7.5148 C   0  0  1  0  0  0  0  0  0  0  0  0
   38.6467  -10.4630   -6.3280 C   0  0  0  0  0  0  0  0  0  0  0  0
   37.7867  -11.5970   -6.6831 C   0  0  0  0  0  0  0  0  0  0  0  0
   37.3329  -11.8361   -7.9742 C   0  0  0  0  0  0  0  0  0  0  0  0
   36.5837  -12.9377   -7.9330 N   0  0  0  0  0  0  0  0  0  0  0  0
   36.5371  -13.4148   -6.6743 C   0  0  0  0  0  0  0  0  0  0  0  0
   37.2741  -12.5905   -5.9174 N   0  0  0  0  0  0  0  0  0  0  0  0
   39.5652   -8.2838   -7.0732 C   0  0  0  0  0  0  0  0  0  0  0  0
   40.3819   -8.3477   -6.1376 O   0  0  0  0  0  0  0  0  0  0  0  0
   39.3538   -7.0185   -7.6715 N   0  0  0  0  0  0  0  0  0  0  0  0
   40.1053   -5.8382   -7.2940 C   0  0  0  0  0  0  0  0  0  0  0  0
   39.6782   -4.7013   -8.1852 C   0  0  0  0  0  0  0  0  0  0  0  0
   40.3150   -3.6173   -8.1835 O   0  0  0  0  0  0  0  0  0  0  0  0
   38.5651   -4.8021   -9.0451 N   0  0  0  0  0  0  0  0  0  0  0  0
   38.1765   -3.6854   -9.9405 C   0  0  1  0  0  0  0  0  0  0  0  0
   37.4902   -4.2207  -11.1404 C   0  0  0  0  0  0  0  0  0  0  0  0
   38.3901   -5.0426  -11.9674 C   0  0  0  0  0  0  0  0  0  0  0  0
   39.7705   -5.2059  -11.7163 C   0  0  0  0  0  0  0  0  0  0  0  0
   40.3109   -6.0072  -12.6393 N   0  0  0  0  0  0  0  0  0  0  0  0
   39.3260   -6.3607  -13.4694 C   0  0  0  0  0  0  0  0  0  0  0  0
   38.1957   -5.7845  -13.0622 N   0  0  0  0  0  0  0  0  0  0  0  0
   37.2960   -2.7805   -9.1589 C   0  0  0  0  0  0  0  0  0  0  0  0
   37.0863   -3.0891   -7.9355 O   0  0  0  0  0  0  0  0  0  0  0  0
   36.7326   -1.6640   -9.7182 O   0  0  0  0  0  0  0  0  0  0  0  0
  2  1  1  6
  3  2  1  0
  4  3  1  0
  5  4  2  0
  6  7  1  0
  6  5  1  0
  7  8  2  0
  8  4  1  0
  9  2  1  0
 10  9  2  0
 11  9  1  0
 12 13  1  0
 12 11  1  0
 13 15  1  0
 14 13  2  0
 15 16  1  0
 16 17  1  6
 16 23  1  0
 18 22  1  0
 18 17  1  0
 19 18  2  0
 20 19  1  0
 20 21  1  0
 21 22  2  0
 23 24  2  0
 23 25  1  0
M  END
$$$$
