HGH.pdb
     RDKit          3D

 25 26  0  0  1  0  0  0  0  0999 V2000
   32.1048  -19.1692    8.4501 N   0  0  0  0  0  0  0  0  0  0  0  0
   30.7821  -18.6664    8.7969 C   0  0  1  0  0  0  0  0  0  0  0  0
   30.1555  -18.0333    7.5477 C   0  0  0  0  0  0  0  0  0  0  0  0
   30.8951  -16.8451    7.1084 C   0  0  0  0  0  0  0  0  0  0  0  0
   32.1716  -16.8989    6.5627 C   0  0  0  0  0  0  0  0  0  0  0  0
   32.5344  -15.6479    6.2799 N   0  0  0  0  0  0  0  0  0  0  0  0
   31.5484  -14.7956    6.6197 C   0  0  0  0  0  0  0  0  0  0  0  0
   30.5511  -15.5346    7.1247 N   0  0  0  0  0  0  0  0  0  0  0  0
   29.9186  -19.7604    9.3109 C   0  0  0  0  0  0  0  0  0  0  0  0
   30.2475  -20.9439    9.1163 O   0  0  0  0  0  0  0  0  0  0  0  0
   28.7188  -19.5239   10.0238 N   0  0  0  0  0  0  0  0  0  0  0  0
   27.8545  -20.5943   10.4796 C   0  0  0  0  0  0  0  0  0  0  0  0
   28.1577  -20.8603   11.9310 C   0  0  0  0  0  0  0  0  0  0  0  0
   29.1057  -20.2646   12.5029 O   0  0  0  0  0  0  0  0  0  0  0  0
   27.4043  -21.7732   12.6977 N   0  0  0  0  0  0  0  0  0  0  0  0
   27.6739  -21.9766   14.1419 C   0  0  1  0  0  0  0  0  0  0  0  0
   26.7583  -21.1330   14.9463 C   0  0  0  0  0  0  0  0  0  0  0  0
   25.4265  -21.0221   14.3270 C   0  0  0  0  0  0  0  0  0  0  0  0
   25.1731  -21.2125   12.9506 C   0  0  0  0  0  0  0  0  0  0  0  0
   23.8715  -21.0448   12.6983 N   0  0  0  0  0  0  0  0  0  0  0  0
   23.2859  -20.7545   13.8631 C   0  0  0  0  0  0  0  0  0  0  0  0
   24.2149  -20.7440   14.8183 N   0  0  0  0  0  0  0  0  0  0  0  0
   27.4848  -23.4219   14.4257 C   0  0  0  0  0  0  0  0  0  0  0  0
   26.4426  -23.9780   13.9352 O   0  0  0  0  0  0  0  0  0  0  0  0
   28.3838  -24.1318   15.1771 O   0  0  0  0  0  0  0  0  0  0  0  0
  2  1  1  6
  3  2  1  0
  4  3  1  0
  5  4  2  0
  6  7  1  0
  6  5  1  0
  7  8  2  0
  8  4  1  0
  9  2  1  0
 10  9  2  0
 11  9  1  0
 12 13  1  0
 12 11  1  0
 13 15  1  0
 14 13  2  0
 15 16  1  0
 16 17  1  1
 16 23  1  0
 18 22  1  0
 18 17  1  0
 19 18  2  0
 20 19  1  0
 20 21  1  0
 21 22  2  0
 23 24  2  0
 23 25  1  0
M  END
$$$$
