HGH.pdb
     RDKit          3D

 25 26  0  0  1  0  0  0  0  0999 V2000
   26.3443  -11.5298  -17.3684 N   0  0  0  0  0  0  0  0  0  0  0  0
   27.1384  -11.0610  -16.2403 C   0  0  1  0  0  0  0  0  0  0  0  0
   28.4445  -10.4606  -16.7764 C   0  0  0  0  0  0  0  0  0  0  0  0
   29.1914  -11.4215  -17.5953 C   0  0  0  0  0  0  0  0  0  0  0  0
   28.8068  -12.7464  -17.7589 C   0  0  0  0  0  0  0  0  0  0  0  0
   29.7047  -13.3237  -18.5571 N   0  0  0  0  0  0  0  0  0  0  0  0
   30.6467  -12.4287  -18.9120 C   0  0  0  0  0  0  0  0  0  0  0  0
   30.3259  -11.2699  -18.3205 N   0  0  0  0  0  0  0  0  0  0  0  0
   26.3898  -10.0495  -15.4508 C   0  0  0  0  0  0  0  0  0  0  0  0
   26.9340   -9.5118  -14.4703 O   0  0  0  0  0  0  0  0  0  0  0  0
   25.0655   -9.6573  -15.7604 N   0  0  0  0  0  0  0  0  0  0  0  0
   24.3683   -8.6131  -15.0363 C   0  0  0  0  0  0  0  0  0  0  0  0
   22.9747   -8.4995  -15.5968 C   0  0  0  0  0  0  0  0  0  0  0  0
   22.1686   -7.6541  -15.1320 O   0  0  0  0  0  0  0  0  0  0  0  0
   22.5219   -9.3223  -16.6489 N   0  0  0  0  0  0  0  0  0  0  0  0
   21.1568   -9.1777  -17.2104 C   0  0  1  0  0  0  0  0  0  0  0  0
   21.2375   -8.6585  -18.5964 C   0  0  0  0  0  0  0  0  0  0  0  0
   21.4864   -7.2071  -18.6262 C   0  0  0  0  0  0  0  0  0  0  0  0
   20.6518   -6.2462  -18.0135 C   0  0  0  0  0  0  0  0  0  0  0  0
   21.1423   -5.0197  -18.2160 N   0  0  0  0  0  0  0  0  0  0  0  0
   22.2587   -5.1633  -18.9351 C   0  0  0  0  0  0  0  0  0  0  0  0
   22.4518   -6.4604  -19.1713 N   0  0  0  0  0  0  0  0  0  0  0  0
   20.5155  -10.5160  -17.1590 C   0  0  0  0  0  0  0  0  0  0  0  0
   21.2930  -11.5313  -17.1339 O   0  0  0  0  0  0  0  0  0  0  0  0
   19.1535  -10.6615  -17.1378 O   0  0  0  0  0  0  0  0  0  0  0  0
  2  1  1  6
  3  2  1  0
  4  3  1  0
  5  4  2  0
  6  7  1  0
  6  5  1  0
  7  8  2  0
  8  4  1  0
  9  2  1  0
 10  9  2  0
 11  9  1  0
 12 13  1  0
 12 11  1  0
 13 15  1  0
 14 13  2  0
 15 16  1  0
 16 17  1  6
 16 23  1  0
 18 22  1  0
 18 17  1  0
 19 18  2  0
 20 19  1  0
 20 21  1  0
 21 22  2  0
 23 24  2  0
 23 25  1  0
M  END
$$$$
