HGH.pdb
     RDKit          3D

 25 26  0  0  1  0  0  0  0  0999 V2000
   22.2947  -22.9944  -15.2728 N   0  0  0  0  0  0  0  0  0  0  0  0
   22.0361  -22.6317  -16.6600 C   0  0  1  0  0  0  0  0  0  0  0  0
   22.3373  -23.8458  -17.5483 C   0  0  0  0  0  0  0  0  0  0  0  0
   23.6814  -24.3804  -17.3048 C   0  0  0  0  0  0  0  0  0  0  0  0
   24.8263  -23.8691  -17.9029 C   0  0  0  0  0  0  0  0  0  0  0  0
   25.8586  -24.5868  -17.4603 N   0  0  0  0  0  0  0  0  0  0  0  0
   25.4268  -25.5343  -16.6060 C   0  0  0  0  0  0  0  0  0  0  0  0
   24.0964  -25.4015  -16.5165 N   0  0  0  0  0  0  0  0  0  0  0  0
   20.6270  -22.1967  -16.8390 C   0  0  0  0  0  0  0  0  0  0  0  0
   19.7030  -22.9727  -16.5381 O   0  0  0  0  0  0  0  0  0  0  0  0
   20.2729  -20.9224  -17.3430 N   0  0  0  0  0  0  0  0  0  0  0  0
   18.8970  -20.4839  -17.4674 C   0  0  0  0  0  0  0  0  0  0  0  0
   18.7033  -19.2799  -16.5831 C   0  0  0  0  0  0  0  0  0  0  0  0
   19.5620  -18.9838  -15.7138 O   0  0  0  0  0  0  0  0  0  0  0  0
   17.5702  -18.4472  -16.6903 N   0  0  0  0  0  0  0  0  0  0  0  0
   17.4032  -17.2542  -15.8251 C   0  0  1  0  0  0  0  0  0  0  0  0
   16.7750  -16.1575  -16.5996 C   0  0  0  0  0  0  0  0  0  0  0  0
   16.6672  -14.9188  -15.8101 C   0  0  0  0  0  0  0  0  0  0  0  0
   17.5681  -13.8352  -15.9070 C   0  0  0  0  0  0  0  0  0  0  0  0
   17.2044  -12.8623  -15.0661 N   0  0  0  0  0  0  0  0  0  0  0  0
   16.1050  -13.2857  -14.4367 C   0  0  0  0  0  0  0  0  0  0  0  0
   15.7971  -14.5023  -14.8848 N   0  0  0  0  0  0  0  0  0  0  0  0
   16.5663  -17.6628  -14.6686 C   0  0  0  0  0  0  0  0  0  0  0  0
   15.8052  -18.6775  -14.8329 O   0  0  0  0  0  0  0  0  0  0  0  0
   16.6051  -16.9874  -13.4773 O   0  0  0  0  0  0  0  0  0  0  0  0
  2  1  1  1
  3  2  1  0
  4  3  1  0
  5  4  2  0
  6  7  1  0
  6  5  1  0
  7  8  2  0
  8  4  1  0
  9  2  1  0
 10  9  2  0
 11  9  1  0
 12 13  1  0
 12 11  1  0
 13 15  1  0
 14 13  2  0
 15 16  1  0
 16 17  1  6
 16 23  1  0
 18 22  1  0
 18 17  1  0
 19 18  2  0
 20 19  1  0
 20 21  1  0
 21 22  2  0
 23 24  2  0
 23 25  1  0
M  END
$$$$
