HGH.pdb
     RDKit          3D

 25 26  0  0  1  0  0  0  0  0999 V2000
   23.7969  -12.3562  -18.6690 N   0  0  0  0  0  0  0  0  0  0  0  0
   24.7169  -11.4250  -19.3087 C   0  0  1  0  0  0  0  0  0  0  0  0
   25.1174  -11.9936  -20.6763 C   0  0  0  0  0  0  0  0  0  0  0  0
   25.6760  -13.3452  -20.5632 C   0  0  0  0  0  0  0  0  0  0  0  0
   25.0349  -14.4791  -21.0463 C   0  0  0  0  0  0  0  0  0  0  0  0
   25.8185  -15.5228  -20.7753 N   0  0  0  0  0  0  0  0  0  0  0  0
   26.9320  -15.1087  -20.1407 C   0  0  0  0  0  0  0  0  0  0  0  0
   26.8372  -13.7780  -20.0152 N   0  0  0  0  0  0  0  0  0  0  0  0
   24.0900  -10.0877  -19.4680 C   0  0  0  0  0  0  0  0  0  0  0  0
   24.7575   -9.1498  -19.9386 O   0  0  0  0  0  0  0  0  0  0  0  0
   22.7483   -9.8184  -19.1061 N   0  0  0  0  0  0  0  0  0  0  0  0
   22.1392   -8.5138  -19.2717 C   0  0  0  0  0  0  0  0  0  0  0  0
   21.4168   -8.1647  -17.9967 C   0  0  0  0  0  0  0  0  0  0  0  0
   20.6890   -7.1413  -17.9372 O   0  0  0  0  0  0  0  0  0  0  0  0
   21.5237   -8.9570  -16.8350 N   0  0  0  0  0  0  0  0  0  0  0  0
   20.7619   -8.6316  -15.6048 C   0  0  1  0  0  0  0  0  0  0  0  0
   20.6116   -9.8485  -14.7719 C   0  0  0  0  0  0  0  0  0  0  0  0
   19.7114  -10.8336  -15.3953 C   0  0  0  0  0  0  0  0  0  0  0  0
   18.9956  -10.6085  -16.5920 C   0  0  0  0  0  0  0  0  0  0  0  0
   18.2684  -11.6869  -16.8989 N   0  0  0  0  0  0  0  0  0  0  0  0
   18.4943  -12.5911  -15.9421 C   0  0  0  0  0  0  0  0  0  0  0  0
   19.3486  -12.0754  -15.0591 N   0  0  0  0  0  0  0  0  0  0  0  0
   21.5102   -7.5647  -14.8929 C   0  0  0  0  0  0  0  0  0  0  0  0
   22.5777   -7.1338  -15.4504 O   0  0  0  0  0  0  0  0  0  0  0  0
   21.0799   -7.0607  -13.6939 O   0  0  0  0  0  0  0  0  0  0  0  0
  2  1  1  6
  3  2  1  0
  4  3  1  0
  5  4  2  0
  6  7  1  0
  6  5  1  0
  7  8  2  0
  8  4  1  0
  9  2  1  0
 10  9  2  0
 11  9  1  0
 12 13  1  0
 12 11  1  0
 13 15  1  0
 14 13  2  0
 15 16  1  0
 16 17  1  1
 16 23  1  0
 18 22  1  0
 18 17  1  0
 19 18  2  0
 20 19  1  0
 20 21  1  0
 21 22  2  0
 23 24  2  0
 23 25  1  0
M  END
$$$$
