HGH.pdb
     RDKit          3D

 25 26  0  0  1  0  0  0  0  0999 V2000
   21.9996  -11.1068  -21.7034 N   0  0  0  0  0  0  0  0  0  0  0  0
   22.8334   -9.9260  -21.8857 C   0  0  1  0  0  0  0  0  0  0  0  0
   22.7942   -9.5221  -23.3653 C   0  0  0  0  0  0  0  0  0  0  0  0
   23.3801  -10.5534  -24.2285 C   0  0  0  0  0  0  0  0  0  0  0  0
   24.7206  -10.5730  -24.5926 C   0  0  0  0  0  0  0  0  0  0  0  0
   24.9034  -11.6376  -25.3735 N   0  0  0  0  0  0  0  0  0  0  0  0
   23.7409  -12.3005  -25.5259 C   0  0  0  0  0  0  0  0  0  0  0  0
   22.8159  -11.6321  -24.8237 N   0  0  0  0  0  0  0  0  0  0  0  0
   22.3595   -8.8070  -21.0314 C   0  0  0  0  0  0  0  0  0  0  0  0
   22.9693   -7.7232  -21.0466 O   0  0  0  0  0  0  0  0  0  0  0  0
   21.2297   -8.9098  -20.1849 N   0  0  0  0  0  0  0  0  0  0  0  0
   20.7308   -7.7944  -19.4054 C   0  0  0  0  0  0  0  0  0  0  0  0
   20.7033   -8.2056  -17.9565 C   0  0  0  0  0  0  0  0  0  0  0  0
   21.0976   -9.3485  -17.6116 O   0  0  0  0  0  0  0  0  0  0  0  0
   20.2422   -7.3414  -16.9420 N   0  0  0  0  0  0  0  0  0  0  0  0
   20.1698   -7.7800  -15.5270 C   0  0  1  0  0  0  0  0  0  0  0  0
   21.5268   -8.1222  -15.0385 C   0  0  0  0  0  0  0  0  0  0  0  0
   21.5151   -8.5283  -13.6227 C   0  0  0  0  0  0  0  0  0  0  0  0
   20.3543   -8.9181  -12.9186 C   0  0  0  0  0  0  0  0  0  0  0  0
   20.6677   -9.2272  -11.6568 N   0  0  0  0  0  0  0  0  0  0  0  0
   21.9854   -9.0488  -11.5306 C   0  0  0  0  0  0  0  0  0  0  0  0
   22.4752   -8.6357  -12.6989 N   0  0  0  0  0  0  0  0  0  0  0  0
   19.5686   -6.6658  -14.7510 C   0  0  0  0  0  0  0  0  0  0  0  0
   19.8450   -5.4770  -15.1336 O   0  0  0  0  0  0  0  0  0  0  0  0
   18.7535   -6.8958  -13.6743 O   0  0  0  0  0  0  0  0  0  0  0  0
  2  1  1  6
  3  2  1  0
  4  3  1  0
  5  4  2  0
  6  7  1  0
  6  5  1  0
  7  8  2  0
  8  4  1  0
  9  2  1  0
 10  9  2  0
 11  9  1  0
 12 13  1  0
 12 11  1  0
 13 15  1  0
 14 13  2  0
 15 16  1  0
 16 17  1  1
 16 23  1  0
 18 22  1  0
 18 17  1  0
 19 18  2  0
 20 19  1  0
 20 21  1  0
 21 22  2  0
 23 24  2  0
 23 25  1  0
M  END
$$$$
