HGH.pdb
     RDKit          3D

 25 26  0  0  1  0  0  0  0  0999 V2000
   26.2881  -34.8050    0.3576 N   0  0  0  0  0  0  0  0  0  0  0  0
   27.1444  -34.0268    1.2430 C   0  0  1  0  0  0  0  0  0  0  0  0
   28.3829  -33.5776    0.4567 C   0  0  0  0  0  0  0  0  0  0  0  0
   29.2419  -34.7111    0.0970 C   0  0  0  0  0  0  0  0  0  0  0  0
   29.2854  -35.8959    0.8211 C   0  0  0  0  0  0  0  0  0  0  0  0
   30.1638  -36.6966    0.2178 N   0  0  0  0  0  0  0  0  0  0  0  0
   30.6846  -36.0783   -0.8596 C   0  0  0  0  0  0  0  0  0  0  0  0
   30.1165  -34.8666   -0.9262 N   0  0  0  0  0  0  0  0  0  0  0  0
   26.4172  -32.8481    1.7802 C   0  0  0  0  0  0  0  0  0  0  0  0
   25.6695  -32.1952    1.0310 O   0  0  0  0  0  0  0  0  0  0  0  0
   26.5318  -32.4199    3.1245 N   0  0  0  0  0  0  0  0  0  0  0  0
   25.8729  -31.2307    3.6266 C   0  0  0  0  0  0  0  0  0  0  0  0
   26.2663  -31.0462    5.0690 C   0  0  0  0  0  0  0  0  0  0  0  0
   27.0761  -31.8384    5.6142 O   0  0  0  0  0  0  0  0  0  0  0  0
   25.7523  -29.9952    5.8563 N   0  0  0  0  0  0  0  0  0  0  0  0
   26.2423  -29.7512    7.2347 C   0  0  1  0  0  0  0  0  0  0  0  0
   27.4916  -28.9547    7.1888 C   0  0  0  0  0  0  0  0  0  0  0  0
   28.6575  -29.7810    6.8318 C   0  0  0  0  0  0  0  0  0  0  0  0
   28.6319  -31.1899    6.7356 C   0  0  0  0  0  0  0  0  0  0  0  0
   29.8408  -31.6465    6.3947 N   0  0  0  0  0  0  0  0  0  0  0  0
   30.6359  -30.5805    6.2701 C   0  0  0  0  0  0  0  0  0  0  0  0
   29.9255  -29.4838    6.5308 N   0  0  0  0  0  0  0  0  0  0  0  0
   25.1624  -29.0420    7.9668 C   0  0  0  0  0  0  0  0  0  0  0  0
   24.1524  -28.6584    7.2821 O   0  0  0  0  0  0  0  0  0  0  0  0
   25.2394  -28.8081    9.3144 O   0  0  0  0  0  0  0  0  0  0  0  0
  2  1  1  6
  3  2  1  0
  4  3  1  0
  5  4  2  0
  6  7  1  0
  6  5  1  0
  7  8  2  0
  8  4  1  0
  9  2  1  0
 10  9  2  0
 11  9  1  0
 12 13  1  0
 12 11  1  0
 13 15  1  0
 14 13  2  0
 15 16  1  0
 16 17  1  6
 16 23  1  0
 18 22  1  0
 18 17  1  0
 19 18  2  0
 20 19  1  0
 20 21  1  0
 21 22  2  0
 23 24  2  0
 23 25  1  0
M  END
$$$$
