HGH.pdb
     RDKit          3D

 25 26  0  0  1  0  0  0  0  0999 V2000
   14.7409  -19.8195    2.4797 N   0  0  0  0  0  0  0  0  0  0  0  0
   15.9100  -20.6064    2.8495 C   0  0  1  0  0  0  0  0  0  0  0  0
   16.5187  -21.2079    1.5761 C   0  0  0  0  0  0  0  0  0  0  0  0
   15.6371  -22.2124    0.9714 C   0  0  0  0  0  0  0  0  0  0  0  0
   15.1261  -22.1039   -0.3159 C   0  0  0  0  0  0  0  0  0  0  0  0
   14.3726  -23.1813   -0.5350 N   0  0  0  0  0  0  0  0  0  0  0  0
   14.3780  -23.9748    0.5534 C   0  0  0  0  0  0  0  0  0  0  0  0
   15.1523  -23.3760    1.4685 N   0  0  0  0  0  0  0  0  0  0  0  0
   16.9116  -19.7659    3.5545 C   0  0  0  0  0  0  0  0  0  0  0  0
   17.5370  -18.8969    2.9217 O   0  0  0  0  0  0  0  0  0  0  0  0
   17.1980  -19.9035    4.9338 N   0  0  0  0  0  0  0  0  0  0  0  0
   18.2060  -19.1094    5.6075 C   0  0  0  0  0  0  0  0  0  0  0  0
   18.1567  -19.4325    7.0781 C   0  0  0  0  0  0  0  0  0  0  0  0
   17.3185  -20.2586    7.5205 O   0  0  0  0  0  0  0  0  0  0  0  0
   19.0332  -18.8328    8.0058 N   0  0  0  0  0  0  0  0  0  0  0  0
   18.9784  -19.1686    9.4494 C   0  0  1  0  0  0  0  0  0  0  0  0
   20.2207  -19.8723    9.8478 C   0  0  0  0  0  0  0  0  0  0  0  0
   20.2027  -21.2892    9.4462 C   0  0  0  0  0  0  0  0  0  0  0  0
   19.3639  -22.2673   10.0247 C   0  0  0  0  0  0  0  0  0  0  0  0
   19.5807  -23.4536    9.4487 N   0  0  0  0  0  0  0  0  0  0  0  0
   20.5268  -23.2677    8.5243 C   0  0  0  0  0  0  0  0  0  0  0  0
   20.8865  -21.9847    8.5322 N   0  0  0  0  0  0  0  0  0  0  0  0
   18.8038  -17.8943   10.1915 C   0  0  0  0  0  0  0  0  0  0  0  0
   19.3235  -16.8460    9.6746 O   0  0  0  0  0  0  0  0  0  0  0  0
   18.1171  -17.8388   11.3755 O   0  0  0  0  0  0  0  0  0  0  0  0
  2  1  1  6
  3  2  1  0
  4  3  1  0
  5  4  2  0
  6  7  1  0
  6  5  1  0
  7  8  2  0
  8  4  1  0
  9  2  1  0
 10  9  2  0
 11  9  1  0
 12 13  1  0
 12 11  1  0
 13 15  1  0
 14 13  2  0
 15 16  1  0
 16 17  1  1
 16 23  1  0
 18 22  1  0
 18 17  1  0
 19 18  2  0
 20 19  1  0
 20 21  1  0
 21 22  2  0
 23 24  2  0
 23 25  1  0
M  END
$$$$
