HGH.pdb
     RDKit          3D

 25 26  0  0  1  0  0  0  0  0999 V2000
   17.0394  -20.3850    7.4726 N   0  0  0  0  0  0  0  0  0  0  0  0
   18.2841  -21.0562    7.1217 C   0  0  1  0  0  0  0  0  0  0  0  0
   18.3849  -21.1338    5.5927 C   0  0  0  0  0  0  0  0  0  0  0  0
   17.9589  -19.8841    4.9535 C   0  0  0  0  0  0  0  0  0  0  0  0
   17.4965  -18.7826    5.6629 C   0  0  0  0  0  0  0  0  0  0  0  0
   17.2007  -17.8347    4.7738 N   0  0  0  0  0  0  0  0  0  0  0  0
   17.4526  -18.2790    3.5275 C   0  0  0  0  0  0  0  0  0  0  0  0
   17.9152  -19.5310    3.6460 N   0  0  0  0  0  0  0  0  0  0  0  0
   19.4527  -20.3294    7.6809 C   0  0  0  0  0  0  0  0  0  0  0  0
   20.6029  -20.7150    7.4071 O   0  0  0  0  0  0  0  0  0  0  0  0
   19.3251  -19.2001    8.5247 N   0  0  0  0  0  0  0  0  0  0  0  0
   19.9326  -19.1316    9.8389 C   0  0  0  0  0  0  0  0  0  0  0  0
   20.7021  -17.8403    9.9366 C   0  0  0  0  0  0  0  0  0  0  0  0
   20.1082  -16.7365    9.8391 O   0  0  0  0  0  0  0  0  0  0  0  0
   22.0975  -17.8142   10.1383 N   0  0  0  0  0  0  0  0  0  0  0  0
   22.8245  -16.5384   10.3474 C   0  0  1  0  0  0  0  0  0  0  0  0
   23.4819  -16.5482   11.6759 C   0  0  0  0  0  0  0  0  0  0  0  0
   22.5427  -16.2025   12.7566 C   0  0  0  0  0  0  0  0  0  0  0  0
   21.2840  -15.5959   12.5500 C   0  0  0  0  0  0  0  0  0  0  0  0
   20.6690  -15.4096   13.7218 N   0  0  0  0  0  0  0  0  0  0  0  0
   21.4893  -15.8752   14.6676 C   0  0  0  0  0  0  0  0  0  0  0  0
   22.5934  -16.3412   14.0851 N   0  0  0  0  0  0  0  0  0  0  0  0
   23.8105  -16.4076    9.2448 C   0  0  0  0  0  0  0  0  0  0  0  0
   23.9285  -17.4035    8.4508 O   0  0  0  0  0  0  0  0  0  0  0  0
   24.5608  -15.2733    9.0806 O   0  0  0  0  0  0  0  0  0  0  0  0
  2  1  1  6
  3  2  1  0
  4  3  1  0
  5  4  2  0
  6  7  1  0
  6  5  1  0
  7  8  2  0
  8  4  1  0
  9  2  1  0
 10  9  2  0
 11  9  1  0
 12 13  1  0
 12 11  1  0
 13 15  1  0
 14 13  2  0
 15 16  1  0
 16 17  1  1
 16 23  1  0
 18 22  1  0
 18 17  1  0
 19 18  2  0
 20 19  1  0
 20 21  1  0
 21 22  2  0
 23 24  2  0
 23 25  1  0
M  END
$$$$
