HGH.pdb
     RDKit          3D

 25 26  0  0  1  0  0  0  0  0999 V2000
   16.9965  -14.3131  -15.8022 N   0  0  0  0  0  0  0  0  0  0  0  0
   17.9803  -14.1143  -16.8584 C   0  0  1  0  0  0  0  0  0  0  0  0
   17.4793  -14.8085  -18.1316 C   0  0  0  0  0  0  0  0  0  0  0  0
   17.3300  -16.2554  -17.9419 C   0  0  0  0  0  0  0  0  0  0  0  0
   18.4021  -17.1389  -17.9332 C   0  0  0  0  0  0  0  0  0  0  0  0
   17.9066  -18.3609  -17.7392 N   0  0  0  0  0  0  0  0  0  0  0  0
   16.5661  -18.3001  -17.6233 C   0  0  0  0  0  0  0  0  0  0  0  0
   16.2221  -17.0111  -17.7482 N   0  0  0  0  0  0  0  0  0  0  0  0
   18.2001  -12.6670  -17.1107 C   0  0  0  0  0  0  0  0  0  0  0  0
   19.0379  -12.3129  -17.9588 O   0  0  0  0  0  0  0  0  0  0  0  0
   17.4939  -11.6500  -16.4247 N   0  0  0  0  0  0  0  0  0  0  0  0
   17.7227  -10.2391  -16.6647 C   0  0  0  0  0  0  0  0  0  0  0  0
   18.3923   -9.6556  -15.4480 C   0  0  0  0  0  0  0  0  0  0  0  0
   18.1865  -10.1489  -14.3101 O   0  0  0  0  0  0  0  0  0  0  0  0
   19.2639   -8.5502  -15.5313 N   0  0  0  0  0  0  0  0  0  0  0  0
   19.9408   -8.0073  -14.3285 C   0  0  1  0  0  0  0  0  0  0  0  0
   20.9138   -8.9985  -13.8108 C   0  0  0  0  0  0  0  0  0  0  0  0
   21.9245   -9.3560  -14.8208 C   0  0  0  0  0  0  0  0  0  0  0  0
   21.9286   -8.8682  -16.1464 C   0  0  0  0  0  0  0  0  0  0  0  0
   22.9691   -9.3736  -16.8157 N   0  0  0  0  0  0  0  0  0  0  0  0
   23.6283  -10.1655  -15.9657 C   0  0  0  0  0  0  0  0  0  0  0  0
   23.0015  -10.1471  -14.7900 N   0  0  0  0  0  0  0  0  0  0  0  0
   20.6042   -6.7410  -14.7306 C   0  0  0  0  0  0  0  0  0  0  0  0
   20.5183   -6.4066  -15.9621 O   0  0  0  0  0  0  0  0  0  0  0  0
   21.2776   -5.9624  -13.8267 O   0  0  0  0  0  0  0  0  0  0  0  0
  2  1  1  1
  3  2  1  0
  4  3  1  0
  5  4  2  0
  6  7  1  0
  6  5  1  0
  7  8  2  0
  8  4  1  0
  9  2  1  0
 10  9  2  0
 11  9  1  0
 12 13  1  0
 12 11  1  0
 13 15  1  0
 14 13  2  0
 15 16  1  0
 16 17  1  6
 16 23  1  0
 18 22  1  0
 18 17  1  0
 19 18  2  0
 20 19  1  0
 20 21  1  0
 21 22  2  0
 23 24  2  0
 23 25  1  0
M  END
$$$$
