HGH.pdb
     RDKit          3D

 25 26  0  0  1  0  0  0  0  0999 V2000
   25.2122  -25.0997  -17.7254 N   0  0  0  0  0  0  0  0  0  0  0  0
   25.2720  -25.3980  -16.3006 C   0  0  1  0  0  0  0  0  0  0  0  0
   26.7406  -25.3793  -15.8572 C   0  0  0  0  0  0  0  0  0  0  0  0
   27.5270  -26.4197  -16.5289 C   0  0  0  0  0  0  0  0  0  0  0  0
   28.7053  -26.1607  -17.2178 C   0  0  0  0  0  0  0  0  0  0  0  0
   29.1476  -27.3233  -17.6968 N   0  0  0  0  0  0  0  0  0  0  0  0
   28.3061  -28.3148  -17.3459 C   0  0  0  0  0  0  0  0  0  0  0  0
   27.3194  -27.7547  -16.6331 N   0  0  0  0  0  0  0  0  0  0  0  0
   24.4834  -24.4102  -15.5201 C   0  0  0  0  0  0  0  0  0  0  0  0
   24.5774  -23.1999  -15.7901 O   0  0  0  0  0  0  0  0  0  0  0  0
   23.6144  -24.7794  -14.4656 N   0  0  0  0  0  0  0  0  0  0  0  0
   22.8713  -23.8089  -13.6868 C   0  0  0  0  0  0  0  0  0  0  0  0
   21.4019  -24.0303  -13.9340 C   0  0  0  0  0  0  0  0  0  0  0  0
   21.0192  -24.8901  -14.7676 O   0  0  0  0  0  0  0  0  0  0  0  0
   20.4094  -23.2955  -13.2531 N   0  0  0  0  0  0  0  0  0  0  0  0
   18.9671  -23.5836  -13.4439 C   0  0  1  0  0  0  0  0  0  0  0  0
   18.2620  -23.4947  -12.1430 C   0  0  0  0  0  0  0  0  0  0  0  0
   18.6863  -24.5560  -11.2141 C   0  0  0  0  0  0  0  0  0  0  0  0
   18.7937  -25.9203  -11.5639 C   0  0  0  0  0  0  0  0  0  0  0  0
   19.2009  -26.6317  -10.5083 N   0  0  0  0  0  0  0  0  0  0  0  0
   19.3569  -25.7712   -9.4987 C   0  0  0  0  0  0  0  0  0  0  0  0
   19.0498  -24.5477   -9.9278 N   0  0  0  0  0  0  0  0  0  0  0  0
   18.4465  -22.5954  -14.4224 C   0  0  0  0  0  0  0  0  0  0  0  0
   19.1868  -21.5834  -14.6748 O   0  0  0  0  0  0  0  0  0  0  0  0
   17.2297  -22.7568  -15.0307 O   0  0  0  0  0  0  0  0  0  0  0  0
  2  1  1  6
  3  2  1  0
  4  3  1  0
  5  4  2  0
  6  7  1  0
  6  5  1  0
  7  8  2  0
  8  4  1  0
  9  2  1  0
 10  9  2  0
 11  9  1  0
 12 13  1  0
 12 11  1  0
 13 15  1  0
 14 13  2  0
 15 16  1  0
 16 17  1  1
 16 23  1  0
 18 22  1  0
 18 17  1  0
 19 18  2  0
 20 19  1  0
 20 21  1  0
 21 22  2  0
 23 24  2  0
 23 25  1  0
M  END
$$$$
