HGH.pdb
     RDKit          3D

 25 26  0  0  1  0  0  0  0  0999 V2000
   20.9860  -16.4763  -16.9904 N   0  0  0  0  0  0  0  0  0  0  0  0
   20.5624  -15.3775  -16.1325 C   0  0  1  0  0  0  0  0  0  0  0  0
   21.0667  -15.6452  -14.7085 C   0  0  0  0  0  0  0  0  0  0  0  0
   20.4900  -16.8713  -14.1465 C   0  0  0  0  0  0  0  0  0  0  0  0
   21.1908  -18.0662  -14.0415 C   0  0  0  0  0  0  0  0  0  0  0  0
   20.3693  -18.9602  -13.4915 N   0  0  0  0  0  0  0  0  0  0  0  0
   19.1744  -18.3920  -13.2395 C   0  0  0  0  0  0  0  0  0  0  0  0
   19.2564  -17.1167  -13.6423 N   0  0  0  0  0  0  0  0  0  0  0  0
   21.0898  -14.0822  -16.6331 C   0  0  0  0  0  0  0  0  0  0  0  0
   22.2175  -14.0403  -17.1558 O   0  0  0  0  0  0  0  0  0  0  0  0
   20.3642  -12.8700  -16.5455 N   0  0  0  0  0  0  0  0  0  0  0  0
   20.8655  -11.6171  -17.0741 C   0  0  0  0  0  0  0  0  0  0  0  0
   21.3746  -10.7889  -15.9233 C   0  0  0  0  0  0  0  0  0  0  0  0
   21.1373  -11.1330  -14.7376 O   0  0  0  0  0  0  0  0  0  0  0  0
   22.1261   -9.6125  -16.1228 N   0  0  0  0  0  0  0  0  0  0  0  0
   22.5331   -8.7531  -14.9846 C   0  0  1  0  0  0  0  0  0  0  0  0
   23.9208   -8.2739  -15.1896 C   0  0  0  0  0  0  0  0  0  0  0  0
   24.8868   -9.3853  -15.2229 C   0  0  0  0  0  0  0  0  0  0  0  0
   24.5654  -10.7255  -14.9137 C   0  0  0  0  0  0  0  0  0  0  0  0
   25.6513  -11.4951  -15.0347 N   0  0  0  0  0  0  0  0  0  0  0  0
   26.6529  -10.6949  -15.4096 C   0  0  0  0  0  0  0  0  0  0  0  0
   26.1890   -9.4505  -15.5176 N   0  0  0  0  0  0  0  0  0  0  0  0
   21.5658   -7.6287  -14.9140 C   0  0  0  0  0  0  0  0  0  0  0  0
   21.6583   -6.8462  -13.9065 O   0  0  0  0  0  0  0  0  0  0  0  0
   20.6167   -7.4335  -15.8824 O   0  0  0  0  0  0  0  0  0  0  0  0
  2  1  1  6
  3  2  1  0
  4  3  1  0
  5  4  2  0
  6  7  1  0
  6  5  1  0
  7  8  2  0
  8  4  1  0
  9  2  1  0
 10  9  2  0
 11  9  1  0
 12 13  1  0
 12 11  1  0
 13 15  1  0
 14 13  2  0
 15 16  1  0
 16 17  1  6
 16 23  1  0
 18 22  1  0
 18 17  1  0
 19 18  2  0
 20 19  1  0
 20 21  1  0
 21 22  2  0
 23 24  2  0
 23 25  1  0
M  END
$$$$
