CSH.pdb
     RDKit          3D

 23 23  0  0  1  0  0  0  0  0999 V2000
    8.0289  -14.9515   17.8099 N   0  0  0  0  0  0  0  0  0  0  0  0
    8.3729  -14.4524   19.1061 C   0  0  1  0  0  0  0  0  0  0  0  0
    8.0396  -12.9814   19.2675 C   0  0  0  0  0  0  0  0  0  0  0  0
    9.3772  -11.9152   18.7353 S   0  0  0  0  0  0  0  0  0  0  0  0
    7.6500  -15.2050   20.1888 C   0  0  0  0  0  0  0  0  0  0  0  0
    6.4104  -15.4028   20.1289 O   0  0  0  0  0  0  0  0  0  0  0  0
    9.0165  -18.4447   21.8382 O   0  0  0  0  0  0  0  0  0  0  0  0
    7.7382  -17.9618   21.9668 C   0  0  0  0  0  0  0  0  0  0  0  0
    7.7297  -16.4806   22.3582 C   0  0  2  0  0  0  0  0  0  0  0  0
    8.3488  -15.7174   21.3169 N   0  0  0  0  0  0  0  0  0  0  0  0
    8.3995  -16.2943   23.6707 C   0  0  0  0  0  0  0  0  0  0  0  0
    9.6259  -16.0434   23.6925 O   0  0  0  0  0  0  0  0  0  0  0  0
    7.7047  -16.3903   24.8812 N   0  0  0  0  0  0  0  0  0  0  0  0
    8.3321  -16.2791   26.2046 C   0  0  1  0  0  0  0  0  0  0  0  0
    7.4141  -15.6500   27.1819 C   0  0  0  0  0  0  0  0  0  0  0  0
    7.0372  -14.2902   26.7967 C   0  0  0  0  0  0  0  0  0  0  0  0
    7.9502  -13.2849   26.4665 C   0  0  0  0  0  0  0  0  0  0  0  0
    7.3120  -12.1530   26.1582 N   0  0  0  0  0  0  0  0  0  0  0  0
    6.0064  -12.4224   26.2871 C   0  0  0  0  0  0  0  0  0  0  0  0
    5.8476  -13.7083   26.6710 N   0  0  0  0  0  0  0  0  0  0  0  0
    8.7349  -17.6640   26.5384 C   0  0  0  0  0  0  0  0  0  0  0  0
    9.5077  -17.9809   27.6300 O   0  0  0  0  0  0  0  0  0  0  0  0
    8.3858  -18.6696   25.8229 O   0  0  0  0  0  0  0  0  0  0  0  0
  2  1  1  6
  3  2  1  0
  4  3  1  0
  5  2  1  0
  5 10  1  0
  6  5  2  0
  7  8  1  0
  9 10  1  0
  9 11  1  0
  9  8  1  6
 11 13  1  0
 12 11  2  0
 13 14  1  0
 14 15  1  1
 15 16  1  0
 16 17  2  0
 17 18  1  0
 19 18  1  0
 20 16  1  0
 20 19  2  0
 21 22  1  0
 21 14  1  0
 23 21  2  0
M  END
$$$$
