CSH.pdb
     RDKit          3D

 23 23  0  0  1  0  0  0  0  0999 V2000
    8.4697  -14.9839   16.0455 N   0  0  0  0  0  0  0  0  0  0  0  0
    9.1641  -14.4850   17.1928 C   0  0  1  0  0  0  0  0  0  0  0  0
    8.4038  -13.3743   17.8922 C   0  0  0  0  0  0  0  0  0  0  0  0
    9.2861  -12.7314   19.3126 S   0  0  0  0  0  0  0  0  0  0  0  0
    9.4063  -15.5755   18.1994 C   0  0  0  0  0  0  0  0  0  0  0  0
    8.4805  -16.3428   18.5647 O   0  0  0  0  0  0  0  0  0  0  0  0
   13.3388  -16.2909   19.7142 O   0  0  0  0  0  0  0  0  0  0  0  0
   12.4035  -17.2840   19.5618 C   0  0  0  0  0  0  0  0  0  0  0  0
   10.9800  -16.7571   19.7701 C   0  0  2  0  0  0  0  0  0  0  0  0
   10.6941  -15.7727   18.7706 N   0  0  0  0  0  0  0  0  0  0  0  0
   10.8280  -16.2247   21.1483 C   0  0  0  0  0  0  0  0  0  0  0  0
   10.9837  -14.9977   21.3422 O   0  0  0  0  0  0  0  0  0  0  0  0
   10.5169  -17.0495   22.2347 N   0  0  0  0  0  0  0  0  0  0  0  0
   10.1768  -16.5559   23.5756 C   0  0  1  0  0  0  0  0  0  0  0  0
    8.7118  -16.5596   23.7926 C   0  0  0  0  0  0  0  0  0  0  0  0
    8.0315  -15.5211   23.0193 C   0  0  0  0  0  0  0  0  0  0  0  0
    8.5854  -14.2732   22.7206 C   0  0  0  0  0  0  0  0  0  0  0  0
    7.7314  -13.5394   22.0025 N   0  0  0  0  0  0  0  0  0  0  0  0
    6.6419  -14.3013   21.8393 C   0  0  0  0  0  0  0  0  0  0  0  0
    6.8284  -15.4909   22.4526 N   0  0  0  0  0  0  0  0  0  0  0  0
   10.9396  -17.4311   24.4943 C   0  0  0  0  0  0  0  0  0  0  0  0
   11.5782  -16.9669   25.6195 O   0  0  0  0  0  0  0  0  0  0  0  0
   11.0562  -18.6931   24.2980 O   0  0  0  0  0  0  0  0  0  0  0  0
  2  1  1  6
  3  2  1  0
  4  3  1  0
  5  2  1  0
  5 10  1  0
  6  5  2  0
  7  8  1  0
  9 10  1  0
  9 11  1  0
  9  8  1  6
 11 13  1  0
 12 11  2  0
 13 14  1  0
 14 15  1  1
 15 16  1  0
 16 17  2  0
 17 18  1  0
 19 18  1  0
 20 16  1  0
 20 19  2  0
 21 22  1  0
 21 14  1  0
 23 21  2  0
M  END
$$$$
