CSH.pdb
     RDKit          3D

 23 23  0  0  1  0  0  0  0  0999 V2000
    7.2490  -12.9854   15.3029 N   0  0  0  0  0  0  0  0  0  0  0  0
    7.8032  -14.2995   15.4196 C   0  0  1  0  0  0  0  0  0  0  0  0
    8.5782  -14.7131   14.1830 C   0  0  0  0  0  0  0  0  0  0  0  0
    8.9964  -16.4550   14.1893 S   0  0  0  0  0  0  0  0  0  0  0  0
    8.7359  -14.3947   16.5952 C   0  0  0  0  0  0  0  0  0  0  0  0
    9.6675  -13.5668   16.7569 O   0  0  0  0  0  0  0  0  0  0  0  0
    8.9455  -17.9887   18.8865 O   0  0  0  0  0  0  0  0  0  0  0  0
    8.9918  -16.7754   19.5264 C   0  0  0  0  0  0  0  0  0  0  0  0
    9.5357  -15.6735   18.6113 C   0  0  2  0  0  0  0  0  0  0  0  0
    8.5922  -15.4273   17.5630 N   0  0  0  0  0  0  0  0  0  0  0  0
   10.8733  -16.0550   18.0904 C   0  0  0  0  0  0  0  0  0  0  0  0
   11.0297  -16.1687   16.8535 O   0  0  0  0  0  0  0  0  0  0  0  0
   11.9621  -16.2908   18.9368 N   0  0  0  0  0  0  0  0  0  0  0  0
   13.3569  -15.9849   18.5929 C   0  0  1  0  0  0  0  0  0  0  0  0
   13.5067  -14.5750   18.1648 C   0  0  0  0  0  0  0  0  0  0  0  0
   14.9002  -14.2186   17.8993 C   0  0  0  0  0  0  0  0  0  0  0  0
   15.8421  -15.0884   17.3431 C   0  0  0  0  0  0  0  0  0  0  0  0
   17.0261  -14.4831   17.2200 N   0  0  0  0  0  0  0  0  0  0  0  0
   16.8524  -13.2408   17.6894 C   0  0  0  0  0  0  0  0  0  0  0  0
   15.5728  -13.0879   18.0961 N   0  0  0  0  0  0  0  0  0  0  0  0
   14.1231  -16.3467   19.8069 C   0  0  0  0  0  0  0  0  0  0  0  0
   13.5978  -16.2827   21.0755 O   0  0  0  0  0  0  0  0  0  0  0  0
   15.3404  -16.7471   19.7539 O   0  0  0  0  0  0  0  0  0  0  0  0
  2  1  1  6
  3  2  1  0
  4  3  1  0
  5  2  1  0
  5 10  1  0
  6  5  2  0
  7  8  1  0
  9 10  1  0
  9 11  1  0
  9  8  1  1
 11 13  1  0
 12 11  2  0
 13 14  1  0
 14 15  1  1
 15 16  1  0
 16 17  2  0
 17 18  1  0
 19 18  1  0
 20 16  1  0
 20 19  2  0
 21 22  1  0
 21 14  1  0
 23 21  2  0
M  END
$$$$
