CSH.pdb
     RDKit          3D

 23 23  0  0  1  0  0  0  0  0999 V2000
    9.8211  -15.9241   18.5418 N   0  0  0  0  0  0  0  0  0  0  0  0
    9.0361  -16.3730   19.6507 C   0  0  1  0  0  0  0  0  0  0  0  0
    8.9896  -17.8857   19.7526 C   0  0  0  0  0  0  0  0  0  0  0  0
    7.8855  -18.6183   18.5469 S   0  0  0  0  0  0  0  0  0  0  0  0
    9.5776  -15.8450   20.9503 C   0  0  0  0  0  0  0  0  0  0  0  0
   10.7889  -15.5332   21.0731 O   0  0  0  0  0  0  0  0  0  0  0  0
    7.0547  -15.8767   24.3018 O   0  0  0  0  0  0  0  0  0  0  0  0
    8.0195  -14.9015   24.2547 C   0  0  0  0  0  0  0  0  0  0  0  0
    9.2087  -15.3238   23.3859 C   0  0  2  0  0  0  0  0  0  0  0  0
    8.7335  -15.6818   22.0836 N   0  0  0  0  0  0  0  0  0  0  0  0
    9.9532  -16.4299   24.0403 C   0  0  0  0  0  0  0  0  0  0  0  0
    9.6650  -17.6112   23.7419 O   0  0  0  0  0  0  0  0  0  0  0  0
   10.9644  -16.1941   24.9778 N   0  0  0  0  0  0  0  0  0  0  0  0
   11.6894  -17.2516   25.6944 C   0  0  1  0  0  0  0  0  0  0  0  0
   13.1499  -17.0068   25.6769 C   0  0  0  0  0  0  0  0  0  0  0  0
   13.7188  -17.1272   24.3348 C   0  0  0  0  0  0  0  0  0  0  0  0
   14.4334  -16.1141   23.6898 C   0  0  0  0  0  0  0  0  0  0  0  0
   14.8270  -16.5144   22.4781 N   0  0  0  0  0  0  0  0  0  0  0  0
   14.3737  -17.7673   22.3417 C   0  0  0  0  0  0  0  0  0  0  0  0
   13.7087  -18.1300   23.4607 N   0  0  0  0  0  0  0  0  0  0  0  0
   11.0814  -17.2649   27.0442 C   0  0  0  0  0  0  0  0  0  0  0  0
   11.3650  -18.2229   27.9882 O   0  0  0  0  0  0  0  0  0  0  0  0
   10.2409  -16.3742   27.4249 O   0  0  0  0  0  0  0  0  0  0  0  0
  2  1  1  6
  3  2  1  0
  4  3  1  0
  5  2  1  0
  5 10  1  0
  6  5  2  0
  7  8  1  0
  9 10  1  0
  9 11  1  0
  9  8  1  1
 11 13  1  0
 12 11  2  0
 13 14  1  0
 14 15  1  1
 15 16  1  0
 16 17  2  0
 17 18  1  0
 19 18  1  0
 20 16  1  0
 20 19  2  0
 21 22  1  0
 21 14  1  0
 23 21  2  0
M  END
$$$$
