CSH.pdb
     RDKit          3D

 23 23  0  0  1  0  0  0  0  0999 V2000
    6.6611  -20.5052   20.0353 N   0  0  0  0  0  0  0  0  0  0  0  0
    7.7050  -21.0672   20.8365 C   0  0  1  0  0  0  0  0  0  0  0  0
    9.0655  -20.9578   20.1749 C   0  0  0  0  0  0  0  0  0  0  0  0
   10.3802  -21.6069   21.2042 S   0  0  0  0  0  0  0  0  0  0  0  0
    7.7922  -20.3851   22.1738 C   0  0  0  0  0  0  0  0  0  0  0  0
    8.0640  -19.1615   22.2649 O   0  0  0  0  0  0  0  0  0  0  0  0
    5.6250  -21.6714   25.3770 O   0  0  0  0  0  0  0  0  0  0  0  0
    6.1920  -20.4284   25.2445 C   0  0  0  0  0  0  0  0  0  0  0  0
    7.6147  -20.5126   24.6822 C   0  0  2  0  0  0  0  0  0  0  0  0
    7.5691  -21.1057   23.3798 N   0  0  0  0  0  0  0  0  0  0  0  0
    8.4904  -21.2653   25.6163 C   0  0  0  0  0  0  0  0  0  0  0  0
    8.4457  -22.5165   25.6100 O   0  0  0  0  0  0  0  0  0  0  0  0
    9.3619  -20.6217   26.5014 N   0  0  0  0  0  0  0  0  0  0  0  0
   10.1682  -21.3133   27.5158 C   0  0  1  0  0  0  0  0  0  0  0  0
   11.3212  -22.0101   26.9006 C   0  0  0  0  0  0  0  0  0  0  0  0
   12.2098  -21.0934   26.1869 C   0  0  0  0  0  0  0  0  0  0  0  0
   11.8525  -19.8022   25.7888 C   0  0  0  0  0  0  0  0  0  0  0  0
   12.8684  -19.2061   25.1594 N   0  0  0  0  0  0  0  0  0  0  0  0
   13.8674  -20.0983   25.1507 C   0  0  0  0  0  0  0  0  0  0  0  0
   13.4655  -21.2304   25.7696 N   0  0  0  0  0  0  0  0  0  0  0  0
   10.5316  -20.2528   28.4827 C   0  0  0  0  0  0  0  0  0  0  0  0
   10.1678  -18.9363   28.3282 O   0  0  0  0  0  0  0  0  0  0  0  0
   11.2176  -20.4954   29.5389 O   0  0  0  0  0  0  0  0  0  0  0  0
  2  1  1  6
  3  2  1  0
  4  3  1  0
  5  2  1  0
  5 10  1  0
  6  5  2  0
  7  8  1  0
  9 10  1  0
  9 11  1  0
  9  8  1  1
 11 13  1  0
 12 11  2  0
 13 14  1  0
 14 15  1  6
 15 16  1  0
 16 17  2  0
 17 18  1  0
 19 18  1  0
 20 16  1  0
 20 19  2  0
 21 22  1  0
 21 14  1  0
 23 21  2  0
M  END
$$$$
