CSH.pdb
     RDKit          3D

 23 23  0  0  1  0  0  0  0  0999 V2000
    8.1874  -12.8766   17.3327 N   0  0  0  0  0  0  0  0  0  0  0  0
    7.6814  -13.7677   18.3314 C   0  0  1  0  0  0  0  0  0  0  0  0
    7.5727  -15.1958   17.8318 C   0  0  0  0  0  0  0  0  0  0  0  0
    9.1595  -15.8742   17.3508 S   0  0  0  0  0  0  0  0  0  0  0  0
    8.5624  -13.7768   19.5499 C   0  0  0  0  0  0  0  0  0  0  0  0
    9.7823  -13.4841   19.4744 O   0  0  0  0  0  0  0  0  0  0  0  0
    7.0886  -15.5205   23.0704 O   0  0  0  0  0  0  0  0  0  0  0  0
    7.9326  -14.4482   23.2185 C   0  0  0  0  0  0  0  0  0  0  0  0
    8.8470  -14.2757   22.0014 C   0  0  2  0  0  0  0  0  0  0  0  0
    8.0410  -14.1178   20.8287 N   0  0  0  0  0  0  0  0  0  0  0  0
    9.7805  -15.4261   21.8955 C   0  0  0  0  0  0  0  0  0  0  0  0
    9.4751  -16.3850   21.1508 O   0  0  0  0  0  0  0  0  0  0  0  0
   10.9881  -15.4720   22.6004 N   0  0  0  0  0  0  0  0  0  0  0  0
   11.9328  -16.5955   22.5481 C   0  0  1  0  0  0  0  0  0  0  0  0
   13.3049  -16.1284   22.2440 C   0  0  0  0  0  0  0  0  0  0  0  0
   13.4232  -15.5921   20.8884 C   0  0  0  0  0  0  0  0  0  0  0  0
   12.7779  -16.1293   19.7711 C   0  0  0  0  0  0  0  0  0  0  0  0
   13.0758  -15.4286   18.6740 N   0  0  0  0  0  0  0  0  0  0  0  0
   13.9011  -14.4531   19.0757 C   0  0  0  0  0  0  0  0  0  0  0  0
   14.1060  -14.5567   20.4074 N   0  0  0  0  0  0  0  0  0  0  0  0
   11.7842  -17.2627   23.8612 C   0  0  0  0  0  0  0  0  0  0  0  0
   10.8968  -16.8424   24.8231 O   0  0  0  0  0  0  0  0  0  0  0  0
   12.4817  -18.2872   24.1911 O   0  0  0  0  0  0  0  0  0  0  0  0
  2  1  1  6
  3  2  1  0
  4  3  1  0
  5  2  1  0
  5 10  1  0
  6  5  2  0
  7  8  1  0
  9 10  1  0
  9 11  1  0
  9  8  1  1
 11 13  1  0
 12 11  2  0
 13 14  1  0
 14 15  1  1
 15 16  1  0
 16 17  2  0
 17 18  1  0
 19 18  1  0
 20 16  1  0
 20 19  2  0
 21 22  1  0
 21 14  1  0
 23 21  2  0
M  END
$$$$
