CSH.pdb
     RDKit          3D

 23 23  0  0  1  0  0  0  0  0999 V2000
    7.9741  -17.3031   14.1492 N   0  0  0  0  0  0  0  0  0  0  0  0
    8.8743  -16.6017   15.0125 C   0  0  1  0  0  0  0  0  0  0  0  0
    8.5441  -15.1249   15.1168 C   0  0  0  0  0  0  0  0  0  0  0  0
    8.5674  -14.3052   13.5241 S   0  0  0  0  0  0  0  0  0  0  0  0
    8.8515  -17.1733   16.4031 C   0  0  0  0  0  0  0  0  0  0  0  0
    7.7725  -17.3163   17.0314 O   0  0  0  0  0  0  0  0  0  0  0  0
   12.2314  -19.0545   17.8300 O   0  0  0  0  0  0  0  0  0  0  0  0
   11.0203  -19.3062   18.4250 C   0  0  0  0  0  0  0  0  0  0  0  0
   10.1065  -18.0769   18.3901 C   0  0  2  0  0  0  0  0  0  0  0  0
   10.0534  -17.5707   17.0519 N   0  0  0  0  0  0  0  0  0  0  0  0
   10.5813  -17.0587   19.3616 C   0  0  0  0  0  0  0  0  0  0  0  0
   11.4198  -16.2089   18.9844 O   0  0  0  0  0  0  0  0  0  0  0  0
   10.1221  -17.0193   20.6826 N   0  0  0  0  0  0  0  0  0  0  0  0
   10.4723  -15.9688   21.6477 C   0  0  1  0  0  0  0  0  0  0  0  0
    9.2617  -15.2864   22.1598 C   0  0  0  0  0  0  0  0  0  0  0  0
    8.6548  -14.4055   21.1623 C   0  0  0  0  0  0  0  0  0  0  0  0
    9.1792  -14.1839   19.8860 C   0  0  0  0  0  0  0  0  0  0  0  0
    8.4090  -13.3337   19.2023 N   0  0  0  0  0  0  0  0  0  0  0  0
    7.4019  -13.0105   20.0241 C   0  0  0  0  0  0  0  0  0  0  0  0
    7.5552  -13.6578   21.2003 N   0  0  0  0  0  0  0  0  0  0  0  0
   11.2702  -16.6685   22.6798 C   0  0  0  0  0  0  0  0  0  0  0  0
   12.0336  -16.0113   23.6150 O   0  0  0  0  0  0  0  0  0  0  0  0
   11.3023  -17.9475   22.7696 O   0  0  0  0  0  0  0  0  0  0  0  0
  2  1  1  6
  3  2  1  0
  4  3  1  0
  5  2  1  0
  5 10  1  0
  6  5  2  0
  7  8  1  0
  9 10  1  0
  9 11  1  0
  9  8  1  6
 11 13  1  0
 12 11  2  0
 13 14  1  0
 14 15  1  1
 15 16  1  0
 16 17  2  0
 17 18  1  0
 19 18  1  0
 20 16  1  0
 20 19  2  0
 21 22  1  0
 21 14  1  0
 23 21  2  0
M  END
$$$$
