CSH.pdb
     RDKit          3D

 23 23  0  0  1  0  0  0  0  0999 V2000
    8.5612  -16.1541   18.2834 N   0  0  0  0  0  0  0  0  0  0  0  0
    7.7772  -15.9334   19.4599 C   0  0  1  0  0  0  0  0  0  0  0  0
    6.9204  -17.1328   19.8182 C   0  0  0  0  0  0  0  0  0  0  0  0
    7.8973  -18.6013   20.1319 S   0  0  0  0  0  0  0  0  0  0  0  0
    8.6493  -15.6257   20.6456 C   0  0  0  0  0  0  0  0  0  0  0  0
    9.8935  -15.7971   20.6016 O   0  0  0  0  0  0  0  0  0  0  0  0
    6.8408  -14.6439   24.3096 O   0  0  0  0  0  0  0  0  0  0  0  0
    8.0067  -13.9955   23.9869 C   0  0  0  0  0  0  0  0  0  0  0  0
    8.8641  -14.8203   23.0215 C   0  0  2  0  0  0  0  0  0  0  0  0
    8.0914  -15.1299   21.8566 N   0  0  0  0  0  0  0  0  0  0  0  0
    9.3738  -16.0379   23.7023 C   0  0  0  0  0  0  0  0  0  0  0  0
    8.7451  -17.1123   23.5688 O   0  0  0  0  0  0  0  0  0  0  0  0
   10.5321  -16.0223   24.4868 N   0  0  0  0  0  0  0  0  0  0  0  0
   11.0966  -17.2052   25.1497 C   0  0  1  0  0  0  0  0  0  0  0  0
   12.5755  -17.1392   25.1957 C   0  0  0  0  0  0  0  0  0  0  0  0
   13.1824  -17.3200   23.8772 C   0  0  0  0  0  0  0  0  0  0  0  0
   12.5912  -18.0326   22.8305 C   0  0  0  0  0  0  0  0  0  0  0  0
   13.3795  -18.0254   21.7525 N   0  0  0  0  0  0  0  0  0  0  0  0
   14.4639  -17.3188   22.0971 C   0  0  0  0  0  0  0  0  0  0  0  0
   14.3395  -16.8976   23.3750 N   0  0  0  0  0  0  0  0  0  0  0  0
   10.4381  -17.2334   26.4753 C   0  0  0  0  0  0  0  0  0  0  0  0
    9.5566  -16.2675   26.8988 O   0  0  0  0  0  0  0  0  0  0  0  0
   10.6497  -18.1707   27.3248 O   0  0  0  0  0  0  0  0  0  0  0  0
  2  1  1  6
  3  2  1  0
  4  3  1  0
  5  2  1  0
  5 10  1  0
  6  5  2  0
  7  8  1  0
  9 10  1  0
  9 11  1  0
  9  8  1  1
 11 13  1  0
 12 11  2  0
 13 14  1  0
 14 15  1  1
 15 16  1  0
 16 17  2  0
 17 18  1  0
 19 18  1  0
 20 16  1  0
 20 19  2  0
 21 22  1  0
 21 14  1  0
 23 21  2  0
M  END
$$$$
