CSH.pdb
     RDKit          3D

 23 23  0  0  1  0  0  0  0  0999 V2000
    8.1041  -14.7749   17.2560 N   0  0  0  0  0  0  0  0  0  0  0  0
    9.1701  -14.0218   17.8425 C   0  0  1  0  0  0  0  0  0  0  0  0
    8.6843  -13.0767   18.9248 C   0  0  0  0  0  0  0  0  0  0  0  0
    7.4520  -11.9240   18.3229 S   0  0  0  0  0  0  0  0  0  0  0  0
   10.2021  -14.9267   18.4570 C   0  0  0  0  0  0  0  0  0  0  0  0
    9.8749  -16.0044   19.0146 O   0  0  0  0  0  0  0  0  0  0  0  0
   14.4656  -13.9777   18.4236 O   0  0  0  0  0  0  0  0  0  0  0  0
   13.9066  -15.2118   18.2033 C   0  0  0  0  0  0  0  0  0  0  0  0
   12.6140  -15.3985   19.0043 C   0  0  2  0  0  0  0  0  0  0  0  0
   11.5837  -14.5898   18.4259 N   0  0  0  0  0  0  0  0  0  0  0  0
   12.8482  -15.0780   20.4356 C   0  0  0  0  0  0  0  0  0  0  0  0
   12.8546  -13.8779   20.7924 O   0  0  0  0  0  0  0  0  0  0  0  0
   13.0615  -16.0728   21.3958 N   0  0  0  0  0  0  0  0  0  0  0  0
   13.3242  -15.8068   22.8163 C   0  0  1  0  0  0  0  0  0  0  0  0
   12.2484  -16.3571   23.6726 C   0  0  0  0  0  0  0  0  0  0  0  0
   11.8069  -17.6799   23.2313 C   0  0  0  0  0  0  0  0  0  0  0  0
   12.3055  -18.3399   22.1048 C   0  0  0  0  0  0  0  0  0  0  0  0
   11.7133  -19.5276   21.9553 N   0  0  0  0  0  0  0  0  0  0  0  0
   10.8451  -19.6337   22.9696 C   0  0  0  0  0  0  0  0  0  0  0  0
   10.9059  -18.5203   23.7328 N   0  0  0  0  0  0  0  0  0  0  0  0
   14.6642  -16.3880   23.0578 C   0  0  0  0  0  0  0  0  0  0  0  0
   15.3198  -16.2936   24.2622 O   0  0  0  0  0  0  0  0  0  0  0  0
   15.3082  -17.0240   22.1491 O   0  0  0  0  0  0  0  0  0  0  0  0
  2  1  1  1
  3  2  1  0
  4  3  1  0
  5  2  1  0
  5 10  1  0
  6  5  2  0
  7  8  1  0
  9 10  1  0
  9 11  1  0
  9  8  1  6
 11 13  1  0
 12 11  2  0
 13 14  1  0
 14 15  1  1
 15 16  1  0
 16 17  2  0
 17 18  1  0
 19 18  1  0
 20 16  1  0
 20 19  2  0
 21 22  1  0
 21 14  1  0
 23 21  2  0
M  END
$$$$
