CSH.pdb
     RDKit          3D

 23 23  0  0  1  0  0  0  0  0999 V2000
    4.9515  -19.2932   20.4510 N   0  0  0  0  0  0  0  0  0  0  0  0
    5.2023  -18.1998   21.3393 C   0  0  1  0  0  0  0  0  0  0  0  0
    4.8229  -18.5196   22.7728 C   0  0  0  0  0  0  0  0  0  0  0  0
    3.0926  -18.9520   22.9416 S   0  0  0  0  0  0  0  0  0  0  0  0
    6.6549  -17.8112   21.3281 C   0  0  0  0  0  0  0  0  0  0  0  0
    7.5616  -18.6751   21.4334 O   0  0  0  0  0  0  0  0  0  0  0  0
    7.6783  -13.9922   20.1167 O   0  0  0  0  0  0  0  0  0  0  0  0
    8.6111  -14.9979   20.0661 C   0  0  0  0  0  0  0  0  0  0  0  0
    8.4114  -16.0120   21.1970 C   0  0  2  0  0  0  0  0  0  0  0  0
    7.0485  -16.4505   21.1976 N   0  0  0  0  0  0  0  0  0  0  0  0
    8.8144  -15.4156   22.4962 C   0  0  0  0  0  0  0  0  0  0  0  0
    8.3775  -14.2829   22.8020 O   0  0  0  0  0  0  0  0  0  0  0  0
    9.6652  -16.0783   23.3874 N   0  0  0  0  0  0  0  0  0  0  0  0
    9.5963  -15.9453   24.8486 C   0  0  1  0  0  0  0  0  0  0  0  0
    8.2229  -16.1917   25.3451 C   0  0  0  0  0  0  0  0  0  0  0  0
    7.4551  -14.9560   25.4964 C   0  0  0  0  0  0  0  0  0  0  0  0
    7.9736  -13.6765   25.2790 C   0  0  0  0  0  0  0  0  0  0  0  0
    7.0388  -12.7474   25.4946 N   0  0  0  0  0  0  0  0  0  0  0  0
    5.9328  -13.4161   25.8459 C   0  0  0  0  0  0  0  0  0  0  0  0
    6.1892  -14.7428   25.8452 N   0  0  0  0  0  0  0  0  0  0  0  0
   10.6149  -16.8939   25.3529 C   0  0  0  0  0  0  0  0  0  0  0  0
   11.1985  -17.8595   24.5678 O   0  0  0  0  0  0  0  0  0  0  0  0
   11.0234  -16.8770   26.5685 O   0  0  0  0  0  0  0  0  0  0  0  0
  2  1  1  6
  3  2  1  0
  4  3  1  0
  5  2  1  0
  5 10  1  0
  6  5  2  0
  7  8  1  0
  9 10  1  0
  9 11  1  0
  9  8  1  6
 11 13  1  0
 12 11  2  0
 13 14  1  0
 14 15  1  1
 15 16  1  0
 16 17  2  0
 17 18  1  0
 19 18  1  0
 20 16  1  0
 20 19  2  0
 21 22  1  0
 21 14  1  0
 23 21  2  0
M  END
$$$$
