CSH.pdb
     RDKit          3D

 23 23  0  0  1  0  0  0  0  0999 V2000
    9.1638  -17.6386   14.3154 N   0  0  0  0  0  0  0  0  0  0  0  0
    8.4518  -18.2015   15.4216 C   0  0  1  0  0  0  0  0  0  0  0  0
    8.8490  -19.6398   15.6945 C   0  0  0  0  0  0  0  0  0  0  0  0
    9.8552  -20.3314   14.3836 S   0  0  0  0  0  0  0  0  0  0  0  0
    8.6923  -17.4155   16.6807 C   0  0  0  0  0  0  0  0  0  0  0  0
    9.5934  -16.5416   16.7415 O   0  0  0  0  0  0  0  0  0  0  0  0
    6.4751  -18.3833   20.1075 O   0  0  0  0  0  0  0  0  0  0  0  0
    6.8087  -17.0653   19.9190 C   0  0  0  0  0  0  0  0  0  0  0  0
    8.0762  -16.9183   19.0709 C   0  0  2  0  0  0  0  0  0  0  0  0
    7.9052  -17.6373   17.8447 N   0  0  0  0  0  0  0  0  0  0  0  0
    9.2613  -17.3810   19.8375 C   0  0  0  0  0  0  0  0  0  0  0  0
    9.7132  -18.5275   19.6168 O   0  0  0  0  0  0  0  0  0  0  0  0
    9.8874  -16.5776   20.7965 N   0  0  0  0  0  0  0  0  0  0  0  0
   11.0086  -17.0171   21.6375 C   0  0  1  0  0  0  0  0  0  0  0  0
   11.7189  -15.8610   22.2311 C   0  0  0  0  0  0  0  0  0  0  0  0
   12.8426  -16.2701   23.0732 C   0  0  0  0  0  0  0  0  0  0  0  0
   13.6937  -17.3400   22.7834 C   0  0  0  0  0  0  0  0  0  0  0  0
   14.6236  -17.4717   23.7329 N   0  0  0  0  0  0  0  0  0  0  0  0
   14.3774  -16.5016   24.6230 C   0  0  0  0  0  0  0  0  0  0  0  0
   13.3060  -15.7829   24.2211 N   0  0  0  0  0  0  0  0  0  0  0  0
   10.3923  -17.9352   22.6220 C   0  0  0  0  0  0  0  0  0  0  0  0
   11.0343  -19.0422   23.1236 O   0  0  0  0  0  0  0  0  0  0  0  0
    9.2061  -17.7562   23.0755 O   0  0  0  0  0  0  0  0  0  0  0  0
  2  1  1  6
  3  2  1  0
  4  3  1  0
  5  2  1  0
  5 10  1  0
  6  5  2  0
  7  8  1  0
  9 10  1  0
  9 11  1  0
  9  8  1  1
 11 13  1  0
 12 11  2  0
 13 14  1  0
 14 15  1  1
 15 16  1  0
 16 17  2  0
 17 18  1  0
 19 18  1  0
 20 16  1  0
 20 19  2  0
 21 22  1  0
 21 14  1  0
 23 21  2  0
M  END
$$$$
