MLM.pdb
     RDKit          3D

 25 24  0  0  1  0  0  0  0  0999 V2000
   13.8797  -24.2072    3.6042 C   0  0  0  0  0  0  0  0  0  0  0  0
   12.6103  -22.8900    3.5436 S   0  0  0  0  0  0  0  0  0  0  0  0
   13.2576  -21.5364    2.5420 C   0  0  0  0  0  0  0  0  0  0  0  0
   14.5068  -20.9733    3.2243 C   0  0  0  0  0  0  0  0  0  0  0  0
   15.0219  -19.8697    2.3004 C   0  0  2  0  0  0  0  0  0  0  0  0
   15.5526  -20.5407    1.1307 N   0  0  0  0  0  0  0  0  0  0  0  0
   16.1363  -19.1256    2.9396 C   0  0  0  0  0  0  0  0  0  0  0  0
   17.3115  -19.5836    2.9865 O   0  0  0  0  0  0  0  0  0  0  0  0
   17.3724  -13.8623    2.3866 C   0  0  0  0  0  0  0  0  0  0  0  0
   17.6295  -15.3892    2.5408 C   0  0  1  0  0  0  0  0  0  0  0  0
   19.1331  -15.4966    2.6358 C   0  0  0  0  0  0  0  0  0  0  0  0
   16.9357  -15.7728    3.7806 C   0  0  0  0  0  0  0  0  0  0  0  0
   16.9920  -17.1533    4.3014 C   0  0  2  0  0  0  0  0  0  0  0  0
   15.9230  -17.8698    3.5229 N   0  0  0  0  0  0  0  0  0  0  0  0
   16.6782  -17.4279    5.6893 C   0  0  0  0  0  0  0  0  0  0  0  0
   15.5919  -18.0731    5.9647 O   0  0  0  0  0  0  0  0  0  0  0  0
   17.7456  -22.2063    8.1517 C   0  0  0  0  0  0  0  0  0  0  0  0
   16.2758  -21.5544    8.9779 S   0  0  0  0  0  0  0  0  0  0  0  0
   16.5030  -19.7979    9.2653 C   0  0  0  0  0  0  0  0  0  0  0  0
   16.8781  -19.0182    8.0750 C   0  0  0  0  0  0  0  0  0  0  0  0
   17.0253  -17.5307    8.1886 C   0  0  2  0  0  0  0  0  0  0  0  0
   17.4359  -17.0805    6.8458 N   0  0  0  0  0  0  0  0  0  0  0  0
   17.8797  -17.0254    9.2438 C   0  0  0  0  0  0  0  0  0  0  0  0
   19.1152  -16.4200    9.0655 O   0  0  0  0  0  0  0  0  0  0  0  0
   17.5259  -17.1201   10.4644 O   0  0  0  0  0  0  0  0  0  0  0  0
  1  2  1  0
  2  3  1  0
  4  3  1  0
  4  5  1  0
  5  7  1  0
  5  6  1  6
  7  8  2  0
 10  9  1  1
 11 10  1  0
 13 12  1  1
 12 10  1  0
 14 13  1  0
 14  7  1  0
 15 16  2  0
 15 13  1  0
 17 18  1  0
 19 20  1  0
 19 18  1  0
 21 20  1  6
 21 22  1  0
 21 23  1  0
 22 15  1  0
 23 24  1  0
 25 23  2  0
M  END
$$$$
