MLM.pdb
     RDKit          3D

 25 24  0  0  1  0  0  0  0  0999 V2000
   20.9715  -18.6559  -15.5410 C   0  0  0  0  0  0  0  0  0  0  0  0
   21.3103  -17.1731  -16.5592 S   0  0  0  0  0  0  0  0  0  0  0  0
   23.0387  -17.2312  -17.0724 C   0  0  0  0  0  0  0  0  0  0  0  0
   23.6813  -18.4947  -16.4945 C   0  0  0  0  0  0  0  0  0  0  0  0
   25.1500  -18.4422  -16.9148 C   0  0  2  0  0  0  0  0  0  0  0  0
   25.1605  -18.5902  -18.3564 N   0  0  0  0  0  0  0  0  0  0  0  0
   25.9039  -19.5835  -16.3375 C   0  0  0  0  0  0  0  0  0  0  0  0
   25.8660  -20.7394  -16.8431 O   0  0  0  0  0  0  0  0  0  0  0  0
   30.1227  -21.6881  -13.6367 C   0  0  0  0  0  0  0  0  0  0  0  0
   29.2070  -20.7900  -12.7558 C   0  0  1  0  0  0  0  0  0  0  0  0
   30.1784  -19.9618  -11.9485 C   0  0  0  0  0  0  0  0  0  0  0  0
   28.4135  -19.9976  -13.7089 C   0  0  0  0  0  0  0  0  0  0  0  0
   27.2751  -20.5859  -14.4423 C   0  0  2  0  0  0  0  0  0  0  0  0
   26.6966  -19.4187  -15.1943 N   0  0  0  0  0  0  0  0  0  0  0  0
   26.1504  -21.1494  -13.7228 C   0  0  0  0  0  0  0  0  0  0  0  0
   26.1597  -22.4124  -13.4461 O   0  0  0  0  0  0  0  0  0  0  0  0
   27.0778  -20.9758   -8.7150 C   0  0  0  0  0  0  0  0  0  0  0  0
   25.3471  -20.9563   -8.1937 S   0  0  0  0  0  0  0  0  0  0  0  0
   24.3054  -21.2180   -9.6312 C   0  0  0  0  0  0  0  0  0  0  0  0
   24.9259  -20.8676  -10.9187 C   0  0  0  0  0  0  0  0  0  0  0  0
   24.1487  -21.0640  -12.1854 C   0  0  2  0  0  0  0  0  0  0  0  0
   24.9870  -20.4767  -13.2468 N   0  0  0  0  0  0  0  0  0  0  0  0
   22.7821  -20.5836  -12.2087 C   0  0  0  0  0  0  0  0  0  0  0  0
   21.7346  -21.0841  -11.4491 O   0  0  0  0  0  0  0  0  0  0  0  0
   22.4464  -19.6236  -12.9766 O   0  0  0  0  0  0  0  0  0  0  0  0
  1  2  1  0
  2  3  1  0
  4  3  1  0
  4  5  1  0
  5  7  1  0
  5  6  1  6
  7  8  2  0
 10  9  1  6
 11 10  1  0
 13 12  1  1
 12 10  1  0
 14 13  1  0
 14  7  1  0
 15 16  2  0
 15 13  1  0
 17 18  1  0
 19 20  1  0
 19 18  1  0
 21 20  1  1
 21 22  1  0
 21 23  1  0
 22 15  1  0
 23 24  1  0
 25 23  2  0
M  END
$$$$
