MLM.pdb
     RDKit          3D

 25 24  0  0  1  0  0  0  0  0999 V2000
   29.3510  -17.4747  -18.0537 C   0  0  0  0  0  0  0  0  0  0  0  0
   28.0643  -18.3404  -17.0816 S   0  0  0  0  0  0  0  0  0  0  0  0
   27.5060  -19.7647  -18.0377 C   0  0  0  0  0  0  0  0  0  0  0  0
   26.3954  -20.4748  -17.2596 C   0  0  0  0  0  0  0  0  0  0  0  0
   27.0356  -20.9344  -15.9499 C   0  0  2  0  0  0  0  0  0  0  0  0
   27.8704  -22.0698  -16.2879 N   0  0  0  0  0  0  0  0  0  0  0  0
   26.0007  -21.4027  -14.9940 C   0  0  0  0  0  0  0  0  0  0  0  0
   25.5809  -22.5930  -14.9867 O   0  0  0  0  0  0  0  0  0  0  0  0
   26.1411  -19.9821   -9.6802 C   0  0  0  0  0  0  0  0  0  0  0  0
   25.9460  -20.9818  -10.8565 C   0  0  1  0  0  0  0  0  0  0  0  0
   25.3963  -22.2218  -10.1922 C   0  0  0  0  0  0  0  0  0  0  0  0
   24.9870  -20.3285  -11.7616 C   0  0  0  0  0  0  0  0  0  0  0  0
   24.4959  -21.0000  -12.9814 C   0  0  2  0  0  0  0  0  0  0  0  0
   25.4431  -20.5296  -14.0508 N   0  0  0  0  0  0  0  0  0  0  0  0
   23.1780  -20.7008  -13.5045 C   0  0  0  0  0  0  0  0  0  0  0  0
   22.9483  -19.5162  -13.9693 O   0  0  0  0  0  0  0  0  0  0  0  0
   20.9339  -24.0936  -18.6633 C   0  0  0  0  0  0  0  0  0  0  0  0
   20.0470  -23.8581  -17.1058 S   0  0  0  0  0  0  0  0  0  0  0  0
   20.8660  -22.5711  -16.1609 C   0  0  0  0  0  0  0  0  0  0  0  0
   20.1926  -22.1990  -14.9066 C   0  0  0  0  0  0  0  0  0  0  0  0
   20.7482  -21.0787  -14.0799 C   0  0  2  0  0  0  0  0  0  0  0  0
   22.0505  -21.5689  -13.5921 N   0  0  0  0  0  0  0  0  0  0  0  0
   19.9079  -20.5504  -13.0246 C   0  0  0  0  0  0  0  0  0  0  0  0
   18.7874  -19.7523  -13.2046 O   0  0  0  0  0  0  0  0  0  0  0  0
   20.1701  -20.7990  -11.8026 O   0  0  0  0  0  0  0  0  0  0  0  0
  1  2  1  0
  2  3  1  0
  4  3  1  0
  4  5  1  0
  5  7  1  0
  5  6  1  6
  7  8  2  0
 10  9  1  1
 11 10  1  0
 13 12  1  1
 12 10  1  0
 14 13  1  0
 14  7  1  0
 15 16  2  0
 15 13  1  0
 17 18  1  0
 19 20  1  0
 19 18  1  0
 21 20  1  1
 21 22  1  0
 21 23  1  0
 22 15  1  0
 23 24  1  0
 25 23  2  0
M  END
$$$$
