MLM.pdb
     RDKit          3D

 25 24  0  0  1  0  0  0  0  0999 V2000
   31.2763  -15.6988    6.7882 C   0  0  0  0  0  0  0  0  0  0  0  0
   31.1980  -15.1581    8.5351 S   0  0  0  0  0  0  0  0  0  0  0  0
   31.8968  -16.4699    9.5575 C   0  0  0  0  0  0  0  0  0  0  0  0
   31.4960  -17.8227    8.9637 C   0  0  0  0  0  0  0  0  0  0  0  0
   32.2096  -18.8754    9.8119 C   0  0  2  0  0  0  0  0  0  0  0  0
   33.6282  -18.6609    9.6080 N   0  0  0  0  0  0  0  0  0  0  0  0
   31.8858  -20.2435    9.3350 C   0  0  0  0  0  0  0  0  0  0  0  0
   30.7319  -20.7413    9.4519 O   0  0  0  0  0  0  0  0  0  0  0  0
   33.7006  -21.7128    4.6258 C   0  0  0  0  0  0  0  0  0  0  0  0
   32.7556  -21.4503    5.8338 C   0  0  1  0  0  0  0  0  0  0  0  0
   31.3748  -21.7049    5.2770 C   0  0  0  0  0  0  0  0  0  0  0  0
   33.1620  -22.4246    6.8591 C   0  0  0  0  0  0  0  0  0  0  0  0
   32.5602  -22.4231    8.2073 C   0  0  2  0  0  0  0  0  0  0  0  0
   32.8620  -21.0450    8.7288 N   0  0  0  0  0  0  0  0  0  0  0  0
   33.0560  -23.3179    9.2339 C   0  0  0  0  0  0  0  0  0  0  0  0
   33.0636  -24.5894    8.9990 O   0  0  0  0  0  0  0  0  0  0  0  0
   32.4095  -22.3789   15.5541 C   0  0  0  0  0  0  0  0  0  0  0  0
   32.0804  -24.1297   15.2474 S   0  0  0  0  0  0  0  0  0  0  0  0
   33.0442  -24.6614   13.8303 C   0  0  0  0  0  0  0  0  0  0  0  0
   33.1018  -23.6954   12.7218 C   0  0  0  0  0  0  0  0  0  0  0  0
   33.9101  -24.0245   11.5030 C   0  0  2  0  0  0  0  0  0  0  0  0
   33.5686  -22.9794   10.5204 N   0  0  0  0  0  0  0  0  0  0  0  0
   33.7933  -25.3664   10.9697 C   0  0  0  0  0  0  0  0  0  0  0  0
   34.7906  -26.3309   10.9782 O   0  0  0  0  0  0  0  0  0  0  0  0
   32.7079  -25.7552   10.4269 O   0  0  0  0  0  0  0  0  0  0  0  0
  1  2  1  0
  2  3  1  0
  4  3  1  0
  4  5  1  0
  5  7  1  0
  5  6  1  6
  7  8  2  0
 10  9  1  6
 11 10  1  0
 13 12  1  6
 12 10  1  0
 14 13  1  0
 14  7  1  0
 15 16  2  0
 15 13  1  0
 17 18  1  0
 19 20  1  0
 19 18  1  0
 21 20  1  1
 21 22  1  0
 21 23  1  0
 22 15  1  0
 23 24  1  0
 25 23  2  0
M  END
$$$$
