MLM.pdb
     RDKit          3D

 25 24  0  0  1  0  0  0  0  0999 V2000
   20.1262  -19.3538  -16.0205 C   0  0  0  0  0  0  0  0  0  0  0  0
   20.9431  -18.0845  -17.0557 S   0  0  0  0  0  0  0  0  0  0  0  0
   22.5953  -17.7997  -16.3898 C   0  0  0  0  0  0  0  0  0  0  0  0
   23.0992  -19.0969  -15.7523 C   0  0  0  0  0  0  0  0  0  0  0  0
   24.4202  -18.7385  -15.0720 C   0  0  2  0  0  0  0  0  0  0  0  0
   25.2592  -18.1615  -16.1032 N   0  0  0  0  0  0  0  0  0  0  0  0
   25.0995  -19.9578  -14.5660 C   0  0  0  0  0  0  0  0  0  0  0  0
   24.6145  -21.1124  -14.7230 O   0  0  0  0  0  0  0  0  0  0  0  0
   29.7357  -22.1416  -11.9590 C   0  0  0  0  0  0  0  0  0  0  0  0
   29.2671  -20.6702  -12.1501 C   0  0  1  0  0  0  0  0  0  0  0  0
   30.5554  -19.8925  -12.2800 C   0  0  0  0  0  0  0  0  0  0  0  0
   28.4622  -20.6795  -13.3821 C   0  0  0  0  0  0  0  0  0  0  0  0
   27.0435  -21.0883  -13.3743 C   0  0  2  0  0  0  0  0  0  0  0  0
   26.3213  -19.8721  -13.8858 N   0  0  0  0  0  0  0  0  0  0  0  0
   26.3786  -21.4094  -12.1273 C   0  0  0  0  0  0  0  0  0  0  0  0
   26.0592  -22.6402  -11.8925 O   0  0  0  0  0  0  0  0  0  0  0  0
   27.5767  -18.4092   -6.6621 C   0  0  0  0  0  0  0  0  0  0  0  0
   26.9195  -19.9927   -6.0892 S   0  0  0  0  0  0  0  0  0  0  0  0
   25.7902  -20.6340   -7.3275 C   0  0  0  0  0  0  0  0  0  0  0  0
   26.2347  -20.4634   -8.7198 C   0  0  0  0  0  0  0  0  0  0  0  0
   25.4005  -21.0267   -9.8307 C   0  0  2  0  0  0  0  0  0  0  0  0
   26.0188  -20.5224  -11.0707 N   0  0  0  0  0  0  0  0  0  0  0  0
   23.9716  -20.7952   -9.7728 C   0  0  0  0  0  0  0  0  0  0  0  0
   23.1138  -21.2675   -8.7900 O   0  0  0  0  0  0  0  0  0  0  0  0
   23.3895  -20.1106  -10.6764 O   0  0  0  0  0  0  0  0  0  0  0  0
  1  2  1  0
  2  3  1  0
  4  3  1  0
  4  5  1  0
  5  7  1  0
  5  6  1  6
  7  8  2  0
 10  9  1  6
 11 10  1  0
 13 12  1  1
 12 10  1  0
 14 13  1  0
 14  7  1  0
 15 16  2  0
 15 13  1  0
 17 18  1  0
 19 20  1  0
 19 18  1  0
 21 20  1  1
 21 22  1  0
 21 23  1  0
 22 15  1  0
 23 24  1  0
 25 23  2  0
M  END
$$$$
