MLM.pdb
     RDKit          3D

 25 24  0  0  1  0  0  0  0  0999 V2000
   20.7618  -16.7976  -19.4619 C   0  0  0  0  0  0  0  0  0  0  0  0
   22.2079  -16.5483  -20.5559 S   0  0  0  0  0  0  0  0  0  0  0  0
   23.6967  -16.9159  -19.6057 C   0  0  0  0  0  0  0  0  0  0  0  0
   24.0562  -15.6909  -18.7611 C   0  0  0  0  0  0  0  0  0  0  0  0
   24.7246  -14.7071  -19.7213 C   0  0  2  0  0  0  0  0  0  0  0  0
   25.8054  -15.4358  -20.3545 N   0  0  0  0  0  0  0  0  0  0  0  0
   25.3212  -13.5689  -18.9779 C   0  0  0  0  0  0  0  0  0  0  0  0
   24.6318  -12.8125  -18.2391 O   0  0  0  0  0  0  0  0  0  0  0  0
   30.3088  -14.2108  -17.0603 C   0  0  0  0  0  0  0  0  0  0  0  0
   28.7898  -13.8735  -17.0587 C   0  0  1  0  0  0  0  0  0  0  0  0
   28.4848  -13.5779  -15.6093 C   0  0  0  0  0  0  0  0  0  0  0  0
   28.6553  -12.6999  -17.9364 C   0  0  0  0  0  0  0  0  0  0  0  0
   27.3318  -12.1604  -18.3069 C   0  0  2  0  0  0  0  0  0  0  0  0
   26.6905  -13.2872  -19.0693 N   0  0  0  0  0  0  0  0  0  0  0  0
   27.2262  -11.0162  -19.1899 C   0  0  0  0  0  0  0  0  0  0  0  0
   27.6585   -9.8700  -18.7761 O   0  0  0  0  0  0  0  0  0  0  0  0
   28.7227   -7.6314  -25.8702 C   0  0  0  0  0  0  0  0  0  0  0  0
   28.6576   -9.1026  -24.8218 S   0  0  0  0  0  0  0  0  0  0  0  0
   27.5754   -8.7746  -23.4287 C   0  0  0  0  0  0  0  0  0  0  0  0
   27.4724   -9.8704  -22.4520 C   0  0  0  0  0  0  0  0  0  0  0  0
   26.5910   -9.7026  -21.2511 C   0  0  2  0  0  0  0  0  0  0  0  0
   26.6982  -10.9749  -20.5136 N   0  0  0  0  0  0  0  0  0  0  0  0
   25.2207   -9.2938  -21.4836 C   0  0  0  0  0  0  0  0  0  0  0  0
   24.0985  -10.0936  -21.3229 O   0  0  0  0  0  0  0  0  0  0  0  0
   24.9559   -8.1109  -21.8769 O   0  0  0  0  0  0  0  0  0  0  0  0
  1  2  1  0
  2  3  1  0
  4  3  1  0
  4  5  1  0
  5  7  1  0
  5  6  1  1
  7  8  2  0
 10  9  1  1
 11 10  1  0
 13 12  1  6
 12 10  1  0
 14 13  1  0
 14  7  1  0
 15 16  2  0
 15 13  1  0
 17 18  1  0
 19 20  1  0
 19 18  1  0
 21 20  1  6
 21 22  1  0
 21 23  1  0
 22 15  1  0
 23 24  1  0
 25 23  2  0
M  END
$$$$
