MLM.pdb
     RDKit          3D

 25 24  0  0  1  0  0  0  0  0999 V2000
   22.4212  -17.7596  -15.2597 C   0  0  0  0  0  0  0  0  0  0  0  0
   23.4537  -18.6659  -16.4691 S   0  0  0  0  0  0  0  0  0  0  0  0
   24.8908  -19.3203  -15.5968 C   0  0  0  0  0  0  0  0  0  0  0  0
   24.4187  -19.9890  -14.3034 C   0  0  0  0  0  0  0  0  0  0  0  0
   25.6853  -20.2646  -13.4931 C   0  0  2  0  0  0  0  0  0  0  0  0
   26.4130  -21.2851  -14.2205 N   0  0  0  0  0  0  0  0  0  0  0  0
   25.3460  -20.8166  -12.1573 C   0  0  0  0  0  0  0  0  0  0  0  0
   25.1119  -22.0435  -11.9760 O   0  0  0  0  0  0  0  0  0  0  0  0
   27.4810  -18.8443   -7.3509 C   0  0  0  0  0  0  0  0  0  0  0  0
   27.0620  -19.9821   -8.3261 C   0  0  1  0  0  0  0  0  0  0  0  0
   27.1294  -21.2303   -7.4784 C   0  0  0  0  0  0  0  0  0  0  0  0
   25.6966  -19.6383   -8.7543 C   0  0  0  0  0  0  0  0  0  0  0  0
   24.9302  -20.5119   -9.6651 C   0  0  2  0  0  0  0  0  0  0  0  0
   25.2716  -19.9853  -11.0320 N   0  0  0  0  0  0  0  0  0  0  0  0
   23.4814  -20.5197   -9.6289 C   0  0  0  0  0  0  0  0  0  0  0  0
   22.8371  -19.6691  -10.3592 O   0  0  0  0  0  0  0  0  0  0  0  0
   21.2699  -23.6584  -13.2635 C   0  0  0  0  0  0  0  0  0  0  0  0
   19.8774  -22.5370  -12.9965 S   0  0  0  0  0  0  0  0  0  0  0  0
   19.8151  -22.0931  -11.2590 C   0  0  0  0  0  0  0  0  0  0  0  0
   21.1227  -21.8214  -10.6411 C   0  0  0  0  0  0  0  0  0  0  0  0
   21.1884  -21.4794   -9.1830 C   0  0  2  0  0  0  0  0  0  0  0  0
   22.6270  -21.3771   -8.8757 N   0  0  0  0  0  0  0  0  0  0  0  0
   20.4704  -22.3397   -8.2648 C   0  0  0  0  0  0  0  0  0  0  0  0
   19.0947  -22.3662   -8.0875 O   0  0  0  0  0  0  0  0  0  0  0  0
   21.0996  -23.1626   -7.5225 O   0  0  0  0  0  0  0  0  0  0  0  0
  1  2  1  0
  2  3  1  0
  4  3  1  0
  4  5  1  0
  5  7  1  0
  5  6  1  6
  7  8  2  0
 10  9  1  1
 11 10  1  0
 13 12  1  1
 12 10  1  0
 14 13  1  0
 14  7  1  0
 15 16  2  0
 15 13  1  0
 17 18  1  0
 19 20  1  0
 19 18  1  0
 21 20  1  6
 21 22  1  0
 21 23  1  0
 22 15  1  0
 23 24  1  0
 25 23  2  0
M  END
$$$$
