MLM.pdb
     RDKit          3D

 25 24  0  0  1  0  0  0  0  0999 V2000
   20.2405  -18.6288  -14.6229 C   0  0  0  0  0  0  0  0  0  0  0  0
   20.7740  -17.1539  -15.5662 S   0  0  0  0  0  0  0  0  0  0  0  0
   22.3624  -17.5275  -16.3354 C   0  0  0  0  0  0  0  0  0  0  0  0
   22.8672  -18.8681  -15.7956 C   0  0  0  0  0  0  0  0  0  0  0  0
   24.2953  -19.0150  -16.3204 C   0  0  2  0  0  0  0  0  0  0  0  0
   24.1841  -19.1244  -17.7612 N   0  0  0  0  0  0  0  0  0  0  0  0
   24.9144  -20.2674  -15.8182 C   0  0  0  0  0  0  0  0  0  0  0  0
   24.4816  -21.4083  -16.1408 O   0  0  0  0  0  0  0  0  0  0  0  0
   30.1343  -20.2548  -13.6405 C   0  0  0  0  0  0  0  0  0  0  0  0
   28.6199  -19.9632  -13.8471 C   0  0  1  0  0  0  0  0  0  0  0  0
   28.6001  -18.8493  -14.8670 C   0  0  0  0  0  0  0  0  0  0  0  0
   28.0498  -21.2246  -14.3467 C   0  0  0  0  0  0  0  0  0  0  0  0
   26.5944  -21.4726  -14.3341 C   0  0  2  0  0  0  0  0  0  0  0  0
   26.0177  -20.2301  -14.9555 N   0  0  0  0  0  0  0  0  0  0  0  0
   25.8846  -21.6154  -13.0788 C   0  0  0  0  0  0  0  0  0  0  0  0
   25.9897  -22.7284  -12.4288 O   0  0  0  0  0  0  0  0  0  0  0  0
   27.3509  -20.5843   -7.4445 C   0  0  0  0  0  0  0  0  0  0  0  0
   25.8365  -19.5993   -7.5087 S   0  0  0  0  0  0  0  0  0  0  0  0
   24.7167  -20.3345   -8.7026 C   0  0  0  0  0  0  0  0  0  0  0  0
   25.2156  -20.3604  -10.0867 C   0  0  0  0  0  0  0  0  0  0  0  0
   24.3714  -20.9797  -11.1595 C   0  0  2  0  0  0  0  0  0  0  0  0
   25.0573  -20.6565  -12.4242 N   0  0  0  0  0  0  0  0  0  0  0  0
   22.9623  -20.6431  -11.1746 C   0  0  0  0  0  0  0  0  0  0  0  0
   22.0564  -20.9045  -10.1569 O   0  0  0  0  0  0  0  0  0  0  0  0
   22.4467  -20.0606  -12.1838 O   0  0  0  0  0  0  0  0  0  0  0  0
  1  2  1  0
  2  3  1  0
  4  3  1  0
  4  5  1  0
  5  7  1  0
  5  6  1  6
  7  8  2  0
 10  9  1  6
 11 10  1  0
 13 12  1  1
 12 10  1  0
 14 13  1  0
 14  7  1  0
 15 16  2  0
 15 13  1  0
 17 18  1  0
 19 20  1  0
 19 18  1  0
 21 20  1  1
 21 22  1  0
 21 23  1  0
 22 15  1  0
 23 24  1  0
 25 23  2  0
M  END
$$$$
