MLM.pdb
     RDKit          3D

 25 24  0  0  1  0  0  0  0  0999 V2000
   22.2750  -18.8118  -14.5215 C   0  0  0  0  0  0  0  0  0  0  0  0
   23.6417  -19.2049  -15.6737 S   0  0  0  0  0  0  0  0  0  0  0  0
   25.1152  -19.5546  -14.6935 C   0  0  0  0  0  0  0  0  0  0  0  0
   24.6911  -20.2563  -13.4008 C   0  0  0  0  0  0  0  0  0  0  0  0
   25.9679  -20.4101  -12.5746 C   0  0  2  0  0  0  0  0  0  0  0  0
   26.7787  -21.3910  -13.2676 N   0  0  0  0  0  0  0  0  0  0  0  0
   25.6604  -20.9490  -11.2259 C   0  0  0  0  0  0  0  0  0  0  0  0
   25.4522  -22.1774  -11.0236 O   0  0  0  0  0  0  0  0  0  0  0  0
   27.8707  -18.6329   -6.7667 C   0  0  0  0  0  0  0  0  0  0  0  0
   27.4822  -19.7094   -7.8209 C   0  0  1  0  0  0  0  0  0  0  0  0
   28.0823  -20.9842   -7.2767 C   0  0  0  0  0  0  0  0  0  0  0  0
   26.0107  -19.7164   -7.8394 C   0  0  0  0  0  0  0  0  0  0  0  0
   25.2541  -20.6127   -8.7361 C   0  0  2  0  0  0  0  0  0  0  0  0
   25.5885  -20.1033  -10.1112 N   0  0  0  0  0  0  0  0  0  0  0  0
   23.8056  -20.6370   -8.6987 C   0  0  0  0  0  0  0  0  0  0  0  0
   23.1513  -19.7746   -9.4060 O   0  0  0  0  0  0  0  0  0  0  0  0
   18.3151  -21.7248  -12.6823 C   0  0  0  0  0  0  0  0  0  0  0  0
   19.9985  -21.9874  -12.0783 S   0  0  0  0  0  0  0  0  0  0  0  0
   20.0401  -21.6576  -10.3150 C   0  0  0  0  0  0  0  0  0  0  0  0
   21.3696  -21.7699   -9.6943 C   0  0  0  0  0  0  0  0  0  0  0  0
   21.5084  -21.5680   -8.2154 C   0  0  2  0  0  0  0  0  0  0  0  0
   22.9612  -21.5228   -7.9673 N   0  0  0  0  0  0  0  0  0  0  0  0
   20.8121  -22.4971   -7.3489 C   0  0  0  0  0  0  0  0  0  0  0  0
   19.5173  -22.3468   -6.8741 O   0  0  0  0  0  0  0  0  0  0  0  0
   21.3858  -23.5618   -6.9472 O   0  0  0  0  0  0  0  0  0  0  0  0
  1  2  1  0
  2  3  1  0
  4  3  1  0
  4  5  1  0
  5  7  1  0
  5  6  1  6
  7  8  2  0
 10  9  1  1
 11 10  1  0
 13 12  1  1
 12 10  1  0
 14 13  1  0
 14  7  1  0
 15 16  2  0
 15 13  1  0
 17 18  1  0
 19 20  1  0
 19 18  1  0
 21 20  1  6
 21 22  1  0
 21 23  1  0
 22 15  1  0
 23 24  1  0
 25 23  2  0
M  END
$$$$
