MLM.pdb
     RDKit          3D

 25 24  0  0  1  0  0  0  0  0999 V2000
   24.2183  -12.5650  -16.6691 C   0  0  0  0  0  0  0  0  0  0  0  0
   23.2820  -13.0045  -18.1792 S   0  0  0  0  0  0  0  0  0  0  0  0
   21.5256  -13.0031  -17.7673 C   0  0  0  0  0  0  0  0  0  0  0  0
   21.1256  -11.5938  -17.3234 C   0  0  0  0  0  0  0  0  0  0  0  0
   19.6611  -11.6937  -16.8969 C   0  0  2  0  0  0  0  0  0  0  0  0
   18.8943  -11.8165  -18.1205 N   0  0  0  0  0  0  0  0  0  0  0  0
   19.2259  -10.4497  -16.2134 C   0  0  0  0  0  0  0  0  0  0  0  0
   18.7740   -9.4563  -16.8475 O   0  0  0  0  0  0  0  0  0  0  0  0
   16.2692   -8.2852  -12.3271 C   0  0  0  0  0  0  0  0  0  0  0  0
   17.6310   -8.8299  -11.8074 C   0  0  1  0  0  0  0  0  0  0  0  0
   17.2638   -9.5920  -10.5561 C   0  0  0  0  0  0  0  0  0  0  0  0
   18.1393   -9.6895  -12.8883 C   0  0  0  0  0  0  0  0  0  0  0  0
   18.7849   -9.1207  -14.0882 C   0  0  2  0  0  0  0  0  0  0  0  0
   19.3012  -10.3294  -14.8196 N   0  0  0  0  0  0  0  0  0  0  0  0
   19.9380   -8.2524  -13.9597 C   0  0  0  0  0  0  0  0  0  0  0  0
   21.0679   -8.7690  -13.6013 O   0  0  0  0  0  0  0  0  0  0  0  0
   25.5195   -4.7353  -17.2166 C   0  0  0  0  0  0  0  0  0  0  0  0
   23.9637   -5.6543  -17.1662 S   0  0  0  0  0  0  0  0  0  0  0  0
   23.2341   -5.4709  -15.5371 C   0  0  0  0  0  0  0  0  0  0  0  0
   21.9533   -6.1704  -15.3489 C   0  0  0  0  0  0  0  0  0  0  0  0
   21.2731   -6.1095  -14.0144 C   0  0  2  0  0  0  0  0  0  0  0  0
   20.0091   -6.8476  -14.1921 N   0  0  0  0  0  0  0  0  0  0  0  0
   21.0890   -4.8009  -13.4207 C   0  0  0  0  0  0  0  0  0  0  0  0
   19.9140   -4.0633  -13.4345 O   0  0  0  0  0  0  0  0  0  0  0  0
   22.0532   -4.2193  -12.8240 O   0  0  0  0  0  0  0  0  0  0  0  0
  1  2  1  0
  2  3  1  0
  4  3  1  0
  4  5  1  0
  5  7  1  0
  5  6  1  6
  7  8  2  0
 10  9  1  6
 11 10  1  0
 13 12  1  1
 12 10  1  0
 14 13  1  0
 14  7  1  0
 15 16  2  0
 15 13  1  0
 17 18  1  0
 19 20  1  0
 19 18  1  0
 21 20  1  6
 21 22  1  0
 21 23  1  0
 22 15  1  0
 23 24  1  0
 25 23  2  0
M  END
$$$$
