MLM.pdb
     RDKit          3D

 25 24  0  0  1  0  0  0  0  0999 V2000
   19.0432  -24.3324  -15.5762 C   0  0  0  0  0  0  0  0  0  0  0  0
   17.6524  -23.1483  -15.6941 S   0  0  0  0  0  0  0  0  0  0  0  0
   18.0784  -21.6884  -14.7238 C   0  0  0  0  0  0  0  0  0  0  0  0
   19.5844  -21.4413  -14.8420 C   0  0  0  0  0  0  0  0  0  0  0  0
   19.8871  -20.2706  -13.9069 C   0  0  2  0  0  0  0  0  0  0  0  0
   19.1603  -19.1348  -14.4377 N   0  0  0  0  0  0  0  0  0  0  0  0
   21.3331  -19.9352  -13.9344 C   0  0  0  0  0  0  0  0  0  0  0  0
   21.8003  -19.0327  -14.6829 O   0  0  0  0  0  0  0  0  0  0  0  0
   26.4446  -20.0100  -11.6736 C   0  0  0  0  0  0  0  0  0  0  0  0
   25.5726  -21.2985  -11.6455 C   0  0  1  0  0  0  0  0  0  0  0  0
   25.8337  -21.8842  -10.2780 C   0  0  0  0  0  0  0  0  0  0  0  0
   24.1892  -20.8308  -11.8277 C   0  0  0  0  0  0  0  0  0  0  0  0
   23.7171  -20.3019  -13.1228 C   0  0  2  0  0  0  0  0  0  0  0  0
   22.2464  -20.6168  -13.1196 N   0  0  0  0  0  0  0  0  0  0  0  0
   24.2069  -20.8611  -14.3668 C   0  0  0  0  0  0  0  0  0  0  0  0
   23.8209  -22.0467  -14.7096 O   0  0  0  0  0  0  0  0  0  0  0  0
   21.0865  -22.5958  -17.8006 C   0  0  0  0  0  0  0  0  0  0  0  0
   21.9695  -21.6743  -19.0807 S   0  0  0  0  0  0  0  0  0  0  0  0
   23.6800  -21.4750  -18.5764 C   0  0  0  0  0  0  0  0  0  0  0  0
   23.8684  -21.0044  -17.1949 C   0  0  0  0  0  0  0  0  0  0  0  0
   25.2588  -20.8296  -16.6625 C   0  0  2  0  0  0  0  0  0  0  0  0
   25.0860  -20.2589  -15.3139 N   0  0  0  0  0  0  0  0  0  0  0  0
   26.1952  -20.0850  -17.4795 C   0  0  0  0  0  0  0  0  0  0  0  0
   27.0654  -20.6284  -18.4135 O   0  0  0  0  0  0  0  0  0  0  0  0
   26.2805  -18.8178  -17.3749 O   0  0  0  0  0  0  0  0  0  0  0  0
  1  2  1  0
  2  3  1  0
  4  3  1  0
  4  5  1  0
  5  7  1  0
  5  6  1  6
  7  8  2  0
 10  9  1  1
 11 10  1  0
 13 12  1  1
 12 10  1  0
 14 13  1  0
 14  7  1  0
 15 16  2  0
 15 13  1  0
 17 18  1  0
 19 20  1  0
 19 18  1  0
 21 20  1  6
 21 22  1  0
 21 23  1  0
 22 15  1  0
 23 24  1  0
 25 23  2  0
M  END
$$$$
