MLM.pdb
     RDKit          3D

 25 24  0  0  1  0  0  0  0  0999 V2000
   25.2333  -17.6882  -16.7336 C   0  0  0  0  0  0  0  0  0  0  0  0
   26.8169  -17.0104  -16.1147 S   0  0  0  0  0  0  0  0  0  0  0  0
   27.7044  -18.3398  -15.2783 C   0  0  0  0  0  0  0  0  0  0  0  0
   26.7450  -19.0404  -14.3129 C   0  0  0  0  0  0  0  0  0  0  0  0
   27.5922  -20.0634  -13.5563 C   0  0  2  0  0  0  0  0  0  0  0  0
   27.8551  -21.1379  -14.4926 N   0  0  0  0  0  0  0  0  0  0  0  0
   26.8336  -20.6338  -12.4147 C   0  0  0  0  0  0  0  0  0  0  0  0
   26.2895  -21.7714  -12.4697 O   0  0  0  0  0  0  0  0  0  0  0  0
   26.8405  -21.4339   -7.1085 C   0  0  0  0  0  0  0  0  0  0  0  0
   26.1777  -20.0802   -7.4950 C   0  0  1  0  0  0  0  0  0  0  0  0
   26.7429  -19.1001   -6.4944 C   0  0  0  0  0  0  0  0  0  0  0  0
   26.6107  -19.8207   -8.8774 C   0  0  0  0  0  0  0  0  0  0  0  0
   25.9669  -20.4881  -10.0263 C   0  0  2  0  0  0  0  0  0  0  0  0
   26.6909  -19.9216  -11.2167 N   0  0  0  0  0  0  0  0  0  0  0  0
   24.5639  -20.2655  -10.3132 C   0  0  0  0  0  0  0  0  0  0  0  0
   23.6789  -20.7845   -9.5261 O   0  0  0  0  0  0  0  0  0  0  0  0
   24.1399  -22.5840  -15.3977 C   0  0  0  0  0  0  0  0  0  0  0  0
   22.4368  -21.9951  -15.5412 S   0  0  0  0  0  0  0  0  0  0  0  0
   21.9395  -21.2718  -13.9761 C   0  0  0  0  0  0  0  0  0  0  0  0
   23.0070  -20.5615  -13.2542 C   0  0  0  0  0  0  0  0  0  0  0  0
   22.6877  -19.8783  -11.9586 C   0  0  2  0  0  0  0  0  0  0  0  0
   23.9953  -19.5138  -11.3827 N   0  0  0  0  0  0  0  0  0  0  0  0
   21.8330  -20.5854  -11.0267 C   0  0  0  0  0  0  0  0  0  0  0  0
   20.4927  -20.3149  -10.7917 O   0  0  0  0  0  0  0  0  0  0  0  0
   22.2932  -21.5458  -10.3269 O   0  0  0  0  0  0  0  0  0  0  0  0
  1  2  1  0
  2  3  1  0
  4  3  1  0
  4  5  1  0
  5  7  1  0
  5  6  1  6
  7  8  2  0
 10  9  1  1
 11 10  1  0
 13 12  1  1
 12 10  1  0
 14 13  1  0
 14  7  1  0
 15 16  2  0
 15 13  1  0
 17 18  1  0
 19 20  1  0
 19 18  1  0
 21 20  1  6
 21 22  1  0
 21 23  1  0
 22 15  1  0
 23 24  1  0
 25 23  2  0
M  END
$$$$
