MLM.pdb
     RDKit          3D

 25 24  0  0  1  0  0  0  0  0999 V2000
   27.7152  -19.6108  -15.7685 C   0  0  0  0  0  0  0  0  0  0  0  0
   26.1107  -18.7877  -16.0816 S   0  0  0  0  0  0  0  0  0  0  0  0
   25.0340  -19.1080  -14.6700 C   0  0  0  0  0  0  0  0  0  0  0  0
   25.8742  -19.6974  -13.5343 C   0  0  0  0  0  0  0  0  0  0  0  0
   24.8925  -19.9843  -12.3983 C   0  0  2  0  0  0  0  0  0  0  0  0
   24.3370  -18.7021  -12.0144 N   0  0  0  0  0  0  0  0  0  0  0  0
   25.6008  -20.5418  -11.2186 C   0  0  0  0  0  0  0  0  0  0  0  0
   26.2425  -21.6275  -11.2702 O   0  0  0  0  0  0  0  0  0  0  0  0
   28.4966  -17.8954   -7.2613 C   0  0  0  0  0  0  0  0  0  0  0  0
   28.1941  -19.0815   -8.2219 C   0  0  1  0  0  0  0  0  0  0  0  0
   29.1106  -20.1815   -7.7408 C   0  0  0  0  0  0  0  0  0  0  0  0
   26.7667  -19.3812   -8.0255 C   0  0  0  0  0  0  0  0  0  0  0  0
   26.1100  -20.5032   -8.7254 C   0  0  2  0  0  0  0  0  0  0  0  0
   25.5837  -19.8750   -9.9866 N   0  0  0  0  0  0  0  0  0  0  0  0
   24.9601  -21.1622   -8.1391 C   0  0  0  0  0  0  0  0  0  0  0  0
   25.1183  -22.3287   -7.6042 O   0  0  0  0  0  0  0  0  0  0  0  0
   23.2575  -21.3897   -2.5306 C   0  0  0  0  0  0  0  0  0  0  0  0
   21.7715  -20.7225   -3.3144 S   0  0  0  0  0  0  0  0  0  0  0  0
   21.6226  -21.4180   -4.9619 C   0  0  0  0  0  0  0  0  0  0  0  0
   22.5704  -20.8793   -5.9503 C   0  0  0  0  0  0  0  0  0  0  0  0
   22.5812  -21.4428   -7.3394 C   0  0  2  0  0  0  0  0  0  0  0  0
   23.6206  -20.6811   -8.0561 N   0  0  0  0  0  0  0  0  0  0  0  0
   21.3187  -21.4884   -8.0486 C   0  0  0  0  0  0  0  0  0  0  0  0
   21.0752  -20.9505   -9.3041 O   0  0  0  0  0  0  0  0  0  0  0  0
   20.3025  -22.0521   -7.5258 O   0  0  0  0  0  0  0  0  0  0  0  0
  1  2  1  0
  2  3  1  0
  4  3  1  0
  4  5  1  0
  5  7  1  0
  5  6  1  1
  7  8  2  0
 10  9  1  1
 11 10  1  0
 13 12  1  1
 12 10  1  0
 14 13  1  0
 14  7  1  0
 15 16  2  0
 15 13  1  0
 17 18  1  0
 19 20  1  0
 19 18  1  0
 21 20  1  1
 21 22  1  0
 21 23  1  0
 22 15  1  0
 23 24  1  0
 25 23  2  0
M  END
$$$$
