MLM.pdb
     RDKit          3D

 25 24  0  0  1  0  0  0  0  0999 V2000
   20.1090  -19.0286  -12.6756 C   0  0  0  0  0  0  0  0  0  0  0  0
   20.1946  -17.7700  -14.0018 S   0  0  0  0  0  0  0  0  0  0  0  0
   21.7167  -18.0411  -14.9313 C   0  0  0  0  0  0  0  0  0  0  0  0
   22.5188  -19.1519  -14.2487 C   0  0  0  0  0  0  0  0  0  0  0  0
   23.8910  -19.1461  -14.9222 C   0  0  2  0  0  0  0  0  0  0  0  0
   23.6619  -19.5210  -16.3032 N   0  0  0  0  0  0  0  0  0  0  0  0
   24.7788  -20.1705  -14.3169 C   0  0  0  0  0  0  0  0  0  0  0  0
   24.5858  -21.4076  -14.4770 O   0  0  0  0  0  0  0  0  0  0  0  0
   29.7189  -20.2422  -15.2464 C   0  0  0  0  0  0  0  0  0  0  0  0
   28.2174  -20.5553  -14.9850 C   0  0  1  0  0  0  0  0  0  0  0  0
   28.0056  -21.8969  -15.6458 C   0  0  0  0  0  0  0  0  0  0  0  0
   28.0823  -20.5965  -13.5201 C   0  0  0  0  0  0  0  0  0  0  0  0
   26.7733  -20.8101  -12.8712 C   0  0  2  0  0  0  0  0  0  0  0  0
   25.8796  -19.7982  -13.5342 N   0  0  0  0  0  0  0  0  0  0  0  0
   26.6090  -20.5671  -11.4520 C   0  0  0  0  0  0  0  0  0  0  0  0
   27.6540  -20.2845  -10.7449 O   0  0  0  0  0  0  0  0  0  0  0  0
   29.1949  -19.6220   -6.9797 C   0  0  0  0  0  0  0  0  0  0  0  0
   27.5716  -19.1677   -6.3269 S   0  0  0  0  0  0  0  0  0  0  0  0
   26.3263  -20.2067   -7.0947 C   0  0  0  0  0  0  0  0  0  0  0  0
   26.3695  -20.2428   -8.5651 C   0  0  0  0  0  0  0  0  0  0  0  0
   25.3837  -21.0938   -9.3075 C   0  0  2  0  0  0  0  0  0  0  0  0
   25.4029  -20.5870  -10.6921 N   0  0  0  0  0  0  0  0  0  0  0  0
   24.0471  -21.1967   -8.7580 C   0  0  0  0  0  0  0  0  0  0  0  0
   22.8702  -20.8997   -9.4298 O   0  0  0  0  0  0  0  0  0  0  0  0
   23.8691  -21.5822   -7.5565 O   0  0  0  0  0  0  0  0  0  0  0  0
  1  2  1  0
  2  3  1  0
  4  3  1  0
  4  5  1  0
  5  7  1  0
  5  6  1  6
  7  8  2  0
 10  9  1  1
 11 10  1  0
 13 12  1  6
 12 10  1  0
 14 13  1  0
 14  7  1  0
 15 16  2  0
 15 13  1  0
 17 18  1  0
 19 20  1  0
 19 18  1  0
 21 20  1  1
 21 22  1  0
 21 23  1  0
 22 15  1  0
 23 24  1  0
 25 23  2  0
M  END
$$$$
