APH.pdb
     RDKit          3D

 23 24  0  0  1  0  0  0  0  0999 V2000
   14.7772  -22.2171   -2.9149 C   0  0  0  0  0  0  0  0  0  0  0  0
   13.6688  -22.9883   -2.2116 C   0  0  2  0  0  0  0  0  0  0  0  0
   12.5483  -23.0301   -3.0886 N   0  0  0  0  0  0  0  0  0  0  0  0
   13.3716  -22.4437   -0.8866 C   0  0  0  0  0  0  0  0  0  0  0  0
   12.3339  -21.7296   -0.7826 O   0  0  0  0  0  0  0  0  0  0  0  0
   14.1693  -22.6801    0.2221 N   0  0  0  0  0  0  0  0  0  0  0  0
   15.3649  -23.5448    0.2074 C   0  0  0  0  0  0  0  0  0  0  0  0
   15.2676  -24.1638    1.6116 C   0  0  0  0  0  0  0  0  0  0  0  0
   15.0885  -22.8653    2.4107 C   0  0  0  0  0  0  0  0  0  0  0  0
   14.0202  -22.1670    1.5499 C   0  0  1  0  0  0  0  0  0  0  0  0
   14.4054  -20.7110    1.6271 C   0  0  0  0  0  0  0  0  0  0  0  0
   15.3833  -20.2487    0.9850 O   0  0  0  0  0  0  0  0  0  0  0  0
   13.6790  -19.7989    2.4292 N   0  0  0  0  0  0  0  0  0  0  0  0
   14.0055  -18.3954    2.5632 C   0  0  1  0  0  0  0  0  0  0  0  0
   12.6850  -17.6683    2.6762 C   0  0  0  0  0  0  0  0  0  0  0  0
   11.8441  -17.7408    1.4824 C   0  0  0  0  0  0  0  0  0  0  0  0
   11.9467  -17.0609    0.2893 C   0  0  0  0  0  0  0  0  0  0  0  0
   10.9321  -17.4529   -0.5275 N   0  0  0  0  0  0  0  0  0  0  0  0
   10.2065  -18.3631    0.1435 C   0  0  0  0  0  0  0  0  0  0  0  0
   10.7550  -18.5341    1.3480 N   0  0  0  0  0  0  0  0  0  0  0  0
   14.8039  -18.1021    3.7532 C   0  0  0  0  0  0  0  0  0  0  0  0
   15.1986  -19.0356    4.6883 O   0  0  0  0  0  0  0  0  0  0  0  0
   15.1621  -16.9037    3.9450 O   0  0  0  0  0  0  0  0  0  0  0  0
  2  3  1  0
  2  1  1  6
  4  2  1  0
  5  4  2  0
  6  4  1  0
  7  6  1  0
  8  7  1  0
  9  8  1  0
  9 10  1  0
 10 11  1  6
 10  6  1  0
 11 13  1  0
 12 11  2  0
 13 14  1  0
 14 15  1  1
 14 21  1  0
 16 15  1  0
 17 16  2  0
 18 17  1  0
 19 18  1  0
 19 20  2  0
 20 16  1  0
 21 23  2  0
 21 22  1  0
M  END
$$$$
