APH.pdb
     RDKit          3D

 23 24  0  0  1  0  0  0  0  0999 V2000
   25.6742  -15.6834  -15.6676 C   0  0  0  0  0  0  0  0  0  0  0  0
   25.8279  -16.9323  -16.5246 C   0  0  2  0  0  0  0  0  0  0  0  0
   24.8089  -16.9023  -17.5181 N   0  0  0  0  0  0  0  0  0  0  0  0
   25.8444  -18.1550  -15.7212 C   0  0  0  0  0  0  0  0  0  0  0  0
   24.7293  -18.7066  -15.4981 O   0  0  0  0  0  0  0  0  0  0  0  0
   27.0098  -18.7081  -15.2138 N   0  0  0  0  0  0  0  0  0  0  0  0
   28.3603  -18.1837  -15.4936 C   0  0  0  0  0  0  0  0  0  0  0  0
   29.1547  -19.4991  -15.5482 C   0  0  0  0  0  0  0  0  0  0  0  0
   28.6655  -20.1048  -14.2252 C   0  0  0  0  0  0  0  0  0  0  0  0
   27.1539  -19.8438  -14.3547 C   0  0  1  0  0  0  0  0  0  0  0  0
   26.7311  -19.5266  -12.9424 C   0  0  0  0  0  0  0  0  0  0  0  0
   26.8998  -18.3857  -12.4399 O   0  0  0  0  0  0  0  0  0  0  0  0
   26.1237  -20.5040  -12.1186 N   0  0  0  0  0  0  0  0  0  0  0  0
   25.7035  -20.2696  -10.7537 C   0  0  1  0  0  0  0  0  0  0  0  0
   24.4220  -19.4725  -10.8424 C   0  0  0  0  0  0  0  0  0  0  0  0
   23.3569  -20.1129  -11.6124 C   0  0  0  0  0  0  0  0  0  0  0  0
   23.3514  -21.3203  -12.2745 C   0  0  0  0  0  0  0  0  0  0  0  0
   22.1347  -21.4956  -12.8571 N   0  0  0  0  0  0  0  0  0  0  0  0
   21.3912  -20.4154  -12.5644 C   0  0  0  0  0  0  0  0  0  0  0  0
   22.1257  -19.5880  -11.8183 N   0  0  0  0  0  0  0  0  0  0  0  0
   25.4364  -21.5033  -10.0147 C   0  0  0  0  0  0  0  0  0  0  0  0
   25.5041  -22.7731  -10.5482 O   0  0  0  0  0  0  0  0  0  0  0  0
   25.1184  -21.4048   -8.7938 O   0  0  0  0  0  0  0  0  0  0  0  0
  2  3  1  0
  2  1  1  1
  4  2  1  0
  5  4  2  0
  6  4  1  0
  7  6  1  0
  8  7  1  0
  9  8  1  0
  9 10  1  0
 10 11  1  1
 10  6  1  0
 11 13  1  0
 12 11  2  0
 13 14  1  0
 14 15  1  6
 14 21  1  0
 16 15  1  0
 17 16  2  0
 18 17  1  0
 19 18  1  0
 19 20  2  0
 20 16  1  0
 21 23  2  0
 21 22  1  0
M  END
$$$$
