APH.pdb
     RDKit          3D

 23 24  0  0  1  0  0  0  0  0999 V2000
   14.7097  -16.6515    3.5222 C   0  0  0  0  0  0  0  0  0  0  0  0
   16.1079  -16.7854    2.9347 C   0  0  2  0  0  0  0  0  0  0  0  0
   16.2021  -18.0722    2.3334 N   0  0  0  0  0  0  0  0  0  0  0  0
   17.1511  -16.5087    3.9226 C   0  0  0  0  0  0  0  0  0  0  0  0
   17.7986  -17.5012    4.3622 O   0  0  0  0  0  0  0  0  0  0  0  0
   17.4406  -15.2311    4.3759 N   0  0  0  0  0  0  0  0  0  0  0  0
   16.6996  -14.0233    3.9639 C   0  0  0  0  0  0  0  0  0  0  0  0
   17.8470  -13.0001    3.9335 C   0  0  0  0  0  0  0  0  0  0  0  0
   18.4301  -13.2845    5.3248 C   0  0  0  0  0  0  0  0  0  0  0  0
   18.4619  -14.8232    5.2918 C   0  0  1  0  0  0  0  0  0  0  0  0
   18.1215  -15.2109    6.7088 C   0  0  0  0  0  0  0  0  0  0  0  0
   16.9341  -15.2319    7.1237 O   0  0  0  0  0  0  0  0  0  0  0  0
   19.1287  -15.5693    7.6362 N   0  0  0  0  0  0  0  0  0  0  0  0
   18.8699  -15.9746    9.0012 C   0  0  1  0  0  0  0  0  0  0  0  0
   18.4825  -17.4344    8.9370 C   0  0  0  0  0  0  0  0  0  0  0  0
   19.5430  -18.3277    8.4737 C   0  0  0  0  0  0  0  0  0  0  0  0
   19.7597  -18.8653    7.2246 C   0  0  0  0  0  0  0  0  0  0  0  0
   20.8725  -19.6464    7.2702 N   0  0  0  0  0  0  0  0  0  0  0  0
   21.3443  -19.5983    8.5273 C   0  0  0  0  0  0  0  0  0  0  0  0
   20.5459  -18.8074    9.2469 N   0  0  0  0  0  0  0  0  0  0  0  0
   20.0371  -15.8387    9.8722 C   0  0  0  0  0  0  0  0  0  0  0  0
   20.0215  -15.9934   11.2424 O   0  0  0  0  0  0  0  0  0  0  0  0
   21.1475  -15.5576    9.3342 O   0  0  0  0  0  0  0  0  0  0  0  0
  2  3  1  0
  2  1  1  1
  4  2  1  0
  5  4  2  0
  6  4  1  0
  7  6  1  0
  8  7  1  0
  9  8  1  0
  9 10  1  0
 10 11  1  1
 10  6  1  0
 11 13  1  0
 12 11  2  0
 13 14  1  0
 14 15  1  6
 14 21  1  0
 16 15  1  0
 17 16  2  0
 18 17  1  0
 19 18  1  0
 19 20  2  0
 20 16  1  0
 21 23  2  0
 21 22  1  0
M  END
$$$$
