APH.pdb
     RDKit          3D

 23 24  0  0  1  0  0  0  0  0999 V2000
   25.9472  -19.1857  -19.6938 C   0  0  0  0  0  0  0  0  0  0  0  0
   27.2811  -19.0466  -18.9732 C   0  0  2  0  0  0  0  0  0  0  0  0
   28.1673  -20.0209  -19.5132 N   0  0  0  0  0  0  0  0  0  0  0  0
   27.1331  -19.1130  -17.5191 C   0  0  0  0  0  0  0  0  0  0  0  0
   27.3541  -20.2315  -16.9733 O   0  0  0  0  0  0  0  0  0  0  0  0
   26.7689  -18.0206  -16.7475 N   0  0  0  0  0  0  0  0  0  0  0  0
   26.4881  -16.6805  -17.2976 C   0  0  0  0  0  0  0  0  0  0  0  0
   27.0521  -15.8017  -16.1689 C   0  0  0  0  0  0  0  0  0  0  0  0
   26.3353  -16.4742  -14.9897 C   0  0  0  0  0  0  0  0  0  0  0  0
   26.5933  -17.9536  -15.3286 C   0  0  1  0  0  0  0  0  0  0  0  0
   25.3219  -18.6389  -14.8953 C   0  0  0  0  0  0  0  0  0  0  0  0
   24.3036  -18.6757  -15.6331 O   0  0  0  0  0  0  0  0  0  0  0  0
   25.2202  -19.2728  -13.6341 N   0  0  0  0  0  0  0  0  0  0  0  0
   24.0396  -19.9665  -13.1657 C   0  0  1  0  0  0  0  0  0  0  0  0
   24.2849  -20.2690  -11.7050 C   0  0  0  0  0  0  0  0  0  0  0  0
   23.1572  -20.8904  -11.0125 C   0  0  0  0  0  0  0  0  0  0  0  0
   21.9016  -21.2074  -11.4806 C   0  0  0  0  0  0  0  0  0  0  0  0
   21.1852  -21.7686  -10.4695 N   0  0  0  0  0  0  0  0  0  0  0  0
   21.9796  -21.8020   -9.3865 C   0  0  0  0  0  0  0  0  0  0  0  0
   23.1611  -21.2752   -9.7142 N   0  0  0  0  0  0  0  0  0  0  0  0
   22.8202  -19.1668  -13.2790 C   0  0  0  0  0  0  0  0  0  0  0  0
   21.5817  -19.6617  -13.6294 O   0  0  0  0  0  0  0  0  0  0  0  0
   22.9012  -17.9269  -13.0394 O   0  0  0  0  0  0  0  0  0  0  0  0
  2  3  1  0
  2  1  1  6
  4  2  1  0
  5  4  2  0
  6  4  1  0
  7  6  1  0
  8  7  1  0
  9  8  1  0
  9 10  1  0
 10 11  1  6
 10  6  1  0
 11 13  1  0
 12 11  2  0
 13 14  1  0
 14 15  1  1
 14 21  1  0
 16 15  1  0
 17 16  2  0
 18 17  1  0
 19 18  1  0
 19 20  2  0
 20 16  1  0
 21 23  2  0
 21 22  1  0
M  END
$$$$
