APH.pdb
     RDKit          3D

 23 24  0  0  1  0  0  0  0  0999 V2000
   17.6131   -2.6502  -13.7364 C   0  0  0  0  0  0  0  0  0  0  0  0
   18.8145   -2.2525  -14.5827 C   0  0  2  0  0  0  0  0  0  0  0  0
   18.4368   -1.1257  -15.3662 N   0  0  0  0  0  0  0  0  0  0  0  0
   19.3372   -3.3751  -15.3621 C   0  0  0  0  0  0  0  0  0  0  0  0
   18.8463   -3.5480  -16.5139 O   0  0  0  0  0  0  0  0  0  0  0  0
   20.3231   -4.2271  -14.8893 N   0  0  0  0  0  0  0  0  0  0  0  0
   20.9501   -4.1036  -13.5593 C   0  0  0  0  0  0  0  0  0  0  0  0
   22.3863   -4.5369  -13.8967 C   0  0  0  0  0  0  0  0  0  0  0  0
   22.0534   -5.8425  -14.6325 C   0  0  0  0  0  0  0  0  0  0  0  0
   20.9165   -5.3513  -15.5469 C   0  0  1  0  0  0  0  0  0  0  0  0
   19.9727   -6.5265  -15.5941 C   0  0  0  0  0  0  0  0  0  0  0  0
   19.1765   -6.7759  -14.6527 O   0  0  0  0  0  0  0  0  0  0  0  0
   19.9430   -7.4026  -16.7051 N   0  0  0  0  0  0  0  0  0  0  0  0
   19.0556   -8.5401  -16.8199 C   0  0  1  0  0  0  0  0  0  0  0  0
   18.9694   -8.8554  -18.2959 C   0  0  0  0  0  0  0  0  0  0  0  0
   18.0462   -9.9367  -18.6363 C   0  0  0  0  0  0  0  0  0  0  0  0
   17.8698  -11.1655  -18.0405 C   0  0  0  0  0  0  0  0  0  0  0  0
   16.8967  -11.8414  -18.7088 N   0  0  0  0  0  0  0  0  0  0  0  0
   16.4714  -11.0484  -19.7065 C   0  0  0  0  0  0  0  0  0  0  0  0
   17.1617   -9.9073  -19.6612 N   0  0  0  0  0  0  0  0  0  0  0  0
   19.5462   -9.7251  -16.1167 C   0  0  0  0  0  0  0  0  0  0  0  0
   18.7458  -10.6783  -15.5232 O   0  0  0  0  0  0  0  0  0  0  0  0
   20.7982   -9.8938  -16.0435 O   0  0  0  0  0  0  0  0  0  0  0  0
  2  3  1  0
  2  1  1  6
  4  2  1  0
  5  4  2  0
  6  4  1  0
  7  6  1  0
  8  7  1  0
  9  8  1  0
  9 10  1  0
 10 11  1  1
 10  6  1  0
 11 13  1  0
 12 11  2  0
 13 14  1  0
 14 15  1  6
 14 21  1  0
 16 15  1  0
 17 16  2  0
 18 17  1  0
 19 18  1  0
 19 20  2  0
 20 16  1  0
 21 23  2  0
 21 22  1  0
M  END
$$$$
