APH.pdb
     RDKit          3D

 23 24  0  0  1  0  0  0  0  0999 V2000
   34.3212  -33.8200  -15.4830 C   0  0  0  0  0  0  0  0  0  0  0  0
   34.3035  -32.5341  -16.2978 C   0  0  2  0  0  0  0  0  0  0  0  0
   34.2745  -31.4437  -15.3833 N   0  0  0  0  0  0  0  0  0  0  0  0
   33.2210  -32.5185  -17.2821 C   0  0  0  0  0  0  0  0  0  0  0  0
   32.2047  -31.8213  -17.0018 O   0  0  0  0  0  0  0  0  0  0  0  0
   33.2757  -33.2235  -18.4743 N   0  0  0  0  0  0  0  0  0  0  0  0
   34.4181  -34.0633  -18.8830 C   0  0  0  0  0  0  0  0  0  0  0  0
   34.4136  -33.8059  -20.3990 C   0  0  0  0  0  0  0  0  0  0  0  0
   32.9286  -34.0909  -20.6644 C   0  0  0  0  0  0  0  0  0  0  0  0
   32.2931  -33.2910  -19.5128 C   0  0  1  0  0  0  0  0  0  0  0  0
   31.1149  -34.1397  -19.1056 C   0  0  0  0  0  0  0  0  0  0  0  0
   31.2385  -35.1109  -18.3157 O   0  0  0  0  0  0  0  0  0  0  0  0
   29.8140  -33.8779  -19.5976 N   0  0  0  0  0  0  0  0  0  0  0  0
   28.6443  -34.6602  -19.2594 C   0  0  1  0  0  0  0  0  0  0  0  0
   27.6133  -33.6745  -18.7587 C   0  0  0  0  0  0  0  0  0  0  0  0
   27.9651  -33.0060  -17.5070 C   0  0  0  0  0  0  0  0  0  0  0  0
   28.2925  -31.6892  -17.2726 C   0  0  0  0  0  0  0  0  0  0  0  0
   28.5508  -31.5307  -15.9465 N   0  0  0  0  0  0  0  0  0  0  0  0
   28.3877  -32.7289  -15.3608 C   0  0  0  0  0  0  0  0  0  0  0  0
   28.0368  -33.6116  -16.2979 N   0  0  0  0  0  0  0  0  0  0  0  0
   28.0851  -35.3814  -20.4024 C   0  0  0  0  0  0  0  0  0  0  0  0
   27.2864  -36.5022  -20.3142 O   0  0  0  0  0  0  0  0  0  0  0  0
   28.3507  -34.9500  -21.5620 O   0  0  0  0  0  0  0  0  0  0  0  0
  2  3  1  0
  2  1  1  1
  4  2  1  0
  5  4  2  0
  6  4  1  0
  7  6  1  0
  8  7  1  0
  9  8  1  0
  9 10  1  0
 10 11  1  1
 10  6  1  0
 11 13  1  0
 12 11  2  0
 13 14  1  0
 14 15  1  6
 14 21  1  0
 16 15  1  0
 17 16  2  0
 18 17  1  0
 19 18  1  0
 19 20  2  0
 20 16  1  0
 21 23  2  0
 21 22  1  0
M  END
$$$$
