APH.pdb
     RDKit          3D

 23 24  0  0  1  0  0  0  0  0999 V2000
   27.8655  -18.8006  -14.6385 C   0  0  0  0  0  0  0  0  0  0  0  0
   27.9658  -20.2857  -14.3188 C   0  0  2  0  0  0  0  0  0  0  0  0
   28.6250  -20.9188  -15.4101 N   0  0  0  0  0  0  0  0  0  0  0  0
   26.6656  -20.8682  -13.9859 C   0  0  0  0  0  0  0  0  0  0  0  0
   26.1006  -21.5545  -14.8844 O   0  0  0  0  0  0  0  0  0  0  0  0
   26.0550  -20.6949  -12.7536 N   0  0  0  0  0  0  0  0  0  0  0  0
   26.6248  -19.8869  -11.6583 C   0  0  0  0  0  0  0  0  0  0  0  0
   26.1727  -20.7180  -10.4462 C   0  0  0  0  0  0  0  0  0  0  0  0
   24.6869  -20.8452  -10.8106 C   0  0  0  0  0  0  0  0  0  0  0  0
   24.8081  -21.2288  -12.2966 C   0  0  1  0  0  0  0  0  0  0  0  0
   23.6374  -20.5257  -12.9362 C   0  0  0  0  0  0  0  0  0  0  0  0
   23.5941  -19.2732  -13.0441 O   0  0  0  0  0  0  0  0  0  0  0  0
   22.5324  -21.2493  -13.4447 N   0  0  0  0  0  0  0  0  0  0  0  0
   21.3897  -20.6402  -14.0911 C   0  0  1  0  0  0  0  0  0  0  0  0
   21.0080  -21.5659  -15.2236 C   0  0  0  0  0  0  0  0  0  0  0  0
   19.8624  -21.1214  -16.0156 C   0  0  0  0  0  0  0  0  0  0  0  0
   18.5215  -21.3903  -15.8543 C   0  0  0  0  0  0  0  0  0  0  0  0
   17.8264  -20.7615  -16.8400 N   0  0  0  0  0  0  0  0  0  0  0  0
   18.7177  -20.1100  -17.6057 C   0  0  0  0  0  0  0  0  0  0  0  0
   19.9374  -20.3271  -17.1098 N   0  0  0  0  0  0  0  0  0  0  0  0
   20.2384  -20.4905  -13.2014 C   0  0  0  0  0  0  0  0  0  0  0  0
   19.2105  -19.5900  -13.3859 O   0  0  0  0  0  0  0  0  0  0  0  0
   20.1752  -21.2403  -12.1840 O   0  0  0  0  0  0  0  0  0  0  0  0
  2  3  1  0
  2  1  1  6
  4  2  1  0
  5  4  2  0
  6  4  1  0
  7  6  1  0
  8  7  1  0
  9  8  1  0
  9 10  1  0
 10 11  1  6
 10  6  1  0
 11 13  1  0
 12 11  2  0
 13 14  1  0
 14 15  1  6
 14 21  1  0
 16 15  1  0
 17 16  2  0
 18 17  1  0
 19 18  1  0
 19 20  2  0
 20 16  1  0
 21 23  2  0
 21 22  1  0
M  END
$$$$
