APH.pdb
     RDKit          3D

 23 24  0  0  1  0  0  0  0  0999 V2000
   18.1879   -8.6809  -16.3705 C   0  0  0  0  0  0  0  0  0  0  0  0
   18.9033   -9.6207  -15.4098 C   0  0  2  0  0  0  0  0  0  0  0  0
   18.4317  -10.9394  -15.6645 N   0  0  0  0  0  0  0  0  0  0  0  0
   18.7672   -9.1952  -14.0166 C   0  0  0  0  0  0  0  0  0  0  0  0
   17.8251   -9.7123  -13.3512 O   0  0  0  0  0  0  0  0  0  0  0  0
   19.6138   -8.2712  -13.4242 N   0  0  0  0  0  0  0  0  0  0  0  0
   20.7526   -7.6361  -14.1149 C   0  0  0  0  0  0  0  0  0  0  0  0
   21.7540   -7.5398  -12.9521 C   0  0  0  0  0  0  0  0  0  0  0  0
   20.8279   -6.8806  -11.9204 C   0  0  0  0  0  0  0  0  0  0  0  0
   19.5733   -7.7566  -12.0893 C   0  0  1  0  0  0  0  0  0  0  0  0
   18.4379   -6.7811  -11.9064 C   0  0  0  0  0  0  0  0  0  0  0  0
   18.0103   -6.0754  -12.8559 O   0  0  0  0  0  0  0  0  0  0  0  0
   17.8026   -6.6177  -10.6524 N   0  0  0  0  0  0  0  0  0  0  0  0
   16.7729   -5.6365  -10.3845 C   0  0  1  0  0  0  0  0  0  0  0  0
   15.4944   -6.2063  -10.9553 C   0  0  0  0  0  0  0  0  0  0  0  0
   14.9624   -7.3588  -10.2299 C   0  0  0  0  0  0  0  0  0  0  0  0
   15.5653   -8.5553   -9.9118 C   0  0  0  0  0  0  0  0  0  0  0  0
   14.6757   -9.3276   -9.2317 N   0  0  0  0  0  0  0  0  0  0  0  0
   13.5348   -8.6259   -9.1261 C   0  0  0  0  0  0  0  0  0  0  0  0
   13.7089   -7.4462   -9.7251 N   0  0  0  0  0  0  0  0  0  0  0  0
   16.5762   -5.3850   -8.9571 C   0  0  0  0  0  0  0  0  0  0  0  0
   15.7518   -4.4113   -8.4337 O   0  0  0  0  0  0  0  0  0  0  0  0
   17.2073   -6.1117   -8.1356 O   0  0  0  0  0  0  0  0  0  0  0  0
  2  3  1  0
  2  1  1  6
  4  2  1  0
  5  4  2  0
  6  4  1  0
  7  6  1  0
  8  7  1  0
  9  8  1  0
  9 10  1  0
 10 11  1  6
 10  6  1  0
 11 13  1  0
 12 11  2  0
 13 14  1  0
 14 15  1  1
 14 21  1  0
 16 15  1  0
 17 16  2  0
 18 17  1  0
 19 18  1  0
 19 20  2  0
 20 16  1  0
 21 23  2  0
 21 22  1  0
M  END
$$$$
