APH.pdb
     RDKit          3D

 23 24  0  0  1  0  0  0  0  0999 V2000
   23.1183  -11.8241  -19.5762 C   0  0  0  0  0  0  0  0  0  0  0  0
   23.2753  -12.4691  -18.2061 C   0  0  2  0  0  0  0  0  0  0  0  0
   22.3008  -13.5014  -18.1006 N   0  0  0  0  0  0  0  0  0  0  0  0
   23.2251  -11.4860  -17.1236 C   0  0  0  0  0  0  0  0  0  0  0  0
   22.0983  -11.2842  -16.5876 O   0  0  0  0  0  0  0  0  0  0  0  0
   24.3411  -10.7919  -16.6830 N   0  0  0  0  0  0  0  0  0  0  0  0
   25.6928  -10.9601  -17.2505 C   0  0  0  0  0  0  0  0  0  0  0  0
   26.5420  -10.7899  -15.9800 C   0  0  0  0  0  0  0  0  0  0  0  0
   25.9193   -9.4808  -15.4748 C   0  0  0  0  0  0  0  0  0  0  0  0
   24.4255   -9.8138  -15.6416 C   0  0  1  0  0  0  0  0  0  0  0  0
   23.8192   -8.4998  -16.0658 C   0  0  0  0  0  0  0  0  0  0  0  0
   23.8211   -8.1255  -17.2668 O   0  0  0  0  0  0  0  0  0  0  0  0
   23.2196   -7.6281  -15.1259 N   0  0  0  0  0  0  0  0  0  0  0  0
   22.5554   -6.3902  -15.4737 C   0  0  1  0  0  0  0  0  0  0  0  0
   21.0913   -6.7318  -15.6312 C   0  0  0  0  0  0  0  0  0  0  0  0
   20.2398   -5.6068  -16.0145 C   0  0  0  0  0  0  0  0  0  0  0  0
   20.5741   -4.2962  -16.2732 C   0  0  0  0  0  0  0  0  0  0  0  0
   19.4432   -3.6090  -16.5879 N   0  0  0  0  0  0  0  0  0  0  0  0
   18.4180   -4.4753  -16.5270 C   0  0  0  0  0  0  0  0  0  0  0  0
   18.8978   -5.6722  -16.1831 N   0  0  0  0  0  0  0  0  0  0  0  0
   22.6868   -5.3589  -14.4448 C   0  0  0  0  0  0  0  0  0  0  0  0
   22.7561   -4.0037  -14.6903 O   0  0  0  0  0  0  0  0  0  0  0  0
   22.7419   -5.7316  -13.2368 O   0  0  0  0  0  0  0  0  0  0  0  0
  2  3  1  0
  2  1  1  6
  4  2  1  0
  5  4  2  0
  6  4  1  0
  7  6  1  0
  8  7  1  0
  9  8  1  0
  9 10  1  0
 10 11  1  6
 10  6  1  0
 11 13  1  0
 12 11  2  0
 13 14  1  0
 14 15  1  1
 14 21  1  0
 16 15  1  0
 17 16  2  0
 18 17  1  0
 19 18  1  0
 19 20  2  0
 20 16  1  0
 21 23  2  0
 21 22  1  0
M  END
$$$$
