APH.pdb
     RDKit          3D

 23 24  0  0  1  0  0  0  0  0999 V2000
   16.8771  -14.1273  -15.1111 C   0  0  0  0  0  0  0  0  0  0  0  0
   17.8426  -14.4997  -16.2277 C   0  0  2  0  0  0  0  0  0  0  0  0
   18.2927  -15.8280  -15.9841 N   0  0  0  0  0  0  0  0  0  0  0  0
   18.9198  -13.5207  -16.3761 C   0  0  0  0  0  0  0  0  0  0  0  0
   20.0235  -13.7986  -15.8264 O   0  0  0  0  0  0  0  0  0  0  0  0
   18.7700  -12.3355  -17.0791 N   0  0  0  0  0  0  0  0  0  0  0  0
   17.5244  -11.9339  -17.7607 C   0  0  0  0  0  0  0  0  0  0  0  0
   18.1081  -11.2175  -18.9897 C   0  0  0  0  0  0  0  0  0  0  0  0
   19.0886  -10.2909  -18.2571 C   0  0  0  0  0  0  0  0  0  0  0  0
   19.7333  -11.2975  -17.2870 C   0  0  1  0  0  0  0  0  0  0  0  0
   19.9516  -10.4862  -16.0347 C   0  0  0  0  0  0  0  0  0  0  0  0
   19.0586  -10.3686  -15.1565 O   0  0  0  0  0  0  0  0  0  0  0  0
   21.1765   -9.8197  -15.7936 N   0  0  0  0  0  0  0  0  0  0  0  0
   21.4186   -8.9468  -14.6648 C   0  0  1  0  0  0  0  0  0  0  0  0
   22.5543   -9.5733  -13.8884 C   0  0  0  0  0  0  0  0  0  0  0  0
   23.7692   -9.8086  -14.6669 C   0  0  0  0  0  0  0  0  0  0  0  0
   24.0362   -9.5325  -15.9894 C   0  0  0  0  0  0  0  0  0  0  0  0
   25.3040   -9.9346  -16.2741 N   0  0  0  0  0  0  0  0  0  0  0  0
   25.8219  -10.4540  -15.1484 C   0  0  0  0  0  0  0  0  0  0  0  0
   24.9002  -10.3774  -14.1864 N   0  0  0  0  0  0  0  0  0  0  0  0
   21.8117   -7.5940  -15.0584 C   0  0  0  0  0  0  0  0  0  0  0  0
   21.8918   -6.5152  -14.2031 O   0  0  0  0  0  0  0  0  0  0  0  0
   22.1009   -7.3917  -16.2736 O   0  0  0  0  0  0  0  0  0  0  0  0
  2  3  1  0
  2  1  1  1
  4  2  1  0
  5  4  2  0
  6  4  1  0
  7  6  1  0
  8  7  1  0
  9  8  1  0
  9 10  1  0
 10 11  1  1
 10  6  1  0
 11 13  1  0
 12 11  2  0
 13 14  1  0
 14 15  1  1
 14 21  1  0
 16 15  1  0
 17 16  2  0
 18 17  1  0
 19 18  1  0
 19 20  2  0
 20 16  1  0
 21 23  2  0
 21 22  1  0
M  END
$$$$
