VCY.pdb
     RDKit          3D

 26 26  0  0  1  0  0  0  0  0999 V2000
   29.2749  -21.0322  -16.7856 C   0  0  0  0  0  0  0  0  0  0  0  0
   28.3588  -21.4682  -15.6777 C   0  0  1  0  0  0  0  0  0  0  0  0
   29.0631  -21.5399  -14.3443 C   0  0  0  0  0  0  0  0  0  0  0  0
   27.1127  -20.5835  -15.5846 C   0  0  2  0  0  0  0  0  0  0  0  0
   27.5206  -19.2155  -15.2853 N   0  0  0  0  0  0  0  0  0  0  0  0
   26.2634  -21.1171  -14.5058 C   0  0  0  0  0  0  0  0  0  0  0  0
   25.7358  -22.2489  -14.6562 O   0  0  0  0  0  0  0  0  0  0  0  0
   25.9860  -20.4548  -13.2938 N   0  0  0  0  0  0  0  0  0  0  0  0
   25.0948  -20.9471  -12.2854 C   0  0  1  0  0  0  0  0  0  0  0  0
   25.3224  -20.3413  -10.9286 C   0  0  0  0  0  0  0  0  0  0  0  0
   26.5087  -21.3404   -9.9940 S   0  0  0  0  0  0  0  0  0  0  0  0
   23.6652  -20.7979  -12.6563 C   0  0  0  0  0  0  0  0  0  0  0  0
   23.2014  -19.6703  -13.0451 O   0  0  0  0  0  0  0  0  0  0  0  0
   15.2243  -22.9627  -11.5046 O   0  0  0  0  0  0  0  0  0  0  0  0
   16.5816  -22.9743  -11.8574 C   0  0  0  0  0  0  0  0  0  0  0  0
   17.5882  -23.0961  -10.9238 C   0  0  0  0  0  0  0  0  0  0  0  0
   18.9222  -23.1052  -11.2960 C   0  0  0  0  0  0  0  0  0  0  0  0
   19.2590  -22.9905  -12.6265 C   0  0  0  0  0  0  0  0  0  0  0  0
   20.6643  -22.9856  -13.0887 C   0  0  0  0  0  0  0  0  0  0  0  0
   21.3220  -21.6272  -12.9973 C   0  0  2  0  0  0  0  0  0  0  0  0
   22.7225  -21.8595  -12.6134 N   0  0  0  0  0  0  0  0  0  0  0  0
   20.6593  -20.7153  -12.0450 C   0  0  0  0  0  0  0  0  0  0  0  0
   20.9713  -20.6328  -10.8335 O   0  0  0  0  0  0  0  0  0  0  0  0
   18.2513  -22.8689  -13.5557 C   0  0  0  0  0  0  0  0  0  0  0  0
   16.9111  -22.8595  -13.1868 C   0  0  0  0  0  0  0  0  0  0  0  0
   19.6365  -19.9033  -12.5057 O   0  0  0  0  0  0  0  0  0  0  0  0
  2  1  1  6
  3  2  1  0
  4  2  1  0
  4  5  1  1
  6  4  1  0
  6  7  2  0
  8  6  1  0
  9  8  1  0
  9 10  1  1
 11 10  1  0
 12  9  1  0
 12 21  1  0
 13 12  2  0
 14 15  1  0
 15 25  2  0
 15 16  1  0
 16 17  2  0
 17 18  1  0
 18 19  1  0
 20 19  1  1
 20 22  1  0
 21 20  1  0
 22 23  2  0
 22 26  1  0
 24 18  2  0
 25 24  1  0
M  END
$$$$
