VCY.pdb
     RDKit          3D

 26 26  0  0  1  0  0  0  0  0999 V2000
   21.6210  -14.8664  -21.5357 C   0  0  0  0  0  0  0  0  0  0  0  0
   21.5906  -14.1379  -20.2222 C   0  0  1  0  0  0  0  0  0  0  0  0
   20.1840  -13.9085  -19.7247 C   0  0  0  0  0  0  0  0  0  0  0  0
   22.4329  -14.8447  -19.1568 C   0  0  2  0  0  0  0  0  0  0  0  0
   21.8071  -16.1192  -18.8225 N   0  0  0  0  0  0  0  0  0  0  0  0
   22.4860  -13.9692  -17.9734 C   0  0  0  0  0  0  0  0  0  0  0  0
   21.5365  -14.0089  -17.1496 O   0  0  0  0  0  0  0  0  0  0  0  0
   23.5319  -13.0728  -17.6783 N   0  0  0  0  0  0  0  0  0  0  0  0
   23.5715  -12.2233  -16.5248 C   0  0  1  0  0  0  0  0  0  0  0  0
   24.9461  -12.0641  -15.9375 C   0  0  0  0  0  0  0  0  0  0  0  0
   25.5788  -13.6715  -15.3945 S   0  0  0  0  0  0  0  0  0  0  0  0
   22.9863  -10.8823  -16.7757 C   0  0  0  0  0  0  0  0  0  0  0  0
   23.2629  -10.2340  -17.8437 O   0  0  0  0  0  0  0  0  0  0  0  0
   17.2280   -4.2917  -17.4177 O   0  0  0  0  0  0  0  0  0  0  0  0
   17.9397   -5.4807  -17.2015 C   0  0  0  0  0  0  0  0  0  0  0  0
   18.6311   -6.1227  -18.2062 C   0  0  0  0  0  0  0  0  0  0  0  0
   19.3271   -7.2963  -17.9690 C   0  0  0  0  0  0  0  0  0  0  0  0
   19.3337   -7.8405  -16.7039 C   0  0  0  0  0  0  0  0  0  0  0  0
   20.0507   -9.0951  -16.3866 C   0  0  0  0  0  0  0  0  0  0  0  0
   21.5416   -8.9086  -16.2175 C   0  0  2  0  0  0  0  0  0  0  0  0
   22.0982  -10.2276  -15.8812 N   0  0  0  0  0  0  0  0  0  0  0  0
   21.8971   -7.9098  -15.1912 C   0  0  0  0  0  0  0  0  0  0  0  0
   22.0140   -8.1803  -13.9725 O   0  0  0  0  0  0  0  0  0  0  0  0
   18.6422   -7.1968  -15.7034 C   0  0  0  0  0  0  0  0  0  0  0  0
   17.9423   -6.0187  -15.9367 C   0  0  0  0  0  0  0  0  0  0  0  0
   22.1151   -6.6005  -15.5863 O   0  0  0  0  0  0  0  0  0  0  0  0
  2  1  1  6
  3  2  1  0
  4  2  1  0
  4  5  1  1
  6  4  1  0
  6  7  2  0
  8  6  1  0
  9  8  1  0
  9 10  1  6
 11 10  1  0
 12  9  1  0
 12 21  1  0
 13 12  2  0
 14 15  1  0
 15 25  2  0
 15 16  1  0
 16 17  2  0
 17 18  1  0
 18 19  1  0
 20 19  1  1
 20 22  1  0
 21 20  1  0
 22 23  2  0
 22 26  1  0
 24 18  2  0
 25 24  1  0
M  END
$$$$
