VCY.pdb
     RDKit          3D

 26 26  0  0  1  0  0  0  0  0999 V2000
   17.8090  -13.7952  -17.6050 C   0  0  0  0  0  0  0  0  0  0  0  0
   19.2246  -13.8702  -18.1020 C   0  0  1  0  0  0  0  0  0  0  0  0
   19.4567  -15.0628  -18.9980 C   0  0  0  0  0  0  0  0  0  0  0  0
   19.6548  -12.5772  -18.8000 C   0  0  2  0  0  0  0  0  0  0  0  0
   20.9035  -12.8145  -19.5156 N   0  0  0  0  0  0  0  0  0  0  0  0
   19.8415  -11.5482  -17.7626 C   0  0  0  0  0  0  0  0  0  0  0  0
   18.9006  -11.3232  -16.9589 O   0  0  0  0  0  0  0  0  0  0  0  0
   21.0086  -10.7786  -17.5891 N   0  0  0  0  0  0  0  0  0  0  0  0
   21.1366   -9.6971  -16.6578 C   0  0  1  0  0  0  0  0  0  0  0  0
   22.4933   -9.6081  -16.0166 C   0  0  0  0  0  0  0  0  0  0  0  0
   22.4317   -8.5006  -14.5852 S   0  0  0  0  0  0  0  0  0  0  0  0
   20.7860   -8.3816  -17.2496 C   0  0  0  0  0  0  0  0  0  0  0  0
   21.2871   -8.0091  -18.3666 O   0  0  0  0  0  0  0  0  0  0  0  0
   16.6070   -0.7983  -19.1397 O   0  0  0  0  0  0  0  0  0  0  0  0
   17.0015   -2.0681  -18.6937 C   0  0  0  0  0  0  0  0  0  0  0  0
   17.3425   -3.0841  -19.5604 C   0  0  0  0  0  0  0  0  0  0  0  0
   17.7293   -4.3306  -19.0967 C   0  0  0  0  0  0  0  0  0  0  0  0
   17.7768   -4.5683  -17.7410 C   0  0  0  0  0  0  0  0  0  0  0  0
   18.1738   -5.8791  -17.1816 C   0  0  0  0  0  0  0  0  0  0  0  0
   19.6614   -6.1389  -17.2577 C   0  0  2  0  0  0  0  0  0  0  0  0
   19.8932   -7.4562  -16.6463 N   0  0  0  0  0  0  0  0  0  0  0  0
   20.4748   -5.1008  -16.5959 C   0  0  0  0  0  0  0  0  0  0  0  0
   20.9180   -5.2079  -15.4279 O   0  0  0  0  0  0  0  0  0  0  0  0
   17.4355   -3.5516  -16.8788 C   0  0  0  0  0  0  0  0  0  0  0  0
   17.0469   -2.2990  -17.3396 C   0  0  0  0  0  0  0  0  0  0  0  0
   20.7693   -3.9422  -17.2950 O   0  0  0  0  0  0  0  0  0  0  0  0
  2  1  1  6
  3  2  1  0
  4  2  1  0
  4  5  1  1
  6  4  1  0
  6  7  2  0
  8  6  1  0
  9  8  1  0
  9 10  1  6
 11 10  1  0
 12  9  1  0
 12 21  1  0
 13 12  2  0
 14 15  1  0
 15 25  2  0
 15 16  1  0
 16 17  2  0
 17 18  1  0
 18 19  1  0
 20 19  1  1
 20 22  1  0
 21 20  1  0
 22 23  2  0
 22 26  1  0
 24 18  2  0
 25 24  1  0
M  END
$$$$
