VCY.pdb
     RDKit          3D

 26 26  0  0  1  0  0  0  0  0999 V2000
   25.0295  -19.7546  -17.3924 C   0  0  0  0  0  0  0  0  0  0  0  0
   25.7575  -20.6407  -18.3628 C   0  0  1  0  0  0  0  0  0  0  0  0
   25.6284  -20.1600  -19.7881 C   0  0  0  0  0  0  0  0  0  0  0  0
   27.2300  -20.8168  -17.9825 C   0  0  2  0  0  0  0  0  0  0  0  0
   27.8441  -21.7816  -18.8878 N   0  0  0  0  0  0  0  0  0  0  0  0
   27.2791  -21.3072  -16.5944 C   0  0  0  0  0  0  0  0  0  0  0  0
   26.8681  -22.4705  -16.3498 O   0  0  0  0  0  0  0  0  0  0  0  0
   27.7580  -20.5698  -15.4937 N   0  0  0  0  0  0  0  0  0  0  0  0
   27.7693  -21.0447  -14.1417 C   0  0  1  0  0  0  0  0  0  0  0  0
   29.0719  -20.8102  -13.4289 C   0  0  0  0  0  0  0  0  0  0  0  0
   29.3366  -19.0351  -13.1881 S   0  0  0  0  0  0  0  0  0  0  0  0
   26.6577  -20.4929  -13.3272 C   0  0  0  0  0  0  0  0  0  0  0  0
   26.2558  -19.2894  -13.4933 O   0  0  0  0  0  0  0  0  0  0  0  0
   19.0941  -18.6921   -9.6701 O   0  0  0  0  0  0  0  0  0  0  0  0
   20.2220  -19.3745  -10.1488 C   0  0  0  0  0  0  0  0  0  0  0  0
   20.8305  -20.3878   -9.4398 C   0  0  0  0  0  0  0  0  0  0  0  0
   21.9437  -21.0477   -9.9328 C   0  0  0  0  0  0  0  0  0  0  0  0
   22.4607  -20.6897  -11.1581 C   0  0  0  0  0  0  0  0  0  0  0  0
   23.6515  -21.3495  -11.7372 C   0  0  0  0  0  0  0  0  0  0  0  0
   24.9345  -20.5837  -11.5059 C   0  0  2  0  0  0  0  0  0  0  0  0
   25.9681  -21.2305  -12.3282 N   0  0  0  0  0  0  0  0  0  0  0  0
   25.3434  -20.5346  -10.0889 C   0  0  0  0  0  0  0  0  0  0  0  0
   26.0583  -21.4085   -9.5435 O   0  0  0  0  0  0  0  0  0  0  0  0
   21.8507  -19.6775  -11.8631 C   0  0  0  0  0  0  0  0  0  0  0  0
   20.7330  -19.0124  -11.3722 C   0  0  0  0  0  0  0  0  0  0  0  0
   24.9191  -19.4696   -9.3120 O   0  0  0  0  0  0  0  0  0  0  0  0
  2  1  1  1
  3  2  1  0
  4  2  1  0
  4  5  1  6
  6  4  1  0
  6  7  2  0
  8  6  1  0
  9  8  1  0
  9 10  1  1
 11 10  1  0
 12  9  1  0
 12 21  1  0
 13 12  2  0
 14 15  1  0
 15 25  2  0
 15 16  1  0
 16 17  2  0
 17 18  1  0
 18 19  1  0
 20 19  1  1
 20 22  1  0
 21 20  1  0
 22 23  2  0
 22 26  1  0
 24 18  2  0
 25 24  1  0
M  END
$$$$
