VCY.pdb
     RDKit          3D

 26 26  0  0  1  0  0  0  0  0999 V2000
   28.4211  -17.9820  -16.4223 C   0  0  0  0  0  0  0  0  0  0  0  0
   27.4250  -18.8330  -15.6872 C   0  0  1  0  0  0  0  0  0  0  0  0
   26.2934  -19.2902  -16.5757 C   0  0  0  0  0  0  0  0  0  0  0  0
   28.0909  -20.0286  -15.0007 C   0  0  2  0  0  0  0  0  0  0  0  0
   28.5176  -20.9846  -16.0163 N   0  0  0  0  0  0  0  0  0  0  0  0
   27.0974  -20.6397  -14.1011 C   0  0  0  0  0  0  0  0  0  0  0  0
   26.4789  -21.6633  -14.4904 O   0  0  0  0  0  0  0  0  0  0  0  0
   26.7742  -20.1665  -12.8141 N   0  0  0  0  0  0  0  0  0  0  0  0
   25.7493  -20.7201  -11.9795 C   0  0  1  0  0  0  0  0  0  0  0  0
   25.8196  -20.2612  -10.5498 C   0  0  0  0  0  0  0  0  0  0  0  0
   24.7626  -21.3022   -9.5114 S   0  0  0  0  0  0  0  0  0  0  0  0
   24.3828  -20.4776  -12.5064 C   0  0  0  0  0  0  0  0  0  0  0  0
   23.9317  -19.2876  -12.6402 O   0  0  0  0  0  0  0  0  0  0  0  0
   16.4261  -21.4363  -16.2403 O   0  0  0  0  0  0  0  0  0  0  0  0
   17.7100  -21.6647  -15.7242 C   0  0  0  0  0  0  0  0  0  0  0  0
   17.9371  -22.4857  -14.6407 C   0  0  0  0  0  0  0  0  0  0  0  0
   19.2144  -22.6964  -14.1484 C   0  0  0  0  0  0  0  0  0  0  0  0
   20.2869  -22.0755  -14.7492 C   0  0  0  0  0  0  0  0  0  0  0  0
   21.6745  -22.2526  -14.2675 C   0  0  0  0  0  0  0  0  0  0  0  0
   22.1053  -21.1962  -13.2752 C   0  0  2  0  0  0  0  0  0  0  0  0
   23.4903  -21.5121  -12.8947 N   0  0  0  0  0  0  0  0  0  0  0  0
   21.2370  -21.1178  -12.0848 C   0  0  0  0  0  0  0  0  0  0  0  0
   21.3194  -21.9070  -11.1140 O   0  0  0  0  0  0  0  0  0  0  0  0
   20.0563  -21.2565  -15.8305 C   0  0  0  0  0  0  0  0  0  0  0  0
   18.7762  -21.0421  -16.3282 C   0  0  0  0  0  0  0  0  0  0  0  0
   20.2762  -20.1221  -12.0282 O   0  0  0  0  0  0  0  0  0  0  0  0
  2  1  1  6
  3  2  1  0
  4  2  1  0
  4  5  1  6
  6  4  1  0
  6  7  2  0
  8  6  1  0
  9  8  1  0
  9 10  1  1
 11 10  1  0
 12  9  1  0
 12 21  1  0
 13 12  2  0
 14 15  1  0
 15 25  2  0
 15 16  1  0
 16 17  2  0
 17 18  1  0
 18 19  1  0
 20 19  1  6
 20 22  1  0
 21 20  1  0
 22 23  2  0
 22 26  1  0
 24 18  2  0
 25 24  1  0
M  END
$$$$
