VCY.pdb
     RDKit          3D

 26 26  0  0  1  0  0  0  0  0999 V2000
   19.1541  -13.7599  -19.3784 C   0  0  0  0  0  0  0  0  0  0  0  0
   18.6570  -14.1491  -18.0152 C   0  0  1  0  0  0  0  0  0  0  0  0
   18.7926  -15.6299  -17.7552 C   0  0  0  0  0  0  0  0  0  0  0  0
   19.3364  -13.3406  -16.9067 C   0  0  2  0  0  0  0  0  0  0  0  0
   18.9595  -13.8965  -15.6119 N   0  0  0  0  0  0  0  0  0  0  0  0
   18.8776  -11.9457  -17.0233 C   0  0  0  0  0  0  0  0  0  0  0  0
   19.1819  -11.2940  -18.0551 O   0  0  0  0  0  0  0  0  0  0  0  0
   18.1101  -11.2646  -16.0581 N   0  0  0  0  0  0  0  0  0  0  0  0
   17.6864   -9.9005  -16.1732 C   0  0  1  0  0  0  0  0  0  0  0  0
   16.2168   -9.7007  -15.9281 C   0  0  0  0  0  0  0  0  0  0  0  0
   15.8117   -7.9368  -15.9897 S   0  0  0  0  0  0  0  0  0  0  0  0
   18.4591   -8.9809  -15.3009 C   0  0  0  0  0  0  0  0  0  0  0  0
   18.5457   -9.1878  -14.0411 O   0  0  0  0  0  0  0  0  0  0  0  0
   24.0720  -11.8321  -15.0050 O   0  0  0  0  0  0  0  0  0  0  0  0
   23.3928  -10.6123  -15.1383 C   0  0  0  0  0  0  0  0  0  0  0  0
   23.1875  -10.0090  -16.3604 C   0  0  0  0  0  0  0  0  0  0  0  0
   22.5135   -8.8039  -16.4676 C   0  0  0  0  0  0  0  0  0  0  0  0
   22.0345   -8.1881  -15.3326 C   0  0  0  0  0  0  0  0  0  0  0  0
   21.3136   -6.8970  -15.3781 C   0  0  0  0  0  0  0  0  0  0  0  0
   19.9008   -6.9787  -14.8456 C   0  0  2  0  0  0  0  0  0  0  0  0
   19.1461   -7.8319  -15.7757 N   0  0  0  0  0  0  0  0  0  0  0  0
   19.2518   -5.6622  -14.6941 C   0  0  0  0  0  0  0  0  0  0  0  0
   19.6470   -4.7832  -13.8921 O   0  0  0  0  0  0  0  0  0  0  0  0
   22.2415   -8.7933  -14.1143 C   0  0  0  0  0  0  0  0  0  0  0  0
   22.9173  -10.0028  -14.0019 C   0  0  0  0  0  0  0  0  0  0  0  0
   18.1458   -5.3733  -15.4760 O   0  0  0  0  0  0  0  0  0  0  0  0
  2  1  1  6
  3  2  1  0
  4  2  1  0
  4  5  1  1
  6  4  1  0
  6  7  2  0
  8  6  1  0
  9  8  1  0
  9 10  1  1
 11 10  1  0
 12  9  1  0
 12 21  1  0
 13 12  2  0
 14 15  1  0
 15 25  2  0
 15 16  1  0
 16 17  2  0
 17 18  1  0
 18 19  1  0
 20 19  1  6
 20 22  1  0
 21 20  1  0
 22 23  2  0
 22 26  1  0
 24 18  2  0
 25 24  1  0
M  END
$$$$
