VCY.pdb
     RDKit          3D

 26 26  0  0  1  0  0  0  0  0999 V2000
   28.2214  -17.9000  -15.7242 C   0  0  0  0  0  0  0  0  0  0  0  0
   27.1237  -18.6941  -15.0751 C   0  0  1  0  0  0  0  0  0  0  0  0
   25.8326  -18.6343  -15.8552 C   0  0  0  0  0  0  0  0  0  0  0  0
   27.5390  -20.1467  -14.8266 C   0  0  2  0  0  0  0  0  0  0  0  0
   27.7309  -20.8137  -16.1095 N   0  0  0  0  0  0  0  0  0  0  0  0
   26.4606  -20.7971  -14.0625 C   0  0  0  0  0  0  0  0  0  0  0  0
   25.5727  -21.4297  -14.6897 O   0  0  0  0  0  0  0  0  0  0  0  0
   26.3361  -20.7716  -12.6596 N   0  0  0  0  0  0  0  0  0  0  0  0
   25.2072  -21.2767  -11.9356 C   0  0  1  0  0  0  0  0  0  0  0  0
   25.4258  -21.3533  -10.4503 C   0  0  0  0  0  0  0  0  0  0  0  0
   25.6983  -19.6945   -9.7770 S   0  0  0  0  0  0  0  0  0  0  0  0
   23.9602  -20.5196  -12.2100 C   0  0  0  0  0  0  0  0  0  0  0  0
   23.9357  -19.2426  -12.1304 O   0  0  0  0  0  0  0  0  0  0  0  0
   22.1559  -21.7580  -19.0372 O   0  0  0  0  0  0  0  0  0  0  0  0
   22.0464  -21.1567  -17.7749 C   0  0  0  0  0  0  0  0  0  0  0  0
   20.8449  -20.7076  -17.2705 C   0  0  0  0  0  0  0  0  0  0  0  0
   20.7611  -20.1168  -16.0207 C   0  0  0  0  0  0  0  0  0  0  0  0
   21.8989  -19.9709  -15.2586 C   0  0  0  0  0  0  0  0  0  0  0  0
   21.8784  -19.3418  -13.9197 C   0  0  0  0  0  0  0  0  0  0  0  0
   21.5329  -20.3065  -12.8079 C   0  0  2  0  0  0  0  0  0  0  0  0
   22.7294  -21.1286  -12.5732 N   0  0  0  0  0  0  0  0  0  0  0  0
   20.3622  -21.1536  -13.1064 C   0  0  0  0  0  0  0  0  0  0  0  0
   20.4369  -22.3855  -13.3276 O   0  0  0  0  0  0  0  0  0  0  0  0
   23.0966  -20.4202  -15.7655 C   0  0  0  0  0  0  0  0  0  0  0  0
   23.1856  -21.0140  -17.0193 C   0  0  0  0  0  0  0  0  0  0  0  0
   19.1094  -20.5647  -13.1465 O   0  0  0  0  0  0  0  0  0  0  0  0
  2  1  1  6
  3  2  1  0
  4  2  1  0
  4  5  1  6
  6  4  1  0
  6  7  2  0
  8  6  1  0
  9  8  1  0
  9 10  1  1
 11 10  1  0
 12  9  1  0
 12 21  1  0
 13 12  2  0
 14 15  1  0
 15 25  2  0
 15 16  1  0
 16 17  2  0
 17 18  1  0
 18 19  1  0
 20 19  1  6
 20 22  1  0
 21 20  1  0
 22 23  2  0
 22 26  1  0
 24 18  2  0
 25 24  1  0
M  END
$$$$
