VCY.pdb
     RDKit          3D

 26 26  0  0  1  0  0  0  0  0999 V2000
   26.6688  -31.8114  -17.1146 C   0  0  0  0  0  0  0  0  0  0  0  0
   27.9138  -32.6156  -16.8695 C   0  0  1  0  0  0  0  0  0  0  0  0
   27.7506  -34.0628  -17.2667 C   0  0  0  0  0  0  0  0  0  0  0  0
   29.1361  -32.0005  -17.5563 C   0  0  2  0  0  0  0  0  0  0  0  0
   30.3274  -32.7473  -17.1678 N   0  0  0  0  0  0  0  0  0  0  0  0
   29.2393  -30.5984  -17.1167 C   0  0  0  0  0  0  0  0  0  0  0  0
   30.0596  -30.3089  -16.2083 O   0  0  0  0  0  0  0  0  0  0  0  0
   28.4826  -29.5307  -17.6382 N   0  0  0  0  0  0  0  0  0  0  0  0
   28.6492  -28.1580  -17.2621 C   0  0  1  0  0  0  0  0  0  0  0  0
   29.6360  -27.4120  -18.1162 C   0  0  0  0  0  0  0  0  0  0  0  0
   29.7533  -25.6900  -17.5685 S   0  0  0  0  0  0  0  0  0  0  0  0
   27.3673  -27.4102  -17.2257 C   0  0  0  0  0  0  0  0  0  0  0  0
   26.6302  -27.3185  -18.2678 O   0  0  0  0  0  0  0  0  0  0  0  0
   20.1365  -23.2473  -14.1531 O   0  0  0  0  0  0  0  0  0  0  0  0
   21.3707  -23.8992  -14.2896 C   0  0  0  0  0  0  0  0  0  0  0  0
   21.4746  -25.2669  -14.4246 C   0  0  0  0  0  0  0  0  0  0  0  0
   22.7048  -25.8889  -14.5581 C   0  0  0  0  0  0  0  0  0  0  0  0
   23.8549  -25.1310  -14.5569 C   0  0  0  0  0  0  0  0  0  0  0  0
   25.1994  -25.7343  -14.6878 C   0  0  0  0  0  0  0  0  0  0  0  0
   25.5882  -26.0306  -16.1186 C   0  0  2  0  0  0  0  0  0  0  0  0
   26.8666  -26.7557  -16.0688 N   0  0  0  0  0  0  0  0  0  0  0  0
   25.6998  -24.8236  -16.9601 C   0  0  0  0  0  0  0  0  0  0  0  0
   26.7059  -24.0754  -16.9682 O   0  0  0  0  0  0  0  0  0  0  0  0
   23.7472  -23.7659  -14.4217 C   0  0  0  0  0  0  0  0  0  0  0  0
   22.5146  -23.1373  -14.2876 C   0  0  0  0  0  0  0  0  0  0  0  0
   24.6410  -24.4917  -17.7887 O   0  0  0  0  0  0  0  0  0  0  0  0
  2  1  1  6
  3  2  1  0
  4  2  1  0
  4  5  1  1
  6  4  1  0
  6  7  2  0
  8  6  1  0
  9  8  1  0
  9 10  1  6
 11 10  1  0
 12  9  1  0
 12 21  1  0
 13 12  2  0
 14 15  1  0
 15 25  2  0
 15 16  1  0
 16 17  2  0
 17 18  1  0
 18 19  1  0
 20 19  1  1
 20 22  1  0
 21 20  1  0
 22 23  2  0
 22 26  1  0
 24 18  2  0
 25 24  1  0
M  END
$$$$
