VCY.pdb
     RDKit          3D

 26 26  0  0  1  0  0  0  0  0999 V2000
   29.0460  -12.4057  -15.6286 C   0  0  0  0  0  0  0  0  0  0  0  0
   27.7486  -11.7003  -15.9039 C   0  0  1  0  0  0  0  0  0  0  0  0
   27.6912  -11.1264  -17.2990 C   0  0  0  0  0  0  0  0  0  0  0  0
   26.5400  -12.6024  -15.6397 C   0  0  2  0  0  0  0  0  0  0  0  0
   26.5845  -13.7386  -16.5534 N   0  0  0  0  0  0  0  0  0  0  0  0
   25.3246  -11.8025  -15.8690 C   0  0  0  0  0  0  0  0  0  0  0  0
   24.8540  -11.7390  -17.0337 O   0  0  0  0  0  0  0  0  0  0  0  0
   24.6285  -11.0878  -14.8744 N   0  0  0  0  0  0  0  0  0  0  0  0
   23.3807  -10.4144  -15.0821 C   0  0  1  0  0  0  0  0  0  0  0  0
   22.3101  -10.8086  -14.1032 C   0  0  0  0  0  0  0  0  0  0  0  0
   21.9357  -12.5724  -14.2704 S   0  0  0  0  0  0  0  0  0  0  0  0
   23.5175   -8.9363  -15.0912 C   0  0  0  0  0  0  0  0  0  0  0  0
   24.3368   -8.3472  -14.3041 O   0  0  0  0  0  0  0  0  0  0  0  0
   22.5797   -0.4318  -17.5574 O   0  0  0  0  0  0  0  0  0  0  0  0
   22.6025   -1.8328  -17.4979 C   0  0  0  0  0  0  0  0  0  0  0  0
   23.6649   -2.5764  -17.9647 C   0  0  0  0  0  0  0  0  0  0  0  0
   23.6652   -3.9596  -17.8952 C   0  0  0  0  0  0  0  0  0  0  0  0
   22.5836   -4.6144  -17.3490 C   0  0  0  0  0  0  0  0  0  0  0  0
   22.5184   -6.0892  -17.2526 C   0  0  0  0  0  0  0  0  0  0  0  0
   23.0040   -6.6265  -15.9253 C   0  0  2  0  0  0  0  0  0  0  0  0
   22.7756   -8.0791  -15.9470 N   0  0  0  0  0  0  0  0  0  0  0  0
   22.3414   -6.0066  -14.7616 C   0  0  0  0  0  0  0  0  0  0  0  0
   22.7856   -4.9947  -14.1693 O   0  0  0  0  0  0  0  0  0  0  0  0
   21.5247   -3.8687  -16.8842 C   0  0  0  0  0  0  0  0  0  0  0  0
   21.5201   -2.4802  -16.9517 C   0  0  0  0  0  0  0  0  0  0  0  0
   21.1652   -6.5663  -14.2914 O   0  0  0  0  0  0  0  0  0  0  0  0
  2  1  1  6
  3  2  1  0
  4  2  1  0
  4  5  1  6
  6  4  1  0
  6  7  2  0
  8  6  1  0
  9  8  1  0
  9 10  1  1
 11 10  1  0
 12  9  1  0
 12 21  1  0
 13 12  2  0
 14 15  1  0
 15 25  2  0
 15 16  1  0
 16 17  2  0
 17 18  1  0
 18 19  1  0
 20 19  1  6
 20 22  1  0
 21 20  1  0
 22 23  2  0
 22 26  1  0
 24 18  2  0
 25 24  1  0
M  END
$$$$
