VCY.pdb
     RDKit          3D

 26 26  0  0  1  0  0  0  0  0999 V2000
   24.6553  -20.3044  -10.2181 C   0  0  0  0  0  0  0  0  0  0  0  0
   26.1342  -20.4650  -10.4278 C   0  0  1  0  0  0  0  0  0  0  0  0
   26.8641  -20.7915   -9.1474 C   0  0  0  0  0  0  0  0  0  0  0  0
   26.4490  -21.5017  -11.5096 C   0  0  2  0  0  0  0  0  0  0  0  0
   27.8864  -21.5107  -11.7573 N   0  0  0  0  0  0  0  0  0  0  0  0
   25.7173  -21.1148  -12.7281 C   0  0  0  0  0  0  0  0  0  0  0  0
   26.0719  -20.0754  -13.3412 O   0  0  0  0  0  0  0  0  0  0  0  0
   24.6318  -21.8246  -13.2780 N   0  0  0  0  0  0  0  0  0  0  0  0
   23.9127  -21.4263  -14.4518 C   0  0  1  0  0  0  0  0  0  0  0  0
   23.6842  -22.5446  -15.4301 C   0  0  0  0  0  0  0  0  0  0  0  0
   22.9143  -21.9022  -16.9379 S   0  0  0  0  0  0  0  0  0  0  0  0
   22.6162  -20.7738  -14.1404 C   0  0  0  0  0  0  0  0  0  0  0  0
   21.7912  -21.3090  -13.3216 O   0  0  0  0  0  0  0  0  0  0  0  0
   16.1581  -14.7530  -13.3405 O   0  0  0  0  0  0  0  0  0  0  0  0
   17.3640  -15.4288  -13.5771 C   0  0  0  0  0  0  0  0  0  0  0  0
   18.2594  -15.7197  -12.5705 C   0  0  0  0  0  0  0  0  0  0  0  0
   19.4446  -16.3884  -12.8280 C   0  0  0  0  0  0  0  0  0  0  0  0
   19.7426  -16.7748  -14.1159 C   0  0  0  0  0  0  0  0  0  0  0  0
   20.9945  -17.4848  -14.4586 C   0  0  0  0  0  0  0  0  0  0  0  0
   20.8696  -18.9901  -14.3894 C   0  0  2  0  0  0  0  0  0  0  0  0
   22.1962  -19.5403  -14.7056 N   0  0  0  0  0  0  0  0  0  0  0  0
   19.8426  -19.5378  -15.2964 C   0  0  0  0  0  0  0  0  0  0  0  0
   20.0294  -19.7249  -16.5220 O   0  0  0  0  0  0  0  0  0  0  0  0
   18.8463  -16.4826  -15.1183 C   0  0  0  0  0  0  0  0  0  0  0  0
   17.6556  -15.8117  -14.8645 C   0  0  0  0  0  0  0  0  0  0  0  0
   18.6024  -19.8655  -14.7743 O   0  0  0  0  0  0  0  0  0  0  0  0
  2  1  1  1
  3  2  1  0
  4  2  1  0
  4  5  1  6
  6  4  1  0
  6  7  2  0
  8  6  1  0
  9  8  1  0
  9 10  1  6
 11 10  1  0
 12  9  1  0
 12 21  1  0
 13 12  2  0
 14 15  1  0
 15 25  2  0
 15 16  1  0
 16 17  2  0
 17 18  1  0
 18 19  1  0
 20 19  1  6
 20 22  1  0
 21 20  1  0
 22 23  2  0
 22 26  1  0
 24 18  2  0
 25 24  1  0
M  END
$$$$
