VCY.pdb
     RDKit          3D

 26 26  0  0  1  0  0  0  0  0999 V2000
   29.5262  -26.9064  -18.1059 C   0  0  0  0  0  0  0  0  0  0  0  0
   28.5142  -25.9525  -17.5378 C   0  0  1  0  0  0  0  0  0  0  0  0
   28.7014  -25.7311  -16.0563 C   0  0  0  0  0  0  0  0  0  0  0  0
   28.5032  -24.6175  -18.2873 C   0  0  2  0  0  0  0  0  0  0  0  0
   29.7952  -23.9630  -18.1144 N   0  0  0  0  0  0  0  0  0  0  0  0
   27.4253  -23.7915  -17.7166 C   0  0  0  0  0  0  0  0  0  0  0  0
   27.7147  -22.9522  -16.8258 O   0  0  0  0  0  0  0  0  0  0  0  0
   26.0692  -23.8619  -18.0916 N   0  0  0  0  0  0  0  0  0  0  0  0
   25.0159  -23.1132  -17.4721 C   0  0  1  0  0  0  0  0  0  0  0  0
   24.3081  -22.1752  -18.4094 C   0  0  0  0  0  0  0  0  0  0  0  0
   23.6635  -20.7522  -17.4936 S   0  0  0  0  0  0  0  0  0  0  0  0
   24.0167  -23.9763  -16.7937 C   0  0  0  0  0  0  0  0  0  0  0  0
   23.6446  -25.0847  -17.3139 O   0  0  0  0  0  0  0  0  0  0  0  0
   18.6582  -27.4255  -10.6208 O   0  0  0  0  0  0  0  0  0  0  0  0
   19.5855  -26.6395  -11.3202 C   0  0  0  0  0  0  0  0  0  0  0  0
   19.3368  -25.3270  -11.6595 C   0  0  0  0  0  0  0  0  0  0  0  0
   20.2681  -24.5700  -12.3507 C   0  0  0  0  0  0  0  0  0  0  0  0
   21.4721  -25.1337  -12.7107 C   0  0  0  0  0  0  0  0  0  0  0  0
   22.5055  -24.3820  -13.4561 C   0  0  0  0  0  0  0  0  0  0  0  0
   22.4114  -24.5566  -14.9550 C   0  0  2  0  0  0  0  0  0  0  0  0
   23.4098  -23.6557  -15.5501 N   0  0  0  0  0  0  0  0  0  0  0  0
   21.0662  -24.2827  -15.4961 C   0  0  0  0  0  0  0  0  0  0  0  0
   20.2424  -25.1805  -15.7917 O   0  0  0  0  0  0  0  0  0  0  0  0
   21.7167  -26.4443  -12.3704 C   0  0  0  0  0  0  0  0  0  0  0  0
   20.7851  -27.2079  -11.6767 C   0  0  0  0  0  0  0  0  0  0  0  0
   20.6846  -22.9658  -15.6913 O   0  0  0  0  0  0  0  0  0  0  0  0
  2  1  1  6
  3  2  1  0
  4  2  1  0
  4  5  1  1
  6  4  1  0
  6  7  2  0
  8  6  1  0
  9  8  1  0
  9 10  1  6
 11 10  1  0
 12  9  1  0
 12 21  1  0
 13 12  2  0
 14 15  1  0
 15 25  2  0
 15 16  1  0
 16 17  2  0
 17 18  1  0
 18 19  1  0
 20 19  1  1
 20 22  1  0
 21 20  1  0
 22 23  2  0
 22 26  1  0
 24 18  2  0
 25 24  1  0
M  END
$$$$
