VCY.pdb
     RDKit          3D

 26 26  0  0  1  0  0  0  0  0999 V2000
   16.9395  -12.3345  -17.6215 C   0  0  0  0  0  0  0  0  0  0  0  0
   17.8865  -11.5789  -16.7333 C   0  0  1  0  0  0  0  0  0  0  0  0
   17.2492  -11.1741  -15.4260 C   0  0  0  0  0  0  0  0  0  0  0  0
   19.1819  -12.3566  -16.4858 C   0  0  2  0  0  0  0  0  0  0  0  0
   18.8840  -13.5344  -15.6786 N   0  0  0  0  0  0  0  0  0  0  0  0
   20.1119  -11.4638  -15.7733 C   0  0  0  0  0  0  0  0  0  0  0  0
   19.9908  -11.3349  -14.5280 O   0  0  0  0  0  0  0  0  0  0  0  0
   21.1482  -10.7269  -16.3795 N   0  0  0  0  0  0  0  0  0  0  0  0
   22.0260   -9.8351  -15.6810 C   0  0  1  0  0  0  0  0  0  0  0  0
   23.4727   -9.9914  -16.0582 C   0  0  0  0  0  0  0  0  0  0  0  0
   24.2580  -11.2361  -15.0031 S   0  0  0  0  0  0  0  0  0  0  0  0
   21.6329   -8.4106  -15.8222 C   0  0  0  0  0  0  0  0  0  0  0  0
   21.0708   -7.9868  -16.8909 O   0  0  0  0  0  0  0  0  0  0  0  0
   19.9406    0.1023  -13.8940 O   0  0  0  0  0  0  0  0  0  0  0  0
   20.3084   -1.2500  -13.8387 C   0  0  0  0  0  0  0  0  0  0  0  0
   19.4396   -2.2372  -13.4260 C   0  0  0  0  0  0  0  0  0  0  0  0
   19.8252   -3.5665  -13.3796 C   0  0  0  0  0  0  0  0  0  0  0  0
   21.1035   -3.9183  -13.7525 C   0  0  0  0  0  0  0  0  0  0  0  0
   21.5799   -5.3185  -13.7183 C   0  0  0  0  0  0  0  0  0  0  0  0
   21.4378   -6.0338  -15.0428 C   0  0  2  0  0  0  0  0  0  0  0  0
   21.8396   -7.4301  -14.8155 N   0  0  0  0  0  0  0  0  0  0  0  0
   22.2329   -5.4271  -16.1277 C   0  0  0  0  0  0  0  0  0  0  0  0
   23.4734   -5.5702  -16.2408 O   0  0  0  0  0  0  0  0  0  0  0  0
   21.9681   -2.9300  -14.1638 C   0  0  0  0  0  0  0  0  0  0  0  0
   21.5854   -1.5945  -14.2121 C   0  0  0  0  0  0  0  0  0  0  0  0
   21.5822   -4.6564  -17.0766 O   0  0  0  0  0  0  0  0  0  0  0  0
  2  1  1  1
  3  2  1  0
  4  2  1  0
  4  5  1  1
  6  4  1  0
  6  7  2  0
  8  6  1  0
  9  8  1  0
  9 10  1  6
 11 10  1  0
 12  9  1  0
 12 21  1  0
 13 12  2  0
 14 15  1  0
 15 25  2  0
 15 16  1  0
 16 17  2  0
 17 18  1  0
 18 19  1  0
 20 19  1  1
 20 22  1  0
 21 20  1  0
 22 23  2  0
 22 26  1  0
 24 18  2  0
 25 24  1  0
M  END
$$$$
