VCY.pdb
     RDKit          3D

 26 26  0  0  1  0  0  0  0  0999 V2000
   20.8836  -18.7245  -11.8564 C   0  0  0  0  0  0  0  0  0  0  0  0
   20.0979  -19.8335  -12.4965 C   0  0  1  0  0  0  0  0  0  0  0  0
   18.8359  -19.3357  -13.1587 C   0  0  0  0  0  0  0  0  0  0  0  0
   20.9462  -20.6386  -13.4846 C   0  0  2  0  0  0  0  0  0  0  0  0
   20.1182  -21.6768  -14.0881 N   0  0  0  0  0  0  0  0  0  0  0  0
   22.0614  -21.2392  -12.7328 C   0  0  0  0  0  0  0  0  0  0  0  0
   21.7988  -22.0450  -11.8034 O   0  0  0  0  0  0  0  0  0  0  0  0
   23.4262  -20.9840  -12.9710 N   0  0  0  0  0  0  0  0  0  0  0  0
   24.5039  -21.5929  -12.2488 C   0  0  1  0  0  0  0  0  0  0  0  0
   25.6755  -21.9679  -13.1127 C   0  0  0  0  0  0  0  0  0  0  0  0
   25.2471  -23.3822  -14.1594 S   0  0  0  0  0  0  0  0  0  0  0  0
   24.9774  -20.7641  -11.1119 C   0  0  0  0  0  0  0  0  0  0  0  0
   24.9223  -19.4866  -11.1622 O   0  0  0  0  0  0  0  0  0  0  0  0
   29.4219  -18.5538   -3.7125 O   0  0  0  0  0  0  0  0  0  0  0  0
   28.7948  -19.2378   -4.7641 C   0  0  0  0  0  0  0  0  0  0  0  0
   29.3885  -19.4053   -5.9966 C   0  0  0  0  0  0  0  0  0  0  0  0
   28.7496  -20.0848   -7.0204 C   0  0  0  0  0  0  0  0  0  0  0  0
   27.4930  -20.6079   -6.8105 C   0  0  0  0  0  0  0  0  0  0  0  0
   26.7540  -21.3371   -7.8645 C   0  0  0  0  0  0  0  0  0  0  0  0
   26.2655  -20.4444   -8.9829 C   0  0  2  0  0  0  0  0  0  0  0  0
   25.5131  -21.3015   -9.9112 N   0  0  0  0  0  0  0  0  0  0  0  0
   27.3511  -19.7334   -9.6852 C   0  0  0  0  0  0  0  0  0  0  0  0
   28.1385  -20.2897  -10.4869 O   0  0  0  0  0  0  0  0  0  0  0  0
   26.9034  -20.4385   -5.5789 C   0  0  0  0  0  0  0  0  0  0  0  0
   27.5408  -19.7574   -4.5483 C   0  0  0  0  0  0  0  0  0  0  0  0
   27.5167  -18.3783   -9.4522 O   0  0  0  0  0  0  0  0  0  0  0  0
  2  1  1  6
  3  2  1  0
  4  2  1  0
  4  5  1  1
  6  4  1  0
  6  7  2  0
  8  6  1  0
  9  8  1  0
  9 10  1  6
 11 10  1  0
 12  9  1  0
 12 21  1  0
 13 12  2  0
 14 15  1  0
 15 25  2  0
 15 16  1  0
 16 17  2  0
 17 18  1  0
 18 19  1  0
 20 19  1  1
 20 22  1  0
 21 20  1  0
 22 23  2  0
 22 26  1  0
 24 18  2  0
 25 24  1  0
M  END
$$$$
