LIL.pdb
     RDKit          3D

 25 24  0  0  1  0  0  0  0  0999 V2000
   29.5477  -18.2700  -16.2256 C   0  0  0  0  0  0  0  0  0  0  0  0
   28.2060  -18.3274  -16.9215 C   0  0  2  0  0  0  0  0  0  0  0  0
   28.1088  -17.0882  -17.7908 C   0  0  0  0  0  0  0  0  0  0  0  0
   27.0583  -18.3549  -15.9741 C   0  0  0  0  0  0  0  0  0  0  0  0
   27.2448  -19.3100  -14.8270 C   0  0  2  0  0  0  0  0  0  0  0  0
   26.9242  -20.6477  -15.2885 N   0  0  0  0  0  0  0  0  0  0  0  0
   26.3617  -19.0152  -13.6730 C   0  0  0  0  0  0  0  0  0  0  0  0
   25.4771  -18.1237  -13.7263 O   0  0  0  0  0  0  0  0  0  0  0  0
   22.2500  -20.4307  -13.8250 C   0  0  0  0  0  0  0  0  0  0  0  0
   23.4992  -19.8385  -13.2709 C   0  0  0  0  0  0  0  0  0  0  0  0
   24.1577  -20.5483  -12.1627 C   0  0  2  0  0  0  0  0  0  0  0  0
   23.1251  -20.8092  -11.0862 C   0  0  0  0  0  0  0  0  0  0  0  0
   25.3822  -19.9836  -11.5606 C   0  0  2  0  0  0  0  0  0  0  0  0
   26.4963  -19.7559  -12.4375 N   0  0  0  0  0  0  0  0  0  0  0  0
   25.7979  -20.6864  -10.3056 C   0  0  0  0  0  0  0  0  0  0  0  0
   26.0542  -21.9177  -10.3174 O   0  0  0  0  0  0  0  0  0  0  0  0
   29.0791  -20.5057   -7.1826 C   0  0  0  0  0  0  0  0  0  0  0  0
   28.1029  -19.3087   -7.0441 C   0  0  2  0  0  0  0  0  0  0  0  0
   28.6311  -18.4018   -5.9479 C   0  0  0  0  0  0  0  0  0  0  0  0
   26.7724  -19.9231   -6.7547 C   0  0  0  0  0  0  0  0  0  0  0  0
   26.1583  -20.7596   -7.8031 C   0  0  2  0  0  0  0  0  0  0  0  0
   25.9253  -20.0255   -9.0566 N   0  0  0  0  0  0  0  0  0  0  0  0
   24.9315  -21.4368   -7.3701 C   0  0  0  0  0  0  0  0  0  0  0  0
   23.8167  -20.9830   -7.6624 O   0  0  0  0  0  0  0  0  0  0  0  0
   25.0264  -22.5957   -6.6238 O   0  0  0  0  0  0  0  0  0  0  0  0
  2  1  1  1
  3  2  1  0
  4  2  1  0
  4  5  1  0
  5  6  1  6
  7  5  1  0
  7  8  2  0
  9 10  1  0
 11 13  1  0
 11 10  1  0
 11 12  1  1
 13 14  1  6
 14  7  1  0
 15 13  1  0
 16 15  2  0
 18 17  1  1
 18 20  1  0
 19 18  1  0
 21 20  1  1
 21 23  1  0
 21 22  1  0
 22 15  1  0
 23 25  1  0
 24 23  2  0
M  END
$$$$
