LIL.pdb
     RDKit          3D

 25 24  0  0  1  0  0  0  0  0999 V2000
   30.0617  -37.2984  -10.8306 C   0  0  0  0  0  0  0  0  0  0  0  0
   30.6404  -38.4856  -10.0934 C   0  0  2  0  0  0  0  0  0  0  0  0
   30.0636  -39.7293  -10.7423 C   0  0  0  0  0  0  0  0  0  0  0  0
   30.3091  -38.4891   -8.6423 C   0  0  0  0  0  0  0  0  0  0  0  0
   30.6163  -37.1897   -7.9494 C   0  0  2  0  0  0  0  0  0  0  0  0
   32.0575  -37.0340   -7.8869 N   0  0  0  0  0  0  0  0  0  0  0  0
   30.1033  -37.1342   -6.5593 C   0  0  0  0  0  0  0  0  0  0  0  0
   28.8813  -37.2713   -6.2981 O   0  0  0  0  0  0  0  0  0  0  0  0
   33.4268  -38.7585   -2.2042 C   0  0  0  0  0  0  0  0  0  0  0  0
   32.3675  -38.4967   -3.2179 C   0  0  0  0  0  0  0  0  0  0  0  0
   31.5519  -37.2828   -3.0546 C   0  0  2  0  0  0  0  0  0  0  0  0
   30.8878  -37.3368   -1.6948 C   0  0  0  0  0  0  0  0  0  0  0  0
   30.5579  -36.9281   -4.0875 C   0  0  2  0  0  0  0  0  0  0  0  0
   31.0078  -36.9178   -5.4511 N   0  0  0  0  0  0  0  0  0  0  0  0
   29.7755  -35.6964   -3.7517 C   0  0  0  0  0  0  0  0  0  0  0  0
   30.3543  -34.5877   -3.6193 O   0  0  0  0  0  0  0  0  0  0  0  0
   24.5784  -33.6146   -3.1812 C   0  0  0  0  0  0  0  0  0  0  0  0
   25.7564  -32.9262   -3.9183 C   0  0  2  0  0  0  0  0  0  0  0  0
   25.1896  -32.1978   -5.1230 C   0  0  0  0  0  0  0  0  0  0  0  0
   26.7063  -34.0304   -4.2503 C   0  0  0  0  0  0  0  0  0  0  0  0
   27.6242  -34.4898   -3.1911 C   0  0  2  0  0  0  0  0  0  0  0  0
   28.3689  -35.7020   -3.5661 N   0  0  0  0  0  0  0  0  0  0  0  0
   26.9743  -34.6701   -1.8886 C   0  0  0  0  0  0  0  0  0  0  0  0
   26.8164  -33.7134   -1.1180 O   0  0  0  0  0  0  0  0  0  0  0  0
   26.5360  -35.9276   -1.5202 O   0  0  0  0  0  0  0  0  0  0  0  0
  2  1  1  6
  3  2  1  0
  4  2  1  0
  4  5  1  0
  5  6  1  1
  7  5  1  0
  7  8  2  0
  9 10  1  0
 11 13  1  0
 11 10  1  0
 11 12  1  1
 13 14  1  6
 14  7  1  0
 15 13  1  0
 16 15  2  0
 18 17  1  6
 18 20  1  0
 19 18  1  0
 21 20  1  6
 21 23  1  0
 21 22  1  0
 22 15  1  0
 23 25  1  0
 24 23  2  0
M  END
$$$$
