LIL.pdb
     RDKit          3D

 25 24  0  0  1  0  0  0  0  0999 V2000
   26.0458  -25.7465  -15.4552 C   0  0  0  0  0  0  0  0  0  0  0  0
   25.6475  -25.3526  -16.8603 C   0  0  2  0  0  0  0  0  0  0  0  0
   24.6342  -26.3774  -17.3332 C   0  0  0  0  0  0  0  0  0  0  0  0
   26.7966  -25.3243  -17.8059 C   0  0  0  0  0  0  0  0  0  0  0  0
   27.9343  -24.4531  -17.3483 C   0  0  2  0  0  0  0  0  0  0  0  0
   27.5353  -23.0657  -17.4936 N   0  0  0  0  0  0  0  0  0  0  0  0
   29.1717  -24.6445  -18.1423 C   0  0  0  0  0  0  0  0  0  0  0  0
   29.2058  -24.4242  -19.3795 O   0  0  0  0  0  0  0  0  0  0  0  0
   33.5950  -22.0770  -18.6362 C   0  0  0  0  0  0  0  0  0  0  0  0
   32.4898  -23.0636  -18.7892 C   0  0  0  0  0  0  0  0  0  0  0  0
   32.6737  -24.3932  -18.1861 C   0  0  2  0  0  0  0  0  0  0  0  0
   33.9499  -24.9924  -18.7388 C   0  0  0  0  0  0  0  0  0  0  0  0
   31.5802  -25.3831  -18.2563 C   0  0  2  0  0  0  0  0  0  0  0  0
   30.3899  -25.0962  -17.5059 N   0  0  0  0  0  0  0  0  0  0  0  0
   32.0462  -26.7898  -18.0418 C   0  0  0  0  0  0  0  0  0  0  0  0
   32.1557  -27.2567  -16.8791 O   0  0  0  0  0  0  0  0  0  0  0  0
   34.3388  -31.5167  -20.0177 C   0  0  0  0  0  0  0  0  0  0  0  0
   32.8046  -31.4029  -19.8223 C   0  0  2  0  0  0  0  0  0  0  0  0
   32.1373  -32.3102  -20.8395 C   0  0  0  0  0  0  0  0  0  0  0  0
   32.4978  -29.9504  -19.9898 C   0  0  0  0  0  0  0  0  0  0  0  0
   32.8352  -29.0434  -18.8766 C   0  0  2  0  0  0  0  0  0  0  0  0
   32.3852  -27.6619  -19.1083 N   0  0  0  0  0  0  0  0  0  0  0  0
   34.2557  -29.0651  -18.5117 C   0  0  0  0  0  0  0  0  0  0  0  0
   35.0969  -28.4606  -19.1908 O   0  0  0  0  0  0  0  0  0  0  0  0
   34.6559  -29.7733  -17.3948 O   0  0  0  0  0  0  0  0  0  0  0  0
  2  1  1  1
  3  2  1  0
  4  2  1  0
  4  5  1  0
  5  6  1  6
  7  5  1  0
  7  8  2  0
  9 10  1  0
 11 13  1  0
 11 10  1  0
 11 12  1  6
 13 14  1  1
 14  7  1  0
 15 13  1  0
 16 15  2  0
 18 17  1  6
 18 20  1  0
 19 18  1  0
 21 20  1  6
 21 23  1  0
 21 22  1  0
 22 15  1  0
 23 25  1  0
 24 23  2  0
M  END
$$$$
