LIL.pdb
     RDKit          3D

 25 24  0  0  1  0  0  0  0  0999 V2000
   21.1822  -18.8250  -13.7852 C   0  0  0  0  0  0  0  0  0  0  0  0
   20.7107  -20.1655  -13.2670 C   0  0  2  0  0  0  0  0  0  0  0  0
   19.4186  -19.9151  -12.5130 C   0  0  0  0  0  0  0  0  0  0  0  0
   21.6924  -20.8174  -12.3577 C   0  0  0  0  0  0  0  0  0  0  0  0
   23.0699  -20.9458  -12.9481 C   0  0  2  0  0  0  0  0  0  0  0  0
   23.0323  -21.9650  -13.9802 N   0  0  0  0  0  0  0  0  0  0  0  0
   24.0937  -21.3556  -11.9569 C   0  0  0  0  0  0  0  0  0  0  0  0
   24.0440  -22.4686  -11.3746 O   0  0  0  0  0  0  0  0  0  0  0  0
   29.2179  -21.6533  -13.1715 C   0  0  0  0  0  0  0  0  0  0  0  0
   27.8510  -21.6930  -12.5813 C   0  0  0  0  0  0  0  0  0  0  0  0
   27.6186  -20.9276  -11.3462 C   0  0  2  0  0  0  0  0  0  0  0  0
   28.6140  -21.3939  -10.3046 C   0  0  0  0  0  0  0  0  0  0  0  0
   26.2630  -20.8799  -10.7624 C   0  0  2  0  0  0  0  0  0  0  0  0
   25.1924  -20.4734  -11.6288 N   0  0  0  0  0  0  0  0  0  0  0  0
   26.2144  -20.1659   -9.4471 C   0  0  0  0  0  0  0  0  0  0  0  0
   25.9072  -18.9475   -9.3921 O   0  0  0  0  0  0  0  0  0  0  0  0
   28.8482  -19.4838   -4.8890 C   0  0  0  0  0  0  0  0  0  0  0  0
   27.5378  -20.2465   -4.5631 C   0  0  2  0  0  0  0  0  0  0  0  0
   27.8286  -21.2053   -3.4233 C   0  0  0  0  0  0  0  0  0  0  0  0
   27.1426  -20.9058   -5.8441 C   0  0  0  0  0  0  0  0  0  0  0  0
   26.8666  -20.0406   -7.0064 C   0  0  2  0  0  0  0  0  0  0  0  0
   26.5045  -20.8017   -8.2124 N   0  0  0  0  0  0  0  0  0  0  0  0
   27.9469  -19.0939   -7.3032 C   0  0  0  0  0  0  0  0  0  0  0  0
   28.9665  -19.4592   -7.9040 O   0  0  0  0  0  0  0  0  0  0  0  0
   27.8211  -17.7776   -6.9024 O   0  0  0  0  0  0  0  0  0  0  0  0
  2  1  1  1
  3  2  1  0
  4  2  1  0
  4  5  1  0
  5  6  1  6
  7  5  1  0
  7  8  2  0
  9 10  1  0
 11 13  1  0
 11 10  1  0
 11 12  1  1
 13 14  1  6
 14  7  1  0
 15 13  1  0
 16 15  2  0
 18 17  1  6
 18 20  1  0
 19 18  1  0
 21 20  1  1
 21 23  1  0
 21 22  1  0
 22 15  1  0
 23 25  1  0
 24 23  2  0
M  END
$$$$
