LIL.pdb
     RDKit          3D

 25 24  0  0  1  0  0  0  0  0999 V2000
   21.7731  -18.7928  -12.9386 C   0  0  0  0  0  0  0  0  0  0  0  0
   21.2640  -20.0696  -12.3074 C   0  0  2  0  0  0  0  0  0  0  0  0
   20.0990  -19.6846  -11.4157 C   0  0  0  0  0  0  0  0  0  0  0  0
   22.2956  -20.7697  -11.4941 C   0  0  0  0  0  0  0  0  0  0  0  0
   23.6443  -20.8366  -12.1568 C   0  0  2  0  0  0  0  0  0  0  0  0
   23.5885  -21.8348  -13.2084 N   0  0  0  0  0  0  0  0  0  0  0  0
   24.7316  -21.2301  -11.2287 C   0  0  0  0  0  0  0  0  0  0  0  0
   24.8051  -22.3893  -10.7479 O   0  0  0  0  0  0  0  0  0  0  0  0
   29.6727  -21.4949  -12.6322 C   0  0  0  0  0  0  0  0  0  0  0  0
   28.3323  -21.4687  -11.9835 C   0  0  0  0  0  0  0  0  0  0  0  0
   28.1951  -20.7082  -10.7312 C   0  0  2  0  0  0  0  0  0  0  0  0
   29.2598  -21.1866   -9.7665 C   0  0  0  0  0  0  0  0  0  0  0  0
   26.8856  -20.6543  -10.0507 C   0  0  2  0  0  0  0  0  0  0  0  0
   25.7510  -20.2775  -10.8461 N   0  0  0  0  0  0  0  0  0  0  0  0
   26.9274  -19.9069   -8.7540 C   0  0  0  0  0  0  0  0  0  0  0  0
   26.5238  -18.7175   -8.6883 O   0  0  0  0  0  0  0  0  0  0  0  0
   26.1394  -20.3571   -3.9529 C   0  0  0  0  0  0  0  0  0  0  0  0
   27.1825  -21.3354   -4.5527 C   0  0  2  0  0  0  0  0  0  0  0  0
   27.7310  -22.1831   -3.4197 C   0  0  0  0  0  0  0  0  0  0  0  0
   28.1941  -20.4632   -5.2219 C   0  0  0  0  0  0  0  0  0  0  0  0
   27.7520  -19.6576   -6.3757 C   0  0  2  0  0  0  0  0  0  0  0  0
   27.4127  -20.4778   -7.5491 N   0  0  0  0  0  0  0  0  0  0  0  0
   28.6949  -18.5973   -6.7471 C   0  0  0  0  0  0  0  0  0  0  0  0
   29.5559  -18.7868   -7.6170 O   0  0  0  0  0  0  0  0  0  0  0  0
   28.6185  -17.3722   -6.1126 O   0  0  0  0  0  0  0  0  0  0  0  0
  2  1  1  1
  3  2  1  0
  4  2  1  0
  4  5  1  0
  5  6  1  6
  7  5  1  0
  7  8  2  0
  9 10  1  0
 11 13  1  0
 11 10  1  0
 11 12  1  1
 13 14  1  6
 14  7  1  0
 15 13  1  0
 16 15  2  0
 18 17  1  1
 18 20  1  0
 19 18  1  0
 21 20  1  1
 21 23  1  0
 21 22  1  0
 22 15  1  0
 23 25  1  0
 24 23  2  0
M  END
$$$$
