LIL.pdb
     RDKit          3D

 25 24  0  0  1  0  0  0  0  0999 V2000
   31.0053  -23.7077  -11.4278 C   0  0  0  0  0  0  0  0  0  0  0  0
   31.5757  -22.4386  -12.0210 C   0  0  2  0  0  0  0  0  0  0  0  0
   32.9071  -22.1938  -11.3369 C   0  0  0  0  0  0  0  0  0  0  0  0
   30.6955  -21.2549  -11.8221 C   0  0  0  0  0  0  0  0  0  0  0  0
   29.3858  -21.3458  -12.5565 C   0  0  2  0  0  0  0  0  0  0  0  0
   29.5640  -20.7822  -13.8815 N   0  0  0  0  0  0  0  0  0  0  0  0
   28.2932  -20.5913  -11.8966 C   0  0  0  0  0  0  0  0  0  0  0  0
   28.2043  -19.3405  -11.9854 O   0  0  0  0  0  0  0  0  0  0  0  0
   23.1255  -20.3738  -12.5432 C   0  0  0  0  0  0  0  0  0  0  0  0
   24.5530  -20.2508  -12.1368 C   0  0  0  0  0  0  0  0  0  0  0  0
   24.9096  -20.6536  -10.7671 C   0  0  2  0  0  0  0  0  0  0  0  0
   24.0275  -19.8886   -9.8028 C   0  0  0  0  0  0  0  0  0  0  0  0
   26.3180  -20.5800  -10.3290 C   0  0  2  0  0  0  0  0  0  0  0  0
   27.2865  -21.2838  -11.1220 N   0  0  0  0  0  0  0  0  0  0  0  0
   26.4937  -20.8525   -8.8672 C   0  0  0  0  0  0  0  0  0  0  0  0
   26.1609  -21.9630   -8.3794 O   0  0  0  0  0  0  0  0  0  0  0  0
   28.5097  -17.8552   -3.9085 C   0  0  0  0  0  0  0  0  0  0  0  0
   28.2266  -19.3067   -4.3754 C   0  0  2  0  0  0  0  0  0  0  0  0
   29.3655  -20.1830   -3.8874 C   0  0  0  0  0  0  0  0  0  0  0  0
   28.1023  -19.2200   -5.8616 C   0  0  0  0  0  0  0  0  0  0  0  0
   27.2324  -20.2009   -6.5374 C   0  0  2  0  0  0  0  0  0  0  0  0
   27.0320  -19.9002   -7.9636 N   0  0  0  0  0  0  0  0  0  0  0  0
   25.9418  -20.3993   -5.8694 C   0  0  0  0  0  0  0  0  0  0  0  0
   24.9388  -19.7629   -6.2201 O   0  0  0  0  0  0  0  0  0  0  0  0
   25.8497  -21.3087   -4.8332 O   0  0  0  0  0  0  0  0  0  0  0  0
  2  1  1  1
  3  2  1  0
  4  2  1  0
  4  5  1  0
  5  6  1  6
  7  5  1  0
  7  8  2  0
  9 10  1  0
 11 13  1  0
 11 10  1  0
 11 12  1  1
 13 14  1  6
 14  7  1  0
 15 13  1  0
 16 15  2  0
 18 17  1  6
 18 20  1  0
 19 18  1  0
 21 20  1  1
 21 23  1  0
 21 22  1  0
 22 15  1  0
 23 25  1  0
 24 23  2  0
M  END
$$$$
