LIL.pdb
     RDKit          3D

 25 24  0  0  1  0  0  0  0  0999 V2000
   29.4330  -19.3264  -16.9494 C   0  0  0  0  0  0  0  0  0  0  0  0
   28.1602  -18.5177  -17.0673 C   0  0  2  0  0  0  0  0  0  0  0  0
   28.5428  -17.1831  -17.6781 C   0  0  0  0  0  0  0  0  0  0  0  0
   27.4930  -18.2859  -15.7571 C   0  0  0  0  0  0  0  0  0  0  0  0
   27.4461  -19.5062  -14.8788 C   0  0  2  0  0  0  0  0  0  0  0  0
   26.7469  -20.5578  -15.5933 N   0  0  0  0  0  0  0  0  0  0  0  0
   26.7238  -19.2800  -13.6038 C   0  0  0  0  0  0  0  0  0  0  0  0
   26.5609  -18.1270  -13.1301 O   0  0  0  0  0  0  0  0  0  0  0  0
   21.7861  -20.1106  -13.8354 C   0  0  0  0  0  0  0  0  0  0  0  0
   23.1707  -19.7559  -13.4168 C   0  0  0  0  0  0  0  0  0  0  0  0
   23.7616  -20.5132  -12.3021 C   0  0  2  0  0  0  0  0  0  0  0  0
   22.8266  -20.4170  -11.1148 C   0  0  0  0  0  0  0  0  0  0  0  0
   25.1464  -20.2247  -11.8779 C   0  0  2  0  0  0  0  0  0  0  0  0
   26.1797  -20.3956  -12.8604 N   0  0  0  0  0  0  0  0  0  0  0  0
   25.5078  -20.8672  -10.5747 C   0  0  0  0  0  0  0  0  0  0  0  0
   25.8312  -22.0818  -10.5286 O   0  0  0  0  0  0  0  0  0  0  0  0
   28.6285  -20.4783   -7.3169 C   0  0  0  0  0  0  0  0  0  0  0  0
   27.6047  -19.3136   -7.3066 C   0  0  2  0  0  0  0  0  0  0  0  0
   28.0541  -18.3081   -6.2625 C   0  0  0  0  0  0  0  0  0  0  0  0
   26.2865  -19.9567   -7.0228 C   0  0  0  0  0  0  0  0  0  0  0  0
   25.7185  -20.8453   -8.0541 C   0  0  2  0  0  0  0  0  0  0  0  0
   25.5078  -20.1652   -9.3416 N   0  0  0  0  0  0  0  0  0  0  0  0
   24.4926  -21.5292   -7.6292 C   0  0  0  0  0  0  0  0  0  0  0  0
   23.3829  -21.1575   -8.0347 O   0  0  0  0  0  0  0  0  0  0  0  0
   24.5825  -22.6014   -6.7623 O   0  0  0  0  0  0  0  0  0  0  0  0
  2  1  1  1
  3  2  1  0
  4  2  1  0
  4  5  1  0
  5  6  1  6
  7  5  1  0
  7  8  2  0
  9 10  1  0
 11 13  1  0
 11 10  1  0
 11 12  1  1
 13 14  1  6
 14  7  1  0
 15 13  1  0
 16 15  2  0
 18 17  1  1
 18 20  1  0
 19 18  1  0
 21 20  1  1
 21 23  1  0
 21 22  1  0
 22 15  1  0
 23 25  1  0
 24 23  2  0
M  END
$$$$
