LIL.pdb
     RDKit          3D

 25 24  0  0  1  0  0  0  0  0999 V2000
   15.7920  -21.8057  -14.2239 C   0  0  0  0  0  0  0  0  0  0  0  0
   16.2023  -23.2532  -14.3793 C   0  0  2  0  0  0  0  0  0  0  0  0
   14.9304  -24.0486  -14.6036 C   0  0  0  0  0  0  0  0  0  0  0  0
   16.9137  -23.7891  -13.1866 C   0  0  0  0  0  0  0  0  0  0  0  0
   18.2665  -23.1708  -12.9618 C   0  0  2  0  0  0  0  0  0  0  0  0
   19.1757  -23.6797  -13.9716 N   0  0  0  0  0  0  0  0  0  0  0  0
   18.8455  -23.4998  -11.6371 C   0  0  0  0  0  0  0  0  0  0  0  0
   19.3759  -24.6155  -11.4044 O   0  0  0  0  0  0  0  0  0  0  0  0
   22.0521  -20.0292   -8.7612 C   0  0  0  0  0  0  0  0  0  0  0  0
   21.2968  -21.1377   -9.4086 C   0  0  0  0  0  0  0  0  0  0  0  0
   20.1920  -21.7450   -8.6496 C   0  0  2  0  0  0  0  0  0  0  0  0
   20.7355  -22.2193   -7.3182 C   0  0  0  0  0  0  0  0  0  0  0  0
   19.3796  -22.8102   -9.2710 C   0  0  2  0  0  0  0  0  0  0  0  0
   18.8150  -22.5323  -10.5618 N   0  0  0  0  0  0  0  0  0  0  0  0
   18.3675  -23.3978   -8.3371 C   0  0  0  0  0  0  0  0  0  0  0  0
   17.2561  -22.8355   -8.1629 O   0  0  0  0  0  0  0  0  0  0  0  0
   15.6180  -26.4652   -8.6161 C   0  0  0  0  0  0  0  0  0  0  0  0
   17.0327  -27.0215   -8.3097 C   0  0  2  0  0  0  0  0  0  0  0  0
   16.9928  -28.5263   -8.5023 C   0  0  0  0  0  0  0  0  0  0  0  0
   17.3298  -26.5817   -6.9133 C   0  0  0  0  0  0  0  0  0  0  0  0
   17.5902  -25.1479   -6.6845 C   0  0  2  0  0  0  0  0  0  0  0  0
   18.5924  -24.5943   -7.6085 N   0  0  0  0  0  0  0  0  0  0  0  0
   17.9416  -24.8293   -5.2966 C   0  0  0  0  0  0  0  0  0  0  0  0
   17.1079  -24.9399   -4.3873 O   0  0  0  0  0  0  0  0  0  0  0  0
   19.2216  -24.3979   -5.0054 O   0  0  0  0  0  0  0  0  0  0  0  0
  2  1  1  1
  3  2  1  0
  4  2  1  0
  4  5  1  0
  5  6  1  6
  7  5  1  0
  7  8  2  0
  9 10  1  0
 11 13  1  0
 11 10  1  0
 11 12  1  1
 13 14  1  6
 14  7  1  0
 15 13  1  0
 16 15  2  0
 18 17  1  1
 18 20  1  0
 19 18  1  0
 21 20  1  1
 21 23  1  0
 21 22  1  0
 22 15  1  0
 23 25  1  0
 24 23  2  0
M  END
$$$$
