LIL.pdb
     RDKit          3D

 25 24  0  0  1  0  0  0  0  0999 V2000
   21.6657  -20.5473  -18.8878 C   0  0  0  0  0  0  0  0  0  0  0  0
   20.4702  -20.0689  -18.0943 C   0  0  2  0  0  0  0  0  0  0  0  0
   19.3219  -19.9237  -19.0746 C   0  0  0  0  0  0  0  0  0  0  0  0
   20.7048  -18.7654  -17.4149 C   0  0  0  0  0  0  0  0  0  0  0  0
   21.9360  -18.7475  -16.5509 C   0  0  2  0  0  0  0  0  0  0  0  0
   21.7236  -19.6477  -15.4329 N   0  0  0  0  0  0  0  0  0  0  0  0
   22.2364  -17.4078  -15.9910 C   0  0  0  0  0  0  0  0  0  0  0  0
   21.5787  -16.9271  -15.0336 O   0  0  0  0  0  0  0  0  0  0  0  0
   27.2794  -15.4104  -15.0603 C   0  0  0  0  0  0  0  0  0  0  0  0
   25.8224  -15.7189  -15.0704 C   0  0  0  0  0  0  0  0  0  0  0  0
   24.9483  -14.8586  -15.8836 C   0  0  2  0  0  0  0  0  0  0  0  0
   25.0024  -13.4557  -15.3159 C   0  0  0  0  0  0  0  0  0  0  0  0
   23.5448  -15.2556  -16.1141 C   0  0  2  0  0  0  0  0  0  0  0  0
   23.3093  -16.6068  -16.5391 N   0  0  0  0  0  0  0  0  0  0  0  0
   22.7849  -14.2709  -16.9477 C   0  0  0  0  0  0  0  0  0  0  0  0
   23.0596  -14.1178  -18.1655 O   0  0  0  0  0  0  0  0  0  0  0  0
   17.3997  -11.3290  -16.7803 C   0  0  0  0  0  0  0  0  0  0  0  0
   18.7242  -11.3975  -17.5839 C   0  0  2  0  0  0  0  0  0  0  0  0
   18.3839  -11.7924  -19.0091 C   0  0  0  0  0  0  0  0  0  0  0  0
   19.5730  -12.3849  -16.8515 C   0  0  0  0  0  0  0  0  0  0  0  0
   20.9789  -12.5302  -17.2737 C   0  0  2  0  0  0  0  0  0  0  0  0
   21.7349  -13.4691  -16.4303 N   0  0  0  0  0  0  0  0  0  0  0  0
   21.6927  -11.2540  -17.3867 C   0  0  0  0  0  0  0  0  0  0  0  0
   22.1953  -10.7152  -16.3911 O   0  0  0  0  0  0  0  0  0  0  0  0
   21.8012  -10.6473  -18.6234 O   0  0  0  0  0  0  0  0  0  0  0  0
  2  1  1  6
  3  2  1  0
  4  2  1  0
  4  5  1  0
  5  6  1  1
  7  5  1  0
  7  8  2  0
  9 10  1  0
 11 13  1  0
 11 10  1  0
 11 12  1  1
 13 14  1  6
 14  7  1  0
 15 13  1  0
 16 15  2  0
 18 17  1  1
 18 20  1  0
 19 18  1  0
 21 20  1  1
 21 23  1  0
 21 22  1  0
 22 15  1  0
 23 25  1  0
 24 23  2  0
M  END
$$$$
