LIL.pdb
     RDKit          3D

 25 24  0  0  1  0  0  0  0  0999 V2000
   17.5896  -16.4884  -16.6854 C   0  0  0  0  0  0  0  0  0  0  0  0
   18.7847  -16.1379  -17.5437 C   0  0  2  0  0  0  0  0  0  0  0  0
   19.9990  -16.7593  -16.8807 C   0  0  0  0  0  0  0  0  0  0  0  0
   18.9952  -14.6706  -17.6792 C   0  0  0  0  0  0  0  0  0  0  0  0
   17.8535  -13.9558  -18.3490 C   0  0  2  0  0  0  0  0  0  0  0  0
   17.8367  -14.3326  -19.7501 N   0  0  0  0  0  0  0  0  0  0  0  0
   17.9734  -12.4792  -18.2880 C   0  0  0  0  0  0  0  0  0  0  0  0
   18.6103  -11.8298  -19.1556 O   0  0  0  0  0  0  0  0  0  0  0  0
   16.0604   -7.2023  -18.0878 C   0  0  0  0  0  0  0  0  0  0  0  0
   16.3568   -8.0463  -16.8971 C   0  0  0  0  0  0  0  0  0  0  0  0
   16.2673   -9.5065  -17.0563 C   0  0  2  0  0  0  0  0  0  0  0  0
   15.3234  -10.0419  -16.0001 C   0  0  0  0  0  0  0  0  0  0  0  0
   17.5034  -10.3139  -17.0840 C   0  0  2  0  0  0  0  0  0  0  0  0
   17.3521  -11.7360  -17.2134 N   0  0  0  0  0  0  0  0  0  0  0  0
   18.4645   -9.9548  -15.9934 C   0  0  0  0  0  0  0  0  0  0  0  0
   18.3536  -10.4659  -14.8496 O   0  0  0  0  0  0  0  0  0  0  0  0
   23.8421   -8.7124  -15.1617 C   0  0  0  0  0  0  0  0  0  0  0  0
   22.8563   -9.5973  -14.3554 C   0  0  2  0  0  0  0  0  0  0  0  0
   23.5806  -10.8766  -13.9788 C   0  0  0  0  0  0  0  0  0  0  0  0
   21.6809   -9.7912  -15.2568 C   0  0  0  0  0  0  0  0  0  0  0  0
   20.5676   -8.8292  -15.1520 C   0  0  2  0  0  0  0  0  0  0  0  0
   19.5326   -9.0389  -16.1763 N   0  0  0  0  0  0  0  0  0  0  0  0
   21.0015   -7.4282  -15.1412 C   0  0  0  0  0  0  0  0  0  0  0  0
   20.9309   -6.7319  -16.1631 O   0  0  0  0  0  0  0  0  0  0  0  0
   21.4973   -6.8831  -13.9724 O   0  0  0  0  0  0  0  0  0  0  0  0
  2  1  1  1
  3  2  1  0
  4  2  1  0
  4  5  1  0
  5  6  1  6
  7  5  1  0
  7  8  2  0
  9 10  1  0
 11 13  1  0
 11 10  1  0
 11 12  1  1
 13 14  1  1
 14  7  1  0
 15 13  1  0
 16 15  2  0
 18 17  1  6
 18 20  1  0
 19 18  1  0
 21 20  1  6
 21 23  1  0
 21 22  1  0
 22 15  1  0
 23 25  1  0
 24 23  2  0
M  END
$$$$
