LIL.pdb
     RDKit          3D

 25 24  0  0  1  0  0  0  0  0999 V2000
   20.1898  -18.4150  -16.0101 C   0  0  0  0  0  0  0  0  0  0  0  0
   19.3990  -19.2792  -15.0532 C   0  0  2  0  0  0  0  0  0  0  0  0
   18.6978  -18.3402  -14.0903 C   0  0  0  0  0  0  0  0  0  0  0  0
   20.2505  -20.2271  -14.2837 C   0  0  0  0  0  0  0  0  0  0  0  0
   21.2282  -20.9892  -15.1358 C   0  0  2  0  0  0  0  0  0  0  0  0
   20.5836  -22.2051  -15.5957 N   0  0  0  0  0  0  0  0  0  0  0  0
   22.4543  -21.3869  -14.4031 C   0  0  0  0  0  0  0  0  0  0  0  0
   22.4345  -22.2690  -13.5077 O   0  0  0  0  0  0  0  0  0  0  0  0
   26.9973  -21.4906  -17.2027 C   0  0  0  0  0  0  0  0  0  0  0  0
   26.2157  -22.0050  -16.0439 C   0  0  0  0  0  0  0  0  0  0  0  0
   26.1706  -21.1756  -14.8292 C   0  0  2  0  0  0  0  0  0  0  0  0
   27.3457  -21.5542  -13.9523 C   0  0  0  0  0  0  0  0  0  0  0  0
   24.9340  -21.1300  -14.0232 C   0  0  2  0  0  0  0  0  0  0  0  0
   23.7241  -20.7617  -14.7032 N   0  0  0  0  0  0  0  0  0  0  0  0
   25.0981  -20.3811  -12.7371 C   0  0  0  0  0  0  0  0  0  0  0  0
   24.9849  -19.1288  -12.7076 O   0  0  0  0  0  0  0  0  0  0  0  0
   27.9041  -20.8130   -7.6155 C   0  0  0  0  0  0  0  0  0  0  0  0
   26.4091  -20.4749   -7.8509 C   0  0  2  0  0  0  0  0  0  0  0  0
   25.6238  -20.9797   -6.6543 C   0  0  0  0  0  0  0  0  0  0  0  0
   26.0603  -21.1336   -9.1455 C   0  0  0  0  0  0  0  0  0  0  0  0
   25.8125  -20.2672  -10.3133 C   0  0  2  0  0  0  0  0  0  0  0  0
   25.3847  -21.0197  -11.5029 N   0  0  0  0  0  0  0  0  0  0  0  0
   26.9394  -19.3875  -10.6412 C   0  0  0  0  0  0  0  0  0  0  0  0
   27.9102  -19.8093  -11.2845 O   0  0  0  0  0  0  0  0  0  0  0  0
   26.9136  -18.0711  -10.2221 O   0  0  0  0  0  0  0  0  0  0  0  0
  2  1  1  6
  3  2  1  0
  4  2  1  0
  4  5  1  0
  5  6  1  1
  7  5  1  0
  7  8  2  0
  9 10  1  0
 11 13  1  0
 11 10  1  0
 11 12  1  1
 13 14  1  6
 14  7  1  0
 15 13  1  0
 16 15  2  0
 18 17  1  1
 18 20  1  0
 19 18  1  0
 21 20  1  1
 21 23  1  0
 21 22  1  0
 22 15  1  0
 23 25  1  0
 24 23  2  0
M  END
$$$$
