LIL.pdb
     RDKit          3D

 25 24  0  0  1  0  0  0  0  0999 V2000
   15.3618  -31.5840   -8.5848 C   0  0  0  0  0  0  0  0  0  0  0  0
   16.8150  -32.0028   -8.5636 C   0  0  2  0  0  0  0  0  0  0  0  0
   16.8859  -33.3033   -7.7862 C   0  0  0  0  0  0  0  0  0  0  0  0
   17.7028  -30.9961   -7.9203 C   0  0  0  0  0  0  0  0  0  0  0  0
   17.6741  -29.6495   -8.5902 C   0  0  2  0  0  0  0  0  0  0  0  0
   18.5381  -29.6993   -9.7548 N   0  0  0  0  0  0  0  0  0  0  0  0
   18.1652  -28.5542   -7.7198 C   0  0  0  0  0  0  0  0  0  0  0  0
   19.3841  -28.4258   -7.4406 O   0  0  0  0  0  0  0  0  0  0  0  0
   19.1258  -24.4717   -8.1970 C   0  0  0  0  0  0  0  0  0  0  0  0
   17.6632  -24.5598   -7.9304 C   0  0  0  0  0  0  0  0  0  0  0  0
   17.2368  -25.1583   -6.6555 C   0  0  2  0  0  0  0  0  0  0  0  0
   17.5906  -24.1983   -5.5390 C   0  0  0  0  0  0  0  0  0  0  0  0
   17.6801  -26.5230   -6.3064 C   0  0  2  0  0  0  0  0  0  0  0  0
   17.2420  -27.5908   -7.1608 N   0  0  0  0  0  0  0  0  0  0  0  0
   17.4824  -26.8530   -4.8594 C   0  0  0  0  0  0  0  0  0  0  0  0
   16.3736  -27.2796   -4.4467 O   0  0  0  0  0  0  0  0  0  0  0  0
   20.3711  -26.1940    0.4384 C   0  0  0  0  0  0  0  0  0  0  0  0
   19.4308  -27.2445   -0.2074 C   0  0  2  0  0  0  0  0  0  0  0  0
   19.8890  -28.6191    0.2441 C   0  0  0  0  0  0  0  0  0  0  0  0
   19.5345  -27.0074   -1.6787 C   0  0  0  0  0  0  0  0  0  0  0  0
   18.2890  -27.0300   -2.4685 C   0  0  2  0  0  0  0  0  0  0  0  0
   18.5062  -26.7086   -3.8878 N   0  0  0  0  0  0  0  0  0  0  0  0
   17.2244  -26.1897   -1.9100 C   0  0  0  0  0  0  0  0  0  0  0  0
   16.3296  -26.6791   -1.2072 O   0  0  0  0  0  0  0  0  0  0  0  0
   17.2232  -24.8340   -2.1768 O   0  0  0  0  0  0  0  0  0  0  0  0
  2  1  1  1
  3  2  1  0
  4  2  1  0
  4  5  1  0
  5  6  1  6
  7  5  1  0
  7  8  2  0
  9 10  1  0
 11 13  1  0
 11 10  1  0
 11 12  1  1
 13 14  1  6
 14  7  1  0
 15 13  1  0
 16 15  2  0
 18 17  1  1
 18 20  1  0
 19 18  1  0
 21 20  1  1
 21 23  1  0
 21 22  1  0
 22 15  1  0
 23 25  1  0
 24 23  2  0
M  END
$$$$
