LIL.pdb
     RDKit          3D

 25 24  0  0  1  0  0  0  0  0999 V2000
   19.5217  -22.8447   -9.1565 C   0  0  0  0  0  0  0  0  0  0  0  0
   18.2630  -23.3986   -9.7864 C   0  0  2  0  0  0  0  0  0  0  0  0
   17.4837  -22.2142  -10.3254 C   0  0  0  0  0  0  0  0  0  0  0  0
   17.4118  -24.1510   -8.8246 C   0  0  0  0  0  0  0  0  0  0  0  0
   18.1061  -25.3281   -8.1961 C   0  0  2  0  0  0  0  0  0  0  0  0
   18.2440  -26.3673   -9.1994 N   0  0  0  0  0  0  0  0  0  0  0  0
   17.3553  -25.9082   -7.0568 C   0  0  0  0  0  0  0  0  0  0  0  0
   16.3885  -26.6926   -7.2310 O   0  0  0  0  0  0  0  0  0  0  0  0
   17.5791  -28.3794   -1.5365 C   0  0  0  0  0  0  0  0  0  0  0  0
   16.8787  -27.4265   -2.4419 C   0  0  0  0  0  0  0  0  0  0  0  0
   17.5741  -27.0185   -3.6729 C   0  0  2  0  0  0  0  0  0  0  0  0
   18.9705  -26.5657   -3.3012 C   0  0  0  0  0  0  0  0  0  0  0  0
   16.9456  -26.0293   -4.5715 C   0  0  2  0  0  0  0  0  0  0  0  0
   17.7201  -25.5826   -5.6951 N   0  0  0  0  0  0  0  0  0  0  0  0
   16.3193  -24.8839   -3.8383 C   0  0  0  0  0  0  0  0  0  0  0  0
   17.0002  -23.8715   -3.5327 O   0  0  0  0  0  0  0  0  0  0  0  0
   10.7755  -22.4990   -3.0033 C   0  0  0  0  0  0  0  0  0  0  0  0
   12.2803  -22.2094   -2.7652 C   0  0  2  0  0  0  0  0  0  0  0  0
   12.6112  -20.8875   -3.4332 C   0  0  0  0  0  0  0  0  0  0  0  0
   12.9984  -23.3896   -3.3337 C   0  0  0  0  0  0  0  0  0  0  0  0
   14.3382  -23.7015   -2.8013 C   0  0  2  0  0  0  0  0  0  0  0  0
   14.9543  -24.8687   -3.4515 N   0  0  0  0  0  0  0  0  0  0  0  0
   14.3700  -23.8515   -1.3426 C   0  0  0  0  0  0  0  0  0  0  0  0
   14.1485  -24.9477   -0.8103 O   0  0  0  0  0  0  0  0  0  0  0  0
   14.6491  -22.7505   -0.5558 O   0  0  0  0  0  0  0  0  0  0  0  0
  2  1  1  1
  3  2  1  0
  4  2  1  0
  4  5  1  0
  5  6  1  6
  7  5  1  0
  7  8  2  0
  9 10  1  0
 11 13  1  0
 11 10  1  0
 11 12  1  1
 13 14  1  6
 14  7  1  0
 15 13  1  0
 16 15  2  0
 18 17  1  6
 18 20  1  0
 19 18  1  0
 21 20  1  6
 21 23  1  0
 21 22  1  0
 22 15  1  0
 23 25  1  0
 24 23  2  0
M  END
$$$$
