LIL.pdb
     RDKit          3D

 25 24  0  0  1  0  0  0  0  0999 V2000
   29.9666  -18.5329  -14.1999 C   0  0  0  0  0  0  0  0  0  0  0  0
   29.1639  -19.7478  -14.6092 C   0  0  2  0  0  0  0  0  0  0  0  0
   28.2709  -19.3177  -15.7573 C   0  0  0  0  0  0  0  0  0  0  0  0
   28.3222  -20.2890  -13.5074 C   0  0  0  0  0  0  0  0  0  0  0  0
   29.1112  -20.7292  -12.3047 C   0  0  2  0  0  0  0  0  0  0  0  0
   29.8959  -21.8927  -12.6731 N   0  0  0  0  0  0  0  0  0  0  0  0
   28.2571  -21.1156  -11.1560 C   0  0  0  0  0  0  0  0  0  0  0  0
   27.7294  -22.2538  -11.0760 O   0  0  0  0  0  0  0  0  0  0  0  0
   28.6791  -19.4951   -5.7425 C   0  0  0  0  0  0  0  0  0  0  0  0
   28.4682  -20.1174   -7.0791 C   0  0  0  0  0  0  0  0  0  0  0  0
   27.1878  -19.8602   -7.7571 C   0  0  2  0  0  0  0  0  0  0  0  0
   26.0675  -20.2996   -6.8378 C   0  0  0  0  0  0  0  0  0  0  0  0
   26.9628  -20.3922   -9.1162 C   0  0  2  0  0  0  0  0  0  0  0  0
   28.0046  -20.1802  -10.0816 N   0  0  0  0  0  0  0  0  0  0  0  0
   25.6152  -20.0440   -9.6680 C   0  0  0  0  0  0  0  0  0  0  0  0
   25.3179  -18.8486   -9.9222 O   0  0  0  0  0  0  0  0  0  0  0  0
   22.5035  -22.0641  -14.1707 C   0  0  0  0  0  0  0  0  0  0  0  0
   22.2989  -21.0851  -12.9856 C   0  0  2  0  0  0  0  0  0  0  0  0
   22.2338  -19.6780  -13.5502 C   0  0  0  0  0  0  0  0  0  0  0  0
   23.4535  -21.3347  -12.0710 C   0  0  0  0  0  0  0  0  0  0  0  0
   23.4207  -20.7093  -10.7355 C   0  0  2  0  0  0  0  0  0  0  0  0
   24.6146  -21.0147   -9.9318 N   0  0  0  0  0  0  0  0  0  0  0  0
   22.2018  -21.0090   -9.9767 C   0  0  0  0  0  0  0  0  0  0  0  0
   22.2593  -21.5794   -8.8788 O   0  0  0  0  0  0  0  0  0  0  0  0
   20.9744  -20.6498  -10.4998 O   0  0  0  0  0  0  0  0  0  0  0  0
  2  1  1  1
  3  2  1  0
  4  2  1  0
  4  5  1  0
  5  6  1  6
  7  5  1  0
  7  8  2  0
  9 10  1  0
 11 13  1  0
 11 10  1  0
 11 12  1  1
 13 14  1  6
 14  7  1  0
 15 13  1  0
 16 15  2  0
 18 17  1  6
 18 20  1  0
 19 18  1  0
 21 20  1  6
 21 23  1  0
 21 22  1  0
 22 15  1  0
 23 25  1  0
 24 23  2  0
M  END
$$$$
