PGL.pdb
     RDKit          3D

 20 20  0  0  1  0  0  0  0  0999 V2000
    7.1417  -14.8099   20.5336 N   0  0  0  0  0  0  0  0  0  0  0  0
    6.9803  -13.3783   20.5567 C   0  0  0  0  0  0  0  0  0  0  0  0
    7.5874  -12.8202   19.3112 C   0  0  0  0  0  0  0  0  0  0  0  0
    8.3290  -13.9905   18.6579 C   0  0  0  0  0  0  0  0  0  0  0  0
    8.2751  -15.0965   19.6800 C   0  0  1  0  0  0  0  0  0  0  0  0
    9.4719  -15.2030   20.5069 C   0  0  0  0  0  0  0  0  0  0  0  0
   10.6043  -15.3024   19.9502 O   0  0  0  0  0  0  0  0  0  0  0  0
    9.3385  -15.1927   21.9358 N   0  0  0  0  0  0  0  0  0  0  0  0
   10.4310  -15.5619   22.7979 C   0  0  0  0  0  0  0  0  0  0  0  0
   10.0343  -15.3800   24.2132 C   0  0  0  0  0  0  0  0  0  0  0  0
   10.8929  -15.5893   25.1455 O   0  0  0  0  0  0  0  0  0  0  0  0
    8.0227  -12.2286   25.3409 C   0  0  0  0  0  0  0  0  0  0  0  0
    7.3051  -12.8773   26.5665 C   0  0  1  0  0  0  0  0  0  0  0  0
    5.9836  -12.1057   26.6357 C   0  0  0  0  0  0  0  0  0  0  0  0
    7.1428  -14.3235   26.3004 C   0  0  0  0  0  0  0  0  0  0  0  0
    8.3609  -15.1257   26.0868 C   0  0  2  0  0  0  0  0  0  0  0  0
    8.7553  -14.9880   24.6433 N   0  0  0  0  0  0  0  0  0  0  0  0
    8.3160  -16.5535   26.3213 C   0  0  0  0  0  0  0  0  0  0  0  0
    8.4444  -17.0823   27.4478 O   0  0  0  0  0  0  0  0  0  0  0  0
    8.1170  -17.4544   25.2505 O   0  0  0  0  0  0  0  0  0  0  0  0
  2  1  1  0
  3  2  1  0
  3  4  1  0
  5  1  1  0
  5  4  1  0
  5  6  1  1
  7  6  2  0
  8  6  1  0
  9 10  1  0
  9  8  1  0
 10 17  1  0
 11 10  2  0
 13 12  1  6
 13 15  1  0
 13 14  1  0
 16 15  1  6
 16 18  1  0
 17 16  1  0
 18 20  1  0
 19 18  2  0
M  END
$$$$
