PGL.pdb
     RDKit          3D

 20 20  0  0  1  0  0  0  0  0999 V2000
    7.7506  -16.7569   20.6273 N   0  0  0  0  0  0  0  0  0  0  0  0
    6.5811  -16.6226   21.4580 C   0  0  0  0  0  0  0  0  0  0  0  0
    6.0353  -15.2441   21.2757 C   0  0  0  0  0  0  0  0  0  0  0  0
    7.0918  -14.4902   20.4622 C   0  0  0  0  0  0  0  0  0  0  0  0
    8.2728  -15.4246   20.4092 C   0  0  1  0  0  0  0  0  0  0  0  0
    9.2958  -15.1502   21.4120 C   0  0  0  0  0  0  0  0  0  0  0  0
    9.7288  -13.9688   21.5499 O   0  0  0  0  0  0  0  0  0  0  0  0
    9.7893  -16.2277   22.2214 N   0  0  0  0  0  0  0  0  0  0  0  0
   10.8743  -16.0385   23.1488 C   0  0  0  0  0  0  0  0  0  0  0  0
   10.3352  -15.8192   24.5107 C   0  0  0  0  0  0  0  0  0  0  0  0
   11.1278  -15.8546   25.5210 O   0  0  0  0  0  0  0  0  0  0  0  0
    5.8693  -12.6812   25.6407 C   0  0  0  0  0  0  0  0  0  0  0  0
    7.3299  -13.2272   25.7204 C   0  0  1  0  0  0  0  0  0  0  0  0
    8.0080  -12.2480   26.6835 C   0  0  0  0  0  0  0  0  0  0  0  0
    7.2810  -14.6202   26.2161 C   0  0  0  0  0  0  0  0  0  0  0  0
    8.5375  -15.3908   26.2312 C   0  0  2  0  0  0  0  0  0  0  0  0
    8.9845  -15.5701   24.8078 N   0  0  0  0  0  0  0  0  0  0  0  0
    8.5396  -16.7268   26.7885 C   0  0  0  0  0  0  0  0  0  0  0  0
    8.6085  -16.9745   28.0129 O   0  0  0  0  0  0  0  0  0  0  0  0
    8.4605  -17.8596   25.9468 O   0  0  0  0  0  0  0  0  0  0  0  0
  2  1  1  0
  3  2  1  0
  3  4  1  0
  5  1  1  0
  5  4  1  0
  5  6  1  1
  7  6  2  0
  8  6  1  0
  9 10  1  0
  9  8  1  0
 10 17  1  0
 11 10  2  0
 13 12  1  1
 13 15  1  0
 13 14  1  0
 16 15  1  6
 16 18  1  0
 17 16  1  0
 18 20  1  0
 19 18  2  0
M  END
$$$$
