PGL.pdb
     RDKit          3D

 20 20  0  0  1  0  0  0  0  0999 V2000
    8.4828  -14.5884   18.5876 N   0  0  0  0  0  0  0  0  0  0  0  0
    7.1711  -13.9941   18.5390 C   0  0  0  0  0  0  0  0  0  0  0  0
    7.2063  -12.7217   19.3207 C   0  0  0  0  0  0  0  0  0  0  0  0
    8.5620  -12.7170   20.0335 C   0  0  0  0  0  0  0  0  0  0  0  0
    9.1323  -14.0887   19.7808 C   0  0  1  0  0  0  0  0  0  0  0  0
    8.9120  -15.0356   20.8681 C   0  0  0  0  0  0  0  0  0  0  0  0
    7.7278  -15.3339   21.2012 O   0  0  0  0  0  0  0  0  0  0  0  0
   10.0448  -15.6090   21.5371 N   0  0  0  0  0  0  0  0  0  0  0  0
    9.8885  -16.5972   22.5726 C   0  0  0  0  0  0  0  0  0  0  0  0
    9.6429  -15.9268   23.8701 C   0  0  0  0  0  0  0  0  0  0  0  0
   10.3233  -16.2737   24.9031 O   0  0  0  0  0  0  0  0  0  0  0  0
    7.8659  -11.8693   27.1775 C   0  0  0  0  0  0  0  0  0  0  0  0
    6.7840  -12.8542   26.6325 C   0  0  1  0  0  0  0  0  0  0  0  0
    5.5627  -11.9491   26.4440 C   0  0  0  0  0  0  0  0  0  0  0  0
    7.2877  -13.4522   25.3766 C   0  0  0  0  0  0  0  0  0  0  0  0
    8.3661  -14.4526   25.4738 C   0  0  2  0  0  0  0  0  0  0  0  0
    8.6955  -14.9108   24.0810 N   0  0  0  0  0  0  0  0  0  0  0  0
    8.1322  -15.6727   26.2168 C   0  0  0  0  0  0  0  0  0  0  0  0
    7.3352  -16.5683   25.8591 O   0  0  0  0  0  0  0  0  0  0  0  0
    8.8178  -15.9227   27.4273 O   0  0  0  0  0  0  0  0  0  0  0  0
  2  1  1  0
  3  2  1  0
  3  4  1  0
  5  1  1  0
  5  4  1  0
  5  6  1  1
  7  6  2  0
  8  6  1  0
  9 10  1  0
  9  8  1  0
 10 17  1  0
 11 10  2  0
 13 12  1  6
 13 15  1  0
 13 14  1  0
 16 15  1  6
 16 18  1  0
 17 16  1  0
 18 20  1  0
 19 18  2  0
M  END
$$$$
