PGL.pdb
     RDKit          3D

 20 20  0  0  1  0  0  0  0  0999 V2000
    7.5755  -14.5976   18.9895 N   0  0  0  0  0  0  0  0  0  0  0  0
    6.8145  -13.4400   19.3854 C   0  0  0  0  0  0  0  0  0  0  0  0
    7.7696  -12.3230   19.6530 C   0  0  0  0  0  0  0  0  0  0  0  0
    9.1626  -12.9590   19.6182 C   0  0  0  0  0  0  0  0  0  0  0  0
    8.9049  -14.4417   19.5408 C   0  0  1  0  0  0  0  0  0  0  0  0
    8.9637  -15.1251   20.8279 C   0  0  0  0  0  0  0  0  0  0  0  0
   10.0694  -15.2038   21.4391 O   0  0  0  0  0  0  0  0  0  0  0  0
    7.7645  -15.6942   21.3736 N   0  0  0  0  0  0  0  0  0  0  0  0
    7.7942  -16.5460   22.5341 C   0  0  0  0  0  0  0  0  0  0  0  0
    8.3108  -15.7883   23.6971 C   0  0  0  0  0  0  0  0  0  0  0  0
    9.5576  -15.4840   23.7540 O   0  0  0  0  0  0  0  0  0  0  0  0
    5.5841  -12.0785   26.8395 C   0  0  0  0  0  0  0  0  0  0  0  0
    6.7015  -12.7456   25.9768 C   0  0  1  0  0  0  0  0  0  0  0  0
    7.7388  -11.6271   25.8382 C   0  0  0  0  0  0  0  0  0  0  0  0
    7.1975  -13.9387   26.6973 C   0  0  0  0  0  0  0  0  0  0  0  0
    8.1846  -14.7948   26.0149 C   0  0  2  0  0  0  0  0  0  0  0  0
    7.5316  -15.3599   24.7851 N   0  0  0  0  0  0  0  0  0  0  0  0
    8.7199  -15.9466   26.7094 C   0  0  0  0  0  0  0  0  0  0  0  0
    8.3409  -17.1223   26.5108 O   0  0  0  0  0  0  0  0  0  0  0  0
    9.7347  -15.7954   27.6816 O   0  0  0  0  0  0  0  0  0  0  0  0
  2  1  1  0
  3  2  1  0
  3  4  1  0
  5  1  1  0
  5  4  1  0
  5  6  1  1
  7  6  2  0
  8  6  1  0
  9 10  1  0
  9  8  1  0
 10 17  1  0
 11 10  2  0
 13 12  1  1
 13 15  1  0
 13 14  1  0
 16 15  1  1
 16 18  1  0
 17 16  1  0
 18 20  1  0
 19 18  2  0
M  END
$$$$
