PGL.pdb
     RDKit          3D

 20 20  0  0  1  0  0  0  0  0999 V2000
    9.5676  -13.8990   19.3178 N   0  0  0  0  0  0  0  0  0  0  0  0
    8.7883  -14.3668   18.1998 C   0  0  0  0  0  0  0  0  0  0  0  0
    7.4998  -13.6113   18.1806 C   0  0  0  0  0  0  0  0  0  0  0  0
    7.4642  -12.8300   19.4977 C   0  0  0  0  0  0  0  0  0  0  0  0
    8.6392  -13.3513   20.2840 C   0  0  1  0  0  0  0  0  0  0  0  0
    8.2972  -14.3900   21.2491 C   0  0  0  0  0  0  0  0  0  0  0  0
    7.1936  -14.3256   21.8657 O   0  0  0  0  0  0  0  0  0  0  0  0
    9.2213  -15.4638   21.4786 N   0  0  0  0  0  0  0  0  0  0  0  0
    8.9799  -16.4644   22.4853 C   0  0  0  0  0  0  0  0  0  0  0  0
    9.1951  -15.8825   23.8301 C   0  0  0  0  0  0  0  0  0  0  0  0
   10.3844  -15.8180   24.3115 O   0  0  0  0  0  0  0  0  0  0  0  0
    5.7203  -12.3002   26.4720 C   0  0  0  0  0  0  0  0  0  0  0  0
    7.0124  -12.9062   25.8386 C   0  0  1  0  0  0  0  0  0  0  0  0
    8.0436  -11.7907   26.0341 C   0  0  0  0  0  0  0  0  0  0  0  0
    7.3397  -14.1588   26.5546 C   0  0  0  0  0  0  0  0  0  0  0  0
    8.4817  -14.9531   26.0668 C   0  0  2  0  0  0  0  0  0  0  0  0
    8.1775  -15.3792   24.6582 N   0  0  0  0  0  0  0  0  0  0  0  0
    8.8345  -16.1776   26.7534 C   0  0  0  0  0  0  0  0  0  0  0  0
    8.4733  -17.3168   26.3833 O   0  0  0  0  0  0  0  0  0  0  0  0
    9.6342  -16.1466   27.9185 O   0  0  0  0  0  0  0  0  0  0  0  0
  2  1  1  0
  3  2  1  0
  3  4  1  0
  5  1  1  0
  5  4  1  0
  5  6  1  1
  7  6  2  0
  8  6  1  0
  9 10  1  0
  9  8  1  0
 10 17  1  0
 11 10  2  0
 13 12  1  1
 13 15  1  0
 13 14  1  0
 16 15  1  1
 16 18  1  0
 17 16  1  0
 18 20  1  0
 19 18  2  0
M  END
$$$$
