PGL.pdb
     RDKit          3D

 20 20  0  0  1  0  0  0  0  0999 V2000
    7.6977  -18.2192   21.1436 N   0  0  0  0  0  0  0  0  0  0  0  0
    6.3276  -17.7740   21.1211 C   0  0  0  0  0  0  0  0  0  0  0  0
    5.9816  -17.4001   19.7168 C   0  0  0  0  0  0  0  0  0  0  0  0
    7.3061  -17.4288   18.9479 C   0  0  0  0  0  0  0  0  0  0  0  0
    8.3606  -17.6132   20.0084 C   0  0  1  0  0  0  0  0  0  0  0  0
    8.9948  -16.3730   20.4408 C   0  0  0  0  0  0  0  0  0  0  0  0
    9.4547  -15.5752   19.5724 O   0  0  0  0  0  0  0  0  0  0  0  0
    9.0833  -16.0843   21.8439 N   0  0  0  0  0  0  0  0  0  0  0  0
   10.1486  -15.2793   22.3825 C   0  0  0  0  0  0  0  0  0  0  0  0
    9.9474  -15.0929   23.8379 C   0  0  0  0  0  0  0  0  0  0  0  0
   10.9672  -15.0115   24.6149 O   0  0  0  0  0  0  0  0  0  0  0  0
    5.5334  -12.5619   25.9215 C   0  0  0  0  0  0  0  0  0  0  0  0
    7.0117  -12.9463   25.5981 C   0  0  1  0  0  0  0  0  0  0  0  0
    7.8001  -11.7442   26.1269 C   0  0  0  0  0  0  0  0  0  0  0  0
    7.3240  -14.2186   26.2854 C   0  0  0  0  0  0  0  0  0  0  0  0
    8.6015  -14.8801   25.9636 C   0  0  2  0  0  0  0  0  0  0  0  0
    8.6952  -14.9970   24.4684 N   0  0  0  0  0  0  0  0  0  0  0  0
    8.8455  -16.2202   26.4534 C   0  0  0  0  0  0  0  0  0  0  0  0
    8.9087  -16.5216   27.6660 O   0  0  0  0  0  0  0  0  0  0  0  0
    9.0309  -17.2944   25.5538 O   0  0  0  0  0  0  0  0  0  0  0  0
  2  1  1  0
  3  2  1  0
  3  4  1  0
  5  1  1  0
  5  4  1  0
  5  6  1  1
  7  6  2  0
  8  6  1  0
  9 10  1  0
  9  8  1  0
 10 17  1  0
 11 10  2  0
 13 12  1  1
 13 15  1  0
 13 14  1  0
 16 15  1  6
 16 18  1  0
 17 16  1  0
 18 20  1  0
 19 18  2  0
M  END
$$$$
