PGL.pdb
     RDKit          3D

 20 20  0  0  1  0  0  0  0  0999 V2000
    6.5822  -18.8089   22.2561 N   0  0  0  0  0  0  0  0  0  0  0  0
    5.2078  -18.5283   22.5850 C   0  0  0  0  0  0  0  0  0  0  0  0
    4.4157  -18.5281   21.3185 C   0  0  0  0  0  0  0  0  0  0  0  0
    5.4493  -18.5939   20.1898 C   0  0  0  0  0  0  0  0  0  0  0  0
    6.7784  -18.4155   20.8769 C   0  0  1  0  0  0  0  0  0  0  0  0
    7.2874  -17.0490   20.8453 C   0  0  0  0  0  0  0  0  0  0  0  0
    7.3057  -16.4185   19.7478 O   0  0  0  0  0  0  0  0  0  0  0  0
    7.7569  -16.4487   22.0614 N   0  0  0  0  0  0  0  0  0  0  0  0
    8.9439  -15.6343   22.0912 C   0  0  0  0  0  0  0  0  0  0  0  0
    9.1326  -15.0753   23.4496 C   0  0  0  0  0  0  0  0  0  0  0  0
   10.1624  -14.3495   23.7004 O   0  0  0  0  0  0  0  0  0  0  0  0
    5.7722  -12.5217   26.4181 C   0  0  0  0  0  0  0  0  0  0  0  0
    7.0456  -13.0584   25.6914 C   0  0  1  0  0  0  0  0  0  0  0  0
    7.9023  -11.7990   25.5295 C   0  0  0  0  0  0  0  0  0  0  0  0
    7.6636  -14.0999   26.5411 C   0  0  0  0  0  0  0  0  0  0  0  0
    8.6903  -14.9656   25.9331 C   0  0  2  0  0  0  0  0  0  0  0  0
    8.2558  -15.2780   24.5289 N   0  0  0  0  0  0  0  0  0  0  0  0
    8.9682  -16.2556   26.5278 C   0  0  0  0  0  0  0  0  0  0  0  0
    8.8594  -17.3443   25.9210 O   0  0  0  0  0  0  0  0  0  0  0  0
    9.3925  -16.3537   27.8725 O   0  0  0  0  0  0  0  0  0  0  0  0
  2  1  1  0
  3  2  1  0
  3  4  1  0
  5  1  1  0
  5  4  1  0
  5  6  1  1
  7  6  2  0
  8  6  1  0
  9 10  1  0
  9  8  1  0
 10 17  1  0
 11 10  2  0
 13 12  1  1
 13 15  1  0
 13 14  1  0
 16 15  1  1
 16 18  1  0
 17 16  1  0
 18 20  1  0
 19 18  2  0
M  END
$$$$
