PGL.pdb
     RDKit          3D

 20 20  0  0  1  0  0  0  0  0999 V2000
    8.9694  -14.8817   18.9187 N   0  0  0  0  0  0  0  0  0  0  0  0
    7.8672  -14.7000   18.0087 C   0  0  0  0  0  0  0  0  0  0  0  0
    7.4112  -13.2808   18.1058 C   0  0  0  0  0  0  0  0  0  0  0  0
    8.1611  -12.6914   19.3043 C   0  0  0  0  0  0  0  0  0  0  0  0
    8.8425  -13.8715   19.9477 C   0  0  1  0  0  0  0  0  0  0  0  0
    8.1134  -14.4386   21.0764 C   0  0  0  0  0  0  0  0  0  0  0  0
    7.4503  -13.6725   21.8352 O   0  0  0  0  0  0  0  0  0  0  0  0
    8.1642  -15.8550   21.3020 N   0  0  0  0  0  0  0  0  0  0  0  0
    7.4331  -16.4742   22.3767 C   0  0  0  0  0  0  0  0  0  0  0  0
    7.9650  -16.0068   23.6775 C   0  0  0  0  0  0  0  0  0  0  0  0
    9.2244  -16.0913   23.9161 O   0  0  0  0  0  0  0  0  0  0  0  0
    5.5789  -12.0084   26.7429 C   0  0  0  0  0  0  0  0  0  0  0  0
    6.6573  -12.8032   25.9409 C   0  0  1  0  0  0  0  0  0  0  0  0
    7.8431  -11.8342   25.9111 C   0  0  0  0  0  0  0  0  0  0  0  0
    6.9332  -14.0680   26.6570 C   0  0  0  0  0  0  0  0  0  0  0  0
    7.8246  -15.0467   26.0086 C   0  0  2  0  0  0  0  0  0  0  0  0
    7.1866  -15.4624   24.7130 N   0  0  0  0  0  0  0  0  0  0  0  0
    8.1213  -16.2899   26.6881 C   0  0  0  0  0  0  0  0  0  0  0  0
    7.4827  -17.3519   26.5153 O   0  0  0  0  0  0  0  0  0  0  0  0
    9.1862  -16.3696   27.6141 O   0  0  0  0  0  0  0  0  0  0  0  0
  2  1  1  0
  3  2  1  0
  3  4  1  0
  5  1  1  0
  5  4  1  0
  5  6  1  1
  7  6  2  0
  8  6  1  0
  9 10  1  0
  9  8  1  0
 10 17  1  0
 11 10  2  0
 13 12  1  1
 13 15  1  0
 13 14  1  0
 16 15  1  1
 16 18  1  0
 17 16  1  0
 18 20  1  0
 19 18  2  0
M  END
$$$$
