PGL.pdb
     RDKit          3D

 20 20  0  0  1  0  0  0  0  0999 V2000
    7.4585  -15.8993   20.1293 N   0  0  0  0  0  0  0  0  0  0  0  0
    6.5768  -14.9839   20.8081 C   0  0  0  0  0  0  0  0  0  0  0  0
    6.8254  -13.6122   20.2712 C   0  0  0  0  0  0  0  0  0  0  0  0
    8.0770  -13.7360   19.3969 C   0  0  0  0  0  0  0  0  0  0  0  0
    8.5892  -15.1292   19.6563 C   0  0  1  0  0  0  0  0  0  0  0  0
    9.6540  -15.1974   20.6507 C   0  0  0  0  0  0  0  0  0  0  0  0
   10.6499  -14.4229   20.5480 O   0  0  0  0  0  0  0  0  0  0  0  0
    9.5487  -16.1430   21.7252 N   0  0  0  0  0  0  0  0  0  0  0  0
   10.6162  -16.3292   22.6733 C   0  0  0  0  0  0  0  0  0  0  0  0
   10.2192  -15.7752   23.9881 C   0  0  0  0  0  0  0  0  0  0  0  0
   11.0806  -15.7177   24.9394 O   0  0  0  0  0  0  0  0  0  0  0  0
    6.0341  -11.7964   25.8474 C   0  0  0  0  0  0  0  0  0  0  0  0
    7.4085  -12.4679   26.1600 C   0  0  1  0  0  0  0  0  0  0  0  0
    7.3781  -12.6135   27.6845 C   0  0  0  0  0  0  0  0  0  0  0  0
    7.4743  -13.7558   25.4350 C   0  0  0  0  0  0  0  0  0  0  0  0
    8.6871  -14.5775   25.5986 C   0  0  2  0  0  0  0  0  0  0  0  0
    8.9371  -15.2924   24.3007 N   0  0  0  0  0  0  0  0  0  0  0  0
    8.7030  -15.6206   26.6021 C   0  0  0  0  0  0  0  0  0  0  0  0
    9.1182  -15.4609   27.7715 O   0  0  0  0  0  0  0  0  0  0  0  0
    8.2325  -16.9189   26.3005 O   0  0  0  0  0  0  0  0  0  0  0  0
  2  1  1  0
  3  2  1  0
  3  4  1  0
  5  1  1  0
  5  4  1  0
  5  6  1  1
  7  6  2  0
  8  6  1  0
  9 10  1  0
  9  8  1  0
 10 17  1  0
 11 10  2  0
 13 12  1  6
 13 15  1  0
 13 14  1  0
 16 15  1  6
 16 18  1  0
 17 16  1  0
 18 20  1  0
 19 18  2  0
M  END
$$$$
