PGL.pdb
     RDKit          3D

 20 20  0  0  1  0  0  0  0  0999 V2000
    7.5658  -14.6319   19.3333 N   0  0  0  0  0  0  0  0  0  0  0  0
    6.5395  -13.7849   19.8860 C   0  0  0  0  0  0  0  0  0  0  0  0
    7.1164  -12.4213   20.0837 C   0  0  0  0  0  0  0  0  0  0  0  0
    8.6198  -12.5730   19.8326 C   0  0  0  0  0  0  0  0  0  0  0  0
    8.8399  -14.0588   19.7122 C   0  0  1  0  0  0  0  0  0  0  0  0
    9.2950  -14.6958   20.9428 C   0  0  0  0  0  0  0  0  0  0  0  0
   10.4043  -14.3520   21.4464 O   0  0  0  0  0  0  0  0  0  0  0  0
    8.4735  -15.7000   21.5564 N   0  0  0  0  0  0  0  0  0  0  0  0
    9.0234  -16.6734   22.4637 C   0  0  0  0  0  0  0  0  0  0  0  0
    9.1112  -16.0950   23.8242 C   0  0  0  0  0  0  0  0  0  0  0  0
   10.2379  -16.0910   24.4413 O   0  0  0  0  0  0  0  0  0  0  0  0
    5.6343  -12.3781   26.2976 C   0  0  0  0  0  0  0  0  0  0  0  0
    6.9574  -13.0620   25.8292 C   0  0  1  0  0  0  0  0  0  0  0  0
    8.0381  -12.1223   26.3725 C   0  0  0  0  0  0  0  0  0  0  0  0
    7.0052  -14.4259   26.4003 C   0  0  0  0  0  0  0  0  0  0  0  0
    8.1273  -15.2980   26.0087 C   0  0  2  0  0  0  0  0  0  0  0  0
    8.0324  -15.5327   24.5275 N   0  0  0  0  0  0  0  0  0  0  0  0
    8.2268  -16.6220   26.5853 C   0  0  0  0  0  0  0  0  0  0  0  0
    7.6758  -17.6377   26.1056 O   0  0  0  0  0  0  0  0  0  0  0  0
    8.9792  -16.8419   27.7615 O   0  0  0  0  0  0  0  0  0  0  0  0
  2  1  1  0
  3  2  1  0
  3  4  1  0
  5  1  1  0
  5  4  1  0
  5  6  1  1
  7  6  2  0
  8  6  1  0
  9 10  1  0
  9  8  1  0
 10 17  1  0
 11 10  2  0
 13 12  1  1
 13 15  1  0
 13 14  1  0
 16 15  1  1
 16 18  1  0
 17 16  1  0
 18 20  1  0
 19 18  2  0
M  END
$$$$
