TMA.pdb
     RDKit          3D

 21 20  0  0  1  0  0  0  0  0999 V2000
   25.3964  -32.2990   -5.9739 C   0  0  0  0  0  0  0  0  0  0  0  0
   25.1463  -32.8341   -7.3682 C   0  0  1  0  0  0  0  0  0  0  0  0
   24.2318  -32.0263   -8.0238 O   0  0  0  0  0  0  0  0  0  0  0  0
   26.4690  -32.8982   -8.0998 C   0  0  2  0  0  0  0  0  0  0  0  0
   26.2313  -33.3164   -9.4572 N   0  0  0  0  0  0  0  0  0  0  0  0
   27.4444  -33.7726   -7.4046 C   0  0  0  0  0  0  0  0  0  0  0  0
   27.2552  -35.0157   -7.3737 O   0  0  0  0  0  0  0  0  0  0  0  0
   34.8580  -34.9752   -4.9452 C   0  0  0  0  0  0  0  0  0  0  0  0
   33.6342  -33.8795   -5.6562 S   0  0  0  0  0  0  0  0  0  0  0  0
   31.9498  -34.2257   -5.1846 C   0  0  0  0  0  0  0  0  0  0  0  0
   30.9124  -33.4065   -5.8730 C   0  0  0  0  0  0  0  0  0  0  0  0
   29.5854  -34.0632   -6.0675 C   0  0  2  0  0  0  0  0  0  0  0  0
   28.6107  -33.2932   -6.7521 N   0  0  0  0  0  0  0  0  0  0  0  0
   29.0965  -34.6336   -4.8081 C   0  0  0  0  0  0  0  0  0  0  0  0
   28.5818  -33.8856   -3.9468 O   0  0  0  0  0  0  0  0  0  0  0  0
   28.9150  -38.1127   -3.4146 C   0  0  0  0  0  0  0  0  0  0  0  0
   28.8139  -36.6109   -3.2670 C   0  0  2  0  0  0  0  0  0  0  0  0
   29.1921  -36.0213   -4.5386 N   0  0  0  0  0  0  0  0  0  0  0  0
   29.7328  -36.2099   -2.1689 C   0  0  0  0  0  0  0  0  0  0  0  0
   30.9783  -36.0819   -2.3436 O   0  0  0  0  0  0  0  0  0  0  0  0
   29.1760  -35.9773   -0.9305 O   0  0  0  0  0  0  0  0  0  0  0  0
  2  3  1  0
  2  4  1  0
  2  1  1  1
  4  5  1  6
  6  4  1  0
  6  7  2  0
  9  8  1  0
  9 10  1  0
 10 11  1  0
 12 11  1  1
 12 13  1  0
 12 14  1  0
 13  6  1  0
 14 15  2  0
 14 18  1  0
 17 16  1  6
 17 19  1  0
 18 17  1  0
 19 20  2  0
 19 21  1  0
M  END
$$$$
