TMA.pdb
     RDKit          3D

 21 20  0  0  1  0  0  0  0  0999 V2000
   15.9240  -10.0206  -19.0621 C   0  0  0  0  0  0  0  0  0  0  0  0
   15.8356  -11.3888  -18.4193 C   0  0  1  0  0  0  0  0  0  0  0  0
   15.4012  -12.3177  -19.3506 O   0  0  0  0  0  0  0  0  0  0  0  0
   17.1964  -11.7432  -17.8610 C   0  0  2  0  0  0  0  0  0  0  0  0
   17.1666  -13.1034  -17.3885 N   0  0  0  0  0  0  0  0  0  0  0  0
   17.6282  -10.7916  -16.8088 C   0  0  0  0  0  0  0  0  0  0  0  0
   17.1052  -10.8468  -15.6663 O   0  0  0  0  0  0  0  0  0  0  0  0
   23.0331  -10.3272  -13.7967 C   0  0  0  0  0  0  0  0  0  0  0  0
   22.6649   -8.5792  -13.9106 S   0  0  0  0  0  0  0  0  0  0  0  0
   21.0471   -8.1915  -14.5525 C   0  0  0  0  0  0  0  0  0  0  0  0
   20.4960   -9.1721  -15.5303 C   0  0  0  0  0  0  0  0  0  0  0  0
   19.1208   -8.8857  -16.0370 C   0  0  2  0  0  0  0  0  0  0  0  0
   18.6186   -9.7933  -17.0043 N   0  0  0  0  0  0  0  0  0  0  0  0
   18.9947   -7.4806  -16.4371 C   0  0  0  0  0  0  0  0  0  0  0  0
   19.5451   -7.0832  -17.4885 O   0  0  0  0  0  0  0  0  0  0  0  0
   17.0433   -4.5555  -15.1640 C   0  0  0  0  0  0  0  0  0  0  0  0
   18.1796   -5.1385  -15.9742 C   0  0  2  0  0  0  0  0  0  0  0  0
   18.2597   -6.5531  -15.6581 N   0  0  0  0  0  0  0  0  0  0  0  0
   19.4174   -4.4086  -15.5919 C   0  0  0  0  0  0  0  0  0  0  0  0
   20.3528   -4.9591  -14.9436 O   0  0  0  0  0  0  0  0  0  0  0  0
   19.5171   -3.0884  -15.9725 O   0  0  0  0  0  0  0  0  0  0  0  0
  2  3  1  0
  2  4  1  0
  2  1  1  6
  4  5  1  1
  6  4  1  0
  6  7  2  0
  9  8  1  0
  9 10  1  0
 10 11  1  0
 12 11  1  6
 12 13  1  0
 12 14  1  0
 13  6  1  0
 14 15  2  0
 14 18  1  0
 17 16  1  1
 17 19  1  0
 18 17  1  0
 19 20  2  0
 19 21  1  0
M  END
$$$$
