TMA.pdb
     RDKit          3D

 21 20  0  0  1  0  0  0  0  0999 V2000
   20.8678  -10.3159  -19.5370 C   0  0  0  0  0  0  0  0  0  0  0  0
   20.6735  -11.7474  -19.0829 C   0  0  1  0  0  0  0  0  0  0  0  0
   20.2281  -12.5197  -20.1432 O   0  0  0  0  0  0  0  0  0  0  0  0
   21.9860  -12.2548  -18.5273 C   0  0  2  0  0  0  0  0  0  0  0  0
   21.8606  -13.6617  -18.2464 N   0  0  0  0  0  0  0  0  0  0  0  0
   22.4206  -11.4806  -17.3395 C   0  0  0  0  0  0  0  0  0  0  0  0
   21.8481  -11.6617  -16.2343 O   0  0  0  0  0  0  0  0  0  0  0  0
   28.4704  -12.7120  -15.0216 C   0  0  0  0  0  0  0  0  0  0  0  0
   27.7920  -11.1490  -15.5702 S   0  0  0  0  0  0  0  0  0  0  0  0
   26.0179  -11.1196  -15.7470 C   0  0  0  0  0  0  0  0  0  0  0  0
   25.4291   -9.7864  -16.0593 C   0  0  0  0  0  0  0  0  0  0  0  0
   23.9506   -9.7586  -16.2673 C   0  0  2  0  0  0  0  0  0  0  0  0
   23.4673  -10.5216  -17.3608 N   0  0  0  0  0  0  0  0  0  0  0  0
   23.4478   -8.3812  -16.2517 C   0  0  0  0  0  0  0  0  0  0  0  0
   23.5487   -7.6724  -17.2782 O   0  0  0  0  0  0  0  0  0  0  0  0
   21.4122   -6.4072  -13.8130 C   0  0  0  0  0  0  0  0  0  0  0  0
   22.2542   -6.5015  -15.0658 C   0  0  2  0  0  0  0  0  0  0  0  0
   22.8455   -7.8270  -15.0952 N   0  0  0  0  0  0  0  0  0  0  0  0
   23.2835   -5.4311  -14.9904 C   0  0  0  0  0  0  0  0  0  0  0  0
   24.5165   -5.6867  -14.8775 O   0  0  0  0  0  0  0  0  0  0  0  0
   22.8456   -4.1262  -15.0482 O   0  0  0  0  0  0  0  0  0  0  0  0
  2  3  1  0
  2  4  1  0
  2  1  1  6
  4  5  1  1
  6  4  1  0
  6  7  2  0
  9  8  1  0
  9 10  1  0
 10 11  1  0
 12 11  1  6
 12 13  1  0
 12 14  1  0
 13  6  1  0
 14 15  2  0
 14 18  1  0
 17 16  1  1
 17 19  1  0
 18 17  1  0
 19 20  2  0
 19 21  1  0
M  END
$$$$
