TMA.pdb
     RDKit          3D

 21 20  0  0  1  0  0  0  0  0999 V2000
   17.7824  -10.7722  -19.8068 C   0  0  0  0  0  0  0  0  0  0  0  0
   17.3189  -11.9870  -19.0305 C   0  0  1  0  0  0  0  0  0  0  0  0
   16.5114  -12.7764  -19.8326 O   0  0  0  0  0  0  0  0  0  0  0  0
   18.5392  -12.7380  -18.5452 C   0  0  2  0  0  0  0  0  0  0  0  0
   18.1191  -13.9934  -17.9780 N   0  0  0  0  0  0  0  0  0  0  0  0
   19.3434  -11.9325  -17.5946 C   0  0  0  0  0  0  0  0  0  0  0  0
   18.8512  -11.6039  -16.4848 O   0  0  0  0  0  0  0  0  0  0  0  0
   26.4942  -10.5621  -14.6883 C   0  0  0  0  0  0  0  0  0  0  0  0
   25.5890  -10.7864  -16.2162 S   0  0  0  0  0  0  0  0  0  0  0  0
   23.8637  -10.3421  -16.1406 C   0  0  0  0  0  0  0  0  0  0  0  0
   22.9737  -11.0737  -17.0861 C   0  0  0  0  0  0  0  0  0  0  0  0
   21.5161  -10.7675  -16.9795 C   0  0  2  0  0  0  0  0  0  0  0  0
   20.6680  -11.4926  -17.8550 N   0  0  0  0  0  0  0  0  0  0  0  0
   21.2838   -9.3199  -17.0113 C   0  0  0  0  0  0  0  0  0  0  0  0
   21.5342   -8.6742  -18.0536 O   0  0  0  0  0  0  0  0  0  0  0  0
   19.3809   -6.9778  -14.8637 C   0  0  0  0  0  0  0  0  0  0  0  0
   20.4583   -7.2114  -15.8990 C   0  0  2  0  0  0  0  0  0  0  0  0
   20.7788   -8.6272  -15.8832 N   0  0  0  0  0  0  0  0  0  0  0  0
   21.6248   -6.3693  -15.5235 C   0  0  0  0  0  0  0  0  0  0  0  0
   22.6917   -6.8626  -15.0579 O   0  0  0  0  0  0  0  0  0  0  0  0
   21.5068   -5.0083  -15.7013 O   0  0  0  0  0  0  0  0  0  0  0  0
  2  3  1  0
  2  4  1  0
  2  1  1  6
  4  5  1  1
  6  4  1  0
  6  7  2  0
  9  8  1  0
  9 10  1  0
 10 11  1  0
 12 11  1  6
 12 13  1  0
 12 14  1  0
 13  6  1  0
 14 15  2  0
 14 18  1  0
 17 16  1  1
 17 19  1  0
 18 17  1  0
 19 20  2  0
 19 21  1  0
M  END
$$$$
