TMA.pdb
     RDKit          3D

 21 20  0  0  1  0  0  0  0  0999 V2000
   19.2349   -8.0491  -20.6246 C   0  0  0  0  0  0  0  0  0  0  0  0
   18.7683   -9.4872  -20.5400 C   0  0  1  0  0  0  0  0  0  0  0  0
   18.6998  -10.0339  -21.8109 O   0  0  0  0  0  0  0  0  0  0  0  0
   19.7251  -10.2484  -19.6489 C   0  0  2  0  0  0  0  0  0  0  0  0
   19.3751  -11.6452  -19.6746 N   0  0  0  0  0  0  0  0  0  0  0  0
   19.7530   -9.7009  -18.2710 C   0  0  0  0  0  0  0  0  0  0  0  0
   18.7662   -9.8761  -17.5110 O   0  0  0  0  0  0  0  0  0  0  0  0
   21.6484   -8.5317  -11.3929 C   0  0  0  0  0  0  0  0  0  0  0  0
   21.5203   -9.1449  -13.0696 S   0  0  0  0  0  0  0  0  0  0  0  0
   22.2615   -8.1013  -14.3110 C   0  0  0  0  0  0  0  0  0  0  0  0
   22.2064   -8.6280  -15.7042 C   0  0  0  0  0  0  0  0  0  0  0  0
   20.9312   -8.3871  -16.4429 C   0  0  2  0  0  0  0  0  0  0  0  0
   20.8456   -8.9716  -17.7323 N   0  0  0  0  0  0  0  0  0  0  0  0
   20.5793   -6.9637  -16.4251 C   0  0  0  0  0  0  0  0  0  0  0  0
   21.2947   -6.1400  -17.0382 O   0  0  0  0  0  0  0  0  0  0  0  0
   17.6726   -5.0256  -15.0648 C   0  0  0  0  0  0  0  0  0  0  0  0
   19.0346   -5.0985  -15.7183 C   0  0  2  0  0  0  0  0  0  0  0  0
   19.4406   -6.4923  -15.7260 N   0  0  0  0  0  0  0  0  0  0  0  0
   19.9572   -4.2512  -14.9172 C   0  0  0  0  0  0  0  0  0  0  0  0
   20.6581   -4.7201  -13.9752 O   0  0  0  0  0  0  0  0  0  0  0  0
   20.0275   -2.9133  -15.2379 O   0  0  0  0  0  0  0  0  0  0  0  0
  2  3  1  0
  2  4  1  0
  2  1  1  6
  4  5  1  1
  6  4  1  0
  6  7  2  0
  9  8  1  0
  9 10  1  0
 10 11  1  0
 12 11  1  6
 12 13  1  0
 12 14  1  0
 13  6  1  0
 14 15  2  0
 14 18  1  0
 17 16  1  1
 17 19  1  0
 18 17  1  0
 19 20  2  0
 19 21  1  0
M  END
$$$$
