TMA.pdb
     RDKit          3D

 21 20  0  0  1  0  0  0  0  0999 V2000
   16.5925   -9.7122  -17.2793 C   0  0  0  0  0  0  0  0  0  0  0  0
   17.5114   -9.8054  -18.4792 C   0  0  1  0  0  0  0  0  0  0  0  0
   17.8711   -8.5338  -18.8946 O   0  0  0  0  0  0  0  0  0  0  0  0
   18.7164  -10.6356  -18.0949 C   0  0  2  0  0  0  0  0  0  0  0  0
   18.2702  -11.9395  -17.6769 N   0  0  0  0  0  0  0  0  0  0  0  0
   19.5433   -9.9662  -17.0618 C   0  0  0  0  0  0  0  0  0  0  0  0
   19.1864  -10.0055  -15.8564 O   0  0  0  0  0  0  0  0  0  0  0  0
   25.9659  -10.2688  -14.6658 C   0  0  0  0  0  0  0  0  0  0  0  0
   25.5987   -8.7095  -15.4643 S   0  0  0  0  0  0  0  0  0  0  0  0
   23.8783   -8.2411  -15.4448 C   0  0  0  0  0  0  0  0  0  0  0  0
   23.0191   -8.9229  -16.4540 C   0  0  0  0  0  0  0  0  0  0  0  0
   21.5680   -8.5720  -16.4194 C   0  0  2  0  0  0  0  0  0  0  0  0
   20.7442   -9.2633  -17.3440 N   0  0  0  0  0  0  0  0  0  0  0  0
   21.3825   -7.1177  -16.4493 C   0  0  0  0  0  0  0  0  0  0  0  0
   21.6275   -6.4825  -17.4995 O   0  0  0  0  0  0  0  0  0  0  0  0
   19.8188   -4.5862  -14.2301 C   0  0  0  0  0  0  0  0  0  0  0  0
   20.8708   -4.9572  -15.2514 C   0  0  2  0  0  0  0  0  0  0  0  0
   20.9291   -6.4065  -15.3108 N   0  0  0  0  0  0  0  0  0  0  0  0
   22.1570   -4.3634  -14.7997 C   0  0  0  0  0  0  0  0  0  0  0  0
   23.0446   -5.0438  -14.2101 O   0  0  0  0  0  0  0  0  0  0  0  0
   22.3573   -3.0231  -15.0473 O   0  0  0  0  0  0  0  0  0  0  0  0
  2  3  1  0
  2  4  1  0
  2  1  1  1
  4  5  1  1
  6  4  1  0
  6  7  2  0
  9  8  1  0
  9 10  1  0
 10 11  1  0
 12 11  1  6
 12 13  1  0
 12 14  1  0
 13  6  1  0
 14 15  2  0
 14 18  1  0
 17 16  1  1
 17 19  1  0
 18 17  1  0
 19 20  2  0
 19 21  1  0
M  END
$$$$
