TMA.pdb
     RDKit          3D

 21 20  0  0  1  0  0  0  0  0999 V2000
   27.0067  -10.7987  -15.1690 C   0  0  0  0  0  0  0  0  0  0  0  0
   26.8019  -11.7314  -16.3442 C   0  0  1  0  0  0  0  0  0  0  0  0
   27.7992  -12.6926  -16.3598 O   0  0  0  0  0  0  0  0  0  0  0  0
   25.4252  -12.3482  -16.2305 C   0  0  2  0  0  0  0  0  0  0  0  0
   25.3160  -13.4237  -17.1820 N   0  0  0  0  0  0  0  0  0  0  0  0
   24.3510  -11.3393  -16.3964 C   0  0  0  0  0  0  0  0  0  0  0  0
   24.0808  -10.9000  -17.5436 O   0  0  0  0  0  0  0  0  0  0  0  0
   18.2286  -13.2380  -15.5235 C   0  0  0  0  0  0  0  0  0  0  0  0
   19.2951  -12.1828  -14.5472 S   0  0  0  0  0  0  0  0  0  0  0  0
   20.2889  -11.0401  -15.4886 C   0  0  0  0  0  0  0  0  0  0  0  0
   21.2678  -10.2424  -14.6969 C   0  0  0  0  0  0  0  0  0  0  0  0
   22.5303   -9.8716  -15.4030 C   0  0  2  0  0  0  0  0  0  0  0  0
   23.5832  -10.8184  -15.3217 N   0  0  0  0  0  0  0  0  0  0  0  0
   22.9441   -8.5097  -15.0503 C   0  0  0  0  0  0  0  0  0  0  0  0
   23.6624   -8.3209  -14.0430 O   0  0  0  0  0  0  0  0  0  0  0  0
   22.4643   -5.1378  -16.6164 C   0  0  0  0  0  0  0  0  0  0  0  0
   22.8291   -6.0205  -15.4438 C   0  0  2  0  0  0  0  0  0  0  0  0
   22.5490   -7.3925  -15.8268 N   0  0  0  0  0  0  0  0  0  0  0  0
   22.0049   -5.5834  -14.2859 C   0  0  0  0  0  0  0  0  0  0  0  0
   20.9276   -6.1629  -13.9669 O   0  0  0  0  0  0  0  0  0  0  0  0
   22.4587   -4.5067  -13.5562 O   0  0  0  0  0  0  0  0  0  0  0  0
  2  3  1  0
  2  4  1  0
  2  1  1  1
  4  5  1  6
  6  4  1  0
  6  7  2  0
  9  8  1  0
  9 10  1  0
 10 11  1  0
 12 11  1  1
 12 13  1  0
 12 14  1  0
 13  6  1  0
 14 15  2  0
 14 18  1  0
 17 16  1  6
 17 19  1  0
 18 17  1  0
 19 20  2  0
 19 21  1  0
M  END
$$$$
