TMA.pdb
     RDKit          3D

 21 20  0  0  1  0  0  0  0  0999 V2000
   16.7826  -11.1686  -15.0761 C   0  0  0  0  0  0  0  0  0  0  0  0
   17.3327  -11.4763  -16.4530 C   0  0  1  0  0  0  0  0  0  0  0  0
   16.3128  -11.9238  -17.2766 O   0  0  0  0  0  0  0  0  0  0  0  0
   17.9890  -10.2259  -16.9957 C   0  0  2  0  0  0  0  0  0  0  0  0
   18.3316  -10.4415  -18.3778 N   0  0  0  0  0  0  0  0  0  0  0  0
   19.1603   -9.8180  -16.1829 C   0  0  0  0  0  0  0  0  0  0  0  0
   19.0202   -9.6049  -14.9513 O   0  0  0  0  0  0  0  0  0  0  0  0
   27.0341   -9.8437  -15.0418 C   0  0  0  0  0  0  0  0  0  0  0  0
   25.6308  -10.2384  -16.0804 S   0  0  0  0  0  0  0  0  0  0  0  0
   24.1069   -9.4326  -15.6241 C   0  0  0  0  0  0  0  0  0  0  0  0
   22.9035   -9.8600  -16.3925 C   0  0  0  0  0  0  0  0  0  0  0  0
   21.6189   -9.1992  -16.0139 C   0  0  2  0  0  0  0  0  0  0  0  0
   20.4671   -9.6455  -16.7107 N   0  0  0  0  0  0  0  0  0  0  0  0
   21.7655   -7.7402  -16.0067 C   0  0  0  0  0  0  0  0  0  0  0  0
   21.8516   -7.1201  -17.0903 O   0  0  0  0  0  0  0  0  0  0  0  0
   21.6381   -5.1280  -13.3284 C   0  0  0  0  0  0  0  0  0  0  0  0
   21.9403   -5.5625  -14.7451 C   0  0  2  0  0  0  0  0  0  0  0  0
   21.8124   -7.0077  -14.7948 N   0  0  0  0  0  0  0  0  0  0  0  0
   23.3212   -5.1117  -15.0626 C   0  0  0  0  0  0  0  0  0  0  0  0
   24.2875   -5.9199  -15.1693 O   0  0  0  0  0  0  0  0  0  0  0  0
   23.5210   -3.7603  -15.2407 O   0  0  0  0  0  0  0  0  0  0  0  0
  2  3  1  0
  2  4  1  0
  2  1  1  1
  4  5  1  6
  6  4  1  0
  6  7  2  0
  9  8  1  0
  9 10  1  0
 10 11  1  0
 12 11  1  6
 12 13  1  0
 12 14  1  0
 13  6  1  0
 14 15  2  0
 14 18  1  0
 17 16  1  1
 17 19  1  0
 18 17  1  0
 19 20  2  0
 19 21  1  0
M  END
$$$$
