TMA.pdb
     RDKit          3D

 21 20  0  0  1  0  0  0  0  0999 V2000
   17.1581   -8.0271  -18.1295 C   0  0  0  0  0  0  0  0  0  0  0  0
   16.4536   -9.2072  -17.4939 C   0  0  1  0  0  0  0  0  0  0  0  0
   15.4204   -9.6334  -18.3122 O   0  0  0  0  0  0  0  0  0  0  0  0
   17.4723  -10.3001  -17.2556 C   0  0  2  0  0  0  0  0  0  0  0  0
   16.7948  -11.4677  -16.7538 N   0  0  0  0  0  0  0  0  0  0  0  0
   18.5637   -9.8533  -16.3565 C   0  0  0  0  0  0  0  0  0  0  0  0
   18.3114   -9.5932  -15.1521 O   0  0  0  0  0  0  0  0  0  0  0  0
   26.3437   -9.5517  -14.6217 C   0  0  0  0  0  0  0  0  0  0  0  0
   24.9480  -10.2881  -15.4664 S   0  0  0  0  0  0  0  0  0  0  0  0
   23.4418   -9.3357  -15.4022 C   0  0  0  0  0  0  0  0  0  0  0  0
   22.2683   -9.9495  -16.0860 C   0  0  0  0  0  0  0  0  0  0  0  0
   20.9887   -9.1846  -15.9988 C   0  0  2  0  0  0  0  0  0  0  0  0
   19.9125   -9.6932  -16.7699 N   0  0  0  0  0  0  0  0  0  0  0  0
   21.2232   -7.7513  -16.2016 C   0  0  0  0  0  0  0  0  0  0  0  0
   21.6628   -7.3441  -17.3004 O   0  0  0  0  0  0  0  0  0  0  0  0
   20.1259   -4.6054  -14.7709 C   0  0  0  0  0  0  0  0  0  0  0  0
   21.3032   -5.4005  -15.2898 C   0  0  2  0  0  0  0  0  0  0  0  0
   20.9628   -6.8073  -15.1777 N   0  0  0  0  0  0  0  0  0  0  0  0
   22.4822   -5.0420  -14.4578 C   0  0  0  0  0  0  0  0  0  0  0  0
   22.8167   -5.7094  -13.4375 O   0  0  0  0  0  0  0  0  0  0  0  0
   23.2143   -3.9389  -14.8388 O   0  0  0  0  0  0  0  0  0  0  0  0
  2  3  1  0
  2  4  1  0
  2  1  1  6
  4  5  1  1
  6  4  1  0
  6  7  2  0
  9  8  1  0
  9 10  1  0
 10 11  1  0
 12 11  1  6
 12 13  1  0
 12 14  1  0
 13  6  1  0
 14 15  2  0
 14 18  1  0
 17 16  1  1
 17 19  1  0
 18 17  1  0
 19 20  2  0
 19 21  1  0
M  END
$$$$
