TMA.pdb
     RDKit          3D

 21 20  0  0  1  0  0  0  0  0999 V2000
   18.6191   -9.0682  -16.6876 C   0  0  0  0  0  0  0  0  0  0  0  0
   17.8945  -10.3912  -16.8204 C   0  0  1  0  0  0  0  0  0  0  0  0
   18.6316  -11.2520  -17.6170 O   0  0  0  0  0  0  0  0  0  0  0  0
   17.6725  -10.9557  -15.4344 C   0  0  2  0  0  0  0  0  0  0  0  0
   17.1518  -12.2931  -15.5535 N   0  0  0  0  0  0  0  0  0  0  0  0
   16.7979  -10.0826  -14.6146 C   0  0  0  0  0  0  0  0  0  0  0  0
   15.5521  -10.1124  -14.7850 O   0  0  0  0  0  0  0  0  0  0  0  0
   14.8117   -6.4747   -7.9178 C   0  0  0  0  0  0  0  0  0  0  0  0
   15.8009   -7.6455   -8.8423 S   0  0  0  0  0  0  0  0  0  0  0  0
   15.8121   -7.3924  -10.6073 C   0  0  0  0  0  0  0  0  0  0  0  0
   16.5424   -8.4250  -11.3961 C   0  0  0  0  0  0  0  0  0  0  0  0
   16.5237   -8.2476  -12.8787 C   0  0  2  0  0  0  0  0  0  0  0  0
   17.2801   -9.1893  -13.6220 N   0  0  0  0  0  0  0  0  0  0  0  0
   16.8100   -6.8557  -13.2408 C   0  0  0  0  0  0  0  0  0  0  0  0
   17.9674   -6.4024  -13.0954 O   0  0  0  0  0  0  0  0  0  0  0  0
   14.7901   -4.1130  -14.8124 C   0  0  0  0  0  0  0  0  0  0  0  0
   16.0534   -4.6329  -14.1635 C   0  0  2  0  0  0  0  0  0  0  0  0
   15.8021   -6.0034  -13.7557 N   0  0  0  0  0  0  0  0  0  0  0  0
   16.3530   -3.7503  -13.0049 C   0  0  0  0  0  0  0  0  0  0  0  0
   15.9979   -4.0392  -11.8265 O   0  0  0  0  0  0  0  0  0  0  0  0
   17.0428   -2.5850  -13.2583 O   0  0  0  0  0  0  0  0  0  0  0  0
  2  3  1  0
  2  4  1  0
  2  1  1  1
  4  5  1  6
  6  4  1  0
  6  7  2  0
  9  8  1  0
  9 10  1  0
 10 11  1  0
 12 11  1  1
 12 13  1  0
 12 14  1  0
 13  6  1  0
 14 15  2  0
 14 18  1  0
 17 16  1  1
 17 19  1  0
 18 17  1  0
 19 20  2  0
 19 21  1  0
M  END
$$$$
