TMA.pdb
     RDKit          3D

 21 20  0  0  1  0  0  0  0  0999 V2000
   17.2789  -10.2405  -20.0404 C   0  0  0  0  0  0  0  0  0  0  0  0
   18.0499   -9.8002  -18.8138 C   0  0  1  0  0  0  0  0  0  0  0  0
   17.1787   -9.6179  -17.7523 O   0  0  0  0  0  0  0  0  0  0  0  0
   19.1002  -10.8455  -18.5088 C   0  0  2  0  0  0  0  0  0  0  0  0
   18.4471  -12.1059  -18.2663 N   0  0  0  0  0  0  0  0  0  0  0  0
   19.9748  -10.4393  -17.3821 C   0  0  0  0  0  0  0  0  0  0  0  0
   19.7578  -10.8942  -16.2297 O   0  0  0  0  0  0  0  0  0  0  0  0
   26.4745  -10.6511  -14.3024 C   0  0  0  0  0  0  0  0  0  0  0  0
   25.9160   -9.4730  -15.5288 S   0  0  0  0  0  0  0  0  0  0  0  0
   24.1953   -9.0206  -15.4086 C   0  0  0  0  0  0  0  0  0  0  0  0
   23.3364   -9.4690  -16.5412 C   0  0  0  0  0  0  0  0  0  0  0  0
   21.9032   -9.0544  -16.4771 C   0  0  2  0  0  0  0  0  0  0  0  0
   21.0717   -9.5476  -17.5148 N   0  0  0  0  0  0  0  0  0  0  0  0
   21.7879   -7.6061  -16.2781 C   0  0  0  0  0  0  0  0  0  0  0  0
   22.2304   -6.8232  -17.1484 O   0  0  0  0  0  0  0  0  0  0  0  0
   19.9136   -5.4618  -13.8792 C   0  0  0  0  0  0  0  0  0  0  0  0
   21.0163   -5.6397  -14.8990 C   0  0  2  0  0  0  0  0  0  0  0  0
   21.1833   -7.0653  -15.1165 N   0  0  0  0  0  0  0  0  0  0  0  0
   22.2428   -5.0113  -14.3407 C   0  0  0  0  0  0  0  0  0  0  0  0
   22.3597   -3.7595  -14.2083 O   0  0  0  0  0  0  0  0  0  0  0  0
   23.2689   -5.8500  -13.9643 O   0  0  0  0  0  0  0  0  0  0  0  0
  2  3  1  0
  2  4  1  0
  2  1  1  6
  4  5  1  1
  6  4  1  0
  6  7  2  0
  9  8  1  0
  9 10  1  0
 10 11  1  0
 12 11  1  6
 12 13  1  0
 12 14  1  0
 13  6  1  0
 14 15  2  0
 14 18  1  0
 17 16  1  1
 17 19  1  0
 18 17  1  0
 19 20  2  0
 19 21  1  0
M  END
$$$$
