TMA.pdb
     RDKit          3D

 21 20  0  0  1  0  0  0  0  0999 V2000
   26.6733  -20.9541  -16.6085 C   0  0  0  0  0  0  0  0  0  0  0  0
   26.4927  -22.4002  -17.0197 C   0  0  1  0  0  0  0  0  0  0  0  0
   27.3600  -22.7053  -18.0557 O   0  0  0  0  0  0  0  0  0  0  0  0
   26.7305  -23.2747  -15.8083 C   0  0  2  0  0  0  0  0  0  0  0  0
   26.5281  -24.6513  -16.1801 N   0  0  0  0  0  0  0  0  0  0  0  0
   25.8834  -22.8719  -14.6597 C   0  0  0  0  0  0  0  0  0  0  0  0
   24.6629  -23.1760  -14.6489 O   0  0  0  0  0  0  0  0  0  0  0  0
   25.5729  -20.1199   -7.1171 C   0  0  0  0  0  0  0  0  0  0  0  0
   26.5439  -20.5434   -8.5600 S   0  0  0  0  0  0  0  0  0  0  0  0
   25.5942  -20.9283  -10.0194 C   0  0  0  0  0  0  0  0  0  0  0  0
   26.3928  -21.3055  -11.2200 C   0  0  0  0  0  0  0  0  0  0  0  0
   25.6083  -21.6736  -12.4361 C   0  0  2  0  0  0  0  0  0  0  0  0
   26.3652  -22.1463  -13.5385 N   0  0  0  0  0  0  0  0  0  0  0  0
   24.6667  -20.6071  -12.7917 C   0  0  0  0  0  0  0  0  0  0  0  0
   25.1016  -19.4971  -13.1723 O   0  0  0  0  0  0  0  0  0  0  0  0
   22.0142  -19.9438  -14.5622 C   0  0  0  0  0  0  0  0  0  0  0  0
   22.3006  -19.7827  -13.0859 C   0  0  2  0  0  0  0  0  0  0  0  0
   23.2654  -20.8021  -12.7150 N   0  0  0  0  0  0  0  0  0  0  0  0
   21.0110  -19.9434  -12.3635 C   0  0  0  0  0  0  0  0  0  0  0  0
   20.7896  -20.9148  -11.5852 O   0  0  0  0  0  0  0  0  0  0  0  0
   20.0449  -18.9835  -12.5711 O   0  0  0  0  0  0  0  0  0  0  0  0
  2  3  1  0
  2  4  1  0
  2  1  1  1
  4  5  1  6
  6  4  1  0
  6  7  2  0
  9  8  1  0
  9 10  1  0
 10 11  1  0
 12 11  1  1
 12 13  1  0
 12 14  1  0
 13  6  1  0
 14 15  2  0
 14 18  1  0
 17 16  1  6
 17 19  1  0
 18 17  1  0
 19 20  2  0
 19 21  1  0
M  END
$$$$
