TMA.pdb
     RDKit          3D

 21 20  0  0  1  0  0  0  0  0999 V2000
   21.1761   -7.1267  -13.7468 C   0  0  0  0  0  0  0  0  0  0  0  0
   20.7224   -8.2061  -14.7070 C   0  0  1  0  0  0  0  0  0  0  0  0
   21.8252   -8.8326  -15.2639 O   0  0  0  0  0  0  0  0  0  0  0  0
   19.8426   -9.1782  -13.9520 C   0  0  2  0  0  0  0  0  0  0  0  0
   19.6134  -10.3367  -14.7763 N   0  0  0  0  0  0  0  0  0  0  0  0
   18.5774   -8.5472  -13.5045 C   0  0  0  0  0  0  0  0  0  0  0  0
   17.7048   -8.2308  -14.3533 O   0  0  0  0  0  0  0  0  0  0  0  0
   13.4730   -7.0865   -7.5041 C   0  0  0  0  0  0  0  0  0  0  0  0
   14.9722   -7.8613   -8.1009 S   0  0  0  0  0  0  0  0  0  0  0  0
   15.5256   -7.2972   -9.6994 C   0  0  0  0  0  0  0  0  0  0  0  0
   16.6941   -8.0289  -10.2656 C   0  0  0  0  0  0  0  0  0  0  0  0
   17.1045   -7.6344  -11.6461 C   0  0  2  0  0  0  0  0  0  0  0  0
   18.2714   -8.2662  -12.1468 N   0  0  0  0  0  0  0  0  0  0  0  0
   17.1278   -6.1749  -11.7860 C   0  0  0  0  0  0  0  0  0  0  0  0
   18.0199   -5.5109  -11.2122 O   0  0  0  0  0  0  0  0  0  0  0  0
   15.3117   -3.7751  -13.9936 C   0  0  0  0  0  0  0  0  0  0  0  0
   16.2036   -4.0607  -12.8060 C   0  0  2  0  0  0  0  0  0  0  0  0
   16.1585   -5.4908  -12.5606 N   0  0  0  0  0  0  0  0  0  0  0  0
   15.6761   -3.2788  -11.6566 C   0  0  0  0  0  0  0  0  0  0  0  0
   14.9571   -3.8014  -10.7575 O   0  0  0  0  0  0  0  0  0  0  0  0
   16.0002   -1.9410  -11.5986 O   0  0  0  0  0  0  0  0  0  0  0  0
  2  3  1  0
  2  4  1  0
  2  1  1  1
  4  5  1  6
  6  4  1  0
  6  7  2  0
  9  8  1  0
  9 10  1  0
 10 11  1  0
 12 11  1  1
 12 13  1  0
 12 14  1  0
 13  6  1  0
 14 15  2  0
 14 18  1  0
 17 16  1  6
 17 19  1  0
 18 17  1  0
 19 20  2  0
 19 21  1  0
M  END
$$$$
