TMA.pdb
     RDKit          3D

 21 20  0  0  1  0  0  0  0  0999 V2000
   28.7346  -18.2140  -16.6022 C   0  0  0  0  0  0  0  0  0  0  0  0
   27.5935  -18.9144  -15.8949 C   0  0  1  0  0  0  0  0  0  0  0  0
   26.5378  -19.0959  -16.7732 O   0  0  0  0  0  0  0  0  0  0  0  0
   28.1052  -20.2289  -15.3480 C   0  0  2  0  0  0  0  0  0  0  0  0
   28.4646  -21.0840  -16.4496 N   0  0  0  0  0  0  0  0  0  0  0  0
   27.1257  -20.8680  -14.4362 C   0  0  0  0  0  0  0  0  0  0  0  0
   26.4658  -21.8638  -14.8300 O   0  0  0  0  0  0  0  0  0  0  0  0
   26.9337  -20.1497   -7.6991 C   0  0  0  0  0  0  0  0  0  0  0  0
   25.2902  -20.7133   -8.1294 S   0  0  0  0  0  0  0  0  0  0  0  0
   25.0710  -21.1547   -9.8431 C   0  0  0  0  0  0  0  0  0  0  0  0
   26.0578  -20.5583  -10.7876 C   0  0  0  0  0  0  0  0  0  0  0  0
   25.8656  -20.8940  -12.2300 C   0  0  2  0  0  0  0  0  0  0  0  0
   26.8719  -20.4236  -13.1119 N   0  0  0  0  0  0  0  0  0  0  0  0
   24.5064  -20.5590  -12.6666 C   0  0  0  0  0  0  0  0  0  0  0  0
   24.1685  -19.3591  -12.7774 O   0  0  0  0  0  0  0  0  0  0  0  0
   21.6791  -22.5419  -14.0803 C   0  0  0  0  0  0  0  0  0  0  0  0
   22.2183  -21.2777  -13.4492 C   0  0  2  0  0  0  0  0  0  0  0  0
   23.5576  -21.5667  -12.9693 N   0  0  0  0  0  0  0  0  0  0  0  0
   21.2961  -20.9049  -12.3440 C   0  0  0  0  0  0  0  0  0  0  0  0
   21.6135  -21.0342  -11.1271 O   0  0  0  0  0  0  0  0  0  0  0  0
   20.0606  -20.4045  -12.6918 O   0  0  0  0  0  0  0  0  0  0  0  0
  2  3  1  0
  2  4  1  0
  2  1  1  6
  4  5  1  6
  6  4  1  0
  6  7  2  0
  9  8  1  0
  9 10  1  0
 10 11  1  0
 12 11  1  1
 12 13  1  0
 12 14  1  0
 13  6  1  0
 14 15  2  0
 14 18  1  0
 17 16  1  1
 17 19  1  0
 18 17  1  0
 19 20  2  0
 19 21  1  0
M  END
$$$$
