DHA.pdb
     RDKit          3D

 24 24  0  0  1  0  0  0  0  0999 V2000
   22.3336  -13.9526  -17.0911 N   0  0  0  0  0  0  0  0  0  0  0  0
   21.7614  -12.7778  -17.6548 C   0  0  1  0  0  0  0  0  0  0  0  0
   20.2534  -12.8151  -17.7526 C   0  0  0  0  0  0  0  0  0  0  0  0
   19.8699  -13.4570  -19.0316 C   0  0  0  0  0  0  0  0  0  0  0  0
   20.7909  -13.8724  -19.7867 O   0  0  0  0  0  0  0  0  0  0  0  0
   22.2030  -11.6080  -16.8276 C   0  0  0  0  0  0  0  0  0  0  0  0
   22.0466  -11.5915  -15.5833 O   0  0  0  0  0  0  0  0  0  0  0  0
   18.5570  -13.6323  -19.4560 O   0  0  0  0  0  0  0  0  0  0  0  0
   22.8204  -10.4567  -17.4044 N   0  0  0  0  0  0  0  0  0  0  0  0
   23.1749   -9.3085  -16.6084 C   0  0  1  0  0  0  0  0  0  0  0  0
   24.6348   -8.9426  -16.6948 C   0  0  0  0  0  0  0  0  0  0  0  0
   25.4945   -9.9963  -16.1002 C   0  0  0  0  0  0  0  0  0  0  0  0
   25.0664  -11.1636  -15.4716 C   0  0  0  0  0  0  0  0  0  0  0  0
   26.1669  -11.8261  -15.0808 N   0  0  0  0  0  0  0  0  0  0  0  0
   27.2537  -11.1500  -15.4230 C   0  0  0  0  0  0  0  0  0  0  0  0
   26.8313  -10.0230  -16.0488 N   0  0  0  0  0  0  0  0  0  0  0  0
   22.3035   -8.1371  -16.9278 C   0  0  0  0  0  0  0  0  0  0  0  0
   22.2567   -7.6464  -18.0790 O   0  0  0  0  0  0  0  0  0  0  0  0
   19.6731   -6.2830  -15.0238 C   0  0  0  0  0  0  0  0  0  0  0  0
   20.6390   -6.4464  -16.2058 C   0  0  2  0  0  0  0  0  0  0  0  0
   21.5066   -7.5567  -15.9156 N   0  0  0  0  0  0  0  0  0  0  0  0
   21.4113   -5.2257  -16.4576 C   0  0  0  0  0  0  0  0  0  0  0  0
   22.5927   -5.1539  -16.0652 O   0  0  0  0  0  0  0  0  0  0  0  0
   20.8034   -4.1669  -17.1354 O   0  0  0  0  0  0  0  0  0  0  0  0
  2  1  1  1
  2  3  1  0
  2  6  1  0
  3  4  1  0
  4  5  2  0
  4  8  1  0
  6  7  2  0
  9  6  1  0
  9 10  1  0
 10 17  1  0
 10 11  1  6
 11 12  1  0
 12 13  2  0
 13 14  1  0
 15 14  1  0
 16 12  1  0
 16 15  2  0
 17 18  2  0
 20 19  1  1
 20 22  1  0
 21 20  1  0
 21 17  1  0
 22 23  2  0
 22 24  1  0
M  END
$$$$
