DHA.pdb
     RDKit          3D

 24 24  0  0  1  0  0  0  0  0999 V2000
   19.6271  -10.5870  -17.9530 N   0  0  0  0  0  0  0  0  0  0  0  0
   19.0162  -11.0253  -16.7446 C   0  0  1  0  0  0  0  0  0  0  0  0
   19.4496  -12.4043  -16.3024 C   0  0  0  0  0  0  0  0  0  0  0  0
   19.1428  -13.3738  -17.3797 C   0  0  0  0  0  0  0  0  0  0  0  0
   18.2834  -13.0484  -18.2438 O   0  0  0  0  0  0  0  0  0  0  0  0
   19.3229  -10.0145  -15.6807 C   0  0  0  0  0  0  0  0  0  0  0  0
   19.1177  -10.2597  -14.4680 O   0  0  0  0  0  0  0  0  0  0  0  0
   19.7417  -14.6233  -17.5016 O   0  0  0  0  0  0  0  0  0  0  0  0
   19.8604   -8.7270  -15.9852 N   0  0  0  0  0  0  0  0  0  0  0  0
   20.1580   -7.7669  -14.9522 C   0  0  1  0  0  0  0  0  0  0  0  0
   21.2157   -8.2317  -13.9837 C   0  0  0  0  0  0  0  0  0  0  0  0
   22.4306   -8.7051  -14.6928 C   0  0  0  0  0  0  0  0  0  0  0  0
   22.6113   -8.7856  -16.0720 C   0  0  0  0  0  0  0  0  0  0  0  0
   23.8472   -9.2677  -16.2790 N   0  0  0  0  0  0  0  0  0  0  0  0
   24.4502   -9.4939  -15.1212 C   0  0  0  0  0  0  0  0  0  0  0  0
   23.5704   -9.1468  -14.1487 N   0  0  0  0  0  0  0  0  0  0  0  0
   20.5046   -6.4344  -15.5336 C   0  0  0  0  0  0  0  0  0  0  0  0
   21.2052   -6.3293  -16.5662 O   0  0  0  0  0  0  0  0  0  0  0  0
   19.1573   -3.0175  -14.9722 C   0  0  0  0  0  0  0  0  0  0  0  0
   20.2183   -3.9710  -15.5396 C   0  0  2  0  0  0  0  0  0  0  0  0
   20.0380   -5.2536  -14.9135 N   0  0  0  0  0  0  0  0  0  0  0  0
   21.5792   -3.4678  -15.3281 C   0  0  0  0  0  0  0  0  0  0  0  0
   22.2540   -3.9028  -14.3741 O   0  0  0  0  0  0  0  0  0  0  0  0
   22.0911   -2.5092  -16.2050 O   0  0  0  0  0  0  0  0  0  0  0  0
  2  1  1  6
  2  3  1  0
  2  6  1  0
  3  4  1  0
  4  5  2  0
  4  8  1  0
  6  7  2  0
  9  6  1  0
  9 10  1  0
 10 17  1  0
 10 11  1  6
 11 12  1  0
 12 13  2  0
 13 14  1  0
 15 14  1  0
 16 12  1  0
 16 15  2  0
 17 18  2  0
 20 19  1  1
 20 22  1  0
 21 20  1  0
 21 17  1  0
 22 23  2  0
 22 24  1  0
M  END
$$$$
