DHA.pdb
     RDKit          3D

 24 24  0  0  1  0  0  0  0  0999 V2000
   17.0631  -10.7265  -15.1797 N   0  0  0  0  0  0  0  0  0  0  0  0
   18.3769  -10.3637  -14.7701 C   0  0  1  0  0  0  0  0  0  0  0  0
   19.4138  -10.4732  -15.8645 C   0  0  0  0  0  0  0  0  0  0  0  0
   19.6315  -11.9044  -16.1797 C   0  0  0  0  0  0  0  0  0  0  0  0
   19.4508  -12.7487  -15.2601 O   0  0  0  0  0  0  0  0  0  0  0  0
   18.3232   -8.9628  -14.2389 C   0  0  0  0  0  0  0  0  0  0  0  0
   17.5808   -8.0953  -14.7578 O   0  0  0  0  0  0  0  0  0  0  0  0
   20.0232  -12.3799  -17.4267 O   0  0  0  0  0  0  0  0  0  0  0  0
   19.1076   -8.5405  -13.1227 N   0  0  0  0  0  0  0  0  0  0  0  0
   19.0653   -7.1841  -12.6371 C   0  0  1  0  0  0  0  0  0  0  0  0
   19.0099   -7.0834  -11.1339 C   0  0  0  0  0  0  0  0  0  0  0  0
   17.6600   -7.4196  -10.6169 C   0  0  0  0  0  0  0  0  0  0  0  0
   16.5120   -7.6478  -11.3727 C   0  0  0  0  0  0  0  0  0  0  0  0
   15.5191   -7.9142  -10.5090 N   0  0  0  0  0  0  0  0  0  0  0  0
   15.9705   -7.8671   -9.2642 C   0  0  0  0  0  0  0  0  0  0  0  0
   17.2896   -7.5599   -9.3388 N   0  0  0  0  0  0  0  0  0  0  0  0
   20.1914   -6.3737  -13.1927 C   0  0  0  0  0  0  0  0  0  0  0  0
   21.3876   -6.6728  -12.9742 O   0  0  0  0  0  0  0  0  0  0  0  0
   20.3165   -3.6204  -15.7192 C   0  0  0  0  0  0  0  0  0  0  0  0
   20.9684   -4.5594  -14.6943 C   0  0  2  0  0  0  0  0  0  0  0  0
   19.9157   -5.2374  -13.9861 N   0  0  0  0  0  0  0  0  0  0  0  0
   21.8469   -3.8377  -13.7684 C   0  0  0  0  0  0  0  0  0  0  0  0
   22.9328   -3.3833  -14.1796 O   0  0  0  0  0  0  0  0  0  0  0  0
   21.4446   -3.6738  -12.4413 O   0  0  0  0  0  0  0  0  0  0  0  0
  2  1  1  6
  2  3  1  0
  2  6  1  0
  3  4  1  0
  4  5  2  0
  4  8  1  0
  6  7  2  0
  9  6  1  0
  9 10  1  0
 10 17  1  0
 10 11  1  1
 11 12  1  0
 12 13  2  0
 13 14  1  0
 15 14  1  0
 16 12  1  0
 16 15  2  0
 17 18  2  0
 20 19  1  6
 20 22  1  0
 21 20  1  0
 21 17  1  0
 22 23  2  0
 22 24  1  0
M  END
$$$$
