DHA.pdb
     RDKit          3D

 24 24  0  0  1  0  0  0  0  0999 V2000
   13.5478  -12.2518  -13.0082 N   0  0  0  0  0  0  0  0  0  0  0  0
   13.4865  -11.0468  -13.7629 C   0  0  1  0  0  0  0  0  0  0  0  0
   12.2395  -10.2293  -13.5147 C   0  0  0  0  0  0  0  0  0  0  0  0
   11.0523  -11.0463  -13.8579 C   0  0  0  0  0  0  0  0  0  0  0  0
   11.0221  -11.6034  -14.9892 O   0  0  0  0  0  0  0  0  0  0  0  0
   14.7110  -10.2421  -13.4457 C   0  0  0  0  0  0  0  0  0  0  0  0
   14.9978   -9.9261  -12.2664 O   0  0  0  0  0  0  0  0  0  0  0  0
    9.9651  -11.2403  -13.0121 O   0  0  0  0  0  0  0  0  0  0  0  0
   15.6116   -9.7936  -14.4593 N   0  0  0  0  0  0  0  0  0  0  0  0
   16.7720   -8.9990  -14.1437 C   0  0  1  0  0  0  0  0  0  0  0  0
   18.0593   -9.5726  -14.6793 C   0  0  0  0  0  0  0  0  0  0  0  0
   19.2172   -8.7024  -14.3561 C   0  0  0  0  0  0  0  0  0  0  0  0
   19.2023   -7.5575  -13.5622 C   0  0  0  0  0  0  0  0  0  0  0  0
   20.4567   -7.0794  -13.5380 N   0  0  0  0  0  0  0  0  0  0  0  0
   21.2539   -7.8491  -14.2642 C   0  0  0  0  0  0  0  0  0  0  0  0
   20.4826   -8.8456  -14.7666 N   0  0  0  0  0  0  0  0  0  0  0  0
   16.5912   -7.5795  -14.5750 C   0  0  0  0  0  0  0  0  0  0  0  0
   16.3578   -7.2791  -15.7681 O   0  0  0  0  0  0  0  0  0  0  0  0
   15.5884   -4.5919  -12.7353 C   0  0  0  0  0  0  0  0  0  0  0  0
   16.2901   -5.1960  -13.9599 C   0  0  2  0  0  0  0  0  0  0  0  0
   16.6839   -6.5384  -13.6243 N   0  0  0  0  0  0  0  0  0  0  0  0
   17.4454   -4.3974  -14.3811 C   0  0  0  0  0  0  0  0  0  0  0  0
   18.5976   -4.8118  -14.1460 O   0  0  0  0  0  0  0  0  0  0  0  0
   17.2275   -3.1859  -15.0404 O   0  0  0  0  0  0  0  0  0  0  0  0
  2  1  1  1
  2  3  1  0
  2  6  1  0
  3  4  1  0
  4  5  2  0
  4  8  1  0
  6  7  2  0
  9  6  1  0
  9 10  1  0
 10 17  1  0
 10 11  1  6
 11 12  1  0
 12 13  2  0
 13 14  1  0
 15 14  1  0
 16 12  1  0
 16 15  2  0
 17 18  2  0
 20 19  1  1
 20 22  1  0
 21 20  1  0
 21 17  1  0
 22 23  2  0
 22 24  1  0
M  END
$$$$
