DHA.pdb
     RDKit          3D

 24 24  0  0  1  0  0  0  0  0999 V2000
   19.7833  -14.6115  -18.5891 N   0  0  0  0  0  0  0  0  0  0  0  0
   19.1193  -13.6342  -17.7959 C   0  0  1  0  0  0  0  0  0  0  0  0
   18.1632  -14.2146  -16.7790 C   0  0  0  0  0  0  0  0  0  0  0  0
   16.9731  -14.7440  -17.4848 C   0  0  0  0  0  0  0  0  0  0  0  0
   16.8386  -14.4705  -18.7089 O   0  0  0  0  0  0  0  0  0  0  0  0
   20.1664  -12.8048  -17.1152 C   0  0  0  0  0  0  0  0  0  0  0  0
   20.2026  -12.6943  -15.8665 O   0  0  0  0  0  0  0  0  0  0  0  0
   15.9911  -15.5253  -16.8849 O   0  0  0  0  0  0  0  0  0  0  0  0
   21.1723  -12.0997  -17.8437 N   0  0  0  0  0  0  0  0  0  0  0  0
   22.2405  -11.3996  -17.1758 C   0  0  1  0  0  0  0  0  0  0  0  0
   23.5205  -11.3529  -17.9710 C   0  0  0  0  0  0  0  0  0  0  0  0
   24.6515  -10.8531  -17.1501 C   0  0  0  0  0  0  0  0  0  0  0  0
   24.7299  -10.8428  -15.7591 C   0  0  0  0  0  0  0  0  0  0  0  0
   25.9165  -10.3039  -15.4361 N   0  0  0  0  0  0  0  0  0  0  0  0
   26.5841   -9.9766  -16.5327 C   0  0  0  0  0  0  0  0  0  0  0  0
   25.7975  -10.3161  -17.5844 N   0  0  0  0  0  0  0  0  0  0  0  0
   21.8132  -10.0301  -16.7570 C   0  0  0  0  0  0  0  0  0  0  0  0
   21.2559   -9.2421  -17.5550 O   0  0  0  0  0  0  0  0  0  0  0  0
   21.2257   -8.5270  -13.4373 C   0  0  0  0  0  0  0  0  0  0  0  0
   21.4604   -8.3724  -14.9466 C   0  0  2  0  0  0  0  0  0  0  0  0
   22.0374   -9.5981  -15.4305 N   0  0  0  0  0  0  0  0  0  0  0  0
   22.3220   -7.2266  -15.2544 C   0  0  0  0  0  0  0  0  0  0  0  0
   23.5267   -7.4157  -15.5144 O   0  0  0  0  0  0  0  0  0  0  0  0
   21.7705   -5.9437  -15.2505 O   0  0  0  0  0  0  0  0  0  0  0  0
  2  1  1  1
  2  3  1  0
  2  6  1  0
  3  4  1  0
  4  5  2  0
  4  8  1  0
  6  7  2  0
  9  6  1  0
  9 10  1  0
 10 17  1  0
 10 11  1  6
 11 12  1  0
 12 13  2  0
 13 14  1  0
 15 14  1  0
 16 12  1  0
 16 15  2  0
 17 18  2  0
 20 19  1  1
 20 22  1  0
 21 20  1  0
 21 17  1  0
 22 23  2  0
 22 24  1  0
M  END
$$$$
