DHA.pdb
     RDKit          3D

 24 24  0  0  1  0  0  0  0  0999 V2000
   21.4767  -12.5052  -15.9459 N   0  0  0  0  0  0  0  0  0  0  0  0
   20.9941  -11.4417  -16.7591 C   0  0  1  0  0  0  0  0  0  0  0  0
   19.4866  -11.3423  -16.8096 C   0  0  0  0  0  0  0  0  0  0  0  0
   18.9451  -12.5633  -17.4504 C   0  0  0  0  0  0  0  0  0  0  0  0
   18.0233  -13.1863  -16.8561 O   0  0  0  0  0  0  0  0  0  0  0  0
   21.5855  -10.1637  -16.2444 C   0  0  0  0  0  0  0  0  0  0  0  0
   21.4438   -9.8133  -15.0486 O   0  0  0  0  0  0  0  0  0  0  0  0
   19.3874  -13.0695  -18.6681 O   0  0  0  0  0  0  0  0  0  0  0  0
   22.3361   -9.2810  -17.0792 N   0  0  0  0  0  0  0  0  0  0  0  0
   22.8184   -8.0108  -16.5980 C   0  0  1  0  0  0  0  0  0  0  0  0
   24.2870   -7.7870  -16.8552 C   0  0  0  0  0  0  0  0  0  0  0  0
   25.1193   -8.8101  -16.1746 C   0  0  0  0  0  0  0  0  0  0  0  0
   24.6668   -9.8350  -15.3463 C   0  0  0  0  0  0  0  0  0  0  0  0
   25.7481  -10.5216  -14.9438 N   0  0  0  0  0  0  0  0  0  0  0  0
   26.8457   -9.9936  -15.4651 C   0  0  0  0  0  0  0  0  0  0  0  0
   26.4504   -8.9384  -16.2205 N   0  0  0  0  0  0  0  0  0  0  0  0
   21.9973   -6.8816  -17.1310 C   0  0  0  0  0  0  0  0  0  0  0  0
   21.8101   -6.7268  -18.3595 O   0  0  0  0  0  0  0  0  0  0  0  0
   19.8903   -4.2279  -15.5458 C   0  0  0  0  0  0  0  0  0  0  0  0
   20.6552   -4.8350  -16.7304 C   0  0  2  0  0  0  0  0  0  0  0  0
   21.4111   -5.9559  -16.2388 N   0  0  0  0  0  0  0  0  0  0  0  0
   21.5295   -3.8541  -17.3811 C   0  0  0  0  0  0  0  0  0  0  0  0
   22.7116   -3.7376  -17.0019 O   0  0  0  0  0  0  0  0  0  0  0  0
   21.0161   -3.0701  -18.4162 O   0  0  0  0  0  0  0  0  0  0  0  0
  2  1  1  1
  2  3  1  0
  2  6  1  0
  3  4  1  0
  4  5  2  0
  4  8  1  0
  6  7  2  0
  9  6  1  0
  9 10  1  0
 10 17  1  0
 10 11  1  6
 11 12  1  0
 12 13  2  0
 13 14  1  0
 15 14  1  0
 16 12  1  0
 16 15  2  0
 17 18  2  0
 20 19  1  1
 20 22  1  0
 21 20  1  0
 21 17  1  0
 22 23  2  0
 22 24  1  0
M  END
$$$$
