DHA.pdb
     RDKit          3D

 24 24  0  0  1  0  0  0  0  0999 V2000
   19.9176  -10.6706  -17.5995 N   0  0  0  0  0  0  0  0  0  0  0  0
   19.8417  -10.7571  -16.1810 C   0  0  1  0  0  0  0  0  0  0  0  0
   20.3037  -12.0829  -15.6208 C   0  0  0  0  0  0  0  0  0  0  0  0
   19.3133  -13.1262  -15.9747 C   0  0  0  0  0  0  0  0  0  0  0  0
   18.1393  -12.7595  -16.2546 O   0  0  0  0  0  0  0  0  0  0  0  0
   20.6541   -9.6353  -15.6072 C   0  0  0  0  0  0  0  0  0  0  0  0
   20.7076   -9.4334  -14.3706 O   0  0  0  0  0  0  0  0  0  0  0  0
   19.5934  -14.4879  -16.0188 O   0  0  0  0  0  0  0  0  0  0  0  0
   21.4056   -8.7411  -16.4289 N   0  0  0  0  0  0  0  0  0  0  0  0
   22.2071   -7.6852  -15.8630 C   0  0  1  0  0  0  0  0  0  0  0  0
   23.6528   -7.7317  -16.2882 C   0  0  0  0  0  0  0  0  0  0  0  0
   24.3173   -8.9725  -15.8175 C   0  0  0  0  0  0  0  0  0  0  0  0
   23.7367   -9.9966  -15.0725 C   0  0  0  0  0  0  0  0  0  0  0  0
   24.6895  -10.9189  -14.8625 N   0  0  0  0  0  0  0  0  0  0  0  0
   25.8265  -10.5389  -15.4265 C   0  0  0  0  0  0  0  0  0  0  0  0
   25.5898   -9.3379  -16.0111 N   0  0  0  0  0  0  0  0  0  0  0  0
   21.6063   -6.3437  -16.1333 C   0  0  0  0  0  0  0  0  0  0  0  0
   22.1502   -5.2874  -15.7376 O   0  0  0  0  0  0  0  0  0  0  0  0
   18.8865   -5.1456  -18.3659 C   0  0  0  0  0  0  0  0  0  0  0  0
   19.8164   -4.9663  -17.1576 C   0  0  2  0  0  0  0  0  0  0  0  0
   20.3933   -6.2482  -16.8516 N   0  0  0  0  0  0  0  0  0  0  0  0
   19.1095   -4.4156  -15.9969 C   0  0  0  0  0  0  0  0  0  0  0  0
   18.6619   -5.1882  -15.1266 O   0  0  0  0  0  0  0  0  0  0  0  0
   18.9544   -3.0319  -15.8918 O   0  0  0  0  0  0  0  0  0  0  0  0
  2  1  1  6
  2  3  1  0
  2  6  1  0
  3  4  1  0
  4  5  2  0
  4  8  1  0
  6  7  2  0
  9  6  1  0
  9 10  1  0
 10 17  1  0
 10 11  1  6
 11 12  1  0
 12 13  2  0
 13 14  1  0
 15 14  1  0
 16 12  1  0
 16 15  2  0
 17 18  2  0
 20 19  1  6
 20 22  1  0
 21 20  1  0
 21 17  1  0
 22 23  2  0
 22 24  1  0
M  END
$$$$
