DHA.pdb
     RDKit          3D

 24 24  0  0  1  0  0  0  0  0999 V2000
   22.4019  -10.3872  -16.2766 N   0  0  0  0  0  0  0  0  0  0  0  0
   21.3330   -9.9532  -17.1098 C   0  0  1  0  0  0  0  0  0  0  0  0
   20.3724  -11.0533  -17.4997 C   0  0  0  0  0  0  0  0  0  0  0  0
   21.1194  -12.1125  -18.2173 C   0  0  0  0  0  0  0  0  0  0  0  0
   22.3181  -11.8817  -18.5351 O   0  0  0  0  0  0  0  0  0  0  0  0
   20.6069   -8.8550  -16.3926 C   0  0  0  0  0  0  0  0  0  0  0  0
   19.4488   -8.5098  -16.7279 O   0  0  0  0  0  0  0  0  0  0  0  0
   20.5845  -13.3485  -18.5648 O   0  0  0  0  0  0  0  0  0  0  0  0
   21.1879   -8.1459  -15.2975 N   0  0  0  0  0  0  0  0  0  0  0  0
   20.5045   -7.0508  -14.6563 C   0  0  1  0  0  0  0  0  0  0  0  0
   20.4394   -7.1768  -13.1554 C   0  0  0  0  0  0  0  0  0  0  0  0
   19.3937   -8.1432  -12.7368 C   0  0  0  0  0  0  0  0  0  0  0  0
   18.4892   -8.8025  -13.5665 C   0  0  0  0  0  0  0  0  0  0  0  0
   17.7242   -9.5751  -12.7788 N   0  0  0  0  0  0  0  0  0  0  0  0
   18.0904   -9.4421  -11.5125 C   0  0  0  0  0  0  0  0  0  0  0  0
   19.1181   -8.5568  -11.4945 N   0  0  0  0  0  0  0  0  0  0  0  0
   21.0852   -5.7355  -15.0644 C   0  0  0  0  0  0  0  0  0  0  0  0
   22.3134   -5.5050  -14.9833 O   0  0  0  0  0  0  0  0  0  0  0  0
   19.6837   -2.7502  -16.8235 C   0  0  0  0  0  0  0  0  0  0  0  0
   20.7843   -3.4729  -16.0341 C   0  0  2  0  0  0  0  0  0  0  0  0
   20.2397   -4.7154  -15.5555 N   0  0  0  0  0  0  0  0  0  0  0  0
   21.2913   -2.6578  -14.9256 C   0  0  0  0  0  0  0  0  0  0  0  0
   20.9089   -2.8955  -13.7629 O   0  0  0  0  0  0  0  0  0  0  0  0
   22.1962   -1.6300  -15.1989 O   0  0  0  0  0  0  0  0  0  0  0  0
  2  1  1  1
  2  3  1  0
  2  6  1  0
  3  4  1  0
  4  5  2  0
  4  8  1  0
  6  7  2  0
  9  6  1  0
  9 10  1  0
 10 17  1  0
 10 11  1  1
 11 12  1  0
 12 13  2  0
 13 14  1  0
 15 14  1  0
 16 12  1  0
 16 15  2  0
 17 18  2  0
 20 19  1  1
 20 22  1  0
 21 20  1  0
 21 17  1  0
 22 23  2  0
 22 24  1  0
M  END
$$$$
