DHA.pdb
     RDKit          3D

 24 24  0  0  1  0  0  0  0  0999 V2000
   26.3309   -9.5622  -18.4413 N   0  0  0  0  0  0  0  0  0  0  0  0
   25.9187  -10.3084  -17.3017 C   0  0  1  0  0  0  0  0  0  0  0  0
   26.8972  -10.2624  -16.1505 C   0  0  0  0  0  0  0  0  0  0  0  0
   28.2429  -10.6321  -16.6478 C   0  0  0  0  0  0  0  0  0  0  0  0
   28.4212  -11.8122  -17.0559 O   0  0  0  0  0  0  0  0  0  0  0  0
   24.5798   -9.7889  -16.8710 C   0  0  0  0  0  0  0  0  0  0  0  0
   23.5674  -10.5288  -16.8516 O   0  0  0  0  0  0  0  0  0  0  0  0
   29.3262   -9.7608  -16.6945 O   0  0  0  0  0  0  0  0  0  0  0  0
   24.3835   -8.4346  -16.4627 N   0  0  0  0  0  0  0  0  0  0  0  0
   23.1288   -7.9828  -15.9157 C   0  0  1  0  0  0  0  0  0  0  0  0
   22.6686   -8.7816  -14.7228 C   0  0  0  0  0  0  0  0  0  0  0  0
   21.3958   -9.4915  -15.0034 C   0  0  0  0  0  0  0  0  0  0  0  0
   20.7021   -9.5110  -16.2115 C   0  0  0  0  0  0  0  0  0  0  0  0
   19.6075  -10.2656  -16.0242 N   0  0  0  0  0  0  0  0  0  0  0  0
   19.5712  -10.7183  -14.7796 C   0  0  0  0  0  0  0  0  0  0  0  0
   20.6751  -10.2356  -14.1564 N   0  0  0  0  0  0  0  0  0  0  0  0
   23.1668   -6.5211  -15.6064 C   0  0  0  0  0  0  0  0  0  0  0  0
   23.9456   -6.0508  -14.7460 O   0  0  0  0  0  0  0  0  0  0  0  0
   21.8123   -3.4984  -17.2790 C   0  0  0  0  0  0  0  0  0  0  0  0
   22.3474   -4.2198  -16.0340 C   0  0  2  0  0  0  0  0  0  0  0  0
   22.3075   -5.6343  -16.2932 N   0  0  0  0  0  0  0  0  0  0  0  0
   21.5802   -3.8825  -14.8308 C   0  0  0  0  0  0  0  0  0  0  0  0
   20.5486   -4.5280  -14.5586 O   0  0  0  0  0  0  0  0  0  0  0  0
   22.0253   -2.8419  -14.0129 O   0  0  0  0  0  0  0  0  0  0  0  0
  2  1  1  6
  2  3  1  0
  2  6  1  0
  3  4  1  0
  4  5  2  0
  4  8  1  0
  6  7  2  0
  9  6  1  0
  9 10  1  0
 10 17  1  0
 10 11  1  1
 11 12  1  0
 12 13  2  0
 13 14  1  0
 15 14  1  0
 16 12  1  0
 16 15  2  0
 17 18  2  0
 20 19  1  6
 20 22  1  0
 21 20  1  0
 21 17  1  0
 22 23  2  0
 22 24  1  0
M  END
$$$$
