DHA.pdb
     RDKit          3D

 24 24  0  0  1  0  0  0  0  0999 V2000
   16.4289  -12.5558  -17.2850 N   0  0  0  0  0  0  0  0  0  0  0  0
   16.6321  -11.7103  -16.1584 C   0  0  1  0  0  0  0  0  0  0  0  0
   16.9716  -12.4529  -14.8863 C   0  0  0  0  0  0  0  0  0  0  0  0
   15.7999  -13.2596  -14.4728 C   0  0  0  0  0  0  0  0  0  0  0  0
   15.9757  -14.4877  -14.2444 O   0  0  0  0  0  0  0  0  0  0  0  0
   17.7204  -10.7382  -16.5027 C   0  0  0  0  0  0  0  0  0  0  0  0
   18.7910  -11.1174  -17.0345 O   0  0  0  0  0  0  0  0  0  0  0  0
   14.5146  -12.7506  -14.3191 O   0  0  0  0  0  0  0  0  0  0  0  0
   17.6007   -9.3384  -16.2464 N   0  0  0  0  0  0  0  0  0  0  0  0
   18.6280   -8.4062  -16.6377 C   0  0  1  0  0  0  0  0  0  0  0  0
   18.1034   -7.2153  -17.3988 C   0  0  0  0  0  0  0  0  0  0  0  0
   17.5893   -7.6083  -18.7344 C   0  0  0  0  0  0  0  0  0  0  0  0
   18.3051   -8.2397  -19.7493 C   0  0  0  0  0  0  0  0  0  0  0  0
   17.4621   -8.4045  -20.7812 N   0  0  0  0  0  0  0  0  0  0  0  0
   16.2676   -7.9179  -20.4785 C   0  0  0  0  0  0  0  0  0  0  0  0
   16.3544   -7.4273  -19.2168 N   0  0  0  0  0  0  0  0  0  0  0  0
   19.4491   -7.9797  -15.4641 C   0  0  0  0  0  0  0  0  0  0  0  0
   18.9241   -7.5004  -14.4331 O   0  0  0  0  0  0  0  0  0  0  0  0
   23.0222   -8.3774  -14.4968 C   0  0  0  0  0  0  0  0  0  0  0  0
   21.6707   -7.6543  -14.4109 C   0  0  2  0  0  0  0  0  0  0  0  0
   20.8552   -8.1133  -15.5036 N   0  0  0  0  0  0  0  0  0  0  0  0
   21.8241   -6.1964  -14.4438 C   0  0  0  0  0  0  0  0  0  0  0  0
   21.6036   -5.5790  -15.5044 O   0  0  0  0  0  0  0  0  0  0  0  0
   22.2143   -5.5297  -13.2806 O   0  0  0  0  0  0  0  0  0  0  0  0
  2  1  1  6
  2  3  1  0
  2  6  1  0
  3  4  1  0
  4  5  2  0
  4  8  1  0
  6  7  2  0
  9  6  1  0
  9 10  1  0
 10 17  1  0
 10 11  1  1
 11 12  1  0
 12 13  2  0
 13 14  1  0
 15 14  1  0
 16 12  1  0
 16 15  2  0
 17 18  2  0
 20 19  1  6
 20 22  1  0
 21 20  1  0
 21 17  1  0
 22 23  2  0
 22 24  1  0
M  END
$$$$
