DHA.pdb
     RDKit          3D

 24 24  0  0  1  0  0  0  0  0999 V2000
   32.2595   -9.8932  -18.0724 N   0  0  0  0  0  0  0  0  0  0  0  0
   31.1991   -9.2036  -17.4203 C   0  0  1  0  0  0  0  0  0  0  0  0
   31.3542   -7.6999  -17.4175 C   0  0  0  0  0  0  0  0  0  0  0  0
   32.4753   -7.3335  -16.5211 C   0  0  0  0  0  0  0  0  0  0  0  0
   33.0842   -8.2618  -15.9223 O   0  0  0  0  0  0  0  0  0  0  0  0
   29.9155   -9.5956  -18.0884 C   0  0  0  0  0  0  0  0  0  0  0  0
   29.9018  -10.0742  -19.2475 O   0  0  0  0  0  0  0  0  0  0  0  0
   32.9023   -6.0290  -16.2956 O   0  0  0  0  0  0  0  0  0  0  0  0
   28.6473   -9.4471  -17.4486 N   0  0  0  0  0  0  0  0  0  0  0  0
   27.4252   -9.8760  -18.0810 C   0  0  1  0  0  0  0  0  0  0  0  0
   26.5483  -10.7180  -17.1893 C   0  0  0  0  0  0  0  0  0  0  0  0
   27.0740  -12.0998  -17.0595 C   0  0  0  0  0  0  0  0  0  0  0  0
   28.2128  -12.6184  -17.6723 C   0  0  0  0  0  0  0  0  0  0  0  0
   28.3169  -13.9005  -17.2878 N   0  0  0  0  0  0  0  0  0  0  0  0
   27.3190  -14.2174  -16.4760 C   0  0  0  0  0  0  0  0  0  0  0  0
   26.5564  -13.1035  -16.3419 N   0  0  0  0  0  0  0  0  0  0  0  0
   26.6695   -8.7160  -18.6439 C   0  0  0  0  0  0  0  0  0  0  0  0
   26.3955   -7.7103  -17.9500 O   0  0  0  0  0  0  0  0  0  0  0  0
   25.3951   -7.8941  -22.0749 C   0  0  0  0  0  0  0  0  0  0  0  0
   25.6039   -7.5965  -20.5834 C   0  0  2  0  0  0  0  0  0  0  0  0
   26.2457   -8.7400  -19.9916 N   0  0  0  0  0  0  0  0  0  0  0  0
   24.3424   -7.2888  -19.9023 C   0  0  0  0  0  0  0  0  0  0  0  0
   23.6870   -8.2102  -19.3767 O   0  0  0  0  0  0  0  0  0  0  0  0
   23.9025   -5.9643  -19.8565 O   0  0  0  0  0  0  0  0  0  0  0  0
  2  1  1  6
  2  3  1  0
  2  6  1  0
  3  4  1  0
  4  5  2  0
  4  8  1  0
  6  7  2  0
  9  6  1  0
  9 10  1  0
 10 17  1  0
 10 11  1  1
 11 12  1  0
 12 13  2  0
 13 14  1  0
 15 14  1  0
 16 12  1  0
 16 15  2  0
 17 18  2  0
 20 19  1  6
 20 22  1  0
 21 20  1  0
 21 17  1  0
 22 23  2  0
 22 24  1  0
M  END
$$$$
