DHA.pdb
     RDKit          3D

 24 24  0  0  1  0  0  0  0  0999 V2000
   17.0706  -12.6869  -15.7316 N   0  0  0  0  0  0  0  0  0  0  0  0
   16.7116  -11.3186  -15.8875 C   0  0  1  0  0  0  0  0  0  0  0  0
   15.7955  -10.7967  -14.8042 C   0  0  0  0  0  0  0  0  0  0  0  0
   14.4877  -11.4851  -14.9070 C   0  0  0  0  0  0  0  0  0  0  0  0
   13.9579  -11.5854  -16.0474 O   0  0  0  0  0  0  0  0  0  0  0  0
   17.9755  -10.5136  -15.9361 C   0  0  0  0  0  0  0  0  0  0  0  0
   18.8974  -10.6941  -15.1053 O   0  0  0  0  0  0  0  0  0  0  0  0
   13.8033  -12.0299  -13.8256 O   0  0  0  0  0  0  0  0  0  0  0  0
   18.1987   -9.5047  -16.9220 N   0  0  0  0  0  0  0  0  0  0  0  0
   19.4517   -8.7981  -17.0122 C   0  0  1  0  0  0  0  0  0  0  0  0
   19.7857   -8.3390  -18.4089 C   0  0  0  0  0  0  0  0  0  0  0  0
   21.0644   -7.5863  -18.4415 C   0  0  0  0  0  0  0  0  0  0  0  0
   21.2271   -6.2338  -18.7341 C   0  0  0  0  0  0  0  0  0  0  0  0
   22.5411   -5.9698  -18.6550 N   0  0  0  0  0  0  0  0  0  0  0  0
   23.2099   -7.0672  -18.3328 C   0  0  0  0  0  0  0  0  0  0  0  0
   22.2935   -8.0592  -18.2050 N   0  0  0  0  0  0  0  0  0  0  0  0
   19.5053   -7.6627  -16.0419 C   0  0  0  0  0  0  0  0  0  0  0  0
   18.5457   -6.8702  -15.9029 O   0  0  0  0  0  0  0  0  0  0  0  0
   21.6314   -6.7891  -13.1611 C   0  0  0  0  0  0  0  0  0  0  0  0
   20.7515   -6.3558  -14.3421 C   0  0  2  0  0  0  0  0  0  0  0  0
   20.6617   -7.4644  -15.2545 N   0  0  0  0  0  0  0  0  0  0  0  0
   21.2789   -5.1630  -15.0121 C   0  0  0  0  0  0  0  0  0  0  0  0
   21.8108   -5.2730  -16.1345 O   0  0  0  0  0  0  0  0  0  0  0  0
   21.1716   -3.9249  -14.3753 O   0  0  0  0  0  0  0  0  0  0  0  0
  2  1  1  1
  2  3  1  0
  2  6  1  0
  3  4  1  0
  4  5  2  0
  4  8  1  0
  6  7  2  0
  9  6  1  0
  9 10  1  0
 10 17  1  0
 10 11  1  6
 11 12  1  0
 12 13  2  0
 13 14  1  0
 15 14  1  0
 16 12  1  0
 16 15  2  0
 17 18  2  0
 20 19  1  1
 20 22  1  0
 21 20  1  0
 21 17  1  0
 22 23  2  0
 22 24  1  0
M  END
$$$$
