DHA.pdb
     RDKit          3D

 24 24  0  0  1  0  0  0  0  0999 V2000
   19.3649  -14.3963  -15.9371 N   0  0  0  0  0  0  0  0  0  0  0  0
   18.8376  -14.1803  -17.2412 C   0  0  1  0  0  0  0  0  0  0  0  0
   17.6684  -15.0739  -17.5868 C   0  0  0  0  0  0  0  0  0  0  0  0
   18.0770  -16.4879  -17.4179 C   0  0  0  0  0  0  0  0  0  0  0  0
   18.4764  -17.1159  -18.4363 O   0  0  0  0  0  0  0  0  0  0  0  0
   18.4420  -12.7380  -17.3448 C   0  0  0  0  0  0  0  0  0  0  0  0
   18.1131  -12.2279  -18.4423 O   0  0  0  0  0  0  0  0  0  0  0  0
   18.0492  -17.1708  -16.2065 O   0  0  0  0  0  0  0  0  0  0  0  0
   18.4180  -11.8711  -16.2101 N   0  0  0  0  0  0  0  0  0  0  0  0
   18.0734  -10.4767  -16.3295 C   0  0  1  0  0  0  0  0  0  0  0  0
   16.8589  -10.0849  -15.5267 C   0  0  0  0  0  0  0  0  0  0  0  0
   16.5964   -8.6269  -15.6161 C   0  0  0  0  0  0  0  0  0  0  0  0
   17.1090   -7.6359  -14.7816 C   0  0  0  0  0  0  0  0  0  0  0  0
   16.6151   -6.4643  -15.2132 N   0  0  0  0  0  0  0  0  0  0  0  0
   15.8281   -6.6577  -16.2613 C   0  0  0  0  0  0  0  0  0  0  0  0
   15.8200   -7.9926  -16.5022 N   0  0  0  0  0  0  0  0  0  0  0  0
   19.2404   -9.6000  -16.0082 C   0  0  0  0  0  0  0  0  0  0  0  0
   19.9679   -9.8123  -15.0113 O   0  0  0  0  0  0  0  0  0  0  0  0
   20.9074   -6.7610  -17.7877 C   0  0  0  0  0  0  0  0  0  0  0  0
   20.6686   -7.6486  -16.5581 C   0  0  2  0  0  0  0  0  0  0  0  0
   19.5433   -8.4992  -16.8406 N   0  0  0  0  0  0  0  0  0  0  0  0
   20.4401   -6.8575  -15.3449 C   0  0  0  0  0  0  0  0  0  0  0  0
   21.3282   -6.0809  -14.9412 O   0  0  0  0  0  0  0  0  0  0  0  0
   19.2267   -6.9915  -14.6671 O   0  0  0  0  0  0  0  0  0  0  0  0
  2  1  1  1
  2  3  1  0
  2  6  1  0
  3  4  1  0
  4  5  2  0
  4  8  1  0
  6  7  2  0
  9  6  1  0
  9 10  1  0
 10 17  1  0
 10 11  1  1
 11 12  1  0
 12 13  2  0
 13 14  1  0
 15 14  1  0
 16 12  1  0
 16 15  2  0
 17 18  2  0
 20 19  1  6
 20 22  1  0
 21 20  1  0
 21 17  1  0
 22 23  2  0
 22 24  1  0
M  END
$$$$
