DHA.pdb
     RDKit          3D

 24 24  0  0  1  0  0  0  0  0999 V2000
   20.0474  -11.9702  -17.0630 N   0  0  0  0  0  0  0  0  0  0  0  0
   19.3753  -10.7822  -16.6602 C   0  0  1  0  0  0  0  0  0  0  0  0
   18.6336  -10.9103  -15.3494 C   0  0  0  0  0  0  0  0  0  0  0  0
   17.4713  -11.8090  -15.5400 C   0  0  0  0  0  0  0  0  0  0  0  0
   16.8674  -11.7715  -16.6468 O   0  0  0  0  0  0  0  0  0  0  0  0
   20.3914   -9.6827  -16.5807 C   0  0  0  0  0  0  0  0  0  0  0  0
   21.5366   -9.8841  -16.1107 O   0  0  0  0  0  0  0  0  0  0  0  0
   17.0006  -12.6943  -14.5759 O   0  0  0  0  0  0  0  0  0  0  0  0
   20.1152   -8.3559  -17.0311 N   0  0  0  0  0  0  0  0  0  0  0  0
   21.1264   -7.3289  -17.0273 C   0  0  1  0  0  0  0  0  0  0  0  0
   21.4081   -6.7551  -18.3927 C   0  0  0  0  0  0  0  0  0  0  0  0
   21.9971   -7.7729  -19.2982 C   0  0  0  0  0  0  0  0  0  0  0  0
   23.3524   -8.0345  -19.4871 C   0  0  0  0  0  0  0  0  0  0  0  0
   23.4397   -9.0238  -20.3906 N   0  0  0  0  0  0  0  0  0  0  0  0
   22.2292   -9.3973  -20.7787 C   0  0  0  0  0  0  0  0  0  0  0  0
   21.3459   -8.6207  -20.1029 N   0  0  0  0  0  0  0  0  0  0  0  0
   20.8017   -6.2514  -16.0439 C   0  0  0  0  0  0  0  0  0  0  0  0
   19.7381   -5.5942  -16.1154 O   0  0  0  0  0  0  0  0  0  0  0  0
   22.1667   -5.2873  -12.7378 C   0  0  0  0  0  0  0  0  0  0  0  0
   21.4021   -4.9438  -14.0240 C   0  0  2  0  0  0  0  0  0  0  0  0
   21.7080   -5.9540  -15.0015 N   0  0  0  0  0  0  0  0  0  0  0  0
   21.7395   -3.6073  -14.5239 C   0  0  0  0  0  0  0  0  0  0  0  0
   22.5359   -3.4902  -15.4761 O   0  0  0  0  0  0  0  0  0  0  0  0
   21.1574   -2.4910  -13.9198 O   0  0  0  0  0  0  0  0  0  0  0  0
  2  1  1  1
  2  3  1  0
  2  6  1  0
  3  4  1  0
  4  5  2  0
  4  8  1  0
  6  7  2  0
  9  6  1  0
  9 10  1  0
 10 17  1  0
 10 11  1  6
 11 12  1  0
 12 13  2  0
 13 14  1  0
 15 14  1  0
 16 12  1  0
 16 15  2  0
 17 18  2  0
 20 19  1  1
 20 22  1  0
 21 20  1  0
 21 17  1  0
 22 23  2  0
 22 24  1  0
M  END
$$$$
