DHA.pdb
     RDKit          3D

 24 24  0  0  1  0  0  0  0  0999 V2000
   20.4799  -11.4177  -18.7389 N   0  0  0  0  0  0  0  0  0  0  0  0
   20.6986  -11.2320  -17.3449 C   0  0  1  0  0  0  0  0  0  0  0  0
   22.1036  -11.5605  -16.8945 C   0  0  0  0  0  0  0  0  0  0  0  0
   22.2555  -13.0326  -16.8272 C   0  0  0  0  0  0  0  0  0  0  0  0
   23.4120  -13.5022  -16.6451 O   0  0  0  0  0  0  0  0  0  0  0  0
   20.3617   -9.8096  -17.0115 C   0  0  0  0  0  0  0  0  0  0  0  0
   20.9123   -8.8515  -17.6046 O   0  0  0  0  0  0  0  0  0  0  0  0
   21.2036  -13.9341  -16.9519 O   0  0  0  0  0  0  0  0  0  0  0  0
   19.4041   -9.4685  -16.0084 N   0  0  0  0  0  0  0  0  0  0  0  0
   19.1048   -8.0968  -15.6823 C   0  0  1  0  0  0  0  0  0  0  0  0
   17.7417   -7.9070  -15.0669 C   0  0  0  0  0  0  0  0  0  0  0  0
   17.4478   -6.4715  -14.8313 C   0  0  0  0  0  0  0  0  0  0  0  0
   17.0525   -5.5352  -15.7844 C   0  0  0  0  0  0  0  0  0  0  0  0
   16.8993   -4.3643  -15.1455 N   0  0  0  0  0  0  0  0  0  0  0  0
   17.1729   -4.5069  -13.8570 C   0  0  0  0  0  0  0  0  0  0  0  0
   17.5119   -5.8072  -13.6716 N   0  0  0  0  0  0  0  0  0  0  0  0
   20.1733   -7.4971  -14.8266 C   0  0  0  0  0  0  0  0  0  0  0  0
   20.7862   -8.1733  -13.9690 O   0  0  0  0  0  0  0  0  0  0  0  0
   22.9046   -6.0527  -14.7609 C   0  0  0  0  0  0  0  0  0  0  0  0
   21.5693   -5.5462  -14.1977 C   0  0  2  0  0  0  0  0  0  0  0  0
   20.5117   -6.1335  -14.9763 N   0  0  0  0  0  0  0  0  0  0  0  0
   21.4856   -4.0824  -14.2139 C   0  0  0  0  0  0  0  0  0  0  0  0
   20.6976   -3.5206  -15.0001 O   0  0  0  0  0  0  0  0  0  0  0  0
   22.2933   -3.3478  -13.3434 O   0  0  0  0  0  0  0  0  0  0  0  0
  2  1  1  6
  2  3  1  0
  2  6  1  0
  3  4  1  0
  4  5  2  0
  4  8  1  0
  6  7  2  0
  9  6  1  0
  9 10  1  0
 10 17  1  0
 10 11  1  1
 11 12  1  0
 12 13  2  0
 13 14  1  0
 15 14  1  0
 16 12  1  0
 16 15  2  0
 17 18  2  0
 20 19  1  6
 20 22  1  0
 21 20  1  0
 21 17  1  0
 22 23  2  0
 22 24  1  0
M  END
$$$$
