DHA.pdb
     RDKit          3D

 24 24  0  0  1  0  0  0  0  0999 V2000
   21.5930  -10.9631  -16.9702 N   0  0  0  0  0  0  0  0  0  0  0  0
   21.9960   -9.6012  -17.0603 C   0  0  1  0  0  0  0  0  0  0  0  0
   21.7512   -8.9765  -18.4148 C   0  0  0  0  0  0  0  0  0  0  0  0
   22.5897   -9.6673  -19.4220 C   0  0  0  0  0  0  0  0  0  0  0  0
   22.0168  -10.1700  -20.4271 O   0  0  0  0  0  0  0  0  0  0  0  0
   21.2731   -8.8356  -15.9930 C   0  0  0  0  0  0  0  0  0  0  0  0
   20.0579   -9.0348  -15.7554 O   0  0  0  0  0  0  0  0  0  0  0  0
   23.9715   -9.7986  -19.3321 O   0  0  0  0  0  0  0  0  0  0  0  0
   21.9213   -7.8448  -15.1945 N   0  0  0  0  0  0  0  0  0  0  0  0
   21.2073   -7.0931  -14.1931 C   0  0  1  0  0  0  0  0  0  0  0  0
   21.6910   -7.3492  -12.7883 C   0  0  0  0  0  0  0  0  0  0  0  0
   20.8993   -6.5833  -11.7937 C   0  0  0  0  0  0  0  0  0  0  0  0
   19.7919   -5.7785  -12.0525 C   0  0  0  0  0  0  0  0  0  0  0  0
   19.3883   -5.2745  -10.8754 N   0  0  0  0  0  0  0  0  0  0  0  0
   20.1701   -5.7106   -9.8987 C   0  0  0  0  0  0  0  0  0  0  0  0
   21.0997   -6.5147  -10.4725 N   0  0  0  0  0  0  0  0  0  0  0  0
   21.2084   -5.6322  -14.5080 C   0  0  0  0  0  0  0  0  0  0  0  0
   22.2743   -4.9869  -14.6327 O   0  0  0  0  0  0  0  0  0  0  0  0
   18.4891   -3.2570  -15.5018 C   0  0  0  0  0  0  0  0  0  0  0  0
   19.9519   -3.6075  -15.1951 C   0  0  2  0  0  0  0  0  0  0  0  0
   19.9835   -4.9470  -14.6713 N   0  0  0  0  0  0  0  0  0  0  0  0
   20.5590   -2.6596  -14.2553 C   0  0  0  0  0  0  0  0  0  0  0  0
   20.4981   -2.8843  -13.0304 O   0  0  0  0  0  0  0  0  0  0  0  0
   21.1955   -1.5222  -14.7564 O   0  0  0  0  0  0  0  0  0  0  0  0
  2  1  1  6
  2  3  1  0
  2  6  1  0
  3  4  1  0
  4  5  2  0
  4  8  1  0
  6  7  2  0
  9  6  1  0
  9 10  1  0
 10 17  1  0
 10 11  1  1
 11 12  1  0
 12 13  2  0
 13 14  1  0
 15 14  1  0
 16 12  1  0
 16 15  2  0
 17 18  2  0
 20 19  1  1
 20 22  1  0
 21 20  1  0
 21 17  1  0
 22 23  2  0
 22 24  1  0
M  END
$$$$
