DHA.pdb
     RDKit          3D

 24 24  0  0  1  0  0  0  0  0999 V2000
   31.7563  -28.8953  -20.1502 N   0  0  0  0  0  0  0  0  0  0  0  0
   31.9851  -29.7792  -19.0584 C   0  0  1  0  0  0  0  0  0  0  0  0
   32.6053  -29.1154  -17.8503 C   0  0  0  0  0  0  0  0  0  0  0  0
   34.0713  -29.0313  -18.0470 C   0  0  0  0  0  0  0  0  0  0  0  0
   34.5508  -29.4672  -19.1291 O   0  0  0  0  0  0  0  0  0  0  0  0
   30.6744  -30.4092  -18.6937 C   0  0  0  0  0  0  0  0  0  0  0  0
   30.5769  -31.2006  -17.7257 O   0  0  0  0  0  0  0  0  0  0  0  0
   34.9566  -28.5017  -17.1140 O   0  0  0  0  0  0  0  0  0  0  0  0
   29.4741  -30.1465  -19.4215 N   0  0  0  0  0  0  0  0  0  0  0  0
   28.1947  -30.6374  -18.9747 C   0  0  1  0  0  0  0  0  0  0  0  0
   27.1130  -29.5872  -18.9735 C   0  0  0  0  0  0  0  0  0  0  0  0
   27.3748  -28.5397  -17.9552 C   0  0  0  0  0  0  0  0  0  0  0  0
   28.4102  -28.5249  -17.0231 C   0  0  0  0  0  0  0  0  0  0  0  0
   28.2713  -27.4029  -16.2989 N   0  0  0  0  0  0  0  0  0  0  0  0
   27.2180  -26.7162  -16.7164 C   0  0  0  0  0  0  0  0  0  0  0  0
   26.6697  -27.4239  -17.7355 N   0  0  0  0  0  0  0  0  0  0  0  0
   27.7761  -31.8447  -19.7498 C   0  0  0  0  0  0  0  0  0  0  0  0
   28.0393  -31.9683  -20.9679 O   0  0  0  0  0  0  0  0  0  0  0  0
   26.5216  -35.2035  -18.8005 C   0  0  0  0  0  0  0  0  0  0  0  0
   26.6829  -34.0695  -19.8227 C   0  0  2  0  0  0  0  0  0  0  0  0
   27.0637  -32.8815  -19.1064 N   0  0  0  0  0  0  0  0  0  0  0  0
   25.4572  -33.8484  -20.5965 C   0  0  0  0  0  0  0  0  0  0  0  0
   25.0531  -34.7351  -21.3745 O   0  0  0  0  0  0  0  0  0  0  0  0
   24.7665  -32.6446  -20.4426 O   0  0  0  0  0  0  0  0  0  0  0  0
  2  1  1  6
  2  3  1  0
  2  6  1  0
  3  4  1  0
  4  5  2  0
  4  8  1  0
  6  7  2  0
  9  6  1  0
  9 10  1  0
 10 17  1  0
 10 11  1  6
 11 12  1  0
 12 13  2  0
 13 14  1  0
 15 14  1  0
 16 12  1  0
 16 15  2  0
 17 18  2  0
 20 19  1  1
 20 22  1  0
 21 20  1  0
 21 17  1  0
 22 23  2  0
 22 24  1  0
M  END
$$$$
