PHF.pdb
     RDKit          3D

 29 31  0  0  1  0  0  0  0  0999 V2000
    8.9288  -15.3587   18.4442 N   0  0  0  0  0  0  0  0  0  0  0  0
    7.8500  -14.8145   17.6414 C   0  0  0  0  0  0  0  0  0  0  0  0
    8.0401  -13.3334   17.5837 C   0  0  0  0  0  0  0  0  0  0  0  0
    9.2730  -13.0880   18.4246 C   0  0  0  0  0  0  0  0  0  0  0  0
    9.3431  -14.2936   19.3363 C   0  0  1  0  0  0  0  0  0  0  0  0
    8.3918  -14.2145   20.4546 C   0  0  0  0  0  0  0  0  0  0  0  0
    8.1960  -13.1090   21.0469 O   0  0  0  0  0  0  0  0  0  0  0  0
    7.6451  -15.3064   20.9488 N   0  0  0  0  0  0  0  0  0  0  0  0
    6.6132  -15.1902   21.9842 C   0  0  1  0  0  0  0  0  0  0  0  0
    5.7962  -16.4441   21.8534 C   0  0  0  0  0  0  0  0  0  0  0  0
    6.5569  -17.6846   21.9181 C   0  0  0  0  0  0  0  0  0  0  0  0
    7.9283  -17.7408   22.1379 C   0  0  0  0  0  0  0  0  0  0  0  0
    8.2484  -19.0377   22.1285 N   0  0  0  0  0  0  0  0  0  0  0  0
    7.1277  -19.7685   21.9122 C   0  0  0  0  0  0  0  0  0  0  0  0
    6.0795  -18.9275   21.7819 N   0  0  0  0  0  0  0  0  0  0  0  0
    7.2832  -15.2193   23.3305 C   0  0  0  0  0  0  0  0  0  0  0  0
    6.7457  -14.8466   24.3957 O   0  0  0  0  0  0  0  0  0  0  0  0
    8.6350  -15.6942   23.4864 N   0  0  0  0  0  0  0  0  0  0  0  0
    9.4614  -15.3295   24.6225 C   0  0  1  0  0  0  0  0  0  0  0  0
    8.7079  -15.4699   25.9276 C   0  0  0  0  0  0  0  0  0  0  0  0
    7.9469  -14.2496   26.2851 C   0  0  0  0  0  0  0  0  0  0  0  0
    8.5358  -13.0160   26.4385 C   0  0  0  0  0  0  0  0  0  0  0  0
    7.8165  -11.8752   26.7779 C   0  0  0  0  0  0  0  0  0  0  0  0
    6.4613  -11.9675   26.9711 C   0  0  0  0  0  0  0  0  0  0  0  0
    5.8299  -13.1783   26.8288 C   0  0  0  0  0  0  0  0  0  0  0  0
    6.5628  -14.2944   26.4923 C   0  0  0  0  0  0  0  0  0  0  0  0
   10.6481  -16.2141   24.6918 C   0  0  0  0  0  0  0  0  0  0  0  0
   11.4772  -16.1105   25.6192 O   0  0  0  0  0  0  0  0  0  0  0  0
   10.8798  -17.1885   23.7288 O   0  0  0  0  0  0  0  0  0  0  0  0
  1  5  1  0
  2  1  1  0
  2  3  1  0
  3  4  1  0
  5  6  1  1
  5  4  1  0
  6  7  2  0
  8  9  1  0
  8  6  1  0
 10 11  1  0
  9 10  1  1
 11 12  2  0
 13 12  1  0
 14 13  1  0
 15 14  2  0
 15 11  1  0
 16  9  1  0
 17 16  2  0
 18 16  1  0
 19 18  1  0
 19 27  1  0
 19 20  1  1
 21 22  2  0
 21 20  1  0
 23 22  1  0
 24 23  2  0
 25 24  1  0
 25 26  2  0
 26 21  1  0
 27 29  1  0
 28 27  2  0
M  END
$$$$
