PHF.pdb
     RDKit          3D

 29 31  0  0  1  0  0  0  0  0999 V2000
    9.0310  -14.7376   18.5973 N   0  0  0  0  0  0  0  0  0  0  0  0
    7.6529  -14.6598   18.1508 C   0  0  0  0  0  0  0  0  0  0  0  0
    7.1202  -13.3301   18.5765 C   0  0  0  0  0  0  0  0  0  0  0  0
    8.2774  -12.6879   19.3085 C   0  0  0  0  0  0  0  0  0  0  0  0
    9.1319  -13.8577   19.7452 C   0  0  1  0  0  0  0  0  0  0  0  0
    8.5869  -14.5494   20.9226 C   0  0  0  0  0  0  0  0  0  0  0  0
    7.9796  -13.8920   21.8227 O   0  0  0  0  0  0  0  0  0  0  0  0
    8.6838  -15.9397   21.1499 N   0  0  0  0  0  0  0  0  0  0  0  0
    8.2324  -16.6013   22.3784 C   0  0  1  0  0  0  0  0  0  0  0  0
    8.2440  -18.0673   22.0506 C   0  0  0  0  0  0  0  0  0  0  0  0
    9.5686  -18.6575   21.9135 C   0  0  0  0  0  0  0  0  0  0  0  0
   10.4437  -18.3620   20.8746 C   0  0  0  0  0  0  0  0  0  0  0  0
   11.5388  -19.0935   21.0984 N   0  0  0  0  0  0  0  0  0  0  0  0
   11.3627  -19.8193   22.2294 C   0  0  0  0  0  0  0  0  0  0  0  0
   10.1401  -19.5475   22.7336 N   0  0  0  0  0  0  0  0  0  0  0  0
    9.2588  -16.3646   23.4521 C   0  0  0  0  0  0  0  0  0  0  0  0
   10.4815  -16.2147   23.2403 O   0  0  0  0  0  0  0  0  0  0  0  0
    8.8878  -16.2932   24.8430 N   0  0  0  0  0  0  0  0  0  0  0  0
    9.8354  -15.9385   25.8835 C   0  0  1  0  0  0  0  0  0  0  0  0
   10.0505  -14.4420   25.9547 C   0  0  0  0  0  0  0  0  0  0  0  0
    8.7908  -13.6903   26.1648 C   0  0  0  0  0  0  0  0  0  0  0  0
    8.3661  -13.2690   27.4033 C   0  0  0  0  0  0  0  0  0  0  0  0
    7.1808  -12.5670   27.5943 C   0  0  0  0  0  0  0  0  0  0  0  0
    6.3906  -12.2746   26.5115 C   0  0  0  0  0  0  0  0  0  0  0  0
    6.7742  -12.6749   25.2554 C   0  0  0  0  0  0  0  0  0  0  0  0
    7.9520  -13.3689   25.0907 C   0  0  0  0  0  0  0  0  0  0  0  0
    9.3297  -16.3826   27.2036 C   0  0  0  0  0  0  0  0  0  0  0  0
    8.1896  -16.8763   27.3254 O   0  0  0  0  0  0  0  0  0  0  0  0
   10.1050  -16.2657   28.3507 O   0  0  0  0  0  0  0  0  0  0  0  0
  1  5  1  0
  2  1  1  0
  2  3  1  0
  3  4  1  0
  5  6  1  1
  5  4  1  0
  6  7  2  0
  8  9  1  0
  8  6  1  0
 10 11  1  0
  9 10  1  6
 11 12  2  0
 13 12  1  0
 14 13  1  0
 15 14  2  0
 15 11  1  0
 16  9  1  0
 17 16  2  0
 18 16  1  0
 19 18  1  0
 19 27  1  0
 19 20  1  1
 21 22  2  0
 21 20  1  0
 23 22  1  0
 24 23  2  0
 25 24  1  0
 25 26  2  0
 26 21  1  0
 27 29  1  0
 28 27  2  0
M  END
$$$$
