PHF.pdb
     RDKit          3D

 29 31  0  0  1  0  0  0  0  0999 V2000
    9.3440  -13.8512   19.1713 N   0  0  0  0  0  0  0  0  0  0  0  0
    8.2285  -14.3108   18.3657 C   0  0  0  0  0  0  0  0  0  0  0  0
    7.0320  -13.5072   18.7605 C   0  0  0  0  0  0  0  0  0  0  0  0
    7.5460  -12.5943   19.8512 C   0  0  0  0  0  0  0  0  0  0  0  0
    8.7666  -13.3106   20.3863 C   0  0  1  0  0  0  0  0  0  0  0  0
    8.4229  -14.4231   21.2841 C   0  0  0  0  0  0  0  0  0  0  0  0
    7.3579  -14.3791   21.9734 O   0  0  0  0  0  0  0  0  0  0  0  0
    9.2064  -15.5854   21.4543 N   0  0  0  0  0  0  0  0  0  0  0  0
    8.8965  -16.6473   22.4171 C   0  0  1  0  0  0  0  0  0  0  0  0
    9.7031  -17.8284   21.9576 C   0  0  0  0  0  0  0  0  0  0  0  0
    9.2288  -18.4598   20.7337 C   0  0  0  0  0  0  0  0  0  0  0  0
    7.8898  -18.5271   20.3664 C   0  0  0  0  0  0  0  0  0  0  0  0
    7.8623  -19.1733   19.1975 N   0  0  0  0  0  0  0  0  0  0  0  0
    9.1288  -19.4997   18.8424 C   0  0  0  0  0  0  0  0  0  0  0  0
    9.9751  -19.0563   19.7965 N   0  0  0  0  0  0  0  0  0  0  0  0
    9.4177  -16.2345   23.7662 C   0  0  0  0  0  0  0  0  0  0  0  0
   10.5105  -15.6579   23.9557 O   0  0  0  0  0  0  0  0  0  0  0  0
    8.6665  -16.4855   24.9704 N   0  0  0  0  0  0  0  0  0  0  0  0
    9.1765  -16.1550   26.2884 C   0  0  1  0  0  0  0  0  0  0  0  0
    8.0965  -15.5711   27.1735 C   0  0  0  0  0  0  0  0  0  0  0  0
    7.6188  -14.2503   26.7009 C   0  0  0  0  0  0  0  0  0  0  0  0
    8.3476  -13.0928   26.8463 C   0  0  0  0  0  0  0  0  0  0  0  0
    7.8920  -11.8555   26.4039 C   0  0  0  0  0  0  0  0  0  0  0  0
    6.6658  -11.7692   25.7945 C   0  0  0  0  0  0  0  0  0  0  0  0
    5.9029  -12.8984   25.6273 C   0  0  0  0  0  0  0  0  0  0  0  0
    6.3746  -14.1126   26.0735 C   0  0  0  0  0  0  0  0  0  0  0  0
    9.6917  -17.3745   26.9539 C   0  0  0  0  0  0  0  0  0  0  0  0
    9.5200  -18.5049   26.4529 O   0  0  0  0  0  0  0  0  0  0  0  0
   10.3831  -17.3033   28.1571 O   0  0  0  0  0  0  0  0  0  0  0  0
  1  5  1  0
  2  1  1  0
  2  3  1  0
  3  4  1  0
  5  6  1  1
  5  4  1  0
  6  7  2  0
  8  9  1  0
  8  6  1  0
 10 11  1  0
  9 10  1  6
 11 12  2  0
 13 12  1  0
 14 13  1  0
 15 14  2  0
 15 11  1  0
 16  9  1  0
 17 16  2  0
 18 16  1  0
 19 18  1  0
 19 27  1  0
 19 20  1  1
 21 22  2  0
 21 20  1  0
 23 22  1  0
 24 23  2  0
 25 24  1  0
 25 26  2  0
 26 21  1  0
 27 29  1  0
 28 27  2  0
M  END
$$$$
