PHF.pdb
     RDKit          3D

 29 31  0  0  1  0  0  0  0  0999 V2000
    9.3863  -14.1399   18.9972 N   0  0  0  0  0  0  0  0  0  0  0  0
    8.0930  -14.2131   18.3441 C   0  0  0  0  0  0  0  0  0  0  0  0
    7.2256  -13.1593   18.9525 C   0  0  0  0  0  0  0  0  0  0  0  0
    8.1076  -12.5166   19.9995 C   0  0  0  0  0  0  0  0  0  0  0  0
    9.1423  -13.5759   20.3103 C   0  0  1  0  0  0  0  0  0  0  0  0
    8.6245  -14.6327   21.1918 C   0  0  0  0  0  0  0  0  0  0  0  0
    7.3946  -14.6542   21.5054 O   0  0  0  0  0  0  0  0  0  0  0  0
    9.4080  -15.6697   21.7435 N   0  0  0  0  0  0  0  0  0  0  0  0
    8.9312  -16.5938   22.7776 C   0  0  1  0  0  0  0  0  0  0  0  0
    9.5775  -17.9084   22.4443 C   0  0  0  0  0  0  0  0  0  0  0  0
    9.0580  -18.5659   21.2530 C   0  0  0  0  0  0  0  0  0  0  0  0
    9.2663  -18.1011   19.9595 C   0  0  0  0  0  0  0  0  0  0  0  0
    8.6408  -18.9644   19.1545 N   0  0  0  0  0  0  0  0  0  0  0  0
    8.0627  -19.9320   19.9070 C   0  0  0  0  0  0  0  0  0  0  0  0
    8.3225  -19.6832   21.2084 N   0  0  0  0  0  0  0  0  0  0  0  0
    9.4717  -16.1423   24.1065 C   0  0  0  0  0  0  0  0  0  0  0  0
   10.6060  -15.6452   24.2762 O   0  0  0  0  0  0  0  0  0  0  0  0
    8.6916  -16.2573   25.3129 N   0  0  0  0  0  0  0  0  0  0  0  0
    9.2068  -15.8676   26.6126 C   0  0  1  0  0  0  0  0  0  0  0  0
    8.1299  -15.2460   27.4754 C   0  0  0  0  0  0  0  0  0  0  0  0
    7.4860  -14.0750   26.8351 C   0  0  0  0  0  0  0  0  0  0  0  0
    6.3493  -14.1707   26.0665 C   0  0  0  0  0  0  0  0  0  0  0  0
    5.7519  -13.0682   25.4650 C   0  0  0  0  0  0  0  0  0  0  0  0
    6.3077  -11.8255   25.6362 C   0  0  0  0  0  0  0  0  0  0  0  0
    7.4425  -11.6813   26.3954 C   0  0  0  0  0  0  0  0  0  0  0  0
    8.0165  -12.7874   26.9812 C   0  0  0  0  0  0  0  0  0  0  0  0
    9.7267  -17.0555   27.3297 C   0  0  0  0  0  0  0  0  0  0  0  0
   10.3971  -16.9358   28.3759 O   0  0  0  0  0  0  0  0  0  0  0  0
    9.4870  -18.3424   26.8639 O   0  0  0  0  0  0  0  0  0  0  0  0
  1  5  1  0
  2  1  1  0
  2  3  1  0
  3  4  1  0
  5  6  1  1
  5  4  1  0
  6  7  2  0
  8  9  1  0
  8  6  1  0
 10 11  1  0
  9 10  1  6
 11 12  2  0
 13 12  1  0
 14 13  1  0
 15 14  2  0
 15 11  1  0
 16  9  1  0
 17 16  2  0
 18 16  1  0
 19 18  1  0
 19 27  1  0
 19 20  1  1
 21 22  2  0
 21 20  1  0
 23 22  1  0
 24 23  2  0
 25 24  1  0
 25 26  2  0
 26 21  1  0
 27 29  1  0
 28 27  2  0
M  END
$$$$
