PHF.pdb
     RDKit          3D

 29 31  0  0  1  0  0  0  0  0999 V2000
    9.4619  -14.3702   18.8718 N   0  0  0  0  0  0  0  0  0  0  0  0
    8.2045  -14.4721   18.1557 C   0  0  0  0  0  0  0  0  0  0  0  0
    7.3570  -13.3149   18.5752 C   0  0  0  0  0  0  0  0  0  0  0  0
    8.2103  -12.5819   19.5861 C   0  0  0  0  0  0  0  0  0  0  0  0
    9.1738  -13.6352   20.0878 C   0  0  1  0  0  0  0  0  0  0  0  0
    8.5576  -14.5498   21.0603 C   0  0  0  0  0  0  0  0  0  0  0  0
    7.4784  -14.2251   21.6444 O   0  0  0  0  0  0  0  0  0  0  0  0
    9.0830  -15.8110   21.4169 N   0  0  0  0  0  0  0  0  0  0  0  0
    8.6550  -16.5722   22.5950 C   0  0  1  0  0  0  0  0  0  0  0  0
    8.9226  -18.0076   22.2417 C   0  0  0  0  0  0  0  0  0  0  0  0
    8.1029  -18.5394   21.1615 C   0  0  0  0  0  0  0  0  0  0  0  0
    7.0987  -17.8188   20.5254 C   0  0  0  0  0  0  0  0  0  0  0  0
    6.5855  -18.6394   19.6047 N   0  0  0  0  0  0  0  0  0  0  0  0
    7.2374  -19.8265   19.6573 C   0  0  0  0  0  0  0  0  0  0  0  0
    8.1782  -19.7625   20.6235 N   0  0  0  0  0  0  0  0  0  0  0  0
    9.5508  -16.2103   23.7477 C   0  0  0  0  0  0  0  0  0  0  0  0
   10.7962  -16.1298   23.6770 O   0  0  0  0  0  0  0  0  0  0  0  0
    9.0143  -15.9231   25.0543 N   0  0  0  0  0  0  0  0  0  0  0  0
    9.8621  -15.6692   26.2046 C   0  0  1  0  0  0  0  0  0  0  0  0
    9.7259  -14.2434   26.6935 C   0  0  0  0  0  0  0  0  0  0  0  0
    8.3828  -13.6734   26.4338 C   0  0  0  0  0  0  0  0  0  0  0  0
    8.0195  -13.1303   25.2234 C   0  0  0  0  0  0  0  0  0  0  0  0
    6.7585  -12.5935   24.9871 C   0  0  0  0  0  0  0  0  0  0  0  0
    5.8262  -12.5984   25.9937 C   0  0  0  0  0  0  0  0  0  0  0  0
    6.1439  -13.1302   27.2190 C   0  0  0  0  0  0  0  0  0  0  0  0
    7.3988  -13.6560   27.4298 C   0  0  0  0  0  0  0  0  0  0  0  0
    9.4830  -16.5652   27.3223 C   0  0  0  0  0  0  0  0  0  0  0  0
    8.4492  -17.2627   27.2683 O   0  0  0  0  0  0  0  0  0  0  0  0
   10.2633  -16.6607   28.4679 O   0  0  0  0  0  0  0  0  0  0  0  0
  1  5  1  0
  2  1  1  0
  2  3  1  0
  3  4  1  0
  5  6  1  1
  5  4  1  0
  6  7  2  0
  8  9  1  0
  8  6  1  0
 10 11  1  0
  9 10  1  6
 11 12  2  0
 13 12  1  0
 14 13  1  0
 15 14  2  0
 15 11  1  0
 16  9  1  0
 17 16  2  0
 18 16  1  0
 19 18  1  0
 19 27  1  0
 19 20  1  1
 21 22  2  0
 21 20  1  0
 23 22  1  0
 24 23  2  0
 25 24  1  0
 25 26  2  0
 26 21  1  0
 27 29  1  0
 28 27  2  0
M  END
$$$$
