PHF.pdb
     RDKit          3D

 29 31  0  0  1  0  0  0  0  0999 V2000
    8.7895  -14.5001   18.7960 N   0  0  0  0  0  0  0  0  0  0  0  0
    7.3639  -14.3345   18.5851 C   0  0  0  0  0  0  0  0  0  0  0  0
    6.9327  -13.1380   19.3698 C   0  0  0  0  0  0  0  0  0  0  0  0
    8.1996  -12.6676   20.0486 C   0  0  0  0  0  0  0  0  0  0  0  0
    9.0780  -13.8991   20.0835 C   0  0  1  0  0  0  0  0  0  0  0  0
    8.6914  -14.8413   21.1441 C   0  0  0  0  0  0  0  0  0  0  0  0
    7.4894  -14.8850   21.5496 O   0  0  0  0  0  0  0  0  0  0  0  0
    9.5771  -15.7398   21.7781 N   0  0  0  0  0  0  0  0  0  0  0  0
    9.1736  -16.6856   22.8236 C   0  0  1  0  0  0  0  0  0  0  0  0
    9.9495  -17.9375   22.5281 C   0  0  0  0  0  0  0  0  0  0  0  0
    9.5320  -18.6527   21.3299 C   0  0  0  0  0  0  0  0  0  0  0  0
    8.2191  -19.0292   21.0715 C   0  0  0  0  0  0  0  0  0  0  0  0
    8.2425  -19.6546   19.8912 N   0  0  0  0  0  0  0  0  0  0  0  0
    9.5149  -19.6721   19.4249 C   0  0  0  0  0  0  0  0  0  0  0  0
   10.3133  -19.0502   20.3186 N   0  0  0  0  0  0  0  0  0  0  0  0
    9.6445  -16.1583   24.1512 C   0  0  0  0  0  0  0  0  0  0  0  0
   10.7198  -15.5456   24.3271 O   0  0  0  0  0  0  0  0  0  0  0  0
    8.8611  -16.3309   25.3485 N   0  0  0  0  0  0  0  0  0  0  0  0
    9.3331  -15.9089   26.6545 C   0  0  1  0  0  0  0  0  0  0  0  0
    8.2316  -15.2554   27.4608 C   0  0  0  0  0  0  0  0  0  0  0  0
    7.7698  -13.9767   26.8711 C   0  0  0  0  0  0  0  0  0  0  0  0
    6.6275  -13.8696   26.1123 C   0  0  0  0  0  0  0  0  0  0  0  0
    6.2015  -12.6671   25.5585 C   0  0  0  0  0  0  0  0  0  0  0  0
    6.9408  -11.5306   25.7688 C   0  0  0  0  0  0  0  0  0  0  0  0
    8.0885  -11.5893   26.5200 C   0  0  0  0  0  0  0  0  0  0  0  0
    8.4907  -12.7911   27.0584 C   0  0  0  0  0  0  0  0  0  0  0  0
    9.8171  -17.0801   27.4223 C   0  0  0  0  0  0  0  0  0  0  0  0
   10.3672  -16.9408   28.5341 O   0  0  0  0  0  0  0  0  0  0  0  0
    9.6762  -18.3729   26.9328 O   0  0  0  0  0  0  0  0  0  0  0  0
  1  5  1  0
  2  1  1  0
  2  3  1  0
  3  4  1  0
  5  6  1  1
  5  4  1  0
  6  7  2  0
  8  9  1  0
  8  6  1  0
 10 11  1  0
  9 10  1  6
 11 12  2  0
 13 12  1  0
 14 13  1  0
 15 14  2  0
 15 11  1  0
 16  9  1  0
 17 16  2  0
 18 16  1  0
 19 18  1  0
 19 27  1  0
 19 20  1  1
 21 22  2  0
 21 20  1  0
 23 22  1  0
 24 23  2  0
 25 24  1  0
 25 26  2  0
 26 21  1  0
 27 29  1  0
 28 27  2  0
M  END
$$$$
