PHF.pdb
     RDKit          3D

 29 31  0  0  1  0  0  0  0  0999 V2000
    9.0573  -14.7468   18.3791 N   0  0  0  0  0  0  0  0  0  0  0  0
    7.7133  -14.7286   17.8334 C   0  0  0  0  0  0  0  0  0  0  0  0
    7.1635  -13.3556   18.0470 C   0  0  0  0  0  0  0  0  0  0  0  0
    8.2733  -12.6232   18.7674 C   0  0  0  0  0  0  0  0  0  0  0  0
    9.0871  -13.7261   19.4083 C   0  0  1  0  0  0  0  0  0  0  0  0
    8.4582  -14.2607   20.6251 C   0  0  0  0  0  0  0  0  0  0  0  0
    8.0257  -13.4694   21.5184 O   0  0  0  0  0  0  0  0  0  0  0  0
    8.2856  -15.6351   20.8990 N   0  0  0  0  0  0  0  0  0  0  0  0
    7.6844  -16.1545   22.1315 C   0  0  1  0  0  0  0  0  0  0  0  0
    7.1685  -17.5162   21.7620 C   0  0  0  0  0  0  0  0  0  0  0  0
    8.1862  -18.4638   21.3285 C   0  0  0  0  0  0  0  0  0  0  0  0
    9.5336  -18.1471   21.1993 C   0  0  0  0  0  0  0  0  0  0  0  0
   10.1351  -19.2657   20.7852 N   0  0  0  0  0  0  0  0  0  0  0  0
    9.2078  -20.2460   20.6585 C   0  0  0  0  0  0  0  0  0  0  0  0
    7.9996  -19.7467   20.9960 N   0  0  0  0  0  0  0  0  0  0  0  0
    8.7737  -16.3396   23.1521 C   0  0  0  0  0  0  0  0  0  0  0  0
    9.9965  -16.2815   22.8992 O   0  0  0  0  0  0  0  0  0  0  0  0
    8.4693  -16.6057   24.5355 N   0  0  0  0  0  0  0  0  0  0  0  0
    9.3930  -16.2904   25.6097 C   0  0  1  0  0  0  0  0  0  0  0  0
    9.6877  -14.8073   25.6739 C   0  0  0  0  0  0  0  0  0  0  0  0
    8.4814  -13.9940   25.9557 C   0  0  0  0  0  0  0  0  0  0  0  0
    7.6089  -13.5814   24.9757 C   0  0  0  0  0  0  0  0  0  0  0  0
    6.4803  -12.8150   25.2462 C   0  0  0  0  0  0  0  0  0  0  0  0
    6.2119  -12.4469   26.5404 C   0  0  0  0  0  0  0  0  0  0  0  0
    7.0547  -12.8359   27.5521 C   0  0  0  0  0  0  0  0  0  0  0  0
    8.1662  -13.5945   27.2602 C   0  0  0  0  0  0  0  0  0  0  0  0
    8.8115  -16.6895   26.9128 C   0  0  0  0  0  0  0  0  0  0  0  0
    7.6258  -17.0698   27.0013 O   0  0  0  0  0  0  0  0  0  0  0  0
    9.5638  -16.6545   28.0805 O   0  0  0  0  0  0  0  0  0  0  0  0
  1  5  1  0
  2  1  1  0
  2  3  1  0
  3  4  1  0
  5  6  1  1
  5  4  1  0
  6  7  2  0
  8  9  1  0
  8  6  1  0
 10 11  1  0
  9 10  1  6
 11 12  2  0
 13 12  1  0
 14 13  1  0
 15 14  2  0
 15 11  1  0
 16  9  1  0
 17 16  2  0
 18 16  1  0
 19 18  1  0
 19 27  1  0
 19 20  1  1
 21 22  2  0
 21 20  1  0
 23 22  1  0
 24 23  2  0
 25 24  1  0
 25 26  2  0
 26 21  1  0
 27 29  1  0
 28 27  2  0
M  END
$$$$
