PHF.pdb
     RDKit          3D

 29 31  0  0  1  0  0  0  0  0999 V2000
    9.4005  -14.3569   18.4551 N   0  0  0  0  0  0  0  0  0  0  0  0
    8.0288  -14.4505   17.9927 C   0  0  0  0  0  0  0  0  0  0  0  0
    7.2549  -13.3655   18.6690 C   0  0  0  0  0  0  0  0  0  0  0  0
    8.2746  -12.6833   19.5533 C   0  0  0  0  0  0  0  0  0  0  0  0
    9.3424  -13.7345   19.7633 C   0  0  1  0  0  0  0  0  0  0  0  0
    8.9525  -14.7485   20.7541 C   0  0  0  0  0  0  0  0  0  0  0  0
    7.8114  -14.6922   21.3074 O   0  0  0  0  0  0  0  0  0  0  0  0
    9.7703  -15.8249   21.1618 N   0  0  0  0  0  0  0  0  0  0  0  0
    9.4431  -16.7267   22.2710 C   0  0  1  0  0  0  0  0  0  0  0  0
   10.1607  -18.0066   21.9488 C   0  0  0  0  0  0  0  0  0  0  0  0
    9.5765  -18.7844   20.8646 C   0  0  0  0  0  0  0  0  0  0  0  0
   10.0672  -18.7891   19.5640 C   0  0  0  0  0  0  0  0  0  0  0  0
    9.2726  -19.6131   18.8754 N   0  0  0  0  0  0  0  0  0  0  0  0
    8.3217  -20.1071   19.7052 C   0  0  0  0  0  0  0  0  0  0  0  0
    8.5118  -19.5919   20.9386 N   0  0  0  0  0  0  0  0  0  0  0  0
   10.0451  -16.1698   23.5317 C   0  0  0  0  0  0  0  0  0  0  0  0
   11.0951  -15.4929   23.5745 O   0  0  0  0  0  0  0  0  0  0  0  0
    9.4308  -16.3875   24.8172 N   0  0  0  0  0  0  0  0  0  0  0  0
   10.0308  -15.9235   26.0547 C   0  0  1  0  0  0  0  0  0  0  0  0
   10.0542  -14.4121   26.1302 C   0  0  0  0  0  0  0  0  0  0  0  0
    8.7025  -13.8240   26.2826 C   0  0  0  0  0  0  0  0  0  0  0  0
    7.8315  -13.6625   25.2302 C   0  0  0  0  0  0  0  0  0  0  0  0
    6.5656  -13.1064   25.3791 C   0  0  0  0  0  0  0  0  0  0  0  0
    6.1531  -12.6966   26.6218 C   0  0  0  0  0  0  0  0  0  0  0  0
    6.9886  -12.8381   27.7021 C   0  0  0  0  0  0  0  0  0  0  0  0
    8.2377  -13.3915   27.5305 C   0  0  0  0  0  0  0  0  0  0  0  0
    9.2517  -16.4190   27.2136 C   0  0  0  0  0  0  0  0  0  0  0  0
    8.1393  -16.9636   27.0584 O   0  0  0  0  0  0  0  0  0  0  0  0
    9.7308  -16.2952   28.5120 O   0  0  0  0  0  0  0  0  0  0  0  0
  1  5  1  0
  2  1  1  0
  2  3  1  0
  3  4  1  0
  5  6  1  1
  5  4  1  0
  6  7  2  0
  8  9  1  0
  8  6  1  0
 10 11  1  0
  9 10  1  6
 11 12  2  0
 13 12  1  0
 14 13  1  0
 15 14  2  0
 15 11  1  0
 16  9  1  0
 17 16  2  0
 18 16  1  0
 19 18  1  0
 19 27  1  0
 19 20  1  6
 21 22  2  0
 21 20  1  0
 23 22  1  0
 24 23  2  0
 25 24  1  0
 25 26  2  0
 26 21  1  0
 27 29  1  0
 28 27  2  0
M  END
$$$$
