PHF.pdb
     RDKit          3D

 29 31  0  0  1  0  0  0  0  0999 V2000
    8.5571  -14.2383   18.9898 N   0  0  0  0  0  0  0  0  0  0  0  0
    7.1179  -14.1010   19.1088 C   0  0  0  0  0  0  0  0  0  0  0  0
    6.8534  -13.0560   20.1438 C   0  0  0  0  0  0  0  0  0  0  0  0
    8.2317  -12.6427   20.6094 C   0  0  0  0  0  0  0  0  0  0  0  0
    9.1072  -13.8284   20.2670 C   0  0  1  0  0  0  0  0  0  0  0  0
    8.9614  -14.9355   21.2236 C   0  0  0  0  0  0  0  0  0  0  0  0
    7.8065  -15.3620   21.5326 O   0  0  0  0  0  0  0  0  0  0  0  0
   10.0388  -15.5939   21.8557 N   0  0  0  0  0  0  0  0  0  0  0  0
    9.8766  -16.6612   22.8482 C   0  0  1  0  0  0  0  0  0  0  0  0
   11.0774  -17.5443   22.6610 C   0  0  0  0  0  0  0  0  0  0  0  0
   11.0509  -18.3747   21.4646 C   0  0  0  0  0  0  0  0  0  0  0  0
    9.8823  -18.8047   20.8469 C   0  0  0  0  0  0  0  0  0  0  0  0
   10.2696  -19.5333   19.7963 N   0  0  0  0  0  0  0  0  0  0  0  0
   11.6239  -19.5621   19.7528 C   0  0  0  0  0  0  0  0  0  0  0  0
   12.1067  -18.8429   20.7884 N   0  0  0  0  0  0  0  0  0  0  0  0
    9.9656  -16.0532   24.2211 C   0  0  0  0  0  0  0  0  0  0  0  0
   10.7080  -15.0937   24.5224 O   0  0  0  0  0  0  0  0  0  0  0  0
    9.1746  -16.5539   25.3169 N   0  0  0  0  0  0  0  0  0  0  0  0
    9.3019  -16.0381   26.6675 C   0  0  1  0  0  0  0  0  0  0  0  0
    7.9624  -15.6152   27.2311 C   0  0  0  0  0  0  0  0  0  0  0  0
    7.5467  -14.2684   26.7738 C   0  0  0  0  0  0  0  0  0  0  0  0
    8.3126  -13.1417   26.9640 C   0  0  0  0  0  0  0  0  0  0  0  0
    7.9150  -11.8797   26.5357 C   0  0  0  0  0  0  0  0  0  0  0  0
    6.7105  -11.7358   25.8946 C   0  0  0  0  0  0  0  0  0  0  0  0
    5.9122  -12.8325   25.6822 C   0  0  0  0  0  0  0  0  0  0  0  0
    6.3267  -14.0721   26.1152 C   0  0  0  0  0  0  0  0  0  0  0  0
    9.8547  -17.0836   27.5602 C   0  0  0  0  0  0  0  0  0  0  0  0
   10.1754  -16.8232   28.7382 O   0  0  0  0  0  0  0  0  0  0  0  0
   10.0355  -18.3886   27.1188 O   0  0  0  0  0  0  0  0  0  0  0  0
  1  5  1  0
  2  1  1  0
  2  3  1  0
  3  4  1  0
  5  6  1  1
  5  4  1  0
  6  7  2  0
  8  9  1  0
  8  6  1  0
 10 11  1  0
  9 10  1  1
 11 12  2  0
 13 12  1  0
 14 13  1  0
 15 14  2  0
 15 11  1  0
 16  9  1  0
 17 16  2  0
 18 16  1  0
 19 18  1  0
 19 27  1  0
 19 20  1  1
 21 22  2  0
 21 20  1  0
 23 22  1  0
 24 23  2  0
 25 24  1  0
 25 26  2  0
 26 21  1  0
 27 29  1  0
 28 27  2  0
M  END
$$$$
