PHF.pdb
     RDKit          3D

 29 31  0  0  1  0  0  0  0  0999 V2000
    8.9100  -14.7027   18.4346 N   0  0  0  0  0  0  0  0  0  0  0  0
    7.5137  -14.7113   18.0412 C   0  0  0  0  0  0  0  0  0  0  0  0
    6.9407  -13.3786   18.4002 C   0  0  0  0  0  0  0  0  0  0  0  0
    8.0963  -12.6420   19.0399 C   0  0  0  0  0  0  0  0  0  0  0  0
    9.0169  -13.7439   19.5169 C   0  0  1  0  0  0  0  0  0  0  0  0
    8.5481  -14.3762   20.7588 C   0  0  0  0  0  0  0  0  0  0  0  0
    8.0927  -13.6620   21.7042 O   0  0  0  0  0  0  0  0  0  0  0  0
    8.5605  -15.7669   21.0028 N   0  0  0  0  0  0  0  0  0  0  0  0
    8.0674  -16.3854   22.2377 C   0  0  1  0  0  0  0  0  0  0  0  0
    7.9761  -17.8513   21.9222 C   0  0  0  0  0  0  0  0  0  0  0  0
    7.5632  -18.6964   23.0344 C   0  0  0  0  0  0  0  0  0  0  0  0
    8.3202  -19.7539   23.5253 C   0  0  0  0  0  0  0  0  0  0  0  0
    7.6129  -20.2751   24.5316 N   0  0  0  0  0  0  0  0  0  0  0  0
    6.4595  -19.5769   24.6700 C   0  0  0  0  0  0  0  0  0  0  0  0
    6.4305  -18.5981   23.7404 N   0  0  0  0  0  0  0  0  0  0  0  0
    9.1106  -16.2119   23.3072 C   0  0  0  0  0  0  0  0  0  0  0  0
   10.3255  -16.4652   23.1573 O   0  0  0  0  0  0  0  0  0  0  0  0
    8.7668  -15.7264   24.6200 N   0  0  0  0  0  0  0  0  0  0  0  0
    9.7184  -15.7062   25.7157 C   0  0  1  0  0  0  0  0  0  0  0  0
    9.8771  -14.3151   26.2904 C   0  0  0  0  0  0  0  0  0  0  0  0
    8.6561  -13.4890   26.1396 C   0  0  0  0  0  0  0  0  0  0  0  0
    7.8290  -13.1732   27.1923 C   0  0  0  0  0  0  0  0  0  0  0  0
    6.6823  -12.4005   27.0435 C   0  0  0  0  0  0  0  0  0  0  0  0
    6.3483  -11.9254   25.8005 C   0  0  0  0  0  0  0  0  0  0  0  0
    7.1442  -12.2150   24.7198 C   0  0  0  0  0  0  0  0  0  0  0  0
    8.2747  -12.9821   24.8913 C   0  0  0  0  0  0  0  0  0  0  0  0
    9.2536  -16.5929   26.8081 C   0  0  0  0  0  0  0  0  0  0  0  0
    9.9440  -16.7713   27.8328 O   0  0  0  0  0  0  0  0  0  0  0  0
    8.0351  -17.2562   26.7310 O   0  0  0  0  0  0  0  0  0  0  0  0
  1  5  1  0
  2  1  1  0
  2  3  1  0
  3  4  1  0
  5  6  1  1
  5  4  1  0
  6  7  2  0
  8  9  1  0
  8  6  1  0
 10 11  1  0
  9 10  1  6
 11 12  2  0
 13 12  1  0
 14 13  1  0
 15 14  2  0
 15 11  1  0
 16  9  1  0
 17 16  2  0
 18 16  1  0
 19 18  1  0
 19 27  1  0
 19 20  1  1
 21 22  2  0
 21 20  1  0
 23 22  1  0
 24 23  2  0
 25 24  1  0
 25 26  2  0
 26 21  1  0
 27 29  1  0
 28 27  2  0
M  END
$$$$
