GDT.pdb
     RDKit          3D

 20 19  0  0  1  0  0  0  0  0999 V2000
   22.3485  -11.5892  -19.6403 N   0  0  0  0  0  0  0  0  0  0  0  0
   21.7400  -11.7704  -18.3394 C   0  0  0  0  0  0  0  0  0  0  0  0
   20.8907  -10.5835  -17.9792 C   0  0  0  0  0  0  0  0  0  0  0  0
   20.3268   -9.8759  -18.8341 O   0  0  0  0  0  0  0  0  0  0  0  0
   20.7555  -10.2981  -16.6123 N   0  0  0  0  0  0  0  0  0  0  0  0
   19.9108   -9.1705  -16.1102 C   0  0  1  0  0  0  0  0  0  0  0  0
   19.0584   -9.8050  -15.0724 C   0  0  0  0  0  0  0  0  0  0  0  0
   18.1051   -9.0135  -14.3238 C   0  0  0  0  0  0  0  0  0  0  0  0
   18.3540   -8.1841  -13.4352 O   0  0  0  0  0  0  0  0  0  0  0  0
   20.8942   -8.2261  -15.4797 C   0  0  0  0  0  0  0  0  0  0  0  0
   21.7760   -8.7465  -14.7139 O   0  0  0  0  0  0  0  0  0  0  0  0
   16.7130   -9.1766  -14.6099 O   0  0  0  0  0  0  0  0  0  0  0  0
   23.5182   -6.0922  -17.0045 C   0  0  0  0  0  0  0  0  0  0  0  0
   22.8063   -5.2442  -15.9926 C   0  0  1  0  0  0  0  0  0  0  0  0
   22.0639   -4.2950  -16.7225 O   0  0  0  0  0  0  0  0  0  0  0  0
   21.9415   -6.0049  -15.0530 C   0  0  2  0  0  0  0  0  0  0  0  0
   20.9412   -6.8366  -15.6538 N   0  0  0  0  0  0  0  0  0  0  0  0
   21.5338   -5.2623  -13.8353 C   0  0  0  0  0  0  0  0  0  0  0  0
   22.5767   -4.7039  -13.0617 O   0  0  0  0  0  0  0  0  0  0  0  0
   20.4051   -5.0612  -13.3973 O   0  0  0  0  0  0  0  0  0  0  0  0
  2  1  1  0
  2  3  1  0
  3  4  2  0
  5  3  1  0
  5  6  1  0
  6  7  1  1
  7  8  1  0
  8 12  1  0
  9  8  2  0
 10 11  2  0
 10  6  1  0
 14 13  1  6
 14 16  1  0
 15 14  1  0
 16 17  1  6
 17 10  1  0
 18 19  1  0
 18 16  1  0
 20 18  2  0
M  END
$$$$
