GDT.pdb
     RDKit          3D

 20 19  0  0  1  0  0  0  0  0999 V2000
   17.5160   -9.0731  -20.2150 N   0  0  0  0  0  0  0  0  0  0  0  0
   18.3308   -7.9318  -19.8560 C   0  0  0  0  0  0  0  0  0  0  0  0
   18.4869   -7.8376  -18.3638 C   0  0  0  0  0  0  0  0  0  0  0  0
   17.5876   -7.4057  -17.6196 O   0  0  0  0  0  0  0  0  0  0  0  0
   19.7126   -8.2647  -17.8313 N   0  0  0  0  0  0  0  0  0  0  0  0
   19.9639   -8.3348  -16.3584 C   0  0  1  0  0  0  0  0  0  0  0  0
   20.8162   -9.5415  -16.2045 C   0  0  0  0  0  0  0  0  0  0  0  0
   20.2133  -10.8455  -16.0260 C   0  0  0  0  0  0  0  0  0  0  0  0
   20.3844  -11.8526  -16.7301 O   0  0  0  0  0  0  0  0  0  0  0  0
   20.7518   -7.0912  -16.0597 C   0  0  0  0  0  0  0  0  0  0  0  0
   21.7117   -6.8171  -16.8586 O   0  0  0  0  0  0  0  0  0  0  0  0
   19.3150  -11.0344  -14.9288 O   0  0  0  0  0  0  0  0  0  0  0  0
   19.3993   -3.5246  -14.1403 C   0  0  0  0  0  0  0  0  0  0  0  0
   20.5990   -3.7290  -15.0173 C   0  0  1  0  0  0  0  0  0  0  0  0
   21.4474   -2.6271  -14.7917 O   0  0  0  0  0  0  0  0  0  0  0  0
   21.3091   -5.0160  -14.7965 C   0  0  2  0  0  0  0  0  0  0  0  0
   20.5331   -6.2038  -14.9977 N   0  0  0  0  0  0  0  0  0  0  0  0
   22.2411   -5.0279  -13.6425 C   0  0  0  0  0  0  0  0  0  0  0  0
   23.2450   -4.0328  -13.6359 O   0  0  0  0  0  0  0  0  0  0  0  0
   22.2658   -5.7887  -12.6798 O   0  0  0  0  0  0  0  0  0  0  0  0
  2  1  1  0
  2  3  1  0
  3  4  2  0
  5  3  1  0
  5  6  1  0
  6  7  1  6
  7  8  1  0
  8 12  1  0
  9  8  2  0
 10 11  2  0
 10  6  1  0
 14 13  1  1
 14 16  1  0
 15 14  1  0
 16 17  1  1
 17 10  1  0
 18 19  1  0
 18 16  1  0
 20 18  2  0
M  END
$$$$
