GDT.pdb
     RDKit          3D

 20 19  0  0  1  0  0  0  0  0999 V2000
   20.5342  -13.7389  -17.5804 N   0  0  0  0  0  0  0  0  0  0  0  0
   21.4574  -12.8562  -16.8994 C   0  0  0  0  0  0  0  0  0  0  0  0
   20.9803  -11.4322  -16.9671 C   0  0  0  0  0  0  0  0  0  0  0  0
   21.2647  -10.6719  -17.9107 O   0  0  0  0  0  0  0  0  0  0  0  0
   20.1847  -10.9840  -15.9021 N   0  0  0  0  0  0  0  0  0  0  0  0
   19.4740   -9.6682  -15.9330 C   0  0  1  0  0  0  0  0  0  0  0  0
   18.2984   -9.8830  -15.0509 C   0  0  0  0  0  0  0  0  0  0  0  0
   17.0541  -10.3810  -15.5980 C   0  0  0  0  0  0  0  0  0  0  0  0
   16.7619  -10.5115  -16.7967 O   0  0  0  0  0  0  0  0  0  0  0  0
   20.4423   -8.7116  -15.2975 C   0  0  0  0  0  0  0  0  0  0  0  0
   20.9795   -9.0872  -14.1997 O   0  0  0  0  0  0  0  0  0  0  0  0
   16.0221  -10.7760  -14.6895 O   0  0  0  0  0  0  0  0  0  0  0  0
   23.8051   -7.6281  -16.2207 C   0  0  0  0  0  0  0  0  0  0  0  0
   23.0435   -6.3794  -15.8879 C   0  0  1  0  0  0  0  0  0  0  0  0
   22.8108   -5.7192  -17.1105 O   0  0  0  0  0  0  0  0  0  0  0  0
   21.7767   -6.6119  -15.1459 C   0  0  2  0  0  0  0  0  0  0  0  0
   20.8158   -7.4554  -15.7929 N   0  0  0  0  0  0  0  0  0  0  0  0
   21.2378   -5.4248  -14.4382 C   0  0  0  0  0  0  0  0  0  0  0  0
   22.1199   -4.7699  -13.5488 O   0  0  0  0  0  0  0  0  0  0  0  0
   20.1202   -4.9235  -14.5152 O   0  0  0  0  0  0  0  0  0  0  0  0
  2  1  1  0
  2  3  1  0
  3  4  2  0
  5  3  1  0
  5  6  1  0
  6  7  1  1
  7  8  1  0
  8 12  1  0
  9  8  2  0
 10 11  2  0
 10  6  1  0
 14 13  1  6
 14 16  1  0
 15 14  1  0
 16 17  1  6
 17 10  1  0
 18 19  1  0
 18 16  1  0
 20 18  2  0
M  END
$$$$
