GDT.pdb
     RDKit          3D

 20 19  0  0  1  0  0  0  0  0999 V2000
   13.2751  -13.8969  -11.1321 N   0  0  0  0  0  0  0  0  0  0  0  0
   13.4126  -12.6486  -11.8520 C   0  0  0  0  0  0  0  0  0  0  0  0
   14.6321  -11.9000  -11.3910 C   0  0  0  0  0  0  0  0  0  0  0  0
   15.3101  -12.2581  -10.4105 O   0  0  0  0  0  0  0  0  0  0  0  0
   14.9837  -10.7574  -12.1250 N   0  0  0  0  0  0  0  0  0  0  0  0
   16.2652  -10.0213  -11.8941 C   0  0  1  0  0  0  0  0  0  0  0  0
   16.8863   -9.9659  -13.2422 C   0  0  0  0  0  0  0  0  0  0  0  0
   18.2082   -9.4018  -13.4164 C   0  0  0  0  0  0  0  0  0  0  0  0
   18.8526   -9.3157  -14.4731 O   0  0  0  0  0  0  0  0  0  0  0  0
   15.8295   -8.6515  -11.4576 C   0  0  0  0  0  0  0  0  0  0  0  0
   14.7859   -8.1763  -12.0234 O   0  0  0  0  0  0  0  0  0  0  0  0
   18.8792   -8.8755  -12.2679 O   0  0  0  0  0  0  0  0  0  0  0  0
   14.7908   -7.1778   -7.9863 C   0  0  0  0  0  0  0  0  0  0  0  0
   15.8164   -6.3126   -8.6570 C   0  0  1  0  0  0  0  0  0  0  0  0
   17.0280   -6.5303   -7.9719 O   0  0  0  0  0  0  0  0  0  0  0  0
   15.9655   -6.5554  -10.1158 C   0  0  2  0  0  0  0  0  0  0  0  0
   16.4509   -7.8506  -10.4904 N   0  0  0  0  0  0  0  0  0  0  0  0
   16.4930   -5.4065  -10.8919 C   0  0  0  0  0  0  0  0  0  0  0  0
   15.7902   -4.1867  -10.7639 O   0  0  0  0  0  0  0  0  0  0  0  0
   17.4652   -5.3631  -11.6396 O   0  0  0  0  0  0  0  0  0  0  0  0
  2  1  1  0
  2  3  1  0
  3  4  2  0
  5  3  1  0
  5  6  1  0
  6  7  1  6
  7  8  1  0
  8 12  1  0
  9  8  2  0
 10 11  2  0
 10  6  1  0
 14 13  1  1
 14 16  1  0
 15 14  1  0
 16 17  1  1
 17 10  1  0
 18 19  1  0
 18 16  1  0
 20 18  2  0
M  END
$$$$
