GDT.pdb
     RDKit          3D

 20 19  0  0  1  0  0  0  0  0999 V2000
   22.9028  -11.2267  -18.0571 N   0  0  0  0  0  0  0  0  0  0  0  0
   23.4385  -10.0162  -18.6429 C   0  0  0  0  0  0  0  0  0  0  0  0
   22.5567   -8.8390  -18.3320 C   0  0  0  0  0  0  0  0  0  0  0  0
   21.5137   -8.5943  -18.9656 O   0  0  0  0  0  0  0  0  0  0  0  0
   22.9641   -8.0090  -17.2768 N   0  0  0  0  0  0  0  0  0  0  0  0
   22.1322   -6.8643  -16.7925 C   0  0  1  0  0  0  0  0  0  0  0  0
   22.2384   -6.9537  -15.3137 C   0  0  0  0  0  0  0  0  0  0  0  0
   21.3513   -7.8207  -14.5673 C   0  0  0  0  0  0  0  0  0  0  0  0
   20.1787   -8.1134  -14.8480 O   0  0  0  0  0  0  0  0  0  0  0  0
   22.8505   -5.6465  -17.3000 C   0  0  0  0  0  0  0  0  0  0  0  0
   24.1181   -5.6202  -17.1347 O   0  0  0  0  0  0  0  0  0  0  0  0
   21.8427   -8.4257  -13.3678 O   0  0  0  0  0  0  0  0  0  0  0  0
   23.9331   -4.6036  -20.4766 C   0  0  0  0  0  0  0  0  0  0  0  0
   23.2258   -3.4047  -19.9176 C   0  0  1  0  0  0  0  0  0  0  0  0
   21.9967   -3.3154  -20.6004 O   0  0  0  0  0  0  0  0  0  0  0  0
   23.0283   -3.4396  -18.4448 C   0  0  2  0  0  0  0  0  0  0  0  0
   22.2681   -4.5440  -17.9391 N   0  0  0  0  0  0  0  0  0  0  0  0
   22.7697   -2.1213  -17.8156 C   0  0  0  0  0  0  0  0  0  0  0  0
   23.7262   -1.1099  -18.0613 O   0  0  0  0  0  0  0  0  0  0  0  0
   21.8317   -1.7787  -17.1022 O   0  0  0  0  0  0  0  0  0  0  0  0
  2  1  1  0
  2  3  1  0
  3  4  2  0
  5  3  1  0
  5  6  1  0
  6  7  1  1
  7  8  1  0
  8 12  1  0
  9  8  2  0
 10 11  2  0
 10  6  1  0
 14 13  1  6
 14 16  1  0
 15 14  1  0
 16 17  1  6
 17 10  1  0
 18 19  1  0
 18 16  1  0
 20 18  2  0
M  END
$$$$
