GDT.pdb
     RDKit          3D

 20 19  0  0  1  0  0  0  0  0999 V2000
   19.8251  -12.7582  -17.7220 N   0  0  0  0  0  0  0  0  0  0  0  0
   20.2441  -11.3809  -17.8737 C   0  0  0  0  0  0  0  0  0  0  0  0
   20.9927  -10.9153  -16.6561 C   0  0  0  0  0  0  0  0  0  0  0  0
   20.5964  -11.1375  -15.4973 O   0  0  0  0  0  0  0  0  0  0  0  0
   22.1813  -10.2049  -16.8817 N   0  0  0  0  0  0  0  0  0  0  0  0
   22.9984   -9.6374  -15.7648 C   0  0  1  0  0  0  0  0  0  0  0  0
   24.3799  -10.0842  -16.0779 C   0  0  0  0  0  0  0  0  0  0  0  0
   25.4760   -9.7474  -15.1943 C   0  0  0  0  0  0  0  0  0  0  0  0
   25.4211   -9.0667  -14.1583 O   0  0  0  0  0  0  0  0  0  0  0  0
   22.8737   -8.1502  -15.9363 C   0  0  0  0  0  0  0  0  0  0  0  0
   23.1618   -7.6818  -17.0906 O   0  0  0  0  0  0  0  0  0  0  0  0
   26.7824  -10.2331  -15.5163 O   0  0  0  0  0  0  0  0  0  0  0  0
   20.6527   -6.1164  -17.0335 C   0  0  0  0  0  0  0  0  0  0  0  0
   21.0609   -5.3749  -15.7951 C   0  0  1  0  0  0  0  0  0  0  0  0
   19.9987   -5.5158  -14.8804 O   0  0  0  0  0  0  0  0  0  0  0  0
   22.3491   -5.8255  -15.2060 C   0  0  2  0  0  0  0  0  0  0  0  0
   22.4685   -7.2319  -14.9586 N   0  0  0  0  0  0  0  0  0  0  0  0
   22.9133   -4.9261  -14.1700 C   0  0  0  0  0  0  0  0  0  0  0  0
   23.2547   -5.5256  -12.9363 O   0  0  0  0  0  0  0  0  0  0  0  0
   23.1285   -3.7194  -14.2317 O   0  0  0  0  0  0  0  0  0  0  0  0
  2  1  1  0
  2  3  1  0
  3  4  2  0
  5  3  1  0
  5  6  1  0
  6  7  1  6
  7  8  1  0
  8 12  1  0
  9  8  2  0
 10 11  2  0
 10  6  1  0
 14 13  1  6
 14 16  1  0
 15 14  1  0
 16 17  1  1
 17 10  1  0
 18 19  1  0
 18 16  1  0
 20 18  2  0
M  END
$$$$
