GDT.pdb
     RDKit          3D

 20 19  0  0  1  0  0  0  0  0999 V2000
   21.2355  -14.4960  -17.9089 N   0  0  0  0  0  0  0  0  0  0  0  0
   20.0315  -14.2628  -17.1398 C   0  0  0  0  0  0  0  0  0  0  0  0
   19.6690  -12.8038  -17.1480 C   0  0  0  0  0  0  0  0  0  0  0  0
   20.2225  -11.9777  -17.8967 O   0  0  0  0  0  0  0  0  0  0  0  0
   18.6608  -12.4010  -16.2595 N   0  0  0  0  0  0  0  0  0  0  0  0
   18.0815  -11.0222  -16.2790 C   0  0  1  0  0  0  0  0  0  0  0  0
   16.7862  -11.1753  -15.5681 C   0  0  0  0  0  0  0  0  0  0  0  0
   15.8856  -10.0495  -15.4373 C   0  0  0  0  0  0  0  0  0  0  0  0
   16.1552   -8.8506  -15.6089 O   0  0  0  0  0  0  0  0  0  0  0  0
   19.0405  -10.2082  -15.4579 C   0  0  0  0  0  0  0  0  0  0  0  0
   19.1999  -10.5682  -14.2414 O   0  0  0  0  0  0  0  0  0  0  0  0
   14.5267  -10.3053  -15.0709 O   0  0  0  0  0  0  0  0  0  0  0  0
   22.6825   -9.8150  -15.6042 C   0  0  0  0  0  0  0  0  0  0  0  0
   22.1217   -8.4309  -15.4633 C   0  0  1  0  0  0  0  0  0  0  0  0
   22.3256   -7.7925  -16.7026 O   0  0  0  0  0  0  0  0  0  0  0  0
   20.6927   -8.3856  -15.0569 C   0  0  2  0  0  0  0  0  0  0  0  0
   19.7780   -9.1007  -15.8968 N   0  0  0  0  0  0  0  0  0  0  0  0
   20.2273   -7.0725  -14.5472 C   0  0  0  0  0  0  0  0  0  0  0  0
   19.0460   -6.5567  -15.1274 O   0  0  0  0  0  0  0  0  0  0  0  0
   20.7283   -6.3601  -13.6825 O   0  0  0  0  0  0  0  0  0  0  0  0
  2  1  1  0
  2  3  1  0
  3  4  2  0
  5  3  1  0
  5  6  1  0
  6  7  1  1
  7  8  1  0
  8 12  1  0
  9  8  2  0
 10 11  2  0
 10  6  1  0
 14 13  1  6
 14 16  1  0
 15 14  1  0
 16 17  1  6
 17 10  1  0
 18 19  1  0
 18 16  1  0
 20 18  2  0
M  END
$$$$
