GDT.pdb
     RDKit          3D

 20 19  0  0  1  0  0  0  0  0999 V2000
   15.7153   -9.8288  -17.4653 N   0  0  0  0  0  0  0  0  0  0  0  0
   17.0267   -9.3101  -17.7919 C   0  0  0  0  0  0  0  0  0  0  0  0
   17.8279   -9.0646  -16.5439 C   0  0  0  0  0  0  0  0  0  0  0  0
   17.3393   -9.1545  -15.4026 O   0  0  0  0  0  0  0  0  0  0  0  0
   19.1772   -8.7227  -16.7195 N   0  0  0  0  0  0  0  0  0  0  0  0
   20.1271   -8.5989  -15.5707 C   0  0  1  0  0  0  0  0  0  0  0  0
   21.2678   -9.4655  -15.9632 C   0  0  0  0  0  0  0  0  0  0  0  0
   22.4188   -9.5980  -15.0952 C   0  0  0  0  0  0  0  0  0  0  0  0
   22.5542   -9.1303  -13.9540 O   0  0  0  0  0  0  0  0  0  0  0  0
   20.5344   -7.1530  -15.5840 C   0  0  0  0  0  0  0  0  0  0  0  0
   20.9482   -6.6860  -16.6999 O   0  0  0  0  0  0  0  0  0  0  0  0
   23.5450  -10.3422  -15.5688 O   0  0  0  0  0  0  0  0  0  0  0  0
   18.9576   -4.0379  -15.7731 C   0  0  0  0  0  0  0  0  0  0  0  0
   19.9320   -3.8645  -14.6459 C   0  0  1  0  0  0  0  0  0  0  0  0
   19.1661   -3.8091  -13.4648 O   0  0  0  0  0  0  0  0  0  0  0  0
   20.9756   -4.9201  -14.5682 C   0  0  2  0  0  0  0  0  0  0  0  0
   20.4994   -6.2697  -14.4969 N   0  0  0  0  0  0  0  0  0  0  0  0
   22.1403   -4.5882  -13.7115 C   0  0  0  0  0  0  0  0  0  0  0  0
   22.8187   -3.3852  -14.0125 O   0  0  0  0  0  0  0  0  0  0  0  0
   22.6057   -5.2177  -12.7663 O   0  0  0  0  0  0  0  0  0  0  0  0
  2  1  1  0
  2  3  1  0
  3  4  2  0
  5  3  1  0
  5  6  1  0
  6  7  1  6
  7  8  1  0
  8 12  1  0
  9  8  2  0
 10 11  2  0
 10  6  1  0
 14 13  1  6
 14 16  1  0
 15 14  1  0
 16 17  1  1
 17 10  1  0
 18 19  1  0
 18 16  1  0
 20 18  2  0
M  END
$$$$
