GDT.pdb
     RDKit          3D

 20 19  0  0  1  0  0  0  0  0999 V2000
   14.0998  -10.3646   -9.8519 N   0  0  0  0  0  0  0  0  0  0  0  0
   15.0629   -9.4939   -9.2119 C   0  0  0  0  0  0  0  0  0  0  0  0
   15.4894   -8.3950  -10.1449 C   0  0  0  0  0  0  0  0  0  0  0  0
   15.0852   -8.3156  -11.3194 O   0  0  0  0  0  0  0  0  0  0  0  0
   16.3801   -7.4419   -9.6289 N   0  0  0  0  0  0  0  0  0  0  0  0
   16.7711   -6.2165  -10.3923 C   0  0  1  0  0  0  0  0  0  0  0  0
   16.5698   -5.1153   -9.4162 C   0  0  0  0  0  0  0  0  0  0  0  0
   16.8687   -3.7474   -9.7840 C   0  0  0  0  0  0  0  0  0  0  0  0
   16.9069   -2.7609   -9.0325 O   0  0  0  0  0  0  0  0  0  0  0  0
   18.2337   -6.4098  -10.6749 C   0  0  0  0  0  0  0  0  0  0  0  0
   18.9883   -6.6196   -9.6643 O   0  0  0  0  0  0  0  0  0  0  0  0
   17.1567   -3.4598  -11.1554 O   0  0  0  0  0  0  0  0  0  0  0  0
   20.5357   -8.9062  -12.0438 C   0  0  0  0  0  0  0  0  0  0  0  0
   20.8220   -7.6251  -12.7697 C   0  0  1  0  0  0  0  0  0  0  0  0
   20.3120   -7.7855  -14.0732 O   0  0  0  0  0  0  0  0  0  0  0  0
   20.2683   -6.4111  -12.1148 C   0  0  2  0  0  0  0  0  0  0  0  0
   18.8469   -6.3878  -11.9346 N   0  0  0  0  0  0  0  0  0  0  0  0
   20.8992   -5.1334  -12.5272 C   0  0  0  0  0  0  0  0  0  0  0  0
   22.3068   -5.0645  -12.4189 O   0  0  0  0  0  0  0  0  0  0  0  0
   20.3663   -4.1136  -12.9542 O   0  0  0  0  0  0  0  0  0  0  0  0
  2  1  1  0
  2  3  1  0
  3  4  2  0
  5  3  1  0
  5  6  1  0
  6  7  1  1
  7  8  1  0
  8 12  1  0
  9  8  2  0
 10 11  2  0
 10  6  1  0
 14 13  1  1
 14 16  1  0
 15 14  1  0
 16 17  1  6
 17 10  1  0
 18 19  1  0
 18 16  1  0
 20 18  2  0
M  END
$$$$
