GDT.pdb
     RDKit          3D

 20 19  0  0  1  0  0  0  0  0999 V2000
   16.5949  -10.9087  -15.4858 N   0  0  0  0  0  0  0  0  0  0  0  0
   17.6754  -10.5598  -16.3837 C   0  0  0  0  0  0  0  0  0  0  0  0
   18.8943  -10.1387  -15.6112 C   0  0  0  0  0  0  0  0  0  0  0  0
   19.0135  -10.3293  -14.3869 O   0  0  0  0  0  0  0  0  0  0  0  0
   19.9144   -9.5088  -16.3397 N   0  0  0  0  0  0  0  0  0  0  0  0
   21.2016   -9.0819  -15.7088 C   0  0  1  0  0  0  0  0  0  0  0  0
   22.2332   -9.5221  -16.6825 C   0  0  0  0  0  0  0  0  0  0  0  0
   22.6173  -10.9157  -16.7620 C   0  0  0  0  0  0  0  0  0  0  0  0
   23.3387  -11.5403  -15.9690 O   0  0  0  0  0  0  0  0  0  0  0  0
   21.1151   -7.5826  -15.6740 C   0  0  0  0  0  0  0  0  0  0  0  0
   21.0051   -6.9901  -16.8017 O   0  0  0  0  0  0  0  0  0  0  0  0
   22.1329  -11.6925  -17.8612 O   0  0  0  0  0  0  0  0  0  0  0  0
   18.5049   -5.3293  -14.6546 C   0  0  0  0  0  0  0  0  0  0  0  0
   19.7528   -4.7863  -14.0236 C   0  0  1  0  0  0  0  0  0  0  0  0
   19.6383   -5.0340  -12.6415 O   0  0  0  0  0  0  0  0  0  0  0  0
   21.0140   -5.3482  -14.5741 C   0  0  2  0  0  0  0  0  0  0  0  0
   21.1379   -6.7751  -14.5292 N   0  0  0  0  0  0  0  0  0  0  0  0
   22.2375   -4.5722  -14.2556 C   0  0  0  0  0  0  0  0  0  0  0  0
   22.2274   -3.2065  -14.6198 O   0  0  0  0  0  0  0  0  0  0  0  0
   23.2714   -4.9518  -13.7141 O   0  0  0  0  0  0  0  0  0  0  0  0
  2  1  1  0
  2  3  1  0
  3  4  2  0
  5  3  1  0
  5  6  1  0
  6  7  1  6
  7  8  1  0
  8 12  1  0
  9  8  2  0
 10 11  2  0
 10  6  1  0
 14 13  1  6
 14 16  1  0
 15 14  1  0
 16 17  1  1
 17 10  1  0
 18 19  1  0
 18 16  1  0
 20 18  2  0
M  END
$$$$
