GDT.pdb
     RDKit          3D

 20 19  0  0  1  0  0  0  0  0999 V2000
   15.5678  -10.2397  -16.2917 N   0  0  0  0  0  0  0  0  0  0  0  0
   16.6956   -9.5115  -16.8331 C   0  0  0  0  0  0  0  0  0  0  0  0
   17.7835   -9.3740  -15.8047 C   0  0  0  0  0  0  0  0  0  0  0  0
   17.6188   -9.6727  -14.6076 O   0  0  0  0  0  0  0  0  0  0  0  0
   19.0184   -8.8853  -16.2567 N   0  0  0  0  0  0  0  0  0  0  0  0
   20.1863   -8.6942  -15.3419 C   0  0  1  0  0  0  0  0  0  0  0  0
   21.2425   -9.5527  -15.9365 C   0  0  0  0  0  0  0  0  0  0  0  0
   22.5497   -9.6378  -15.3202 C   0  0  0  0  0  0  0  0  0  0  0  0
   22.9303   -9.0630  -14.2886 O   0  0  0  0  0  0  0  0  0  0  0  0
   20.5395   -7.2421  -15.4942 C   0  0  0  0  0  0  0  0  0  0  0  0
   20.8471   -6.8491  -16.6714 O   0  0  0  0  0  0  0  0  0  0  0  0
   23.5399  -10.4647  -15.9383 O   0  0  0  0  0  0  0  0  0  0  0  0
   18.9413   -4.1527  -15.8142 C   0  0  0  0  0  0  0  0  0  0  0  0
   19.9872   -3.8895  -14.7716 C   0  0  1  0  0  0  0  0  0  0  0  0
   19.2999   -3.7271  -13.5526 O   0  0  0  0  0  0  0  0  0  0  0  0
   21.0322   -4.9417  -14.6706 C   0  0  2  0  0  0  0  0  0  0  0  0
   20.5587   -6.2801  -14.4757 N   0  0  0  0  0  0  0  0  0  0  0  0
   22.2402   -4.5538  -13.9020 C   0  0  0  0  0  0  0  0  0  0  0  0
   22.8787   -3.3565  -14.2980 O   0  0  0  0  0  0  0  0  0  0  0  0
   22.7720   -5.1319  -12.9590 O   0  0  0  0  0  0  0  0  0  0  0  0
  2  1  1  0
  2  3  1  0
  3  4  2  0
  5  3  1  0
  5  6  1  0
  6  7  1  6
  7  8  1  0
  8 12  1  0
  9  8  2  0
 10 11  2  0
 10  6  1  0
 14 13  1  6
 14 16  1  0
 15 14  1  0
 16 17  1  1
 17 10  1  0
 18 19  1  0
 18 16  1  0
 20 18  2  0
M  END
$$$$
