GDT.pdb
     RDKit          3D

 20 19  0  0  1  0  0  0  0  0999 V2000
   15.7881  -11.6513  -11.7060 N   0  0  0  0  0  0  0  0  0  0  0  0
   16.2766  -10.3708  -11.2399 C   0  0  0  0  0  0  0  0  0  0  0  0
   16.6035   -9.4718  -12.3996 C   0  0  0  0  0  0  0  0  0  0  0  0
   16.4898   -9.8349  -13.5847 O   0  0  0  0  0  0  0  0  0  0  0  0
   17.0516   -8.1796  -12.0871 N   0  0  0  0  0  0  0  0  0  0  0  0
   17.3814   -7.1707  -13.1409 C   0  0  1  0  0  0  0  0  0  0  0  0
   16.5556   -5.9929  -12.7703 C   0  0  0  0  0  0  0  0  0  0  0  0
   16.5338   -4.8188  -13.6168 C   0  0  0  0  0  0  0  0  0  0  0  0
   17.5063   -4.2586  -14.1459 O   0  0  0  0  0  0  0  0  0  0  0  0
   18.8398   -6.8798  -12.9286 C   0  0  0  0  0  0  0  0  0  0  0  0
   19.2327   -6.7832  -11.7158 O   0  0  0  0  0  0  0  0  0  0  0  0
   15.2717   -4.2069  -13.8978 O   0  0  0  0  0  0  0  0  0  0  0  0
   21.8803   -8.8931  -13.6352 C   0  0  0  0  0  0  0  0  0  0  0  0
   22.1411   -7.5075  -14.1473 C   0  0  1  0  0  0  0  0  0  0  0  0
   22.1122   -7.5925  -15.5533 O   0  0  0  0  0  0  0  0  0  0  0  0
   21.1931   -6.4786  -13.6453 C   0  0  2  0  0  0  0  0  0  0  0  0
   19.8074   -6.7104  -13.9277 N   0  0  0  0  0  0  0  0  0  0  0  0
   21.6638   -5.0775  -13.7717 C   0  0  0  0  0  0  0  0  0  0  0  0
   22.8899   -4.7677  -13.1403 O   0  0  0  0  0  0  0  0  0  0  0  0
   21.1334   -4.1361  -14.3537 O   0  0  0  0  0  0  0  0  0  0  0  0
  2  1  1  0
  2  3  1  0
  3  4  2  0
  5  3  1  0
  5  6  1  0
  6  7  1  1
  7  8  1  0
  8 12  1  0
  9  8  2  0
 10 11  2  0
 10  6  1  0
 14 13  1  1
 14 16  1  0
 15 14  1  0
 16 17  1  6
 17 10  1  0
 18 19  1  0
 18 16  1  0
 20 18  2  0
M  END
$$$$
