GDT.pdb
     RDKit          3D

 20 19  0  0  1  0  0  0  0  0999 V2000
   19.9178  -12.3462  -17.4866 N   0  0  0  0  0  0  0  0  0  0  0  0
   20.0849  -10.9911  -17.9675 C   0  0  0  0  0  0  0  0  0  0  0  0
   21.1901  -10.2948  -17.2235 C   0  0  0  0  0  0  0  0  0  0  0  0
   21.6227  -10.6996  -16.1289 O   0  0  0  0  0  0  0  0  0  0  0  0
   21.7265   -9.1460  -17.8241 N   0  0  0  0  0  0  0  0  0  0  0  0
   22.8167   -8.3448  -17.1865 C   0  0  1  0  0  0  0  0  0  0  0  0
   23.6159   -7.8583  -18.3401 C   0  0  0  0  0  0  0  0  0  0  0  0
   24.7705   -8.6028  -18.7967 C   0  0  0  0  0  0  0  0  0  0  0  0
   25.3582   -8.4820  -19.8827 O   0  0  0  0  0  0  0  0  0  0  0  0
   22.0969   -7.2041  -16.5252 C   0  0  0  0  0  0  0  0  0  0  0  0
   21.4878   -6.3878  -17.2981 O   0  0  0  0  0  0  0  0  0  0  0  0
   25.3245   -9.5967  -17.9297 O   0  0  0  0  0  0  0  0  0  0  0  0
   19.1011   -7.2330  -14.6107 C   0  0  0  0  0  0  0  0  0  0  0  0
   20.0183   -6.3320  -13.8379 C   0  0  1  0  0  0  0  0  0  0  0  0
   20.3576   -7.0273  -12.6605 O   0  0  0  0  0  0  0  0  0  0  0  0
   21.2299   -5.9028  -14.5842 C   0  0  2  0  0  0  0  0  0  0  0  0
   22.0247   -6.9531  -15.1486 N   0  0  0  0  0  0  0  0  0  0  0  0
   21.9724   -4.7714  -13.9766 C   0  0  0  0  0  0  0  0  0  0  0  0
   21.2148   -3.6206  -13.6609 O   0  0  0  0  0  0  0  0  0  0  0  0
   23.1666   -4.6904  -13.7055 O   0  0  0  0  0  0  0  0  0  0  0  0
  2  1  1  0
  2  3  1  0
  3  4  2  0
  5  3  1  0
  5  6  1  0
  6  7  1  6
  7  8  1  0
  8 12  1  0
  9  8  2  0
 10 11  2  0
 10  6  1  0
 14 13  1  6
 14 16  1  0
 15 14  1  0
 16 17  1  1
 17 10  1  0
 18 19  1  0
 18 16  1  0
 20 18  2  0
M  END
$$$$
