GDT.pdb
     RDKit          3D

 20 19  0  0  1  0  0  0  0  0999 V2000
   16.7418  -14.2400  -15.2551 N   0  0  0  0  0  0  0  0  0  0  0  0
   16.2761  -12.9055  -14.9424 C   0  0  0  0  0  0  0  0  0  0  0  0
   17.0041  -11.8809  -15.7670 C   0  0  0  0  0  0  0  0  0  0  0  0
   17.8159  -12.1890  -16.6589 O   0  0  0  0  0  0  0  0  0  0  0  0
   16.7270  -10.5347  -15.4859 N   0  0  0  0  0  0  0  0  0  0  0  0
   17.2946   -9.4146  -16.2985 C   0  0  1  0  0  0  0  0  0  0  0  0
   16.1774   -8.4393  -16.3812 C   0  0  0  0  0  0  0  0  0  0  0  0
   15.0696   -8.6701  -17.2842 C   0  0  0  0  0  0  0  0  0  0  0  0
   13.8913   -8.9099  -16.9784 O   0  0  0  0  0  0  0  0  0  0  0  0
   18.4076   -8.8705  -15.4489 C   0  0  0  0  0  0  0  0  0  0  0  0
   18.1442   -8.6859  -14.2115 O   0  0  0  0  0  0  0  0  0  0  0  0
   15.3198   -8.6258  -18.6920 O   0  0  0  0  0  0  0  0  0  0  0  0
   21.8061  -10.3960  -14.8115 C   0  0  0  0  0  0  0  0  0  0  0  0
   21.9976   -8.9242  -15.0286 C   0  0  1  0  0  0  0  0  0  0  0  0
   22.6548   -8.7884  -16.2674 O   0  0  0  0  0  0  0  0  0  0  0  0
   20.7424   -8.1291  -14.9890 C   0  0  2  0  0  0  0  0  0  0  0  0
   19.7025   -8.5526  -15.8794 N   0  0  0  0  0  0  0  0  0  0  0  0
   20.9323   -6.6644  -14.8501 C   0  0  0  0  0  0  0  0  0  0  0  0
   21.6942   -6.2324  -13.7407 O   0  0  0  0  0  0  0  0  0  0  0  0
   20.5163   -5.7619  -15.5703 O   0  0  0  0  0  0  0  0  0  0  0  0
  2  1  1  0
  2  3  1  0
  3  4  2  0
  5  3  1  0
  5  6  1  0
  6  7  1  1
  7  8  1  0
  8 12  1  0
  9  8  2  0
 10 11  2  0
 10  6  1  0
 14 13  1  6
 14 16  1  0
 15 14  1  0
 16 17  1  6
 17 10  1  0
 18 19  1  0
 18 16  1  0
 20 18  2  0
M  END
$$$$
