SKC.pdb
     RDKit          3D

 22 21  0  0  1  0  0  0  0  0999 V2000
   10.8901  -12.5087   19.3901 O   0  0  0  0  0  0  0  0  0  0  0  0
   10.3564  -13.8073   19.2570 C   0  0  0  0  0  0  0  0  0  0  0  0
    8.8622  -13.6449   18.9496 C   0  0  2  0  0  0  0  0  0  0  0  0
    8.5320  -12.2878   18.6447 N   0  0  0  0  0  0  0  0  0  0  0  0
    8.1383  -14.1433   20.1432 C   0  0  0  0  0  0  0  0  0  0  0  0
    7.6625  -13.2960   20.9403 O   0  0  0  0  0  0  0  0  0  0  0  0
    7.9561  -15.5139   20.4302 N   0  0  0  0  0  0  0  0  0  0  0  0
    7.3014  -16.0162   21.6193 C   0  0  1  0  0  0  0  0  0  0  0  0
    7.0513  -17.4992   21.5497 C   0  0  0  0  0  0  0  0  0  0  0  0
    6.4203  -18.0296   22.8177 C   0  0  0  0  0  0  0  0  0  0  0  0
    6.1813  -19.5193   22.7413 C   0  0  0  0  0  0  0  0  0  0  0  0
    5.3258  -19.9269   23.9214 C   0  0  0  0  0  0  0  0  0  0  0  0
    5.1498  -21.3499   23.9234 N   0  0  0  0  0  0  0  0  0  0  0  0
    8.1052  -15.6317   22.7974 C   0  0  0  0  0  0  0  0  0  0  0  0
    9.3320  -15.8806   22.8040 O   0  0  0  0  0  0  0  0  0  0  0  0
    7.5555  -14.9864   23.9385 N   0  0  0  0  0  0  0  0  0  0  0  0
    8.3813  -14.6252   25.0887 C   0  0  1  0  0  0  0  0  0  0  0  0
    7.7918  -13.4278   25.7615 C   0  0  0  0  0  0  0  0  0  0  0  0
    6.0369  -13.8249   26.1185 S   0  0  0  0  0  0  0  0  0  0  0  0
    8.4730  -15.7561   26.0480 C   0  0  0  0  0  0  0  0  0  0  0  0
    9.3319  -15.7479   27.1353 O   0  0  0  0  0  0  0  0  0  0  0  0
    7.7533  -16.7770   25.8924 O   0  0  0  0  0  0  0  0  0  0  0  0
  1  2  1  0
  2  3  1  0
  3  5  1  0
  3  4  1  1
  5  6  2  0
  7  8  1  0
  7  5  1  0
  9 10  1  0
  8  9  1  6
 11 10  1  0
 12 11  1  0
 13 12  1  0
 14  8  1  0
 14 15  2  0
 16 14  1  0
 17 16  1  0
 17 20  1  0
 17 18  1  1
 19 18  1  0
 20 21  1  0
 22 20  2  0
M  END
$$$$
