SKC.pdb
     RDKit          3D

 22 21  0  0  1  0  0  0  0  0999 V2000
    9.2008  -20.3789   16.6930 O   0  0  0  0  0  0  0  0  0  0  0  0
    8.0456  -19.6222   16.4065 C   0  0  0  0  0  0  0  0  0  0  0  0
    8.5235  -18.2526   15.9071 C   0  0  2  0  0  0  0  0  0  0  0  0
    9.4858  -18.3814   14.8577 N   0  0  0  0  0  0  0  0  0  0  0  0
    9.0752  -17.5508   17.0904 C   0  0  0  0  0  0  0  0  0  0  0  0
   10.3188  -17.5848   17.2691 O   0  0  0  0  0  0  0  0  0  0  0  0
    8.2802  -16.8492   18.0232 N   0  0  0  0  0  0  0  0  0  0  0  0
    8.8111  -16.0656   19.1181 C   0  0  1  0  0  0  0  0  0  0  0  0
    7.7703  -15.1706   19.7365 C   0  0  0  0  0  0  0  0  0  0  0  0
    8.3428  -14.3123   20.8424 C   0  0  0  0  0  0  0  0  0  0  0  0
    7.2759  -13.4755   21.5084 C   0  0  0  0  0  0  0  0  0  0  0  0
    7.9279  -12.6458   22.5934 C   0  0  0  0  0  0  0  0  0  0  0  0
    6.9313  -11.8757   23.2789 N   0  0  0  0  0  0  0  0  0  0  0  0
    9.4250  -16.9831   20.0995 C   0  0  0  0  0  0  0  0  0  0  0  0
    8.9357  -18.1251   20.2531 O   0  0  0  0  0  0  0  0  0  0  0  0
   10.5550  -16.6364   20.8892 N   0  0  0  0  0  0  0  0  0  0  0  0
   11.1026  -17.5505   21.8892 C   0  0  1  0  0  0  0  0  0  0  0  0
   12.5385  -17.8214   21.5747 C   0  0  0  0  0  0  0  0  0  0  0  0
   13.1927  -18.8737   22.9273 S   0  0  0  0  0  0  0  0  0  0  0  0
   10.9787  -16.9751   23.2534 C   0  0  0  0  0  0  0  0  0  0  0  0
   11.0830  -17.7431   24.4022 O   0  0  0  0  0  0  0  0  0  0  0  0
   10.7703  -15.7429   23.4035 O   0  0  0  0  0  0  0  0  0  0  0  0
  1  2  1  0
  2  3  1  0
  3  5  1  0
  3  4  1  6
  5  6  2  0
  7  8  1  0
  7  5  1  0
  9 10  1  0
  8  9  1  1
 11 10  1  0
 12 11  1  0
 13 12  1  0
 14  8  1  0
 14 15  2  0
 16 14  1  0
 17 16  1  0
 17 20  1  0
 17 18  1  6
 19 18  1  0
 20 21  1  0
 22 20  2  0
M  END
$$$$
