SKC.pdb
     RDKit          3D

 22 21  0  0  1  0  0  0  0  0999 V2000
   10.7238  -12.9520   18.9315 O   0  0  0  0  0  0  0  0  0  0  0  0
    9.9423  -13.0206   20.1036 C   0  0  0  0  0  0  0  0  0  0  0  0
    8.6698  -13.7987   19.7448 C   0  0  2  0  0  0  0  0  0  0  0  0
    7.7731  -13.0083   18.9605 N   0  0  0  0  0  0  0  0  0  0  0  0
    8.0665  -14.2200   21.0315 C   0  0  0  0  0  0  0  0  0  0  0  0
    7.1981  -13.4725   21.5481 O   0  0  0  0  0  0  0  0  0  0  0  0
    8.4150  -15.4118   21.7043 N   0  0  0  0  0  0  0  0  0  0  0  0
    7.7376  -15.9086   22.8829 C   0  0  1  0  0  0  0  0  0  0  0  0
    7.8134  -17.4081   22.9950 C   0  0  0  0  0  0  0  0  0  0  0  0
    7.1631  -17.9171   24.2621 C   0  0  0  0  0  0  0  0  0  0  0  0
    7.3008  -19.4154   24.3969 C   0  0  0  0  0  0  0  0  0  0  0  0
    6.4883  -19.8640   25.5925 C   0  0  0  0  0  0  0  0  0  0  0  0
    6.6172  -21.2821   25.7610 N   0  0  0  0  0  0  0  0  0  0  0  0
    8.2914  -15.2229   24.0683 C   0  0  0  0  0  0  0  0  0  0  0  0
    9.5319  -15.0883   24.1686 O   0  0  0  0  0  0  0  0  0  0  0  0
    7.4831  -14.7010   25.1146 N   0  0  0  0  0  0  0  0  0  0  0  0
    8.0679  -14.0507   26.2853 C   0  0  1  0  0  0  0  0  0  0  0  0
    7.0063  -13.2813   27.0029 C   0  0  0  0  0  0  0  0  0  0  0  0
    6.3977  -11.9987   25.8412 S   0  0  0  0  0  0  0  0  0  0  0  0
    8.6757  -15.0540   27.1972 C   0  0  0  0  0  0  0  0  0  0  0  0
    9.3171  -14.7041   28.3747 O   0  0  0  0  0  0  0  0  0  0  0  0
    8.6216  -16.2795   26.9152 O   0  0  0  0  0  0  0  0  0  0  0  0
  1  2  1  0
  2  3  1  0
  3  5  1  0
  3  4  1  1
  5  6  2  0
  7  8  1  0
  7  5  1  0
  9 10  1  0
  8  9  1  1
 11 10  1  0
 12 11  1  0
 13 12  1  0
 14  8  1  0
 14 15  2  0
 16 14  1  0
 17 16  1  0
 17 20  1  0
 17 18  1  1
 19 18  1  0
 20 21  1  0
 22 20  2  0
M  END
$$$$
