SKC.pdb
     RDKit          3D

 22 21  0  0  1  0  0  0  0  0999 V2000
   13.2542  -22.9662   13.6410 O   0  0  0  0  0  0  0  0  0  0  0  0
   12.2525  -23.4744   14.4938 C   0  0  0  0  0  0  0  0  0  0  0  0
   11.1172  -22.4427   14.5108 C   0  0  2  0  0  0  0  0  0  0  0  0
   11.2712  -21.4734   13.4713 N   0  0  0  0  0  0  0  0  0  0  0  0
   11.1387  -21.8270   15.8589 C   0  0  0  0  0  0  0  0  0  0  0  0
   11.6374  -20.6791   15.9748 O   0  0  0  0  0  0  0  0  0  0  0  0
   10.6303  -22.4597   17.0146 N   0  0  0  0  0  0  0  0  0  0  0  0
   10.5671  -21.8392   18.3207 C   0  0  1  0  0  0  0  0  0  0  0  0
    9.5387  -22.4856   19.2103 C   0  0  0  0  0  0  0  0  0  0  0  0
    8.1267  -22.1700   18.7696 C   0  0  0  0  0  0  0  0  0  0  0  0
    7.1050  -22.9223   19.5895 C   0  0  0  0  0  0  0  0  0  0  0  0
    5.7290  -22.6081   19.0429 C   0  0  0  0  0  0  0  0  0  0  0  0
    4.7425  -23.3783   19.7426 N   0  0  0  0  0  0  0  0  0  0  0  0
   11.9195  -21.8535   18.9147 C   0  0  0  0  0  0  0  0  0  0  0  0
   12.6569  -22.8470   18.7241 O   0  0  0  0  0  0  0  0  0  0  0  0
   12.4363  -20.7878   19.7007 N   0  0  0  0  0  0  0  0  0  0  0  0
   13.7566  -20.8623   20.3224 C   0  0  1  0  0  0  0  0  0  0  0  0
   14.5751  -19.6918   19.8819 C   0  0  0  0  0  0  0  0  0  0  0  0
   16.2935  -19.9984   20.4457 S   0  0  0  0  0  0  0  0  0  0  0  0
   13.6419  -20.8762   21.8037 C   0  0  0  0  0  0  0  0  0  0  0  0
   12.4455  -20.6470   22.4643 O   0  0  0  0  0  0  0  0  0  0  0  0
   14.6559  -21.1026   22.5143 O   0  0  0  0  0  0  0  0  0  0  0  0
  1  2  1  0
  2  3  1  0
  3  5  1  0
  3  4  1  6
  5  6  2  0
  7  8  1  0
  7  5  1  0
  9 10  1  0
  8  9  1  1
 11 10  1  0
 12 11  1  0
 13 12  1  0
 14  8  1  0
 14 15  2  0
 16 14  1  0
 17 16  1  0
 17 20  1  0
 17 18  1  1
 19 18  1  0
 20 21  1  0
 22 20  2  0
M  END
$$$$
