SKC.pdb
     RDKit          3D

 22 21  0  0  1  0  0  0  0  0999 V2000
    8.9147  -12.1220   18.9816 O   0  0  0  0  0  0  0  0  0  0  0  0
    9.2792  -13.2174   19.7916 C   0  0  0  0  0  0  0  0  0  0  0  0
    8.1353  -14.2359   19.7037 C   0  0  2  0  0  0  0  0  0  0  0  0
    6.9733  -13.6708   19.0919 N   0  0  0  0  0  0  0  0  0  0  0  0
    7.8752  -14.6859   21.0918 C   0  0  0  0  0  0  0  0  0  0  0  0
    6.9357  -14.1388   21.7225 O   0  0  0  0  0  0  0  0  0  0  0  0
    8.6243  -15.6926   21.7397 N   0  0  0  0  0  0  0  0  0  0  0  0
    8.3631  -16.1637   23.0831 C   0  0  1  0  0  0  0  0  0  0  0  0
    9.0693  -17.4597   23.3806 C   0  0  0  0  0  0  0  0  0  0  0  0
    8.7840  -17.9543   24.7811 C   0  0  0  0  0  0  0  0  0  0  0  0
    7.6863  -18.9921   24.7936 C   0  0  0  0  0  0  0  0  0  0  0  0
    7.4987  -19.4716   26.2169 C   0  0  0  0  0  0  0  0  0  0  0  0
    6.4771  -20.4770   26.2584 N   0  0  0  0  0  0  0  0  0  0  0  0
    8.7197  -15.0924   24.0354 C   0  0  0  0  0  0  0  0  0  0  0  0
    9.8340  -14.5317   23.9305 O   0  0  0  0  0  0  0  0  0  0  0  0
    7.8564  -14.6576   25.0777 N   0  0  0  0  0  0  0  0  0  0  0  0
    8.2649  -13.6330   26.0361 C   0  0  1  0  0  0  0  0  0  0  0  0
    7.2479  -12.5377   26.0494 C   0  0  0  0  0  0  0  0  0  0  0  0
    5.6320  -13.3133   26.4395 S   0  0  0  0  0  0  0  0  0  0  0  0
    8.4099  -14.2115   27.3969 C   0  0  0  0  0  0  0  0  0  0  0  0
    8.1198  -15.5361   27.6821 O   0  0  0  0  0  0  0  0  0  0  0  0
    8.8105  -13.4933   28.3498 O   0  0  0  0  0  0  0  0  0  0  0  0
  1  2  1  0
  2  3  1  0
  3  5  1  0
  3  4  1  1
  5  6  2  0
  7  8  1  0
  7  5  1  0
  9 10  1  0
  8  9  1  1
 11 10  1  0
 12 11  1  0
 13 12  1  0
 14  8  1  0
 14 15  2  0
 16 14  1  0
 17 16  1  0
 17 20  1  0
 17 18  1  1
 19 18  1  0
 20 21  1  0
 22 20  2  0
M  END
$$$$
