SKC.pdb
     RDKit          3D

 22 21  0  0  1  0  0  0  0  0999 V2000
   10.4831  -13.3312   18.7408 O   0  0  0  0  0  0  0  0  0  0  0  0
    9.8038  -13.3842   19.9755 C   0  0  0  0  0  0  0  0  0  0  0  0
    8.4862  -14.1295   19.7267 C   0  0  2  0  0  0  0  0  0  0  0  0
    7.5277  -13.2985   19.0673 N   0  0  0  0  0  0  0  0  0  0  0  0
    8.0126  -14.5861   21.0550 C   0  0  0  0  0  0  0  0  0  0  0  0
    7.3451  -13.7805   21.7516 O   0  0  0  0  0  0  0  0  0  0  0  0
    8.2709  -15.8729   21.5763 N   0  0  0  0  0  0  0  0  0  0  0  0
    7.7863  -16.3447   22.8559 C   0  0  1  0  0  0  0  0  0  0  0  0
    7.7590  -17.8479   22.9366 C   0  0  0  0  0  0  0  0  0  0  0  0
    7.3414  -18.3363   24.3058 C   0  0  0  0  0  0  0  0  0  0  0  0
    7.2630  -19.8440   24.3604 C   0  0  0  0  0  0  0  0  0  0  0  0
    6.6376  -20.2420   25.6800 C   0  0  0  0  0  0  0  0  0  0  0  0
    6.4821  -21.6665   25.7319 N   0  0  0  0  0  0  0  0  0  0  0  0
    8.6049  -15.7347   23.9234 C   0  0  0  0  0  0  0  0  0  0  0  0
    9.8496  -15.7048   23.7932 O   0  0  0  0  0  0  0  0  0  0  0  0
    8.0501  -15.1725   25.1052 N   0  0  0  0  0  0  0  0  0  0  0  0
    8.8878  -14.5351   26.1189 C   0  0  1  0  0  0  0  0  0  0  0  0
    8.0868  -13.4990   26.8392 C   0  0  0  0  0  0  0  0  0  0  0  0
    9.2120  -12.6960   28.0450 S   0  0  0  0  0  0  0  0  0  0  0  0
    9.4065  -15.5402   27.0824 C   0  0  0  0  0  0  0  0  0  0  0  0
   10.5933  -15.3687   27.7769 O   0  0  0  0  0  0  0  0  0  0  0  0
    8.7635  -16.6006   27.2973 O   0  0  0  0  0  0  0  0  0  0  0  0
  1  2  1  0
  2  3  1  0
  3  5  1  0
  3  4  1  1
  5  6  2  0
  7  8  1  0
  7  5  1  0
  9 10  1  0
  8  9  1  6
 11 10  1  0
 12 11  1  0
 13 12  1  0
 14  8  1  0
 14 15  2  0
 16 14  1  0
 17 16  1  0
 17 20  1  0
 17 18  1  1
 19 18  1  0
 20 21  1  0
 22 20  2  0
M  END
$$$$
