SKC.pdb
     RDKit          3D

 22 21  0  0  1  0  0  0  0  0999 V2000
   12.5511  -16.7175   20.9278 O   0  0  0  0  0  0  0  0  0  0  0  0
   11.7348  -17.8670   20.9644 C   0  0  0  0  0  0  0  0  0  0  0  0
   10.4729  -17.5425   20.1546 C   0  0  2  0  0  0  0  0  0  0  0  0
   10.7749  -16.7468   19.0058 N   0  0  0  0  0  0  0  0  0  0  0  0
    9.5495  -16.8532   21.0869 C   0  0  0  0  0  0  0  0  0  0  0  0
    9.5390  -15.5964   21.0842 O   0  0  0  0  0  0  0  0  0  0  0  0
    8.6850  -17.5317   21.9738 N   0  0  0  0  0  0  0  0  0  0  0  0
    7.7614  -16.8731   22.8727 C   0  0  1  0  0  0  0  0  0  0  0  0
    6.6203  -17.7691   23.2753 C   0  0  0  0  0  0  0  0  0  0  0  0
    5.4618  -17.6844   22.3067 C   0  0  0  0  0  0  0  0  0  0  0  0
    4.4115  -18.7297   22.6004 C   0  0  0  0  0  0  0  0  0  0  0  0
    3.3024  -18.5921   21.5797 C   0  0  0  0  0  0  0  0  0  0  0  0
    2.2761  -19.5573   21.8467 N   0  0  0  0  0  0  0  0  0  0  0  0
    8.5180  -16.3625   24.0341 C   0  0  0  0  0  0  0  0  0  0  0  0
    9.6215  -16.8816   24.3168 O   0  0  0  0  0  0  0  0  0  0  0  0
    8.0562  -15.3008   24.8587 N   0  0  0  0  0  0  0  0  0  0  0  0
    8.8499  -14.7960   25.9771 C   0  0  1  0  0  0  0  0  0  0  0  0
    8.2359  -13.5319   26.4858 C   0  0  0  0  0  0  0  0  0  0  0  0
    9.3381  -12.8959   27.8070 S   0  0  0  0  0  0  0  0  0  0  0  0
    8.9241  -15.8023   27.0677 C   0  0  0  0  0  0  0  0  0  0  0  0
   10.0614  -15.9907   27.8366 O   0  0  0  0  0  0  0  0  0  0  0  0
    7.9289  -16.5280   27.3271 O   0  0  0  0  0  0  0  0  0  0  0  0
  1  2  1  0
  2  3  1  0
  3  5  1  0
  3  4  1  6
  5  6  2  0
  7  8  1  0
  7  5  1  0
  9 10  1  0
  8  9  1  1
 11 10  1  0
 12 11  1  0
 13 12  1  0
 14  8  1  0
 14 15  2  0
 16 14  1  0
 17 16  1  0
 17 20  1  0
 17 18  1  1
 19 18  1  0
 20 21  1  0
 22 20  2  0
M  END
$$$$
