SKC.pdb
     RDKit          3D

 22 21  0  0  1  0  0  0  0  0999 V2000
   10.0344  -12.6685   18.9773 O   0  0  0  0  0  0  0  0  0  0  0  0
    9.1380  -12.8218   20.0553 C   0  0  0  0  0  0  0  0  0  0  0  0
    8.2903  -14.0648   19.7557 C   0  0  2  0  0  0  0  0  0  0  0  0
    7.2754  -13.7889   18.7873 N   0  0  0  0  0  0  0  0  0  0  0  0
    7.7227  -14.5005   21.0538 C   0  0  0  0  0  0  0  0  0  0  0  0
    6.5663  -14.1090   21.3526 O   0  0  0  0  0  0  0  0  0  0  0  0
    8.4102  -15.3285   21.9682 N   0  0  0  0  0  0  0  0  0  0  0  0
    7.8155  -15.8924   23.1612 C   0  0  1  0  0  0  0  0  0  0  0  0
    8.0387  -17.3779   23.2625 C   0  0  0  0  0  0  0  0  0  0  0  0
    7.4911  -17.9485   24.5517 C   0  0  0  0  0  0  0  0  0  0  0  0
    7.7594  -19.4310   24.6641 C   0  0  0  0  0  0  0  0  0  0  0  0
    7.1262  -19.9351   25.9430 C   0  0  0  0  0  0  0  0  0  0  0  0
    7.3262  -21.3505   26.0571 N   0  0  0  0  0  0  0  0  0  0  0  0
    8.3319  -15.1604   24.3357 C   0  0  0  0  0  0  0  0  0  0  0  0
    9.5654  -14.9762   24.4434 O   0  0  0  0  0  0  0  0  0  0  0  0
    7.4946  -14.6471   25.3634 N   0  0  0  0  0  0  0  0  0  0  0  0
    8.0416  -13.9294   26.5128 C   0  0  1  0  0  0  0  0  0  0  0  0
    6.9591  -13.1169   27.1467 C   0  0  0  0  0  0  0  0  0  0  0  0
    6.4034  -11.8967   25.8948 S   0  0  0  0  0  0  0  0  0  0  0  0
    8.6143  -14.8778   27.5029 C   0  0  0  0  0  0  0  0  0  0  0  0
    9.2720  -14.4581   28.6481 O   0  0  0  0  0  0  0  0  0  0  0  0
    8.5133  -16.1191   27.3210 O   0  0  0  0  0  0  0  0  0  0  0  0
  1  2  1  0
  2  3  1  0
  3  5  1  0
  3  4  1  6
  5  6  2  0
  7  8  1  0
  7  5  1  0
  9 10  1  0
  8  9  1  1
 11 10  1  0
 12 11  1  0
 13 12  1  0
 14  8  1  0
 14 15  2  0
 16 14  1  0
 17 16  1  0
 17 20  1  0
 17 18  1  1
 19 18  1  0
 20 21  1  0
 22 20  2  0
M  END
$$$$
