SKC.pdb
     RDKit          3D

 22 21  0  0  1  0  0  0  0  0999 V2000
    9.6330  -12.5568   19.0628 O   0  0  0  0  0  0  0  0  0  0  0  0
    9.6368  -13.7613   19.7963 C   0  0  0  0  0  0  0  0  0  0  0  0
    8.2772  -14.4310   19.5590 C   0  0  2  0  0  0  0  0  0  0  0  0
    7.3999  -13.5891   18.8070 N   0  0  0  0  0  0  0  0  0  0  0  0
    7.7341  -14.7503   20.9007 C   0  0  0  0  0  0  0  0  0  0  0  0
    6.8966  -13.9581   21.4014 O   0  0  0  0  0  0  0  0  0  0  0  0
    8.1067  -15.8929   21.6423 N   0  0  0  0  0  0  0  0  0  0  0  0
    7.5314  -16.2571   22.9195 C   0  0  1  0  0  0  0  0  0  0  0  0
    7.9366  -17.6405   23.3541 C   0  0  0  0  0  0  0  0  0  0  0  0
    7.4389  -17.9685   24.7441 C   0  0  0  0  0  0  0  0  0  0  0  0
    7.7648  -19.3916   25.1322 C   0  0  0  0  0  0  0  0  0  0  0  0
    7.2804  -19.6235   26.5472 C   0  0  0  0  0  0  0  0  0  0  0  0
    7.5724  -20.9701   26.9444 N   0  0  0  0  0  0  0  0  0  0  0  0
    7.8927  -15.2232   23.9106 C   0  0  0  0  0  0  0  0  0  0  0  0
    9.0643  -14.7826   23.9301 O   0  0  0  0  0  0  0  0  0  0  0  0
    6.9718  -14.6943   24.8554 N   0  0  0  0  0  0  0  0  0  0  0  0
    7.3681  -13.6791   25.8289 C   0  0  1  0  0  0  0  0  0  0  0  0
    6.1565  -12.9280   26.2782 C   0  0  0  0  0  0  0  0  0  0  0  0
    6.7185  -11.6996   27.5192 S   0  0  0  0  0  0  0  0  0  0  0  0
    8.0437  -14.3029   26.9959 C   0  0  0  0  0  0  0  0  0  0  0  0
    9.0164  -13.6493   27.7355 O   0  0  0  0  0  0  0  0  0  0  0  0
    7.7411  -15.4719   27.3512 O   0  0  0  0  0  0  0  0  0  0  0  0
  1  2  1  0
  2  3  1  0
  3  5  1  0
  3  4  1  1
  5  6  2  0
  7  8  1  0
  7  5  1  0
  9 10  1  0
  8  9  1  1
 11 10  1  0
 12 11  1  0
 13 12  1  0
 14  8  1  0
 14 15  2  0
 16 14  1  0
 17 16  1  0
 17 20  1  0
 17 18  1  1
 19 18  1  0
 20 21  1  0
 22 20  2  0
M  END
$$$$
