SKC.pdb
     RDKit          3D

 22 21  0  0  1  0  0  0  0  0999 V2000
   11.6784  -12.8967   18.5781 O   0  0  0  0  0  0  0  0  0  0  0  0
   10.4833  -12.9735   19.3230 C   0  0  0  0  0  0  0  0  0  0  0  0
    9.5373  -13.9029   18.5519 C   0  0  2  0  0  0  0  0  0  0  0  0
    8.3954  -13.1990   18.0573 N   0  0  0  0  0  0  0  0  0  0  0  0
    9.1640  -14.9857   19.4927 C   0  0  0  0  0  0  0  0  0  0  0  0
    8.1089  -14.8475   20.1617 O   0  0  0  0  0  0  0  0  0  0  0  0
    9.9282  -16.1590   19.6760 N   0  0  0  0  0  0  0  0  0  0  0  0
    9.5893  -17.2136   20.6075 C   0  0  1  0  0  0  0  0  0  0  0  0
    9.6812  -18.5796   19.9810 C   0  0  0  0  0  0  0  0  0  0  0  0
    9.2444  -19.6717   20.9318 C   0  0  0  0  0  0  0  0  0  0  0  0
    9.2180  -21.0224   20.2557 C   0  0  0  0  0  0  0  0  0  0  0  0
    8.5727  -22.0156   21.1981 C   0  0  0  0  0  0  0  0  0  0  0  0
    8.5216  -23.3079   20.5788 N   0  0  0  0  0  0  0  0  0  0  0  0
   10.4467  -17.0795   21.8028 C   0  0  0  0  0  0  0  0  0  0  0  0
   11.6716  -16.8699   21.6521 O   0  0  0  0  0  0  0  0  0  0  0  0
    9.9512  -17.1766   23.1316 N   0  0  0  0  0  0  0  0  0  0  0  0
   10.8395  -17.1040   24.2897 C   0  0  1  0  0  0  0  0  0  0  0  0
   10.0183  -17.0165   25.5355 C   0  0  0  0  0  0  0  0  0  0  0  0
   11.1867  -17.0462   26.9493 S   0  0  0  0  0  0  0  0  0  0  0  0
   11.7291  -18.2926   24.3473 C   0  0  0  0  0  0  0  0  0  0  0  0
   13.1004  -18.1938   24.5202 O   0  0  0  0  0  0  0  0  0  0  0  0
   11.2461  -19.4497   24.2374 O   0  0  0  0  0  0  0  0  0  0  0  0
  1  2  1  0
  2  3  1  0
  3  5  1  0
  3  4  1  1
  5  6  2  0
  7  8  1  0
  7  5  1  0
  9 10  1  0
  8  9  1  6
 11 10  1  0
 12 11  1  0
 13 12  1  0
 14  8  1  0
 14 15  2  0
 16 14  1  0
 17 16  1  0
 17 20  1  0
 17 18  1  1
 19 18  1  0
 20 21  1  0
 22 20  2  0
M  END
$$$$
