SKC.pdb
     RDKit          3D

 22 21  0  0  1  0  0  0  0  0999 V2000
   10.1756  -12.7702   20.1152 O   0  0  0  0  0  0  0  0  0  0  0  0
    9.7052  -14.0875   19.9344 C   0  0  0  0  0  0  0  0  0  0  0  0
    8.1766  -14.0043   19.8350 C   0  0  2  0  0  0  0  0  0  0  0  0
    7.7429  -12.6889   19.4806 N   0  0  0  0  0  0  0  0  0  0  0  0
    7.6529  -14.4306   21.1545 C   0  0  0  0  0  0  0  0  0  0  0  0
    6.9129  -13.6311   21.7812 O   0  0  0  0  0  0  0  0  0  0  0  0
    7.9406  -15.6824   21.7414 N   0  0  0  0  0  0  0  0  0  0  0  0
    7.4392  -16.1115   23.0296 C   0  0  1  0  0  0  0  0  0  0  0  0
    7.5535  -17.6008   23.2191 C   0  0  0  0  0  0  0  0  0  0  0  0
    7.0983  -18.0356   24.5943 C   0  0  0  0  0  0  0  0  0  0  0  0
    7.3309  -19.5113   24.8184 C   0  0  0  0  0  0  0  0  0  0  0  0
    6.7446  -19.8885   26.1618 C   0  0  0  0  0  0  0  0  0  0  0  0
    6.8349  -21.3074   26.3484 N   0  0  0  0  0  0  0  0  0  0  0  0
    8.1393  -15.3507   24.0845 C   0  0  0  0  0  0  0  0  0  0  0  0
    9.3721  -15.1596   23.9800 O   0  0  0  0  0  0  0  0  0  0  0  0
    7.4821  -14.8167   25.2262 N   0  0  0  0  0  0  0  0  0  0  0  0
    8.2071  -14.0646   26.2480 C   0  0  1  0  0  0  0  0  0  0  0  0
    7.2370  -13.2486   27.0399 C   0  0  0  0  0  0  0  0  0  0  0  0
    6.5086  -12.0190   25.8900 S   0  0  0  0  0  0  0  0  0  0  0  0
    8.9554  -14.9815   27.1462 C   0  0  0  0  0  0  0  0  0  0  0  0
    9.7511  -14.5271   28.1857 O   0  0  0  0  0  0  0  0  0  0  0  0
    8.8832  -16.2272   26.9805 O   0  0  0  0  0  0  0  0  0  0  0  0
  1  2  1  0
  2  3  1  0
  3  5  1  0
  3  4  1  1
  5  6  2  0
  7  8  1  0
  7  5  1  0
  9 10  1  0
  8  9  1  1
 11 10  1  0
 12 11  1  0
 13 12  1  0
 14  8  1  0
 14 15  2  0
 16 14  1  0
 17 16  1  0
 17 20  1  0
 17 18  1  1
 19 18  1  0
 20 21  1  0
 22 20  2  0
M  END
$$$$
