FKD.pdb
     RDKit          3D

 29 29  0  0  1  0  0  0  0  0999 V2000
    6.2494  -17.0240   25.6838 N   0  0  0  0  0  0  0  0  0  0  0  0
    6.7088  -15.7779   25.1012 C   0  0  1  0  0  0  0  0  0  0  0  0
    7.7091  -15.0790   25.9648 C   0  0  0  0  0  0  0  0  0  0  0  0
    7.2333  -13.8253   26.5496 C   0  0  0  0  0  0  0  0  0  0  0  0
    7.9901  -13.0263   27.3867 C   0  0  0  0  0  0  0  0  0  0  0  0
    7.5149  -11.8440   27.9259 C   0  0  0  0  0  0  0  0  0  0  0  0
    6.2243  -11.4409   27.6149 C   0  0  0  0  0  0  0  0  0  0  0  0
    5.4426  -12.2136   26.7836 C   0  0  0  0  0  0  0  0  0  0  0  0
    5.9556  -13.4029   26.2566 C   0  0  0  0  0  0  0  0  0  0  0  0
    7.3725  -16.0743   23.8042 C   0  0  0  0  0  0  0  0  0  0  0  0
    7.7544  -17.2746   23.6325 O   0  0  0  0  0  0  0  0  0  0  0  0
    7.5659  -15.0784   22.8225 N   0  0  0  0  0  0  0  0  0  0  0  0
    8.2284  -15.3896   21.5749 C   0  0  1  0  0  0  0  0  0  0  0  0
    7.9601  -14.2263   20.6476 C   0  0  0  0  0  0  0  0  0  0  0  0
    8.4709  -14.4137   19.2597 C   0  0  0  0  0  0  0  0  0  0  0  0
    8.1181  -13.2643   18.3433 C   0  0  0  0  0  0  0  0  0  0  0  0
    8.7550  -13.5640   16.9843 C   0  0  0  0  0  0  0  0  0  0  0  0
    8.0731  -14.6751   16.3648 N   0  0  0  0  0  0  0  0  0  0  0  0
    9.6718  -15.6144   21.8169 C   0  0  0  0  0  0  0  0  0  0  0  0
   10.4768  -14.6730   21.6440 O   0  0  0  0  0  0  0  0  0  0  0  0
   10.2096  -16.8481   22.2389 N   0  0  0  0  0  0  0  0  0  0  0  0
   11.5621  -17.2967   21.9402 C   0  0  1  0  0  0  0  0  0  0  0  0
   12.5133  -16.9791   23.0443 C   0  0  0  0  0  0  0  0  0  0  0  0
   13.5793  -16.0857   22.5477 C   0  0  0  0  0  0  0  0  0  0  0  0
   13.5585  -14.8493   22.7548 O   0  0  0  0  0  0  0  0  0  0  0  0
   11.5199  -18.7098   21.5832 C   0  0  0  0  0  0  0  0  0  0  0  0
   11.0510  -19.1485   20.3459 O   0  0  0  0  0  0  0  0  0  0  0  0
   14.6750  -16.5721   21.8161 O   0  0  0  0  0  0  0  0  0  0  0  0
   11.9267  -19.5674   22.4386 O   0  0  0  0  0  0  0  0  0  0  0  0
  2  1  1  1
  2 10  1  0
  2  3  1  0
  3  4  1  0
  4  5  2  0
  4  9  1  0
  5  6  1  0
  6  7  2  0
  8  7  1  0
  9  8  2  0
 10 12  1  0
 11 10  2  0
 12 13  1  0
 13 14  1  6
 14 15  1  0
 15 16  1  0
 16 17  1  0
 17 18  1  0
 19 20  2  0
 19 13  1  0
 21 19  1  0
 22 26  1  0
 22 21  1  0
 22 23  1  1
 24 25  2  0
 24 23  1  0
 26 27  1  0
 28 24  1  0
 29 26  2  0
M  END
$$$$
