FKD.pdb
     RDKit          3D

 29 29  0  0  1  0  0  0  0  0999 V2000
    8.5674  -16.0445   26.2916 N   0  0  0  0  0  0  0  0  0  0  0  0
    7.2573  -16.4107   25.7887 C   0  0  1  0  0  0  0  0  0  0  0  0
    6.1664  -15.5744   26.3763 C   0  0  0  0  0  0  0  0  0  0  0  0
    6.5894  -14.2410   26.8044 C   0  0  0  0  0  0  0  0  0  0  0  0
    7.8117  -13.9686   27.3905 C   0  0  0  0  0  0  0  0  0  0  0  0
    8.1868  -12.6968   27.7857 C   0  0  0  0  0  0  0  0  0  0  0  0
    7.3002  -11.6484   27.5864 C   0  0  0  0  0  0  0  0  0  0  0  0
    6.0733  -11.8847   27.0048 C   0  0  0  0  0  0  0  0  0  0  0  0
    5.7275  -13.1831   26.6177 C   0  0  0  0  0  0  0  0  0  0  0  0
    7.2352  -16.1988   24.3173 C   0  0  0  0  0  0  0  0  0  0  0  0
    6.2026  -16.6195   23.7067 O   0  0  0  0  0  0  0  0  0  0  0  0
    8.3008  -15.5667   23.6404 N   0  0  0  0  0  0  0  0  0  0  0  0
    8.3353  -15.5226   22.1951 C   0  0  1  0  0  0  0  0  0  0  0  0
    8.0293  -14.0948   21.8043 C   0  0  0  0  0  0  0  0  0  0  0  0
    7.4121  -13.9434   20.4558 C   0  0  0  0  0  0  0  0  0  0  0  0
    8.4185  -13.5879   19.3852 C   0  0  0  0  0  0  0  0  0  0  0  0
    7.6371  -13.3929   18.0838 C   0  0  0  0  0  0  0  0  0  0  0  0
    8.5585  -13.1792   16.9935 N   0  0  0  0  0  0  0  0  0  0  0  0
    9.6569  -15.9832   21.7115 C   0  0  0  0  0  0  0  0  0  0  0  0
   10.6960  -15.5154   22.2268 O   0  0  0  0  0  0  0  0  0  0  0  0
    9.8237  -16.9360   20.6849 N   0  0  0  0  0  0  0  0  0  0  0  0
   11.1154  -17.3635   20.1667 C   0  0  1  0  0  0  0  0  0  0  0  0
   11.7155  -16.3482   19.2537 C   0  0  0  0  0  0  0  0  0  0  0  0
   13.0195  -16.8295   18.7549 C   0  0  0  0  0  0  0  0  0  0  0  0
   13.1207  -17.8638   18.0534 O   0  0  0  0  0  0  0  0  0  0  0  0
   11.9722  -17.7318   21.2876 C   0  0  0  0  0  0  0  0  0  0  0  0
   11.6135  -17.4771   22.6104 O   0  0  0  0  0  0  0  0  0  0  0  0
   14.2182  -16.1549   19.0388 O   0  0  0  0  0  0  0  0  0  0  0  0
   13.0870  -18.3051   21.0405 O   0  0  0  0  0  0  0  0  0  0  0  0
  2  1  1  1
  2 10  1  0
  2  3  1  0
  3  4  1  0
  4  5  2  0
  4  9  1  0
  5  6  1  0
  6  7  2  0
  8  7  1  0
  9  8  2  0
 10 12  1  0
 11 10  2  0
 12 13  1  0
 13 14  1  1
 14 15  1  0
 15 16  1  0
 16 17  1  0
 17 18  1  0
 19 20  2  0
 19 13  1  0
 21 19  1  0
 22 26  1  0
 22 21  1  0
 22 23  1  1
 24 25  2  0
 24 23  1  0
 26 27  1  0
 28 24  1  0
 29 26  2  0
M  END
$$$$
