FKD.pdb
     RDKit          3D

 29 29  0  0  1  0  0  0  0  0999 V2000
    6.4563  -16.6173   25.6533 N   0  0  0  0  0  0  0  0  0  0  0  0
    6.8844  -15.4485   24.9089 C   0  0  1  0  0  0  0  0  0  0  0  0
    7.8454  -14.6017   25.6798 C   0  0  0  0  0  0  0  0  0  0  0  0
    7.2274  -13.4920   26.4056 C   0  0  0  0  0  0  0  0  0  0  0  0
    6.1383  -12.7766   25.9430 C   0  0  0  0  0  0  0  0  0  0  0  0
    5.5728  -11.7310   26.6509 C   0  0  0  0  0  0  0  0  0  0  0  0
    6.1201  -11.3836   27.8776 C   0  0  0  0  0  0  0  0  0  0  0  0
    7.2060  -12.0758   28.3684 C   0  0  0  0  0  0  0  0  0  0  0  0
    7.7519  -13.1274   27.6257 C   0  0  0  0  0  0  0  0  0  0  0  0
    7.5806  -15.8983   23.6746 C   0  0  0  0  0  0  0  0  0  0  0  0
    7.9380  -17.1179   23.6465 O   0  0  0  0  0  0  0  0  0  0  0  0
    7.8289  -15.0194   22.5980 N   0  0  0  0  0  0  0  0  0  0  0  0
    8.8302  -15.3346   21.6029 C   0  0  1  0  0  0  0  0  0  0  0  0
    8.7599  -14.2381   20.5648 C   0  0  0  0  0  0  0  0  0  0  0  0
    7.9657  -14.5869   19.3523 C   0  0  0  0  0  0  0  0  0  0  0  0
    8.4284  -13.8517   18.1150 C   0  0  0  0  0  0  0  0  0  0  0  0
    7.4586  -14.2170   16.9888 C   0  0  0  0  0  0  0  0  0  0  0  0
    7.8277  -13.5120   15.7846 N   0  0  0  0  0  0  0  0  0  0  0  0
   10.1602  -15.4371   22.2456 C   0  0  0  0  0  0  0  0  0  0  0  0
   10.3118  -15.0143   23.4128 O   0  0  0  0  0  0  0  0  0  0  0  0
   11.2919  -15.9928   21.6132 N   0  0  0  0  0  0  0  0  0  0  0  0
   12.1901  -16.9531   22.2385 C   0  0  1  0  0  0  0  0  0  0  0  0
   11.4616  -18.1508   22.7479 C   0  0  0  0  0  0  0  0  0  0  0  0
   12.4184  -19.1050   23.3438 C   0  0  0  0  0  0  0  0  0  0  0  0
   12.7188  -20.1832   22.7789 O   0  0  0  0  0  0  0  0  0  0  0  0
   13.2654  -17.2668   21.3050 C   0  0  0  0  0  0  0  0  0  0  0  0
   14.6069  -17.2411   21.6831 O   0  0  0  0  0  0  0  0  0  0  0  0
   13.0445  -18.8568   24.5762 O   0  0  0  0  0  0  0  0  0  0  0  0
   12.9594  -17.5731   20.1028 O   0  0  0  0  0  0  0  0  0  0  0  0
  2  1  1  1
  2 10  1  0
  2  3  1  0
  3  4  1  0
  4  5  2  0
  4  9  1  0
  5  6  1  0
  6  7  2  0
  8  7  1  0
  9  8  2  0
 10 12  1  0
 11 10  2  0
 12 13  1  0
 13 14  1  6
 14 15  1  0
 15 16  1  0
 16 17  1  0
 17 18  1  0
 19 20  2  0
 19 13  1  0
 21 19  1  0
 22 26  1  0
 22 21  1  0
 22 23  1  6
 24 25  2  0
 24 23  1  0
 26 27  1  0
 28 24  1  0
 29 26  2  0
M  END
$$$$
