FKD.pdb
     RDKit          3D

 29 29  0  0  1  0  0  0  0  0999 V2000
    5.8521  -17.5914   25.7987 N   0  0  0  0  0  0  0  0  0  0  0  0
    6.3644  -16.2872   25.4245 C   0  0  1  0  0  0  0  0  0  0  0  0
    7.2451  -15.6965   26.4781 C   0  0  0  0  0  0  0  0  0  0  0  0
    7.0985  -14.2511   26.6495 C   0  0  0  0  0  0  0  0  0  0  0  0
    5.9008  -13.6245   26.9409 C   0  0  0  0  0  0  0  0  0  0  0  0
    5.7905  -12.2544   27.0985 C   0  0  0  0  0  0  0  0  0  0  0  0
    6.9288  -11.4736   26.9586 C   0  0  0  0  0  0  0  0  0  0  0  0
    8.1389  -12.0656   26.6682 C   0  0  0  0  0  0  0  0  0  0  0  0
    8.2134  -13.4537   26.5157 C   0  0  0  0  0  0  0  0  0  0  0  0
    7.1831  -16.4325   24.1920 C   0  0  0  0  0  0  0  0  0  0  0  0
    7.8179  -17.5268   24.0676 O   0  0  0  0  0  0  0  0  0  0  0  0
    7.2496  -15.4124   23.2183 N   0  0  0  0  0  0  0  0  0  0  0  0
    8.0358  -15.5879   22.0169 C   0  0  1  0  0  0  0  0  0  0  0  0
    7.6708  -14.4451   21.0973 C   0  0  0  0  0  0  0  0  0  0  0  0
    8.3637  -14.4702   19.7776 C   0  0  0  0  0  0  0  0  0  0  0  0
    7.9061  -13.3657   18.8523 C   0  0  0  0  0  0  0  0  0  0  0  0
    8.6159  -13.5809   17.5137 C   0  0  0  0  0  0  0  0  0  0  0  0
    8.2708  -12.5131   16.6057 N   0  0  0  0  0  0  0  0  0  0  0  0
    9.4759  -15.6155   22.3605 C   0  0  0  0  0  0  0  0  0  0  0  0
    9.9070  -14.8593   23.2585 O   0  0  0  0  0  0  0  0  0  0  0  0
   10.4134  -16.4576   21.7270 N   0  0  0  0  0  0  0  0  0  0  0  0
   11.8136  -16.5601   22.1128 C   0  0  1  0  0  0  0  0  0  0  0  0
   12.0373  -17.6303   23.1273 C   0  0  0  0  0  0  0  0  0  0  0  0
   13.4703  -17.6987   23.4779 C   0  0  0  0  0  0  0  0  0  0  0  0
   14.1427  -16.6696   23.7248 O   0  0  0  0  0  0  0  0  0  0  0  0
   12.6227  -16.7073   20.9087 C   0  0  0  0  0  0  0  0  0  0  0  0
   13.5399  -15.7370   20.5082 O   0  0  0  0  0  0  0  0  0  0  0  0
   14.1587  -18.9205   23.5539 O   0  0  0  0  0  0  0  0  0  0  0  0
   12.4791  -17.7625   20.2026 O   0  0  0  0  0  0  0  0  0  0  0  0
  2  1  1  1
  2 10  1  0
  2  3  1  0
  3  4  1  0
  4  5  2  0
  4  9  1  0
  5  6  1  0
  6  7  2  0
  8  7  1  0
  9  8  2  0
 10 12  1  0
 11 10  2  0
 12 13  1  0
 13 14  1  6
 14 15  1  0
 15 16  1  0
 16 17  1  0
 17 18  1  0
 19 20  2  0
 19 13  1  0
 21 19  1  0
 22 26  1  0
 22 21  1  0
 22 23  1  1
 24 25  2  0
 24 23  1  0
 26 27  1  0
 28 24  1  0
 29 26  2  0
M  END
$$$$
