FKD.pdb
     RDKit          3D

 29 29  0  0  1  0  0  0  0  0999 V2000
    6.1069  -17.6670   26.0146 N   0  0  0  0  0  0  0  0  0  0  0  0
    6.5283  -16.3644   25.5361 C   0  0  1  0  0  0  0  0  0  0  0  0
    7.4227  -15.6622   26.5066 C   0  0  0  0  0  0  0  0  0  0  0  0
    7.1123  -14.2459   26.7008 C   0  0  0  0  0  0  0  0  0  0  0  0
    5.8974  -13.6694   26.3788 C   0  0  0  0  0  0  0  0  0  0  0  0
    5.6301  -12.3259   26.5737 C   0  0  0  0  0  0  0  0  0  0  0  0
    6.6218  -11.5208   27.1152 C   0  0  0  0  0  0  0  0  0  0  0  0
    7.8445  -12.0630   27.4475 C   0  0  0  0  0  0  0  0  0  0  0  0
    8.0798  -13.4251   27.2367 C   0  0  0  0  0  0  0  0  0  0  0  0
    7.2961  -16.5451   24.2758 C   0  0  0  0  0  0  0  0  0  0  0  0
    7.7203  -17.7205   24.0426 O   0  0  0  0  0  0  0  0  0  0  0  0
    7.5382  -15.4715   23.3915 N   0  0  0  0  0  0  0  0  0  0  0  0
    8.2663  -15.6793   22.1592 C   0  0  1  0  0  0  0  0  0  0  0  0
    7.9071  -14.5252   21.2515 C   0  0  0  0  0  0  0  0  0  0  0  0
    8.5685  -14.5620   19.9160 C   0  0  0  0  0  0  0  0  0  0  0  0
    8.1649  -13.4070   19.0281 C   0  0  0  0  0  0  0  0  0  0  0  0
    8.8545  -13.6182   17.6782 C   0  0  0  0  0  0  0  0  0  0  0  0
    8.5422  -12.5180   16.7977 N   0  0  0  0  0  0  0  0  0  0  0  0
    9.7174  -15.7613   22.4426 C   0  0  0  0  0  0  0  0  0  0  0  0
   10.2357  -14.9412   23.2318 O   0  0  0  0  0  0  0  0  0  0  0  0
   10.5716  -16.7253   21.8677 N   0  0  0  0  0  0  0  0  0  0  0  0
   11.9976  -16.8246   22.1446 C   0  0  1  0  0  0  0  0  0  0  0  0
   12.4317  -18.2378   22.3428 C   0  0  0  0  0  0  0  0  0  0  0  0
   12.4193  -18.5700   23.7817 C   0  0  0  0  0  0  0  0  0  0  0  0
   12.1490  -17.7147   24.6578 O   0  0  0  0  0  0  0  0  0  0  0  0
   12.7292  -16.1219   21.0972 C   0  0  0  0  0  0  0  0  0  0  0  0
   13.6450  -15.1105   21.3829 O   0  0  0  0  0  0  0  0  0  0  0  0
   12.7097  -19.8626   24.2479 O   0  0  0  0  0  0  0  0  0  0  0  0
   12.5170  -16.4490   19.8804 O   0  0  0  0  0  0  0  0  0  0  0  0
  2  1  1  1
  2 10  1  0
  2  3  1  0
  3  4  1  0
  4  5  2  0
  4  9  1  0
  5  6  1  0
  6  7  2  0
  8  7  1  0
  9  8  2  0
 10 12  1  0
 11 10  2  0
 12 13  1  0
 13 14  1  6
 14 15  1  0
 15 16  1  0
 16 17  1  0
 17 18  1  0
 19 20  2  0
 19 13  1  0
 21 19  1  0
 22 26  1  0
 22 21  1  0
 22 23  1  6
 24 25  2  0
 24 23  1  0
 26 27  1  0
 28 24  1  0
 29 26  2  0
M  END
$$$$
