FKD.pdb
     RDKit          3D

 29 29  0  0  1  0  0  0  0  0999 V2000
    6.3679  -17.1288   25.8563 N   0  0  0  0  0  0  0  0  0  0  0  0
    6.7641  -15.8837   25.2269 C   0  0  1  0  0  0  0  0  0  0  0  0
    7.7491  -15.1169   26.0494 C   0  0  0  0  0  0  0  0  0  0  0  0
    7.2453  -13.8449   26.5675 C   0  0  0  0  0  0  0  0  0  0  0  0
    5.9694  -13.3659   26.3340 C   0  0  0  0  0  0  0  0  0  0  0  0
    5.5182  -12.1586   26.8372 C   0  0  0  0  0  0  0  0  0  0  0  0
    6.3811  -11.3942   27.6093 C   0  0  0  0  0  0  0  0  0  0  0  0
    7.6598  -11.8418   27.8615 C   0  0  0  0  0  0  0  0  0  0  0  0
    8.0821  -13.0672   27.3367 C   0  0  0  0  0  0  0  0  0  0  0  0
    7.4168  -16.1932   23.9273 C   0  0  0  0  0  0  0  0  0  0  0  0
    7.7620  -17.4035   23.7487 O   0  0  0  0  0  0  0  0  0  0  0  0
    7.6388  -15.1984   22.9506 N   0  0  0  0  0  0  0  0  0  0  0  0
    8.2307  -15.5350   21.6745 C   0  0  1  0  0  0  0  0  0  0  0  0
    7.9419  -14.3740   20.7506 C   0  0  0  0  0  0  0  0  0  0  0  0
    8.3039  -14.6158   19.3248 C   0  0  0  0  0  0  0  0  0  0  0  0
    8.0108  -13.4296   18.4346 C   0  0  0  0  0  0  0  0  0  0  0  0
    8.2493  -13.8829   16.9924 C   0  0  0  0  0  0  0  0  0  0  0  0
    8.0474  -12.7701   16.0956 N   0  0  0  0  0  0  0  0  0  0  0  0
    9.6792  -15.7902   21.8460 C   0  0  0  0  0  0  0  0  0  0  0  0
   10.4953  -15.2341   21.0787 O   0  0  0  0  0  0  0  0  0  0  0  0
   10.2099  -16.6383   22.8403 N   0  0  0  0  0  0  0  0  0  0  0  0
   11.6295  -16.9145   23.0083 C   0  0  1  0  0  0  0  0  0  0  0  0
   12.4477  -15.6675   22.9918 C   0  0  0  0  0  0  0  0  0  0  0  0
   13.2573  -15.6141   21.7579 C   0  0  0  0  0  0  0  0  0  0  0  0
   14.1783  -14.7774   21.6045 O   0  0  0  0  0  0  0  0  0  0  0  0
   11.8113  -17.7261   24.2060 C   0  0  0  0  0  0  0  0  0  0  0  0
   11.2349  -17.3839   25.4283 O   0  0  0  0  0  0  0  0  0  0  0  0
   13.0399  -16.4979   20.6883 O   0  0  0  0  0  0  0  0  0  0  0  0
   12.5245  -18.7831   24.1241 O   0  0  0  0  0  0  0  0  0  0  0  0
  2  1  1  1
  2 10  1  0
  2  3  1  0
  3  4  1  0
  4  5  2  0
  4  9  1  0
  5  6  1  0
  6  7  2  0
  8  7  1  0
  9  8  2  0
 10 12  1  0
 11 10  2  0
 12 13  1  0
 13 14  1  6
 14 15  1  0
 15 16  1  0
 16 17  1  0
 17 18  1  0
 19 20  2  0
 19 13  1  0
 21 19  1  0
 22 26  1  0
 22 21  1  0
 22 23  1  1
 24 25  2  0
 24 23  1  0
 26 27  1  0
 28 24  1  0
 29 26  2  0
M  END
$$$$
