FKD.pdb
     RDKit          3D

 29 29  0  0  1  0  0  0  0  0999 V2000
    6.0509  -17.7533   26.0695 N   0  0  0  0  0  0  0  0  0  0  0  0
    6.4130  -16.4171   25.6372 C   0  0  1  0  0  0  0  0  0  0  0  0
    7.1709  -15.6648   26.6833 C   0  0  0  0  0  0  0  0  0  0  0  0
    6.8712  -14.2340   26.7369 C   0  0  0  0  0  0  0  0  0  0  0  0
    5.6272  -13.6939   26.4672 C   0  0  0  0  0  0  0  0  0  0  0  0
    5.3710  -12.3355   26.5260 C   0  0  0  0  0  0  0  0  0  0  0  0
    6.4048  -11.4766   26.8701 C   0  0  0  0  0  0  0  0  0  0  0  0
    7.6573  -11.9814   27.1453 C   0  0  0  0  0  0  0  0  0  0  0  0
    7.8802  -13.3601   27.0761 C   0  0  0  0  0  0  0  0  0  0  0  0
    7.2924  -16.5245   24.4432 C   0  0  0  0  0  0  0  0  0  0  0  0
    7.9693  -17.5956   24.3412 O   0  0  0  0  0  0  0  0  0  0  0  0
    7.3690  -15.4948   23.4804 N   0  0  0  0  0  0  0  0  0  0  0  0
    8.1583  -15.6629   22.2801 C   0  0  1  0  0  0  0  0  0  0  0  0
    7.7806  -14.5261   21.3582 C   0  0  0  0  0  0  0  0  0  0  0  0
    8.4685  -14.5500   20.0359 C   0  0  0  0  0  0  0  0  0  0  0  0
    8.0236  -13.4313   19.1215 C   0  0  0  0  0  0  0  0  0  0  0  0
    8.7029  -13.6616   17.7696 C   0  0  0  0  0  0  0  0  0  0  0  0
    8.2586  -12.6618   16.8281 N   0  0  0  0  0  0  0  0  0  0  0  0
    9.5983  -15.6727   22.6250 C   0  0  0  0  0  0  0  0  0  0  0  0
   10.0333  -14.8560   23.4664 O   0  0  0  0  0  0  0  0  0  0  0  0
   10.5317  -16.5627   22.0539 N   0  0  0  0  0  0  0  0  0  0  0  0
   11.9373  -16.6260   22.4280 C   0  0  1  0  0  0  0  0  0  0  0  0
   12.2562  -17.8635   23.1970 C   0  0  0  0  0  0  0  0  0  0  0  0
   13.6999  -17.9054   23.5054 C   0  0  0  0  0  0  0  0  0  0  0  0
   14.4763  -16.9786   23.1734 O   0  0  0  0  0  0  0  0  0  0  0  0
   12.7502  -16.4470   21.2307 C   0  0  0  0  0  0  0  0  0  0  0  0
   13.9663  -15.7660   21.2549 O   0  0  0  0  0  0  0  0  0  0  0  0
   14.2825  -18.9859   24.1876 O   0  0  0  0  0  0  0  0  0  0  0  0
   12.3260  -16.9322   20.1274 O   0  0  0  0  0  0  0  0  0  0  0  0
  2  1  1  1
  2 10  1  0
  2  3  1  0
  3  4  1  0
  4  5  2  0
  4  9  1  0
  5  6  1  0
  6  7  2  0
  8  7  1  0
  9  8  2  0
 10 12  1  0
 11 10  2  0
 12 13  1  0
 13 14  1  6
 14 15  1  0
 15 16  1  0
 16 17  1  0
 17 18  1  0
 19 20  2  0
 19 13  1  0
 21 19  1  0
 22 26  1  0
 22 21  1  0
 22 23  1  6
 24 25  2  0
 24 23  1  0
 26 27  1  0
 28 24  1  0
 29 26  2  0
M  END
$$$$
