FKD.pdb
     RDKit          3D

 29 29  0  0  1  0  0  0  0  0999 V2000
    5.9024  -18.1606   25.8036 N   0  0  0  0  0  0  0  0  0  0  0  0
    6.1349  -16.7581   25.5164 C   0  0  1  0  0  0  0  0  0  0  0  0
    6.6576  -16.0121   26.7018 C   0  0  0  0  0  0  0  0  0  0  0  0
    6.7100  -14.5604   26.5288 C   0  0  0  0  0  0  0  0  0  0  0  0
    5.6021  -13.7706   26.2822 C   0  0  0  0  0  0  0  0  0  0  0  0
    5.6802  -12.3984   26.1231 C   0  0  0  0  0  0  0  0  0  0  0  0
    6.9220  -11.7865   26.2145 C   0  0  0  0  0  0  0  0  0  0  0  0
    8.0470  -12.5439   26.4594 C   0  0  0  0  0  0  0  0  0  0  0  0
    7.9308  -13.9287   26.6149 C   0  0  0  0  0  0  0  0  0  0  0  0
    7.1565  -16.6547   24.4412 C   0  0  0  0  0  0  0  0  0  0  0  0
    8.0767  -17.5316   24.4575 O   0  0  0  0  0  0  0  0  0  0  0  0
    7.1049  -15.6404   23.4606 N   0  0  0  0  0  0  0  0  0  0  0  0
    8.0402  -15.6311   22.3574 C   0  0  1  0  0  0  0  0  0  0  0  0
    7.5575  -14.5677   21.3977 C   0  0  0  0  0  0  0  0  0  0  0  0
    8.3848  -14.4278   20.1655 C   0  0  0  0  0  0  0  0  0  0  0  0
    7.8451  -13.3879   19.2100 C   0  0  0  0  0  0  0  0  0  0  0  0
    8.7318  -13.4231   17.9631 C   0  0  0  0  0  0  0  0  0  0  0  0
    8.3491  -12.3583   17.0669 N   0  0  0  0  0  0  0  0  0  0  0  0
    9.4082  -15.3748   22.8629 C   0  0  0  0  0  0  0  0  0  0  0  0
    9.5588  -14.7526   23.9372 O   0  0  0  0  0  0  0  0  0  0  0  0
   10.5780  -15.7961   22.1969 N   0  0  0  0  0  0  0  0  0  0  0  0
   11.8430  -16.0753   22.8616 C   0  0  1  0  0  0  0  0  0  0  0  0
   11.7799  -17.3176   23.6847 C   0  0  0  0  0  0  0  0  0  0  0  0
   13.1052  -17.5984   24.2727 C   0  0  0  0  0  0  0  0  0  0  0  0
   13.9475  -18.3246   23.6938 O   0  0  0  0  0  0  0  0  0  0  0  0
   12.9065  -16.0793   21.8641 C   0  0  0  0  0  0  0  0  0  0  0  0
   12.6401  -16.0773   20.4958 O   0  0  0  0  0  0  0  0  0  0  0  0
   13.4948  -17.0674   25.5132 O   0  0  0  0  0  0  0  0  0  0  0  0
   14.1195  -16.0862   22.2658 O   0  0  0  0  0  0  0  0  0  0  0  0
  2  1  1  1
  2 10  1  0
  2  3  1  0
  3  4  1  0
  4  5  2  0
  4  9  1  0
  5  6  1  0
  6  7  2  0
  8  7  1  0
  9  8  2  0
 10 12  1  0
 11 10  2  0
 12 13  1  0
 13 14  1  6
 14 15  1  0
 15 16  1  0
 16 17  1  0
 17 18  1  0
 19 20  2  0
 19 13  1  0
 21 19  1  0
 22 26  1  0
 22 21  1  0
 22 23  1  6
 24 25  2  0
 24 23  1  0
 26 27  1  0
 28 24  1  0
 29 26  2  0
M  END
$$$$
