FKD.pdb
     RDKit          3D

 29 29  0  0  1  0  0  0  0  0999 V2000
    6.0795  -17.8833   25.3877 N   0  0  0  0  0  0  0  0  0  0  0  0
    6.3599  -16.4718   25.2071 C   0  0  1  0  0  0  0  0  0  0  0  0
    7.1219  -15.8903   26.3543 C   0  0  0  0  0  0  0  0  0  0  0  0
    6.8661  -14.4699   26.5932 C   0  0  0  0  0  0  0  0  0  0  0  0
    5.6894  -13.8282   26.2534 C   0  0  0  0  0  0  0  0  0  0  0  0
    5.4735  -12.4825   26.4917 C   0  0  0  0  0  0  0  0  0  0  0  0
    6.4793  -11.7432   27.0974 C   0  0  0  0  0  0  0  0  0  0  0  0
    7.6649  -12.3513   27.4491 C   0  0  0  0  0  0  0  0  0  0  0  0
    7.8485  -13.7137   27.1931 C   0  0  0  0  0  0  0  0  0  0  0  0
    7.1954  -16.3040   23.9888 C   0  0  0  0  0  0  0  0  0  0  0  0
    8.0022  -17.2512   23.7287 O   0  0  0  0  0  0  0  0  0  0  0  0
    7.0961  -15.1578   23.1705 N   0  0  0  0  0  0  0  0  0  0  0  0
    7.9020  -15.0308   21.9761 C   0  0  1  0  0  0  0  0  0  0  0  0
    7.5029  -13.7243   21.3291 C   0  0  0  0  0  0  0  0  0  0  0  0
    8.2783  -13.3813   20.1030 C   0  0  0  0  0  0  0  0  0  0  0  0
    7.7857  -14.1093   18.8730 C   0  0  0  0  0  0  0  0  0  0  0  0
    8.6824  -13.6797   17.7097 C   0  0  0  0  0  0  0  0  0  0  0  0
    8.3258  -14.4217   16.5240 N   0  0  0  0  0  0  0  0  0  0  0  0
    9.3380  -15.0838   22.3330 C   0  0  0  0  0  0  0  0  0  0  0  0
    9.7288  -14.5364   23.3874 O   0  0  0  0  0  0  0  0  0  0  0  0
   10.3153  -15.7254   21.5438 N   0  0  0  0  0  0  0  0  0  0  0  0
   11.5858  -16.2192   22.0555 C   0  0  1  0  0  0  0  0  0  0  0  0
   11.4728  -17.6081   22.5872 C   0  0  0  0  0  0  0  0  0  0  0  0
   12.8118  -18.1216   22.9400 C   0  0  0  0  0  0  0  0  0  0  0  0
   13.6510  -17.4200   23.5527 O   0  0  0  0  0  0  0  0  0  0  0  0
   12.6013  -16.0621   21.0210 C   0  0  0  0  0  0  0  0  0  0  0  0
   12.3164  -16.2430   19.6684 O   0  0  0  0  0  0  0  0  0  0  0  0
   13.2187  -19.4242   22.6084 O   0  0  0  0  0  0  0  0  0  0  0  0
   13.7888  -15.7496   21.3744 O   0  0  0  0  0  0  0  0  0  0  0  0
  2  1  1  1
  2 10  1  0
  2  3  1  0
  3  4  1  0
  4  5  2  0
  4  9  1  0
  5  6  1  0
  6  7  2  0
  8  7  1  0
  9  8  2  0
 10 12  1  0
 11 10  2  0
 12 13  1  0
 13 14  1  1
 14 15  1  0
 15 16  1  0
 16 17  1  0
 17 18  1  0
 19 20  2  0
 19 13  1  0
 21 19  1  0
 22 26  1  0
 22 21  1  0
 22 23  1  6
 24 25  2  0
 24 23  1  0
 26 27  1  0
 28 24  1  0
 29 26  2  0
M  END
$$$$
