FKD.pdb
     RDKit          3D

 29 29  0  0  1  0  0  0  0  0999 V2000
    5.7845  -17.6848   25.7364 N   0  0  0  0  0  0  0  0  0  0  0  0
    6.2711  -16.3457   25.4651 C   0  0  1  0  0  0  0  0  0  0  0  0
    7.1243  -15.8138   26.5714 C   0  0  0  0  0  0  0  0  0  0  0  0
    7.0825  -14.3593   26.7226 C   0  0  0  0  0  0  0  0  0  0  0  0
    8.2043  -13.5512   26.7398 C   0  0  0  0  0  0  0  0  0  0  0  0
    8.1359  -12.1768   26.8838 C   0  0  0  0  0  0  0  0  0  0  0  0
    6.8896  -11.5818   27.0167 C   0  0  0  0  0  0  0  0  0  0  0  0
    5.7508  -12.3578   27.0038 C   0  0  0  0  0  0  0  0  0  0  0  0
    5.8575  -13.7442   26.8564 C   0  0  0  0  0  0  0  0  0  0  0  0
    7.1087  -16.3826   24.2373 C   0  0  0  0  0  0  0  0  0  0  0  0
    7.7594  -17.4559   24.0358 O   0  0  0  0  0  0  0  0  0  0  0  0
    7.1753  -15.2875   23.3487 N   0  0  0  0  0  0  0  0  0  0  0  0
    7.9354  -15.3772   22.1214 C   0  0  1  0  0  0  0  0  0  0  0  0
    7.5612  -14.1659   21.2983 C   0  0  0  0  0  0  0  0  0  0  0  0
    8.2236  -14.0982   19.9645 C   0  0  0  0  0  0  0  0  0  0  0  0
    7.8370  -12.8664   19.1780 C   0  0  0  0  0  0  0  0  0  0  0  0
    8.5099  -12.9807   17.8082 C   0  0  0  0  0  0  0  0  0  0  0  0
    7.9580  -14.1046   17.0901 N   0  0  0  0  0  0  0  0  0  0  0  0
    9.3819  -15.4401   22.4318 C   0  0  0  0  0  0  0  0  0  0  0  0
    9.8564  -14.6780   23.3025 O   0  0  0  0  0  0  0  0  0  0  0  0
   10.2790  -16.3230   21.7953 N   0  0  0  0  0  0  0  0  0  0  0  0
   11.6889  -16.4451   22.1377 C   0  0  1  0  0  0  0  0  0  0  0  0
   12.0256  -17.8072   22.6437 C   0  0  0  0  0  0  0  0  0  0  0  0
   13.4711  -17.8922   22.9340 C   0  0  0  0  0  0  0  0  0  0  0  0
   14.2487  -16.9328   22.7175 O   0  0  0  0  0  0  0  0  0  0  0  0
   12.4881  -16.0245   20.9930 C   0  0  0  0  0  0  0  0  0  0  0  0
   13.8176  -15.6261   21.1229 O   0  0  0  0  0  0  0  0  0  0  0  0
   14.0542  -19.0526   23.4686 O   0  0  0  0  0  0  0  0  0  0  0  0
   11.9440  -16.0226   19.8369 O   0  0  0  0  0  0  0  0  0  0  0  0
  2  1  1  1
  2 10  1  0
  2  3  1  0
  3  4  1  0
  4  5  2  0
  4  9  1  0
  5  6  1  0
  6  7  2  0
  8  7  1  0
  9  8  2  0
 10 12  1  0
 11 10  2  0
 12 13  1  0
 13 14  1  6
 14 15  1  0
 15 16  1  0
 16 17  1  0
 17 18  1  0
 19 20  2  0
 19 13  1  0
 21 19  1  0
 22 26  1  0
 22 21  1  0
 22 23  1  6
 24 25  2  0
 24 23  1  0
 26 27  1  0
 28 24  1  0
 29 26  2  0
M  END
$$$$
