FKD.pdb
     RDKit          3D

 29 29  0  0  1  0  0  0  0  0999 V2000
    5.4080  -17.6599   24.9780 N   0  0  0  0  0  0  0  0  0  0  0  0
    6.0576  -16.3633   24.9612 C   0  0  1  0  0  0  0  0  0  0  0  0
    6.5065  -15.9326   26.3205 C   0  0  0  0  0  0  0  0  0  0  0  0
    6.9291  -14.5346   26.4039 C   0  0  0  0  0  0  0  0  0  0  0  0
    8.2489  -14.1230   26.3796 C   0  0  0  0  0  0  0  0  0  0  0  0
    8.6209  -12.7927   26.4595 C   0  0  0  0  0  0  0  0  0  0  0  0
    7.6290  -11.8287   26.5689 C   0  0  0  0  0  0  0  0  0  0  0  0
    6.3033  -12.2043   26.5961 C   0  0  0  0  0  0  0  0  0  0  0  0
    5.9639  -13.5583   26.5131 C   0  0  0  0  0  0  0  0  0  0  0  0
    7.2669  -16.4472   24.1004 C   0  0  0  0  0  0  0  0  0  0  0  0
    7.9531  -17.5125   24.2017 O   0  0  0  0  0  0  0  0  0  0  0  0
    7.6294  -15.4027   23.2226 N   0  0  0  0  0  0  0  0  0  0  0  0
    8.7830  -15.5300   22.3593 C   0  0  1  0  0  0  0  0  0  0  0  0
    8.7156  -14.3769   21.3843 C   0  0  0  0  0  0  0  0  0  0  0  0
    8.0275  -14.6943   20.1005 C   0  0  0  0  0  0  0  0  0  0  0  0
    8.1657  -13.5951   19.0719 C   0  0  0  0  0  0  0  0  0  0  0  0
    7.4376  -14.0676   17.8115 C   0  0  0  0  0  0  0  0  0  0  0  0
    7.4721  -13.0257   16.8132 N   0  0  0  0  0  0  0  0  0  0  0  0
   10.0201  -15.5269   23.1729 C   0  0  0  0  0  0  0  0  0  0  0  0
   10.2546  -14.5590   23.9295 O   0  0  0  0  0  0  0  0  0  0  0  0
   10.9722  -16.5673   23.1497 N   0  0  0  0  0  0  0  0  0  0  0  0
   12.3032  -16.4722   23.7322 C   0  0  1  0  0  0  0  0  0  0  0  0
   12.8149  -17.8005   24.1776 C   0  0  0  0  0  0  0  0  0  0  0  0
   12.0092  -18.2945   25.3124 C   0  0  0  0  0  0  0  0  0  0  0  0
   11.7057  -17.5582   26.2808 O   0  0  0  0  0  0  0  0  0  0  0  0
   13.1796  -15.7855   22.7907 C   0  0  0  0  0  0  0  0  0  0  0  0
   14.4523  -15.3437   23.1490 O   0  0  0  0  0  0  0  0  0  0  0  0
   11.5386  -19.6165   25.3693 O   0  0  0  0  0  0  0  0  0  0  0  0
   12.7591  -15.5851   21.6009 O   0  0  0  0  0  0  0  0  0  0  0  0
  2  1  1  1
  2 10  1  0
  2  3  1  0
  3  4  1  0
  4  5  2  0
  4  9  1  0
  5  6  1  0
  6  7  2  0
  8  7  1  0
  9  8  2  0
 10 12  1  0
 11 10  2  0
 12 13  1  0
 13 14  1  6
 14 15  1  0
 15 16  1  0
 16 17  1  0
 17 18  1  0
 19 20  2  0
 19 13  1  0
 21 19  1  0
 22 26  1  0
 22 21  1  0
 22 23  1  6
 24 25  2  0
 24 23  1  0
 26 27  1  0
 28 24  1  0
 29 26  2  0
M  END
$$$$
