FKD.pdb
     RDKit          3D

 29 29  0  0  1  0  0  0  0  0999 V2000
    7.0796  -16.8444   26.3266 N   0  0  0  0  0  0  0  0  0  0  0  0
    6.3700  -16.4734   25.1173 C   0  0  1  0  0  0  0  0  0  0  0  0
    5.5982  -15.2030   25.2757 C   0  0  0  0  0  0  0  0  0  0  0  0
    6.2968  -14.1597   26.0264 C   0  0  0  0  0  0  0  0  0  0  0  0
    5.6999  -13.3710   26.9927 C   0  0  0  0  0  0  0  0  0  0  0  0
    6.3850  -12.3909   27.6886 C   0  0  0  0  0  0  0  0  0  0  0  0
    7.7283  -12.1888   27.4067 C   0  0  0  0  0  0  0  0  0  0  0  0
    8.3546  -12.9573   26.4494 C   0  0  0  0  0  0  0  0  0  0  0  0
    7.6310  -13.9392   25.7654 C   0  0  0  0  0  0  0  0  0  0  0  0
    7.3612  -16.2579   24.0303 C   0  0  0  0  0  0  0  0  0  0  0  0
    8.3554  -17.0498   24.0144 O   0  0  0  0  0  0  0  0  0  0  0  0
    7.2043  -15.2323   23.0728 N   0  0  0  0  0  0  0  0  0  0  0  0
    8.1174  -15.1175   21.9569 C   0  0  1  0  0  0  0  0  0  0  0  0
    7.7084  -13.8765   21.1969 C   0  0  0  0  0  0  0  0  0  0  0  0
    8.5601  -13.5701   20.0124 C   0  0  0  0  0  0  0  0  0  0  0  0
    7.9485  -14.0384   18.7116 C   0  0  0  0  0  0  0  0  0  0  0  0
    8.9826  -13.7816   17.6131 C   0  0  0  0  0  0  0  0  0  0  0  0
    8.3908  -14.0381   16.3218 N   0  0  0  0  0  0  0  0  0  0  0  0
    9.5108  -15.0573   22.4542 C   0  0  0  0  0  0  0  0  0  0  0  0
    9.7248  -14.7304   23.6422 O   0  0  0  0  0  0  0  0  0  0  0  0
   10.6372  -15.3510   21.6576 N   0  0  0  0  0  0  0  0  0  0  0  0
   11.8146  -16.0622   22.1350 C   0  0  1  0  0  0  0  0  0  0  0  0
   11.4581  -17.3410   22.8148 C   0  0  0  0  0  0  0  0  0  0  0  0
   12.6865  -18.0635   23.2022 C   0  0  0  0  0  0  0  0  0  0  0  0
   13.8287  -17.6203   22.9357 O   0  0  0  0  0  0  0  0  0  0  0  0
   12.7484  -16.2212   21.0266 C   0  0  0  0  0  0  0  0  0  0  0  0
   13.6919  -15.2463   20.7059 O   0  0  0  0  0  0  0  0  0  0  0  0
   12.6427  -19.2869   23.8905 O   0  0  0  0  0  0  0  0  0  0  0  0
   12.6927  -17.2914   20.3308 O   0  0  0  0  0  0  0  0  0  0  0  0
  2  1  1  1
  2 10  1  0
  2  3  1  0
  3  4  1  0
  4  5  2  0
  4  9  1  0
  5  6  1  0
  6  7  2  0
  8  7  1  0
  9  8  2  0
 10 12  1  0
 11 10  2  0
 12 13  1  0
 13 14  1  1
 14 15  1  0
 15 16  1  0
 16 17  1  0
 17 18  1  0
 19 20  2  0
 19 13  1  0
 21 19  1  0
 22 26  1  0
 22 21  1  0
 22 23  1  6
 24 25  2  0
 24 23  1  0
 26 27  1  0
 28 24  1  0
 29 26  2  0
M  END
$$$$
