FKD.pdb
     RDKit          3D

 29 29  0  0  1  0  0  0  0  0999 V2000
    6.7626  -17.6488   26.2335 N   0  0  0  0  0  0  0  0  0  0  0  0
    6.9380  -16.3691   25.5741 C   0  0  1  0  0  0  0  0  0  0  0  0
    8.0325  -15.5564   26.1878 C   0  0  0  0  0  0  0  0  0  0  0  0
    7.6441  -14.1936   26.5509 C   0  0  0  0  0  0  0  0  0  0  0  0
    8.2339  -13.4666   27.5685 C   0  0  0  0  0  0  0  0  0  0  0  0
    7.8470  -12.1778   27.8906 C   0  0  0  0  0  0  0  0  0  0  0  0
    6.8238  -11.5876   27.1628 C   0  0  0  0  0  0  0  0  0  0  0  0
    6.2141  -12.2840   26.1418 C   0  0  0  0  0  0  0  0  0  0  0  0
    6.6309  -13.5850   25.8438 C   0  0  0  0  0  0  0  0  0  0  0  0
    7.3076  -16.6111   24.1545 C   0  0  0  0  0  0  0  0  0  0  0  0
    7.6725  -17.7939   23.8651 O   0  0  0  0  0  0  0  0  0  0  0  0
    7.2554  -15.5847   23.1866 N   0  0  0  0  0  0  0  0  0  0  0  0
    7.5789  -15.8566   21.8033 C   0  0  1  0  0  0  0  0  0  0  0  0
    7.1957  -14.6192   21.0243 C   0  0  0  0  0  0  0  0  0  0  0  0
    7.4527  -14.7091   19.5586 C   0  0  0  0  0  0  0  0  0  0  0  0
    8.0167  -13.4308   18.9812 C   0  0  0  0  0  0  0  0  0  0  0  0
    8.2499  -13.6787   17.4891 C   0  0  0  0  0  0  0  0  0  0  0  0
    8.8231  -12.4991   16.8863 N   0  0  0  0  0  0  0  0  0  0  0  0
    9.0156  -16.1938   21.6819 C   0  0  0  0  0  0  0  0  0  0  0  0
    9.4527  -16.6351   20.5964 O   0  0  0  0  0  0  0  0  0  0  0  0
    9.9435  -16.0463   22.7339 N   0  0  0  0  0  0  0  0  0  0  0  0
   11.3676  -16.3247   22.6144 C   0  0  1  0  0  0  0  0  0  0  0  0
   12.2002  -15.1323   22.9454 C   0  0  0  0  0  0  0  0  0  0  0  0
   13.6299  -15.4489   22.7537 C   0  0  0  0  0  0  0  0  0  0  0  0
   14.0493  -16.0239   21.7215 O   0  0  0  0  0  0  0  0  0  0  0  0
   11.6832  -17.5061   23.4085 C   0  0  0  0  0  0  0  0  0  0  0  0
   10.8447  -17.9628   24.4242 O   0  0  0  0  0  0  0  0  0  0  0  0
   14.5984  -15.1231   23.7172 O   0  0  0  0  0  0  0  0  0  0  0  0
   12.7662  -18.1369   23.1596 O   0  0  0  0  0  0  0  0  0  0  0  0
  2  1  1  1
  2 10  1  0
  2  3  1  0
  3  4  1  0
  4  5  2  0
  4  9  1  0
  5  6  1  0
  6  7  2  0
  8  7  1  0
  9  8  2  0
 10 12  1  0
 11 10  2  0
 12 13  1  0
 13 14  1  6
 14 15  1  0
 15 16  1  0
 16 17  1  0
 17 18  1  0
 19 20  2  0
 19 13  1  0
 21 19  1  0
 22 26  1  0
 22 21  1  0
 22 23  1  1
 24 25  2  0
 24 23  1  0
 26 27  1  0
 28 24  1  0
 29 26  2  0
M  END
$$$$
