KNV.pdb
     RDKit          3D

 25 24  0  0  1  0  0  0  0  0999 V2000
    7.1947  -14.6984   20.1278 N   0  0  0  0  0  0  0  0  0  0  0  0
    8.2484  -15.4547   19.4719 C   0  0  1  0  0  0  0  0  0  0  0  0
    8.7690  -14.5841   18.3504 C   0  0  0  0  0  0  0  0  0  0  0  0
    7.7333  -14.6196   17.2366 C   0  0  0  0  0  0  0  0  0  0  0  0
    8.2142  -13.8593   16.0191 C   0  0  0  0  0  0  0  0  0  0  0  0
    7.0876  -13.7414   15.0431 C   0  0  0  0  0  0  0  0  0  0  0  0
    7.5361  -12.8758   13.9416 N   0  0  0  0  0  0  0  0  0  0  0  0
    9.3255  -15.8185   20.4321 C   0  0  0  0  0  0  0  0  0  0  0  0
   10.1563  -16.7198   20.1321 O   0  0  0  0  0  0  0  0  0  0  0  0
   13.1414  -15.0603   19.9859 N   0  0  0  0  0  0  0  0  0  0  0  0
   12.5102  -15.6176   21.1231 C   0  0  0  0  0  0  0  0  0  0  0  0
   12.4979  -16.8906   21.3007 O   0  0  0  0  0  0  0  0  0  0  0  0
   11.8314  -14.8399   22.1731 C   0  0  0  0  0  0  0  0  0  0  0  0
   10.5859  -15.5364   22.6209 C   0  0  2  0  0  0  0  0  0  0  0  0
    9.4747  -15.1975   21.6905 N   0  0  0  0  0  0  0  0  0  0  0  0
   10.1474  -15.2739   23.9937 C   0  0  0  0  0  0  0  0  0  0  0  0
   11.0287  -15.2763   24.9325 O   0  0  0  0  0  0  0  0  0  0  0  0
    6.1413  -13.9645   25.7225 C   0  0  0  0  0  0  0  0  0  0  0  0
    7.5536  -13.6645   26.1275 C   0  0  2  0  0  0  0  0  0  0  0  0
    7.9973  -12.2821   25.6602 C   0  0  0  0  0  0  0  0  0  0  0  0
    8.5259  -14.7290   25.8363 C   0  0  2  0  0  0  0  0  0  0  0  0
    8.8723  -15.0047   24.4899 N   0  0  0  0  0  0  0  0  0  0  0  0
    8.0889  -15.9765   26.4959 C   0  0  0  0  0  0  0  0  0  0  0  0
    7.9831  -16.0157   27.8711 O   0  0  0  0  0  0  0  0  0  0  0  0
    7.8018  -17.0261   25.8613 O   0  0  0  0  0  0  0  0  0  0  0  0
  2  3  1  0
  2  1  1  1
  4  3  1  0
  5  4  1  0
  6  5  1  0
  7  6  1  0
  8  9  2  0
  8  2  1  0
 10 11  1  0
 11 13  1  0
 12 11  2  0
 14 13  1  6
 14 15  1  0
 15  8  1  0
 16 14  1  0
 16 17  2  0
 19 18  1  6
 20 19  1  0
 21 19  1  0
 21 22  1  6
 22 16  1  0
 23 21  1  0
 24 23  1  0
 25 23  2  0
M  END
$$$$
