KNV.pdb
     RDKit          3D

 25 24  0  0  1  0  0  0  0  0999 V2000
    6.1664  -16.0153   19.9534 N   0  0  0  0  0  0  0  0  0  0  0  0
    7.2727  -15.2927   20.5588 C   0  0  1  0  0  0  0  0  0  0  0  0
    6.9026  -13.8270   20.5192 C   0  0  0  0  0  0  0  0  0  0  0  0
    7.1208  -13.3471   19.0921 C   0  0  0  0  0  0  0  0  0  0  0  0
    8.5900  -13.3670   18.7278 C   0  0  0  0  0  0  0  0  0  0  0  0
    8.7512  -12.8631   17.3294 C   0  0  0  0  0  0  0  0  0  0  0  0
   10.1921  -12.7804   17.0449 N   0  0  0  0  0  0  0  0  0  0  0  0
    7.5226  -15.7603   21.9493 C   0  0  0  0  0  0  0  0  0  0  0  0
    6.5536  -15.9214   22.7415 O   0  0  0  0  0  0  0  0  0  0  0  0
   10.4822  -19.0258   21.7747 N   0  0  0  0  0  0  0  0  0  0  0  0
    9.8314  -18.6815   22.9831 C   0  0  0  0  0  0  0  0  0  0  0  0
    8.8647  -19.4022   23.4285 O   0  0  0  0  0  0  0  0  0  0  0  0
   10.1718  -17.5181   23.8191 C   0  0  0  0  0  0  0  0  0  0  0  0
    9.0474  -16.5320   23.8304 C   0  0  2  0  0  0  0  0  0  0  0  0
    8.8138  -16.0409   22.4449 N   0  0  0  0  0  0  0  0  0  0  0  0
    9.1986  -15.3781   24.7199 C   0  0  0  0  0  0  0  0  0  0  0  0
   10.1548  -14.5464   24.4921 O   0  0  0  0  0  0  0  0  0  0  0  0
    6.3390  -13.4028   27.4623 C   0  0  0  0  0  0  0  0  0  0  0  0
    7.5974  -12.8811   26.8355 C   0  0  2  0  0  0  0  0  0  0  0  0
    7.3106  -12.0644   25.5798 C   0  0  0  0  0  0  0  0  0  0  0  0
    8.6679  -13.8752   26.6644 C   0  0  2  0  0  0  0  0  0  0  0  0
    8.4455  -14.9997   25.8309 N   0  0  0  0  0  0  0  0  0  0  0  0
    9.1205  -14.3320   27.9944 C   0  0  0  0  0  0  0  0  0  0  0  0
    9.6956  -13.4272   28.8631 O   0  0  0  0  0  0  0  0  0  0  0  0
    9.0084  -15.5236   28.3874 O   0  0  0  0  0  0  0  0  0  0  0  0
  2  3  1  0
  2  1  1  1
  4  3  1  0
  5  4  1  0
  6  5  1  0
  7  6  1  0
  8  9  2  0
  8  2  1  0
 10 11  1  0
 11 13  1  0
 12 11  2  0
 14 13  1  6
 14 15  1  0
 15  8  1  0
 16 14  1  0
 16 17  2  0
 19 18  1  6
 20 19  1  0
 21 19  1  0
 21 22  1  6
 22 16  1  0
 23 21  1  0
 24 23  1  0
 25 23  2  0
M  END
$$$$
