KNV.pdb
     RDKit          3D

 25 24  0  0  1  0  0  0  0  0999 V2000
    5.9914  -16.6780   20.2416 N   0  0  0  0  0  0  0  0  0  0  0  0
    6.8485  -15.9143   21.1331 C   0  0  1  0  0  0  0  0  0  0  0  0
    6.4610  -14.4624   20.9637 C   0  0  0  0  0  0  0  0  0  0  0  0
    7.0094  -14.0051   19.6204 C   0  0  0  0  0  0  0  0  0  0  0  0
    8.4445  -13.5401   19.7460 C   0  0  0  0  0  0  0  0  0  0  0  0
    8.8927  -12.9851   18.4320 C   0  0  0  0  0  0  0  0  0  0  0  0
   10.2414  -12.4276   18.6161 N   0  0  0  0  0  0  0  0  0  0  0  0
    6.6940  -16.3647   22.5430 C   0  0  0  0  0  0  0  0  0  0  0  0
    5.5499  -16.6601   22.9861 O   0  0  0  0  0  0  0  0  0  0  0  0
    7.1936  -18.7422   27.1721 N   0  0  0  0  0  0  0  0  0  0  0  0
    8.4033  -18.6132   26.4495 C   0  0  0  0  0  0  0  0  0  0  0  0
    9.5249  -18.9120   27.0018 O   0  0  0  0  0  0  0  0  0  0  0  0
    8.5048  -18.1445   25.0573 C   0  0  0  0  0  0  0  0  0  0  0  0
    7.6162  -16.9623   24.8346 C   0  0  2  0  0  0  0  0  0  0  0  0
    7.7811  -16.4835   23.4350 N   0  0  0  0  0  0  0  0  0  0  0  0
    7.7961  -15.8285   25.7445 C   0  0  0  0  0  0  0  0  0  0  0  0
    7.6732  -16.0297   27.0104 O   0  0  0  0  0  0  0  0  0  0  0  0
    6.2920  -12.8462   27.8166 C   0  0  0  0  0  0  0  0  0  0  0  0
    7.1732  -12.5063   26.6518 C   0  0  2  0  0  0  0  0  0  0  0  0
    6.3621  -12.1692   25.4050 C   0  0  0  0  0  0  0  0  0  0  0  0
    8.2739  -13.4503   26.4056 C   0  0  2  0  0  0  0  0  0  0  0  0
    8.0958  -14.4956   25.4651 N   0  0  0  0  0  0  0  0  0  0  0  0
    8.7197  -14.0198   27.6937 C   0  0  0  0  0  0  0  0  0  0  0  0
    9.1970  -13.1791   28.6783 O   0  0  0  0  0  0  0  0  0  0  0  0
    8.6876  -15.2530   27.9486 O   0  0  0  0  0  0  0  0  0  0  0  0
  2  3  1  0
  2  1  1  6
  4  3  1  0
  5  4  1  0
  6  5  1  0
  7  6  1  0
  8  9  2  0
  8  2  1  0
 10 11  1  0
 11 13  1  0
 12 11  2  0
 14 13  1  1
 14 15  1  0
 15  8  1  0
 16 14  1  0
 16 17  2  0
 19 18  1  1
 20 19  1  0
 21 19  1  0
 21 22  1  6
 22 16  1  0
 23 21  1  0
 24 23  1  0
 25 23  2  0
M  END
$$$$
