KNV.pdb
     RDKit          3D

 25 24  0  0  1  0  0  0  0  0999 V2000
   11.9356  -17.6288   15.2083 N   0  0  0  0  0  0  0  0  0  0  0  0
   11.5203  -16.4097   15.8822 C   0  0  1  0  0  0  0  0  0  0  0  0
   10.0088  -16.3881   15.8400 C   0  0  0  0  0  0  0  0  0  0  0  0
    9.6026  -16.2252   14.3830 C   0  0  0  0  0  0  0  0  0  0  0  0
    8.1301  -15.8959   14.2600 C   0  0  0  0  0  0  0  0  0  0  0  0
    7.7990  -15.6791   12.8182 C   0  0  0  0  0  0  0  0  0  0  0  0
    6.3826  -15.2904   12.7359 N   0  0  0  0  0  0  0  0  0  0  0  0
   12.0330  -16.3669   17.2786 C   0  0  0  0  0  0  0  0  0  0  0  0
   12.1731  -17.4389   17.9294 O   0  0  0  0  0  0  0  0  0  0  0  0
   15.5434  -13.9644   17.5281 N   0  0  0  0  0  0  0  0  0  0  0  0
   15.0902  -14.6111   18.7022 C   0  0  0  0  0  0  0  0  0  0  0  0
   15.6886  -15.6625   19.1369 O   0  0  0  0  0  0  0  0  0  0  0  0
   13.9410  -14.1739   19.5124 C   0  0  0  0  0  0  0  0  0  0  0  0
   12.7982  -15.1268   19.3608 C   0  0  2  0  0  0  0  0  0  0  0  0
   12.3802  -15.1657   17.9328 N   0  0  0  0  0  0  0  0  0  0  0  0
   11.6183  -14.8700   20.1900 C   0  0  0  0  0  0  0  0  0  0  0  0
   11.7650  -14.8112   21.4679 O   0  0  0  0  0  0  0  0  0  0  0  0
    7.1790  -14.1634   19.2156 C   0  0  0  0  0  0  0  0  0  0  0  0
    8.1412  -13.4328   20.1040 C   0  0  2  0  0  0  0  0  0  0  0  0
    8.6206  -12.1299   19.4725 C   0  0  0  0  0  0  0  0  0  0  0  0
    9.2258  -14.2563   20.6599 C   0  0  2  0  0  0  0  0  0  0  0  0
   10.2903  -14.6644   19.8177 N   0  0  0  0  0  0  0  0  0  0  0  0
    8.6424  -15.4408   21.3224 C   0  0  0  0  0  0  0  0  0  0  0  0
    9.0386  -16.7024   20.9283 O   0  0  0  0  0  0  0  0  0  0  0  0
    7.7878  -15.3622   22.2444 O   0  0  0  0  0  0  0  0  0  0  0  0
  2  3  1  0
  2  1  1  1
  4  3  1  0
  5  4  1  0
  6  5  1  0
  7  6  1  0
  8  9  2  0
  8  2  1  0
 10 11  1  0
 11 13  1  0
 12 11  2  0
 14 13  1  6
 14 15  1  0
 15  8  1  0
 16 14  1  0
 16 17  2  0
 19 18  1  6
 20 19  1  0
 21 19  1  0
 21 22  1  6
 22 16  1  0
 23 21  1  0
 24 23  1  0
 25 23  2  0
M  END
$$$$
