KNV.pdb
     RDKit          3D

 25 24  0  0  1  0  0  0  0  0999 V2000
    8.2357  -17.2734   19.7384 N   0  0  0  0  0  0  0  0  0  0  0  0
    8.6467  -16.1922   20.6186 C   0  0  1  0  0  0  0  0  0  0  0  0
    8.1200  -14.9141   20.0055 C   0  0  0  0  0  0  0  0  0  0  0  0
    8.3152  -15.0244   18.5007 C   0  0  0  0  0  0  0  0  0  0  0  0
    7.8095  -13.7859   17.7922 C   0  0  0  0  0  0  0  0  0  0  0  0
    7.9332  -13.9857   16.3156 C   0  0  0  0  0  0  0  0  0  0  0  0
    7.3988  -12.7857   15.6534 N   0  0  0  0  0  0  0  0  0  0  0  0
    8.1273  -16.3961   21.9982 C   0  0  0  0  0  0  0  0  0  0  0  0
    7.2212  -17.2489   22.2085 O   0  0  0  0  0  0  0  0  0  0  0  0
   10.5005  -18.9599   25.6591 N   0  0  0  0  0  0  0  0  0  0  0  0
   11.0272  -17.8610   24.9401 C   0  0  0  0  0  0  0  0  0  0  0  0
   12.1665  -17.3602   25.2617 O   0  0  0  0  0  0  0  0  0  0  0  0
   10.3608  -17.2030   23.8038 C   0  0  0  0  0  0  0  0  0  0  0  0
    9.2404  -16.3354   24.2821 C   0  0  2  0  0  0  0  0  0  0  0  0
    8.6021  -15.6720   23.1126 N   0  0  0  0  0  0  0  0  0  0  0  0
    9.5825  -15.3135   25.2744 C   0  0  0  0  0  0  0  0  0  0  0  0
   10.2650  -15.6638   26.3085 O   0  0  0  0  0  0  0  0  0  0  0  0
    6.8054  -12.3948   24.6194 C   0  0  0  0  0  0  0  0  0  0  0  0
    7.0747  -13.0066   25.9618 C   0  0  2  0  0  0  0  0  0  0  0  0
    6.3438  -12.2695   27.0791 C   0  0  0  0  0  0  0  0  0  0  0  0
    8.4918  -13.2710   26.2541 C   0  0  2  0  0  0  0  0  0  0  0  0
    9.2840  -13.9515   25.2958 N   0  0  0  0  0  0  0  0  0  0  0  0
    8.5962  -13.9609   27.5562 C   0  0  0  0  0  0  0  0  0  0  0  0
    9.0899  -13.2774   28.6485 O   0  0  0  0  0  0  0  0  0  0  0  0
    8.2531  -15.1606   27.7286 O   0  0  0  0  0  0  0  0  0  0  0  0
  2  3  1  0
  2  1  1  6
  4  3  1  0
  5  4  1  0
  6  5  1  0
  7  6  1  0
  8  9  2  0
  8  2  1  0
 10 11  1  0
 11 13  1  0
 12 11  2  0
 14 13  1  6
 14 15  1  0
 15  8  1  0
 16 14  1  0
 16 17  2  0
 19 18  1  6
 20 19  1  0
 21 19  1  0
 21 22  1  6
 22 16  1  0
 23 21  1  0
 24 23  1  0
 25 23  2  0
M  END
$$$$
