KNV.pdb
     RDKit          3D

 25 24  0  0  1  0  0  0  0  0999 V2000
    8.1742  -17.7925   19.5912 N   0  0  0  0  0  0  0  0  0  0  0  0
    9.1873  -16.7512   19.6343 C   0  0  1  0  0  0  0  0  0  0  0  0
    8.4618  -15.4369   19.4528 C   0  0  0  0  0  0  0  0  0  0  0  0
    7.9942  -15.3781   18.0063 C   0  0  0  0  0  0  0  0  0  0  0  0
    7.2511  -14.0897   17.7244 C   0  0  0  0  0  0  0  0  0  0  0  0
    6.9537  -14.0100   16.2612 C   0  0  0  0  0  0  0  0  0  0  0  0
    6.1072  -12.8277   16.0385 N   0  0  0  0  0  0  0  0  0  0  0  0
    9.9435  -16.7906   20.9154 C   0  0  0  0  0  0  0  0  0  0  0  0
    9.7894  -17.7619   21.7061 O   0  0  0  0  0  0  0  0  0  0  0  0
   13.6755  -14.0666   20.3388 N   0  0  0  0  0  0  0  0  0  0  0  0
   13.4754  -15.0569   21.3294 C   0  0  0  0  0  0  0  0  0  0  0  0
   13.9762  -16.2318   21.1840 O   0  0  0  0  0  0  0  0  0  0  0  0
   12.7090  -14.8605   22.5714 C   0  0  0  0  0  0  0  0  0  0  0  0
   11.5417  -15.7941   22.6218 C   0  0  2  0  0  0  0  0  0  0  0  0
   10.8458  -15.7783   21.3062 N   0  0  0  0  0  0  0  0  0  0  0  0
   10.5565  -15.5526   23.6786 C   0  0  0  0  0  0  0  0  0  0  0  0
   10.9489  -15.5830   24.9046 O   0  0  0  0  0  0  0  0  0  0  0  0
    7.6943  -12.6884   23.6954 C   0  0  0  0  0  0  0  0  0  0  0  0
    7.2586  -13.9352   24.4055 C   0  0  2  0  0  0  0  0  0  0  0  0
    6.4205  -13.6222   25.6407 C   0  0  0  0  0  0  0  0  0  0  0  0
    8.3234  -14.9211   24.6460 C   0  0  2  0  0  0  0  0  0  0  0  0
    9.1925  -15.2782   23.5848 N   0  0  0  0  0  0  0  0  0  0  0  0
    7.7290  -16.1429   25.2258 C   0  0  0  0  0  0  0  0  0  0  0  0
    6.9988  -16.0539   26.3932 O   0  0  0  0  0  0  0  0  0  0  0  0
    7.8536  -17.2828   24.7044 O   0  0  0  0  0  0  0  0  0  0  0  0
  2  3  1  0
  2  1  1  1
  4  3  1  0
  5  4  1  0
  6  5  1  0
  7  6  1  0
  8  9  2  0
  8  2  1  0
 10 11  1  0
 11 13  1  0
 12 11  2  0
 14 13  1  6
 14 15  1  0
 15  8  1  0
 16 14  1  0
 16 17  2  0
 19 18  1  1
 20 19  1  0
 21 19  1  0
 21 22  1  6
 22 16  1  0
 23 21  1  0
 24 23  1  0
 25 23  2  0
M  END
$$$$
