KNV.pdb
     RDKit          3D

 25 24  0  0  1  0  0  0  0  0999 V2000
    6.5760  -16.7811   20.4588 N   0  0  0  0  0  0  0  0  0  0  0  0
    7.4848  -15.8731   21.1387 C   0  0  1  0  0  0  0  0  0  0  0  0
    6.7677  -14.5460   21.2454 C   0  0  0  0  0  0  0  0  0  0  0  0
    6.9117  -13.8485   19.9011 C   0  0  0  0  0  0  0  0  0  0  0  0
    8.2882  -13.2375   19.7474 C   0  0  0  0  0  0  0  0  0  0  0  0
    8.3523  -12.5045   18.4458 C   0  0  0  0  0  0  0  0  0  0  0  0
    9.7342  -12.0349   18.2622 N   0  0  0  0  0  0  0  0  0  0  0  0
    7.8697  -16.4003   22.4761 C   0  0  0  0  0  0  0  0  0  0  0  0
    6.9876  -16.8827   23.2387 O   0  0  0  0  0  0  0  0  0  0  0  0
   10.5684  -19.2396   26.3240 N   0  0  0  0  0  0  0  0  0  0  0  0
   11.1793  -18.2368   25.5344 C   0  0  0  0  0  0  0  0  0  0  0  0
   12.2138  -17.6091   25.9679 O   0  0  0  0  0  0  0  0  0  0  0  0
   10.7190  -17.8225   24.1984 C   0  0  0  0  0  0  0  0  0  0  0  0
    9.5628  -16.8804   24.3097 C   0  0  2  0  0  0  0  0  0  0  0  0
    9.1982  -16.3913   22.9521 N   0  0  0  0  0  0  0  0  0  0  0  0
    9.7425  -15.7262   25.1936 C   0  0  0  0  0  0  0  0  0  0  0  0
   10.6847  -14.8893   24.9293 O   0  0  0  0  0  0  0  0  0  0  0  0
    7.0352  -13.7420   28.1610 C   0  0  0  0  0  0  0  0  0  0  0  0
    8.2122  -13.2418   27.3778 C   0  0  2  0  0  0  0  0  0  0  0  0
    7.7820  -12.5107   26.1103 C   0  0  0  0  0  0  0  0  0  0  0  0
    9.2811  -14.2281   27.1594 C   0  0  2  0  0  0  0  0  0  0  0  0
    9.0313  -15.3525   26.3334 N   0  0  0  0  0  0  0  0  0  0  0  0
    9.7926  -14.6846   28.4680 C   0  0  0  0  0  0  0  0  0  0  0  0
   10.3012  -13.7604   29.3575 O   0  0  0  0  0  0  0  0  0  0  0  0
    9.7901  -15.8929   28.8242 O   0  0  0  0  0  0  0  0  0  0  0  0
  2  3  1  0
  2  1  1  1
  4  3  1  0
  5  4  1  0
  6  5  1  0
  7  6  1  0
  8  9  2  0
  8  2  1  0
 10 11  1  0
 11 13  1  0
 12 11  2  0
 14 13  1  6
 14 15  1  0
 15  8  1  0
 16 14  1  0
 16 17  2  0
 19 18  1  6
 20 19  1  0
 21 19  1  0
 21 22  1  1
 22 16  1  0
 23 21  1  0
 24 23  1  0
 25 23  2  0
M  END
$$$$
