KNV.pdb
     RDKit          3D

 25 24  0  0  1  0  0  0  0  0999 V2000
    9.4002  -15.8179   20.3973 N   0  0  0  0  0  0  0  0  0  0  0  0
    9.1141  -14.6237   21.1749 C   0  0  1  0  0  0  0  0  0  0  0  0
    8.1100  -13.8214   20.3780 C   0  0  0  0  0  0  0  0  0  0  0  0
    8.2519  -14.2427   18.9230 C   0  0  0  0  0  0  0  0  0  0  0  0
    7.5936  -13.2416   17.9978 C   0  0  0  0  0  0  0  0  0  0  0  0
    7.7752  -13.6933   16.5841 C   0  0  0  0  0  0  0  0  0  0  0  0
    7.1143  -12.7117   15.7103 N   0  0  0  0  0  0  0  0  0  0  0  0
    8.5931  -14.9736   22.5242 C   0  0  0  0  0  0  0  0  0  0  0  0
    8.1770  -14.0630   23.2924 O   0  0  0  0  0  0  0  0  0  0  0  0
    6.3040  -17.5472   26.5864 N   0  0  0  0  0  0  0  0  0  0  0  0
    6.9491  -18.4030   25.6625 C   0  0  0  0  0  0  0  0  0  0  0  0
    7.1832  -19.6296   25.9672 O   0  0  0  0  0  0  0  0  0  0  0  0
    7.4015  -18.0019   24.3198 C   0  0  0  0  0  0  0  0  0  0  0  0
    8.0083  -16.6354   24.3560 C   0  0  2  0  0  0  0  0  0  0  0  0
    8.5362  -16.2989   23.0057 N   0  0  0  0  0  0  0  0  0  0  0  0
    9.0675  -16.4162   25.3439 C   0  0  0  0  0  0  0  0  0  0  0  0
   10.2599  -16.8150   25.0665 O   0  0  0  0  0  0  0  0  0  0  0  0
    9.0840  -14.3035   29.3880 C   0  0  0  0  0  0  0  0  0  0  0  0
   10.1078  -14.3517   28.2934 C   0  0  2  0  0  0  0  0  0  0  0  0
   10.1207  -13.0677   27.4705 C   0  0  0  0  0  0  0  0  0  0  0  0
   10.0944  -15.5770   27.4798 C   0  0  2  0  0  0  0  0  0  0  0  0
    9.0082  -15.8162   26.6012 N   0  0  0  0  0  0  0  0  0  0  0  0
   10.2771  -16.7463   28.3640 C   0  0  0  0  0  0  0  0  0  0  0  0
    9.3359  -17.7553   28.3576 O   0  0  0  0  0  0  0  0  0  0  0  0
   11.2625  -16.8764   29.1378 O   0  0  0  0  0  0  0  0  0  0  0  0
  2  3  1  0
  2  1  1  6
  4  3  1  0
  5  4  1  0
  6  5  1  0
  7  6  1  0
  8  9  2  0
  8  2  1  0
 10 11  1  0
 11 13  1  0
 12 11  2  0
 14 13  1  6
 14 15  1  0
 15  8  1  0
 16 14  1  0
 16 17  2  0
 19 18  1  1
 20 19  1  0
 21 19  1  0
 21 22  1  1
 22 16  1  0
 23 21  1  0
 24 23  1  0
 25 23  2  0
M  END
$$$$
