KNV.pdb
     RDKit          3D

 25 24  0  0  1  0  0  0  0  0999 V2000
    7.2968  -16.9727   19.2549 N   0  0  0  0  0  0  0  0  0  0  0  0
    7.9061  -16.0711   20.2186 C   0  0  1  0  0  0  0  0  0  0  0  0
    7.5114  -14.6705   19.8072 C   0  0  0  0  0  0  0  0  0  0  0  0
    8.2354  -14.3643   18.5047 C   0  0  0  0  0  0  0  0  0  0  0  0
    7.9051  -12.9721   18.0104 C   0  0  0  0  0  0  0  0  0  0  0  0
    8.5692  -12.7550   16.6885 C   0  0  0  0  0  0  0  0  0  0  0  0
    7.9083  -13.6267   15.7050 N   0  0  0  0  0  0  0  0  0  0  0  0
    7.4604  -16.3846   21.6034 C   0  0  0  0  0  0  0  0  0  0  0  0
    6.2474  -16.6504   21.8278 O   0  0  0  0  0  0  0  0  0  0  0  0
    6.6617  -18.1941   26.5003 N   0  0  0  0  0  0  0  0  0  0  0  0
    7.9710  -18.2060   25.9638 C   0  0  0  0  0  0  0  0  0  0  0  0
    8.9844  -18.4087   26.7282 O   0  0  0  0  0  0  0  0  0  0  0  0
    8.2993  -17.9964   24.5438 C   0  0  0  0  0  0  0  0  0  0  0  0
    7.8665  -16.6354   24.0997 C   0  0  2  0  0  0  0  0  0  0  0  0
    8.3390  -16.4021   22.7077 N   0  0  0  0  0  0  0  0  0  0  0  0
    8.2898  -15.5094   24.9356 C   0  0  0  0  0  0  0  0  0  0  0  0
    9.5251  -15.1477   24.9016 O   0  0  0  0  0  0  0  0  0  0  0  0
    5.8753  -12.8137   27.5839 C   0  0  0  0  0  0  0  0  0  0  0  0
    7.1217  -12.4763   26.8214 C   0  0  2  0  0  0  0  0  0  0  0  0
    6.8214  -11.6350   25.5852 C   0  0  0  0  0  0  0  0  0  0  0  0
    8.0209  -13.6110   26.5620 C   0  0  2  0  0  0  0  0  0  0  0  0
    7.5480  -14.7147   25.8090 N   0  0  0  0  0  0  0  0  0  0  0  0
    8.5738  -14.0927   27.8445 C   0  0  0  0  0  0  0  0  0  0  0  0
    8.4598  -15.4278   28.1736 O   0  0  0  0  0  0  0  0  0  0  0  0
    9.1545  -13.3388   28.6698 O   0  0  0  0  0  0  0  0  0  0  0  0
  2  3  1  0
  2  1  1  6
  4  3  1  0
  5  4  1  0
  6  5  1  0
  7  6  1  0
  8  9  2  0
  8  2  1  0
 10 11  1  0
 11 13  1  0
 12 11  2  0
 14 13  1  1
 14 15  1  0
 15  8  1  0
 16 14  1  0
 16 17  2  0
 19 18  1  6
 20 19  1  0
 21 19  1  0
 21 22  1  1
 22 16  1  0
 23 21  1  0
 24 23  1  0
 25 23  2  0
M  END
$$$$
