KNV.pdb
     RDKit          3D

 25 24  0  0  1  0  0  0  0  0999 V2000
    9.4896  -15.2937   20.1467 N   0  0  0  0  0  0  0  0  0  0  0  0
    8.8307  -14.4363   21.1180 C   0  0  1  0  0  0  0  0  0  0  0  0
    7.4527  -14.1430   20.5685 C   0  0  0  0  0  0  0  0  0  0  0  0
    7.6420  -13.3881   19.2613 C   0  0  0  0  0  0  0  0  0  0  0  0
    7.2202  -14.2319   18.0773 C   0  0  0  0  0  0  0  0  0  0  0  0
    7.4815  -13.4686   16.8185 C   0  0  0  0  0  0  0  0  0  0  0  0
    7.0321  -14.2971   15.6891 N   0  0  0  0  0  0  0  0  0  0  0  0
    8.7636  -15.0902   22.4531 C   0  0  0  0  0  0  0  0  0  0  0  0
    8.1070  -14.5492   23.3851 O   0  0  0  0  0  0  0  0  0  0  0  0
   11.8321  -19.4422   24.0634 N   0  0  0  0  0  0  0  0  0  0  0  0
   10.8588  -18.6961   23.3575 C   0  0  0  0  0  0  0  0  0  0  0  0
   11.1591  -18.1231   22.2468 O   0  0  0  0  0  0  0  0  0  0  0  0
    9.4667  -18.5027   23.7968 C   0  0  0  0  0  0  0  0  0  0  0  0
    9.1813  -17.0510   24.0151 C   0  0  2  0  0  0  0  0  0  0  0  0
    9.4084  -16.3114   22.7436 N   0  0  0  0  0  0  0  0  0  0  0  0
    9.9331  -16.3905   25.0849 C   0  0  0  0  0  0  0  0  0  0  0  0
   11.0876  -15.8919   24.8086 O   0  0  0  0  0  0  0  0  0  0  0  0
    8.9772  -13.2587   26.7404 C   0  0  0  0  0  0  0  0  0  0  0  0
    9.5519  -14.1276   27.8189 C   0  0  2  0  0  0  0  0  0  0  0  0
   10.3493  -13.3182   28.8363 C   0  0  0  0  0  0  0  0  0  0  0  0
   10.2478  -15.3334   27.3443 C   0  0  2  0  0  0  0  0  0  0  0  0
    9.5983  -16.1940   26.4243 N   0  0  0  0  0  0  0  0  0  0  0  0
   10.7064  -16.1171   28.5096 C   0  0  0  0  0  0  0  0  0  0  0  0
   11.5627  -15.5369   29.4229 O   0  0  0  0  0  0  0  0  0  0  0  0
   10.3527  -17.3076   28.7203 O   0  0  0  0  0  0  0  0  0  0  0  0
  2  3  1  0
  2  1  1  6
  4  3  1  0
  5  4  1  0
  6  5  1  0
  7  6  1  0
  8  9  2  0
  8  2  1  0
 10 11  1  0
 11 13  1  0
 12 11  2  0
 14 13  1  6
 14 15  1  0
 15  8  1  0
 16 14  1  0
 16 17  2  0
 19 18  1  6
 20 19  1  0
 21 19  1  0
 21 22  1  1
 22 16  1  0
 23 21  1  0
 24 23  1  0
 25 23  2  0
M  END
$$$$
