KNV.pdb
     RDKit          3D

 25 24  0  0  1  0  0  0  0  0999 V2000
    7.1141  -17.7889   20.0870 N   0  0  0  0  0  0  0  0  0  0  0  0
    8.0541  -16.8304   20.6443 C   0  0  1  0  0  0  0  0  0  0  0  0
    7.4961  -15.4569   20.3457 C   0  0  0  0  0  0  0  0  0  0  0  0
    8.2469  -14.9206   19.1361 C   0  0  0  0  0  0  0  0  0  0  0  0
    7.8179  -13.5059   18.8101 C   0  0  0  0  0  0  0  0  0  0  0  0
    8.5596  -13.0398   17.5983 C   0  0  0  0  0  0  0  0  0  0  0  0
    8.0110  -11.7308   17.2117 N   0  0  0  0  0  0  0  0  0  0  0  0
    8.2367  -17.0449   22.1055 C   0  0  0  0  0  0  0  0  0  0  0  0
    7.2292  -17.2141   22.8463 O   0  0  0  0  0  0  0  0  0  0  0  0
   11.1261  -19.1676   26.7551 N   0  0  0  0  0  0  0  0  0  0  0  0
   11.1953  -18.0280   25.9193 C   0  0  0  0  0  0  0  0  0  0  0  0
   11.5378  -16.8874   26.4030 O   0  0  0  0  0  0  0  0  0  0  0  0
   10.8959  -18.0238   24.4775 C   0  0  0  0  0  0  0  0  0  0  0  0
    9.6695  -17.2149   24.1977 C   0  0  2  0  0  0  0  0  0  0  0  0
    9.5042  -17.0708   22.7256 N   0  0  0  0  0  0  0  0  0  0  0  0
    9.6089  -15.8858   24.8108 C   0  0  0  0  0  0  0  0  0  0  0  0
   10.4073  -14.9722   24.3797 O   0  0  0  0  0  0  0  0  0  0  0  0
    7.6772  -11.8477   26.6400 C   0  0  0  0  0  0  0  0  0  0  0  0
    7.5847  -13.2432   26.0989 C   0  0  2  0  0  0  0  0  0  0  0  0
    6.2600  -13.9065   26.4612 C   0  0  0  0  0  0  0  0  0  0  0  0
    8.7604  -14.0900   26.3522 C   0  0  2  0  0  0  0  0  0  0  0  0
    8.7913  -15.4092   25.8349 N   0  0  0  0  0  0  0  0  0  0  0  0
    9.0260  -14.1262   27.8050 C   0  0  0  0  0  0  0  0  0  0  0  0
    9.2905  -12.9498   28.4758 O   0  0  0  0  0  0  0  0  0  0  0  0
    9.0244  -15.1908   28.4783 O   0  0  0  0  0  0  0  0  0  0  0  0
  2  3  1  0
  2  1  1  1
  4  3  1  0
  5  4  1  0
  6  5  1  0
  7  6  1  0
  8  9  2  0
  8  2  1  0
 10 11  1  0
 11 13  1  0
 12 11  2  0
 14 13  1  6
 14 15  1  0
 15  8  1  0
 16 14  1  0
 16 17  2  0
 19 18  1  1
 20 19  1  0
 21 19  1  0
 21 22  1  1
 22 16  1  0
 23 21  1  0
 24 23  1  0
 25 23  2  0
M  END
$$$$
