KNV.pdb
     RDKit          3D

 25 24  0  0  1  0  0  0  0  0999 V2000
    9.2201  -16.1959   19.7705 N   0  0  0  0  0  0  0  0  0  0  0  0
    8.6021  -14.9517   20.1982 C   0  0  1  0  0  0  0  0  0  0  0  0
    7.5775  -14.5955   19.1446 C   0  0  0  0  0  0  0  0  0  0  0  0
    8.2209  -14.8475   17.7892 C   0  0  0  0  0  0  0  0  0  0  0  0
    7.7929  -13.8044   16.7790 C   0  0  0  0  0  0  0  0  0  0  0  0
    8.4777  -14.0773   15.4782 C   0  0  0  0  0  0  0  0  0  0  0  0
    7.9671  -13.1140   14.4908 N   0  0  0  0  0  0  0  0  0  0  0  0
    7.9820  -15.0949   21.5434 C   0  0  0  0  0  0  0  0  0  0  0  0
    7.2529  -14.1718   22.0003 O   0  0  0  0  0  0  0  0  0  0  0  0
    5.6795  -19.1007   23.1328 N   0  0  0  0  0  0  0  0  0  0  0  0
    7.0401  -18.7131   23.1551 C   0  0  0  0  0  0  0  0  0  0  0  0
    7.8590  -19.1651   22.2734 O   0  0  0  0  0  0  0  0  0  0  0  0
    7.6371  -17.7975   24.1419 C   0  0  0  0  0  0  0  0  0  0  0  0
    7.5118  -16.3788   23.6857 C   0  0  2  0  0  0  0  0  0  0  0  0
    8.1674  -16.2326   22.3575 N   0  0  0  0  0  0  0  0  0  0  0  0
    8.0408  -15.3528   24.5875 C   0  0  0  0  0  0  0  0  0  0  0  0
    9.3164  -15.1896   24.6534 O   0  0  0  0  0  0  0  0  0  0  0  0
    6.0739  -12.5097   27.6120 C   0  0  0  0  0  0  0  0  0  0  0  0
    7.1645  -12.2816   26.6082 C   0  0  2  0  0  0  0  0  0  0  0  0
    6.6688  -11.4944   25.3997 C   0  0  0  0  0  0  0  0  0  0  0  0
    7.9490  -13.4751   26.2570 C   0  0  2  0  0  0  0  0  0  0  0  0
    7.3680  -14.4711   25.4328 N   0  0  0  0  0  0  0  0  0  0  0  0
    8.4601  -14.0991   27.4947 C   0  0  0  0  0  0  0  0  0  0  0  0
    9.2751  -13.3696   28.3358 O   0  0  0  0  0  0  0  0  0  0  0  0
    8.1881  -15.2820   27.8318 O   0  0  0  0  0  0  0  0  0  0  0  0
  2  3  1  0
  2  1  1  6
  4  3  1  0
  5  4  1  0
  6  5  1  0
  7  6  1  0
  8  9  2  0
  8  2  1  0
 10 11  1  0
 11 13  1  0
 12 11  2  0
 14 13  1  1
 14 15  1  0
 15  8  1  0
 16 14  1  0
 16 17  2  0
 19 18  1  6
 20 19  1  0
 21 19  1  0
 21 22  1  1
 22 16  1  0
 23 21  1  0
 24 23  1  0
 25 23  2  0
M  END
$$$$
