KNV.pdb
     RDKit          3D

 25 24  0  0  1  0  0  0  0  0999 V2000
    7.3157  -17.5560   19.2602 N   0  0  0  0  0  0  0  0  0  0  0  0
    8.1343  -16.6605   20.0607 C   0  0  1  0  0  0  0  0  0  0  0  0
    7.8096  -15.2562   19.6033 C   0  0  0  0  0  0  0  0  0  0  0  0
    8.2172  -15.1547   18.1411 C   0  0  0  0  0  0  0  0  0  0  0  0
    8.0713  -13.7370   17.6306 C   0  0  0  0  0  0  0  0  0  0  0  0
    8.5199  -13.6848   16.2052 C   0  0  0  0  0  0  0  0  0  0  0  0
    8.1839  -12.3537   15.6768 N   0  0  0  0  0  0  0  0  0  0  0  0
    7.8664  -16.8425   21.5131 C   0  0  0  0  0  0  0  0  0  0  0  0
    6.6930  -17.0838   21.9100 O   0  0  0  0  0  0  0  0  0  0  0  0
   10.4353  -18.0521   26.8776 N   0  0  0  0  0  0  0  0  0  0  0  0
    9.3223  -17.9413   26.0109 C   0  0  0  0  0  0  0  0  0  0  0  0
    8.1371  -17.8060   26.4896 O   0  0  0  0  0  0  0  0  0  0  0  0
    9.3962  -17.9694   24.5405 C   0  0  0  0  0  0  0  0  0  0  0  0
    8.5808  -16.8623   23.9520 C   0  0  2  0  0  0  0  0  0  0  0  0
    8.8749  -16.7587   22.4967 N   0  0  0  0  0  0  0  0  0  0  0  0
    8.7394  -15.5390   24.5599 C   0  0  0  0  0  0  0  0  0  0  0  0
    9.8334  -14.8929   24.3512 O   0  0  0  0  0  0  0  0  0  0  0  0
    7.3788  -11.1942   26.4681 C   0  0  0  0  0  0  0  0  0  0  0  0
    6.9930  -12.5643   25.9961 C   0  0  2  0  0  0  0  0  0  0  0  0
    5.7509  -13.0835   26.7130 C   0  0  0  0  0  0  0  0  0  0  0  0
    8.0942  -13.5376   25.9382 C   0  0  2  0  0  0  0  0  0  0  0  0
    7.8639  -14.8148   25.3684 N   0  0  0  0  0  0  0  0  0  0  0  0
    8.6678  -13.6996   27.2899 C   0  0  0  0  0  0  0  0  0  0  0  0
    9.1552  -12.5944   27.9569 O   0  0  0  0  0  0  0  0  0  0  0  0
    8.7380  -14.8109   27.8789 O   0  0  0  0  0  0  0  0  0  0  0  0
  2  3  1  0
  2  1  1  6
  4  3  1  0
  5  4  1  0
  6  5  1  0
  7  6  1  0
  8  9  2  0
  8  2  1  0
 10 11  1  0
 11 13  1  0
 12 11  2  0
 14 13  1  1
 14 15  1  0
 15  8  1  0
 16 14  1  0
 16 17  2  0
 19 18  1  1
 20 19  1  0
 21 19  1  0
 21 22  1  1
 22 16  1  0
 23 21  1  0
 24 23  1  0
 25 23  2  0
M  END
$$$$
