EES.pdb
     RDKit          3D

 25 24  0  0  1  0  0  0  0  0999 V2000
    9.5766  -15.0618   16.1731 N   0  0  0  0  0  0  0  0  0  0  0  0
   10.0008  -14.2968   17.3154 C   0  0  1  0  0  0  0  0  0  0  0  0
    8.8913  -14.2442   18.3121 C   0  0  0  0  0  0  0  0  0  0  0  0
    9.0271  -13.1908   19.3743 C   0  0  0  0  0  0  0  0  0  0  0  0
    7.9611  -13.2123   20.3675 C   0  0  0  0  0  0  0  0  0  0  0  0
    7.0427  -14.0601   20.3079 O   0  0  0  0  0  0  0  0  0  0  0  0
   11.1020  -15.0833   17.9995 C   0  0  0  0  0  0  0  0  0  0  0  0
   10.9520  -16.3285   18.0646 O   0  0  0  0  0  0  0  0  0  0  0  0
    7.9381  -12.2902   21.4014 O   0  0  0  0  0  0  0  0  0  0  0  0
   12.2228  -14.4274   18.5252 N   0  0  0  0  0  0  0  0  0  0  0  0
   13.2570  -15.1669   19.2238 C   0  0  1  0  0  0  0  0  0  0  0  0
   14.5555  -14.5660   18.7636 C   0  0  0  0  0  0  0  0  0  0  0  0
   14.9756  -14.9345   17.3672 C   0  0  0  0  0  0  0  0  0  0  0  0
   16.3347  -14.3207   17.1450 C   0  0  0  0  0  0  0  0  0  0  0  0
   17.2345  -14.4658   17.9947 O   0  0  0  0  0  0  0  0  0  0  0  0
   13.0215  -15.1195   20.6743 C   0  0  0  0  0  0  0  0  0  0  0  0
   13.1891  -14.0566   21.3659 O   0  0  0  0  0  0  0  0  0  0  0  0
   16.5899  -13.5959   16.0027 O   0  0  0  0  0  0  0  0  0  0  0  0
   10.4666  -17.5208   22.4953 O   0  0  0  0  0  0  0  0  0  0  0  0
   10.9098  -16.3839   23.1933 C   0  0  0  0  0  0  0  0  0  0  0  0
   12.3760  -16.1539   22.8720 C   0  0  2  0  0  0  0  0  0  0  0  0
   12.5826  -16.2503   21.4246 N   0  0  0  0  0  0  0  0  0  0  0  0
   13.1802  -17.1899   23.5390 C   0  0  0  0  0  0  0  0  0  0  0  0
   13.2602  -17.3372   24.9077 O   0  0  0  0  0  0  0  0  0  0  0  0
   13.8462  -18.0059   22.8496 O   0  0  0  0  0  0  0  0  0  0  0  0
  2  1  1  6
  3  2  1  0
  4  5  1  0
  4  3  1  0
  5  6  2  0
  7  2  1  0
  7 10  1  0
  8  7  2  0
  9  5  1  0
 10 11  1  0
 11 12  1  1
 13 14  1  0
 13 12  1  0
 14 15  2  0
 16 22  1  0
 16 11  1  0
 17 16  2  0
 18 14  1  0
 19 20  1  0
 21 20  1  6
 21 22  1  0
 23 21  1  0
 23 24  1  0
 25 23  2  0
M  END
$$$$
