EES.pdb
     RDKit          3D

 25 24  0  0  1  0  0  0  0  0999 V2000
   14.7611  -17.4491   17.0045 N   0  0  0  0  0  0  0  0  0  0  0  0
   13.3237  -17.4335   16.9447 C   0  0  1  0  0  0  0  0  0  0  0  0
   12.8583  -18.4992   16.0094 C   0  0  0  0  0  0  0  0  0  0  0  0
   13.9280  -19.1261   15.1614 C   0  0  0  0  0  0  0  0  0  0  0  0
   13.4371  -20.1609   14.2607 C   0  0  0  0  0  0  0  0  0  0  0  0
   13.2318  -21.3257   14.6691 O   0  0  0  0  0  0  0  0  0  0  0  0
   12.8124  -17.8603   18.3070 C   0  0  0  0  0  0  0  0  0  0  0  0
   11.5676  -17.9638   18.4378 O   0  0  0  0  0  0  0  0  0  0  0  0
   13.1887  -19.8789   12.9270 O   0  0  0  0  0  0  0  0  0  0  0  0
   13.7076  -18.1207   19.3527 N   0  0  0  0  0  0  0  0  0  0  0  0
   13.2262  -18.5290   20.6589 C   0  0  1  0  0  0  0  0  0  0  0  0
   14.3200  -19.3824   21.2370 C   0  0  0  0  0  0  0  0  0  0  0  0
   14.0678  -19.8961   22.6280 C   0  0  0  0  0  0  0  0  0  0  0  0
   15.2680  -20.7245   23.0106 C   0  0  0  0  0  0  0  0  0  0  0  0
   15.3114  -21.2901   24.1202 O   0  0  0  0  0  0  0  0  0  0  0  0
   12.8620  -17.3485   21.4561 C   0  0  0  0  0  0  0  0  0  0  0  0
   13.6520  -16.3557   21.6188 O   0  0  0  0  0  0  0  0  0  0  0  0
   16.3235  -20.8608   22.1374 O   0  0  0  0  0  0  0  0  0  0  0  0
    9.0059  -16.4997   22.6282 O   0  0  0  0  0  0  0  0  0  0  0  0
    9.9650  -15.4723   22.5988 C   0  0  0  0  0  0  0  0  0  0  0  0
   11.3187  -16.0570   22.9615 C   0  0  2  0  0  0  0  0  0  0  0  0
   11.5997  -17.2128   22.1059 N   0  0  0  0  0  0  0  0  0  0  0  0
   11.2889  -16.4980   24.3649 C   0  0  0  0  0  0  0  0  0  0  0  0
   11.2108  -15.6367   25.4391 O   0  0  0  0  0  0  0  0  0  0  0  0
   11.3356  -17.7263   24.6364 O   0  0  0  0  0  0  0  0  0  0  0  0
  2  1  1  1
  3  2  1  0
  4  5  1  0
  4  3  1  0
  5  6  2  0
  7  2  1  0
  7 10  1  0
  8  7  2  0
  9  5  1  0
 10 11  1  0
 11 12  1  1
 13 14  1  0
 13 12  1  0
 14 15  2  0
 16 22  1  0
 16 11  1  0
 17 16  2  0
 18 14  1  0
 19 20  1  0
 21 20  1  6
 21 22  1  0
 23 21  1  0
 23 24  1  0
 25 23  2  0
M  END
$$$$
