EES.pdb
     RDKit          3D

 25 24  0  0  1  0  0  0  0  0999 V2000
    7.9903  -17.7316   18.1282 N   0  0  0  0  0  0  0  0  0  0  0  0
    9.1999  -18.3904   18.5439 C   0  0  1  0  0  0  0  0  0  0  0  0
   10.0116  -18.7348   17.3399 C   0  0  0  0  0  0  0  0  0  0  0  0
    9.2458  -18.8321   16.0513 C   0  0  0  0  0  0  0  0  0  0  0  0
   10.0720  -19.1582   14.8962 C   0  0  0  0  0  0  0  0  0  0  0  0
   10.5479  -18.2571   14.1701 O   0  0  0  0  0  0  0  0  0  0  0  0
   10.0321  -17.3697   19.2957 C   0  0  0  0  0  0  0  0  0  0  0  0
   10.0171  -16.1930   18.8571 O   0  0  0  0  0  0  0  0  0  0  0  0
   10.3476  -20.4770   14.5727 O   0  0  0  0  0  0  0  0  0  0  0  0
   10.7732  -17.7480   20.4228 N   0  0  0  0  0  0  0  0  0  0  0  0
   11.5305  -16.7677   21.1777 C   0  0  1  0  0  0  0  0  0  0  0  0
   11.2954  -17.1098   22.6223 C   0  0  0  0  0  0  0  0  0  0  0  0
   11.9256  -18.3928   23.0902 C   0  0  0  0  0  0  0  0  0  0  0  0
   11.5876  -18.5362   24.5525 C   0  0  0  0  0  0  0  0  0  0  0  0
   12.2505  -17.9242   25.4120 O   0  0  0  0  0  0  0  0  0  0  0  0
   12.9374  -16.7761   20.7506 C   0  0  0  0  0  0  0  0  0  0  0  0
   13.5452  -17.8455   20.3999 O   0  0  0  0  0  0  0  0  0  0  0  0
   10.5452  -19.3441   24.9474 O   0  0  0  0  0  0  0  0  0  0  0  0
   14.7438  -13.6214   19.1469 O   0  0  0  0  0  0  0  0  0  0  0  0
   15.3576  -14.8792   19.0151 C   0  0  0  0  0  0  0  0  0  0  0  0
   15.1449  -15.6636   20.2979 C   0  0  2  0  0  0  0  0  0  0  0  0
   13.7341  -15.5949   20.6874 N   0  0  0  0  0  0  0  0  0  0  0  0
   15.9643  -15.0673   21.3646 C   0  0  0  0  0  0  0  0  0  0  0  0
   15.4535  -14.6130   22.5623 O   0  0  0  0  0  0  0  0  0  0  0  0
   17.2078  -14.9500   21.2075 O   0  0  0  0  0  0  0  0  0  0  0  0
  2  1  1  6
  3  2  1  0
  4  5  1  0
  4  3  1  0
  5  6  2  0
  7  2  1  0
  7 10  1  0
  8  7  2  0
  9  5  1  0
 10 11  1  0
 11 12  1  1
 13 14  1  0
 13 12  1  0
 14 15  2  0
 16 22  1  0
 16 11  1  0
 17 16  2  0
 18 14  1  0
 19 20  1  0
 21 20  1  6
 21 22  1  0
 23 21  1  0
 23 24  1  0
 25 23  2  0
M  END
$$$$
