EES.pdb
     RDKit          3D

 25 24  0  0  1  0  0  0  0  0999 V2000
    8.3491  -20.3603   21.6606 N   0  0  0  0  0  0  0  0  0  0  0  0
    9.6393  -19.8816   22.0802 C   0  0  1  0  0  0  0  0  0  0  0  0
   10.0837  -18.7937   21.1604 C   0  0  0  0  0  0  0  0  0  0  0  0
    9.9804  -19.1051   19.6945 C   0  0  0  0  0  0  0  0  0  0  0  0
   10.3477  -17.9936   18.8270 C   0  0  0  0  0  0  0  0  0  0  0  0
   10.7855  -16.9225   19.3034 O   0  0  0  0  0  0  0  0  0  0  0  0
    9.4522  -19.2037   23.4236 C   0  0  0  0  0  0  0  0  0  0  0  0
    8.4477  -18.4602   23.5477 O   0  0  0  0  0  0  0  0  0  0  0  0
   10.2174  -18.0962   17.4514 O   0  0  0  0  0  0  0  0  0  0  0  0
   10.3710  -19.4139   24.4601 N   0  0  0  0  0  0  0  0  0  0  0  0
   10.2074  -18.7568   25.7430 C   0  0  1  0  0  0  0  0  0  0  0  0
   11.1135  -19.4962   26.6871 C   0  0  0  0  0  0  0  0  0  0  0  0
   11.1467  -18.9661   28.0943 C   0  0  0  0  0  0  0  0  0  0  0  0
   12.1317  -19.8158   28.8566 C   0  0  0  0  0  0  0  0  0  0  0  0
   12.2789  -19.6564   30.0837 O   0  0  0  0  0  0  0  0  0  0  0  0
   10.4756  -17.3170   25.6124 C   0  0  0  0  0  0  0  0  0  0  0  0
   10.8133  -16.7762   24.5036 O   0  0  0  0  0  0  0  0  0  0  0  0
   12.8747  -20.7722   28.2022 O   0  0  0  0  0  0  0  0  0  0  0  0
    8.7500  -14.3578   24.5850 O   0  0  0  0  0  0  0  0  0  0  0  0
    8.6411  -14.9123   25.8722 C   0  0  0  0  0  0  0  0  0  0  0  0
   10.0278  -15.0028   26.4843 C   0  0  2  0  0  0  0  0  0  0  0  0
   10.3753  -16.4087   26.7074 N   0  0  0  0  0  0  0  0  0  0  0  0
   10.0268  -14.3004   27.7771 C   0  0  0  0  0  0  0  0  0  0  0  0
    9.9265  -12.9312   27.9071 O   0  0  0  0  0  0  0  0  0  0  0  0
   10.1213  -14.9574   28.8467 O   0  0  0  0  0  0  0  0  0  0  0  0
  2  1  1  6
  3  2  1  0
  4  5  1  0
  4  3  1  0
  5  6  2  0
  7  2  1  0
  7 10  1  0
  8  7  2  0
  9  5  1  0
 10 11  1  0
 11 12  1  1
 13 14  1  0
 13 12  1  0
 14 15  2  0
 16 22  1  0
 16 11  1  0
 17 16  2  0
 18 14  1  0
 19 20  1  0
 21 20  1  1
 21 22  1  0
 23 21  1  0
 23 24  1  0
 25 23  2  0
M  END
$$$$
