EES.pdb
     RDKit          3D

 25 24  0  0  1  0  0  0  0  0999 V2000
    8.4719  -14.7949   16.8723 N   0  0  0  0  0  0  0  0  0  0  0  0
    9.3724  -13.9509   17.6117 C   0  0  1  0  0  0  0  0  0  0  0  0
    8.6182  -13.2584   18.6974 C   0  0  0  0  0  0  0  0  0  0  0  0
    7.9299  -14.1602   19.6819 C   0  0  0  0  0  0  0  0  0  0  0  0
    7.3921  -13.4651   20.8442 C   0  0  0  0  0  0  0  0  0  0  0  0
    7.4675  -12.2199   20.9414 O   0  0  0  0  0  0  0  0  0  0  0  0
   10.3488  -14.8590   18.3338 C   0  0  0  0  0  0  0  0  0  0  0  0
    9.9820  -16.0443   18.5284 O   0  0  0  0  0  0  0  0  0  0  0  0
    6.7863  -14.1691   21.8723 O   0  0  0  0  0  0  0  0  0  0  0  0
   11.5943  -14.3735   18.7531 N   0  0  0  0  0  0  0  0  0  0  0  0
   12.5182  -15.2251   19.4781 C   0  0  1  0  0  0  0  0  0  0  0  0
   13.8675  -14.5861   19.3051 C   0  0  0  0  0  0  0  0  0  0  0  0
   14.5721  -14.9098   18.0163 C   0  0  0  0  0  0  0  0  0  0  0  0
   15.8940  -14.1855   18.0488 C   0  0  0  0  0  0  0  0  0  0  0  0
   16.2648  -13.5133   17.0672 O   0  0  0  0  0  0  0  0  0  0  0  0
   12.0727  -15.3862   20.8700 C   0  0  0  0  0  0  0  0  0  0  0  0
   11.0978  -14.7213   21.3634 O   0  0  0  0  0  0  0  0  0  0  0  0
   16.6998  -14.2624   19.1623 O   0  0  0  0  0  0  0  0  0  0  0  0
    9.6829  -16.3367   23.2138 O   0  0  0  0  0  0  0  0  0  0  0  0
   10.6640  -17.2379   22.7648 C   0  0  0  0  0  0  0  0  0  0  0  0
   12.0347  -16.6470   23.0437 C   0  0  2  0  0  0  0  0  0  0  0  0
   12.6861  -16.2988   21.7782 N   0  0  0  0  0  0  0  0  0  0  0  0
   12.8545  -17.6491   23.7427 C   0  0  0  0  0  0  0  0  0  0  0  0
   12.7430  -17.9293   25.0883 O   0  0  0  0  0  0  0  0  0  0  0  0
   13.7175  -18.3072   23.1049 O   0  0  0  0  0  0  0  0  0  0  0  0
  2  1  1  6
  3  2  1  0
  4  5  1  0
  4  3  1  0
  5  6  2  0
  7  2  1  0
  7 10  1  0
  8  7  2  0
  9  5  1  0
 10 11  1  0
 11 12  1  1
 13 14  1  0
 13 12  1  0
 14 15  2  0
 16 22  1  0
 16 11  1  0
 17 16  2  0
 18 14  1  0
 19 20  1  0
 21 20  1  6
 21 22  1  0
 23 21  1  0
 23 24  1  0
 25 23  2  0
M  END
$$$$
