EES.pdb
     RDKit          3D

 25 24  0  0  1  0  0  0  0  0999 V2000
   15.1024  -19.8535   17.2836 N   0  0  0  0  0  0  0  0  0  0  0  0
   15.7456  -19.4250   18.4971 C   0  0  1  0  0  0  0  0  0  0  0  0
   16.1676  -18.0007   18.3541 C   0  0  0  0  0  0  0  0  0  0  0  0
   17.3519  -17.7649   17.4607 C   0  0  0  0  0  0  0  0  0  0  0  0
   17.7456  -16.3657   17.3586 C   0  0  0  0  0  0  0  0  0  0  0  0
   17.9684  -15.6832   18.3833 O   0  0  0  0  0  0  0  0  0  0  0  0
   14.6893  -19.4109   19.5850 C   0  0  0  0  0  0  0  0  0  0  0  0
   13.4916  -19.3572   19.2108 O   0  0  0  0  0  0  0  0  0  0  0  0
   17.8795  -15.7566   16.1213 O   0  0  0  0  0  0  0  0  0  0  0  0
   15.0590  -19.4565   20.9355 N   0  0  0  0  0  0  0  0  0  0  0  0
   14.0536  -19.4811   21.9810 C   0  0  1  0  0  0  0  0  0  0  0  0
   14.7564  -20.0182   23.1962 C   0  0  0  0  0  0  0  0  0  0  0  0
   13.9114  -20.1172   24.4365 C   0  0  0  0  0  0  0  0  0  0  0  0
   14.7897  -20.6959   25.5168 C   0  0  0  0  0  0  0  0  0  0  0  0
   14.3018  -21.4381   26.3908 O   0  0  0  0  0  0  0  0  0  0  0  0
   13.4546  -18.1477   22.1391 C   0  0  0  0  0  0  0  0  0  0  0  0
   14.1290  -17.0688   22.0080 O   0  0  0  0  0  0  0  0  0  0  0  0
   16.1356  -20.4077   25.5448 O   0  0  0  0  0  0  0  0  0  0  0  0
    9.6958  -15.2150   21.9289 O   0  0  0  0  0  0  0  0  0  0  0  0
   10.2456  -16.4965   21.7501 C   0  0  0  0  0  0  0  0  0  0  0  0
   11.5222  -16.5987   22.5662 C   0  0  2  0  0  0  0  0  0  0  0  0
   12.0757  -17.9500   22.4449 N   0  0  0  0  0  0  0  0  0  0  0  0
   11.2087  -16.3363   23.9796 C   0  0  0  0  0  0  0  0  0  0  0  0
   10.8395  -15.1006   24.4677 O   0  0  0  0  0  0  0  0  0  0  0  0
   11.2712  -17.2724   24.8189 O   0  0  0  0  0  0  0  0  0  0  0  0
  2  1  1  6
  3  2  1  0
  4  5  1  0
  4  3  1  0
  5  6  2  0
  7  2  1  0
  7 10  1  0
  8  7  2  0
  9  5  1  0
 10 11  1  0
 11 12  1  1
 13 14  1  0
 13 12  1  0
 14 15  2  0
 16 22  1  0
 16 11  1  0
 17 16  2  0
 18 14  1  0
 19 20  1  0
 21 20  1  6
 21 22  1  0
 23 21  1  0
 23 24  1  0
 25 23  2  0
M  END
$$$$
