EES.pdb
     RDKit          3D

 25 24  0  0  1  0  0  0  0  0999 V2000
    9.8710  -15.5810   19.8578 N   0  0  0  0  0  0  0  0  0  0  0  0
    9.4182  -16.8300   20.4101 C   0  0  1  0  0  0  0  0  0  0  0  0
    9.3330  -17.8474   19.3217 C   0  0  0  0  0  0  0  0  0  0  0  0
   10.3975  -17.7542   18.2660 C   0  0  0  0  0  0  0  0  0  0  0  0
   10.2665  -18.7451   17.2057 C   0  0  0  0  0  0  0  0  0  0  0  0
   10.7175  -19.9036   17.3480 O   0  0  0  0  0  0  0  0  0  0  0  0
   10.5106  -17.3362   21.3319 C   0  0  0  0  0  0  0  0  0  0  0  0
   10.2879  -18.4151   21.9350 O   0  0  0  0  0  0  0  0  0  0  0  0
    9.6408  -18.4255   16.0115 O   0  0  0  0  0  0  0  0  0  0  0  0
   11.7020  -16.6152   21.4854 N   0  0  0  0  0  0  0  0  0  0  0  0
   12.7095  -17.0388   22.4393 C   0  0  1  0  0  0  0  0  0  0  0  0
   13.9790  -16.3624   22.0038 C   0  0  0  0  0  0  0  0  0  0  0  0
   15.1616  -16.5695   22.9099 C   0  0  0  0  0  0  0  0  0  0  0  0
   16.3405  -15.9039   22.2463 C   0  0  0  0  0  0  0  0  0  0  0  0
   16.8150  -14.8531   22.7189 O   0  0  0  0  0  0  0  0  0  0  0  0
   12.2712  -16.7315   23.8088 C   0  0  0  0  0  0  0  0  0  0  0  0
   11.8050  -15.5884   24.1435 O   0  0  0  0  0  0  0  0  0  0  0  0
   16.8997  -16.4523   21.1141 O   0  0  0  0  0  0  0  0  0  0  0  0
    9.5744  -18.3836   25.8697 O   0  0  0  0  0  0  0  0  0  0  0  0
   10.2264  -17.1438   25.9885 C   0  0  0  0  0  0  0  0  0  0  0  0
   11.7140  -17.3893   26.1695 C   0  0  2  0  0  0  0  0  0  0  0  0
   12.3251  -17.6824   24.8704 N   0  0  0  0  0  0  0  0  0  0  0  0
   11.9032  -18.5467   27.0580 C   0  0  0  0  0  0  0  0  0  0  0  0
   11.4988  -18.5773   28.3760 O   0  0  0  0  0  0  0  0  0  0  0  0
   12.4633  -19.5861   26.6215 O   0  0  0  0  0  0  0  0  0  0  0  0
  2  1  1  6
  3  2  1  0
  4  5  1  0
  4  3  1  0
  5  6  2  0
  7  2  1  0
  7 10  1  0
  8  7  2  0
  9  5  1  0
 10 11  1  0
 11 12  1  6
 13 14  1  0
 13 12  1  0
 14 15  2  0
 16 22  1  0
 16 11  1  0
 17 16  2  0
 18 14  1  0
 19 20  1  0
 21 20  1  6
 21 22  1  0
 23 21  1  0
 23 24  1  0
 25 23  2  0
M  END
$$$$
