EES.pdb
     RDKit          3D

 25 24  0  0  1  0  0  0  0  0999 V2000
   13.4231  -20.7910   16.3528 N   0  0  0  0  0  0  0  0  0  0  0  0
   13.5307  -19.4028   16.7152 C   0  0  1  0  0  0  0  0  0  0  0  0
   12.2462  -18.7111   16.4009 C   0  0  0  0  0  0  0  0  0  0  0  0
   11.4401  -19.3202   15.2894 C   0  0  0  0  0  0  0  0  0  0  0  0
   10.2820  -18.5279   14.8967 C   0  0  0  0  0  0  0  0  0  0  0  0
    9.4099  -18.9976   14.1321 O   0  0  0  0  0  0  0  0  0  0  0  0
   13.6474  -19.3403   18.2258 C   0  0  0  0  0  0  0  0  0  0  0  0
   12.6780  -19.7868   18.8876 O   0  0  0  0  0  0  0  0  0  0  0  0
   10.1210  -17.2319   15.3595 O   0  0  0  0  0  0  0  0  0  0  0  0
   14.7930  -18.8048   18.8288 N   0  0  0  0  0  0  0  0  0  0  0  0
   14.9037  -18.7234   20.2729 C   0  0  1  0  0  0  0  0  0  0  0  0
   16.3696  -18.8746   20.5686 C   0  0  0  0  0  0  0  0  0  0  0  0
   16.9822  -20.1779   20.1346 C   0  0  0  0  0  0  0  0  0  0  0  0
   18.4292  -20.1408   20.5565 C   0  0  0  0  0  0  0  0  0  0  0  0
   19.2229  -21.0117   20.1510 O   0  0  0  0  0  0  0  0  0  0  0  0
   14.2895  -17.4790   20.7587 C   0  0  0  0  0  0  0  0  0  0  0  0
   14.4846  -16.3477   20.1946 O   0  0  0  0  0  0  0  0  0  0  0  0
   18.8826  -19.1455   21.3925 O   0  0  0  0  0  0  0  0  0  0  0  0
   11.1282  -17.3473   23.3048 O   0  0  0  0  0  0  0  0  0  0  0  0
   11.4972  -16.1534   22.6608 C   0  0  0  0  0  0  0  0  0  0  0  0
   13.0024  -16.1512   22.4606 C   0  0  2  0  0  0  0  0  0  0  0  0
   13.4242  -17.4338   21.8915 N   0  0  0  0  0  0  0  0  0  0  0  0
   13.6583  -15.9690   23.7650 C   0  0  0  0  0  0  0  0  0  0  0  0
   13.5591  -14.8196   24.5206 O   0  0  0  0  0  0  0  0  0  0  0  0
   14.3582  -16.8967   24.2489 O   0  0  0  0  0  0  0  0  0  0  0  0
  2  1  1  1
  3  2  1  0
  4  5  1  0
  4  3  1  0
  5  6  2  0
  7  2  1  0
  7 10  1  0
  8  7  2  0
  9  5  1  0
 10 11  1  0
 11 12  1  6
 13 14  1  0
 13 12  1  0
 14 15  2  0
 16 22  1  0
 16 11  1  0
 17 16  2  0
 18 14  1  0
 19 20  1  0
 21 20  1  1
 21 22  1  0
 23 21  1  0
 23 24  1  0
 25 23  2  0
M  END
$$$$
