EES.pdb
     RDKit          3D

 25 24  0  0  1  0  0  0  0  0999 V2000
    9.0877  -22.3814   14.3751 N   0  0  0  0  0  0  0  0  0  0  0  0
    8.2352  -21.3988   14.9895 C   0  0  1  0  0  0  0  0  0  0  0  0
    7.7861  -20.4211   13.9552 C   0  0  0  0  0  0  0  0  0  0  0  0
    6.8652  -19.3402   14.4452 C   0  0  0  0  0  0  0  0  0  0  0  0
    6.3871  -18.4505   13.3950 C   0  0  0  0  0  0  0  0  0  0  0  0
    6.7816  -18.5776   12.2144 O   0  0  0  0  0  0  0  0  0  0  0  0
    6.9703  -22.1115   15.4271 C   0  0  0  0  0  0  0  0  0  0  0  0
    6.4396  -22.8863   14.5933 O   0  0  0  0  0  0  0  0  0  0  0  0
    5.4847  -17.4387   13.6810 O   0  0  0  0  0  0  0  0  0  0  0  0
    6.4402  -21.8979   16.7061 N   0  0  0  0  0  0  0  0  0  0  0  0
    5.2474  -22.5985   17.1428 C   0  0  1  0  0  0  0  0  0  0  0  0
    5.5829  -23.1465   18.5016 C   0  0  0  0  0  0  0  0  0  0  0  0
    5.6936  -24.6443   18.5817 C   0  0  0  0  0  0  0  0  0  0  0  0
    6.0713  -24.9777   20.0028 C   0  0  0  0  0  0  0  0  0  0  0  0
    5.2965  -24.7010   20.9387 O   0  0  0  0  0  0  0  0  0  0  0  0
    4.0859  -21.6981   17.0973 C   0  0  0  0  0  0  0  0  0  0  0  0
    4.1352  -20.5351   16.5674 O   0  0  0  0  0  0  0  0  0  0  0  0
    7.2743  -25.5890   20.2754 O   0  0  0  0  0  0  0  0  0  0  0  0
    0.2037  -20.1286   15.9298 O   0  0  0  0  0  0  0  0  0  0  0  0
    1.3684  -20.9088   16.0348 C   0  0  0  0  0  0  0  0  0  0  0  0
    1.6688  -21.1430   17.5047 C   0  0  2  0  0  0  0  0  0  0  0  0
    2.8122  -22.0503   17.6339 N   0  0  0  0  0  0  0  0  0  0  0  0
    0.4947  -21.7612   18.1404 C   0  0  0  0  0  0  0  0  0  0  0  0
    0.5152  -22.9952   18.7557 O   0  0  0  0  0  0  0  0  0  0  0  0
   -0.6087  -21.1554   18.1407 O   0  0  0  0  0  0  0  0  0  0  0  0
  2  1  1  6
  3  2  1  0
  4  5  1  0
  4  3  1  0
  5  6  2  0
  7  2  1  0
  7 10  1  0
  8  7  2  0
  9  5  1  0
 10 11  1  0
 11 12  1  1
 13 14  1  0
 13 12  1  0
 14 15  2  0
 16 22  1  0
 16 11  1  0
 17 16  2  0
 18 14  1  0
 19 20  1  0
 21 20  1  6
 21 22  1  0
 23 21  1  0
 23 24  1  0
 25 23  2  0
M  END
$$$$
