EES.pdb
     RDKit          3D

 25 24  0  0  1  0  0  0  0  0999 V2000
    9.4675  -12.7434   17.4161 N   0  0  0  0  0  0  0  0  0  0  0  0
    8.3145  -13.4693   17.8782 C   0  0  1  0  0  0  0  0  0  0  0  0
    7.6598  -14.1432   16.7187 C   0  0  0  0  0  0  0  0  0  0  0  0
    8.5954  -14.7422   15.7076 C   0  0  0  0  0  0  0  0  0  0  0  0
    7.9216  -15.3759   14.5818 C   0  0  0  0  0  0  0  0  0  0  0  0
    8.5730  -15.9634   13.6895 O   0  0  0  0  0  0  0  0  0  0  0  0
    8.8168  -14.6010   18.7536 C   0  0  0  0  0  0  0  0  0  0  0  0
    7.9498  -15.3683   19.2402 O   0  0  0  0  0  0  0  0  0  0  0  0
    6.5409  -15.3398   14.4716 O   0  0  0  0  0  0  0  0  0  0  0  0
   10.1881  -14.7604   18.9921 N   0  0  0  0  0  0  0  0  0  0  0  0
   10.6778  -15.8515   19.8132 C   0  0  1  0  0  0  0  0  0  0  0  0
   12.0022  -16.2358   19.2154 C   0  0  0  0  0  0  0  0  0  0  0  0
   12.7193  -17.3607   19.9100 C   0  0  0  0  0  0  0  0  0  0  0  0
   14.0117  -17.5792   19.1650 C   0  0  0  0  0  0  0  0  0  0  0  0
   15.0836  -17.6948   19.7899 O   0  0  0  0  0  0  0  0  0  0  0  0
   10.7201  -15.4434   21.2251 C   0  0  0  0  0  0  0  0  0  0  0  0
   11.6520  -14.7091   21.7031 O   0  0  0  0  0  0  0  0  0  0  0  0
   14.0161  -17.6517   17.7903 O   0  0  0  0  0  0  0  0  0  0  0  0
    7.4165  -15.5052   23.5657 O   0  0  0  0  0  0  0  0  0  0  0  0
    8.4878  -14.6684   23.9241 C   0  0  0  0  0  0  0  0  0  0  0  0
    9.7903  -15.3580   23.5584 C   0  0  2  0  0  0  0  0  0  0  0  0
    9.7250  -15.8274   22.1719 N   0  0  0  0  0  0  0  0  0  0  0  0
    9.9842  -16.5156   24.4456 C   0  0  0  0  0  0  0  0  0  0  0  0
   10.0395  -17.8209   24.0041 O   0  0  0  0  0  0  0  0  0  0  0  0
   10.1106  -16.3398   25.6857 O   0  0  0  0  0  0  0  0  0  0  0  0
  2  1  1  6
  3  2  1  0
  4  5  1  0
  4  3  1  0
  5  6  2  0
  7  2  1  0
  7 10  1  0
  8  7  2  0
  9  5  1  0
 10 11  1  0
 11 12  1  6
 13 14  1  0
 13 12  1  0
 14 15  2  0
 16 22  1  0
 16 11  1  0
 17 16  2  0
 18 14  1  0
 19 20  1  0
 21 20  1  1
 21 22  1  0
 23 21  1  0
 23 24  1  0
 25 23  2  0
M  END
$$$$
