EES.pdb
     RDKit          3D

 25 24  0  0  1  0  0  0  0  0999 V2000
   10.6757  -17.8926   17.4071 N   0  0  0  0  0  0  0  0  0  0  0  0
    9.5653  -17.1824   17.9838 C   0  0  1  0  0  0  0  0  0  0  0  0
    8.2909  -17.7334   17.4365 C   0  0  0  0  0  0  0  0  0  0  0  0
    8.3725  -18.2858   16.0421 C   0  0  0  0  0  0  0  0  0  0  0  0
    7.1343  -18.8953   15.5746 C   0  0  0  0  0  0  0  0  0  0  0  0
    7.0493  -19.3788   14.4237 O   0  0  0  0  0  0  0  0  0  0  0  0
    9.5334  -17.5214   19.4614 C   0  0  0  0  0  0  0  0  0  0  0  0
    8.5465  -17.1047   20.1169 O   0  0  0  0  0  0  0  0  0  0  0  0
    6.0190  -18.9508   16.3948 O   0  0  0  0  0  0  0  0  0  0  0  0
   10.5685  -18.2655   20.0426 N   0  0  0  0  0  0  0  0  0  0  0  0
   10.6067  -18.4932   21.4748 C   0  0  1  0  0  0  0  0  0  0  0  0
   11.6457  -19.5596   21.6804 C   0  0  0  0  0  0  0  0  0  0  0  0
   11.9349  -19.9076   23.1148 C   0  0  0  0  0  0  0  0  0  0  0  0
   12.9545  -21.0182   23.0964 C   0  0  0  0  0  0  0  0  0  0  0  0
   12.7983  -22.0002   22.3454 O   0  0  0  0  0  0  0  0  0  0  0  0
   10.8555  -17.2284   22.1822 C   0  0  0  0  0  0  0  0  0  0  0  0
   11.7918  -16.4238   21.8478 O   0  0  0  0  0  0  0  0  0  0  0  0
   14.0638  -20.9547   23.9092 O   0  0  0  0  0  0  0  0  0  0  0  0
    8.0897  -15.2169   24.4525 O   0  0  0  0  0  0  0  0  0  0  0  0
    9.2296  -14.5935   23.9157 C   0  0  0  0  0  0  0  0  0  0  0  0
   10.4002  -15.5569   24.0028 C   0  0  2  0  0  0  0  0  0  0  0  0
   10.0712  -16.7951   23.2918 N   0  0  0  0  0  0  0  0  0  0  0  0
   10.6561  -15.8721   25.4170 C   0  0  0  0  0  0  0  0  0  0  0  0
   11.1195  -14.9549   26.3366 O   0  0  0  0  0  0  0  0  0  0  0  0
   10.4504  -17.0376   25.8458 O   0  0  0  0  0  0  0  0  0  0  0  0
  2  1  1  6
  3  2  1  0
  4  5  1  0
  4  3  1  0
  5  6  2  0
  7  2  1  0
  7 10  1  0
  8  7  2  0
  9  5  1  0
 10 11  1  0
 11 12  1  6
 13 14  1  0
 13 12  1  0
 14 15  2  0
 16 22  1  0
 16 11  1  0
 17 16  2  0
 18 14  1  0
 19 20  1  0
 21 20  1  1
 21 22  1  0
 23 21  1  0
 23 24  1  0
 25 23  2  0
M  END
$$$$
