TSI.pdb
     RDKit          3D

 22 21  0  0  1  0  0  0  0  0999 V2000
   26.6122  -24.8143  -17.6381 C   0  0  0  0  0  0  0  0  0  0  0  0
   28.0322  -25.1690  -17.2598 C   0  0  1  0  0  0  0  0  0  0  0  0
   28.5531  -26.0743  -18.1533 O   0  0  0  0  0  0  0  0  0  0  0  0
   28.9207  -23.9514  -17.1823 C   0  0  2  0  0  0  0  0  0  0  0  0
   30.2286  -24.3410  -16.6348 N   0  0  0  0  0  0  0  0  0  0  0  0
   28.3935  -22.8701  -16.3503 C   0  0  0  0  0  0  0  0  0  0  0  0
   28.5026  -22.9040  -15.0939 O   0  0  0  0  0  0  0  0  0  0  0  0
   26.1707  -18.5013  -16.2695 O   0  0  0  0  0  0  0  0  0  0  0  0
   26.7487  -19.5487  -16.9391 C   0  0  0  0  0  0  0  0  0  0  0  0
   27.1789  -20.6854  -16.0229 C   0  0  2  0  0  0  0  0  0  0  0  0
   27.7288  -21.7145  -16.8681 N   0  0  0  0  0  0  0  0  0  0  0  0
   26.0602  -21.1830  -15.1887 C   0  0  0  0  0  0  0  0  0  0  0  0
   25.3025  -22.0468  -15.7007 O   0  0  0  0  0  0  0  0  0  0  0  0
   25.4049  -20.4297   -9.5086 C   0  0  0  0  0  0  0  0  0  0  0  0
   25.1923  -20.1362  -10.9771 C   0  0  0  0  0  0  0  0  0  0  0  0
   24.9132  -21.4181  -11.6850 C   0  0  2  0  0  0  0  0  0  0  0  0
   26.1374  -22.3116  -11.4992 C   0  0  0  0  0  0  0  0  0  0  0  0
   24.6962  -21.2616  -13.1620 C   0  0  2  0  0  0  0  0  0  0  0  0
   25.8152  -20.7346  -13.8667 N   0  0  0  0  0  0  0  0  0  0  0  0
   23.5641  -20.2802  -13.3238 C   0  0  0  0  0  0  0  0  0  0  0  0
   23.7467  -19.1436  -13.7892 O   0  0  0  0  0  0  0  0  0  0  0  0
   22.2594  -20.6180  -12.9529 O   0  0  0  0  0  0  0  0  0  0  0  0
  2  1  1  6
  2  3  1  0
  2  4  1  0
  4  5  1  1
  6  4  1  0
  6 11  1  0
  7  6  2  0
  8  9  1  0
 10 11  1  0
 10  9  1  6
 10 12  1  0
 12 13  2  0
 12 19  1  0
 15 14  1  0
 16 17  1  6
 16 15  1  0
 18 16  1  0
 18 19  1  6
 20 22  1  0
 20 18  1  0
 21 20  2  0
M  END
$$$$
