TSI.pdb
     RDKit          3D

 22 21  0  0  1  0  0  0  0  0999 V2000
   27.0260  -18.5005  -15.5412 C   0  0  0  0  0  0  0  0  0  0  0  0
   27.5591  -19.6784  -16.3245 C   0  0  1  0  0  0  0  0  0  0  0  0
   28.6056  -19.2863  -17.1247 O   0  0  0  0  0  0  0  0  0  0  0  0
   27.9938  -20.8095  -15.4246 C   0  0  2  0  0  0  0  0  0  0  0  0
   28.3683  -21.9675  -16.2496 N   0  0  0  0  0  0  0  0  0  0  0  0
   26.9745  -21.2510  -14.4730 C   0  0  0  0  0  0  0  0  0  0  0  0
   26.0020  -21.9629  -14.8456 O   0  0  0  0  0  0  0  0  0  0  0  0
   25.3982  -21.0723   -9.8334 O   0  0  0  0  0  0  0  0  0  0  0  0
   26.3809  -20.9426  -10.7806 C   0  0  0  0  0  0  0  0  0  0  0  0
   25.9041  -21.2599  -12.1907 C   0  0  2  0  0  0  0  0  0  0  0  0
   26.9873  -20.9269  -13.0802 N   0  0  0  0  0  0  0  0  0  0  0  0
   24.6557  -20.5388  -12.5325 C   0  0  0  0  0  0  0  0  0  0  0  0
   24.7645  -19.3328  -12.8734 O   0  0  0  0  0  0  0  0  0  0  0  0
   20.9126  -19.4585  -16.3718 C   0  0  0  0  0  0  0  0  0  0  0  0
   20.8761  -19.5729  -14.8639 C   0  0  0  0  0  0  0  0  0  0  0  0
   22.0515  -20.3735  -14.4169 C   0  0  2  0  0  0  0  0  0  0  0  0
   21.8057  -21.8165  -14.8515 C   0  0  0  0  0  0  0  0  0  0  0  0
   22.2488  -20.3840  -12.9290 C   0  0  2  0  0  0  0  0  0  0  0  0
   23.3730  -21.1401  -12.4916 N   0  0  0  0  0  0  0  0  0  0  0  0
   21.0205  -21.0297  -12.3416 C   0  0  0  0  0  0  0  0  0  0  0  0
   21.0162  -22.2183  -11.9821 O   0  0  0  0  0  0  0  0  0  0  0  0
   19.8346  -20.3077  -12.1798 O   0  0  0  0  0  0  0  0  0  0  0  0
  2  1  1  1
  2  3  1  0
  2  4  1  0
  4  5  1  6
  6  4  1  0
  6 11  1  0
  7  6  2  0
  8  9  1  0
 10 11  1  0
 10  9  1  1
 10 12  1  0
 12 13  2  0
 12 19  1  0
 15 14  1  0
 16 17  1  1
 16 15  1  0
 18 16  1  0
 18 19  1  6
 20 22  1  0
 20 18  1  0
 21 20  2  0
M  END
$$$$
