TSI.pdb
     RDKit          3D

 22 21  0  0  1  0  0  0  0  0999 V2000
   23.1168  -21.2860  -12.6097 C   0  0  0  0  0  0  0  0  0  0  0  0
   23.5333  -20.7904  -11.2436 C   0  0  1  0  0  0  0  0  0  0  0  0
   22.7663  -21.3796  -10.2669 O   0  0  0  0  0  0  0  0  0  0  0  0
   24.9966  -21.0395  -10.9704 C   0  0  2  0  0  0  0  0  0  0  0  0
   25.3143  -20.6043   -9.6023 N   0  0  0  0  0  0  0  0  0  0  0  0
   25.9081  -20.3475  -11.8813 C   0  0  0  0  0  0  0  0  0  0  0  0
   26.1288  -19.1109  -11.7651 O   0  0  0  0  0  0  0  0  0  0  0  0
   27.7473  -22.2653  -15.2102 O   0  0  0  0  0  0  0  0  0  0  0  0
   28.3918  -21.2887  -14.4957 C   0  0  0  0  0  0  0  0  0  0  0  0
   27.4447  -20.2698  -13.8783 C   0  0  2  0  0  0  0  0  0  0  0  0
   26.6088  -20.9884  -12.9506 N   0  0  0  0  0  0  0  0  0  0  0  0
   26.6543  -19.5501  -14.9042 C   0  0  0  0  0  0  0  0  0  0  0  0
   25.5201  -20.0156  -15.1857 O   0  0  0  0  0  0  0  0  0  0  0  0
   26.1951  -14.2666  -15.0816 C   0  0  0  0  0  0  0  0  0  0  0  0
   25.7085  -15.6911  -15.2299 C   0  0  0  0  0  0  0  0  0  0  0  0
   26.2790  -16.2629  -16.4830 C   0  0  2  0  0  0  0  0  0  0  0  0
   25.4122  -15.7694  -17.6391 C   0  0  0  0  0  0  0  0  0  0  0  0
   26.2673  -17.7632  -16.5263 C   0  0  2  0  0  0  0  0  0  0  0  0
   27.1148  -18.3845  -15.5659 N   0  0  0  0  0  0  0  0  0  0  0  0
   26.7767  -18.1532  -17.8899 C   0  0  0  0  0  0  0  0  0  0  0  0
   27.9869  -18.1277  -18.1667 O   0  0  0  0  0  0  0  0  0  0  0  0
   25.8980  -18.5602  -18.8979 O   0  0  0  0  0  0  0  0  0  0  0  0
  2  1  1  6
  2  3  1  0
  2  4  1  0
  4  5  1  1
  6  4  1  0
  6 11  1  0
  7  6  2  0
  8  9  1  0
 10 11  1  0
 10  9  1  6
 10 12  1  0
 12 13  2  0
 12 19  1  0
 15 14  1  0
 16 17  1  6
 16 15  1  0
 18 16  1  0
 18 19  1  1
 20 22  1  0
 20 18  1  0
 21 20  2  0
M  END
$$$$
