TSI.pdb
     RDKit          3D

 22 21  0  0  1  0  0  0  0  0999 V2000
   16.3553  -10.7814  -16.7104 C   0  0  0  0  0  0  0  0  0  0  0  0
   17.6690  -11.5009  -16.9152 C   0  0  1  0  0  0  0  0  0  0  0  0
   17.4952  -12.5890  -17.7368 O   0  0  0  0  0  0  0  0  0  0  0  0
   18.7326  -10.5919  -17.4814 C   0  0  2  0  0  0  0  0  0  0  0  0
   19.7525  -11.4048  -18.1602 N   0  0  0  0  0  0  0  0  0  0  0  0
   19.4127   -9.7636  -16.4860 C   0  0  0  0  0  0  0  0  0  0  0  0
   18.7584   -9.0969  -15.6382 O   0  0  0  0  0  0  0  0  0  0  0  0
   22.9549  -10.6426  -14.4517 O   0  0  0  0  0  0  0  0  0  0  0  0
   22.8903   -9.4958  -15.2002 C   0  0  0  0  0  0  0  0  0  0  0  0
   21.4823   -8.9289  -15.3134 C   0  0  2  0  0  0  0  0  0  0  0  0
   20.8339   -9.6387  -16.3864 N   0  0  0  0  0  0  0  0  0  0  0  0
   21.4873   -7.4636  -15.5325 C   0  0  0  0  0  0  0  0  0  0  0  0
   21.6692   -7.0600  -16.7100 O   0  0  0  0  0  0  0  0  0  0  0  0
   17.7653   -4.0929  -15.5108 C   0  0  0  0  0  0  0  0  0  0  0  0
   19.0820   -4.7850  -15.7854 C   0  0  0  0  0  0  0  0  0  0  0  0
   20.0487   -4.4158  -14.7122 C   0  0  2  0  0  0  0  0  0  0  0  0
   20.3352   -2.9230  -14.8575 C   0  0  0  0  0  0  0  0  0  0  0  0
   21.3639   -5.1330  -14.8064 C   0  0  2  0  0  0  0  0  0  0  0  0
   21.2995   -6.5199  -14.4919 N   0  0  0  0  0  0  0  0  0  0  0  0
   22.2739   -4.4873  -13.7936 C   0  0  0  0  0  0  0  0  0  0  0  0
   22.8218   -3.3945  -14.0111 O   0  0  0  0  0  0  0  0  0  0  0  0
   22.5344   -5.1007  -12.5649 O   0  0  0  0  0  0  0  0  0  0  0  0
  2  1  1  6
  2  3  1  0
  2  4  1  0
  4  5  1  1
  6  4  1  0
  6 11  1  0
  7  6  2  0
  8  9  1  0
 10 11  1  0
 10  9  1  6
 10 12  1  0
 12 13  2  0
 12 19  1  0
 15 14  1  0
 16 17  1  6
 16 15  1  0
 18 16  1  0
 18 19  1  1
 20 22  1  0
 20 18  1  0
 21 20  2  0
M  END
$$$$
