TSI.pdb
     RDKit          3D

 22 21  0  0  1  0  0  0  0  0999 V2000
   19.2333   -9.3220  -19.6576 C   0  0  0  0  0  0  0  0  0  0  0  0
   18.5591  -10.5480  -19.0850 C   0  0  1  0  0  0  0  0  0  0  0  0
   17.8707  -11.2180  -20.0681 O   0  0  0  0  0  0  0  0  0  0  0  0
   19.5428  -11.4786  -18.4186 C   0  0  2  0  0  0  0  0  0  0  0  0
   18.8319  -12.6753  -17.9449 N   0  0  0  0  0  0  0  0  0  0  0  0
   20.2469  -10.8969  -17.2761 C   0  0  0  0  0  0  0  0  0  0  0  0
   19.6477  -10.6716  -16.1891 O   0  0  0  0  0  0  0  0  0  0  0  0
   23.9123  -11.6117  -15.5820 O   0  0  0  0  0  0  0  0  0  0  0  0
   23.7339  -10.3928  -16.1835 C   0  0  0  0  0  0  0  0  0  0  0  0
   22.2878   -9.9184  -16.1660 C   0  0  2  0  0  0  0  0  0  0  0  0
   21.6324  -10.5426  -17.2869 N   0  0  0  0  0  0  0  0  0  0  0  0
   22.1852   -8.4409  -16.2079 C   0  0  0  0  0  0  0  0  0  0  0  0
   22.2443   -7.8933  -17.3388 O   0  0  0  0  0  0  0  0  0  0  0  0
   19.1239   -3.9443  -16.4130 C   0  0  0  0  0  0  0  0  0  0  0  0
   20.4553   -4.2730  -15.7748 C   0  0  0  0  0  0  0  0  0  0  0  0
   20.5551   -5.7515  -15.6121 C   0  0  2  0  0  0  0  0  0  0  0  0
   19.5875   -6.1491  -14.4998 C   0  0  0  0  0  0  0  0  0  0  0  0
   21.9197   -6.2272  -15.2063 C   0  0  2  0  0  0  0  0  0  0  0  0
   22.0268   -7.6382  -15.0506 N   0  0  0  0  0  0  0  0  0  0  0  0
   22.2042   -5.6069  -13.8627 C   0  0  0  0  0  0  0  0  0  0  0  0
   22.0435   -6.2375  -12.8052 O   0  0  0  0  0  0  0  0  0  0  0  0
   22.6624   -4.2903  -13.7597 O   0  0  0  0  0  0  0  0  0  0  0  0
  2  1  1  6
  2  3  1  0
  2  4  1  0
  4  5  1  1
  6  4  1  0
  6 11  1  0
  7  6  2  0
  8  9  1  0
 10 11  1  0
 10  9  1  6
 10 12  1  0
 12 13  2  0
 12 19  1  0
 15 14  1  0
 16 17  1  1
 16 15  1  0
 18 16  1  0
 18 19  1  1
 20 22  1  0
 20 18  1  0
 21 20  2  0
M  END
$$$$
