TSI.pdb
     RDKit          3D

 22 21  0  0  1  0  0  0  0  0999 V2000
   28.8504  -22.7752  -15.8413 C   0  0  0  0  0  0  0  0  0  0  0  0
   27.3674  -22.5094  -15.9651 C   0  0  1  0  0  0  0  0  0  0  0  0
   27.0574  -22.1163  -17.2452 O   0  0  0  0  0  0  0  0  0  0  0  0
   26.5405  -23.7120  -15.5805 C   0  0  2  0  0  0  0  0  0  0  0  0
   26.6980  -24.7551  -16.6047 N   0  0  0  0  0  0  0  0  0  0  0  0
   25.1103  -23.4413  -15.4362 C   0  0  0  0  0  0  0  0  0  0  0  0
   24.3563  -23.3734  -16.4454 O   0  0  0  0  0  0  0  0  0  0  0  0
   21.5623  -24.4960  -12.9439 O   0  0  0  0  0  0  0  0  0  0  0  0
   22.5779  -23.5920  -12.7681 C   0  0  0  0  0  0  0  0  0  0  0  0
   23.0496  -22.9556  -14.0677 C   0  0  2  0  0  0  0  0  0  0  0  0
   24.4583  -23.2361  -14.1800 N   0  0  0  0  0  0  0  0  0  0  0  0
   22.7614  -21.5031  -14.1140 C   0  0  0  0  0  0  0  0  0  0  0  0
   23.5608  -20.7399  -13.5132 O   0  0  0  0  0  0  0  0  0  0  0  0
   23.6582  -18.3610  -17.7209 C   0  0  0  0  0  0  0  0  0  0  0  0
   23.3757  -18.9723  -16.3664 C   0  0  0  0  0  0  0  0  0  0  0  0
   21.9115  -18.8873  -16.0999 C   0  0  2  0  0  0  0  0  0  0  0  0
   21.5572  -17.4057  -15.9965 C   0  0  0  0  0  0  0  0  0  0  0  0
   21.4894  -19.5369  -14.8142 C   0  0  2  0  0  0  0  0  0  0  0  0
   21.6461  -20.9517  -14.7928 N   0  0  0  0  0  0  0  0  0  0  0  0
   20.0190  -19.2481  -14.6545 C   0  0  0  0  0  0  0  0  0  0  0  0
   19.1545  -19.9166  -15.2440 O   0  0  0  0  0  0  0  0  0  0  0  0
   19.5741  -18.2100  -13.8310 O   0  0  0  0  0  0  0  0  0  0  0  0
  2  1  1  6
  2  3  1  0
  2  4  1  0
  4  5  1  6
  6  4  1  0
  6 11  1  0
  7  6  2  0
  8  9  1  0
 10 11  1  0
 10  9  1  1
 10 12  1  0
 12 13  2  0
 12 19  1  0
 15 14  1  0
 16 17  1  1
 16 15  1  0
 18 16  1  0
 18 19  1  6
 20 22  1  0
 20 18  1  0
 21 20  2  0
M  END
$$$$
