TSI.pdb
     RDKit          3D

 22 21  0  0  1  0  0  0  0  0999 V2000
   28.6880  -21.5371  -15.4221 C   0  0  0  0  0  0  0  0  0  0  0  0
   28.1291  -21.0807  -14.0936 C   0  0  1  0  0  0  0  0  0  0  0  0
   29.0380  -20.2820  -13.4417 O   0  0  0  0  0  0  0  0  0  0  0  0
   26.8183  -20.3491  -14.2497 C   0  0  2  0  0  0  0  0  0  0  0  0
   27.0093  -19.2003  -15.1474 N   0  0  0  0  0  0  0  0  0  0  0  0
   26.2532  -19.8471  -12.9974 C   0  0  0  0  0  0  0  0  0  0  0  0
   26.2366  -18.6121  -12.7405 O   0  0  0  0  0  0  0  0  0  0  0  0
   23.1206  -20.0861   -9.5006 O   0  0  0  0  0  0  0  0  0  0  0  0
   23.7148  -20.4864  -10.6695 C   0  0  0  0  0  0  0  0  0  0  0  0
   25.2021  -20.1687  -10.7288 C   0  0  2  0  0  0  0  0  0  0  0  0
   25.6868  -20.6826  -11.9843 N   0  0  0  0  0  0  0  0  0  0  0  0
   25.9384  -20.7288   -9.5715 C   0  0  0  0  0  0  0  0  0  0  0  0
   26.2284  -21.9522   -9.6134 O   0  0  0  0  0  0  0  0  0  0  0  0
   29.6194  -19.3497   -4.8771 C   0  0  0  0  0  0  0  0  0  0  0  0
   28.7000  -20.3580   -5.5299 C   0  0  0  0  0  0  0  0  0  0  0  0
   27.9458  -19.6798   -6.6224 C   0  0  2  0  0  0  0  0  0  0  0  0
   27.0667  -18.6153   -5.9699 C   0  0  0  0  0  0  0  0  0  0  0  0
   27.0393  -20.5946   -7.3934 C   0  0  2  0  0  0  0  0  0  0  0  0
   26.3204  -19.9587   -8.4448 N   0  0  0  0  0  0  0  0  0  0  0  0
   26.0237  -21.1154   -6.4094 C   0  0  0  0  0  0  0  0  0  0  0  0
   26.3518  -21.8333   -5.4508 O   0  0  0  0  0  0  0  0  0  0  0  0
   24.6671  -20.8060   -6.5426 O   0  0  0  0  0  0  0  0  0  0  0  0
  2  1  1  6
  2  3  1  0
  2  4  1  0
  4  5  1  6
  6  4  1  0
  6 11  1  0
  7  6  2  0
  8  9  1  0
 10 11  1  0
 10  9  1  1
 10 12  1  0
 12 13  2  0
 12 19  1  0
 15 14  1  0
 16 17  1  1
 16 15  1  0
 18 16  1  0
 18 19  1  6
 20 22  1  0
 20 18  1  0
 21 20  2  0
M  END
$$$$
