TSI.pdb
     RDKit          3D

 22 21  0  0  1  0  0  0  0  0999 V2000
   26.5079  -24.9366  -16.3020 C   0  0  0  0  0  0  0  0  0  0  0  0
   27.9795  -24.9066  -16.6464 C   0  0  1  0  0  0  0  0  0  0  0  0
   28.2715  -25.8712  -17.5811 O   0  0  0  0  0  0  0  0  0  0  0  0
   28.4183  -23.5526  -17.1484 C   0  0  2  0  0  0  0  0  0  0  0  0
   29.8776  -23.5530  -17.3285 N   0  0  0  0  0  0  0  0  0  0  0  0
   28.0790  -22.4399  -16.2617 C   0  0  0  0  0  0  0  0  0  0  0  0
   28.7223  -22.2387  -15.1953 O   0  0  0  0  0  0  0  0  0  0  0  0
   26.9360  -18.4719  -16.9650 O   0  0  0  0  0  0  0  0  0  0  0  0
   26.0308  -19.3499  -16.4272 C   0  0  0  0  0  0  0  0  0  0  0  0
   26.6781  -20.4513  -15.5999 C   0  0  2  0  0  0  0  0  0  0  0  0
   27.0225  -21.5098  -16.5146 N   0  0  0  0  0  0  0  0  0  0  0  0
   25.7946  -20.9198  -14.5067 C   0  0  0  0  0  0  0  0  0  0  0  0
   24.9840  -21.8423  -14.7794 O   0  0  0  0  0  0  0  0  0  0  0  0
   26.7339  -19.9916   -9.0084 C   0  0  0  0  0  0  0  0  0  0  0  0
   26.4708  -20.8089  -10.2537 C   0  0  0  0  0  0  0  0  0  0  0  0
   25.1602  -20.3935  -10.8298 C   0  0  2  0  0  0  0  0  0  0  0  0
   24.0689  -20.9862   -9.9414 C   0  0  0  0  0  0  0  0  0  0  0  0
   24.9223  -20.8974  -12.2236 C   0  0  2  0  0  0  0  0  0  0  0  0
   25.8258  -20.3823  -13.1957 N   0  0  0  0  0  0  0  0  0  0  0  0
   23.5402  -20.4388  -12.6114 C   0  0  0  0  0  0  0  0  0  0  0  0
   22.5371  -21.1407  -12.4038 O   0  0  0  0  0  0  0  0  0  0  0  0
   23.3379  -19.1981  -13.2228 O   0  0  0  0  0  0  0  0  0  0  0  0
  2  1  1  6
  2  3  1  0
  2  4  1  0
  4  5  1  1
  6  4  1  0
  6 11  1  0
  7  6  2  0
  8  9  1  0
 10 11  1  0
 10  9  1  6
 10 12  1  0
 12 13  2  0
 12 19  1  0
 15 14  1  0
 16 17  1  1
 16 15  1  0
 18 16  1  0
 18 19  1  6
 20 22  1  0
 20 18  1  0
 21 20  2  0
M  END
$$$$
