TSI.pdb
     RDKit          3D

 22 21  0  0  1  0  0  0  0  0999 V2000
   13.2165   -8.4110  -15.5753 C   0  0  0  0  0  0  0  0  0  0  0  0
   14.6602   -7.9674  -15.5110 C   0  0  1  0  0  0  0  0  0  0  0  0
   15.4007   -8.8557  -14.7681 O   0  0  0  0  0  0  0  0  0  0  0  0
   15.2682   -7.8104  -16.8834 C   0  0  2  0  0  0  0  0  0  0  0  0
   15.1784   -9.0903  -17.6016 N   0  0  0  0  0  0  0  0  0  0  0  0
   16.6719   -7.3990  -16.8795 C   0  0  0  0  0  0  0  0  0  0  0  0
   17.5929   -8.2273  -17.1184 O   0  0  0  0  0  0  0  0  0  0  0  0
   17.9177   -3.4873  -15.8376 O   0  0  0  0  0  0  0  0  0  0  0  0
   18.4888   -4.1455  -16.8960 C   0  0  0  0  0  0  0  0  0  0  0  0
   18.4901   -5.6589  -16.7344 C   0  0  2  0  0  0  0  0  0  0  0  0
   17.1131   -6.0649  -16.6137 N   0  0  0  0  0  0  0  0  0  0  0  0
   19.3071   -6.0955  -15.5781 C   0  0  0  0  0  0  0  0  0  0  0  0
   18.7002   -6.3234  -14.5000 O   0  0  0  0  0  0  0  0  0  0  0  0
   22.8493  -10.0444  -15.4055 C   0  0  0  0  0  0  0  0  0  0  0  0
   21.7642   -9.0083  -15.2125 C   0  0  0  0  0  0  0  0  0  0  0  0
   22.3776   -7.7742  -14.6440 C   0  0  2  0  0  0  0  0  0  0  0  0
   22.9261   -8.1370  -13.2660 C   0  0  0  0  0  0  0  0  0  0  0  0
   21.4066   -6.6454  -14.4539 C   0  0  2  0  0  0  0  0  0  0  0  0
   20.7132   -6.2627  -15.6369 N   0  0  0  0  0  0  0  0  0  0  0  0
   22.2184   -5.4568  -14.0078 C   0  0  0  0  0  0  0  0  0  0  0  0
   22.5925   -4.5841  -14.8080 O   0  0  0  0  0  0  0  0  0  0  0  0
   22.5811   -5.2942  -12.6677 O   0  0  0  0  0  0  0  0  0  0  0  0
  2  1  1  6
  2  3  1  0
  2  4  1  0
  4  5  1  1
  6  4  1  0
  6 11  1  0
  7  6  2  0
  8  9  1  0
 10 11  1  0
 10  9  1  1
 10 12  1  0
 12 13  2  0
 12 19  1  0
 15 14  1  0
 16 17  1  1
 16 15  1  0
 18 16  1  0
 18 19  1  6
 20 22  1  0
 20 18  1  0
 21 20  2  0
M  END
$$$$
