TSI.pdb
     RDKit          3D

 22 21  0  0  1  0  0  0  0  0999 V2000
   19.5350  -13.2650  -18.8044 C   0  0  0  0  0  0  0  0  0  0  0  0
   19.1870  -12.0703  -17.9459 C   0  0  1  0  0  0  0  0  0  0  0  0
   18.7051  -12.4821  -16.7263 O   0  0  0  0  0  0  0  0  0  0  0  0
   20.3660  -11.1486  -17.7499 C   0  0  2  0  0  0  0  0  0  0  0  0
   21.4625  -11.8942  -17.1144 N   0  0  0  0  0  0  0  0  0  0  0  0
   20.0857   -9.9760  -16.9218 C   0  0  0  0  0  0  0  0  0  0  0  0
   19.3084   -9.0672  -17.3233 O   0  0  0  0  0  0  0  0  0  0  0  0
   20.4035   -7.9079  -12.5249 O   0  0  0  0  0  0  0  0  0  0  0  0
   20.5230   -8.9682  -13.3858 C   0  0  0  0  0  0  0  0  0  0  0  0
   20.3923   -8.5732  -14.8498 C   0  0  2  0  0  0  0  0  0  0  0  0
   20.6483   -9.7604  -15.6247 N   0  0  0  0  0  0  0  0  0  0  0  0
   21.3021   -7.4608  -15.2104 C   0  0  0  0  0  0  0  0  0  0  0  0
   22.4752   -7.7653  -15.5477 O   0  0  0  0  0  0  0  0  0  0  0  0
   19.9245   -2.9547  -18.0295 C   0  0  0  0  0  0  0  0  0  0  0  0
   20.5830   -4.2165  -17.5174 C   0  0  0  0  0  0  0  0  0  0  0  0
   21.2815   -3.9054  -16.2377 C   0  0  2  0  0  0  0  0  0  0  0  0
   22.4377   -2.9658  -16.5719 C   0  0  0  0  0  0  0  0  0  0  0  0
   21.8674   -5.1084  -15.5575 C   0  0  2  0  0  0  0  0  0  0  0  0
   20.9123   -6.0984  -15.1911 N   0  0  0  0  0  0  0  0  0  0  0  0
   22.5040   -4.6099  -14.2858 C   0  0  0  0  0  0  0  0  0  0  0  0
   23.6079   -4.0413  -14.2876 O   0  0  0  0  0  0  0  0  0  0  0  0
   21.8690   -4.7713  -13.0511 O   0  0  0  0  0  0  0  0  0  0  0  0
  2  1  1  6
  2  3  1  0
  2  4  1  0
  4  5  1  1
  6  4  1  0
  6 11  1  0
  7  6  2  0
  8  9  1  0
 10 11  1  0
 10  9  1  1
 10 12  1  0
 12 13  2  0
 12 19  1  0
 15 14  1  0
 16 17  1  6
 16 15  1  0
 18 16  1  0
 18 19  1  1
 20 22  1  0
 20 18  1  0
 21 20  2  0
M  END
$$$$
