TSI.pdb
     RDKit          3D

 22 21  0  0  1  0  0  0  0  0999 V2000
   15.1592  -12.0148  -14.1082 C   0  0  0  0  0  0  0  0  0  0  0  0
   15.6379  -13.2935  -14.7571 C   0  0  1  0  0  0  0  0  0  0  0  0
   14.6796  -14.2728  -14.6481 O   0  0  0  0  0  0  0  0  0  0  0  0
   16.0064  -13.0918  -16.2068 C   0  0  2  0  0  0  0  0  0  0  0  0
   16.4045  -14.3820  -16.7888 N   0  0  0  0  0  0  0  0  0  0  0  0
   17.1011  -12.1469  -16.4265 C   0  0  0  0  0  0  0  0  0  0  0  0
   18.3042  -12.5234  -16.3803 O   0  0  0  0  0  0  0  0  0  0  0  0
   16.5625   -7.9820  -16.4831 O   0  0  0  0  0  0  0  0  0  0  0  0
   17.3944   -8.5398  -17.4192 C   0  0  0  0  0  0  0  0  0  0  0  0
   18.0079   -9.8585  -16.9704 C   0  0  2  0  0  0  0  0  0  0  0  0
   16.9133  -10.7567  -16.7048 N   0  0  0  0  0  0  0  0  0  0  0  0
   18.8933   -9.6898  -15.7945 C   0  0  0  0  0  0  0  0  0  0  0  0
   18.3788   -9.8613  -14.6595 O   0  0  0  0  0  0  0  0  0  0  0  0
   23.6750  -11.9072  -15.1230 C   0  0  0  0  0  0  0  0  0  0  0  0
   22.2715  -11.3543  -15.0104 C   0  0  0  0  0  0  0  0  0  0  0  0
   22.3550   -9.8944  -14.7205 C   0  0  2  0  0  0  0  0  0  0  0  0
   22.9655   -9.7453  -13.3289 C   0  0  0  0  0  0  0  0  0  0  0  0
   21.0232   -9.2023  -14.6991 C   0  0  2  0  0  0  0  0  0  0  0  0
   20.2657   -9.3508  -15.8952 N   0  0  0  0  0  0  0  0  0  0  0  0
   21.3105   -7.7324  -14.5321 C   0  0  0  0  0  0  0  0  0  0  0  0
   21.7025   -7.2624  -13.4517 O   0  0  0  0  0  0  0  0  0  0  0  0
   21.1445   -6.8407  -15.5956 O   0  0  0  0  0  0  0  0  0  0  0  0
  2  1  1  6
  2  3  1  0
  2  4  1  0
  4  5  1  1
  6  4  1  0
  6 11  1  0
  7  6  2  0
  8  9  1  0
 10 11  1  0
 10  9  1  1
 10 12  1  0
 12 13  2  0
 12 19  1  0
 15 14  1  0
 16 17  1  1
 16 15  1  0
 18 16  1  0
 18 19  1  6
 20 22  1  0
 20 18  1  0
 21 20  2  0
M  END
$$$$
