KMM.pdb
     RDKit          3D

 26 25  0  0  1  0  0  0  0  0999 V2000
    7.1804  -18.1138   20.0281 N   0  0  0  0  0  0  0  0  0  0  0  0
    8.3112  -17.3279   19.7391 C   0  0  1  0  0  0  0  0  0  0  0  0
    8.3310  -16.6064   18.4208 C   0  0  0  0  0  0  0  0  0  0  0  0
    7.9994  -17.3964   17.2236 C   0  0  0  0  0  0  0  0  0  0  0  0
    8.5729  -17.0149   15.9233 C   0  0  0  0  0  0  0  0  0  0  0  0
    8.1706  -17.8197   14.7403 C   0  0  0  0  0  0  0  0  0  0  0  0
    8.7842  -17.3049   13.5516 N   0  0  0  0  0  0  0  0  0  0  0  0
    8.7551  -16.4097   20.8315 C   0  0  0  0  0  0  0  0  0  0  0  0
    9.8701  -15.8170   20.6343 O   0  0  0  0  0  0  0  0  0  0  0  0
    6.9237  -12.1914   27.1005 C   0  0  0  0  0  0  0  0  0  0  0  0
    6.4009  -13.0612   25.6172 S   0  0  0  0  0  0  0  0  0  0  0  0
    7.7922  -13.3057   24.4512 C   0  0  0  0  0  0  0  0  0  0  0  0
    7.4136  -14.2924   23.3921 C   0  0  0  0  0  0  0  0  0  0  0  0
    8.5781  -15.1375   22.9465 C   0  0  2  0  0  0  0  0  0  0  0  0
    8.0584  -16.1674   22.0077 N   0  0  0  0  0  0  0  0  0  0  0  0
    9.1934  -15.8027   24.1037 C   0  0  0  0  0  0  0  0  0  0  0  0
    8.4420  -16.5105   24.8662 O   0  0  0  0  0  0  0  0  0  0  0  0
   10.2413  -13.5767   30.4644 C   0  0  0  0  0  0  0  0  0  0  0  0
   11.0708  -13.9353   28.8788 S   0  0  0  0  0  0  0  0  0  0  0  0
   10.2927  -15.4458   28.2045 C   0  0  0  0  0  0  0  0  0  0  0  0
   10.0836  -15.2332   26.7378 C   0  0  0  0  0  0  0  0  0  0  0  0
   10.9800  -16.0572   25.8532 C   0  0  2  0  0  0  0  0  0  0  0  0
   10.5593  -15.7525   24.4752 N   0  0  0  0  0  0  0  0  0  0  0  0
   10.7703  -17.4828   26.1393 C   0  0  0  0  0  0  0  0  0  0  0  0
    9.6756  -18.0154   25.8416 O   0  0  0  0  0  0  0  0  0  0  0  0
   11.7437  -18.2497   26.7235 O   0  0  0  0  0  0  0  0  0  0  0  0
  2  1  1  1
  3  2  1  0
  4  3  1  0
  5  4  1  0
  5  6  1  0
  7  6  1  0
  8  9  2  0
  8  2  1  0
 10 11  1  0
 11 12  1  0
 12 13  1  0
 14 13  1  1
 14 15  1  0
 15  8  1  0
 16 14  1  0
 17 16  2  0
 18 19  1  0
 20 19  1  0
 22 21  1  1
 21 20  1  0
 22 23  1  0
 23 16  1  0
 24 26  1  0
 24 22  1  0
 25 24  2  0
M  END
$$$$
