KMM.pdb
     RDKit          3D

 26 25  0  0  1  0  0  0  0  0999 V2000
    7.1781  -18.1830   20.7507 N   0  0  0  0  0  0  0  0  0  0  0  0
    8.3538  -17.5390   20.3230 C   0  0  1  0  0  0  0  0  0  0  0  0
    8.4028  -17.0689   18.8964 C   0  0  0  0  0  0  0  0  0  0  0  0
    8.5887  -18.0991   17.8612 C   0  0  0  0  0  0  0  0  0  0  0  0
    7.5063  -18.3623   16.8997 C   0  0  0  0  0  0  0  0  0  0  0  0
    7.7753  -19.3568   15.8285 C   0  0  0  0  0  0  0  0  0  0  0  0
    7.8984  -18.7043   14.5582 N   0  0  0  0  0  0  0  0  0  0  0  0
    8.8714  -16.4712   21.2315 C   0  0  0  0  0  0  0  0  0  0  0  0
   10.0393  -16.0314   20.9558 O   0  0  0  0  0  0  0  0  0  0  0  0
    5.8263  -13.3795   26.3592 C   0  0  0  0  0  0  0  0  0  0  0  0
    6.8476  -12.1548   25.5301 S   0  0  0  0  0  0  0  0  0  0  0  0
    8.2188  -12.9359   24.6003 C   0  0  0  0  0  0  0  0  0  0  0  0
    7.7099  -14.0946   23.8022 C   0  0  0  0  0  0  0  0  0  0  0  0
    8.8101  -14.8263   23.0790 C   0  0  2  0  0  0  0  0  0  0  0  0
    8.1890  -15.9441   22.3196 N   0  0  0  0  0  0  0  0  0  0  0  0
    9.7745  -15.3728   24.0442 C   0  0  0  0  0  0  0  0  0  0  0  0
   10.8916  -14.7600   24.1980 O   0  0  0  0  0  0  0  0  0  0  0  0
    9.0743  -13.6525   28.9480 C   0  0  0  0  0  0  0  0  0  0  0  0
   10.7236  -14.3704   29.2561 S   0  0  0  0  0  0  0  0  0  0  0  0
   10.7853  -15.9601   28.3556 C   0  0  0  0  0  0  0  0  0  0  0  0
   10.1434  -15.7507   27.0198 C   0  0  0  0  0  0  0  0  0  0  0  0
   10.4885  -16.7935   25.9908 C   0  0  2  0  0  0  0  0  0  0  0  0
    9.5995  -16.5261   24.8476 N   0  0  0  0  0  0  0  0  0  0  0  0
   10.2148  -18.1286   26.5390 C   0  0  0  0  0  0  0  0  0  0  0  0
    9.2396  -18.7843   26.1035 O   0  0  0  0  0  0  0  0  0  0  0  0
   11.0010  -18.6797   27.5164 O   0  0  0  0  0  0  0  0  0  0  0  0
  2  1  1  1
  3  2  1  0
  4  3  1  0
  5  4  1  0
  5  6  1  0
  7  6  1  0
  8  9  2  0
  8  2  1  0
 10 11  1  0
 11 12  1  0
 12 13  1  0
 14 13  1  1
 14 15  1  0
 15  8  1  0
 16 14  1  0
 17 16  2  0
 18 19  1  0
 20 19  1  0
 22 21  1  1
 21 20  1  0
 22 23  1  0
 23 16  1  0
 24 26  1  0
 24 22  1  0
 25 24  2  0
M  END
$$$$
