KMM.pdb
     RDKit          3D

 26 25  0  0  1  0  0  0  0  0999 V2000
    7.0951  -17.9741   21.2871 N   0  0  0  0  0  0  0  0  0  0  0  0
    8.2672  -17.3568   20.8129 C   0  0  1  0  0  0  0  0  0  0  0  0
    8.2875  -16.9303   19.3719 C   0  0  0  0  0  0  0  0  0  0  0  0
    7.8772  -17.9323   18.3744 C   0  0  0  0  0  0  0  0  0  0  0  0
    7.9248  -17.5908   16.9438 C   0  0  0  0  0  0  0  0  0  0  0  0
    7.3269  -18.5634   15.9924 C   0  0  0  0  0  0  0  0  0  0  0  0
    7.5072  -18.1189   14.6417 N   0  0  0  0  0  0  0  0  0  0  0  0
    8.8177  -16.2682   21.6763 C   0  0  0  0  0  0  0  0  0  0  0  0
    9.9374  -15.7798   21.3007 O   0  0  0  0  0  0  0  0  0  0  0  0
    6.6078  -11.7168   26.4094 C   0  0  0  0  0  0  0  0  0  0  0  0
    5.7093  -12.7425   25.2385 S   0  0  0  0  0  0  0  0  0  0  0  0
    6.8224  -13.4521   23.9686 C   0  0  0  0  0  0  0  0  0  0  0  0
    7.9593  -14.1736   24.6207 C   0  0  0  0  0  0  0  0  0  0  0  0
    8.9319  -14.7430   23.6215 C   0  0  2  0  0  0  0  0  0  0  0  0
    8.2123  -15.7702   22.8221 N   0  0  0  0  0  0  0  0  0  0  0  0
   10.0620  -15.3745   24.3176 C   0  0  0  0  0  0  0  0  0  0  0  0
   11.1736  -14.7355   24.3725 O   0  0  0  0  0  0  0  0  0  0  0  0
    9.9503  -13.4102   29.0664 C   0  0  0  0  0  0  0  0  0  0  0  0
   11.3290  -14.5918   29.2495 S   0  0  0  0  0  0  0  0  0  0  0  0
   10.7356  -16.1998   28.6140 C   0  0  0  0  0  0  0  0  0  0  0  0
   10.2224  -15.9782   27.2256 C   0  0  0  0  0  0  0  0  0  0  0  0
   10.8389  -16.8704   26.1821 C   0  0  2  0  0  0  0  0  0  0  0  0
   10.0567  -16.6389   24.9559 N   0  0  0  0  0  0  0  0  0  0  0  0
   10.7117  -18.2722   26.6024 C   0  0  0  0  0  0  0  0  0  0  0  0
   11.3978  -18.6908   27.5640 O   0  0  0  0  0  0  0  0  0  0  0  0
    9.8582  -19.1378   25.9703 O   0  0  0  0  0  0  0  0  0  0  0  0
  2  1  1  1
  3  2  1  0
  4  3  1  0
  5  4  1  0
  5  6  1  0
  7  6  1  0
  8  9  2  0
  8  2  1  0
 10 11  1  0
 11 12  1  0
 12 13  1  0
 14 13  1  1
 14 15  1  0
 15  8  1  0
 16 14  1  0
 17 16  2  0
 18 19  1  0
 20 19  1  0
 22 21  1  1
 21 20  1  0
 22 23  1  0
 23 16  1  0
 24 26  1  0
 24 22  1  0
 25 24  2  0
M  END
$$$$
