KMM.pdb
     RDKit          3D

 26 25  0  0  1  0  0  0  0  0999 V2000
    7.4160  -17.8031   20.4099 N   0  0  0  0  0  0  0  0  0  0  0  0
    8.4602  -16.8823   20.2056 C   0  0  1  0  0  0  0  0  0  0  0  0
    8.4126  -16.0522   18.9536 C   0  0  0  0  0  0  0  0  0  0  0  0
    8.0049  -16.7364   17.7154 C   0  0  0  0  0  0  0  0  0  0  0  0
    8.7005  -16.4282   16.4558 C   0  0  0  0  0  0  0  0  0  0  0  0
    8.2262  -17.1219   15.2299 C   0  0  0  0  0  0  0  0  0  0  0  0
    9.0941  -16.8371   14.1253 N   0  0  0  0  0  0  0  0  0  0  0  0
    8.7987  -16.0201   21.3784 C   0  0  0  0  0  0  0  0  0  0  0  0
    9.8457  -15.2987   21.2482 O   0  0  0  0  0  0  0  0  0  0  0  0
    7.0634  -11.4187   25.6415 C   0  0  0  0  0  0  0  0  0  0  0  0
    6.1778  -12.9686   25.8504 S   0  0  0  0  0  0  0  0  0  0  0  0
    6.4487  -14.0981   24.4341 C   0  0  0  0  0  0  0  0  0  0  0  0
    7.5426  -15.0694   24.7477 C   0  0  0  0  0  0  0  0  0  0  0  0
    8.5978  -15.1183   23.6739 C   0  0  2  0  0  0  0  0  0  0  0  0
    8.0743  -15.9546   22.5609 N   0  0  0  0  0  0  0  0  0  0  0  0
    9.8281  -15.7265   24.2000 C   0  0  0  0  0  0  0  0  0  0  0  0
   10.9536  -15.2264   23.8392 O   0  0  0  0  0  0  0  0  0  0  0  0
   10.1067  -12.9491   28.4787 C   0  0  0  0  0  0  0  0  0  0  0  0
   10.2709  -14.4461   29.5095 S   0  0  0  0  0  0  0  0  0  0  0  0
   11.0818  -15.7154   28.4736 C   0  0  0  0  0  0  0  0  0  0  0  0
   10.3158  -15.8126   27.1914 C   0  0  0  0  0  0  0  0  0  0  0  0
   10.8589  -16.8206   26.2144 C   0  0  2  0  0  0  0  0  0  0  0  0
    9.9098  -16.8266   25.0884 N   0  0  0  0  0  0  0  0  0  0  0  0
   10.8942  -18.1448   26.8493 C   0  0  0  0  0  0  0  0  0  0  0  0
   11.8571  -18.4450   27.5931 O   0  0  0  0  0  0  0  0  0  0  0  0
    9.8977  -19.0640   26.6512 O   0  0  0  0  0  0  0  0  0  0  0  0
  2  1  1  1
  3  2  1  0
  4  3  1  0
  5  4  1  0
  5  6  1  0
  7  6  1  0
  8  9  2  0
  8  2  1  0
 10 11  1  0
 11 12  1  0
 12 13  1  0
 14 13  1  1
 14 15  1  0
 15  8  1  0
 16 14  1  0
 17 16  2  0
 18 19  1  0
 20 19  1  0
 22 21  1  1
 21 20  1  0
 22 23  1  0
 23 16  1  0
 24 26  1  0
 24 22  1  0
 25 24  2  0
M  END
$$$$
