KMM.pdb
     RDKit          3D

 26 25  0  0  1  0  0  0  0  0999 V2000
    8.4292  -18.6099   19.9631 N   0  0  0  0  0  0  0  0  0  0  0  0
    7.9640  -18.2917   21.2525 C   0  0  1  0  0  0  0  0  0  0  0  0
    7.8450  -19.4183   22.2402 C   0  0  0  0  0  0  0  0  0  0  0  0
    7.3075  -20.6928   21.7360 C   0  0  0  0  0  0  0  0  0  0  0  0
    7.0378  -21.7884   22.6805 C   0  0  0  0  0  0  0  0  0  0  0  0
    6.3891  -23.0102   22.1371 C   0  0  0  0  0  0  0  0  0  0  0  0
    6.1981  -23.9802   23.1751 N   0  0  0  0  0  0  0  0  0  0  0  0
    8.6126  -17.1108   21.8991 C   0  0  0  0  0  0  0  0  0  0  0  0
    9.8792  -17.0273   21.7500 O   0  0  0  0  0  0  0  0  0  0  0  0
    6.1654  -12.4890   27.3223 C   0  0  0  0  0  0  0  0  0  0  0  0
    6.3416  -12.6181   25.5384 S   0  0  0  0  0  0  0  0  0  0  0  0
    7.5709  -13.8931   25.0712 C   0  0  0  0  0  0  0  0  0  0  0  0
    7.7503  -13.9205   23.5860 C   0  0  0  0  0  0  0  0  0  0  0  0
    8.7305  -14.9741   23.1414 C   0  0  2  0  0  0  0  0  0  0  0  0
    7.9508  -16.1316   22.6275 N   0  0  0  0  0  0  0  0  0  0  0  0
    9.5548  -15.4107   24.2774 C   0  0  0  0  0  0  0  0  0  0  0  0
   10.4598  -14.6114   24.7122 O   0  0  0  0  0  0  0  0  0  0  0  0
   10.1583  -13.6041   29.4683 C   0  0  0  0  0  0  0  0  0  0  0  0
   11.2696  -13.6632   28.0220 S   0  0  0  0  0  0  0  0  0  0  0  0
   11.5395  -15.4291   27.6340 C   0  0  0  0  0  0  0  0  0  0  0  0
   10.2558  -15.9768   27.0932 C   0  0  0  0  0  0  0  0  0  0  0  0
   10.4240  -17.0093   26.0112 C   0  0  2  0  0  0  0  0  0  0  0  0
    9.4530  -16.6443   24.9659 N   0  0  0  0  0  0  0  0  0  0  0  0
   10.1056  -18.3378   26.5514 C   0  0  0  0  0  0  0  0  0  0  0  0
    9.0169  -18.8799   26.2492 O   0  0  0  0  0  0  0  0  0  0  0  0
   10.9711  -19.0040   27.3786 O   0  0  0  0  0  0  0  0  0  0  0  0
  2  1  1  6
  3  2  1  0
  4  3  1  0
  5  4  1  0
  5  6  1  0
  7  6  1  0
  8  9  2  0
  8  2  1  0
 10 11  1  0
 11 12  1  0
 12 13  1  0
 14 13  1  1
 14 15  1  0
 15  8  1  0
 16 14  1  0
 17 16  2  0
 18 19  1  0
 20 19  1  0
 22 21  1  1
 21 20  1  0
 22 23  1  0
 23 16  1  0
 24 26  1  0
 24 22  1  0
 25 24  2  0
M  END
$$$$
