KMM.pdb
     RDKit          3D

 26 25  0  0  1  0  0  0  0  0999 V2000
    7.4239  -15.2629   19.1327 N   0  0  0  0  0  0  0  0  0  0  0  0
    8.0155  -16.1422   20.0583 C   0  0  1  0  0  0  0  0  0  0  0  0
    9.1502  -16.9976   19.5689 C   0  0  0  0  0  0  0  0  0  0  0  0
    8.7950  -18.1869   18.7772 C   0  0  0  0  0  0  0  0  0  0  0  0
    9.8539  -19.1169   18.3537 C   0  0  0  0  0  0  0  0  0  0  0  0
    9.4280  -20.3684   17.6747 C   0  0  0  0  0  0  0  0  0  0  0  0
   10.5709  -21.1298   17.2642 N   0  0  0  0  0  0  0  0  0  0  0  0
    8.3592  -15.5466   21.3852 C   0  0  0  0  0  0  0  0  0  0  0  0
    9.2308  -14.6122   21.3607 O   0  0  0  0  0  0  0  0  0  0  0  0
    7.0797  -11.1375   25.7102 C   0  0  0  0  0  0  0  0  0  0  0  0
    6.2519  -12.6698   26.1543 S   0  0  0  0  0  0  0  0  0  0  0  0
    7.3306  -14.1246   25.8808 C   0  0  0  0  0  0  0  0  0  0  0  0
    7.0156  -14.7634   24.5651 C   0  0  0  0  0  0  0  0  0  0  0  0
    8.2502  -15.2253   23.8363 C   0  0  2  0  0  0  0  0  0  0  0  0
    7.8118  -15.9300   22.6020 N   0  0  0  0  0  0  0  0  0  0  0  0
    9.0177  -16.1541   24.6781 C   0  0  0  0  0  0  0  0  0  0  0  0
    8.3800  -17.0825   25.2934 O   0  0  0  0  0  0  0  0  0  0  0  0
    8.9051  -13.5861   29.2441 C   0  0  0  0  0  0  0  0  0  0  0  0
   10.6049  -14.2016   29.4940 S   0  0  0  0  0  0  0  0  0  0  0  0
   10.7261  -15.7955   28.6071 C   0  0  0  0  0  0  0  0  0  0  0  0
   10.3519  -15.5502   27.1788 C   0  0  0  0  0  0  0  0  0  0  0  0
   10.9935  -16.4911   26.1947 C   0  0  2  0  0  0  0  0  0  0  0  0
   10.4188  -16.1408   24.8848 N   0  0  0  0  0  0  0  0  0  0  0  0
   10.6434  -17.8744   26.5436 C   0  0  0  0  0  0  0  0  0  0  0  0
   11.4234  -18.5444   27.2600 O   0  0  0  0  0  0  0  0  0  0  0  0
    9.4813  -18.4540   26.1069 O   0  0  0  0  0  0  0  0  0  0  0  0
  2  1  1  6
  3  2  1  0
  4  3  1  0
  5  4  1  0
  5  6  1  0
  7  6  1  0
  8  9  2  0
  8  2  1  0
 10 11  1  0
 11 12  1  0
 12 13  1  0
 14 13  1  1
 14 15  1  0
 15  8  1  0
 16 14  1  0
 17 16  2  0
 18 19  1  0
 20 19  1  0
 22 21  1  1
 21 20  1  0
 22 23  1  0
 23 16  1  0
 24 26  1  0
 24 22  1  0
 25 24  2  0
M  END
$$$$
