KMM.pdb
     RDKit          3D

 26 25  0  0  1  0  0  0  0  0999 V2000
    9.1735  -19.2558   19.6811 N   0  0  0  0  0  0  0  0  0  0  0  0
   10.1900  -18.3072   19.8972 C   0  0  1  0  0  0  0  0  0  0  0  0
   10.6771  -17.5343   18.7039 C   0  0  0  0  0  0  0  0  0  0  0  0
   12.1059  -17.6544   18.3698 C   0  0  0  0  0  0  0  0  0  0  0  0
   12.6488  -16.8971   17.2310 C   0  0  0  0  0  0  0  0  0  0  0  0
   14.1094  -17.0038   16.9778 C   0  0  0  0  0  0  0  0  0  0  0  0
   14.4890  -16.1718   15.8741 N   0  0  0  0  0  0  0  0  0  0  0  0
    9.9753  -17.3834   21.0522 C   0  0  0  0  0  0  0  0  0  0  0  0
   10.5320  -16.2373   20.9522 O   0  0  0  0  0  0  0  0  0  0  0  0
    6.8664  -12.4492   24.5157 C   0  0  0  0  0  0  0  0  0  0  0  0
    7.5554  -14.1023   24.6659 S   0  0  0  0  0  0  0  0  0  0  0  0
    6.9321  -15.2163   23.3523 C   0  0  0  0  0  0  0  0  0  0  0  0
    7.5288  -16.5800   23.5029 C   0  0  0  0  0  0  0  0  0  0  0  0
    9.0019  -16.6043   23.1896 C   0  0  2  0  0  0  0  0  0  0  0  0
    9.2355  -17.6797   22.1890 N   0  0  0  0  0  0  0  0  0  0  0  0
    9.7736  -16.8978   24.4056 C   0  0  0  0  0  0  0  0  0  0  0  0
   10.1037  -18.1167   24.6347 O   0  0  0  0  0  0  0  0  0  0  0  0
    9.6718  -13.1239   29.1140 C   0  0  0  0  0  0  0  0  0  0  0  0
   10.8596  -14.1639   30.0293 S   0  0  0  0  0  0  0  0  0  0  0  0
   11.2447  -15.5947   28.9586 C   0  0  0  0  0  0  0  0  0  0  0  0
   10.7047  -15.2995   27.5942 C   0  0  0  0  0  0  0  0  0  0  0  0
   10.9168  -16.3981   26.5876 C   0  0  2  0  0  0  0  0  0  0  0  0
   10.2093  -15.9592   25.3728 N   0  0  0  0  0  0  0  0  0  0  0  0
   10.3234  -17.6433   27.0928 C   0  0  0  0  0  0  0  0  0  0  0  0
    9.0957  -17.8449   26.9426 O   0  0  0  0  0  0  0  0  0  0  0  0
   11.0793  -18.5954   27.7247 O   0  0  0  0  0  0  0  0  0  0  0  0
  2  1  1  6
  3  2  1  0
  4  3  1  0
  5  4  1  0
  5  6  1  0
  7  6  1  0
  8  9  2  0
  8  2  1  0
 10 11  1  0
 11 12  1  0
 12 13  1  0
 14 13  1  1
 14 15  1  0
 15  8  1  0
 16 14  1  0
 17 16  2  0
 18 19  1  0
 20 19  1  0
 22 21  1  1
 21 20  1  0
 22 23  1  0
 23 16  1  0
 24 26  1  0
 24 22  1  0
 25 24  2  0
M  END
$$$$
