GNQ.pdb
     RDKit          3D

 22 21  0  0  1  0  0  0  0  0999 V2000
   13.6090  -17.0062   20.6640 N   0  0  0  0  0  0  0  0  0  0  0  0
   12.3712  -17.5415   21.1904 C   0  0  0  0  0  0  0  0  0  0  0  0
   11.5403  -16.4378   21.7151 C   0  0  0  0  0  0  0  0  0  0  0  0
   12.0865  -15.4638   22.3042 O   0  0  0  0  0  0  0  0  0  0  0  0
    7.1046  -12.9341   20.8743 N   0  0  0  0  0  0  0  0  0  0  0  0
    7.1576  -14.2768   21.4212 C   0  0  0  0  0  0  0  0  0  0  0  0
    6.1838  -14.5691   22.1275 O   0  0  0  0  0  0  0  0  0  0  0  0
    8.2537  -15.1581   21.1471 C   0  0  0  0  0  0  0  0  0  0  0  0
    9.3641  -15.3068   22.1637 C   0  0  2  0  0  0  0  0  0  0  0  0
   10.1461  -16.4325   21.5802 N   0  0  0  0  0  0  0  0  0  0  0  0
    8.9234  -15.6716   23.5099 C   0  0  0  0  0  0  0  0  0  0  0  0
    8.6980  -16.9212   23.7181 O   0  0  0  0  0  0  0  0  0  0  0  0
   11.4202  -15.4043   28.1208 N   0  0  0  0  0  0  0  0  0  0  0  0
   10.2432  -14.6516   28.3532 C   0  0  0  0  0  0  0  0  0  0  0  0
    9.6768  -14.6613   29.4714 O   0  0  0  0  0  0  0  0  0  0  0  0
    9.6710  -13.8392   27.2564 C   0  0  0  0  0  0  0  0  0  0  0  0
    8.2803  -14.2880   26.9817 C   0  0  0  0  0  0  0  0  0  0  0  0
    8.1808  -15.3222   25.8933 C   0  0  2  0  0  0  0  0  0  0  0  0
    8.7143  -14.8393   24.6250 N   0  0  0  0  0  0  0  0  0  0  0  0
    6.7678  -15.6966   25.6742 C   0  0  0  0  0  0  0  0  0  0  0  0
    6.1475  -15.4216   24.6318 O   0  0  0  0  0  0  0  0  0  0  0  0
    6.0430  -16.3949   26.6506 O   0  0  0  0  0  0  0  0  0  0  0  0
  2  3  1  0
  2  1  1  0
  3  4  2  0
  5  6  1  0
  6  7  2  0
  6  8  1  0
  9  8  1  6
  9 11  1  0
 10  9  1  0
 10  3  1  0
 11 19  1  0
 11 12  2  0
 13 14  1  0
 14 16  1  0
 15 14  2  0
 17 16  1  0
 18 17  1  1
 19 18  1  0
 20 22  1  0
 20 18  1  0
 21 20  2  0
M  END
$$$$
