GNQ.pdb
     RDKit          3D

 22 21  0  0  1  0  0  0  0  0999 V2000
    8.4661  -12.3175   18.5672 N   0  0  0  0  0  0  0  0  0  0  0  0
    8.5188  -13.6928   18.1181 C   0  0  0  0  0  0  0  0  0  0  0  0
    8.3330  -14.5960   19.2728 C   0  0  0  0  0  0  0  0  0  0  0  0
    8.1307  -14.1147   20.4224 O   0  0  0  0  0  0  0  0  0  0  0  0
    8.5967  -20.5645   20.2923 N   0  0  0  0  0  0  0  0  0  0  0  0
    7.9371  -19.3251   20.6577 C   0  0  0  0  0  0  0  0  0  0  0  0
    7.3659  -19.3660   21.7552 O   0  0  0  0  0  0  0  0  0  0  0  0
    7.9653  -18.1769   19.8009 C   0  0  0  0  0  0  0  0  0  0  0  0
    8.3967  -16.8390   20.3599 C   0  0  2  0  0  0  0  0  0  0  0  0
    8.3733  -15.9896   19.1363 N   0  0  0  0  0  0  0  0  0  0  0  0
    9.7400  -16.8160   20.9382 C   0  0  0  0  0  0  0  0  0  0  0  0
    9.8463  -17.2293   22.1521 O   0  0  0  0  0  0  0  0  0  0  0  0
   13.3968  -14.9510   17.7493 N   0  0  0  0  0  0  0  0  0  0  0  0
   13.6374  -14.4343   19.0459 C   0  0  0  0  0  0  0  0  0  0  0  0
   14.8033  -14.3118   19.4897 O   0  0  0  0  0  0  0  0  0  0  0  0
   12.4921  -14.0322   19.8927 C   0  0  0  0  0  0  0  0  0  0  0  0
   12.5597  -14.7530   21.1914 C   0  0  0  0  0  0  0  0  0  0  0  0
   12.1806  -16.2062   21.0988 C   0  0  2  0  0  0  0  0  0  0  0  0
   10.9484  -16.4064   20.3451 N   0  0  0  0  0  0  0  0  0  0  0  0
   11.9773  -16.7667   22.4513 C   0  0  0  0  0  0  0  0  0  0  0  0
   11.5021  -16.1083   23.3935 O   0  0  0  0  0  0  0  0  0  0  0  0
   12.3165  -18.0954   22.7439 O   0  0  0  0  0  0  0  0  0  0  0  0
  2  3  1  0
  2  1  1  0
  3  4  2  0
  5  6  1  0
  6  7  2  0
  6  8  1  0
  9  8  1  6
  9 11  1  0
 10  9  1  0
 10  3  1  0
 11 19  1  0
 11 12  2  0
 13 14  1  0
 14 16  1  0
 15 14  2  0
 17 16  1  0
 18 17  1  1
 19 18  1  0
 20 22  1  0
 20 18  1  0
 21 20  2  0
M  END
$$$$
