GNQ.pdb
     RDKit          3D

 22 21  0  0  1  0  0  0  0  0999 V2000
   12.7619  -20.3685   18.5281 N   0  0  0  0  0  0  0  0  0  0  0  0
   12.6375  -20.9692   19.8394 C   0  0  0  0  0  0  0  0  0  0  0  0
   13.1644  -20.0393   20.8598 C   0  0  0  0  0  0  0  0  0  0  0  0
   13.7176  -18.9617   20.5038 O   0  0  0  0  0  0  0  0  0  0  0  0
   10.8220  -18.1637   23.1770 N   0  0  0  0  0  0  0  0  0  0  0  0
   11.2430  -19.0258   24.2652 C   0  0  0  0  0  0  0  0  0  0  0  0
   10.3454  -19.2803   25.0791 O   0  0  0  0  0  0  0  0  0  0  0  0
   12.5847  -19.5200   24.3577 C   0  0  0  0  0  0  0  0  0  0  0  0
   13.5436  -19.2956   23.2092 C   0  0  2  0  0  0  0  0  0  0  0  0
   13.0708  -20.3140   22.2302 N   0  0  0  0  0  0  0  0  0  0  0  0
   14.9506  -19.5437   23.5227 C   0  0  0  0  0  0  0  0  0  0  0  0
   15.2756  -20.7655   23.7620 O   0  0  0  0  0  0  0  0  0  0  0  0
   21.8950  -17.5004   22.4871 N   0  0  0  0  0  0  0  0  0  0  0  0
   20.6249  -18.0615   22.2081 C   0  0  0  0  0  0  0  0  0  0  0  0
   20.1889  -18.1295   21.0347 O   0  0  0  0  0  0  0  0  0  0  0  0
   19.7968  -18.5765   23.3214 C   0  0  0  0  0  0  0  0  0  0  0  0
   18.3818  -18.1691   23.1152 C   0  0  0  0  0  0  0  0  0  0  0  0
   17.3912  -19.0158   23.8676 C   0  0  2  0  0  0  0  0  0  0  0  0
   16.0133  -18.6243   23.5945 N   0  0  0  0  0  0  0  0  0  0  0  0
   17.6152  -18.8895   25.3231 C   0  0  0  0  0  0  0  0  0  0  0  0
   18.2366  -19.7362   25.9893 O   0  0  0  0  0  0  0  0  0  0  0  0
   17.1287  -17.7859   26.0384 O   0  0  0  0  0  0  0  0  0  0  0  0
  2  3  1  0
  2  1  1  0
  3  4  2  0
  5  6  1  0
  6  7  2  0
  6  8  1  0
  9  8  1  1
  9 11  1  0
 10  9  1  0
 10  3  1  0
 11 19  1  0
 11 12  2  0
 13 14  1  0
 14 16  1  0
 15 14  2  0
 17 16  1  0
 18 17  1  6
 19 18  1  0
 20 22  1  0
 20 18  1  0
 21 20  2  0
M  END
$$$$
