GNQ.pdb
     RDKit          3D

 22 21  0  0  1  0  0  0  0  0999 V2000
   -3.9475  -27.5841   26.2989 N   0  0  0  0  0  0  0  0  0  0  0  0
   -5.1335  -27.8632   27.0806 C   0  0  0  0  0  0  0  0  0  0  0  0
   -5.1262  -27.0312   28.3020 C   0  0  0  0  0  0  0  0  0  0  0  0
   -6.0686  -27.1298   29.1364 O   0  0  0  0  0  0  0  0  0  0  0  0
   -2.9669  -26.9069   31.8877 N   0  0  0  0  0  0  0  0  0  0  0  0
   -2.1623  -25.9448   31.1584 C   0  0  0  0  0  0  0  0  0  0  0  0
   -0.9702  -25.9328   31.4924 O   0  0  0  0  0  0  0  0  0  0  0  0
   -2.7296  -25.1011   30.1488 C   0  0  0  0  0  0  0  0  0  0  0  0
   -4.1887  -25.2558   29.7802 C   0  0  2  0  0  0  0  0  0  0  0  0
   -4.0949  -26.1227   28.5724 N   0  0  0  0  0  0  0  0  0  0  0  0
   -4.8717  -24.0109   29.4292 C   0  0  0  0  0  0  0  0  0  0  0  0
   -4.6773  -23.5695   28.2362 O   0  0  0  0  0  0  0  0  0  0  0  0
   -9.7106  -24.6798   27.8464 N   0  0  0  0  0  0  0  0  0  0  0  0
   -9.9405  -23.2825   27.8184 C   0  0  0  0  0  0  0  0  0  0  0  0
  -11.0095  -22.8096   27.3658 O   0  0  0  0  0  0  0  0  0  0  0  0
   -8.9002  -22.3638   28.3322 C   0  0  0  0  0  0  0  0  0  0  0  0
   -7.7254  -23.1524   28.7890 C   0  0  0  0  0  0  0  0  0  0  0  0
   -6.7767  -22.3767   29.6623 C   0  0  2  0  0  0  0  0  0  0  0  0
   -5.7267  -23.2211   30.2198 N   0  0  0  0  0  0  0  0  0  0  0  0
   -7.5087  -21.7641   30.7909 C   0  0  0  0  0  0  0  0  0  0  0  0
   -7.7197  -22.3570   31.8636 O   0  0  0  0  0  0  0  0  0  0  0  0
   -8.0107  -20.4575   30.7055 O   0  0  0  0  0  0  0  0  0  0  0  0
  2  3  1  0
  2  1  1  0
  3  4  2  0
  5  6  1  0
  6  7  2  0
  6  8  1  0
  9  8  1  6
  9 11  1  0
 10  9  1  0
 10  3  1  0
 11 19  1  0
 11 12  2  0
 13 14  1  0
 14 16  1  0
 15 14  2  0
 17 16  1  0
 18 17  1  1
 19 18  1  0
 20 22  1  0
 20 18  1  0
 21 20  2  0
M  END
$$$$
