GNQ.pdb
     RDKit          3D

 22 21  0  0  1  0  0  0  0  0999 V2000
    7.4259  -13.0854   16.8698 N   0  0  0  0  0  0  0  0  0  0  0  0
    8.6677  -13.4304   17.5290 C   0  0  0  0  0  0  0  0  0  0  0  0
    8.4266  -14.5232   18.4942 C   0  0  0  0  0  0  0  0  0  0  0  0
    7.2442  -14.8636   18.7771 O   0  0  0  0  0  0  0  0  0  0  0  0
    8.3274  -19.3156   19.0296 N   0  0  0  0  0  0  0  0  0  0  0  0
    9.2770  -18.2980   18.6206 C   0  0  0  0  0  0  0  0  0  0  0  0
    9.4668  -18.2520   17.3981 O   0  0  0  0  0  0  0  0  0  0  0  0
    9.9181  -17.4408   19.5732 C   0  0  0  0  0  0  0  0  0  0  0  0
    9.1674  -16.2518   20.1311 C   0  0  2  0  0  0  0  0  0  0  0  0
    9.4791  -15.2066   19.1164 N   0  0  0  0  0  0  0  0  0  0  0  0
    9.6197  -15.7983   21.4462 C   0  0  0  0  0  0  0  0  0  0  0  0
   10.7404  -15.1670   21.4783 O   0  0  0  0  0  0  0  0  0  0  0  0
    6.3389  -12.6588   26.2853 N   0  0  0  0  0  0  0  0  0  0  0  0
    6.5216  -13.9020   25.6320 C   0  0  0  0  0  0  0  0  0  0  0  0
    5.8054  -14.8926   25.9098 O   0  0  0  0  0  0  0  0  0  0  0  0
    7.5771  -14.0348   24.6030 C   0  0  0  0  0  0  0  0  0  0  0  0
    8.4841  -15.1554   24.9663 C   0  0  0  0  0  0  0  0  0  0  0  0
    9.5484  -15.4315   23.9391 C   0  0  2  0  0  0  0  0  0  0  0  0
    8.9915  -15.9516   22.6958 N   0  0  0  0  0  0  0  0  0  0  0  0
   10.5078  -16.4304   24.4554 C   0  0  0  0  0  0  0  0  0  0  0  0
   10.5393  -17.6085   24.0582 O   0  0  0  0  0  0  0  0  0  0  0  0
   11.4489  -16.0912   25.4380 O   0  0  0  0  0  0  0  0  0  0  0  0
  2  3  1  0
  2  1  1  0
  3  4  2  0
  5  6  1  0
  6  7  2  0
  6  8  1  0
  9  8  1  6
  9 11  1  0
 10  9  1  0
 10  3  1  0
 11 19  1  0
 11 12  2  0
 13 14  1  0
 14 16  1  0
 15 14  2  0
 17 16  1  0
 18 17  1  1
 19 18  1  0
 20 22  1  0
 20 18  1  0
 21 20  2  0
M  END
$$$$
