GNQ.pdb
     RDKit          3D

 22 21  0  0  1  0  0  0  0  0999 V2000
    6.6089  -13.5703   19.5580 N   0  0  0  0  0  0  0  0  0  0  0  0
    8.0075  -13.7371   19.8923 C   0  0  0  0  0  0  0  0  0  0  0  0
    8.1432  -14.7607   20.9494 C   0  0  0  0  0  0  0  0  0  0  0  0
    7.1184  -15.1764   21.5585 O   0  0  0  0  0  0  0  0  0  0  0  0
    9.2175  -18.7121   20.6659 N   0  0  0  0  0  0  0  0  0  0  0  0
   10.4798  -18.0447   20.9228 C   0  0  0  0  0  0  0  0  0  0  0  0
   11.3781  -18.3479   20.1268 O   0  0  0  0  0  0  0  0  0  0  0  0
   10.6363  -17.1234   22.0090 C   0  0  0  0  0  0  0  0  0  0  0  0
    9.4652  -16.2652   22.4344 C   0  0  2  0  0  0  0  0  0  0  0  0
    9.3877  -15.2959   21.3060 N   0  0  0  0  0  0  0  0  0  0  0  0
    9.6587  -15.5344   23.6866 C   0  0  0  0  0  0  0  0  0  0  0  0
   10.7280  -14.8240   23.7740 O   0  0  0  0  0  0  0  0  0  0  0  0
    6.3034  -10.9691   26.7205 N   0  0  0  0  0  0  0  0  0  0  0  0
    6.2731  -12.3138   26.2768 C   0  0  0  0  0  0  0  0  0  0  0  0
    5.2310  -13.0042   26.3686 O   0  0  0  0  0  0  0  0  0  0  0  0
    7.4937  -12.9152   25.6947 C   0  0  0  0  0  0  0  0  0  0  0  0
    7.9826  -14.0017   26.5842 C   0  0  0  0  0  0  0  0  0  0  0  0
    9.1635  -14.7528   26.0314 C   0  0  2  0  0  0  0  0  0  0  0  0
    8.8271  -15.4930   24.8209 N   0  0  0  0  0  0  0  0  0  0  0  0
    9.6622  -15.7230   27.0287 C   0  0  0  0  0  0  0  0  0  0  0  0
    9.5572  -16.9543   26.8879 O   0  0  0  0  0  0  0  0  0  0  0  0
   10.2916  -15.2938   28.2059 O   0  0  0  0  0  0  0  0  0  0  0  0
  2  3  1  0
  2  1  1  0
  3  4  2  0
  5  6  1  0
  6  7  2  0
  6  8  1  0
  9  8  1  6
  9 11  1  0
 10  9  1  0
 10  3  1  0
 11 19  1  0
 11 12  2  0
 13 14  1  0
 14 16  1  0
 15 14  2  0
 17 16  1  0
 18 17  1  1
 19 18  1  0
 20 22  1  0
 20 18  1  0
 21 20  2  0
M  END
$$$$
