GNQ.pdb
     RDKit          3D

 22 21  0  0  1  0  0  0  0  0999 V2000
    4.5551  -20.3773   19.6582 N   0  0  0  0  0  0  0  0  0  0  0  0
    5.2016  -20.6379   20.9270 C   0  0  0  0  0  0  0  0  0  0  0  0
    5.5736  -19.3570   21.5632 C   0  0  0  0  0  0  0  0  0  0  0  0
    5.3123  -18.2666   20.9829 O   0  0  0  0  0  0  0  0  0  0  0  0
    8.0957  -17.4508   26.6209 N   0  0  0  0  0  0  0  0  0  0  0  0
    6.8564  -17.3563   25.8727 C   0  0  0  0  0  0  0  0  0  0  0  0
    6.1755  -16.3615   26.1544 O   0  0  0  0  0  0  0  0  0  0  0  0
    6.4861  -18.3437   24.9026 C   0  0  0  0  0  0  0  0  0  0  0  0
    6.4854  -17.9830   23.4334 C   0  0  2  0  0  0  0  0  0  0  0  0
    6.2158  -19.3075   22.8071 N   0  0  0  0  0  0  0  0  0  0  0  0
    7.7530  -17.4581   22.9263 C   0  0  0  0  0  0  0  0  0  0  0  0
    8.7221  -18.2992   22.8307 O   0  0  0  0  0  0  0  0  0  0  0  0
    7.1930  -12.2913   19.7430 N   0  0  0  0  0  0  0  0  0  0  0  0
    8.2704  -13.1506   19.4163 C   0  0  0  0  0  0  0  0  0  0  0  0
    9.1697  -12.7903   18.6208 O   0  0  0  0  0  0  0  0  0  0  0  0
    8.3360  -14.4984   20.0243 C   0  0  0  0  0  0  0  0  0  0  0  0
    9.2715  -14.4750   21.1797 C   0  0  0  0  0  0  0  0  0  0  0  0
    9.3455  -15.7793   21.9264 C   0  0  2  0  0  0  0  0  0  0  0  0
    8.0646  -16.1482   22.5176 N   0  0  0  0  0  0  0  0  0  0  0  0
   10.3355  -15.6846   23.0199 C   0  0  0  0  0  0  0  0  0  0  0  0
   10.0182  -15.6730   24.2224 O   0  0  0  0  0  0  0  0  0  0  0  0
   11.7089  -15.6024   22.7492 O   0  0  0  0  0  0  0  0  0  0  0  0
  2  3  1  0
  2  1  1  0
  3  4  2  0
  5  6  1  0
  6  7  2  0
  6  8  1  0
  9  8  1  1
  9 11  1  0
 10  9  1  0
 10  3  1  0
 11 19  1  0
 11 12  2  0
 13 14  1  0
 14 16  1  0
 15 14  2  0
 17 16  1  0
 18 17  1  1
 19 18  1  0
 20 22  1  0
 20 18  1  0
 21 20  2  0
M  END
$$$$
