GNQ.pdb
     RDKit          3D

 22 21  0  0  1  0  0  0  0  0999 V2000
    5.7559  -19.1594   20.5256 N   0  0  0  0  0  0  0  0  0  0  0  0
    5.5970  -17.8118   21.0302 C   0  0  0  0  0  0  0  0  0  0  0  0
    6.8786  -17.0860   20.9102 C   0  0  0  0  0  0  0  0  0  0  0  0
    7.9240  -17.7066   20.5694 O   0  0  0  0  0  0  0  0  0  0  0  0
    7.2675  -12.2305   18.7106 N   0  0  0  0  0  0  0  0  0  0  0  0
    7.7834  -13.4811   19.2344 C   0  0  0  0  0  0  0  0  0  0  0  0
    8.0278  -14.3265   18.3636 O   0  0  0  0  0  0  0  0  0  0  0  0
    7.9801  -13.6843   20.6391 C   0  0  0  0  0  0  0  0  0  0  0  0
    8.3199  -15.0660   21.1530 C   0  0  2  0  0  0  0  0  0  0  0  0
    6.9776  -15.7121   21.1645 N   0  0  0  0  0  0  0  0  0  0  0  0
    8.8843  -15.1011   22.5020 C   0  0  0  0  0  0  0  0  0  0  0  0
    8.0527  -15.2966   23.4642 O   0  0  0  0  0  0  0  0  0  0  0  0
    9.0154  -16.4195   27.0133 N   0  0  0  0  0  0  0  0  0  0  0  0
   10.0877  -17.3304   26.8514 C   0  0  0  0  0  0  0  0  0  0  0  0
   10.6796  -17.8189   27.8426 O   0  0  0  0  0  0  0  0  0  0  0  0
   10.5180  -17.7124   25.4878 C   0  0  0  0  0  0  0  0  0  0  0  0
    9.8943  -16.7958   24.4971 C   0  0  0  0  0  0  0  0  0  0  0  0
   10.8390  -15.7597   23.9510 C   0  0  2  0  0  0  0  0  0  0  0  0
   10.2259  -14.9554   22.9005 N   0  0  0  0  0  0  0  0  0  0  0  0
   12.0351  -16.4125   23.3783 C   0  0  0  0  0  0  0  0  0  0  0  0
   13.0188  -16.7455   24.0626 O   0  0  0  0  0  0  0  0  0  0  0  0
   12.1205  -16.6947   22.0073 O   0  0  0  0  0  0  0  0  0  0  0  0
  2  3  1  0
  2  1  1  0
  3  4  2  0
  5  6  1  0
  6  7  2  0
  6  8  1  0
  9  8  1  1
  9 11  1  0
 10  9  1  0
 10  3  1  0
 11 19  1  0
 11 12  2  0
 13 14  1  0
 14 16  1  0
 15 14  2  0
 17 16  1  0
 18 17  1  6
 19 18  1  0
 20 22  1  0
 20 18  1  0
 21 20  2  0
M  END
$$$$
