GNQ.pdb
     RDKit          3D

 22 21  0  0  1  0  0  0  0  0999 V2000
    7.7315  -20.1664   17.2476 N   0  0  0  0  0  0  0  0  0  0  0  0
    6.9135  -19.0618   17.7022 C   0  0  0  0  0  0  0  0  0  0  0  0
    7.7807  -18.0011   18.2558 C   0  0  0  0  0  0  0  0  0  0  0  0
    9.0134  -18.2183   18.4212 O   0  0  0  0  0  0  0  0  0  0  0  0
    9.3014  -13.0260   19.7143 N   0  0  0  0  0  0  0  0  0  0  0  0
    7.9722  -13.1566   19.1478 C   0  0  0  0  0  0  0  0  0  0  0  0
    7.4102  -12.0746   18.9333 O   0  0  0  0  0  0  0  0  0  0  0  0
    7.3937  -14.4386   18.8739 C   0  0  0  0  0  0  0  0  0  0  0  0
    8.2190  -15.6895   19.0809 C   0  0  2  0  0  0  0  0  0  0  0  0
    7.2770  -16.7428   18.6094 N   0  0  0  0  0  0  0  0  0  0  0  0
    8.5908  -15.9606   20.4693 C   0  0  0  0  0  0  0  0  0  0  0  0
    7.6444  -16.3527   21.2480 O   0  0  0  0  0  0  0  0  0  0  0  0
   11.4121  -20.4900   21.5649 N   0  0  0  0  0  0  0  0  0  0  0  0
   11.5156  -20.0644   22.9118 C   0  0  0  0  0  0  0  0  0  0  0  0
   11.9107  -20.8441   23.8103 O   0  0  0  0  0  0  0  0  0  0  0  0
   11.1503  -18.6745   23.2654 C   0  0  0  0  0  0  0  0  0  0  0  0
   10.7160  -17.9503   22.0417 C   0  0  0  0  0  0  0  0  0  0  0  0
   10.2074  -16.5595   22.3084 C   0  0  2  0  0  0  0  0  0  0  0  0
    9.8544  -15.8577   21.0799 N   0  0  0  0  0  0  0  0  0  0  0  0
   11.2422  -15.7629   23.0007 C   0  0  0  0  0  0  0  0  0  0  0  0
   12.0905  -15.0825   22.3971 O   0  0  0  0  0  0  0  0  0  0  0  0
   11.3191  -15.7342   24.4006 O   0  0  0  0  0  0  0  0  0  0  0  0
  2  3  1  0
  2  1  1  0
  3  4  2  0
  5  6  1  0
  6  7  2  0
  6  8  1  0
  9  8  1  1
  9 11  1  0
 10  9  1  0
 10  3  1  0
 11 19  1  0
 11 12  2  0
 13 14  1  0
 14 16  1  0
 15 14  2  0
 17 16  1  0
 18 17  1  6
 19 18  1  0
 20 22  1  0
 20 18  1  0
 21 20  2  0
M  END
$$$$
