GNQ.pdb
     RDKit          3D

 22 21  0  0  1  0  0  0  0  0999 V2000
    8.2805  -12.2386   19.2011 N   0  0  0  0  0  0  0  0  0  0  0  0
    8.2113  -13.6846   19.1910 C   0  0  0  0  0  0  0  0  0  0  0  0
    7.7481  -14.1653   20.5093 C   0  0  0  0  0  0  0  0  0  0  0  0
    7.1071  -13.3902   21.2724 O   0  0  0  0  0  0  0  0  0  0  0  0
    6.3706  -19.2785   23.1570 N   0  0  0  0  0  0  0  0  0  0  0  0
    5.9928  -17.9078   22.8688 C   0  0  0  0  0  0  0  0  0  0  0  0
    5.0582  -17.4887   23.5642 O   0  0  0  0  0  0  0  0  0  0  0  0
    6.6634  -17.1381   21.8633 C   0  0  0  0  0  0  0  0  0  0  0  0
    7.4518  -15.9110   22.2648 C   0  0  2  0  0  0  0  0  0  0  0  0
    7.9979  -15.4712   20.9504 N   0  0  0  0  0  0  0  0  0  0  0  0
    8.5583  -16.1631   23.1875 C   0  0  0  0  0  0  0  0  0  0  0  0
    8.9885  -17.3744   23.2460 O   0  0  0  0  0  0  0  0  0  0  0  0
    6.7125  -11.7427   25.3466 N   0  0  0  0  0  0  0  0  0  0  0  0
    6.6134  -12.4162   26.5886 C   0  0  0  0  0  0  0  0  0  0  0  0
    6.3174  -11.7999   27.6393 O   0  0  0  0  0  0  0  0  0  0  0  0
    6.8641  -13.8736   26.6477 C   0  0  0  0  0  0  0  0  0  0  0  0
    7.3519  -14.3458   25.3250 C   0  0  0  0  0  0  0  0  0  0  0  0
    8.7539  -14.8913   25.3551 C   0  0  2  0  0  0  0  0  0  0  0  0
    9.2312  -15.2556   24.0263 N   0  0  0  0  0  0  0  0  0  0  0  0
    8.8115  -16.1015   26.2018 C   0  0  0  0  0  0  0  0  0  0  0  0
    8.2821  -17.1799   25.8798 O   0  0  0  0  0  0  0  0  0  0  0  0
    9.4801  -16.0928   27.4343 O   0  0  0  0  0  0  0  0  0  0  0  0
  2  3  1  0
  2  1  1  0
  3  4  2  0
  5  6  1  0
  6  7  2  0
  6  8  1  0
  9  8  1  6
  9 11  1  0
 10  9  1  0
 10  3  1  0
 11 19  1  0
 11 12  2  0
 13 14  1  0
 14 16  1  0
 15 14  2  0
 17 16  1  0
 18 17  1  6
 19 18  1  0
 20 22  1  0
 20 18  1  0
 21 20  2  0
M  END
$$$$
