GNQ.pdb
     RDKit          3D

 22 21  0  0  1  0  0  0  0  0999 V2000
    1.1224  -20.7317   22.2733 N   0  0  0  0  0  0  0  0  0  0  0  0
    1.6536  -19.4026   22.0564 C   0  0  0  0  0  0  0  0  0  0  0  0
    3.1183  -19.4189   22.2523 C   0  0  0  0  0  0  0  0  0  0  0  0
    3.6991  -20.4943   22.5690 O   0  0  0  0  0  0  0  0  0  0  0  0
    8.2375  -18.0292   21.6447 N   0  0  0  0  0  0  0  0  0  0  0  0
    7.2499  -17.2149   20.9618 C   0  0  0  0  0  0  0  0  0  0  0  0
    7.7345  -16.4124   20.1532 O   0  0  0  0  0  0  0  0  0  0  0  0
    5.8482  -17.3544   21.2243 C   0  0  0  0  0  0  0  0  0  0  0  0
    5.3774  -18.3639   22.2479 C   0  0  2  0  0  0  0  0  0  0  0  0
    3.8987  -18.2661   22.0966 N   0  0  0  0  0  0  0  0  0  0  0  0
    5.7427  -18.0569   23.6306 C   0  0  0  0  0  0  0  0  0  0  0  0
    5.0372  -17.1575   24.2215 O   0  0  0  0  0  0  0  0  0  0  0  0
    6.1322  -21.4686   28.3763 N   0  0  0  0  0  0  0  0  0  0  0  0
    7.4636  -21.4038   27.8974 C   0  0  0  0  0  0  0  0  0  0  0  0
    8.3117  -22.2692   28.2184 O   0  0  0  0  0  0  0  0  0  0  0  0
    7.8613  -20.2943   27.0023 C   0  0  0  0  0  0  0  0  0  0  0  0
    6.6842  -19.4248   26.7388 C   0  0  0  0  0  0  0  0  0  0  0  0
    6.9766  -18.2710   25.8183 C   0  0  2  0  0  0  0  0  0  0  0  0
    6.7656  -18.6175   24.4176 N   0  0  0  0  0  0  0  0  0  0  0  0
    8.3832  -17.8428   25.9692 C   0  0  0  0  0  0  0  0  0  0  0  0
    8.8430  -17.3879   27.0316 O   0  0  0  0  0  0  0  0  0  0  0  0
    9.2866  -17.9310   24.9004 O   0  0  0  0  0  0  0  0  0  0  0  0
  2  3  1  0
  2  1  1  0
  3  4  2  0
  5  6  1  0
  6  7  2  0
  6  8  1  0
  9  8  1  6
  9 11  1  0
 10  9  1  0
 10  3  1  0
 11 19  1  0
 11 12  2  0
 13 14  1  0
 14 16  1  0
 15 14  2  0
 17 16  1  0
 18 17  1  1
 19 18  1  0
 20 22  1  0
 20 18  1  0
 21 20  2  0
M  END
$$$$
