GNQ.pdb
     RDKit          3D

 22 21  0  0  1  0  0  0  0  0999 V2000
   11.2422  -17.1446   18.9124 N   0  0  0  0  0  0  0  0  0  0  0  0
   11.1672  -18.0444   20.0440 C   0  0  0  0  0  0  0  0  0  0  0  0
   10.0793  -17.6125   20.9461 C   0  0  0  0  0  0  0  0  0  0  0  0
    9.5566  -16.4724   20.8013 O   0  0  0  0  0  0  0  0  0  0  0  0
    5.4553  -18.6086   23.8089 N   0  0  0  0  0  0  0  0  0  0  0  0
    6.7272  -19.2112   24.1608 C   0  0  0  0  0  0  0  0  0  0  0  0
    6.7576  -19.6863   25.3036 O   0  0  0  0  0  0  0  0  0  0  0  0
    7.8273  -19.2366   23.2430 C   0  0  0  0  0  0  0  0  0  0  0  0
    8.4979  -17.9400   22.8458 C   0  0  2  0  0  0  0  0  0  0  0  0
    9.5985  -18.4355   21.9727 N   0  0  0  0  0  0  0  0  0  0  0  0
    9.0681  -17.1753   23.9546 C   0  0  0  0  0  0  0  0  0  0  0  0
   10.2827  -17.4536   24.2754 O   0  0  0  0  0  0  0  0  0  0  0  0
    5.5814  -12.2885   25.6051 N   0  0  0  0  0  0  0  0  0  0  0  0
    6.6856  -12.6179   26.4287 C   0  0  0  0  0  0  0  0  0  0  0  0
    7.2147  -11.7631   27.1773 O   0  0  0  0  0  0  0  0  0  0  0  0
    7.2250  -13.9959   26.4050 C   0  0  0  0  0  0  0  0  0  0  0  0
    8.6039  -13.9781   25.8491 C   0  0  0  0  0  0  0  0  0  0  0  0
    9.2086  -15.3459   25.6832 C   0  0  2  0  0  0  0  0  0  0  0  0
    8.4705  -16.1613   24.7257 N   0  0  0  0  0  0  0  0  0  0  0  0
    9.2115  -16.0618   26.9764 C   0  0  0  0  0  0  0  0  0  0  0  0
    9.8889  -15.6948   27.9528 O   0  0  0  0  0  0  0  0  0  0  0  0
    8.4342  -17.2128   27.1696 O   0  0  0  0  0  0  0  0  0  0  0  0
  2  3  1  0
  2  1  1  0
  3  4  2  0
  5  6  1  0
  6  7  2  0
  6  8  1  0
  9  8  1  1
  9 11  1  0
 10  9  1  0
 10  3  1  0
 11 19  1  0
 11 12  2  0
 13 14  1  0
 14 16  1  0
 15 14  2  0
 17 16  1  0
 18 17  1  1
 19 18  1  0
 20 22  1  0
 20 18  1  0
 21 20  2  0
M  END
$$$$
