GNQ.pdb
     RDKit          3D

 22 21  0  0  1  0  0  0  0  0999 V2000
   -7.5233  -20.4565   20.8196 N   0  0  0  0  0  0  0  0  0  0  0  0
   -6.1139  -20.3284   21.1248 C   0  0  0  0  0  0  0  0  0  0  0  0
   -5.7931  -21.1349   22.3208 C   0  0  0  0  0  0  0  0  0  0  0  0
   -5.9707  -22.3848   22.3034 O   0  0  0  0  0  0  0  0  0  0  0  0
   -2.7054  -22.9017   23.5718 N   0  0  0  0  0  0  0  0  0  0  0  0
   -2.4884  -21.7749   24.4594 C   0  0  0  0  0  0  0  0  0  0  0  0
   -1.2951  -21.5467   24.6972 O   0  0  0  0  0  0  0  0  0  0  0  0
   -3.5806  -21.0167   24.9937 C   0  0  0  0  0  0  0  0  0  0  0  0
   -5.0010  -21.4224   24.6674 C   0  0  2  0  0  0  0  0  0  0  0  0
   -5.2906  -20.5539   23.4922 N   0  0  0  0  0  0  0  0  0  0  0  0
   -5.9780  -21.1503   25.7214 C   0  0  0  0  0  0  0  0  0  0  0  0
   -6.2202  -19.9111   25.9697 O   0  0  0  0  0  0  0  0  0  0  0  0
  -12.0775  -22.0966   26.2961 N   0  0  0  0  0  0  0  0  0  0  0  0
  -10.9781  -21.7947   25.4559 C   0  0  0  0  0  0  0  0  0  0  0  0
  -11.0068  -22.0561   24.2302 O   0  0  0  0  0  0  0  0  0  0  0  0
   -9.7731  -21.1595   26.0348 C   0  0  0  0  0  0  0  0  0  0  0  0
   -9.1177  -22.1068   26.9749 C   0  0  0  0  0  0  0  0  0  0  0  0
   -7.7559  -21.6608   27.4339 C   0  0  2  0  0  0  0  0  0  0  0  0
   -6.7040  -22.0637   26.5079 N   0  0  0  0  0  0  0  0  0  0  0  0
   -7.4447  -22.2503   28.7531 C   0  0  0  0  0  0  0  0  0  0  0  0
   -6.7225  -23.2530   28.8942 O   0  0  0  0  0  0  0  0  0  0  0  0
   -7.9585  -21.6961   29.9343 O   0  0  0  0  0  0  0  0  0  0  0  0
  2  3  1  0
  2  1  1  0
  3  4  2  0
  5  6  1  0
  6  7  2  0
  6  8  1  0
  9  8  1  1
  9 11  1  0
 10  9  1  0
 10  3  1  0
 11 19  1  0
 11 12  2  0
 13 14  1  0
 14 16  1  0
 15 14  2  0
 17 16  1  0
 18 17  1  6
 19 18  1  0
 20 22  1  0
 20 18  1  0
 21 20  2  0
M  END
$$$$
