CSW.pdb
     RDKit          3D

 27 28  0  0  1  0  0  0  0  0999 V2000
    7.1684  -13.8390   18.2683 N   0  0  0  0  0  0  0  0  0  0  0  0
    8.4955  -14.2292   18.6515 C   0  0  1  0  0  0  0  0  0  0  0  0
    9.2279  -12.9861   19.1703 C   0  0  0  0  0  0  0  0  0  0  0  0
    8.3361  -12.3511   20.6239 S   0  0  0  0  0  0  0  0  0  0  0  0
    8.4510  -15.2532   19.7222 C   0  0  0  0  0  0  0  0  0  0  0  0
    7.4175  -15.2939   20.4657 O   0  0  0  0  0  0  0  0  0  0  0  0
   11.4989  -18.0192   20.6714 O   0  0  0  0  0  0  0  0  0  0  0  0
   10.1694  -18.3412   20.8190 C   0  0  0  0  0  0  0  0  0  0  0  0
    9.3864  -17.0783   21.1008 C   0  0  2  0  0  0  0  0  0  0  0  0
    9.4930  -16.1852   19.9615 N   0  0  0  0  0  0  0  0  0  0  0  0
    9.9147  -16.4534   22.3499 C   0  0  0  0  0  0  0  0  0  0  0  0
   10.6041  -15.4002   22.2969 O   0  0  0  0  0  0  0  0  0  0  0  0
    9.6423  -17.0421   23.5878 N   0  0  0  0  0  0  0  0  0  0  0  0
   10.1284  -16.4513   24.8486 C   0  0  1  0  0  0  0  0  0  0  0  0
    9.7284  -15.0252   24.8769 C   0  0  0  0  0  0  0  0  0  0  0  0
    8.3597  -14.7538   25.2941 C   0  0  0  0  0  0  0  0  0  0  0  0
    7.2992  -15.6547   25.2910 C   0  0  0  0  0  0  0  0  0  0  0  0
    6.2004  -15.0284   25.7098 N   0  0  0  0  0  0  0  0  0  0  0  0
    6.4945  -13.7568   25.9877 C   0  0  0  0  0  0  0  0  0  0  0  0
    5.6731  -12.7310   26.4688 C   0  0  0  0  0  0  0  0  0  0  0  0
    6.2028  -11.5012   26.7000 C   0  0  0  0  0  0  0  0  0  0  0  0
    7.5459  -11.2873   26.4547 C   0  0  0  0  0  0  0  0  0  0  0  0
    8.3671  -12.2840   25.9815 C   0  0  0  0  0  0  0  0  0  0  0  0
    7.8338  -13.5532   25.7391 C   0  0  0  0  0  0  0  0  0  0  0  0
    9.7410  -17.2780   25.9844 C   0  0  0  0  0  0  0  0  0  0  0  0
    8.9309  -18.2295   25.9385 O   0  0  0  0  0  0  0  0  0  0  0  0
   10.3093  -17.0022   27.2402 O   0  0  0  0  0  0  0  0  0  0  0  0
  2  1  1  1
  3  2  1  0
  3  4  1  0
  5  6  2  0
  5  2  1  0
  7  8  1  0
  9  8  1  6
  9 10  1  0
 10  5  1  0
 11 13  1  0
 11  9  1  0
 12 11  2  0
 14 13  1  0
 14 25  1  0
 14 15  1  1
 16 24  1  0
 16 15  1  0
 17 16  2  0
 18 17  1  0
 18 19  1  0
 19 24  2  0
 20 19  1  0
 20 21  2  0
 21 22  1  0
 22 23  2  0
 24 23  1  0
 25 27  1  0
 26 25  2  0
M  END
$$$$
