CSW.pdb
     RDKit          3D

 27 28  0  0  1  0  0  0  0  0999 V2000
    7.4749  -14.7502   18.3790 N   0  0  0  0  0  0  0  0  0  0  0  0
    8.4085  -14.4225   19.4190 C   0  0  1  0  0  0  0  0  0  0  0  0
    7.9708  -13.0970   20.0534 C   0  0  0  0  0  0  0  0  0  0  0  0
    8.4174  -11.7390   18.9274 S   0  0  0  0  0  0  0  0  0  0  0  0
    8.4268  -15.4796   20.4577 C   0  0  0  0  0  0  0  0  0  0  0  0
    7.3193  -16.0229   20.7751 O   0  0  0  0  0  0  0  0  0  0  0  0
   11.6074  -17.6762   21.4076 O   0  0  0  0  0  0  0  0  0  0  0  0
   10.3540  -18.1218   21.7588 C   0  0  0  0  0  0  0  0  0  0  0  0
    9.5001  -16.9340   22.1427 C   0  0  2  0  0  0  0  0  0  0  0  0
    9.6063  -15.9159   21.1136 N   0  0  0  0  0  0  0  0  0  0  0  0
    9.9492  -16.4291   23.4744 C   0  0  0  0  0  0  0  0  0  0  0  0
   10.7974  -15.5010   23.5545 O   0  0  0  0  0  0  0  0  0  0  0  0
    9.4242  -16.9910   24.6414 N   0  0  0  0  0  0  0  0  0  0  0  0
    9.9427  -16.6306   25.9741 C   0  0  1  0  0  0  0  0  0  0  0  0
    8.7892  -16.4358   26.8831 C   0  0  0  0  0  0  0  0  0  0  0  0
    7.7105  -15.5988   26.3763 C   0  0  0  0  0  0  0  0  0  0  0  0
    6.5438  -16.0368   25.7573 C   0  0  0  0  0  0  0  0  0  0  0  0
    5.8185  -14.9762   25.4050 N   0  0  0  0  0  0  0  0  0  0  0  0
    6.4585  -13.8626   25.7666 C   0  0  0  0  0  0  0  0  0  0  0  0
    6.0800  -12.5232   25.6203 C   0  0  0  0  0  0  0  0  0  0  0  0
    6.8946  -11.5418   26.0890 C   0  0  0  0  0  0  0  0  0  0  0  0
    8.0838  -11.8867   26.7024 C   0  0  0  0  0  0  0  0  0  0  0  0
    8.4712  -13.1977   26.8540 C   0  0  0  0  0  0  0  0  0  0  0  0
    7.6421  -14.2163   26.3755 C   0  0  0  0  0  0  0  0  0  0  0  0
   10.9744  -17.5703   26.3936 C   0  0  0  0  0  0  0  0  0  0  0  0
   11.2703  -18.6279   25.7957 O   0  0  0  0  0  0  0  0  0  0  0  0
   11.7070  -17.2864   27.5593 O   0  0  0  0  0  0  0  0  0  0  0  0
  2  1  1  6
  3  2  1  0
  3  4  1  0
  5  6  2  0
  5  2  1  0
  7  8  1  0
  9  8  1  6
  9 10  1  0
 10  5  1  0
 11 13  1  0
 11  9  1  0
 12 11  2  0
 14 13  1  0
 14 25  1  0
 14 15  1  1
 16 24  1  0
 16 15  1  0
 17 16  2  0
 18 17  1  0
 18 19  1  0
 19 24  2  0
 20 19  1  0
 20 21  2  0
 21 22  1  0
 22 23  2  0
 24 23  1  0
 25 27  1  0
 26 25  2  0
M  END
$$$$
