CSW.pdb
     RDKit          3D

 27 28  0  0  1  0  0  0  0  0999 V2000
    7.3977  -14.9863   17.9712 N   0  0  0  0  0  0  0  0  0  0  0  0
    8.4994  -14.7335   18.8559 C   0  0  1  0  0  0  0  0  0  0  0  0
    8.4184  -13.2727   19.3144 C   0  0  0  0  0  0  0  0  0  0  0  0
    8.9072  -12.2009   17.9273 S   0  0  0  0  0  0  0  0  0  0  0  0
    8.4339  -15.6224   20.0401 C   0  0  0  0  0  0  0  0  0  0  0  0
    7.3060  -15.7698   20.6133 O   0  0  0  0  0  0  0  0  0  0  0  0
   11.4615  -18.1781   21.3533 O   0  0  0  0  0  0  0  0  0  0  0  0
   10.1251  -18.4606   21.5188 C   0  0  0  0  0  0  0  0  0  0  0  0
    9.3715  -17.1660   21.7268 C   0  0  2  0  0  0  0  0  0  0  0  0
    9.5550  -16.3137   20.5662 N   0  0  0  0  0  0  0  0  0  0  0  0
    9.8655  -16.5175   22.9779 C   0  0  0  0  0  0  0  0  0  0  0  0
   10.5717  -15.4755   22.9233 O   0  0  0  0  0  0  0  0  0  0  0  0
    9.5420  -17.0713   24.2197 N   0  0  0  0  0  0  0  0  0  0  0  0
   10.1118  -16.5440   25.4735 C   0  0  1  0  0  0  0  0  0  0  0  0
    9.7531  -15.1106   25.5790 C   0  0  0  0  0  0  0  0  0  0  0  0
    8.3630  -14.8221   25.9037 C   0  0  0  0  0  0  0  0  0  0  0  0
    7.2879  -15.6986   25.7930 C   0  0  0  0  0  0  0  0  0  0  0  0
    6.1739  -15.0616   26.1509 N   0  0  0  0  0  0  0  0  0  0  0  0
    6.4719  -13.8064   26.4918 C   0  0  0  0  0  0  0  0  0  0  0  0
    5.6377  -12.7783   26.9454 C   0  0  0  0  0  0  0  0  0  0  0  0
    6.1733  -11.5686   27.2557 C   0  0  0  0  0  0  0  0  0  0  0  0
    7.5348  -11.3770   27.1166 C   0  0  0  0  0  0  0  0  0  0  0  0
    8.3687  -12.3762   26.6718 C   0  0  0  0  0  0  0  0  0  0  0  0
    7.8297  -13.6249   26.3489 C   0  0  0  0  0  0  0  0  0  0  0  0
    9.7640  -17.4056   26.5962 C   0  0  0  0  0  0  0  0  0  0  0  0
   10.1436  -17.2384   27.7758 O   0  0  0  0  0  0  0  0  0  0  0  0
    8.9386  -18.5182   26.3578 O   0  0  0  0  0  0  0  0  0  0  0  0
  2  1  1  6
  3  2  1  0
  3  4  1  0
  5  6  2  0
  5  2  1  0
  7  8  1  0
  9  8  1  6
  9 10  1  0
 10  5  1  0
 11 13  1  0
 11  9  1  0
 12 11  2  0
 14 13  1  0
 14 25  1  0
 14 15  1  1
 16 24  1  0
 16 15  1  0
 17 16  2  0
 18 17  1  0
 18 19  1  0
 19 24  2  0
 20 19  1  0
 20 21  2  0
 21 22  1  0
 22 23  2  0
 24 23  1  0
 25 27  1  0
 26 25  2  0
M  END
$$$$
