CSW.pdb
     RDKit          3D

 27 28  0  0  1  0  0  0  0  0999 V2000
    6.6582  -14.7274   19.6961 N   0  0  0  0  0  0  0  0  0  0  0  0
    8.0372  -14.7102   20.0939 C   0  0  1  0  0  0  0  0  0  0  0  0
    8.3561  -13.3182   20.6520 C   0  0  0  0  0  0  0  0  0  0  0  0
    7.4520  -13.0987   22.2160 S   0  0  0  0  0  0  0  0  0  0  0  0
    8.2922  -15.7275   21.1413 C   0  0  0  0  0  0  0  0  0  0  0  0
    7.2920  -16.1863   21.7828 O   0  0  0  0  0  0  0  0  0  0  0  0
   11.9473  -17.4793   21.8112 O   0  0  0  0  0  0  0  0  0  0  0  0
   10.8112  -18.1902   22.1225 C   0  0  0  0  0  0  0  0  0  0  0  0
    9.7140  -17.2212   22.5028 C   0  0  2  0  0  0  0  0  0  0  0  0
    9.5843  -16.2142   21.4654 N   0  0  0  0  0  0  0  0  0  0  0  0
   10.0441  -16.6168   23.8278 C   0  0  0  0  0  0  0  0  0  0  0  0
   10.7757  -15.5937   23.9005 O   0  0  0  0  0  0  0  0  0  0  0  0
    9.5373  -17.1911   24.9968 N   0  0  0  0  0  0  0  0  0  0  0  0
    9.9529  -16.7221   26.3317 C   0  0  1  0  0  0  0  0  0  0  0  0
    8.7364  -16.5304   27.1552 C   0  0  0  0  0  0  0  0  0  0  0  0
    7.7185  -15.6514   26.5964 C   0  0  0  0  0  0  0  0  0  0  0  0
    6.5607  -16.0432   25.9315 C   0  0  0  0  0  0  0  0  0  0  0  0
    5.8990  -14.9550   25.5405 N   0  0  0  0  0  0  0  0  0  0  0  0
    6.5721  -13.8673   25.9206 C   0  0  0  0  0  0  0  0  0  0  0  0
    6.2603  -12.5140   25.7480 C   0  0  0  0  0  0  0  0  0  0  0  0
    7.0973  -11.5651   26.2436 C   0  0  0  0  0  0  0  0  0  0  0  0
    8.2430  -11.9565   26.9099 C   0  0  0  0  0  0  0  0  0  0  0  0
    8.5647  -13.2819   27.0879 C   0  0  0  0  0  0  0  0  0  0  0  0
    7.7120  -14.2673   26.5821 C   0  0  0  0  0  0  0  0  0  0  0  0
   10.9995  -17.5795   26.8730 C   0  0  0  0  0  0  0  0  0  0  0  0
   11.3456  -18.6817   26.3945 O   0  0  0  0  0  0  0  0  0  0  0  0
   11.6871  -17.1549   28.0232 O   0  0  0  0  0  0  0  0  0  0  0  0
  2  1  1  1
  3  2  1  0
  3  4  1  0
  5  6  2  0
  5  2  1  0
  7  8  1  0
  9  8  1  6
  9 10  1  0
 10  5  1  0
 11 13  1  0
 11  9  1  0
 12 11  2  0
 14 13  1  0
 14 25  1  0
 14 15  1  1
 16 24  1  0
 16 15  1  0
 17 16  2  0
 18 17  1  0
 18 19  1  0
 19 24  2  0
 20 19  1  0
 20 21  2  0
 21 22  1  0
 22 23  2  0
 24 23  1  0
 25 27  1  0
 26 25  2  0
M  END
$$$$
