CSW.pdb
     RDKit          3D

 27 28  0  0  1  0  0  0  0  0999 V2000
    6.7599  -13.8338   19.0275 N   0  0  0  0  0  0  0  0  0  0  0  0
    8.0950  -14.1528   19.4473 C   0  0  1  0  0  0  0  0  0  0  0  0
    8.7706  -12.8584   19.9152 C   0  0  0  0  0  0  0  0  0  0  0  0
    7.8297  -12.1878   21.3211 S   0  0  0  0  0  0  0  0  0  0  0  0
    8.0734  -15.1254   20.5655 C   0  0  0  0  0  0  0  0  0  0  0  0
    6.9822  -15.2740   21.2054 O   0  0  0  0  0  0  0  0  0  0  0  0
   10.9998  -17.8774   21.1800 O   0  0  0  0  0  0  0  0  0  0  0  0
    9.7219  -18.1655   21.6008 C   0  0  0  0  0  0  0  0  0  0  0  0
    9.0388  -16.8806   22.0125 C   0  0  2  0  0  0  0  0  0  0  0  0
    9.1979  -15.8952   20.9586 N   0  0  0  0  0  0  0  0  0  0  0  0
    9.6272  -16.4153   23.3037 C   0  0  0  0  0  0  0  0  0  0  0  0
   10.4943  -15.5014   23.3198 O   0  0  0  0  0  0  0  0  0  0  0  0
    9.2127  -16.9988   24.5041 N   0  0  0  0  0  0  0  0  0  0  0  0
    9.9020  -16.7201   25.7777 C   0  0  1  0  0  0  0  0  0  0  0  0
    8.8783  -16.3892   26.7961 C   0  0  0  0  0  0  0  0  0  0  0  0
    7.7982  -15.5167   26.3564 C   0  0  0  0  0  0  0  0  0  0  0  0
    6.6220  -15.9092   25.7249 C   0  0  0  0  0  0  0  0  0  0  0  0
    5.8984  -14.8251   25.4493 N   0  0  0  0  0  0  0  0  0  0  0  0
    6.5485  -13.7396   25.8731 C   0  0  0  0  0  0  0  0  0  0  0  0
    6.1755  -12.3919   25.8166 C   0  0  0  0  0  0  0  0  0  0  0  0
    7.0008  -11.4459   26.3367 C   0  0  0  0  0  0  0  0  0  0  0  0
    8.1953  -11.8346   26.9128 C   0  0  0  0  0  0  0  0  0  0  0  0
    8.5773  -13.1544   26.9763 C   0  0  0  0  0  0  0  0  0  0  0  0
    7.7373  -14.1367   26.4441 C   0  0  0  0  0  0  0  0  0  0  0  0
   10.8420  -17.7873   26.0956 C   0  0  0  0  0  0  0  0  0  0  0  0
   10.9550  -18.8590   25.4612 O   0  0  0  0  0  0  0  0  0  0  0  0
   11.6984  -17.6212   27.1979 O   0  0  0  0  0  0  0  0  0  0  0  0
  2  1  1  1
  3  2  1  0
  3  4  1  0
  5  6  2  0
  5  2  1  0
  7  8  1  0
  9  8  1  6
  9 10  1  0
 10  5  1  0
 11 13  1  0
 11  9  1  0
 12 11  2  0
 14 13  1  0
 14 25  1  0
 14 15  1  1
 16 24  1  0
 16 15  1  0
 17 16  2  0
 18 17  1  0
 18 19  1  0
 19 24  2  0
 20 19  1  0
 20 21  2  0
 21 22  1  0
 22 23  2  0
 24 23  1  0
 25 27  1  0
 26 25  2  0
M  END
$$$$
