CSW.pdb
     RDKit          3D

 27 28  0  0  1  0  0  0  0  0999 V2000
    7.4794  -14.8135   18.0623 N   0  0  0  0  0  0  0  0  0  0  0  0
    8.4472  -14.5020   19.0757 C   0  0  1  0  0  0  0  0  0  0  0  0
    8.0239  -13.1938   19.7542 C   0  0  0  0  0  0  0  0  0  0  0  0
    8.5932  -11.7994   18.7330 S   0  0  0  0  0  0  0  0  0  0  0  0
    8.5089  -15.5814   20.0895 C   0  0  0  0  0  0  0  0  0  0  0  0
    7.4130  -16.1141   20.4607 O   0  0  0  0  0  0  0  0  0  0  0  0
   11.7979  -17.7638   21.0607 O   0  0  0  0  0  0  0  0  0  0  0  0
   10.5309  -18.2253   21.3341 C   0  0  0  0  0  0  0  0  0  0  0  0
    9.6521  -17.0538   21.7117 C   0  0  2  0  0  0  0  0  0  0  0  0
    9.7174  -16.0499   20.6653 N   0  0  0  0  0  0  0  0  0  0  0  0
   10.1068  -16.5163   23.0286 C   0  0  0  0  0  0  0  0  0  0  0  0
   10.8476  -15.4987   23.0836 O   0  0  0  0  0  0  0  0  0  0  0  0
    9.7074  -17.1476   24.2098 N   0  0  0  0  0  0  0  0  0  0  0  0
   10.1399  -16.6587   25.5322 C   0  0  1  0  0  0  0  0  0  0  0  0
    9.8293  -15.2126   25.6161 C   0  0  0  0  0  0  0  0  0  0  0  0
    8.4166  -14.8654   25.6849 C   0  0  0  0  0  0  0  0  0  0  0  0
    7.3418  -15.7339   25.5212 C   0  0  0  0  0  0  0  0  0  0  0  0
    6.2085  -15.0407   25.6213 N   0  0  0  0  0  0  0  0  0  0  0  0
    6.4935  -13.7563   25.8441 C   0  0  0  0  0  0  0  0  0  0  0  0
    5.6353  -12.6669   26.0320 C   0  0  0  0  0  0  0  0  0  0  0  0
    6.1582  -11.4349   26.2669 C   0  0  0  0  0  0  0  0  0  0  0  0
    7.5307  -11.2817   26.3156 C   0  0  0  0  0  0  0  0  0  0  0  0
    8.3883  -12.3413   26.1326 C   0  0  0  0  0  0  0  0  0  0  0  0
    7.8626  -13.6136   25.8896 C   0  0  0  0  0  0  0  0  0  0  0  0
    9.6222  -17.5170   26.5900 C   0  0  0  0  0  0  0  0  0  0  0  0
    8.7933  -18.4389   26.4273 O   0  0  0  0  0  0  0  0  0  0  0  0
   10.0758  -17.3102   27.9044 O   0  0  0  0  0  0  0  0  0  0  0  0
  2  1  1  6
  3  2  1  0
  3  4  1  0
  5  6  2  0
  5  2  1  0
  7  8  1  0
  9  8  1  6
  9 10  1  0
 10  5  1  0
 11 13  1  0
 11  9  1  0
 12 11  2  0
 14 13  1  0
 14 25  1  0
 14 15  1  1
 16 24  1  0
 16 15  1  0
 17 16  2  0
 18 17  1  0
 18 19  1  0
 19 24  2  0
 20 19  1  0
 20 21  2  0
 21 22  1  0
 22 23  2  0
 24 23  1  0
 25 27  1  0
 26 25  2  0
M  END
$$$$
