CSW.pdb
     RDKit          3D

 27 28  0  0  1  0  0  0  0  0999 V2000
    7.1492  -14.6480   17.8027 N   0  0  0  0  0  0  0  0  0  0  0  0
    8.2834  -14.3892   18.6435 C   0  0  1  0  0  0  0  0  0  0  0  0
    8.1915  -12.9405   19.1371 C   0  0  0  0  0  0  0  0  0  0  0  0
    9.5808  -12.6234   20.2688 S   0  0  0  0  0  0  0  0  0  0  0  0
    8.2895  -15.3040   19.8098 C   0  0  0  0  0  0  0  0  0  0  0  0
    7.2027  -15.4513   20.4576 O   0  0  0  0  0  0  0  0  0  0  0  0
   11.4085  -17.8727   20.9088 O   0  0  0  0  0  0  0  0  0  0  0  0
   10.0829  -18.1778   21.1157 C   0  0  0  0  0  0  0  0  0  0  0  0
    9.3215  -16.9000   21.3890 C   0  0  2  0  0  0  0  0  0  0  0  0
    9.4356  -16.0200   20.2403 N   0  0  0  0  0  0  0  0  0  0  0  0
    9.8666  -16.2712   22.6289 C   0  0  0  0  0  0  0  0  0  0  0  0
   10.5947  -15.2453   22.5597 O   0  0  0  0  0  0  0  0  0  0  0  0
    9.5667  -16.8255   23.8763 N   0  0  0  0  0  0  0  0  0  0  0  0
   10.1036  -16.2543   25.1255 C   0  0  1  0  0  0  0  0  0  0  0  0
    9.6592  -14.8442   25.2190 C   0  0  0  0  0  0  0  0  0  0  0  0
    8.2648  -14.6367   25.5845 C   0  0  0  0  0  0  0  0  0  0  0  0
    7.2503  -15.5886   25.5533 C   0  0  0  0  0  0  0  0  0  0  0  0
    6.1080  -15.0134   25.9263 N   0  0  0  0  0  0  0  0  0  0  0  0
    6.3296  -13.7266   26.2014 C   0  0  0  0  0  0  0  0  0  0  0  0
    5.4424  -12.7382   26.6424 C   0  0  0  0  0  0  0  0  0  0  0  0
    5.9029  -11.4820   26.8795 C   0  0  0  0  0  0  0  0  0  0  0  0
    7.2418  -11.2045   26.6798 C   0  0  0  0  0  0  0  0  0  0  0  0
    8.1271  -12.1637   26.2463 C   0  0  0  0  0  0  0  0  0  0  0  0
    7.6654  -13.4596   25.9983 C   0  0  0  0  0  0  0  0  0  0  0  0
    9.8081  -17.1257   26.2555 C   0  0  0  0  0  0  0  0  0  0  0  0
    9.0663  -18.1314   26.2137 O   0  0  0  0  0  0  0  0  0  0  0  0
   10.3914  -16.8316   27.5003 O   0  0  0  0  0  0  0  0  0  0  0  0
  2  1  1  6
  3  2  1  0
  3  4  1  0
  5  6  2  0
  5  2  1  0
  7  8  1  0
  9  8  1  6
  9 10  1  0
 10  5  1  0
 11 13  1  0
 11  9  1  0
 12 11  2  0
 14 13  1  0
 14 25  1  0
 14 15  1  1
 16 24  1  0
 16 15  1  0
 17 16  2  0
 18 17  1  0
 18 19  1  0
 19 24  2  0
 20 19  1  0
 20 21  2  0
 21 22  1  0
 22 23  2  0
 24 23  1  0
 25 27  1  0
 26 25  2  0
M  END
$$$$
