CSW.pdb
     RDKit          3D

 27 28  0  0  1  0  0  0  0  0999 V2000
    6.5108  -14.2811   19.5012 N   0  0  0  0  0  0  0  0  0  0  0  0
    7.9137  -14.4847   19.7265 C   0  0  1  0  0  0  0  0  0  0  0  0
    8.5527  -13.1224   20.0214 C   0  0  0  0  0  0  0  0  0  0  0  0
    7.8127  -12.4511   21.5423 S   0  0  0  0  0  0  0  0  0  0  0  0
    8.1323  -15.3879   20.8812 C   0  0  0  0  0  0  0  0  0  0  0  0
    7.1912  -15.5074   21.7311 O   0  0  0  0  0  0  0  0  0  0  0  0
   11.5457  -17.6200   21.4282 O   0  0  0  0  0  0  0  0  0  0  0  0
   10.3529  -18.1874   21.8135 C   0  0  0  0  0  0  0  0  0  0  0  0
    9.3786  -17.0874   22.1715 C   0  0  2  0  0  0  0  0  0  0  0  0
    9.3279  -16.1221   21.0886 N   0  0  0  0  0  0  0  0  0  0  0  0
    9.8111  -16.4611   23.4563 C   0  0  0  0  0  0  0  0  0  0  0  0
   10.5126  -15.4146   23.4543 O   0  0  0  0  0  0  0  0  0  0  0  0
    9.4347  -17.0410   24.6709 N   0  0  0  0  0  0  0  0  0  0  0  0
    9.9462  -16.5379   25.9593 C   0  0  1  0  0  0  0  0  0  0  0  0
    8.7980  -16.3704   26.8803 C   0  0  0  0  0  0  0  0  0  0  0  0
    7.6992  -15.5505   26.3890 C   0  0  0  0  0  0  0  0  0  0  0  0
    6.5452  -16.0048   25.7578 C   0  0  0  0  0  0  0  0  0  0  0  0
    5.7937  -14.9558   25.4267 N   0  0  0  0  0  0  0  0  0  0  0  0
    6.4041  -13.8342   25.8138 C   0  0  0  0  0  0  0  0  0  0  0  0
    5.9916  -12.5021   25.6955 C   0  0  0  0  0  0  0  0  0  0  0  0
    6.7798  -11.5105   26.1873 C   0  0  0  0  0  0  0  0  0  0  0  0
    7.9764  -11.8380   26.7961 C   0  0  0  0  0  0  0  0  0  0  0  0
    8.3970  -13.1416   26.9203 C   0  0  0  0  0  0  0  0  0  0  0  0
    7.5953  -14.1706   26.4178 C   0  0  0  0  0  0  0  0  0  0  0  0
   11.0615  -17.3540   26.4214 C   0  0  0  0  0  0  0  0  0  0  0  0
   11.4453  -18.4171   25.8864 O   0  0  0  0  0  0  0  0  0  0  0  0
   11.7765  -16.9328   27.5561 O   0  0  0  0  0  0  0  0  0  0  0  0
  2  1  1  1
  3  2  1  0
  3  4  1  0
  5  6  2  0
  5  2  1  0
  7  8  1  0
  9  8  1  6
  9 10  1  0
 10  5  1  0
 11 13  1  0
 11  9  1  0
 12 11  2  0
 14 13  1  0
 14 25  1  0
 14 15  1  1
 16 24  1  0
 16 15  1  0
 17 16  2  0
 18 17  1  0
 18 19  1  0
 19 24  2  0
 20 19  1  0
 20 21  2  0
 21 22  1  0
 22 23  2  0
 24 23  1  0
 25 27  1  0
 26 25  2  0
M  END
$$$$
