CSW.pdb
     RDKit          3D

 27 28  0  0  1  0  0  0  0  0999 V2000
    8.4282  -14.4311   17.5917 N   0  0  0  0  0  0  0  0  0  0  0  0
    8.8157  -13.9921   18.9023 C   0  0  1  0  0  0  0  0  0  0  0  0
    7.9071  -12.8237   19.3026 C   0  0  0  0  0  0  0  0  0  0  0  0
    8.2800  -12.3612   21.0227 S   0  0  0  0  0  0  0  0  0  0  0  0
    8.6646  -15.0892   19.8874 C   0  0  0  0  0  0  0  0  0  0  0  0
    7.9110  -16.0684   19.5782 O   0  0  0  0  0  0  0  0  0  0  0  0
   11.1989  -17.0937   20.8999 O   0  0  0  0  0  0  0  0  0  0  0  0
    9.9045  -17.4484   21.2027 C   0  0  0  0  0  0  0  0  0  0  0  0
    9.2468  -16.3125   21.9540 C   0  0  2  0  0  0  0  0  0  0  0  0
    9.3114  -15.1060   21.1495 N   0  0  0  0  0  0  0  0  0  0  0  0
    9.9348  -16.1431   23.2685 C   0  0  0  0  0  0  0  0  0  0  0  0
   11.0350  -15.5335   23.3415 O   0  0  0  0  0  0  0  0  0  0  0  0
    9.3534  -16.6653   24.4272 N   0  0  0  0  0  0  0  0  0  0  0  0
    9.9598  -16.4614   25.7559 C   0  0  1  0  0  0  0  0  0  0  0  0
    8.8758  -16.4652   26.7656 C   0  0  0  0  0  0  0  0  0  0  0  0
    7.7255  -15.6218   26.4714 C   0  0  0  0  0  0  0  0  0  0  0  0
    6.4822  -16.0475   26.0140 C   0  0  0  0  0  0  0  0  0  0  0  0
    5.7028  -14.9827   25.8305 N   0  0  0  0  0  0  0  0  0  0  0  0
    6.3806  -13.8780   26.1483 C   0  0  0  0  0  0  0  0  0  0  0  0
    5.9729  -12.5394   26.1301 C   0  0  0  0  0  0  0  0  0  0  0  0
    6.8406  -11.5693   26.5204 C   0  0  0  0  0  0  0  0  0  0  0  0
    8.1121  -11.9249   26.9286 C   0  0  0  0  0  0  0  0  0  0  0  0
    8.5292  -13.2353   26.9521 C   0  0  0  0  0  0  0  0  0  0  0  0
    7.6459  -14.2423   26.5523 C   0  0  0  0  0  0  0  0  0  0  0  0
   11.0682  -17.3851   25.9602 C   0  0  0  0  0  0  0  0  0  0  0  0
   11.3360  -18.3612   25.2260 O   0  0  0  0  0  0  0  0  0  0  0  0
   11.9160  -17.1826   27.0631 O   0  0  0  0  0  0  0  0  0  0  0  0
  2  1  1  6
  3  2  1  0
  3  4  1  0
  5  6  2  0
  5  2  1  0
  7  8  1  0
  9  8  1  6
  9 10  1  0
 10  5  1  0
 11 13  1  0
 11  9  1  0
 12 11  2  0
 14 13  1  0
 14 25  1  0
 14 15  1  1
 16 24  1  0
 16 15  1  0
 17 16  2  0
 18 17  1  0
 18 19  1  0
 19 24  2  0
 20 19  1  0
 20 21  2  0
 21 22  1  0
 22 23  2  0
 24 23  1  0
 25 27  1  0
 26 25  2  0
M  END
$$$$
