CSW.pdb
     RDKit          3D

 27 28  0  0  1  0  0  0  0  0999 V2000
    4.5771  -19.2246   20.2004 N   0  0  0  0  0  0  0  0  0  0  0  0
    4.9804  -18.3438   21.2597 C   0  0  1  0  0  0  0  0  0  0  0  0
    4.8126  -19.0881   22.5897 C   0  0  0  0  0  0  0  0  0  0  0  0
    5.4299  -18.0252   23.9316 S   0  0  0  0  0  0  0  0  0  0  0  0
    6.3988  -17.9456   21.0974 C   0  0  0  0  0  0  0  0  0  0  0  0
    7.2427  -18.8528   20.8022 O   0  0  0  0  0  0  0  0  0  0  0  0
    7.6480  -14.4781   19.9237 O   0  0  0  0  0  0  0  0  0  0  0  0
    8.5820  -15.4868   19.9815 C   0  0  0  0  0  0  0  0  0  0  0  0
    8.2905  -16.3579   21.1829 C   0  0  2  0  0  0  0  0  0  0  0  0
    6.8635  -16.6146   21.2528 N   0  0  0  0  0  0  0  0  0  0  0  0
    8.7936  -15.6701   22.4092 C   0  0  0  0  0  0  0  0  0  0  0  0
    8.5098  -14.4622   22.6279 O   0  0  0  0  0  0  0  0  0  0  0  0
    9.5859  -16.3723   23.3216 N   0  0  0  0  0  0  0  0  0  0  0  0
   10.2417  -15.6964   24.4565 C   0  0  1  0  0  0  0  0  0  0  0  0
    9.5020  -16.0426   25.6924 C   0  0  0  0  0  0  0  0  0  0  0  0
    8.1412  -15.5325   25.7867 C   0  0  0  0  0  0  0  0  0  0  0  0
    6.9702  -16.2532   25.5730 C   0  0  0  0  0  0  0  0  0  0  0  0
    5.9284  -15.4358   25.7190 N   0  0  0  0  0  0  0  0  0  0  0  0
    6.3651  -14.2114   26.0198 C   0  0  0  0  0  0  0  0  0  0  0  0
    5.6438  -13.0401   26.2771 C   0  0  0  0  0  0  0  0  0  0  0  0
    6.3103  -11.8969   26.5860 C   0  0  0  0  0  0  0  0  0  0  0  0
    7.6911  -11.9138   26.6399 C   0  0  0  0  0  0  0  0  0  0  0  0
    8.4155  -13.0558   26.3893 C   0  0  0  0  0  0  0  0  0  0  0  0
    7.7413  -14.2379   26.0699 C   0  0  0  0  0  0  0  0  0  0  0  0
   11.6770  -15.9482   24.4425 C   0  0  0  0  0  0  0  0  0  0  0  0
   12.2642  -16.7208   23.6539 O   0  0  0  0  0  0  0  0  0  0  0  0
   12.4845  -15.2816   25.3804 O   0  0  0  0  0  0  0  0  0  0  0  0
  2  1  1  6
  3  2  1  0
  3  4  1  0
  5  6  2  0
  5  2  1  0
  7  8  1  0
  9  8  1  6
  9 10  1  0
 10  5  1  0
 11 13  1  0
 11  9  1  0
 12 11  2  0
 14 13  1  0
 14 25  1  0
 14 15  1  1
 16 24  1  0
 16 15  1  0
 17 16  2  0
 18 17  1  0
 18 19  1  0
 19 24  2  0
 20 19  1  0
 20 21  2  0
 21 22  1  0
 22 23  2  0
 24 23  1  0
 25 27  1  0
 26 25  2  0
M  END
$$$$
