CSW.pdb
     RDKit          3D

 27 28  0  0  1  0  0  0  0  0999 V2000
    7.4236  -14.6530   17.6849 N   0  0  0  0  0  0  0  0  0  0  0  0
    8.3144  -14.2675   18.7423 C   0  0  1  0  0  0  0  0  0  0  0  0
    7.8961  -12.8777   19.2365 C   0  0  0  0  0  0  0  0  0  0  0  0
    8.9938  -12.3932   20.6047 S   0  0  0  0  0  0  0  0  0  0  0  0
    8.2386  -15.2300   19.8670 C   0  0  0  0  0  0  0  0  0  0  0  0
    7.0849  -15.5455   20.3049 O   0  0  0  0  0  0  0  0  0  0  0  0
   10.9964  -17.9772   20.8221 O   0  0  0  0  0  0  0  0  0  0  0  0
    9.6959  -18.0798   21.2592 C   0  0  0  0  0  0  0  0  0  0  0  0
    9.1861  -16.7004   21.6124 C   0  0  2  0  0  0  0  0  0  0  0  0
    9.3770  -15.8149   20.4782 N   0  0  0  0  0  0  0  0  0  0  0  0
    9.9100  -16.2161   22.8254 C   0  0  0  0  0  0  0  0  0  0  0  0
   10.9913  -15.5791   22.7140 O   0  0  0  0  0  0  0  0  0  0  0  0
    9.3837  -16.4719   24.0946 N   0  0  0  0  0  0  0  0  0  0  0  0
   10.1739  -16.2466   25.3191 C   0  0  1  0  0  0  0  0  0  0  0  0
    9.7238  -14.9763   25.9341 C   0  0  0  0  0  0  0  0  0  0  0  0
    8.2887  -14.7290   25.9120 C   0  0  0  0  0  0  0  0  0  0  0  0
    7.2873  -15.6800   25.7412 C   0  0  0  0  0  0  0  0  0  0  0  0
    6.1048  -15.0663   25.7458 N   0  0  0  0  0  0  0  0  0  0  0  0
    6.2874  -13.7551   25.9127 C   0  0  0  0  0  0  0  0  0  0  0  0
    5.3467  -12.7224   25.9973 C   0  0  0  0  0  0  0  0  0  0  0  0
    5.7691  -11.4455   26.1913 C   0  0  0  0  0  0  0  0  0  0  0  0
    7.1229  -11.1914   26.3013 C   0  0  0  0  0  0  0  0  0  0  0  0
    8.0608  -12.1942   26.2200 C   0  0  0  0  0  0  0  0  0  0  0  0
    7.6388  -13.5117   26.0200 C   0  0  0  0  0  0  0  0  0  0  0  0
   10.1665  -17.4369   26.1597 C   0  0  0  0  0  0  0  0  0  0  0  0
   10.8143  -17.5725   27.2206 O   0  0  0  0  0  0  0  0  0  0  0  0
    9.3766  -18.5313   25.7665 O   0  0  0  0  0  0  0  0  0  0  0  0
  2  1  1  6
  3  2  1  0
  3  4  1  0
  5  6  2  0
  5  2  1  0
  7  8  1  0
  9  8  1  6
  9 10  1  0
 10  5  1  0
 11 13  1  0
 11  9  1  0
 12 11  2  0
 14 13  1  0
 14 25  1  0
 14 15  1  1
 16 24  1  0
 16 15  1  0
 17 16  2  0
 18 17  1  0
 18 19  1  0
 19 24  2  0
 20 19  1  0
 20 21  2  0
 21 22  1  0
 22 23  2  0
 24 23  1  0
 25 27  1  0
 26 25  2  0
M  END
$$$$
