CSW.pdb
     RDKit          3D

 27 28  0  0  1  0  0  0  0  0999 V2000
    7.1219  -14.7515   18.7116 N   0  0  0  0  0  0  0  0  0  0  0  0
    8.3236  -14.5347   19.4661 C   0  0  1  0  0  0  0  0  0  0  0  0
    8.2597  -13.1278   20.0723 C   0  0  0  0  0  0  0  0  0  0  0  0
    8.7235  -11.9219   18.7908 S   0  0  0  0  0  0  0  0  0  0  0  0
    8.4441  -15.5321   20.5559 C   0  0  0  0  0  0  0  0  0  0  0  0
    7.5122  -15.5835   21.4227 O   0  0  0  0  0  0  0  0  0  0  0  0
   11.6857  -18.0827   21.1146 O   0  0  0  0  0  0  0  0  0  0  0  0
   10.4330  -18.5319   21.4640 C   0  0  0  0  0  0  0  0  0  0  0  0
    9.5636  -17.3436   21.8094 C   0  0  2  0  0  0  0  0  0  0  0  0
    9.5366  -16.4273   20.6840 N   0  0  0  0  0  0  0  0  0  0  0  0
   10.1022  -16.6959   23.0424 C   0  0  0  0  0  0  0  0  0  0  0  0
   10.9222  -15.7429   22.9592 O   0  0  0  0  0  0  0  0  0  0  0  0
    9.6934  -17.1508   24.2991 N   0  0  0  0  0  0  0  0  0  0  0  0
   10.2265  -16.5668   25.5439 C   0  0  1  0  0  0  0  0  0  0  0  0
    9.8057  -15.1478   25.6075 C   0  0  0  0  0  0  0  0  0  0  0  0
    8.4040  -14.9106   25.9239 C   0  0  0  0  0  0  0  0  0  0  0  0
    7.3910  -15.8639   25.9609 C   0  0  0  0  0  0  0  0  0  0  0  0
    6.2409  -15.2593   26.2556 N   0  0  0  0  0  0  0  0  0  0  0  0
    6.4561  -13.9520   26.4141 C   0  0  0  0  0  0  0  0  0  0  0  0
    5.5595  -12.9291   26.7432 C   0  0  0  0  0  0  0  0  0  0  0  0
    6.0143  -11.6551   26.8717 C   0  0  0  0  0  0  0  0  0  0  0  0
    7.3569  -11.3941   26.6741 C   0  0  0  0  0  0  0  0  0  0  0  0
    8.2514  -12.3872   26.3497 C   0  0  0  0  0  0  0  0  0  0  0  0
    7.7956  -13.7017   26.2141 C   0  0  0  0  0  0  0  0  0  0  0  0
    9.9037  -17.4127   26.6857 C   0  0  0  0  0  0  0  0  0  0  0  0
    9.1562  -18.4144   26.6504 O   0  0  0  0  0  0  0  0  0  0  0  0
   10.4650  -17.0964   27.9352 O   0  0  0  0  0  0  0  0  0  0  0  0
  2  1  1  1
  3  2  1  0
  3  4  1  0
  5  6  2  0
  5  2  1  0
  7  8  1  0
  9  8  1  6
  9 10  1  0
 10  5  1  0
 11 13  1  0
 11  9  1  0
 12 11  2  0
 14 13  1  0
 14 25  1  0
 14 15  1  1
 16 24  1  0
 16 15  1  0
 17 16  2  0
 18 17  1  0
 18 19  1  0
 19 24  2  0
 20 19  1  0
 20 21  2  0
 21 22  1  0
 22 23  2  0
 24 23  1  0
 25 27  1  0
 26 25  2  0
M  END
$$$$
