FRN.pdb
     RDKit          3D

 31 31  0  0  1  0  0  0  0  0999 V2000
    6.1279  -16.6594   25.7970 N   0  0  0  0  0  0  0  0  0  0  0  0
    6.8558  -15.6437   25.0756 C   0  0  1  0  0  0  0  0  0  0  0  0
    7.7375  -14.8311   26.0252 C   0  0  0  0  0  0  0  0  0  0  0  0
    7.0579  -13.5641   26.3633 C   0  0  0  0  0  0  0  0  0  0  0  0
    5.7909  -13.3281   25.9239 C   0  0  0  0  0  0  0  0  0  0  0  0
    5.1288  -12.1484   26.2260 C   0  0  0  0  0  0  0  0  0  0  0  0
    5.7720  -11.1932   26.9902 C   0  0  0  0  0  0  0  0  0  0  0  0
    7.0698  -11.4162   27.4498 C   0  0  0  0  0  0  0  0  0  0  0  0
    7.6965  -12.6129   27.1236 C   0  0  0  0  0  0  0  0  0  0  0  0
    7.7712  -16.2345   24.0630 C   0  0  0  0  0  0  0  0  0  0  0  0
    7.9330  -17.4801   24.0890 O   0  0  0  0  0  0  0  0  0  0  0  0
    7.7059  -12.5534   16.2347 N   0  0  0  0  0  0  0  0  0  0  0  0
    8.1948  -13.8633   15.9957 C   0  0  0  0  0  0  0  0  0  0  0  0
    8.3163  -14.2567   14.7726 N   0  0  0  0  0  0  0  0  0  0  0  0
    8.5275  -14.6824   17.0890 N   0  0  0  0  0  0  0  0  0  0  0  0
    8.3530  -14.1663   18.4375 C   0  0  0  0  0  0  0  0  0  0  0  0
    8.6761  -15.2990   19.3892 C   0  0  0  0  0  0  0  0  0  0  0  0
    8.4194  -14.7998   20.7890 C   0  0  0  0  0  0  0  0  0  0  0  0
    8.7111  -15.9450   21.7405 C   0  0  2  0  0  0  0  0  0  0  0  0
    8.4588  -15.4878   23.0881 N   0  0  0  0  0  0  0  0  0  0  0  0
   10.1533  -16.2694   21.6180 C   0  0  0  0  0  0  0  0  0  0  0  0
   10.6431  -16.7357   20.5623 O   0  0  0  0  0  0  0  0  0  0  0  0
    8.5856  -15.2311   14.5252 N   0  0  0  0  0  0  0  0  0  0  0  0
   12.1968  -19.9817   23.5391 C   0  0  0  0  0  0  0  0  0  0  0  0
   12.7583  -18.6555   23.4892 O   0  0  0  0  0  0  0  0  0  0  0  0
   13.3947  -18.2487   24.4845 C   0  0  0  0  0  0  0  0  0  0  0  0
   12.5477  -17.8637   22.2718 C   0  0  2  0  0  0  0  0  0  0  0  0
   12.4083  -16.4010   22.6241 N   0  0  0  0  0  0  0  0  0  0  0  0
   11.0214  -16.0483   22.7308 C   0  0  0  0  0  0  0  0  0  0  0  0
   13.0470  -15.5927   21.5276 O   0  0  0  0  0  0  0  0  0  0  0  0
   14.4144  -15.6764   21.2684 O   0  0  0  0  0  0  0  0  0  0  0  0
  2  1  1  1
  2  3  1  0
  2 10  1  0
  3  4  1  0
  4  5  2  0
  5  6  1  0
  7  6  2  0
  8  7  1  0
  9  4  1  0
  9  8  2  0
 10 11  2  0
 10 20  1  0
 13 15  1  0
 13 12  1  0
 14 13  2  0
 16 15  1  0
 16 17  1  0
 18 17  1  0
 19 18  1  6
 20 19  1  0
 21 19  1  0
 21 22  2  0
 24 23  1  0
 24 26  1  0
 25 24  2  0
 27 26  1  1
 27 28  1  0
 28 21  1  0
 29 27  1  0
 30 29  1  0
 31 29  2  0
M  END
$$$$
