FRN.pdb
     RDKit          3D

 31 31  0  0  1  0  0  0  0  0999 V2000
    7.1164  -17.8671   26.6891 N   0  0  0  0  0  0  0  0  0  0  0  0
    7.1701  -16.6209   25.9638 C   0  0  1  0  0  0  0  0  0  0  0  0
    8.1504  -15.6508   26.6250 C   0  0  0  0  0  0  0  0  0  0  0  0
    7.5152  -14.3239   26.7564 C   0  0  0  0  0  0  0  0  0  0  0  0
    8.0518  -13.3868   27.5859 C   0  0  0  0  0  0  0  0  0  0  0  0
    7.4772  -12.1336   27.7289 C   0  0  0  0  0  0  0  0  0  0  0  0
    6.3346  -11.8322   27.0121 C   0  0  0  0  0  0  0  0  0  0  0  0
    5.7696  -12.7785   26.1574 C   0  0  0  0  0  0  0  0  0  0  0  0
    6.3784  -14.0226   26.0440 C   0  0  0  0  0  0  0  0  0  0  0  0
    7.6534  -16.8136   24.5703 C   0  0  0  0  0  0  0  0  0  0  0  0
    7.9391  -17.9845   24.2158 O   0  0  0  0  0  0  0  0  0  0  0  0
    8.6515  -12.2747   17.7381 N   0  0  0  0  0  0  0  0  0  0  0  0
    8.2128  -13.4824   17.1375 C   0  0  0  0  0  0  0  0  0  0  0  0
    8.6919  -13.7998   15.9819 N   0  0  0  0  0  0  0  0  0  0  0  0
    7.2788  -14.2865   17.8144 N   0  0  0  0  0  0  0  0  0  0  0  0
    7.0053  -14.0225   19.2183 C   0  0  0  0  0  0  0  0  0  0  0  0
    7.9019  -14.9401   20.0230 C   0  0  0  0  0  0  0  0  0  0  0  0
    7.5477  -14.7558   21.4773 C   0  0  0  0  0  0  0  0  0  0  0  0
    8.0562  -15.9730   22.2267 C   0  0  2  0  0  0  0  0  0  0  0  0
    7.8072  -15.7723   23.6361 N   0  0  0  0  0  0  0  0  0  0  0  0
    9.5226  -16.0456   22.0156 C   0  0  0  0  0  0  0  0  0  0  0  0
   10.0493  -15.7825   20.9086 O   0  0  0  0  0  0  0  0  0  0  0  0
    8.4998  -14.7188   15.5328 N   0  0  0  0  0  0  0  0  0  0  0  0
   13.1450  -15.2377   21.4743 C   0  0  0  0  0  0  0  0  0  0  0  0
   13.5115  -15.4063   22.8577 O   0  0  0  0  0  0  0  0  0  0  0  0
   14.4864  -14.7560   23.2911 C   0  0  0  0  0  0  0  0  0  0  0  0
   12.7167  -16.3320   23.6730 C   0  0  2  0  0  0  0  0  0  0  0  0
   11.6595  -16.9946   22.8205 N   0  0  0  0  0  0  0  0  0  0  0  0
   10.3718  -16.4260   23.0995 C   0  0  0  0  0  0  0  0  0  0  0  0
   11.6413  -18.4615   23.1540 O   0  0  0  0  0  0  0  0  0  0  0  0
   11.0959  -18.9258   24.3502 O   0  0  0  0  0  0  0  0  0  0  0  0
  2  1  1  1
  2  3  1  0
  2 10  1  0
  3  4  1  0
  4  5  2  0
  5  6  1  0
  7  6  2  0
  8  7  1  0
  9  4  1  0
  9  8  2  0
 10 11  2  0
 10 20  1  0
 13 15  1  0
 13 12  1  0
 14 13  2  0
 16 15  1  0
 16 17  1  0
 18 17  1  0
 19 18  1  6
 20 19  1  0
 21 19  1  0
 21 22  2  0
 24 23  1  0
 24 26  1  0
 25 24  2  0
 27 26  1  6
 27 28  1  0
 28 21  1  0
 29 27  1  0
 30 29  1  0
 31 29  2  0
M  END
$$$$
