FRN.pdb
     RDKit          3D

 31 31  0  0  1  0  0  0  0  0999 V2000
    7.9963  -18.7963   27.3316 N   0  0  0  0  0  0  0  0  0  0  0  0
    8.3848  -17.4757   26.8993 C   0  0  1  0  0  0  0  0  0  0  0  0
    9.7003  -17.0553   27.5566 C   0  0  0  0  0  0  0  0  0  0  0  0
    9.5382  -15.7226   28.1721 C   0  0  0  0  0  0  0  0  0  0  0  0
    9.0269  -14.6905   27.4458 C   0  0  0  0  0  0  0  0  0  0  0  0
    8.8635  -13.4294   27.9974 C   0  0  0  0  0  0  0  0  0  0  0  0
    9.2286  -13.2189   29.3137 C   0  0  0  0  0  0  0  0  0  0  0  0
    9.7542  -14.2632   30.0741 C   0  0  0  0  0  0  0  0  0  0  0  0
    9.9011  -15.5116   29.4814 C   0  0  0  0  0  0  0  0  0  0  0  0
    8.6186  -17.4217   25.4313 C   0  0  0  0  0  0  0  0  0  0  0  0
    9.2651  -18.3672   24.9152 O   0  0  0  0  0  0  0  0  0  0  0  0
    8.7735  -12.0792   19.4491 N   0  0  0  0  0  0  0  0  0  0  0  0
    8.2659  -13.0938   18.5977 C   0  0  0  0  0  0  0  0  0  0  0  0
    8.6992  -13.1461   17.3832 N   0  0  0  0  0  0  0  0  0  0  0  0
    7.3160  -14.0005   19.1002 N   0  0  0  0  0  0  0  0  0  0  0  0
    7.0443  -14.0198   20.5289 C   0  0  0  0  0  0  0  0  0  0  0  0
    7.9723  -15.0481   21.1411 C   0  0  0  0  0  0  0  0  0  0  0  0
    7.6012  -15.1814   22.5967 C   0  0  0  0  0  0  0  0  0  0  0  0
    8.4587  -16.2861   23.1849 C   0  0  2  0  0  0  0  0  0  0  0  0
    8.1626  -16.3848   24.5961 N   0  0  0  0  0  0  0  0  0  0  0  0
    9.8767  -15.8791   23.0310 C   0  0  0  0  0  0  0  0  0  0  0  0
   10.5217  -15.3480   23.9659 O   0  0  0  0  0  0  0  0  0  0  0  0
    8.3430  -13.8401   16.6943 N   0  0  0  0  0  0  0  0  0  0  0  0
   14.1834  -15.5956   23.1110 C   0  0  0  0  0  0  0  0  0  0  0  0
   13.6533  -16.9103   23.3699 O   0  0  0  0  0  0  0  0  0  0  0  0
   14.2617  -17.6403   24.1812 C   0  0  0  0  0  0  0  0  0  0  0  0
   12.4308  -17.3113   22.6642 C   0  0  2  0  0  0  0  0  0  0  0  0
   11.9702  -16.1967   21.7538 N   0  0  0  0  0  0  0  0  0  0  0  0
   10.5392  -16.0936   21.7837 C   0  0  0  0  0  0  0  0  0  0  0  0
   12.4192  -16.5197   20.3547 O   0  0  0  0  0  0  0  0  0  0  0  0
   13.4667  -15.8248   19.7514 O   0  0  0  0  0  0  0  0  0  0  0  0
  2  1  1  1
  2  3  1  0
  2 10  1  0
  3  4  1  0
  4  5  2  0
  5  6  1  0
  7  6  2  0
  8  7  1  0
  9  4  1  0
  9  8  2  0
 10 11  2  0
 10 20  1  0
 13 15  1  0
 13 12  1  0
 14 13  2  0
 16 15  1  0
 16 17  1  0
 18 17  1  0
 19 18  1  1
 20 19  1  0
 21 19  1  0
 21 22  2  0
 24 23  1  0
 24 26  1  0
 25 24  2  0
 27 26  1  1
 27 28  1  0
 28 21  1  0
 29 27  1  0
 30 29  1  0
 31 29  2  0
M  END
$$$$
