FRN.pdb
     RDKit          3D

 31 31  0  0  1  0  0  0  0  0999 V2000
    7.8677  -18.9196   26.8349 N   0  0  0  0  0  0  0  0  0  0  0  0
    8.3665  -17.6173   26.4646 C   0  0  1  0  0  0  0  0  0  0  0  0
    9.7524  -17.3768   27.0652 C   0  0  0  0  0  0  0  0  0  0  0  0
    9.7361  -16.1281   27.8538 C   0  0  0  0  0  0  0  0  0  0  0  0
   10.1692  -16.1277   29.1447 C   0  0  0  0  0  0  0  0  0  0  0  0
   10.1654  -14.9709   29.9083 C   0  0  0  0  0  0  0  0  0  0  0  0
    9.7114  -13.7940   29.3434 C   0  0  0  0  0  0  0  0  0  0  0  0
    9.2637  -13.7738   28.0227 C   0  0  0  0  0  0  0  0  0  0  0  0
    9.2847  -14.9565   27.2932 C   0  0  0  0  0  0  0  0  0  0  0  0
    8.5239  -17.4848   24.9915 C   0  0  0  0  0  0  0  0  0  0  0  0
    8.9581  -18.4840   24.3658 O   0  0  0  0  0  0  0  0  0  0  0  0
    8.0016  -15.0619   17.9597 N   0  0  0  0  0  0  0  0  0  0  0  0
    8.1792  -13.6605   18.0883 C   0  0  0  0  0  0  0  0  0  0  0  0
    8.7118  -13.0188   17.1034 N   0  0  0  0  0  0  0  0  0  0  0  0
    7.7732  -13.0226   19.2737 N   0  0  0  0  0  0  0  0  0  0  0  0
    7.1754  -13.8176   20.3349 C   0  0  0  0  0  0  0  0  0  0  0  0
    8.2927  -14.6194   20.9690 C   0  0  0  0  0  0  0  0  0  0  0  0
    7.9475  -14.8012   22.4257 C   0  0  0  0  0  0  0  0  0  0  0  0
    8.5868  -16.0979   22.8858 C   0  0  2  0  0  0  0  0  0  0  0  0
    8.2182  -16.3184   24.2658 N   0  0  0  0  0  0  0  0  0  0  0  0
   10.0575  -15.9185   22.8166 C   0  0  0  0  0  0  0  0  0  0  0  0
   10.7876  -16.0112   23.8317 O   0  0  0  0  0  0  0  0  0  0  0  0
    8.9123  -11.9985   17.1469 N   0  0  0  0  0  0  0  0  0  0  0  0
   12.2153  -18.5238   23.8736 C   0  0  0  0  0  0  0  0  0  0  0  0
   12.8759  -17.6927   22.8992 O   0  0  0  0  0  0  0  0  0  0  0  0
   13.9766  -17.1878   23.2066 C   0  0  0  0  0  0  0  0  0  0  0  0
   12.2146  -17.4902   21.6049 C   0  0  2  0  0  0  0  0  0  0  0  0
   12.0386  -16.0131   21.3398 N   0  0  0  0  0  0  0  0  0  0  0  0
   10.6732  -15.6306   21.5601 C   0  0  0  0  0  0  0  0  0  0  0  0
   12.4069  -15.7482   19.9053 O   0  0  0  0  0  0  0  0  0  0  0  0
   13.5582  -15.0353   19.5728 O   0  0  0  0  0  0  0  0  0  0  0  0
  2  1  1  6
  2  3  1  0
  2 10  1  0
  3  4  1  0
  4  5  2  0
  5  6  1  0
  7  6  2  0
  8  7  1  0
  9  4  1  0
  9  8  2  0
 10 11  2  0
 10 20  1  0
 13 15  1  0
 13 12  1  0
 14 13  2  0
 16 15  1  0
 16 17  1  0
 18 17  1  0
 19 18  1  1
 20 19  1  0
 21 19  1  0
 21 22  2  0
 24 23  1  0
 24 26  1  0
 25 24  2  0
 27 26  1  1
 27 28  1  0
 28 21  1  0
 29 27  1  0
 30 29  1  0
 31 29  2  0
M  END
$$$$
