FRN.pdb
     RDKit          3D

 31 31  0  0  1  0  0  0  0  0999 V2000
    6.5042  -16.5605   25.9925 N   0  0  0  0  0  0  0  0  0  0  0  0
    7.2974  -15.7396   25.1100 C   0  0  1  0  0  0  0  0  0  0  0  0
    8.0937  -14.7028   25.9040 C   0  0  0  0  0  0  0  0  0  0  0  0
    7.2703  -13.4916   26.0948 C   0  0  0  0  0  0  0  0  0  0  0  0
    6.4959  -13.3582   27.2068 C   0  0  0  0  0  0  0  0  0  0  0  0
    5.7134  -12.2327   27.4122 C   0  0  0  0  0  0  0  0  0  0  0  0
    5.7220  -11.2260   26.4653 C   0  0  0  0  0  0  0  0  0  0  0  0
    6.5084  -11.3439   25.3195 C   0  0  0  0  0  0  0  0  0  0  0  0
    7.2779  -12.4893   25.1536 C   0  0  0  0  0  0  0  0  0  0  0  0
    8.2974  -16.5438   24.3580 C   0  0  0  0  0  0  0  0  0  0  0  0
    8.9176  -17.4329   24.9930 O   0  0  0  0  0  0  0  0  0  0  0  0
    8.4657  -13.8049   17.3053 N   0  0  0  0  0  0  0  0  0  0  0  0
    8.3404  -13.1857   18.5753 C   0  0  0  0  0  0  0  0  0  0  0  0
    8.9180  -12.0464   18.7595 N   0  0  0  0  0  0  0  0  0  0  0  0
    7.5983  -13.8276   19.5823 N   0  0  0  0  0  0  0  0  0  0  0  0
    7.8271  -15.2413   19.8363 C   0  0  0  0  0  0  0  0  0  0  0  0
    9.0765  -15.3407   20.6864 C   0  0  0  0  0  0  0  0  0  0  0  0
    9.4373  -16.8014   20.7895 C   0  0  0  0  0  0  0  0  0  0  0  0
    9.5737  -17.1328   22.2638 C   0  0  2  0  0  0  0  0  0  0  0  0
    8.5860  -16.3689   22.9917 N   0  0  0  0  0  0  0  0  0  0  0  0
   10.9213  -16.6897   22.6971 C   0  0  0  0  0  0  0  0  0  0  0  0
   11.2664  -15.4847   22.6693 O   0  0  0  0  0  0  0  0  0  0  0  0
    8.9086  -11.5596   19.6794 N   0  0  0  0  0  0  0  0  0  0  0  0
   12.3361  -17.6137   26.1816 C   0  0  0  0  0  0  0  0  0  0  0  0
   13.1649  -18.6428   25.6067 O   0  0  0  0  0  0  0  0  0  0  0  0
   13.2537  -19.7325   26.2116 C   0  0  0  0  0  0  0  0  0  0  0  0
   13.8542  -18.3475   24.3454 C   0  0  2  0  0  0  0  0  0  0  0  0
   13.1515  -17.2212   23.6236 N   0  0  0  0  0  0  0  0  0  0  0  0
   11.8642  -17.6566   23.1626 C   0  0  0  0  0  0  0  0  0  0  0  0
   13.9963  -16.8222   22.4444 O   0  0  0  0  0  0  0  0  0  0  0  0
   15.1692  -16.0865   22.6093 O   0  0  0  0  0  0  0  0  0  0  0  0
  2  1  1  1
  2  3  1  0
  2 10  1  0
  3  4  1  0
  4  5  2  0
  5  6  1  0
  7  6  2  0
  8  7  1  0
  9  4  1  0
  9  8  2  0
 10 11  2  0
 10 20  1  0
 13 15  1  0
 13 12  1  0
 14 13  2  0
 16 15  1  0
 16 17  1  0
 18 17  1  0
 19 18  1  6
 20 19  1  0
 21 19  1  0
 21 22  2  0
 24 23  1  0
 24 26  1  0
 25 24  2  0
 27 26  1  1
 27 28  1  0
 28 21  1  0
 29 27  1  0
 30 29  1  0
 31 29  2  0
M  END
$$$$
