FRN.pdb
     RDKit          3D

 31 31  0  0  1  0  0  0  0  0999 V2000
    6.3633  -16.4211   26.2281 N   0  0  0  0  0  0  0  0  0  0  0  0
    7.1349  -15.7751   25.1941 C   0  0  1  0  0  0  0  0  0  0  0  0
    8.1791  -14.8378   25.8026 C   0  0  0  0  0  0  0  0  0  0  0  0
    7.5155  -13.6091   26.2837 C   0  0  0  0  0  0  0  0  0  0  0  0
    7.1679  -12.6293   25.4043 C   0  0  0  0  0  0  0  0  0  0  0  0
    6.5441  -11.4661   25.8274 C   0  0  0  0  0  0  0  0  0  0  0  0
    6.2706  -11.3007   27.1720 C   0  0  0  0  0  0  0  0  0  0  0  0
    6.6189  -12.2927   28.0884 C   0  0  0  0  0  0  0  0  0  0  0  0
    7.2428  -13.4432   27.6211 C   0  0  0  0  0  0  0  0  0  0  0  0
    7.8892  -16.7587   24.3719 C   0  0  0  0  0  0  0  0  0  0  0  0
    8.2856  -17.8048   24.9438 O   0  0  0  0  0  0  0  0  0  0  0  0
    8.8027  -13.2120   17.4149 N   0  0  0  0  0  0  0  0  0  0  0  0
    8.1605  -12.9821   18.6585 C   0  0  0  0  0  0  0  0  0  0  0  0
    8.2705  -11.8143   19.1967 N   0  0  0  0  0  0  0  0  0  0  0  0
    7.4322  -14.0245   19.2586 N   0  0  0  0  0  0  0  0  0  0  0  0
    7.9988  -15.3639   19.2751 C   0  0  0  0  0  0  0  0  0  0  0  0
    8.2340  -15.7261   20.7266 C   0  0  0  0  0  0  0  0  0  0  0  0
    8.8320  -17.1103   20.7553 C   0  0  0  0  0  0  0  0  0  0  0  0
    8.9310  -17.5324   22.2092 C   0  0  2  0  0  0  0  0  0  0  0  0
    8.1813  -16.5879   23.0058 N   0  0  0  0  0  0  0  0  0  0  0  0
   10.3589  -17.4469   22.6016 C   0  0  0  0  0  0  0  0  0  0  0  0
   10.9054  -16.3560   22.8903 O   0  0  0  0  0  0  0  0  0  0  0  0
    7.8893  -11.5980   20.1406 N   0  0  0  0  0  0  0  0  0  0  0  0
   14.8904  -20.6374   24.8745 C   0  0  0  0  0  0  0  0  0  0  0  0
   14.2474  -19.3938   24.5332 O   0  0  0  0  0  0  0  0  0  0  0  0
   14.9425  -18.3555   24.5248 C   0  0  0  0  0  0  0  0  0  0  0  0
   12.8149  -19.4232   24.2163 C   0  0  2  0  0  0  0  0  0  0  0  0
   12.5329  -18.5501   23.0157 N   0  0  0  0  0  0  0  0  0  0  0  0
   11.1466  -18.6375   22.6557 C   0  0  0  0  0  0  0  0  0  0  0  0
   13.3785  -19.0402   21.8719 O   0  0  0  0  0  0  0  0  0  0  0  0
   14.7300  -18.7108   21.7770 O   0  0  0  0  0  0  0  0  0  0  0  0
  2  1  1  1
  2  3  1  0
  2 10  1  0
  3  4  1  0
  4  5  2  0
  5  6  1  0
  7  6  2  0
  8  7  1  0
  9  4  1  0
  9  8  2  0
 10 11  2  0
 10 20  1  0
 13 15  1  0
 13 12  1  0
 14 13  2  0
 16 15  1  0
 16 17  1  0
 18 17  1  0
 19 18  1  6
 20 19  1  0
 21 19  1  0
 21 22  2  0
 24 23  1  0
 24 26  1  0
 25 24  2  0
 27 26  1  1
 27 28  1  0
 28 21  1  0
 29 27  1  0
 30 29  1  0
 31 29  2  0
M  END
$$$$
