FRN.pdb
     RDKit          3D

 31 31  0  0  1  0  0  0  0  0999 V2000
    6.8500  -16.8668   26.2011 N   0  0  0  0  0  0  0  0  0  0  0  0
    7.2677  -15.9356   25.1811 C   0  0  1  0  0  0  0  0  0  0  0  0
    8.3850  -15.0290   25.6996 C   0  0  0  0  0  0  0  0  0  0  0  0
    7.8005  -13.7742   26.2144 C   0  0  0  0  0  0  0  0  0  0  0  0
    6.9465  -13.0486   25.4409 C   0  0  0  0  0  0  0  0  0  0  0  0
    6.3830  -11.8676   25.8980 C   0  0  0  0  0  0  0  0  0  0  0  0
    6.6972  -11.4200   27.1673 C   0  0  0  0  0  0  0  0  0  0  0  0
    7.5699  -12.1489   27.9749 C   0  0  0  0  0  0  0  0  0  0  0  0
    8.1122  -13.3276   27.4770 C   0  0  0  0  0  0  0  0  0  0  0  0
    7.8191  -16.6335   23.9889 C   0  0  0  0  0  0  0  0  0  0  0  0
    8.1494  -17.8377   24.1270 O   0  0  0  0  0  0  0  0  0  0  0  0
    7.5452  -12.2196   17.2971 N   0  0  0  0  0  0  0  0  0  0  0  0
    7.9526  -13.5778   17.3314 C   0  0  0  0  0  0  0  0  0  0  0  0
    8.3599  -14.1218   16.2343 N   0  0  0  0  0  0  0  0  0  0  0  0
    7.8995  -14.2803   18.5483 N   0  0  0  0  0  0  0  0  0  0  0  0
    7.1694  -13.7032   19.6660 C   0  0  0  0  0  0  0  0  0  0  0  0
    7.3911  -14.6138   20.8556 C   0  0  0  0  0  0  0  0  0  0  0  0
    7.9509  -15.9125   20.3320 C   0  0  0  0  0  0  0  0  0  0  0  0
    8.3725  -16.7417   21.5305 C   0  0  2  0  0  0  0  0  0  0  0  0
    7.9904  -16.0300   22.7290 N   0  0  0  0  0  0  0  0  0  0  0  0
    9.8516  -16.8483   21.5004 C   0  0  0  0  0  0  0  0  0  0  0  0
   10.4812  -17.0714   20.4393 O   0  0  0  0  0  0  0  0  0  0  0  0
    8.6857  -15.1092   16.1899 N   0  0  0  0  0  0  0  0  0  0  0  0
   14.6444  -14.2855   21.7347 C   0  0  0  0  0  0  0  0  0  0  0  0
   13.9600  -15.5521   21.6732 O   0  0  0  0  0  0  0  0  0  0  0  0
   14.6488  -16.5872   21.5498 C   0  0  0  0  0  0  0  0  0  0  0  0
   12.4950  -15.5483   21.7591 C   0  0  2  0  0  0  0  0  0  0  0  0
   12.0272  -16.6663   22.6617 N   0  0  0  0  0  0  0  0  0  0  0  0
   10.5933  -16.6940   22.7115 C   0  0  0  0  0  0  0  0  0  0  0  0
   12.5707  -16.4121   24.0413 O   0  0  0  0  0  0  0  0  0  0  0  0
   11.7224  -16.2574   25.1370 O   0  0  0  0  0  0  0  0  0  0  0  0
  2  1  1  1
  2  3  1  0
  2 10  1  0
  3  4  1  0
  4  5  2  0
  5  6  1  0
  7  6  2  0
  8  7  1  0
  9  4  1  0
  9  8  2  0
 10 11  2  0
 10 20  1  0
 13 15  1  0
 13 12  1  0
 14 13  2  0
 16 15  1  0
 16 17  1  0
 18 17  1  0
 19 18  1  6
 20 19  1  0
 21 19  1  0
 21 22  2  0
 24 23  1  0
 24 26  1  0
 25 24  2  0
 27 26  1  6
 27 28  1  0
 28 21  1  0
 29 27  1  0
 30 29  1  0
 31 29  2  0
M  END
$$$$
