FRN.pdb
     RDKit          3D

 31 31  0  0  1  0  0  0  0  0999 V2000
   12.6720  -14.4233   18.7254 N   0  0  0  0  0  0  0  0  0  0  0  0
   11.4733  -14.1630   19.4851 C   0  0  1  0  0  0  0  0  0  0  0  0
   10.2269  -14.4443   18.6443 C   0  0  0  0  0  0  0  0  0  0  0  0
    9.0235  -14.0408   19.3996 C   0  0  0  0  0  0  0  0  0  0  0  0
    8.0784  -14.9649   19.7265 C   0  0  0  0  0  0  0  0  0  0  0  0
    6.9394  -14.6149   20.4346 C   0  0  0  0  0  0  0  0  0  0  0  0
    6.7627  -13.2981   20.8155 C   0  0  0  0  0  0  0  0  0  0  0  0
    7.7193  -12.3367   20.4901 C   0  0  0  0  0  0  0  0  0  0  0  0
    8.8464  -12.7312   19.7791 C   0  0  0  0  0  0  0  0  0  0  0  0
   11.3750  -15.0431   20.6801 C   0  0  0  0  0  0  0  0  0  0  0  0
   12.1579  -16.0238   20.7401 O   0  0  0  0  0  0  0  0  0  0  0  0
    6.1985  -19.0538   25.1311 N   0  0  0  0  0  0  0  0  0  0  0  0
    6.9728  -18.7252   26.2732 C   0  0  0  0  0  0  0  0  0  0  0  0
    7.1087  -19.6163   27.1968 N   0  0  0  0  0  0  0  0  0  0  0  0
    7.5611  -17.4511   26.3609 N   0  0  0  0  0  0  0  0  0  0  0  0
    7.5677  -16.5935   25.1862 C   0  0  0  0  0  0  0  0  0  0  0  0
    8.9824  -16.5953   24.6460 C   0  0  0  0  0  0  0  0  0  0  0  0
    9.0210  -15.6418   23.4782 C   0  0  0  0  0  0  0  0  0  0  0  0
   10.4431  -15.6277   22.9498 C   0  0  2  0  0  0  0  0  0  0  0  0
   10.4661  -14.8434   21.7360 N   0  0  0  0  0  0  0  0  0  0  0  0
   10.8065  -17.0254   22.6114 C   0  0  0  0  0  0  0  0  0  0  0  0
   10.1535  -17.7001   21.7805 O   0  0  0  0  0  0  0  0  0  0  0  0
    7.6159  -19.4247   28.0852 N   0  0  0  0  0  0  0  0  0  0  0  0
   12.7570  -18.9569   20.4766 C   0  0  0  0  0  0  0  0  0  0  0  0
   13.8760  -19.2271   21.3435 O   0  0  0  0  0  0  0  0  0  0  0  0
   14.9987  -19.3914   20.8204 C   0  0  0  0  0  0  0  0  0  0  0  0
   13.6279  -19.2929   22.7883 C   0  0  2  0  0  0  0  0  0  0  0  0
   12.1660  -19.0384   23.0739 N   0  0  0  0  0  0  0  0  0  0  0  0
   11.9333  -17.6328   23.2454 C   0  0  0  0  0  0  0  0  0  0  0  0
   11.8039  -19.7636   24.3414 O   0  0  0  0  0  0  0  0  0  0  0  0
   11.3844  -19.0719   25.4771 O   0  0  0  0  0  0  0  0  0  0  0  0
  2  1  1  6
  2  3  1  0
  2 10  1  0
  3  4  1  0
  4  5  2  0
  5  6  1  0
  7  6  2  0
  8  7  1  0
  9  4  1  0
  9  8  2  0
 10 11  2  0
 10 20  1  0
 13 15  1  0
 13 12  1  0
 14 13  2  0
 16 15  1  0
 16 17  1  0
 18 17  1  0
 19 18  1  6
 20 19  1  0
 21 19  1  0
 21 22  2  0
 24 23  1  0
 24 26  1  0
 25 24  2  0
 27 26  1  6
 27 28  1  0
 28 21  1  0
 29 27  1  0
 30 29  1  0
 31 29  2  0
M  END
$$$$
