FRN.pdb
     RDKit          3D

 31 31  0  0  1  0  0  0  0  0999 V2000
    5.7598  -17.7081   24.8993 N   0  0  0  0  0  0  0  0  0  0  0  0
    6.4370  -16.4343   24.8771 C   0  0  1  0  0  0  0  0  0  0  0  0
    6.8224  -16.0006   26.2923 C   0  0  0  0  0  0  0  0  0  0  0  0
    6.9053  -14.5271   26.3492 C   0  0  0  0  0  0  0  0  0  0  0  0
    5.7904  -13.7704   26.1525 C   0  0  0  0  0  0  0  0  0  0  0  0
    5.8385  -12.3860   26.2002 C   0  0  0  0  0  0  0  0  0  0  0  0
    7.0464  -11.7636   26.4534 C   0  0  0  0  0  0  0  0  0  0  0  0
    8.1995  -12.5211   26.6575 C   0  0  0  0  0  0  0  0  0  0  0  0
    8.1061  -13.9065   26.6009 C   0  0  0  0  0  0  0  0  0  0  0  0
    7.7052  -16.4966   24.1024 C   0  0  0  0  0  0  0  0  0  0  0  0
    8.3753  -17.5567   24.1774 O   0  0  0  0  0  0  0  0  0  0  0  0
    7.7687  -15.2280   17.0652 N   0  0  0  0  0  0  0  0  0  0  0  0
    7.9231  -13.9042   17.5506 C   0  0  0  0  0  0  0  0  0  0  0  0
    8.7146  -13.1081   16.9140 N   0  0  0  0  0  0  0  0  0  0  0  0
    7.2155  -13.5067   18.6987 N   0  0  0  0  0  0  0  0  0  0  0  0
    7.9488  -13.2587   19.9301 C   0  0  0  0  0  0  0  0  0  0  0  0
    8.5342  -14.5843   20.3701 C   0  0  0  0  0  0  0  0  0  0  0  0
    9.4098  -14.3157   21.5682 C   0  0  0  0  0  0  0  0  0  0  0  0
    9.3601  -15.5474   22.4526 C   0  0  2  0  0  0  0  0  0  0  0  0
    8.1927  -15.4489   23.2990 N   0  0  0  0  0  0  0  0  0  0  0  0
   10.5670  -15.5258   23.3147 C   0  0  0  0  0  0  0  0  0  0  0  0
   11.4275  -14.6177   23.2320 O   0  0  0  0  0  0  0  0  0  0  0  0
    8.9602  -12.1625   17.2730 N   0  0  0  0  0  0  0  0  0  0  0  0
   10.9485  -15.5418   27.0039 C   0  0  0  0  0  0  0  0  0  0  0  0
   11.2171  -16.9492   27.1570 O   0  0  0  0  0  0  0  0  0  0  0  0
   10.8079  -17.5167   28.1922 C   0  0  0  0  0  0  0  0  0  0  0  0
   11.9555  -17.6299   26.0870 C   0  0  2  0  0  0  0  0  0  0  0  0
   12.0577  -16.7310   24.8767 N   0  0  0  0  0  0  0  0  0  0  0  0
   10.7665  -16.5665   24.2727 C   0  0  0  0  0  0  0  0  0  0  0  0
   12.9921  -17.3781   23.8910 O   0  0  0  0  0  0  0  0  0  0  0  0
   14.3514  -17.5204   24.1671 O   0  0  0  0  0  0  0  0  0  0  0  0
  2  1  1  1
  2  3  1  0
  2 10  1  0
  3  4  1  0
  4  5  2  0
  5  6  1  0
  7  6  2  0
  8  7  1  0
  9  4  1  0
  9  8  2  0
 10 11  2  0
 10 20  1  0
 13 15  1  0
 13 12  1  0
 14 13  2  0
 16 15  1  0
 16 17  1  0
 18 17  1  0
 19 18  1  6
 20 19  1  0
 21 19  1  0
 21 22  2  0
 24 23  1  0
 24 26  1  0
 25 24  2  0
 27 26  1  1
 27 28  1  0
 28 21  1  0
 29 27  1  0
 30 29  1  0
 31 29  2  0
M  END
$$$$
