FRN.pdb
     RDKit          3D

 31 31  0  0  1  0  0  0  0  0999 V2000
    6.8765  -16.3921   26.2862 N   0  0  0  0  0  0  0  0  0  0  0  0
    7.0695  -15.5299   25.1455 C   0  0  1  0  0  0  0  0  0  0  0  0
    8.0621  -14.4130   25.4720 C   0  0  0  0  0  0  0  0  0  0  0  0
    7.4172  -13.4276   26.3633 C   0  0  0  0  0  0  0  0  0  0  0  0
    7.9836  -13.1139   27.5611 C   0  0  0  0  0  0  0  0  0  0  0  0
    7.4008  -12.1929   28.4174 C   0  0  0  0  0  0  0  0  0  0  0  0
    6.2189  -11.5816   28.0438 C   0  0  0  0  0  0  0  0  0  0  0  0
    5.6230  -11.8896   26.8210 C   0  0  0  0  0  0  0  0  0  0  0  0
    6.2413  -12.8187   25.9929 C   0  0  0  0  0  0  0  0  0  0  0  0
    7.6407  -16.2670   23.9867 C   0  0  0  0  0  0  0  0  0  0  0  0
    8.2153  -17.3587   24.2241 O   0  0  0  0  0  0  0  0  0  0  0  0
    8.8056  -14.9621   17.4650 N   0  0  0  0  0  0  0  0  0  0  0  0
    8.5084  -13.5809   17.5910 C   0  0  0  0  0  0  0  0  0  0  0  0
    9.2962  -12.7317   17.0220 N   0  0  0  0  0  0  0  0  0  0  0  0
    7.3759  -13.1862   18.3250 N   0  0  0  0  0  0  0  0  0  0  0  0
    6.6076  -14.1959   19.0359 C   0  0  0  0  0  0  0  0  0  0  0  0
    7.3822  -14.5375   20.2915 C   0  0  0  0  0  0  0  0  0  0  0  0
    7.6552  -16.0204   20.2642 C   0  0  0  0  0  0  0  0  0  0  0  0
    8.3442  -16.3798   21.5672 C   0  0  2  0  0  0  0  0  0  0  0  0
    7.5756  -15.8178   22.6545 N   0  0  0  0  0  0  0  0  0  0  0  0
    9.6806  -15.7364   21.5566 C   0  0  0  0  0  0  0  0  0  0  0  0
    9.8377  -14.5240   21.8347 O   0  0  0  0  0  0  0  0  0  0  0  0
    9.1237  -11.7057   17.0515 N   0  0  0  0  0  0  0  0  0  0  0  0
   13.2834  -15.8304   24.8245 C   0  0  0  0  0  0  0  0  0  0  0  0
   12.7302  -17.0737   24.3506 O   0  0  0  0  0  0  0  0  0  0  0  0
   13.2765  -18.1369   24.7144 C   0  0  0  0  0  0  0  0  0  0  0  0
   11.5585  -17.0147   23.4691 C   0  0  1  0  0  0  0  0  0  0  0  0
   11.9641  -16.5124   22.1029 N   0  0  0  0  0  0  0  0  0  0  0  0
   10.8325  -16.5118   21.2205 C   0  0  0  0  0  0  0  0  0  0  0  0
   13.0211  -17.4352   21.5600 O   0  0  0  0  0  0  0  0  0  0  0  0
   12.8481  -18.1009   20.3471 O   0  0  0  0  0  0  0  0  0  0  0  0
  2  1  1  1
  2  3  1  0
  2 10  1  0
  3  4  1  0
  4  5  2  0
  5  6  1  0
  7  6  2  0
  8  7  1  0
  9  4  1  0
  9  8  2  0
 10 11  2  0
 10 20  1  0
 13 15  1  0
 13 12  1  0
 14 13  2  0
 16 15  1  0
 16 17  1  0
 18 17  1  0
 19 18  1  6
 20 19  1  0
 21 19  1  0
 21 22  2  0
 24 23  1  0
 24 26  1  0
 25 24  2  0
 27 26  1  1
 27 28  1  0
 28 21  1  0
 29 27  1  0
 30 29  1  0
 31 29  2  0
M  END
$$$$
