FQH.pdb
     RDKit          3D

 31 32  0  0  1  0  0  0  0  0999 V2000
    8.6028  -15.9322   15.9249 N   0  0  0  0  0  0  0  0  0  0  0  0
    8.7424  -15.0741   17.0963 C   0  0  1  0  0  0  0  0  0  0  0  0
    7.4607  -15.1246   17.9386 C   0  0  0  0  0  0  0  0  0  0  0  0
    7.7479  -14.3491   19.1687 C   0  0  0  0  0  0  0  0  0  0  0  0
    7.9701  -12.9899   19.1296 C   0  0  0  0  0  0  0  0  0  0  0  0
    8.2396  -12.2620   20.2840 C   0  0  0  0  0  0  0  0  0  0  0  0
    8.2935  -12.8812   21.5125 C   0  0  0  0  0  0  0  0  0  0  0  0
    8.0719  -14.2406   21.5567 C   0  0  0  0  0  0  0  0  0  0  0  0
    7.8013  -14.9695   20.3955 C   0  0  0  0  0  0  0  0  0  0  0  0
    9.9274  -15.4614   17.9059 C   0  0  0  0  0  0  0  0  0  0  0  0
    9.9949  -16.6427   18.3025 O   0  0  0  0  0  0  0  0  0  0  0  0
   15.4983  -13.0119   17.1488 N   0  0  0  0  0  0  0  0  0  0  0  0
   15.7662  -13.8098   18.2871 C   0  0  0  0  0  0  0  0  0  0  0  0
   16.9509  -13.9416   18.6638 O   0  0  0  0  0  0  0  0  0  0  0  0
   14.6661  -14.4746   19.0167 C   0  0  0  0  0  0  0  0  0  0  0  0
   13.3702  -14.1109   18.3845 C   0  0  0  0  0  0  0  0  0  0  0  0
   12.2057  -14.9432   18.8570 C   0  0  2  0  0  0  0  0  0  0  0  0
   10.9613  -14.5428   18.2323 N   0  0  0  0  0  0  0  0  0  0  0  0
   12.0803  -14.9854   20.3180 C   0  0  0  0  0  0  0  0  0  0  0  0
   11.1961  -14.3096   20.9019 O   0  0  0  0  0  0  0  0  0  0  0  0
   12.9347  -15.7767   21.1314 N   0  0  0  0  0  0  0  0  0  0  0  0
   12.5048  -16.3720   22.3776 C   0  0  1  0  0  0  0  0  0  0  0  0
   11.4142  -17.3984   22.0475 C   0  0  0  0  0  0  0  0  0  0  0  0
   10.8760  -18.0408   23.2507 C   0  0  0  0  0  0  0  0  0  0  0  0
   11.2101  -17.7461   24.5491 C   0  0  0  0  0  0  0  0  0  0  0  0
   10.4858  -18.5682   25.3320 N   0  0  0  0  0  0  0  0  0  0  0  0
    9.7238  -19.3513   24.5468 C   0  0  0  0  0  0  0  0  0  0  0  0
    9.9566  -19.0344   23.2618 N   0  0  0  0  0  0  0  0  0  0  0  0
   13.6409  -17.0091   23.0673 C   0  0  0  0  0  0  0  0  0  0  0  0
   14.7069  -17.2874   22.4602 O   0  0  0  0  0  0  0  0  0  0  0  0
   13.5335  -17.3087   24.4149 O   0  0  0  0  0  0  0  0  0  0  0  0
  2  1  1  6
  2 10  1  0
  2  3  1  0
  3  4  1  0
  4  5  2  0
  5  6  1  0
  7  6  2  0
  8  7  1  0
  9  4  1  0
  9  8  2  0
 10 18  1  0
 11 10  2  0
 13 15  1  0
 13 12  1  0
 14 13  2  0
 16 15  1  0
 17 16  1  1
 18 17  1  0
 19 20  2  0
 19 17  1  0
 21 19  1  0
 22 29  1  0
 22 21  1  0
 22 23  1  6
 24 23  1  0
 25 24  2  0
 26 27  1  0
 26 25  1  0
 27 28  2  0
 28 24  1  0
 29 31  1  0
 30 29  2  0
M  END
$$$$
