FQH.pdb
     RDKit          3D

 31 32  0  0  1  0  0  0  0  0999 V2000
    5.5519  -17.0096   25.4186 N   0  0  0  0  0  0  0  0  0  0  0  0
    6.3072  -15.8658   24.9193 C   0  0  1  0  0  0  0  0  0  0  0  0
    7.1061  -15.2258   26.0625 C   0  0  0  0  0  0  0  0  0  0  0  0
    6.6402  -13.8216   26.1520 C   0  0  0  0  0  0  0  0  0  0  0  0
    7.4639  -12.8155   26.6077 C   0  0  0  0  0  0  0  0  0  0  0  0
    7.0267  -11.4975   26.6917 C   0  0  0  0  0  0  0  0  0  0  0  0
    5.7468  -11.1532   26.3194 C   0  0  0  0  0  0  0  0  0  0  0  0
    4.9191  -12.1560   25.8630 C   0  0  0  0  0  0  0  0  0  0  0  0
    5.3607  -13.4793   25.7795 C   0  0  0  0  0  0  0  0  0  0  0  0
    7.2024  -16.2622   23.8007 C   0  0  0  0  0  0  0  0  0  0  0  0
    6.7720  -17.1051   22.9873 O   0  0  0  0  0  0  0  0  0  0  0  0
    8.7609  -12.3701   19.0833 N   0  0  0  0  0  0  0  0  0  0  0  0
    8.3743  -13.7269   19.2011 C   0  0  0  0  0  0  0  0  0  0  0  0
    7.3733  -14.1244   18.5664 O   0  0  0  0  0  0  0  0  0  0  0  0
    9.1397  -14.6563   20.0585 C   0  0  0  0  0  0  0  0  0  0  0  0
    8.4387  -14.8098   21.3608 C   0  0  0  0  0  0  0  0  0  0  0  0
    9.1825  -15.6612   22.3577 C   0  0  2  0  0  0  0  0  0  0  0  0
    8.5052  -15.7187   23.6372 N   0  0  0  0  0  0  0  0  0  0  0  0
   10.5884  -15.2728   22.5148 C   0  0  0  0  0  0  0  0  0  0  0  0
   10.9697  -14.1174   22.2001 O   0  0  0  0  0  0  0  0  0  0  0  0
   11.5711  -16.1650   23.0207 N   0  0  0  0  0  0  0  0  0  0  0  0
   11.9190  -16.2393   24.4228 C   0  0  1  0  0  0  0  0  0  0  0  0
   10.6862  -15.8110   25.2282 C   0  0  0  0  0  0  0  0  0  0  0  0
   10.9387  -15.8178   26.6725 C   0  0  0  0  0  0  0  0  0  0  0  0
   12.1160  -16.1577   27.2912 C   0  0  0  0  0  0  0  0  0  0  0  0
   11.9101  -16.0260   28.6154 N   0  0  0  0  0  0  0  0  0  0  0  0
   10.6443  -15.6169   28.8167 C   0  0  0  0  0  0  0  0  0  0  0  0
   10.0364  -15.4853   27.6255 N   0  0  0  0  0  0  0  0  0  0  0  0
   12.3380  -17.6060   24.7815 C   0  0  0  0  0  0  0  0  0  0  0  0
   13.1856  -17.8180   25.6866 O   0  0  0  0  0  0  0  0  0  0  0  0
   11.7864  -18.6824   24.1074 O   0  0  0  0  0  0  0  0  0  0  0  0
  2  1  1  1
  2 10  1  0
  2  3  1  0
  3  4  1  0
  4  5  2  0
  5  6  1  0
  7  6  2  0
  8  7  1  0
  9  4  1  0
  9  8  2  0
 10 18  1  0
 11 10  2  0
 13 15  1  0
 13 12  1  0
 14 13  2  0
 16 15  1  0
 17 16  1  6
 18 17  1  0
 19 20  2  0
 19 17  1  0
 21 19  1  0
 22 29  1  0
 22 21  1  0
 22 23  1  1
 24 23  1  0
 25 24  2  0
 26 27  1  0
 26 25  1  0
 27 28  2  0
 28 24  1  0
 29 31  1  0
 30 29  2  0
M  END
$$$$
