FQH.pdb
     RDKit          3D

 31 32  0  0  1  0  0  0  0  0999 V2000
    5.8089  -16.9840   25.4286 N   0  0  0  0  0  0  0  0  0  0  0  0
    6.7054  -15.8871   25.0803 C   0  0  1  0  0  0  0  0  0  0  0  0
    7.1376  -15.1404   26.3494 C   0  0  0  0  0  0  0  0  0  0  0  0
    6.7423  -13.7263   26.1475 C   0  0  0  0  0  0  0  0  0  0  0  0
    5.5135  -13.2550   26.5554 C   0  0  0  0  0  0  0  0  0  0  0  0
    5.1425  -11.9278   26.3660 C   0  0  0  0  0  0  0  0  0  0  0  0
    5.9978  -11.0352   25.7601 C   0  0  0  0  0  0  0  0  0  0  0  0
    7.2281  -11.5018   25.3504 C   0  0  0  0  0  0  0  0  0  0  0  0
    7.5984  -12.8356   25.5419 C   0  0  0  0  0  0  0  0  0  0  0  0
    7.8863  -16.3800   24.3241 C   0  0  0  0  0  0  0  0  0  0  0  0
    7.9899  -17.6118   24.1532 O   0  0  0  0  0  0  0  0  0  0  0  0
    7.6005  -13.1164   19.6589 N   0  0  0  0  0  0  0  0  0  0  0  0
    8.5746  -14.0260   19.1815 C   0  0  0  0  0  0  0  0  0  0  0  0
    8.7043  -14.1754   17.9471 O   0  0  0  0  0  0  0  0  0  0  0  0
    9.4227  -14.7849   20.1247 C   0  0  0  0  0  0  0  0  0  0  0  0
    8.8391  -14.6932   21.4893 C   0  0  0  0  0  0  0  0  0  0  0  0
    9.4460  -15.6550   22.4785 C   0  0  2  0  0  0  0  0  0  0  0  0
    8.8775  -15.5052   23.8027 N   0  0  0  0  0  0  0  0  0  0  0  0
   10.9114  -15.5971   22.5169 C   0  0  0  0  0  0  0  0  0  0  0  0
   11.5895  -15.9370   21.5149 O   0  0  0  0  0  0  0  0  0  0  0  0
   11.6247  -15.1625   23.6659 N   0  0  0  0  0  0  0  0  0  0  0  0
   12.5326  -16.0178   24.3983 C   0  0  1  0  0  0  0  0  0  0  0  0
   11.6848  -17.0144   25.1983 C   0  0  0  0  0  0  0  0  0  0  0  0
   11.3507  -16.5100   26.5340 C   0  0  0  0  0  0  0  0  0  0  0  0
   11.2601  -15.1920   26.9069 C   0  0  0  0  0  0  0  0  0  0  0  0
   10.9324  -15.1803   28.2129 N   0  0  0  0  0  0  0  0  0  0  0  0
   10.8221  -16.4509   28.6415 C   0  0  0  0  0  0  0  0  0  0  0  0
   11.0780  -17.2788   27.6143 N   0  0  0  0  0  0  0  0  0  0  0  0
   13.4437  -16.7181   23.4754 C   0  0  0  0  0  0  0  0  0  0  0  0
   13.1076  -16.9803   22.2919 O   0  0  0  0  0  0  0  0  0  0  0  0
   14.6991  -17.0967   23.9204 O   0  0  0  0  0  0  0  0  0  0  0  0
  2  1  1  1
  2 10  1  0
  2  3  1  0
  3  4  1  0
  4  5  2  0
  5  6  1  0
  7  6  2  0
  8  7  1  0
  9  4  1  0
  9  8  2  0
 10 18  1  0
 11 10  2  0
 13 15  1  0
 13 12  1  0
 14 13  2  0
 16 15  1  0
 17 16  1  6
 18 17  1  0
 19 20  2  0
 19 17  1  0
 21 19  1  0
 22 29  1  0
 22 21  1  0
 22 23  1  6
 24 23  1  0
 25 24  2  0
 26 27  1  0
 26 25  1  0
 27 28  2  0
 28 24  1  0
 29 31  1  0
 30 29  2  0
M  END
$$$$
