FQH.pdb
     RDKit          3D

 31 32  0  0  1  0  0  0  0  0999 V2000
    5.3772  -17.0704   24.7734 N   0  0  0  0  0  0  0  0  0  0  0  0
    6.2967  -15.9465   24.6342 C   0  0  1  0  0  0  0  0  0  0  0  0
    6.8754  -15.5700   26.0047 C   0  0  0  0  0  0  0  0  0  0  0  0
    6.6760  -14.1081   26.1462 C   0  0  0  0  0  0  0  0  0  0  0  0
    5.5477  -13.5879   26.7418 C   0  0  0  0  0  0  0  0  0  0  0  0
    5.3604  -12.2159   26.8747 C   0  0  0  0  0  0  0  0  0  0  0  0
    6.3037  -11.3265   26.4117 C   0  0  0  0  0  0  0  0  0  0  0  0
    7.4340  -11.8419   25.8152 C   0  0  0  0  0  0  0  0  0  0  0  0
    7.6198  -13.2207   25.6829 C   0  0  0  0  0  0  0  0  0  0  0  0
    7.3805  -16.2579   23.6657 C   0  0  0  0  0  0  0  0  0  0  0  0
    7.8739  -17.4037   23.6996 O   0  0  0  0  0  0  0  0  0  0  0  0
    9.1110  -12.9441   18.5359 N   0  0  0  0  0  0  0  0  0  0  0  0
    7.9969  -13.8162   18.5838 C   0  0  0  0  0  0  0  0  0  0  0  0
    7.1322  -13.7374   17.6843 O   0  0  0  0  0  0  0  0  0  0  0  0
    7.8583  -14.8016   19.6767 C   0  0  0  0  0  0  0  0  0  0  0  0
    8.9661  -14.6112   20.6501 C   0  0  0  0  0  0  0  0  0  0  0  0
    8.9407  -15.5836   21.8015 C   0  0  2  0  0  0  0  0  0  0  0  0
    7.8583  -15.3069   22.7240 N   0  0  0  0  0  0  0  0  0  0  0  0
   10.2260  -15.6846   22.5015 C   0  0  0  0  0  0  0  0  0  0  0  0
   10.6174  -14.7567   23.2532 O   0  0  0  0  0  0  0  0  0  0  0  0
   11.0770  -16.8141   22.3680 N   0  0  0  0  0  0  0  0  0  0  0  0
   12.3782  -16.8970   22.9945 C   0  0  1  0  0  0  0  0  0  0  0  0
   12.5170  -18.3046   23.5873 C   0  0  0  0  0  0  0  0  0  0  0  0
   11.9110  -18.4068   24.9186 C   0  0  0  0  0  0  0  0  0  0  0  0
   11.2647  -17.4041   25.5976 C   0  0  0  0  0  0  0  0  0  0  0  0
   10.8673  -17.9259   26.7738 N   0  0  0  0  0  0  0  0  0  0  0  0
   11.2537  -19.2137   26.8269 C   0  0  0  0  0  0  0  0  0  0  0  0
   11.8980  -19.5205   25.6882 N   0  0  0  0  0  0  0  0  0  0  0  0
   13.4444  -16.6276   22.0132 C   0  0  0  0  0  0  0  0  0  0  0  0
   14.6442  -16.4916   22.3661 O   0  0  0  0  0  0  0  0  0  0  0  0
   13.1190  -16.5217   20.6715 O   0  0  0  0  0  0  0  0  0  0  0  0
  2  1  1  1
  2 10  1  0
  2  3  1  0
  3  4  1  0
  4  5  2  0
  5  6  1  0
  7  6  2  0
  8  7  1  0
  9  4  1  0
  9  8  2  0
 10 18  1  0
 11 10  2  0
 13 15  1  0
 13 12  1  0
 14 13  2  0
 16 15  1  0
 17 16  1  6
 18 17  1  0
 19 20  2  0
 19 17  1  0
 21 19  1  0
 22 29  1  0
 22 21  1  0
 22 23  1  6
 24 23  1  0
 25 24  2  0
 26 27  1  0
 26 25  1  0
 27 28  2  0
 28 24  1  0
 29 31  1  0
 30 29  2  0
M  END
$$$$
