FQH.pdb
     RDKit          3D

 31 32  0  0  1  0  0  0  0  0999 V2000
    6.0492  -15.8993   24.8136 N   0  0  0  0  0  0  0  0  0  0  0  0
    7.4424  -15.5938   24.5077 C   0  0  1  0  0  0  0  0  0  0  0  0
    8.1191  -14.9552   25.7280 C   0  0  0  0  0  0  0  0  0  0  0  0
    7.4273  -13.6636   25.9511 C   0  0  0  0  0  0  0  0  0  0  0  0
    7.7979  -12.5203   25.2773 C   0  0  0  0  0  0  0  0  0  0  0  0
    7.1486  -11.3081   25.4867 C   0  0  0  0  0  0  0  0  0  0  0  0
    6.1065  -11.2106   26.3810 C   0  0  0  0  0  0  0  0  0  0  0  0
    5.7320  -12.3513   27.0574 C   0  0  0  0  0  0  0  0  0  0  0  0
    6.3860  -13.5680   26.8453 C   0  0  0  0  0  0  0  0  0  0  0  0
    8.1740  -16.8112   24.0693 C   0  0  0  0  0  0  0  0  0  0  0  0
    7.5071  -17.7319   23.5545 O   0  0  0  0  0  0  0  0  0  0  0  0
    9.1673  -18.2595   19.0460 N   0  0  0  0  0  0  0  0  0  0  0  0
   10.3114  -17.5289   19.4476 C   0  0  0  0  0  0  0  0  0  0  0  0
   10.7920  -16.6838   18.6616 O   0  0  0  0  0  0  0  0  0  0  0  0
   10.9266  -17.7606   20.7714 C   0  0  0  0  0  0  0  0  0  0  0  0
   10.0660  -17.1567   21.8230 C   0  0  0  0  0  0  0  0  0  0  0  0
   10.4205  -17.5870   23.2234 C   0  0  2  0  0  0  0  0  0  0  0  0
    9.5804  -16.9508   24.2176 N   0  0  0  0  0  0  0  0  0  0  0  0
   11.8431  -17.4162   23.5381 C   0  0  0  0  0  0  0  0  0  0  0  0
   12.7256  -17.8835   22.7750 O   0  0  0  0  0  0  0  0  0  0  0  0
   12.2871  -16.7275   24.6984 N   0  0  0  0  0  0  0  0  0  0  0  0
   12.4380  -17.3705   25.9853 C   0  0  1  0  0  0  0  0  0  0  0  0
   11.0518  -17.8586   26.4235 C   0  0  0  0  0  0  0  0  0  0  0  0
   11.0830  -18.5061   27.7387 C   0  0  0  0  0  0  0  0  0  0  0  0
   12.1762  -18.6280   28.5599 C   0  0  0  0  0  0  0  0  0  0  0  0
   11.7632  -19.2852   29.6603 N   0  0  0  0  0  0  0  0  0  0  0  0
   10.4535  -19.5646   29.5297 C   0  0  0  0  0  0  0  0  0  0  0  0
   10.0242  -19.0887   28.3486 N   0  0  0  0  0  0  0  0  0  0  0  0
   13.3911  -18.4912   25.8966 C   0  0  0  0  0  0  0  0  0  0  0  0
   14.5566  -18.4020   26.3615 O   0  0  0  0  0  0  0  0  0  0  0  0
   12.9954  -19.6701   25.2876 O   0  0  0  0  0  0  0  0  0  0  0  0
  2  1  1  1
  2 10  1  0
  2  3  1  0
  3  4  1  0
  4  5  2  0
  5  6  1  0
  7  6  2  0
  8  7  1  0
  9  4  1  0
  9  8  2  0
 10 18  1  0
 11 10  2  0
 13 15  1  0
 13 12  1  0
 14 13  2  0
 16 15  1  0
 17 16  1  6
 18 17  1  0
 19 20  2  0
 19 17  1  0
 21 19  1  0
 22 29  1  0
 22 21  1  0
 22 23  1  6
 24 23  1  0
 25 24  2  0
 26 27  1  0
 26 25  1  0
 27 28  2  0
 28 24  1  0
 29 31  1  0
 30 29  2  0
M  END
$$$$
