FQH.pdb
     RDKit          3D

 31 32  0  0  1  0  0  0  0  0999 V2000
    5.2264  -16.6764   24.3395 N   0  0  0  0  0  0  0  0  0  0  0  0
    6.5860  -16.5908   24.8613 C   0  0  1  0  0  0  0  0  0  0  0  0
    6.5736  -15.9444   26.2530 C   0  0  0  0  0  0  0  0  0  0  0  0
    6.6896  -14.4840   26.0276 C   0  0  0  0  0  0  0  0  0  0  0  0
    6.2869  -13.5726   26.9792 C   0  0  0  0  0  0  0  0  0  0  0  0
    6.3958  -12.2020   26.7678 C   0  0  0  0  0  0  0  0  0  0  0  0
    6.9136  -11.7081   25.5916 C   0  0  0  0  0  0  0  0  0  0  0  0
    7.3179  -12.6157   24.6368 C   0  0  0  0  0  0  0  0  0  0  0  0
    7.2074  -13.9922   24.8516 C   0  0  0  0  0  0  0  0  0  0  0  0
    7.2295  -17.9301   24.9018 C   0  0  0  0  0  0  0  0  0  0  0  0
    6.6751  -18.8170   25.5826 O   0  0  0  0  0  0  0  0  0  0  0  0
    7.0613  -20.1408   21.2664 N   0  0  0  0  0  0  0  0  0  0  0  0
    8.1526  -19.3092   20.9172 C   0  0  0  0  0  0  0  0  0  0  0  0
    8.0924  -18.6520   19.8555 O   0  0  0  0  0  0  0  0  0  0  0  0
    9.3410  -19.2197   21.7914 C   0  0  0  0  0  0  0  0  0  0  0  0
    9.1880  -20.1714   22.9237 C   0  0  0  0  0  0  0  0  0  0  0  0
    9.0969  -19.5053   24.2728 C   0  0  2  0  0  0  0  0  0  0  0  0
    8.4316  -18.2202   24.2018 N   0  0  0  0  0  0  0  0  0  0  0  0
   10.3918  -19.3992   24.9539 C   0  0  0  0  0  0  0  0  0  0  0  0
   11.0857  -20.4250   25.1680 O   0  0  0  0  0  0  0  0  0  0  0  0
   10.9174  -18.1563   25.3975 N   0  0  0  0  0  0  0  0  0  0  0  0
   12.1307  -18.0489   26.1777 C   0  0  1  0  0  0  0  0  0  0  0  0
   12.8524  -16.7697   25.7361 C   0  0  0  0  0  0  0  0  0  0  0  0
   13.1354  -16.7623   24.2975 C   0  0  0  0  0  0  0  0  0  0  0  0
   12.8382  -17.7616   23.4045 C   0  0  0  0  0  0  0  0  0  0  0  0
   13.2688  -17.3447   22.1986 N   0  0  0  0  0  0  0  0  0  0  0  0
   13.8175  -16.1237   22.3349 C   0  0  0  0  0  0  0  0  0  0  0  0
   13.7405  -15.7552   23.6249 N   0  0  0  0  0  0  0  0  0  0  0  0
   11.8197  -18.0117   27.6179 C   0  0  0  0  0  0  0  0  0  0  0  0
   12.7271  -17.9256   28.4849 O   0  0  0  0  0  0  0  0  0  0  0  0
   10.4984  -18.0730   28.0273 O   0  0  0  0  0  0  0  0  0  0  0  0
  2  1  1  1
  2 10  1  0
  2  3  1  0
  3  4  1  0
  4  5  2  0
  5  6  1  0
  7  6  2  0
  8  7  1  0
  9  4  1  0
  9  8  2  0
 10 18  1  0
 11 10  2  0
 13 15  1  0
 13 12  1  0
 14 13  2  0
 16 15  1  0
 17 16  1  6
 18 17  1  0
 19 20  2  0
 19 17  1  0
 21 19  1  0
 22 29  1  0
 22 21  1  0
 22 23  1  6
 24 23  1  0
 25 24  2  0
 26 27  1  0
 26 25  1  0
 27 28  2  0
 28 24  1  0
 29 31  1  0
 30 29  2  0
M  END
$$$$
