FQH.pdb
     RDKit          3D

 31 32  0  0  1  0  0  0  0  0999 V2000
    7.8880  -14.4891   21.2714 N   0  0  0  0  0  0  0  0  0  0  0  0
    8.0831  -14.7337   22.6962 C   0  0  1  0  0  0  0  0  0  0  0  0
    6.7267  -14.7665   23.4130 C   0  0  0  0  0  0  0  0  0  0  0  0
    6.8011  -13.7388   24.4784 C   0  0  0  0  0  0  0  0  0  0  0  0
    7.1934  -12.4460   24.2080 C   0  0  0  0  0  0  0  0  0  0  0  0
    7.2633  -11.4814   25.2079 C   0  0  0  0  0  0  0  0  0  0  0  0
    6.9403  -11.7898   26.5102 C   0  0  0  0  0  0  0  0  0  0  0  0
    6.5474  -13.0816   26.7856 C   0  0  0  0  0  0  0  0  0  0  0  0
    6.4780  -14.0488   25.7793 C   0  0  0  0  0  0  0  0  0  0  0  0
    8.8371  -15.9942   22.9249 C   0  0  0  0  0  0  0  0  0  0  0  0
    8.5435  -16.9794   22.2175 O   0  0  0  0  0  0  0  0  0  0  0  0
   13.1039  -17.7113   20.6291 N   0  0  0  0  0  0  0  0  0  0  0  0
   13.2540  -18.7052   21.6260 C   0  0  0  0  0  0  0  0  0  0  0  0
   14.1261  -19.5872   21.4695 O   0  0  0  0  0  0  0  0  0  0  0  0
   12.3959  -18.7005   22.8294 C   0  0  0  0  0  0  0  0  0  0  0  0
   11.4139  -17.5887   22.7254 C   0  0  0  0  0  0  0  0  0  0  0  0
   10.7201  -17.2637   24.0234 C   0  0  2  0  0  0  0  0  0  0  0  0
    9.8598  -16.1039   23.9054 N   0  0  0  0  0  0  0  0  0  0  0  0
   11.6438  -17.1303   25.1552 C   0  0  0  0  0  0  0  0  0  0  0  0
   12.2145  -16.0348   25.3869 O   0  0  0  0  0  0  0  0  0  0  0  0
   11.9349  -18.2111   26.0298 N   0  0  0  0  0  0  0  0  0  0  0  0
   11.9242  -18.0819   27.4705 C   0  0  1  0  0  0  0  0  0  0  0  0
   10.5586  -17.5119   27.8734 C   0  0  0  0  0  0  0  0  0  0  0  0
   10.6037  -16.0611   28.0810 C   0  0  0  0  0  0  0  0  0  0  0  0
   11.7146  -15.2601   27.9892 C   0  0  0  0  0  0  0  0  0  0  0  0
   11.3094  -14.0034   28.2534 N   0  0  0  0  0  0  0  0  0  0  0  0
    9.9872  -14.0198   28.5022 C   0  0  0  0  0  0  0  0  0  0  0  0
    9.5421  -15.2835   28.3986 N   0  0  0  0  0  0  0  0  0  0  0  0
   12.1630  -19.3881   28.1102 C   0  0  0  0  0  0  0  0  0  0  0  0
   12.4055  -19.4834   29.3409 O   0  0  0  0  0  0  0  0  0  0  0  0
   12.1196  -20.5377   27.3396 O   0  0  0  0  0  0  0  0  0  0  0  0
  2  1  1  6
  2 10  1  0
  2  3  1  0
  3  4  1  0
  4  5  2  0
  5  6  1  0
  7  6  2  0
  8  7  1  0
  9  4  1  0
  9  8  2  0
 10 18  1  0
 11 10  2  0
 13 15  1  0
 13 12  1  0
 14 13  2  0
 16 15  1  0
 17 16  1  6
 18 17  1  0
 19 20  2  0
 19 17  1  0
 21 19  1  0
 22 29  1  0
 22 21  1  0
 22 23  1  1
 24 23  1  0
 25 24  2  0
 26 27  1  0
 26 25  1  0
 27 28  2  0
 28 24  1  0
 29 31  1  0
 30 29  2  0
M  END
$$$$
