FQH.pdb
     RDKit          3D

 31 32  0  0  1  0  0  0  0  0999 V2000
    5.9457  -16.3780   25.7515 N   0  0  0  0  0  0  0  0  0  0  0  0
    7.0839  -15.7697   25.0714 C   0  0  1  0  0  0  0  0  0  0  0  0
    7.6698  -14.6442   25.9344 C   0  0  0  0  0  0  0  0  0  0  0  0
    6.8732  -13.4333   25.6248 C   0  0  0  0  0  0  0  0  0  0  0  0
    5.7026  -13.1489   26.2937 C   0  0  0  0  0  0  0  0  0  0  0  0
    4.9549  -12.0124   26.0032 C   0  0  0  0  0  0  0  0  0  0  0  0
    5.3636  -11.1281   25.0303 C   0  0  0  0  0  0  0  0  0  0  0  0
    6.5337  -11.4082   24.3585 C   0  0  0  0  0  0  0  0  0  0  0  0
    7.2830  -12.5507   24.6523 C   0  0  0  0  0  0  0  0  0  0  0  0
    8.1192  -16.7857   24.7464 C   0  0  0  0  0  0  0  0  0  0  0  0
    8.2330  -17.7612   25.5163 O   0  0  0  0  0  0  0  0  0  0  0  0
    9.2340  -19.8172   20.8435 N   0  0  0  0  0  0  0  0  0  0  0  0
   10.6391  -19.8591   21.0114 C   0  0  0  0  0  0  0  0  0  0  0  0
   11.2437  -20.9233   20.7569 O   0  0  0  0  0  0  0  0  0  0  0  0
   11.3776  -18.6672   21.4789 C   0  0  0  0  0  0  0  0  0  0  0  0
   10.4059  -17.6071   21.8570 C   0  0  0  0  0  0  0  0  0  0  0  0
   10.0174  -17.6264   23.3132 C   0  0  2  0  0  0  0  0  0  0  0  0
    8.9630  -16.6775   23.6081 N   0  0  0  0  0  0  0  0  0  0  0  0
   11.1589  -17.4545   24.2185 C   0  0  0  0  0  0  0  0  0  0  0  0
   12.0922  -16.6656   23.9253 O   0  0  0  0  0  0  0  0  0  0  0  0
   11.2656  -18.1571   25.4485 N   0  0  0  0  0  0  0  0  0  0  0  0
   12.4876  -18.2100   26.2207 C   0  0  1  0  0  0  0  0  0  0  0  0
   12.1187  -17.9577   27.6877 C   0  0  0  0  0  0  0  0  0  0  0  0
   11.6403  -16.5898   27.9109 C   0  0  0  0  0  0  0  0  0  0  0  0
   11.7791  -15.5287   27.0512 C   0  0  0  0  0  0  0  0  0  0  0  0
   11.1999  -14.4688   27.6466 N   0  0  0  0  0  0  0  0  0  0  0  0
   10.7150  -14.8564   28.8404 C   0  0  0  0  0  0  0  0  0  0  0  0
   10.9811  -16.1622   29.0133 N   0  0  0  0  0  0  0  0  0  0  0  0
   13.1480  -19.5174   26.0575 C   0  0  0  0  0  0  0  0  0  0  0  0
   14.2491  -19.7718   26.6101 O   0  0  0  0  0  0  0  0  0  0  0  0
   12.5433  -20.4892   25.2782 O   0  0  0  0  0  0  0  0  0  0  0  0
  2  1  1  1
  2 10  1  0
  2  3  1  0
  3  4  1  0
  4  5  2  0
  5  6  1  0
  7  6  2  0
  8  7  1  0
  9  4  1  0
  9  8  2  0
 10 18  1  0
 11 10  2  0
 13 15  1  0
 13 12  1  0
 14 13  2  0
 16 15  1  0
 17 16  1  6
 18 17  1  0
 19 20  2  0
 19 17  1  0
 21 19  1  0
 22 29  1  0
 22 21  1  0
 22 23  1  1
 24 23  1  0
 25 24  2  0
 26 27  1  0
 26 25  1  0
 27 28  2  0
 28 24  1  0
 29 31  1  0
 30 29  2  0
M  END
$$$$
