FQH.pdb
     RDKit          3D

 31 32  0  0  1  0  0  0  0  0999 V2000
    5.5142  -16.8391   24.4973 N   0  0  0  0  0  0  0  0  0  0  0  0
    6.8108  -16.2070   24.2797 C   0  0  1  0  0  0  0  0  0  0  0  0
    7.3113  -15.5744   25.5851 C   0  0  0  0  0  0  0  0  0  0  0  0
    6.9644  -14.1357   25.5026 C   0  0  0  0  0  0  0  0  0  0  0  0
    5.7822  -13.6478   26.0151 C   0  0  0  0  0  0  0  0  0  0  0  0
    5.4565  -12.2976   25.9378 C   0  0  0  0  0  0  0  0  0  0  0  0
    6.3117  -11.3981   25.3421 C   0  0  0  0  0  0  0  0  0  0  0  0
    7.4955  -11.8813   24.8279 C   0  0  0  0  0  0  0  0  0  0  0  0
    7.8203  -13.2382   24.9069 C   0  0  0  0  0  0  0  0  0  0  0  0
    7.7990  -17.1814   23.7469 C   0  0  0  0  0  0  0  0  0  0  0  0
    7.3706  -18.0971   23.0153 O   0  0  0  0  0  0  0  0  0  0  0  0
    9.6421  -17.3911   19.0010 N   0  0  0  0  0  0  0  0  0  0  0  0
   10.9481  -17.5430   19.5261 C   0  0  0  0  0  0  0  0  0  0  0  0
   11.9259  -17.3056   18.7842 O   0  0  0  0  0  0  0  0  0  0  0  0
   11.1519  -17.9740   20.9251 C   0  0  0  0  0  0  0  0  0  0  0  0
   10.0971  -17.3698   21.7815 C   0  0  0  0  0  0  0  0  0  0  0  0
   10.2051  -17.7432   23.2378 C   0  0  2  0  0  0  0  0  0  0  0  0
    9.1866  -17.0990   24.0421 N   0  0  0  0  0  0  0  0  0  0  0  0
   11.5443  -17.5211   23.7939 C   0  0  0  0  0  0  0  0  0  0  0  0
   12.3869  -16.8281   23.1700 O   0  0  0  0  0  0  0  0  0  0  0  0
   11.9491  -18.0669   25.0413 N   0  0  0  0  0  0  0  0  0  0  0  0
   11.9934  -17.2919   26.2618 C   0  0  1  0  0  0  0  0  0  0  0  0
   10.6885  -16.4907   26.3482 C   0  0  0  0  0  0  0  0  0  0  0  0
   10.5959  -15.7156   27.5894 C   0  0  0  0  0  0  0  0  0  0  0  0
   11.5021  -15.7191   28.6205 C   0  0  0  0  0  0  0  0  0  0  0  0
   11.0303  -14.8711   29.5541 N   0  0  0  0  0  0  0  0  0  0  0  0
    9.8665  -14.3547   29.1193 C   0  0  0  0  0  0  0  0  0  0  0  0
    9.5893  -14.8686   27.9089 N   0  0  0  0  0  0  0  0  0  0  0  0
   12.1518  -18.1747   27.4313 C   0  0  0  0  0  0  0  0  0  0  0  0
   12.5590  -17.7348   28.5373 O   0  0  0  0  0  0  0  0  0  0  0  0
   11.8456  -19.5197   27.3111 O   0  0  0  0  0  0  0  0  0  0  0  0
  2  1  1  1
  2 10  1  0
  2  3  1  0
  3  4  1  0
  4  5  2  0
  5  6  1  0
  7  6  2  0
  8  7  1  0
  9  4  1  0
  9  8  2  0
 10 18  1  0
 11 10  2  0
 13 15  1  0
 13 12  1  0
 14 13  2  0
 16 15  1  0
 17 16  1  6
 18 17  1  0
 19 20  2  0
 19 17  1  0
 21 19  1  0
 22 29  1  0
 22 21  1  0
 22 23  1  1
 24 23  1  0
 25 24  2  0
 26 27  1  0
 26 25  1  0
 27 28  2  0
 28 24  1  0
 29 31  1  0
 30 29  2  0
M  END
$$$$
