FQH.pdb
     RDKit          3D

 31 32  0  0  1  0  0  0  0  0999 V2000
    8.5061  -14.5071   20.6191 N   0  0  0  0  0  0  0  0  0  0  0  0
    8.4485  -14.4391   22.0752 C   0  0  1  0  0  0  0  0  0  0  0  0
    6.9965  -14.2496   22.5340 C   0  0  0  0  0  0  0  0  0  0  0  0
    7.0657  -13.8584   23.9620 C   0  0  0  0  0  0  0  0  0  0  0  0
    6.5487  -14.6603   24.9559 C   0  0  0  0  0  0  0  0  0  0  0  0
    6.6136  -14.2933   26.2961 C   0  0  0  0  0  0  0  0  0  0  0  0
    7.2012  -13.1075   26.6756 C   0  0  0  0  0  0  0  0  0  0  0  0
    7.7197  -12.3019   25.6851 C   0  0  0  0  0  0  0  0  0  0  0  0
    7.6533  -12.6729   24.3394 C   0  0  0  0  0  0  0  0  0  0  0  0
    9.0481  -15.6514   22.6921 C   0  0  0  0  0  0  0  0  0  0  0  0
    8.6534  -16.7627   22.2840 O   0  0  0  0  0  0  0  0  0  0  0  0
   14.7419  -16.9363   23.1971 N   0  0  0  0  0  0  0  0  0  0  0  0
   14.2568  -15.6717   23.6090 C   0  0  0  0  0  0  0  0  0  0  0  0
   15.0474  -14.7036   23.6348 O   0  0  0  0  0  0  0  0  0  0  0  0
   12.8423  -15.4988   24.0010 C   0  0  0  0  0  0  0  0  0  0  0  0
   12.1471  -16.8105   23.9143 C   0  0  0  0  0  0  0  0  0  0  0  0
   10.6832  -16.7499   24.2682 C   0  0  2  0  0  0  0  0  0  0  0  0
   10.0362  -15.5795   23.7108 N   0  0  0  0  0  0  0  0  0  0  0  0
   10.4314  -16.8640   25.7089 C   0  0  0  0  0  0  0  0  0  0  0  0
   10.6818  -15.9022   26.4781 O   0  0  0  0  0  0  0  0  0  0  0  0
    9.9021  -18.0440   26.2965 N   0  0  0  0  0  0  0  0  0  0  0  0
    9.7201  -18.1987   27.7232 C   0  0  1  0  0  0  0  0  0  0  0  0
    8.6930  -19.3169   27.9395 C   0  0  0  0  0  0  0  0  0  0  0  0
    7.5732  -19.2301   26.9970 C   0  0  0  0  0  0  0  0  0  0  0  0
    7.2263  -18.1359   26.2440 C   0  0  0  0  0  0  0  0  0  0  0  0
    6.1453  -18.4887   25.5227 N   0  0  0  0  0  0  0  0  0  0  0  0
    5.8277  -19.7627   25.8162 C   0  0  0  0  0  0  0  0  0  0  0  0
    6.7017  -20.2294   26.7241 N   0  0  0  0  0  0  0  0  0  0  0  0
   11.0007  -18.5214   28.3775 C   0  0  0  0  0  0  0  0  0  0  0  0
   12.0408  -18.7538   27.7091 O   0  0  0  0  0  0  0  0  0  0  0  0
   11.0616  -18.5702   29.7599 O   0  0  0  0  0  0  0  0  0  0  0  0
  2  1  1  6
  2 10  1  0
  2  3  1  0
  3  4  1  0
  4  5  2  0
  5  6  1  0
  7  6  2  0
  8  7  1  0
  9  4  1  0
  9  8  2  0
 10 18  1  0
 11 10  2  0
 13 15  1  0
 13 12  1  0
 14 13  2  0
 16 15  1  0
 17 16  1  1
 18 17  1  0
 19 20  2  0
 19 17  1  0
 21 19  1  0
 22 29  1  0
 22 21  1  0
 22 23  1  6
 24 23  1  0
 25 24  2  0
 26 27  1  0
 26 25  1  0
 27 28  2  0
 28 24  1  0
 29 31  1  0
 30 29  2  0
M  END
$$$$
