FQH.pdb
     RDKit          3D

 31 32  0  0  1  0  0  0  0  0999 V2000
    9.6581  -15.9201   20.1571 N   0  0  0  0  0  0  0  0  0  0  0  0
    9.8061  -16.2370   21.5733 C   0  0  1  0  0  0  0  0  0  0  0  0
    8.7676  -15.4618   22.3952 C   0  0  0  0  0  0  0  0  0  0  0  0
    8.1846  -14.4563   21.4754 C   0  0  0  0  0  0  0  0  0  0  0  0
    8.7477  -13.2085   21.3195 C   0  0  0  0  0  0  0  0  0  0  0  0
    8.2006  -12.2648   20.4563 C   0  0  0  0  0  0  0  0  0  0  0  0
    7.0700  -12.5493   19.7241 C   0  0  0  0  0  0  0  0  0  0  0  0
    6.5031  -13.7961   19.8766 C   0  0  0  0  0  0  0  0  0  0  0  0
    7.0547  -14.7424   20.7445 C   0  0  0  0  0  0  0  0  0  0  0  0
    9.6886  -17.6998   21.8100 C   0  0  0  0  0  0  0  0  0  0  0  0
    8.5409  -18.1884   21.8485 O   0  0  0  0  0  0  0  0  0  0  0  0
   13.3857  -20.6724   19.3743 N   0  0  0  0  0  0  0  0  0  0  0  0
   12.1131  -20.2892   18.8866 C   0  0  0  0  0  0  0  0  0  0  0  0
   12.0138  -19.9062   17.7007 O   0  0  0  0  0  0  0  0  0  0  0  0
   10.9240  -20.3410   19.7629 C   0  0  0  0  0  0  0  0  0  0  0  0
   11.3382  -20.7725   21.1243 C   0  0  0  0  0  0  0  0  0  0  0  0
   10.7226  -19.9612   22.2354 C   0  0  2  0  0  0  0  0  0  0  0  0
   10.8228  -18.5369   21.9896 N   0  0  0  0  0  0  0  0  0  0  0  0
   11.2404  -20.3116   23.5625 C   0  0  0  0  0  0  0  0  0  0  0  0
   11.5842  -21.4924   23.8215 O   0  0  0  0  0  0  0  0  0  0  0  0
   11.3769  -19.3533   24.6022 N   0  0  0  0  0  0  0  0  0  0  0  0
   12.6355  -19.0817   25.2613 C   0  0  1  0  0  0  0  0  0  0  0  0
   13.6528  -18.7043   24.1775 C   0  0  0  0  0  0  0  0  0  0  0  0
   14.9921  -18.4783   24.7300 C   0  0  0  0  0  0  0  0  0  0  0  0
   15.4216  -18.8199   25.9881 C   0  0  0  0  0  0  0  0  0  0  0  0
   16.7085  -18.4334   26.0768 N   0  0  0  0  0  0  0  0  0  0  0  0
   17.0706  -17.8683   24.9106 C   0  0  0  0  0  0  0  0  0  0  0  0
   16.0198  -17.8908   24.0732 N   0  0  0  0  0  0  0  0  0  0  0  0
   12.4818  -17.9954   26.2454 C   0  0  0  0  0  0  0  0  0  0  0  0
   13.4358  -17.6353   26.9821 O   0  0  0  0  0  0  0  0  0  0  0  0
   11.2594  -17.3557   26.3627 O   0  0  0  0  0  0  0  0  0  0  0  0
  2  1  1  6
  2 10  1  0
  2  3  1  0
  3  4  1  0
  4  5  2  0
  5  6  1  0
  7  6  2  0
  8  7  1  0
  9  4  1  0
  9  8  2  0
 10 18  1  0
 11 10  2  0
 13 15  1  0
 13 12  1  0
 14 13  2  0
 16 15  1  0
 17 16  1  6
 18 17  1  0
 19 20  2  0
 19 17  1  0
 21 19  1  0
 22 29  1  0
 22 21  1  0
 22 23  1  6
 24 23  1  0
 25 24  2  0
 26 27  1  0
 26 25  1  0
 27 28  2  0
 28 24  1  0
 29 31  1  0
 30 29  2  0
M  END
$$$$
