FQH.pdb
     RDKit          3D

 31 32  0  0  1  0  0  0  0  0999 V2000
    5.5011  -17.1642   24.7928 N   0  0  0  0  0  0  0  0  0  0  0  0
    6.5836  -16.1895   24.7153 C   0  0  1  0  0  0  0  0  0  0  0  0
    7.0210  -15.7785   26.1276 C   0  0  0  0  0  0  0  0  0  0  0  0
    6.8140  -14.3132   26.2107 C   0  0  0  0  0  0  0  0  0  0  0  0
    7.8311  -13.4241   25.9397 C   0  0  0  0  0  0  0  0  0  0  0  0
    7.6369  -12.0489   26.0176 C   0  0  0  0  0  0  0  0  0  0  0  0
    6.4126  -11.5277   26.3708 C   0  0  0  0  0  0  0  0  0  0  0  0
    5.3921  -12.4129   26.6429 C   0  0  0  0  0  0  0  0  0  0  0  0
    5.5898  -13.7941   26.5639 C   0  0  0  0  0  0  0  0  0  0  0  0
    7.7314  -16.7245   23.9368 C   0  0  0  0  0  0  0  0  0  0  0  0
    8.1397  -17.8687   24.2221 O   0  0  0  0  0  0  0  0  0  0  0  0
    6.4858  -14.1731   20.8986 N   0  0  0  0  0  0  0  0  0  0  0  0
    7.6420  -14.6844   20.2615 C   0  0  0  0  0  0  0  0  0  0  0  0
    7.5049  -15.3610   19.2193 O   0  0  0  0  0  0  0  0  0  0  0  0
    8.9862  -14.4232   20.8178 C   0  0  0  0  0  0  0  0  0  0  0  0
    9.7412  -15.7021   20.8931 C   0  0  0  0  0  0  0  0  0  0  0  0
    9.5135  -16.4711   22.1693 C   0  0  2  0  0  0  0  0  0  0  0  0
    8.3612  -15.9841   22.9002 N   0  0  0  0  0  0  0  0  0  0  0  0
   10.7022  -16.5336   23.0266 C   0  0  0  0  0  0  0  0  0  0  0  0
   11.4121  -15.5125   23.2080 O   0  0  0  0  0  0  0  0  0  0  0  0
   11.1038  -17.7278   23.6827 N   0  0  0  0  0  0  0  0  0  0  0  0
   12.3393  -17.8393   24.4267 C   0  0  1  0  0  0  0  0  0  0  0  0
   12.2009  -19.0358   25.3760 C   0  0  0  0  0  0  0  0  0  0  0  0
   11.2431  -18.7779   26.4558 C   0  0  0  0  0  0  0  0  0  0  0  0
   10.8407  -17.5465   26.9097 C   0  0  0  0  0  0  0  0  0  0  0  0
    9.9593  -17.7686   27.9033 N   0  0  0  0  0  0  0  0  0  0  0  0
    9.8163  -19.0968   28.0643 C   0  0  0  0  0  0  0  0  0  0  0  0
   10.6033  -19.7284   27.1769 N   0  0  0  0  0  0  0  0  0  0  0  0
   13.4812  -18.0176   23.5121 C   0  0  0  0  0  0  0  0  0  0  0  0
   14.6687  -17.9597   23.9232 O   0  0  0  0  0  0  0  0  0  0  0  0
   13.2426  -18.2544   22.1689 O   0  0  0  0  0  0  0  0  0  0  0  0
  2  1  1  1
  2 10  1  0
  2  3  1  0
  3  4  1  0
  4  5  2  0
  5  6  1  0
  7  6  2  0
  8  7  1  0
  9  4  1  0
  9  8  2  0
 10 18  1  0
 11 10  2  0
 13 15  1  0
 13 12  1  0
 14 13  2  0
 16 15  1  0
 17 16  1  6
 18 17  1  0
 19 20  2  0
 19 17  1  0
 21 19  1  0
 22 29  1  0
 22 21  1  0
 22 23  1  1
 24 23  1  0
 25 24  2  0
 26 27  1  0
 26 25  1  0
 27 28  2  0
 28 24  1  0
 29 31  1  0
 30 29  2  0
M  END
$$$$
