FQH.pdb
     RDKit          3D

 31 32  0  0  1  0  0  0  0  0999 V2000
    7.7418  -16.8065   21.1935 N   0  0  0  0  0  0  0  0  0  0  0  0
    9.0764  -16.3732   21.5924 C   0  0  1  0  0  0  0  0  0  0  0  0
    8.9979  -15.0083   22.2892 C   0  0  0  0  0  0  0  0  0  0  0  0
    8.5109  -14.0531   21.2659 C   0  0  0  0  0  0  0  0  0  0  0  0
    7.1803  -13.7064   21.1774 C   0  0  0  0  0  0  0  0  0  0  0  0
    6.7231  -12.8099   20.2171 C   0  0  0  0  0  0  0  0  0  0  0  0
    7.5921  -12.2356   19.3169 C   0  0  0  0  0  0  0  0  0  0  0  0
    8.9239  -12.5792   19.4013 C   0  0  0  0  0  0  0  0  0  0  0  0
    9.3807  -13.4801   20.3671 C   0  0  0  0  0  0  0  0  0  0  0  0
    9.7275  -17.3820   22.4687 C   0  0  0  0  0  0  0  0  0  0  0  0
    9.0150  -17.9554   23.3178 O   0  0  0  0  0  0  0  0  0  0  0  0
   12.3712  -22.0760   24.5108 N   0  0  0  0  0  0  0  0  0  0  0  0
   13.2584  -21.5021   23.5686 C   0  0  0  0  0  0  0  0  0  0  0  0
   13.6525  -22.2014   22.6102 O   0  0  0  0  0  0  0  0  0  0  0  0
   13.7103  -20.1025   23.7150 C   0  0  0  0  0  0  0  0  0  0  0  0
   12.9747  -19.2473   22.7461 C   0  0  0  0  0  0  0  0  0  0  0  0
   11.8059  -18.5098   23.3477 C   0  0  2  0  0  0  0  0  0  0  0  0
   11.1081  -17.7031   22.3672 N   0  0  0  0  0  0  0  0  0  0  0  0
   12.1672  -17.7196   24.5297 C   0  0  0  0  0  0  0  0  0  0  0  0
   12.9293  -16.7259   24.4238 O   0  0  0  0  0  0  0  0  0  0  0  0
   11.6837  -18.0309   25.8286 N   0  0  0  0  0  0  0  0  0  0  0  0
   11.4101  -17.0223   26.8287 C   0  0  1  0  0  0  0  0  0  0  0  0
   10.2545  -16.1580   26.3095 C   0  0  0  0  0  0  0  0  0  0  0  0
    9.9071  -15.0804   27.2412 C   0  0  0  0  0  0  0  0  0  0  0  0
   10.5216  -14.8103   28.4385 C   0  0  0  0  0  0  0  0  0  0  0  0
    9.8909  -13.7440   28.9662 N   0  0  0  0  0  0  0  0  0  0  0  0
    8.9136  -13.3608   28.1246 C   0  0  0  0  0  0  0  0  0  0  0  0
    8.9148  -14.1780   27.0578 N   0  0  0  0  0  0  0  0  0  0  0  0
   11.0656  -17.6495   28.1171 C   0  0  0  0  0  0  0  0  0  0  0  0
   10.3006  -18.6461   28.1800 O   0  0  0  0  0  0  0  0  0  0  0  0
   11.5957  -17.1304   29.2863 O   0  0  0  0  0  0  0  0  0  0  0  0
  2  1  1  1
  2 10  1  0
  2  3  1  0
  3  4  1  0
  4  5  2  0
  5  6  1  0
  7  6  2  0
  8  7  1  0
  9  4  1  0
  9  8  2  0
 10 18  1  0
 11 10  2  0
 13 15  1  0
 13 12  1  0
 14 13  2  0
 16 15  1  0
 17 16  1  6
 18 17  1  0
 19 20  2  0
 19 17  1  0
 21 19  1  0
 22 29  1  0
 22 21  1  0
 22 23  1  6
 24 23  1  0
 25 24  2  0
 26 27  1  0
 26 25  1  0
 27 28  2  0
 28 24  1  0
 29 31  1  0
 30 29  2  0
M  END
$$$$
