FQH.pdb
     RDKit          3D

 31 32  0  0  1  0  0  0  0  0999 V2000
    6.2330  -16.2848   24.8513 N   0  0  0  0  0  0  0  0  0  0  0  0
    7.5021  -15.6057   24.6139 C   0  0  1  0  0  0  0  0  0  0  0  0
    7.9484  -14.8698   25.8844 C   0  0  0  0  0  0  0  0  0  0  0  0
    7.3230  -13.5275   25.8217 C   0  0  0  0  0  0  0  0  0  0  0  0
    7.8227  -12.5358   25.0061 C   0  0  0  0  0  0  0  0  0  0  0  0
    7.2358  -11.2760   24.9471 C   0  0  0  0  0  0  0  0  0  0  0  0
    6.1279  -10.9771   25.7079 C   0  0  0  0  0  0  0  0  0  0  0  0
    5.6244  -11.9657   26.5252 C   0  0  0  0  0  0  0  0  0  0  0  0
    6.2159  -13.2305   26.5826 C   0  0  0  0  0  0  0  0  0  0  0  0
    8.5446  -16.5625   24.1585 C   0  0  0  0  0  0  0  0  0  0  0  0
    8.5370  -17.7060   24.6581 O   0  0  0  0  0  0  0  0  0  0  0  0
   11.2522  -19.3513   20.4483 N   0  0  0  0  0  0  0  0  0  0  0  0
   10.1981  -18.5192   20.0005 C   0  0  0  0  0  0  0  0  0  0  0  0
    9.3325  -19.0023   19.2387 O   0  0  0  0  0  0  0  0  0  0  0  0
   10.1220  -17.1056   20.4254 C   0  0  0  0  0  0  0  0  0  0  0  0
   11.1514  -16.8525   21.4683 C   0  0  0  0  0  0  0  0  0  0  0  0
   10.6585  -17.0652   22.8767 C   0  0  2  0  0  0  0  0  0  0  0  0
    9.5268  -16.2169   23.1915 N   0  0  0  0  0  0  0  0  0  0  0  0
   11.7167  -16.9394   23.8849 C   0  0  0  0  0  0  0  0  0  0  0  0
   12.5017  -15.9582   23.8664 O   0  0  0  0  0  0  0  0  0  0  0  0
   11.9045  -17.9012   24.9133 N   0  0  0  0  0  0  0  0  0  0  0  0
   12.9745  -17.8171   25.8830 C   0  0  1  0  0  0  0  0  0  0  0  0
   12.3582  -18.0300   27.2711 C   0  0  0  0  0  0  0  0  0  0  0  0
   11.6054  -16.8578   27.7283 C   0  0  0  0  0  0  0  0  0  0  0  0
   11.3937  -15.7002   27.0216 C   0  0  0  0  0  0  0  0  0  0  0  0
   10.6583  -14.8935   27.8101 N   0  0  0  0  0  0  0  0  0  0  0  0
   10.4187  -15.5277   28.9722 C   0  0  0  0  0  0  0  0  0  0  0  0
   10.9981  -16.7396   28.9325 N   0  0  0  0  0  0  0  0  0  0  0  0
   14.0097  -18.8278   25.6020 C   0  0  0  0  0  0  0  0  0  0  0  0
   13.7437  -19.8851   24.9744 O   0  0  0  0  0  0  0  0  0  0  0  0
   15.3055  -18.6096   26.0385 O   0  0  0  0  0  0  0  0  0  0  0  0
  2  1  1  1
  2 10  1  0
  2  3  1  0
  3  4  1  0
  4  5  2  0
  5  6  1  0
  7  6  2  0
  8  7  1  0
  9  4  1  0
  9  8  2  0
 10 18  1  0
 11 10  2  0
 13 15  1  0
 13 12  1  0
 14 13  2  0
 16 15  1  0
 17 16  1  6
 18 17  1  0
 19 20  2  0
 19 17  1  0
 21 19  1  0
 22 29  1  0
 22 21  1  0
 22 23  1  1
 24 23  1  0
 25 24  2  0
 26 27  1  0
 26 25  1  0
 27 28  2  0
 28 24  1  0
 29 31  1  0
 30 29  2  0
M  END
$$$$
