FQH.pdb
     RDKit          3D

 31 32  0  0  1  0  0  0  0  0999 V2000
    6.3973  -16.0858   23.1834 N   0  0  0  0  0  0  0  0  0  0  0  0
    7.6235  -15.6105   23.8147 C   0  0  1  0  0  0  0  0  0  0  0  0
    7.3467  -15.2262   25.2743 C   0  0  0  0  0  0  0  0  0  0  0  0
    7.0673  -13.7706   25.2690 C   0  0  0  0  0  0  0  0  0  0  0  0
    7.9229  -12.8693   25.8640 C   0  0  0  0  0  0  0  0  0  0  0  0
    7.6608  -11.5031   25.8591 C   0  0  0  0  0  0  0  0  0  0  0  0
    6.5292  -11.0036   25.2547 C   0  0  0  0  0  0  0  0  0  0  0  0
    5.6703  -11.9011   24.6582 C   0  0  0  0  0  0  0  0  0  0  0  0
    5.9360  -13.2731   24.6645 C   0  0  0  0  0  0  0  0  0  0  0  0
    8.7010  -16.6308   23.7276 C   0  0  0  0  0  0  0  0  0  0  0  0
    8.6241  -17.6183   24.4866 O   0  0  0  0  0  0  0  0  0  0  0  0
   12.8948  -18.5160   18.9186 N   0  0  0  0  0  0  0  0  0  0  0  0
   11.8329  -18.7849   19.8155 C   0  0  0  0  0  0  0  0  0  0  0  0
   11.5289  -19.9750   20.0481 O   0  0  0  0  0  0  0  0  0  0  0  0
   11.0974  -17.6795   20.4650 C   0  0  0  0  0  0  0  0  0  0  0  0
   11.8330  -17.2530   21.6849 C   0  0  0  0  0  0  0  0  0  0  0  0
   11.0046  -17.2960   22.9434 C   0  0  2  0  0  0  0  0  0  0  0  0
    9.7911  -16.5136   22.8236 N   0  0  0  0  0  0  0  0  0  0  0  0
   11.7603  -16.9286   24.1459 C   0  0  0  0  0  0  0  0  0  0  0  0
   12.1032  -15.7358   24.3438 O   0  0  0  0  0  0  0  0  0  0  0  0
   12.1356  -17.8831   25.1286 N   0  0  0  0  0  0  0  0  0  0  0  0
   12.2478  -17.5621   26.5346 C   0  0  1  0  0  0  0  0  0  0  0  0
   10.9456  -16.8702   26.9560 C   0  0  0  0  0  0  0  0  0  0  0  0
   10.8907  -16.6265   28.4008 C   0  0  0  0  0  0  0  0  0  0  0  0
   11.8305  -17.0064   29.3264 C   0  0  0  0  0  0  0  0  0  0  0  0
   11.3861  -16.5848   30.5257 N   0  0  0  0  0  0  0  0  0  0  0  0
   10.2062  -15.9614   30.3537 C   0  0  0  0  0  0  0  0  0  0  0  0
    9.8915  -15.9814   29.0474 N   0  0  0  0  0  0  0  0  0  0  0  0
   12.4807  -18.7820   27.3281 C   0  0  0  0  0  0  0  0  0  0  0  0
   11.7892  -19.8191   27.1587 O   0  0  0  0  0  0  0  0  0  0  0  0
   13.4838  -18.7878   28.2827 O   0  0  0  0  0  0  0  0  0  0  0  0
  2  1  1  1
  2 10  1  0
  2  3  1  0
  3  4  1  0
  4  5  2  0
  5  6  1  0
  7  6  2  0
  8  7  1  0
  9  4  1  0
  9  8  2  0
 10 18  1  0
 11 10  2  0
 13 15  1  0
 13 12  1  0
 14 13  2  0
 16 15  1  0
 17 16  1  6
 18 17  1  0
 19 20  2  0
 19 17  1  0
 21 19  1  0
 22 29  1  0
 22 21  1  0
 22 23  1  1
 24 23  1  0
 25 24  2  0
 26 27  1  0
 26 25  1  0
 27 28  2  0
 28 24  1  0
 29 31  1  0
 30 29  2  0
M  END
$$$$
