FQH.pdb
     RDKit          3D

 31 32  0  0  1  0  0  0  0  0999 V2000
    8.7989  -16.8475   19.4686 N   0  0  0  0  0  0  0  0  0  0  0  0
   10.0727  -16.1702   19.6846 C   0  0  1  0  0  0  0  0  0  0  0  0
    9.9424  -15.1633   20.8353 C   0  0  0  0  0  0  0  0  0  0  0  0
    8.8521  -14.2370   20.4478 C   0  0  0  0  0  0  0  0  0  0  0  0
    7.5698  -14.3906   20.9281 C   0  0  0  0  0  0  0  0  0  0  0  0
    6.5464  -13.5213   20.5646 C   0  0  0  0  0  0  0  0  0  0  0  0
    6.7836  -12.4713   19.7064 C   0  0  0  0  0  0  0  0  0  0  0  0
    8.0645  -12.3135   19.2233 C   0  0  0  0  0  0  0  0  0  0  0  0
    9.0909  -13.1882   19.5901 C   0  0  0  0  0  0  0  0  0  0  0  0
   11.1603  -17.1474   19.9526 C   0  0  0  0  0  0  0  0  0  0  0  0
   11.0102  -18.3103   19.5256 O   0  0  0  0  0  0  0  0  0  0  0  0
   13.7667  -17.8697   16.2057 N   0  0  0  0  0  0  0  0  0  0  0  0
   13.2697  -18.8934   17.0479 C   0  0  0  0  0  0  0  0  0  0  0  0
   12.4634  -19.7232   16.5745 O   0  0  0  0  0  0  0  0  0  0  0  0
   13.6960  -18.9798   18.4605 C   0  0  0  0  0  0  0  0  0  0  0  0
   13.9309  -17.6083   18.9850 C   0  0  0  0  0  0  0  0  0  0  0  0
   13.6145  -17.4528   20.4505 C   0  0  2  0  0  0  0  0  0  0  0  0
   12.3393  -16.7998   20.6659 N   0  0  0  0  0  0  0  0  0  0  0  0
   14.6857  -16.7949   21.2067 C   0  0  0  0  0  0  0  0  0  0  0  0
   15.8488  -16.7254   20.7357 O   0  0  0  0  0  0  0  0  0  0  0  0
   14.4675  -16.2144   22.4846 N   0  0  0  0  0  0  0  0  0  0  0  0
   14.1282  -16.9936   23.6551 C   0  0  1  0  0  0  0  0  0  0  0  0
   12.8916  -17.8324   23.3095 C   0  0  0  0  0  0  0  0  0  0  0  0
   12.4542  -18.6636   24.4353 C   0  0  0  0  0  0  0  0  0  0  0  0
   13.0250  -18.7097   25.6828 C   0  0  0  0  0  0  0  0  0  0  0  0
   12.3137  -19.5987   26.4020 N   0  0  0  0  0  0  0  0  0  0  0  0
   11.3301  -20.0918   25.6276 C   0  0  0  0  0  0  0  0  0  0  0  0
   11.4075  -19.5220   24.4130 N   0  0  0  0  0  0  0  0  0  0  0  0
   15.2579  -17.8532   24.0513 C   0  0  0  0  0  0  0  0  0  0  0  0
   15.7226  -18.7279   23.2758 O   0  0  0  0  0  0  0  0  0  0  0  0
   15.8217  -17.6952   25.3061 O   0  0  0  0  0  0  0  0  0  0  0  0
  2  1  1  1
  2 10  1  0
  2  3  1  0
  3  4  1  0
  4  5  2  0
  5  6  1  0
  7  6  2  0
  8  7  1  0
  9  4  1  0
  9  8  2  0
 10 18  1  0
 11 10  2  0
 13 15  1  0
 13 12  1  0
 14 13  2  0
 16 15  1  0
 17 16  1  6
 18 17  1  0
 19 20  2  0
 19 17  1  0
 21 19  1  0
 22 29  1  0
 22 21  1  0
 22 23  1  6
 24 23  1  0
 25 24  2  0
 26 27  1  0
 26 25  1  0
 27 28  2  0
 28 24  1  0
 29 31  1  0
 30 29  2  0
M  END
$$$$
