FQH.pdb
     RDKit          3D

 31 32  0  0  1  0  0  0  0  0999 V2000
    7.0072  -16.4684   25.0763 N   0  0  0  0  0  0  0  0  0  0  0  0
    7.3253  -15.2394   24.3579 C   0  0  1  0  0  0  0  0  0  0  0  0
    8.3405  -14.4123   25.1579 C   0  0  0  0  0  0  0  0  0  0  0  0
    7.5441  -13.4831   25.9941 C   0  0  0  0  0  0  0  0  0  0  0  0
    7.5681  -13.5495   27.3701 C   0  0  0  0  0  0  0  0  0  0  0  0
    6.8206  -12.6774   28.1549 C   0  0  0  0  0  0  0  0  0  0  0  0
    6.0265  -11.7123   27.5776 C   0  0  0  0  0  0  0  0  0  0  0  0
    5.9991  -11.6420   26.2016 C   0  0  0  0  0  0  0  0  0  0  0  0
    6.7510  -12.5192   25.4154 C   0  0  0  0  0  0  0  0  0  0  0  0
    7.8355  -15.5335   22.9930 C   0  0  0  0  0  0  0  0  0  0  0  0
    7.9840  -16.7317   22.6776 O   0  0  0  0  0  0  0  0  0  0  0  0
    6.8031  -13.2522   17.9463 N   0  0  0  0  0  0  0  0  0  0  0  0
    8.0570  -13.7848   17.5612 C   0  0  0  0  0  0  0  0  0  0  0  0
    8.1785  -14.2687   16.4149 O   0  0  0  0  0  0  0  0  0  0  0  0
    9.2012  -13.7692   18.4967 C   0  0  0  0  0  0  0  0  0  0  0  0
    8.7009  -13.5359   19.8774 C   0  0  0  0  0  0  0  0  0  0  0  0
    8.6408  -14.7818   20.7235 C   0  0  2  0  0  0  0  0  0  0  0  0
    8.1512  -14.5095   22.0596 N   0  0  0  0  0  0  0  0  0  0  0  0
    9.9090  -15.5182   20.7593 C   0  0  0  0  0  0  0  0  0  0  0  0
   10.1359  -16.4380   19.9336 O   0  0  0  0  0  0  0  0  0  0  0  0
   10.9255  -15.2349   21.7104 N   0  0  0  0  0  0  0  0  0  0  0  0
   12.1183  -16.0410   21.8505 C   0  0  1  0  0  0  0  0  0  0  0  0
   13.3236  -15.0933   21.8131 C   0  0  0  0  0  0  0  0  0  0  0  0
   13.7724  -14.8221   20.4439 C   0  0  0  0  0  0  0  0  0  0  0  0
   13.2331  -15.3407   19.2930 C   0  0  0  0  0  0  0  0  0  0  0  0
   13.9438  -14.8323   18.2684 N   0  0  0  0  0  0  0  0  0  0  0  0
   14.8966  -14.0220   18.7644 C   0  0  0  0  0  0  0  0  0  0  0  0
   14.7998  -14.0084   20.1046 N   0  0  0  0  0  0  0  0  0  0  0  0
   12.0833  -16.8046   23.1105 C   0  0  0  0  0  0  0  0  0  0  0  0
   13.0344  -17.5534   23.4527 O   0  0  0  0  0  0  0  0  0  0  0  0
   10.9782  -16.6960   23.9378 O   0  0  0  0  0  0  0  0  0  0  0  0
  2  1  1  1
  2 10  1  0
  2  3  1  0
  3  4  1  0
  4  5  2  0
  5  6  1  0
  7  6  2  0
  8  7  1  0
  9  4  1  0
  9  8  2  0
 10 18  1  0
 11 10  2  0
 13 15  1  0
 13 12  1  0
 14 13  2  0
 16 15  1  0
 17 16  1  1
 18 17  1  0
 19 20  2  0
 19 17  1  0
 21 19  1  0
 22 29  1  0
 22 21  1  0
 22 23  1  1
 24 23  1  0
 25 24  2  0
 26 27  1  0
 26 25  1  0
 27 28  2  0
 28 24  1  0
 29 31  1  0
 30 29  2  0
M  END
$$$$
