DKC.pdb
     RDKit          3D

 24 23  0  0  1  0  0  0  0  0999 V2000
   14.1022  -16.3829   20.4456 N   0  0  0  0  0  0  0  0  0  0  0  0
   14.1970  -16.4476   21.8729 C   0  0  1  0  0  0  0  0  0  0  0  0
   15.2194  -15.4235   22.3169 C   0  0  0  0  0  0  0  0  0  0  0  0
   16.5616  -15.8795   21.8703 C   0  0  0  0  0  0  0  0  0  0  0  0
   17.3466  -15.0993   21.2468 O   0  0  0  0  0  0  0  0  0  0  0  0
   12.8630  -16.1817   22.4726 C   0  0  0  0  0  0  0  0  0  0  0  0
   12.1553  -15.1948   22.1191 O   0  0  0  0  0  0  0  0  0  0  0  0
   17.0025  -17.1578   22.1144 O   0  0  0  0  0  0  0  0  0  0  0  0
   12.3428  -17.0287   23.4614 N   0  0  0  0  0  0  0  0  0  0  0  0
   11.0268  -16.7979   24.0986 C   0  0  1  0  0  0  0  0  0  0  0  0
   10.2336  -18.0371   23.8508 C   0  0  0  0  0  0  0  0  0  0  0  0
   10.7512  -19.2738   24.5358 C   0  0  0  0  0  0  0  0  0  0  0  0
    9.9388  -20.4939   24.0858 C   0  0  0  0  0  0  0  0  0  0  0  0
   10.5209  -21.7927   24.5349 C   0  0  0  0  0  0  0  0  0  0  0  0
    9.6863  -22.8659   23.9705 N   0  0  0  0  0  0  0  0  0  0  0  0
   11.2459  -16.3690   25.4525 C   0  0  0  0  0  0  0  0  0  0  0  0
   12.2874  -16.8042   26.0618 O   0  0  0  0  0  0  0  0  0  0  0  0
   10.4431  -15.5042   26.2221 N   0  0  0  0  0  0  0  0  0  0  0  0
   10.7823  -15.2046   27.5943 C   0  0  1  0  0  0  0  0  0  0  0  0
    9.8428  -14.0672   28.0204 C   0  0  0  0  0  0  0  0  0  0  0  0
   10.1134  -13.6194   29.7349 S   0  0  0  0  0  0  0  0  0  0  0  0
   10.5442  -16.3627   28.4876 C   0  0  0  0  0  0  0  0  0  0  0  0
    9.5672  -17.1146   28.2602 O   0  0  0  0  0  0  0  0  0  0  0  0
   11.3685  -16.6376   29.5642 O   0  0  0  0  0  0  0  0  0  0  0  0
  2  1  1  6
  2  3  1  0
  3  4  1  0
  4  8  1  0
  4  5  2  0
  6  2  1  0
  7  6  2  0
  9  6  1  0
 10  9  1  0
 10 11  1  1
 11 12  1  0
 12 13  1  0
 13 14  1  0
 14 15  1  0
 16 18  1  0
 16 10  1  0
 17 16  2  0
 19 20  1  1
 19 18  1  0
 21 20  1  0
 22 19  1  0
 22 24  1  0
 23 22  2  0
M  END
$$$$
