DKC.pdb
     RDKit          3D

 24 23  0  0  1  0  0  0  0  0999 V2000
   10.7573  -17.0891   20.1516 N   0  0  0  0  0  0  0  0  0  0  0  0
   11.4943  -16.9916   21.3754 C   0  0  1  0  0  0  0  0  0  0  0  0
   12.6534  -16.0458   21.1449 C   0  0  0  0  0  0  0  0  0  0  0  0
   13.5637  -16.6581   20.1422 C   0  0  0  0  0  0  0  0  0  0  0  0
   14.5417  -16.0072   19.6590 O   0  0  0  0  0  0  0  0  0  0  0  0
   10.5993  -16.5037   22.4575 C   0  0  0  0  0  0  0  0  0  0  0  0
   10.1979  -15.3052   22.5041 O   0  0  0  0  0  0  0  0  0  0  0  0
   13.3822  -17.9469   19.7017 O   0  0  0  0  0  0  0  0  0  0  0  0
   10.1679  -17.3696   23.4723 N   0  0  0  0  0  0  0  0  0  0  0  0
    9.2161  -16.9525   24.5265 C   0  0  1  0  0  0  0  0  0  0  0  0
    8.4061  -18.1647   24.8439 C   0  0  0  0  0  0  0  0  0  0  0  0
    7.5544  -18.6771   23.7131 C   0  0  0  0  0  0  0  0  0  0  0  0
    6.7818  -19.9208   24.1686 C   0  0  0  0  0  0  0  0  0  0  0  0
    5.8590  -20.4604   23.1272 C   0  0  0  0  0  0  0  0  0  0  0  0
    5.2828  -21.7077   23.6555 N   0  0  0  0  0  0  0  0  0  0  0  0
    9.9553  -16.3122   25.5793 C   0  0  0  0  0  0  0  0  0  0  0  0
   11.1597  -16.6989   25.7920 O   0  0  0  0  0  0  0  0  0  0  0  0
    9.5181  -15.2811   26.4340 N   0  0  0  0  0  0  0  0  0  0  0  0
   10.3764  -14.7718   27.4787 C   0  0  1  0  0  0  0  0  0  0  0  0
    9.9115  -13.3317   27.7395 C   0  0  0  0  0  0  0  0  0  0  0  0
    8.1221  -13.2309   27.7729 S   0  0  0  0  0  0  0  0  0  0  0  0
   10.2315  -15.5414   28.7368 C   0  0  0  0  0  0  0  0  0  0  0  0
    9.3843  -16.4638   28.7906 O   0  0  0  0  0  0  0  0  0  0  0  0
   11.0038  -15.2712   29.8526 O   0  0  0  0  0  0  0  0  0  0  0  0
  2  1  1  6
  2  3  1  0
  3  4  1  0
  4  8  1  0
  4  5  2  0
  6  2  1  0
  7  6  2  0
  9  6  1  0
 10  9  1  0
 10 11  1  1
 11 12  1  0
 12 13  1  0
 13 14  1  0
 14 15  1  0
 16 18  1  0
 16 10  1  0
 17 16  2  0
 19 20  1  1
 19 18  1  0
 21 20  1  0
 22 19  1  0
 22 24  1  0
 23 22  2  0
M  END
$$$$
