DKC.pdb
     RDKit          3D

 24 23  0  0  1  0  0  0  0  0999 V2000
   13.1949  -18.8982   15.7695 N   0  0  0  0  0  0  0  0  0  0  0  0
   13.1885  -19.8322   16.8548 C   0  0  1  0  0  0  0  0  0  0  0  0
   14.5988  -19.9235   17.3968 C   0  0  0  0  0  0  0  0  0  0  0  0
   15.4908  -20.3871   16.3022 C   0  0  0  0  0  0  0  0  0  0  0  0
   15.2893  -21.4957   15.7156 O   0  0  0  0  0  0  0  0  0  0  0  0
   12.2320  -19.3765   17.8976 C   0  0  0  0  0  0  0  0  0  0  0  0
   12.0709  -18.1515   18.1681 O   0  0  0  0  0  0  0  0  0  0  0  0
   16.5634  -19.6365   15.8849 O   0  0  0  0  0  0  0  0  0  0  0  0
   11.4699  -20.3038   18.6221 N   0  0  0  0  0  0  0  0  0  0  0  0
   10.4778  -19.8980   19.6429 C   0  0  1  0  0  0  0  0  0  0  0  0
    9.3428  -20.8572   19.5090 C   0  0  0  0  0  0  0  0  0  0  0  0
    8.2469  -20.6955   20.5286 C   0  0  0  0  0  0  0  0  0  0  0  0
    7.2063  -21.8077   20.3516 C   0  0  0  0  0  0  0  0  0  0  0  0
    6.0327  -21.6725   21.2636 C   0  0  0  0  0  0  0  0  0  0  0  0
    5.0927  -22.7558   20.9323 N   0  0  0  0  0  0  0  0  0  0  0  0
   11.1483  -19.7831   20.9086 C   0  0  0  0  0  0  0  0  0  0  0  0
   12.0389  -20.6588   21.2008 O   0  0  0  0  0  0  0  0  0  0  0  0
   10.9518  -18.8027   21.9010 N   0  0  0  0  0  0  0  0  0  0  0  0
   11.7206  -18.8231   23.1242 C   0  0  1  0  0  0  0  0  0  0  0  0
   11.5940  -17.4150   23.7234 C   0  0  0  0  0  0  0  0  0  0  0  0
   12.5952  -16.2382   22.8145 S   0  0  0  0  0  0  0  0  0  0  0  0
   11.1765  -19.7944   24.1023 C   0  0  0  0  0  0  0  0  0  0  0  0
   10.0723  -20.3394   23.8673 O   0  0  0  0  0  0  0  0  0  0  0  0
   11.8516  -20.1166   25.2661 O   0  0  0  0  0  0  0  0  0  0  0  0
  2  1  1  6
  2  3  1  0
  3  4  1  0
  4  8  1  0
  4  5  2  0
  6  2  1  0
  7  6  2  0
  9  6  1  0
 10  9  1  0
 10 11  1  1
 11 12  1  0
 12 13  1  0
 13 14  1  0
 14 15  1  0
 16 18  1  0
 16 10  1  0
 17 16  2  0
 19 20  1  1
 19 18  1  0
 21 20  1  0
 22 19  1  0
 22 24  1  0
 23 22  2  0
M  END
$$$$
