DKC.pdb
     RDKit          3D

 24 23  0  0  1  0  0  0  0  0999 V2000
   10.9654  -16.9473   13.3047 N   0  0  0  0  0  0  0  0  0  0  0  0
   11.0988  -18.2134   13.9601 C   0  0  1  0  0  0  0  0  0  0  0  0
   12.5764  -18.5120   14.0966 C   0  0  0  0  0  0  0  0  0  0  0  0
   13.1920  -18.4510   12.7452 C   0  0  0  0  0  0  0  0  0  0  0  0
   14.4414  -18.2731   12.6001 O   0  0  0  0  0  0  0  0  0  0  0  0
   10.4285  -18.1602   15.2860 C   0  0  0  0  0  0  0  0  0  0  0  0
   10.3245  -17.0828   15.9402 O   0  0  0  0  0  0  0  0  0  0  0  0
   12.4356  -18.5843   11.6060 O   0  0  0  0  0  0  0  0  0  0  0  0
    9.8844  -19.3187   15.8582 N   0  0  0  0  0  0  0  0  0  0  0  0
    9.0806  -19.2935   17.1009 C   0  0  1  0  0  0  0  0  0  0  0  0
    7.8932  -20.1565   16.8332 C   0  0  0  0  0  0  0  0  0  0  0  0
    6.9592  -20.3367   18.0002 C   0  0  0  0  0  0  0  0  0  0  0  0
    5.6891  -21.0621   17.5401 C   0  0  0  0  0  0  0  0  0  0  0  0
    4.6937  -21.2665   18.6332 C   0  0  0  0  0  0  0  0  0  0  0  0
    3.5015  -21.8851   18.0307 N   0  0  0  0  0  0  0  0  0  0  0  0
    9.9412  -19.6144   18.2060 C   0  0  0  0  0  0  0  0  0  0  0  0
   10.8507  -20.5005   18.0245 O   0  0  0  0  0  0  0  0  0  0  0  0
    9.9181  -19.0647   19.5029 N   0  0  0  0  0  0  0  0  0  0  0  0
   10.8216  -19.5409   20.5250 C   0  0  1  0  0  0  0  0  0  0  0  0
   10.9820  -18.3805   21.5177 C   0  0  0  0  0  0  0  0  0  0  0  0
   12.0213  -18.8561   22.8987 S   0  0  0  0  0  0  0  0  0  0  0  0
   10.2650  -20.7036   21.2560 C   0  0  0  0  0  0  0  0  0  0  0  0
    9.0277  -20.7649   21.4481 O   0  0  0  0  0  0  0  0  0  0  0  0
   11.0710  -21.7224   21.7320 O   0  0  0  0  0  0  0  0  0  0  0  0
  2  1  1  1
  2  3  1  0
  3  4  1  0
  4  8  1  0
  4  5  2  0
  6  2  1  0
  7  6  2  0
  9  6  1  0
 10  9  1  0
 10 11  1  6
 11 12  1  0
 12 13  1  0
 13 14  1  0
 14 15  1  0
 16 18  1  0
 16 10  1  0
 17 16  2  0
 19 20  1  1
 19 18  1  0
 21 20  1  0
 22 19  1  0
 22 24  1  0
 23 22  2  0
M  END
$$$$
