DKC.pdb
     RDKit          3D

 24 23  0  0  1  0  0  0  0  0999 V2000
   10.0253  -19.4676   19.4538 N   0  0  0  0  0  0  0  0  0  0  0  0
   11.2173  -18.6943   19.2764 C   0  0  1  0  0  0  0  0  0  0  0  0
   11.3835  -18.4311   17.7951 C   0  0  0  0  0  0  0  0  0  0  0  0
   12.7885  -18.0134   17.5496 C   0  0  0  0  0  0  0  0  0  0  0  0
   13.7245  -18.3642   18.3335 O   0  0  0  0  0  0  0  0  0  0  0  0
   11.1074  -17.4274   20.0464 C   0  0  0  0  0  0  0  0  0  0  0  0
   12.0826  -16.6309   20.1664 O   0  0  0  0  0  0  0  0  0  0  0  0
   13.1267  -17.2347   16.4692 O   0  0  0  0  0  0  0  0  0  0  0  0
    9.9031  -17.0731   20.6707 N   0  0  0  0  0  0  0  0  0  0  0  0
    9.7667  -15.8648   21.5147 C   0  0  1  0  0  0  0  0  0  0  0  0
    8.6182  -15.1007   20.9461 C   0  0  0  0  0  0  0  0  0  0  0  0
    8.8876  -14.4342   19.6233 C   0  0  0  0  0  0  0  0  0  0  0  0
    7.5914  -13.8235   19.0773 C   0  0  0  0  0  0  0  0  0  0  0  0
    7.7378  -13.2473   17.7084 C   0  0  0  0  0  0  0  0  0  0  0  0
    6.4427  -12.6504   17.3430 N   0  0  0  0  0  0  0  0  0  0  0  0
    9.7190  -16.2743   22.8913 C   0  0  0  0  0  0  0  0  0  0  0  0
    8.6136  -16.7431   23.3429 O   0  0  0  0  0  0  0  0  0  0  0  0
   10.7601  -16.2297   23.8393 N   0  0  0  0  0  0  0  0  0  0  0  0
   10.6411  -16.9208   25.1026 C   0  0  1  0  0  0  0  0  0  0  0  0
   10.4099  -18.3981   24.7529 C   0  0  0  0  0  0  0  0  0  0  0  0
   10.4198  -19.4161   26.2283 S   0  0  0  0  0  0  0  0  0  0  0  0
   11.8830  -16.8226   25.9050 C   0  0  0  0  0  0  0  0  0  0  0  0
   12.9537  -16.5118   25.3318 O   0  0  0  0  0  0  0  0  0  0  0  0
   11.8946  -17.0638   27.2673 O   0  0  0  0  0  0  0  0  0  0  0  0
  2  1  1  6
  2  3  1  0
  3  4  1  0
  4  8  1  0
  4  5  2  0
  6  2  1  0
  7  6  2  0
  9  6  1  0
 10  9  1  0
 10 11  1  6
 11 12  1  0
 12 13  1  0
 13 14  1  0
 14 15  1  0
 16 18  1  0
 16 10  1  0
 17 16  2  0
 19 20  1  6
 19 18  1  0
 21 20  1  0
 22 19  1  0
 22 24  1  0
 23 22  2  0
M  END
$$$$
