DKC.pdb
     RDKit          3D

 24 23  0  0  1  0  0  0  0  0999 V2000
    9.4922  -17.0917   19.5791 N   0  0  0  0  0  0  0  0  0  0  0  0
   10.1212  -16.8737   20.8469 C   0  0  1  0  0  0  0  0  0  0  0  0
   11.2263  -15.8586   20.6482 C   0  0  0  0  0  0  0  0  0  0  0  0
   12.3518  -16.5253   19.9429 C   0  0  0  0  0  0  0  0  0  0  0  0
   12.4945  -17.7871   19.9792 O   0  0  0  0  0  0  0  0  0  0  0  0
    9.1114  -16.3955   21.8275 C   0  0  0  0  0  0  0  0  0  0  0  0
    8.4029  -15.3703   21.6120 O   0  0  0  0  0  0  0  0  0  0  0  0
   13.2772  -15.8045   19.2273 O   0  0  0  0  0  0  0  0  0  0  0  0
    8.9120  -17.0763   23.0368 N   0  0  0  0  0  0  0  0  0  0  0  0
    7.8212  -16.7319   23.9764 C   0  0  1  0  0  0  0  0  0  0  0  0
    7.3412  -18.0301   24.5336 C   0  0  0  0  0  0  0  0  0  0  0  0
    6.4464  -18.8248   23.6202 C   0  0  0  0  0  0  0  0  0  0  0  0
    5.9731  -20.0958   24.3355 C   0  0  0  0  0  0  0  0  0  0  0  0
    5.0230  -20.9135   23.5255 C   0  0  0  0  0  0  0  0  0  0  0  0
    4.7202  -22.1286   24.2993 N   0  0  0  0  0  0  0  0  0  0  0  0
    8.2997  -15.7202   24.8777 C   0  0  0  0  0  0  0  0  0  0  0  0
    9.5222  -15.7833   25.2610 O   0  0  0  0  0  0  0  0  0  0  0  0
    7.5806  -14.6322   25.4106 N   0  0  0  0  0  0  0  0  0  0  0  0
    8.2064  -13.7108   26.3309 C   0  0  1  0  0  0  0  0  0  0  0  0
    7.2555  -12.5096   26.4343 C   0  0  0  0  0  0  0  0  0  0  0  0
    5.5964  -13.0389   26.8592 S   0  0  0  0  0  0  0  0  0  0  0  0
    8.3600  -14.2989   27.6824 C   0  0  0  0  0  0  0  0  0  0  0  0
    8.8901  -13.6120   28.5872 O   0  0  0  0  0  0  0  0  0  0  0  0
    7.9356  -15.5831   27.9738 O   0  0  0  0  0  0  0  0  0  0  0  0
  2  1  1  6
  2  3  1  0
  3  4  1  0
  4  8  1  0
  4  5  2  0
  6  2  1  0
  7  6  2  0
  9  6  1  0
 10  9  1  0
 10 11  1  1
 11 12  1  0
 12 13  1  0
 13 14  1  0
 14 15  1  0
 16 18  1  0
 16 10  1  0
 17 16  2  0
 19 20  1  1
 19 18  1  0
 21 20  1  0
 22 19  1  0
 22 24  1  0
 23 22  2  0
M  END
$$$$
