DKC.pdb
     RDKit          3D

 24 23  0  0  1  0  0  0  0  0999 V2000
    8.3223  -13.3095   18.6916 N   0  0  0  0  0  0  0  0  0  0  0  0
    9.1016  -14.1190   19.5791 C   0  0  1  0  0  0  0  0  0  0  0  0
   10.4695  -13.4835   19.7064 C   0  0  0  0  0  0  0  0  0  0  0  0
   11.3495  -14.0540   18.6534 C   0  0  0  0  0  0  0  0  0  0  0  0
   10.9088  -14.9040   17.8185 O   0  0  0  0  0  0  0  0  0  0  0  0
    8.4189  -14.2120   20.8964 C   0  0  0  0  0  0  0  0  0  0  0  0
    7.9367  -13.1949   21.4732 O   0  0  0  0  0  0  0  0  0  0  0  0
   12.6685  -13.6849   18.5436 O   0  0  0  0  0  0  0  0  0  0  0  0
    8.2874  -15.4469   21.5471 N   0  0  0  0  0  0  0  0  0  0  0  0
    7.4668  -15.6235   22.7663 C   0  0  1  0  0  0  0  0  0  0  0  0
    6.8723  -16.9879   22.6606 C   0  0  0  0  0  0  0  0  0  0  0  0
    5.6833  -17.0967   21.7434 C   0  0  0  0  0  0  0  0  0  0  0  0
    5.1248  -18.5240   21.7862 C   0  0  0  0  0  0  0  0  0  0  0  0
    3.9313  -18.7204   20.9118 C   0  0  0  0  0  0  0  0  0  0  0  0
    3.5792  -20.1488   20.9646 N   0  0  0  0  0  0  0  0  0  0  0  0
    8.2754  -15.3016   23.9096 C   0  0  0  0  0  0  0  0  0  0  0  0
    9.5231  -15.5965   23.8681 O   0  0  0  0  0  0  0  0  0  0  0  0
    7.8657  -14.6827   25.1071 N   0  0  0  0  0  0  0  0  0  0  0  0
    8.8191  -14.3882   26.1520 C   0  0  1  0  0  0  0  0  0  0  0  0
    8.3795  -13.0465   26.7557 C   0  0  0  0  0  0  0  0  0  0  0  0
    6.6333  -13.0660   27.1604 S   0  0  0  0  0  0  0  0  0  0  0  0
    8.7956  -15.4100   27.2251 C   0  0  0  0  0  0  0  0  0  0  0  0
    7.9546  -16.3375   27.1625 O   0  0  0  0  0  0  0  0  0  0  0  0
    9.6745  -15.3695   28.2929 O   0  0  0  0  0  0  0  0  0  0  0  0
  2  1  1  6
  2  3  1  0
  3  4  1  0
  4  8  1  0
  4  5  2  0
  6  2  1  0
  7  6  2  0
  9  6  1  0
 10  9  1  0
 10 11  1  1
 11 12  1  0
 12 13  1  0
 13 14  1  0
 14 15  1  0
 16 18  1  0
 16 10  1  0
 17 16  2  0
 19 20  1  1
 19 18  1  0
 21 20  1  0
 22 19  1  0
 22 24  1  0
 23 22  2  0
M  END
$$$$
