DKC.pdb
     RDKit          3D

 24 23  0  0  1  0  0  0  0  0999 V2000
   11.5597  -15.4518   19.1742 N   0  0  0  0  0  0  0  0  0  0  0  0
   12.1125  -15.5974   20.4871 C   0  0  1  0  0  0  0  0  0  0  0  0
   13.0980  -14.4691   20.7034 C   0  0  0  0  0  0  0  0  0  0  0  0
   14.2533  -14.6768   19.7919 C   0  0  0  0  0  0  0  0  0  0  0  0
   14.8970  -15.7720   19.7864 O   0  0  0  0  0  0  0  0  0  0  0  0
   11.0188  -15.5666   21.4935 C   0  0  0  0  0  0  0  0  0  0  0  0
   10.1362  -14.6606   21.4948 O   0  0  0  0  0  0  0  0  0  0  0  0
   14.6674  -13.6955   18.9239 O   0  0  0  0  0  0  0  0  0  0  0  0
   10.9322  -16.5544   22.4847 N   0  0  0  0  0  0  0  0  0  0  0  0
    9.8199  -16.6117   23.4596 C   0  0  1  0  0  0  0  0  0  0  0  0
    9.2361  -17.9786   23.3287 C   0  0  0  0  0  0  0  0  0  0  0  0
    8.1846  -18.3239   24.3494 C   0  0  0  0  0  0  0  0  0  0  0  0
    7.7404  -19.7796   24.1635 C   0  0  0  0  0  0  0  0  0  0  0  0
    6.5390  -20.1410   24.9720 C   0  0  0  0  0  0  0  0  0  0  0  0
    6.1976  -21.5364   24.6506 N   0  0  0  0  0  0  0  0  0  0  0  0
   10.3141  -16.1839   24.7393 C   0  0  0  0  0  0  0  0  0  0  0  0
   11.4903  -16.5588   25.0875 O   0  0  0  0  0  0  0  0  0  0  0  0
    9.6567  -15.3795   25.6909 N   0  0  0  0  0  0  0  0  0  0  0  0
   10.2744  -15.0832   26.9631 C   0  0  1  0  0  0  0  0  0  0  0  0
    9.3763  -14.0323   27.6314 C   0  0  0  0  0  0  0  0  0  0  0  0
    9.9786  -13.6209   29.2689 S   0  0  0  0  0  0  0  0  0  0  0  0
   10.3275  -16.2751   27.8421 C   0  0  0  0  0  0  0  0  0  0  0  0
    9.3692  -17.0833   27.8284 O   0  0  0  0  0  0  0  0  0  0  0  0
   11.4033  -16.5212   28.6765 O   0  0  0  0  0  0  0  0  0  0  0  0
  2  1  1  6
  2  3  1  0
  3  4  1  0
  4  8  1  0
  4  5  2  0
  6  2  1  0
  7  6  2  0
  9  6  1  0
 10  9  1  0
 10 11  1  1
 11 12  1  0
 12 13  1  0
 13 14  1  0
 14 15  1  0
 16 18  1  0
 16 10  1  0
 17 16  2  0
 19 20  1  1
 19 18  1  0
 21 20  1  0
 22 19  1  0
 22 24  1  0
 23 22  2  0
M  END
$$$$
