DKC.pdb
     RDKit          3D

 24 23  0  0  1  0  0  0  0  0999 V2000
   12.7946  -16.0431   20.5121 N   0  0  0  0  0  0  0  0  0  0  0  0
   12.6286  -16.3359   21.9039 C   0  0  1  0  0  0  0  0  0  0  0  0
   13.6632  -15.5416   22.6719 C   0  0  0  0  0  0  0  0  0  0  0  0
   14.9863  -16.1913   22.4822 C   0  0  0  0  0  0  0  0  0  0  0  0
   15.0950  -17.4556   22.4241 O   0  0  0  0  0  0  0  0  0  0  0  0
   11.2472  -15.9831   22.3251 C   0  0  0  0  0  0  0  0  0  0  0  0
   10.6754  -14.9277   21.9266 O   0  0  0  0  0  0  0  0  0  0  0  0
   16.1379  -15.4513   22.3628 O   0  0  0  0  0  0  0  0  0  0  0  0
   10.5277  -16.8214   23.1884 N   0  0  0  0  0  0  0  0  0  0  0  0
    9.0877  -16.6287   23.4718 C   0  0  1  0  0  0  0  0  0  0  0  0
    8.5329  -17.9951   23.6987 C   0  0  0  0  0  0  0  0  0  0  0  0
    7.0867  -18.0356   24.1153 C   0  0  0  0  0  0  0  0  0  0  0  0
    6.3006  -18.9517   23.1699 C   0  0  0  0  0  0  0  0  0  0  0  0
    4.8491  -19.0447   23.5049 C   0  0  0  0  0  0  0  0  0  0  0  0
    4.2746  -20.1144   22.6727 N   0  0  0  0  0  0  0  0  0  0  0  0
    8.9560  -15.6416   24.5077 C   0  0  0  0  0  0  0  0  0  0  0  0
    9.7906  -15.6740   25.4812 O   0  0  0  0  0  0  0  0  0  0  0  0
    8.0022  -14.6086   24.5961 N   0  0  0  0  0  0  0  0  0  0  0  0
    7.9295  -13.7665   25.7680 C   0  0  1  0  0  0  0  0  0  0  0  0
    6.7038  -12.8648   25.5619 C   0  0  0  0  0  0  0  0  0  0  0  0
    6.4385  -11.8069   26.9845 S   0  0  0  0  0  0  0  0  0  0  0  0
    7.7217  -14.5569   27.0041 C   0  0  0  0  0  0  0  0  0  0  0  0
    8.3481  -14.2375   28.0420 O   0  0  0  0  0  0  0  0  0  0  0  0
    6.8571  -15.6362   27.0454 O   0  0  0  0  0  0  0  0  0  0  0  0
  2  1  1  6
  2  3  1  0
  3  4  1  0
  4  8  1  0
  4  5  2  0
  6  2  1  0
  7  6  2  0
  9  6  1  0
 10  9  1  0
 10 11  1  1
 11 12  1  0
 12 13  1  0
 13 14  1  0
 14 15  1  0
 16 18  1  0
 16 10  1  0
 17 16  2  0
 19 20  1  6
 19 18  1  0
 21 20  1  0
 22 19  1  0
 22 24  1  0
 23 22  2  0
M  END
$$$$
