DKC.pdb
     RDKit          3D

 24 23  0  0  1  0  0  0  0  0999 V2000
   10.4961  -16.5692   20.3221 N   0  0  0  0  0  0  0  0  0  0  0  0
   11.2740  -16.8063   21.5007 C   0  0  1  0  0  0  0  0  0  0  0  0
   12.4602  -15.8665   21.4706 C   0  0  0  0  0  0  0  0  0  0  0  0
   13.3672  -16.2940   20.3736 C   0  0  0  0  0  0  0  0  0  0  0  0
   13.8938  -15.4455   19.5884 O   0  0  0  0  0  0  0  0  0  0  0  0
   10.4322  -16.5835   22.7055 C   0  0  0  0  0  0  0  0  0  0  0  0
    9.8327  -15.4887   22.9096 O   0  0  0  0  0  0  0  0  0  0  0  0
   13.6694  -17.6185   20.1682 O   0  0  0  0  0  0  0  0  0  0  0  0
   10.2758  -17.5944   23.6644 N   0  0  0  0  0  0  0  0  0  0  0  0
    9.3677  -17.4597   24.8255 C   0  0  1  0  0  0  0  0  0  0  0  0
    8.7201  -18.7938   24.9905 C   0  0  0  0  0  0  0  0  0  0  0  0
    7.8062  -19.2029   23.8662 C   0  0  0  0  0  0  0  0  0  0  0  0
    7.3315  -20.6447   24.0829 C   0  0  0  0  0  0  0  0  0  0  0  0
    6.3163  -21.0914   23.0842 C   0  0  0  0  0  0  0  0  0  0  0  0
    6.0564  -22.5191   23.3316 N   0  0  0  0  0  0  0  0  0  0  0  0
   10.1113  -16.9048   25.9227 C   0  0  0  0  0  0  0  0  0  0  0  0
   11.3596  -17.1870   26.0092 O   0  0  0  0  0  0  0  0  0  0  0  0
    9.6351  -16.0629   26.9471 N   0  0  0  0  0  0  0  0  0  0  0  0
   10.5265  -15.5619   27.9678 C   0  0  1  0  0  0  0  0  0  0  0  0
    9.8234  -14.3401   28.5767 C   0  0  0  0  0  0  0  0  0  0  0  0
    9.4508  -13.1200   27.3174 S   0  0  0  0  0  0  0  0  0  0  0  0
   10.7467  -16.5554   29.0450 C   0  0  0  0  0  0  0  0  0  0  0  0
   10.1220  -17.6416   29.0066 O   0  0  0  0  0  0  0  0  0  0  0  0
   11.6211  -16.3188   30.0907 O   0  0  0  0  0  0  0  0  0  0  0  0
  2  1  1  6
  2  3  1  0
  3  4  1  0
  4  8  1  0
  4  5  2  0
  6  2  1  0
  7  6  2  0
  9  6  1  0
 10  9  1  0
 10 11  1  1
 11 12  1  0
 12 13  1  0
 13 14  1  0
 14 15  1  0
 16 18  1  0
 16 10  1  0
 17 16  2  0
 19 20  1  1
 19 18  1  0
 21 20  1  0
 22 19  1  0
 22 24  1  0
 23 22  2  0
M  END
$$$$
