DKC.pdb
     RDKit          3D

 24 23  0  0  1  0  0  0  0  0999 V2000
    9.0086  -18.5274   16.2671 N   0  0  0  0  0  0  0  0  0  0  0  0
    9.0584  -19.3327   17.4501 C   0  0  1  0  0  0  0  0  0  0  0  0
   10.5034  -19.4188   17.8923 C   0  0  0  0  0  0  0  0  0  0  0  0
   11.2727  -20.1309   16.8388 C   0  0  0  0  0  0  0  0  0  0  0  0
   12.4551  -19.7779   16.5370 O   0  0  0  0  0  0  0  0  0  0  0  0
    8.2015  -18.7248   18.5019 C   0  0  0  0  0  0  0  0  0  0  0  0
    8.1341  -17.4729   18.6690 O   0  0  0  0  0  0  0  0  0  0  0  0
   10.7358  -21.1941   16.1538 O   0  0  0  0  0  0  0  0  0  0  0  0
    7.4323  -19.5324   19.3515 N   0  0  0  0  0  0  0  0  0  0  0  0
    6.4977  -18.9735   20.3541 C   0  0  1  0  0  0  0  0  0  0  0  0
    5.3806  -19.9570   20.4594 C   0  0  0  0  0  0  0  0  0  0  0  0
    4.3415  -19.6334   21.4997 C   0  0  0  0  0  0  0  0  0  0  0  0
    3.2038  -20.6592   21.4323 C   0  0  0  0  0  0  0  0  0  0  0  0
    2.0299  -20.2997   22.2809 C   0  0  0  0  0  0  0  0  0  0  0  0
    1.0269  -21.3644   22.1158 N   0  0  0  0  0  0  0  0  0  0  0  0
    7.2447  -18.6372   21.5346 C   0  0  0  0  0  0  0  0  0  0  0  0
    8.2376  -19.3843   21.8532 O   0  0  0  0  0  0  0  0  0  0  0  0
    7.0245  -17.5594   22.4147 N   0  0  0  0  0  0  0  0  0  0  0  0
    7.8376  -17.3913   23.5973 C   0  0  1  0  0  0  0  0  0  0  0  0
    7.4175  -16.0466   24.2081 C   0  0  0  0  0  0  0  0  0  0  0  0
    8.3408  -15.7058   25.7064 S   0  0  0  0  0  0  0  0  0  0  0  0
    7.5841  -18.4549   24.5975 C   0  0  0  0  0  0  0  0  0  0  0  0
    6.4170  -18.8901   24.7390 O   0  0  0  0  0  0  0  0  0  0  0  0
    8.5976  -18.9808   25.3788 O   0  0  0  0  0  0  0  0  0  0  0  0
  2  1  1  6
  2  3  1  0
  3  4  1  0
  4  8  1  0
  4  5  2  0
  6  2  1  0
  7  6  2  0
  9  6  1  0
 10  9  1  0
 10 11  1  1
 11 12  1  0
 12 13  1  0
 13 14  1  0
 14 15  1  0
 16 18  1  0
 16 10  1  0
 17 16  2  0
 19 20  1  1
 19 18  1  0
 21 20  1  0
 22 19  1  0
 22 24  1  0
 23 22  2  0
M  END
$$$$
