DKC.pdb
     RDKit          3D

 24 23  0  0  1  0  0  0  0  0999 V2000
   10.1206  -14.5645   18.5555 N   0  0  0  0  0  0  0  0  0  0  0  0
   10.7695  -15.1589   19.6851 C   0  0  1  0  0  0  0  0  0  0  0  0
   11.9714  -14.3065   20.0314 C   0  0  0  0  0  0  0  0  0  0  0  0
   13.0985  -14.7077   19.1497 C   0  0  0  0  0  0  0  0  0  0  0  0
   14.2906  -14.3501   19.4037 O   0  0  0  0  0  0  0  0  0  0  0  0
    9.8141  -15.2417   20.8210 C   0  0  0  0  0  0  0  0  0  0  0  0
    8.9230  -14.3644   21.0108 O   0  0  0  0  0  0  0  0  0  0  0  0
   12.8941  -15.4781   18.0304 O   0  0  0  0  0  0  0  0  0  0  0  0
    9.8735  -16.3093   21.7279 N   0  0  0  0  0  0  0  0  0  0  0  0
    8.8446  -16.5308   22.7687 C   0  0  1  0  0  0  0  0  0  0  0  0
    8.4783  -17.9742   22.6759 C   0  0  0  0  0  0  0  0  0  0  0  0
    7.5343  -18.4628   23.7421 C   0  0  0  0  0  0  0  0  0  0  0  0
    7.2217  -19.9470   23.5168 C   0  0  0  0  0  0  0  0  0  0  0  0
    6.2194  -20.4945   24.4775 C   0  0  0  0  0  0  0  0  0  0  0  0
    6.1206  -21.9424   24.2306 N   0  0  0  0  0  0  0  0  0  0  0  0
    9.3401  -16.0155   24.0152 C   0  0  0  0  0  0  0  0  0  0  0  0
   10.5726  -16.2207   24.3051 O   0  0  0  0  0  0  0  0  0  0  0  0
    8.6283  -15.2896   24.9904 N   0  0  0  0  0  0  0  0  0  0  0  0
    9.2505  -14.9248   26.2424 C   0  0  1  0  0  0  0  0  0  0  0  0
    8.3493  -13.8463   26.8608 C   0  0  0  0  0  0  0  0  0  0  0  0
    8.9399  -13.3700   28.4849 S   0  0  0  0  0  0  0  0  0  0  0  0
    9.3155  -16.0697   27.1811 C   0  0  0  0  0  0  0  0  0  0  0  0
    8.3613  -16.8820   27.2154 O   0  0  0  0  0  0  0  0  0  0  0  0
   10.3980  -16.2674   28.0197 O   0  0  0  0  0  0  0  0  0  0  0  0
  2  1  1  6
  2  3  1  0
  3  4  1  0
  4  8  1  0
  4  5  2  0
  6  2  1  0
  7  6  2  0
  9  6  1  0
 10  9  1  0
 10 11  1  1
 11 12  1  0
 12 13  1  0
 13 14  1  0
 14 15  1  0
 16 18  1  0
 16 10  1  0
 17 16  2  0
 19 20  1  1
 19 18  1  0
 21 20  1  0
 22 19  1  0
 22 24  1  0
 23 22  2  0
M  END
$$$$
