DKC.pdb
     RDKit          3D

 24 23  0  0  1  0  0  0  0  0999 V2000
   12.1789  -17.5744   20.7367 N   0  0  0  0  0  0  0  0  0  0  0  0
   11.5685  -17.6639   22.0289 C   0  0  1  0  0  0  0  0  0  0  0  0
   12.6291  -18.1079   23.0133 C   0  0  0  0  0  0  0  0  0  0  0  0
   13.0665  -19.4789   22.6421 C   0  0  0  0  0  0  0  0  0  0  0  0
   12.4990  -20.1174   21.7019 O   0  0  0  0  0  0  0  0  0  0  0  0
   10.9972  -16.3430   22.4017 C   0  0  0  0  0  0  0  0  0  0  0  0
   11.7291  -15.3340   22.6155 O   0  0  0  0  0  0  0  0  0  0  0  0
   14.0977  -20.1052   23.2995 O   0  0  0  0  0  0  0  0  0  0  0  0
    9.6112  -16.1746   22.5290 N   0  0  0  0  0  0  0  0  0  0  0  0
    8.9825  -14.8485   22.7221 C   0  0  1  0  0  0  0  0  0  0  0  0
    8.0563  -14.6669   21.5665 C   0  0  0  0  0  0  0  0  0  0  0  0
    8.7028  -14.1632   20.3035 C   0  0  0  0  0  0  0  0  0  0  0  0
    7.6449  -14.0150   19.2035 C   0  0  0  0  0  0  0  0  0  0  0  0
    8.1973  -13.5048   17.9142 C   0  0  0  0  0  0  0  0  0  0  0  0
    7.0900  -13.4729   16.9448 N   0  0  0  0  0  0  0  0  0  0  0  0
    8.4535  -14.7858   24.0566 C   0  0  0  0  0  0  0  0  0  0  0  0
    8.1773  -15.8899   24.6483 O   0  0  0  0  0  0  0  0  0  0  0  0
    8.1924  -13.6348   24.8259 N   0  0  0  0  0  0  0  0  0  0  0  0
    7.5206  -13.7336   26.1013 C   0  0  1  0  0  0  0  0  0  0  0  0
    7.2224  -12.2901   26.5318 C   0  0  0  0  0  0  0  0  0  0  0  0
    6.4715  -12.2477   28.1590 S   0  0  0  0  0  0  0  0  0  0  0  0
    6.2341  -14.4609   25.9930 C   0  0  0  0  0  0  0  0  0  0  0  0
    5.5219  -14.2875   24.9760 O   0  0  0  0  0  0  0  0  0  0  0  0
    5.7969  -15.3250   26.9811 O   0  0  0  0  0  0  0  0  0  0  0  0
  2  1  1  6
  2  3  1  0
  3  4  1  0
  4  8  1  0
  4  5  2  0
  6  2  1  0
  7  6  2  0
  9  6  1  0
 10  9  1  0
 10 11  1  6
 11 12  1  0
 12 13  1  0
 13 14  1  0
 14 15  1  0
 16 18  1  0
 16 10  1  0
 17 16  2  0
 19 20  1  6
 19 18  1  0
 21 20  1  0
 22 19  1  0
 22 24  1  0
 23 22  2  0
M  END
$$$$
