DKC.pdb
     RDKit          3D

 24 23  0  0  1  0  0  0  0  0999 V2000
   12.6843  -17.0198   20.7601 N   0  0  0  0  0  0  0  0  0  0  0  0
   12.5862  -15.6792   21.2537 C   0  0  1  0  0  0  0  0  0  0  0  0
   12.4565  -14.7545   20.0624 C   0  0  0  0  0  0  0  0  0  0  0  0
   13.7781  -14.6740   19.3874 C   0  0  0  0  0  0  0  0  0  0  0  0
   14.7802  -15.3197   19.8262 O   0  0  0  0  0  0  0  0  0  0  0  0
   11.4137  -15.5676   22.1608 C   0  0  0  0  0  0  0  0  0  0  0  0
   11.0153  -14.4524   22.6050 O   0  0  0  0  0  0  0  0  0  0  0  0
   13.9652  -13.9007   18.2672 O   0  0  0  0  0  0  0  0  0  0  0  0
   10.7052  -16.7111   22.5562 N   0  0  0  0  0  0  0  0  0  0  0  0
    9.6782  -16.6851   23.6218 C   0  0  1  0  0  0  0  0  0  0  0  0
    9.0175  -18.0222   23.5807 C   0  0  0  0  0  0  0  0  0  0  0  0
    8.0573  -18.2945   24.7079 C   0  0  0  0  0  0  0  0  0  0  0  0
    7.4577  -19.6970   24.5504 C   0  0  0  0  0  0  0  0  0  0  0  0
    6.4629  -20.0391   25.6091 C   0  0  0  0  0  0  0  0  0  0  0  0
    5.9270  -21.3731   25.2927 N   0  0  0  0  0  0  0  0  0  0  0  0
   10.3000  -16.2515   24.8425 C   0  0  0  0  0  0  0  0  0  0  0  0
   11.4737  -16.6936   25.1114 O   0  0  0  0  0  0  0  0  0  0  0  0
    9.7745  -15.3751   25.8123 N   0  0  0  0  0  0  0  0  0  0  0  0
   10.4917  -15.1122   27.0387 C   0  0  1  0  0  0  0  0  0  0  0  0
   10.1415  -13.6690   27.4289 C   0  0  0  0  0  0  0  0  0  0  0  0
    8.3675  -13.4121   27.4132 S   0  0  0  0  0  0  0  0  0  0  0  0
   10.0566  -16.0083   28.1359 C   0  0  0  0  0  0  0  0  0  0  0  0
    9.0864  -16.7784   27.9427 O   0  0  0  0  0  0  0  0  0  0  0  0
   10.6898  -16.0193   29.3659 O   0  0  0  0  0  0  0  0  0  0  0  0
  2  1  1  6
  2  3  1  0
  3  4  1  0
  4  8  1  0
  4  5  2  0
  6  2  1  0
  7  6  2  0
  9  6  1  0
 10  9  1  0
 10 11  1  1
 11 12  1  0
 12 13  1  0
 13 14  1  0
 14 15  1  0
 16 18  1  0
 16 10  1  0
 17 16  2  0
 19 20  1  1
 19 18  1  0
 21 20  1  0
 22 19  1  0
 22 24  1  0
 23 22  2  0
M  END
$$$$
