DKC.pdb
     RDKit          3D

 24 23  0  0  1  0  0  0  0  0999 V2000
   13.4691  -20.9347   14.7122 N   0  0  0  0  0  0  0  0  0  0  0  0
   12.9373  -22.0607   15.4191 C   0  0  1  0  0  0  0  0  0  0  0  0
   14.0733  -23.0286   15.6719 C   0  0  0  0  0  0  0  0  0  0  0  0
   14.5776  -23.5100   14.3594 C   0  0  0  0  0  0  0  0  0  0  0  0
   15.6584  -24.1719   14.2737 O   0  0  0  0  0  0  0  0  0  0  0  0
   12.3181  -21.6026   16.6906 C   0  0  0  0  0  0  0  0  0  0  0  0
   12.4899  -20.4306   17.1341 O   0  0  0  0  0  0  0  0  0  0  0  0
   13.8961  -23.2581   13.1932 O   0  0  0  0  0  0  0  0  0  0  0  0
   11.5144  -22.4680   17.4461 N   0  0  0  0  0  0  0  0  0  0  0  0
   10.8095  -22.0351   18.6736 C   0  0  1  0  0  0  0  0  0  0  0  0
    9.5694  -22.8621   18.7419 C   0  0  0  0  0  0  0  0  0  0  0  0
    8.3816  -22.2924   18.0132 C   0  0  0  0  0  0  0  0  0  0  0  0
    7.2080  -23.2764   18.0864 C   0  0  0  0  0  0  0  0  0  0  0  0
    5.9510  -22.7466   17.4808 C   0  0  0  0  0  0  0  0  0  0  0  0
    4.9171  -23.7824   17.6398 N   0  0  0  0  0  0  0  0  0  0  0  0
   11.7374  -22.0774   19.7700 C   0  0  0  0  0  0  0  0  0  0  0  0
   12.8063  -22.7724   19.6288 O   0  0  0  0  0  0  0  0  0  0  0  0
   11.6253  -21.4336   21.0180 N   0  0  0  0  0  0  0  0  0  0  0  0
   12.6337  -21.6135   22.0370 C   0  0  1  0  0  0  0  0  0  0  0  0
   13.6292  -20.4592   21.8511 C   0  0  0  0  0  0  0  0  0  0  0  0
   14.8047  -20.4013   23.2032 S   0  0  0  0  0  0  0  0  0  0  0  0
   12.0632  -21.5193   23.4014 C   0  0  0  0  0  0  0  0  0  0  0  0
   12.3586  -22.3978   24.2455 O   0  0  0  0  0  0  0  0  0  0  0  0
   11.2147  -20.4905   23.7700 O   0  0  0  0  0  0  0  0  0  0  0  0
  2  1  1  1
  2  3  1  0
  3  4  1  0
  4  8  1  0
  4  5  2  0
  6  2  1  0
  7  6  2  0
  9  6  1  0
 10  9  1  0
 10 11  1  1
 11 12  1  0
 12 13  1  0
 13 14  1  0
 14 15  1  0
 16 18  1  0
 16 10  1  0
 17 16  2  0
 19 20  1  1
 19 18  1  0
 21 20  1  0
 22 19  1  0
 22 24  1  0
 23 22  2  0
M  END
$$$$
