IQL.pdb
     RDKit          3D

 26 25  0  0  1  0  0  0  0  0999 V2000
    7.3198  -11.9764   18.9651 C   0  0  0  0  0  0  0  0  0  0  0  0
    7.7130  -13.4164   18.8686 C   0  0  0  0  0  0  0  0  0  0  0  0
    7.9502  -14.0448   20.2511 C   0  0  2  0  0  0  0  0  0  0  0  0
    8.9502  -13.2188   20.9857 C   0  0  0  0  0  0  0  0  0  0  0  0
    8.3865  -15.4668   19.9751 C   0  0  2  0  0  0  0  0  0  0  0  0
    7.2371  -16.0887   19.2912 N   0  0  0  0  0  0  0  0  0  0  0  0
    8.6725  -16.2518   21.1731 C   0  0  0  0  0  0  0  0  0  0  0  0
    7.7270  -16.8432   21.7859 O   0  0  0  0  0  0  0  0  0  0  0  0
   10.7422  -20.6303   24.1487 N   0  0  0  0  0  0  0  0  0  0  0  0
   11.9364  -19.8812   23.9934 C   0  0  0  0  0  0  0  0  0  0  0  0
   12.9760  -20.4892   23.6765 O   0  0  0  0  0  0  0  0  0  0  0  0
   11.8679  -18.4185   24.2192 C   0  0  0  0  0  0  0  0  0  0  0  0
   11.6100  -17.6663   22.9256 C   0  0  0  0  0  0  0  0  0  0  0  0
   10.1820  -17.2061   22.9540 C   0  0  2  0  0  0  0  0  0  0  0  0
    9.9516  -16.4305   21.7486 N   0  0  0  0  0  0  0  0  0  0  0  0
    9.8076  -16.4844   24.1701 C   0  0  0  0  0  0  0  0  0  0  0  0
    9.9484  -17.0766   25.2706 O   0  0  0  0  0  0  0  0  0  0  0  0
    5.6565  -12.7404   26.2207 C   0  0  0  0  0  0  0  0  0  0  0  0
    7.1164  -13.1295   26.5185 C   0  0  2  0  0  0  0  0  0  0  0  0
    7.8356  -11.8021   26.6980 C   0  0  0  0  0  0  0  0  0  0  0  0
    7.5978  -13.8785   25.3191 C   0  0  0  0  0  0  0  0  0  0  0  0
    8.9471  -14.4909   25.4469 C   0  0  2  0  0  0  0  0  0  0  0  0
    9.2967  -15.1622   24.1961 N   0  0  0  0  0  0  0  0  0  0  0  0
    9.1394  -15.3589   26.6078 C   0  0  0  0  0  0  0  0  0  0  0  0
    9.9966  -15.0890   27.6574 O   0  0  0  0  0  0  0  0  0  0  0  0
    8.4815  -16.4518   26.6839 O   0  0  0  0  0  0  0  0  0  0  0  0
  1  2  1  0
  2  3  1  0
  3  5  1  0
  3  4  1  6
  5  6  1  1
  7  5  1  0
  7  8  2  0
  9 10  1  0
 10 12  1  0
 10 11  2  0
 12 13  1  0
 14 13  1  1
 14 15  1  0
 15  7  1  0
 16 14  1  0
 17 16  2  0
 19 21  1  0
 19 18  1  6
 20 19  1  0
 22 21  1  6
 22 23  1  0
 23 16  1  0
 24 22  1  0
 25 24  1  0
 26 24  2  0
M  END
$$$$
