IQL.pdb
     RDKit          3D

 26 25  0  0  1  0  0  0  0  0999 V2000
    7.4875  -12.8092   17.1863 C   0  0  0  0  0  0  0  0  0  0  0  0
    8.3805  -12.7780   18.3858 C   0  0  0  0  0  0  0  0  0  0  0  0
    7.9154  -13.7538   19.4785 C   0  0  2  0  0  0  0  0  0  0  0  0
    6.5229  -13.3986   19.8744 C   0  0  0  0  0  0  0  0  0  0  0  0
    8.9377  -13.6310   20.5867 C   0  0  2  0  0  0  0  0  0  0  0  0
   10.2399  -13.8303   19.9235 N   0  0  0  0  0  0  0  0  0  0  0  0
    8.8113  -14.6388   21.6363 C   0  0  0  0  0  0  0  0  0  0  0  0
    7.7305  -14.7314   22.3015 O   0  0  0  0  0  0  0  0  0  0  0  0
   11.9950  -19.9753   22.3005 N   0  0  0  0  0  0  0  0  0  0  0  0
   11.1657  -19.9999   23.4507 C   0  0  0  0  0  0  0  0  0  0  0  0
   11.1853  -21.0167   24.1693 O   0  0  0  0  0  0  0  0  0  0  0  0
   10.3272  -18.8089   23.7226 C   0  0  0  0  0  0  0  0  0  0  0  0
   10.5726  -17.7101   22.7037 C   0  0  0  0  0  0  0  0  0  0  0  0
    9.6145  -16.5964   23.0090 C   0  0  2  0  0  0  0  0  0  0  0  0
    9.8133  -15.5654   22.0063 N   0  0  0  0  0  0  0  0  0  0  0  0
    9.7079  -16.0812   24.3749 C   0  0  0  0  0  0  0  0  0  0  0  0
    9.6540  -16.9098   25.3194 O   0  0  0  0  0  0  0  0  0  0  0  0
    7.9932  -12.7466   27.7125 C   0  0  0  0  0  0  0  0  0  0  0  0
    7.1048  -12.7971   26.4557 C   0  0  2  0  0  0  0  0  0  0  0  0
    5.9280  -13.6728   26.8557 C   0  0  0  0  0  0  0  0  0  0  0  0
    7.9384  -13.4209   25.3846 C   0  0  0  0  0  0  0  0  0  0  0  0
    9.1672  -14.1152   25.8538 C   0  0  2  0  0  0  0  0  0  0  0  0
    9.8553  -14.7116   24.7100 N   0  0  0  0  0  0  0  0  0  0  0  0
    8.9748  -15.0750   26.9398 C   0  0  0  0  0  0  0  0  0  0  0  0
    8.1285  -16.1660   26.8836 O   0  0  0  0  0  0  0  0  0  0  0  0
    9.6219  -14.9191   28.0307 O   0  0  0  0  0  0  0  0  0  0  0  0
  1  2  1  0
  2  3  1  0
  3  5  1  0
  3  4  1  1
  5  6  1  6
  7  5  1  0
  7  8  2  0
  9 10  1  0
 10 12  1  0
 10 11  2  0
 12 13  1  0
 14 13  1  1
 14 15  1  0
 15  7  1  0
 16 14  1  0
 17 16  2  0
 19 21  1  0
 19 18  1  1
 20 19  1  0
 22 21  1  6
 22 23  1  0
 23 16  1  0
 24 22  1  0
 25 24  1  0
 26 24  2  0
M  END
$$$$
