IQL.pdb
     RDKit          3D

 26 25  0  0  1  0  0  0  0  0999 V2000
    7.5640  -12.1005   20.1065 C   0  0  0  0  0  0  0  0  0  0  0  0
    7.5639  -13.5943   20.0307 C   0  0  0  0  0  0  0  0  0  0  0  0
    8.6862  -14.1274   19.1260 C   0  0  2  0  0  0  0  0  0  0  0  0
    8.4749  -13.6062   17.7456 C   0  0  0  0  0  0  0  0  0  0  0  0
    8.6187  -15.6336   19.2493 C   0  0  2  0  0  0  0  0  0  0  0  0
    7.2823  -15.9950   18.7404 N   0  0  0  0  0  0  0  0  0  0  0  0
    8.7254  -16.1307   20.6186 C   0  0  0  0  0  0  0  0  0  0  0  0
    7.6806  -16.2463   21.3358 O   0  0  0  0  0  0  0  0  0  0  0  0
   11.2356  -20.4837   23.0203 N   0  0  0  0  0  0  0  0  0  0  0  0
   11.2416  -19.7883   24.2563 C   0  0  0  0  0  0  0  0  0  0  0  0
   11.2320  -20.4558   25.3075 O   0  0  0  0  0  0  0  0  0  0  0  0
   11.2590  -18.3074   24.2150 C   0  0  0  0  0  0  0  0  0  0  0  0
   11.2300  -17.7892   22.7880 C   0  0  0  0  0  0  0  0  0  0  0  0
    9.9858  -16.9638   22.6381 C   0  0  2  0  0  0  0  0  0  0  0  0
    9.9263  -16.5146   21.2588 N   0  0  0  0  0  0  0  0  0  0  0  0
    9.8761  -15.8634   23.5956 C   0  0  0  0  0  0  0  0  0  0  0  0
   10.5485  -14.8239   23.3743 O   0  0  0  0  0  0  0  0  0  0  0  0
    7.0879  -13.3209   27.6114 C   0  0  0  0  0  0  0  0  0  0  0  0
    7.5021  -12.7764   26.2319 C   0  0  2  0  0  0  0  0  0  0  0  0
    6.3076  -11.9561   25.7715 C   0  0  0  0  0  0  0  0  0  0  0  0
    7.7361  -13.9726   25.3683 C   0  0  0  0  0  0  0  0  0  0  0  0
    8.9750  -14.7411   25.6628 C   0  0  2  0  0  0  0  0  0  0  0  0
    9.0638  -15.8855   24.7574 N   0  0  0  0  0  0  0  0  0  0  0  0
    9.1593  -15.1312   27.0598 C   0  0  0  0  0  0  0  0  0  0  0  0
    8.7242  -16.3233   27.6068 O   0  0  0  0  0  0  0  0  0  0  0  0
    9.7618  -14.3327   27.8551 O   0  0  0  0  0  0  0  0  0  0  0  0
  1  2  1  0
  2  3  1  0
  3  5  1  0
  3  4  1  6
  5  6  1  1
  7  5  1  0
  7  8  2  0
  9 10  1  0
 10 12  1  0
 10 11  2  0
 12 13  1  0
 14 13  1  6
 14 15  1  0
 15  7  1  0
 16 14  1  0
 17 16  2  0
 19 21  1  0
 19 18  1  1
 20 19  1  0
 22 21  1  1
 22 23  1  0
 23 16  1  0
 24 22  1  0
 25 24  1  0
 26 24  2  0
M  END
$$$$
