IQL.pdb
     RDKit          3D

 26 25  0  0  1  0  0  0  0  0999 V2000
    4.0719  -21.8530   22.2915 C   0  0  0  0  0  0  0  0  0  0  0  0
    4.7147  -20.9039   23.2525 C   0  0  0  0  0  0  0  0  0  0  0  0
    5.7005  -19.9535   22.5544 C   0  0  2  0  0  0  0  0  0  0  0  0
    6.6508  -20.7644   21.7412 C   0  0  0  0  0  0  0  0  0  0  0  0
    6.3434  -19.1554   23.6671 C   0  0  2  0  0  0  0  0  0  0  0  0
    5.2242  -18.4561   24.3259 N   0  0  0  0  0  0  0  0  0  0  0  0
    7.2953  -18.1459   23.2111 C   0  0  0  0  0  0  0  0  0  0  0  0
    8.5396  -18.4111   23.1863 O   0  0  0  0  0  0  0  0  0  0  0  0
    7.9681  -12.3243   19.0895 N   0  0  0  0  0  0  0  0  0  0  0  0
    8.1974  -13.6771   19.4481 C   0  0  0  0  0  0  0  0  0  0  0  0
    8.2365  -14.5285   18.5402 O   0  0  0  0  0  0  0  0  0  0  0  0
    8.3762  -13.9894   20.8854 C   0  0  0  0  0  0  0  0  0  0  0  0
    7.3041  -14.9406   21.3867 C   0  0  0  0  0  0  0  0  0  0  0  0
    7.9499  -15.8538   22.3870 C   0  0  2  0  0  0  0  0  0  0  0  0
    6.9607  -16.8435   22.7737 N   0  0  0  0  0  0  0  0  0  0  0  0
    8.5393  -15.1658   23.5356 C   0  0  0  0  0  0  0  0  0  0  0  0
    9.5116  -14.3969   23.3233 O   0  0  0  0  0  0  0  0  0  0  0  0
    6.9921  -11.8241   25.7863 C   0  0  0  0  0  0  0  0  0  0  0  0
    6.4881  -13.2577   26.0353 C   0  0  2  0  0  0  0  0  0  0  0  0
    5.2249  -13.0794   26.8624 C   0  0  0  0  0  0  0  0  0  0  0  0
    7.5713  -13.9509   26.7953 C   0  0  0  0  0  0  0  0  0  0  0  0
    8.6663  -14.5244   25.9681 C   0  0  2  0  0  0  0  0  0  0  0  0
    8.0911  -15.3043   24.8735 N   0  0  0  0  0  0  0  0  0  0  0  0
    9.6846  -15.2753   26.7009 C   0  0  0  0  0  0  0  0  0  0  0  0
   10.0780  -16.5654   26.4001 O   0  0  0  0  0  0  0  0  0  0  0  0
   10.2690  -14.7250   27.6952 O   0  0  0  0  0  0  0  0  0  0  0  0
  1  2  1  0
  2  3  1  0
  3  5  1  0
  3  4  1  1
  5  6  1  6
  7  5  1  0
  7  8  2  0
  9 10  1  0
 10 12  1  0
 10 11  2  0
 12 13  1  0
 14 13  1  6
 14 15  1  0
 15  7  1  0
 16 14  1  0
 17 16  2  0
 19 21  1  0
 19 18  1  1
 20 19  1  0
 22 21  1  1
 22 23  1  0
 23 16  1  0
 24 22  1  0
 25 24  1  0
 26 24  2  0
M  END
$$$$
