IQL.pdb
     RDKit          3D

 26 25  0  0  1  0  0  0  0  0999 V2000
    7.7068  -12.2663   19.9249 C   0  0  0  0  0  0  0  0  0  0  0  0
    7.3507  -13.7173   19.9968 C   0  0  0  0  0  0  0  0  0  0  0  0
    8.5626  -14.6240   19.7294 C   0  0  2  0  0  0  0  0  0  0  0  0
    9.0570  -14.3648   18.3473 C   0  0  0  0  0  0  0  0  0  0  0  0
    8.0689  -16.0337   19.9692 C   0  0  2  0  0  0  0  0  0  0  0  0
    6.9665  -16.2169   19.0065 N   0  0  0  0  0  0  0  0  0  0  0  0
    7.5357  -16.2647   21.3092 C   0  0  0  0  0  0  0  0  0  0  0  0
    6.3357  -15.9395   21.5803 O   0  0  0  0  0  0  0  0  0  0  0  0
    7.4548  -20.9650   24.9710 N   0  0  0  0  0  0  0  0  0  0  0  0
    7.0028  -19.9753   25.8806 C   0  0  0  0  0  0  0  0  0  0  0  0
    6.5455  -20.3481   26.9772 O   0  0  0  0  0  0  0  0  0  0  0  0
    7.1051  -18.5570   25.4642 C   0  0  0  0  0  0  0  0  0  0  0  0
    7.6900  -18.4265   24.0690 C   0  0  0  0  0  0  0  0  0  0  0  0
    7.7045  -16.9657   23.7261 C   0  0  2  0  0  0  0  0  0  0  0  0
    8.2491  -16.8396   22.3862 N   0  0  0  0  0  0  0  0  0  0  0  0
    8.4022  -16.1269   24.7005 C   0  0  0  0  0  0  0  0  0  0  0  0
    9.6565  -16.0661   24.6308 O   0  0  0  0  0  0  0  0  0  0  0  0
    7.7914  -11.6191   25.6524 C   0  0  0  0  0  0  0  0  0  0  0  0
    6.8561  -12.7255   26.1741 C   0  0  2  0  0  0  0  0  0  0  0  0
    5.6811  -11.9761   26.7819 C   0  0  0  0  0  0  0  0  0  0  0  0
    7.6391  -13.4803   27.1981 C   0  0  0  0  0  0  0  0  0  0  0  0
    8.5179  -14.5558   26.6659 C   0  0  2  0  0  0  0  0  0  0  0  0
    7.7636  -15.3759   25.7194 N   0  0  0  0  0  0  0  0  0  0  0  0
    9.2023  -15.3675   27.6712 C   0  0  0  0  0  0  0  0  0  0  0  0
    9.0782  -16.7385   27.7917 O   0  0  0  0  0  0  0  0  0  0  0  0
    9.9766  -14.7955   28.5116 O   0  0  0  0  0  0  0  0  0  0  0  0
  1  2  1  0
  2  3  1  0
  3  5  1  0
  3  4  1  6
  5  6  1  6
  7  5  1  0
  7  8  2  0
  9 10  1  0
 10 12  1  0
 10 11  2  0
 12 13  1  0
 14 13  1  1
 14 15  1  0
 15  7  1  0
 16 14  1  0
 17 16  2  0
 19 21  1  0
 19 18  1  1
 20 19  1  0
 22 21  1  1
 22 23  1  0
 23 16  1  0
 24 22  1  0
 25 24  1  0
 26 24  2  0
M  END
$$$$
