IQL.pdb
     RDKit          3D

 26 25  0  0  1  0  0  0  0  0999 V2000
    7.7179  -12.0630   18.2970 C   0  0  0  0  0  0  0  0  0  0  0  0
    8.2851  -13.4376   18.4587 C   0  0  0  0  0  0  0  0  0  0  0  0
    8.0605  -13.9930   19.8741 C   0  0  2  0  0  0  0  0  0  0  0  0
    8.7343  -13.0928   20.8527 C   0  0  0  0  0  0  0  0  0  0  0  0
    8.6002  -15.4058   19.8404 C   0  0  2  0  0  0  0  0  0  0  0  0
    7.7738  -16.1022   18.8366 N   0  0  0  0  0  0  0  0  0  0  0  0
    8.4739  -16.1286   21.1032 C   0  0  0  0  0  0  0  0  0  0  0  0
    7.8943  -17.2610   21.1319 O   0  0  0  0  0  0  0  0  0  0  0  0
   12.3453  -19.6926   22.4515 N   0  0  0  0  0  0  0  0  0  0  0  0
   11.3062  -19.6996   23.4166 C   0  0  0  0  0  0  0  0  0  0  0  0
   10.8111  -20.7952   23.7410 O   0  0  0  0  0  0  0  0  0  0  0  0
   10.8766  -18.3973   23.9777 C   0  0  0  0  0  0  0  0  0  0  0  0
   10.4840  -17.4210   22.8830 C   0  0  0  0  0  0  0  0  0  0  0  0
    9.3670  -16.5747   23.4194 C   0  0  2  0  0  0  0  0  0  0  0  0
    8.9519  -15.6783   22.3555 N   0  0  0  0  0  0  0  0  0  0  0  0
    9.6905  -15.8683   24.6589 C   0  0  0  0  0  0  0  0  0  0  0  0
   10.7608  -15.2089   24.6962 O   0  0  0  0  0  0  0  0  0  0  0  0
    7.8706  -12.3170   26.1205 C   0  0  0  0  0  0  0  0  0  0  0  0
    7.1846  -13.6731   26.3689 C   0  0  2  0  0  0  0  0  0  0  0  0
    5.7790  -13.3119   26.8220 C   0  0  0  0  0  0  0  0  0  0  0  0
    7.9732  -14.3446   27.4452 C   0  0  0  0  0  0  0  0  0  0  0  0
    9.1988  -15.0546   26.9914 C   0  0  2  0  0  0  0  0  0  0  0  0
    8.8815  -15.8741   25.8231 N   0  0  0  0  0  0  0  0  0  0  0  0
    9.9051  -15.8163   28.0204 C   0  0  0  0  0  0  0  0  0  0  0  0
   10.1561  -17.1738   27.9598 O   0  0  0  0  0  0  0  0  0  0  0  0
   10.3318  -15.2100   29.0613 O   0  0  0  0  0  0  0  0  0  0  0  0
  1  2  1  0
  2  3  1  0
  3  5  1  0
  3  4  1  1
  5  6  1  6
  7  5  1  0
  7  8  2  0
  9 10  1  0
 10 12  1  0
 10 11  2  0
 12 13  1  0
 14 13  1  6
 14 15  1  0
 15  7  1  0
 16 14  1  0
 17 16  2  0
 19 21  1  0
 19 18  1  1
 20 19  1  0
 22 21  1  1
 22 23  1  0
 23 16  1  0
 24 22  1  0
 25 24  1  0
 26 24  2  0
M  END
$$$$
