IQL.pdb
     RDKit          3D

 26 25  0  0  1  0  0  0  0  0999 V2000
    7.1899  -11.6356   19.0197 C   0  0  0  0  0  0  0  0  0  0  0  0
    7.7134  -13.0344   18.9377 C   0  0  0  0  0  0  0  0  0  0  0  0
    7.6781  -13.7456   20.2998 C   0  0  2  0  0  0  0  0  0  0  0  0
    8.4576  -12.9378   21.2805 C   0  0  0  0  0  0  0  0  0  0  0  0
    8.2296  -15.1307   20.0427 C   0  0  2  0  0  0  0  0  0  0  0  0
    7.2964  -15.7352   19.0737 N   0  0  0  0  0  0  0  0  0  0  0  0
    8.2692  -15.9911   21.2223 C   0  0  0  0  0  0  0  0  0  0  0  0
    7.1846  -16.4048   21.7436 O   0  0  0  0  0  0  0  0  0  0  0  0
   12.0815  -20.3915   23.1756 N   0  0  0  0  0  0  0  0  0  0  0  0
   11.3682  -20.1272   24.3726 C   0  0  0  0  0  0  0  0  0  0  0  0
   11.5572  -20.8771   25.3486 O   0  0  0  0  0  0  0  0  0  0  0  0
   10.4415  -18.9712   24.3828 C   0  0  0  0  0  0  0  0  0  0  0  0
   10.4498  -18.2384   23.0529 C   0  0  0  0  0  0  0  0  0  0  0  0
    9.4333  -17.1382   23.1433 C   0  0  2  0  0  0  0  0  0  0  0  0
    9.4435  -16.4323   21.8747 N   0  0  0  0  0  0  0  0  0  0  0  0
    9.6146  -16.2455   24.2878 C   0  0  0  0  0  0  0  0  0  0  0  0
   10.6191  -15.4887   24.2882 O   0  0  0  0  0  0  0  0  0  0  0  0
    8.9854  -12.3569   25.8995 C   0  0  0  0  0  0  0  0  0  0  0  0
    7.8023  -13.3229   25.7032 C   0  0  2  0  0  0  0  0  0  0  0  0
    6.5674  -12.4565   25.8923 C   0  0  0  0  0  0  0  0  0  0  0  0
    7.9355  -14.3619   26.7681 C   0  0  0  0  0  0  0  0  0  0  0  0
    9.0326  -15.3459   26.5675 C   0  0  2  0  0  0  0  0  0  0  0  0
    8.7365  -16.1725   25.3985 N   0  0  0  0  0  0  0  0  0  0  0  0
    9.3789  -16.1529   27.7365 C   0  0  0  0  0  0  0  0  0  0  0  0
    9.9892  -15.6642   28.8759 O   0  0  0  0  0  0  0  0  0  0  0  0
    9.1104  -17.4023   27.7325 O   0  0  0  0  0  0  0  0  0  0  0  0
  1  2  1  0
  2  3  1  0
  3  5  1  0
  3  4  1  1
  5  6  1  6
  7  5  1  0
  7  8  2  0
  9 10  1  0
 10 12  1  0
 10 11  2  0
 12 13  1  0
 14 13  1  6
 14 15  1  0
 15  7  1  0
 16 14  1  0
 17 16  2  0
 19 21  1  0
 19 18  1  1
 20 19  1  0
 22 21  1  1
 22 23  1  0
 23 16  1  0
 24 22  1  0
 25 24  1  0
 26 24  2  0
M  END
$$$$
