IQL.pdb
     RDKit          3D

 26 25  0  0  1  0  0  0  0  0999 V2000
    7.3826  -11.9201   18.5091 C   0  0  0  0  0  0  0  0  0  0  0  0
    7.9087  -13.3198   18.4703 C   0  0  0  0  0  0  0  0  0  0  0  0
    7.9015  -13.9788   19.8589 C   0  0  2  0  0  0  0  0  0  0  0  0
    8.7136  -13.1429   20.7883 C   0  0  0  0  0  0  0  0  0  0  0  0
    8.4327  -15.3783   19.6408 C   0  0  2  0  0  0  0  0  0  0  0  0
    7.4617  -16.0135   18.7302 N   0  0  0  0  0  0  0  0  0  0  0  0
    8.5063  -16.1897   20.8530 C   0  0  0  0  0  0  0  0  0  0  0  0
    7.4386  -16.5275   21.4573 O   0  0  0  0  0  0  0  0  0  0  0  0
   13.1111  -19.7083   23.3369 N   0  0  0  0  0  0  0  0  0  0  0  0
   12.1233  -19.7086   24.3545 C   0  0  0  0  0  0  0  0  0  0  0  0
   12.2619  -20.4955   25.3096 O   0  0  0  0  0  0  0  0  0  0  0  0
   10.9868  -18.7685   24.2134 C   0  0  0  0  0  0  0  0  0  0  0  0
   10.9255  -18.1736   22.8177 C   0  0  0  0  0  0  0  0  0  0  0  0
    9.7444  -17.2489   22.7782 C   0  0  2  0  0  0  0  0  0  0  0  0
    9.6976  -16.6606   21.4518 N   0  0  0  0  0  0  0  0  0  0  0  0
    9.7319  -16.2448   23.8420 C   0  0  0  0  0  0  0  0  0  0  0  0
   10.6269  -15.3614   23.8254 O   0  0  0  0  0  0  0  0  0  0  0  0
    6.2914  -12.5425   26.7864 C   0  0  0  0  0  0  0  0  0  0  0  0
    7.6910  -13.1769   26.8854 C   0  0  2  0  0  0  0  0  0  0  0  0
    8.6486  -12.0384   26.5716 C   0  0  0  0  0  0  0  0  0  0  0  0
    7.7311  -14.2540   25.8513 C   0  0  0  0  0  0  0  0  0  0  0  0
    8.8637  -15.2109   25.9685 C   0  0  2  0  0  0  0  0  0  0  0  0
    8.7806  -16.1966   24.8920 N   0  0  0  0  0  0  0  0  0  0  0  0
    9.0255  -15.8409   27.2780 C   0  0  0  0  0  0  0  0  0  0  0  0
    8.9541  -17.2012   27.5098 O   0  0  0  0  0  0  0  0  0  0  0  0
    9.2495  -15.1060   28.2992 O   0  0  0  0  0  0  0  0  0  0  0  0
  1  2  1  0
  2  3  1  0
  3  5  1  0
  3  4  1  1
  5  6  1  6
  7  5  1  0
  7  8  2  0
  9 10  1  0
 10 12  1  0
 10 11  2  0
 12 13  1  0
 14 13  1  6
 14 15  1  0
 15  7  1  0
 16 14  1  0
 17 16  2  0
 19 21  1  0
 19 18  1  6
 20 19  1  0
 22 21  1  1
 22 23  1  0
 23 16  1  0
 24 22  1  0
 25 24  1  0
 26 24  2  0
M  END
$$$$
