IQL.pdb
     RDKit          3D

 26 25  0  0  1  0  0  0  0  0999 V2000
    7.5917  -11.7369   18.8895 C   0  0  0  0  0  0  0  0  0  0  0  0
    7.8294  -13.2125   18.9470 C   0  0  0  0  0  0  0  0  0  0  0  0
    7.8216  -13.7436   20.3893 C   0  0  2  0  0  0  0  0  0  0  0  0
    8.8439  -12.9988   21.1779 C   0  0  0  0  0  0  0  0  0  0  0  0
    8.0761  -15.2301   20.2701 C   0  0  2  0  0  0  0  0  0  0  0  0
    6.9286  -15.7497   19.5028 N   0  0  0  0  0  0  0  0  0  0  0  0
    8.1177  -15.9378   21.5471 C   0  0  0  0  0  0  0  0  0  0  0  0
    7.0500  -16.0953   22.2213 O   0  0  0  0  0  0  0  0  0  0  0  0
   10.7993  -21.2827   24.1819 N   0  0  0  0  0  0  0  0  0  0  0  0
   11.1454  -20.0730   24.8363 C   0  0  0  0  0  0  0  0  0  0  0  0
   12.2338  -20.0200   25.4391 O   0  0  0  0  0  0  0  0  0  0  0  0
   10.1851  -18.9474   24.7589 C   0  0  0  0  0  0  0  0  0  0  0  0
   10.2558  -18.2458   23.4142 C   0  0  0  0  0  0  0  0  0  0  0  0
    9.2847  -17.1025   23.4557 C   0  0  2  0  0  0  0  0  0  0  0  0
    9.2764  -16.4918   22.1386 N   0  0  0  0  0  0  0  0  0  0  0  0
    9.5394  -16.1367   24.5244 C   0  0  0  0  0  0  0  0  0  0  0  0
   10.5482  -15.3936   24.4155 O   0  0  0  0  0  0  0  0  0  0  0  0
    8.0821  -12.2628   25.7775 C   0  0  0  0  0  0  0  0  0  0  0  0
    7.1532  -13.4681   26.0136 C   0  0  2  0  0  0  0  0  0  0  0  0
    5.8339  -12.8524   26.4520 C   0  0  0  0  0  0  0  0  0  0  0  0
    7.7905  -14.2757   27.0966 C   0  0  0  0  0  0  0  0  0  0  0  0
    9.0354  -14.9926   26.7111 C   0  0  2  0  0  0  0  0  0  0  0  0
    8.7280  -15.9783   25.6762 N   0  0  0  0  0  0  0  0  0  0  0  0
    9.7964  -15.5754   27.8152 C   0  0  0  0  0  0  0  0  0  0  0  0
   10.1097  -16.9161   27.9322 O   0  0  0  0  0  0  0  0  0  0  0  0
   10.2141  -14.8148   28.7534 O   0  0  0  0  0  0  0  0  0  0  0  0
  1  2  1  0
  2  3  1  0
  3  5  1  0
  3  4  1  1
  5  6  1  6
  7  5  1  0
  7  8  2  0
  9 10  1  0
 10 12  1  0
 10 11  2  0
 12 13  1  0
 14 13  1  6
 14 15  1  0
 15  7  1  0
 16 14  1  0
 17 16  2  0
 19 21  1  0
 19 18  1  1
 20 19  1  0
 22 21  1  1
 22 23  1  0
 23 16  1  0
 24 22  1  0
 25 24  1  0
 26 24  2  0
M  END
$$$$
