IQL.pdb
     RDKit          3D

 26 25  0  0  1  0  0  0  0  0999 V2000
    6.9418  -11.7371   19.2876 C   0  0  0  0  0  0  0  0  0  0  0  0
    7.5861  -13.0824   19.1759 C   0  0  0  0  0  0  0  0  0  0  0  0
    7.7149  -13.7769   20.5410 C   0  0  2  0  0  0  0  0  0  0  0  0
    8.4945  -12.8937   21.4543 C   0  0  0  0  0  0  0  0  0  0  0  0
    8.3616  -15.1134   20.2510 C   0  0  2  0  0  0  0  0  0  0  0  0
    7.4027  -15.8157   19.3777 N   0  0  0  0  0  0  0  0  0  0  0  0
    8.5825  -15.9439   21.4319 C   0  0  0  0  0  0  0  0  0  0  0  0
    7.6370  -16.6622   21.8894 O   0  0  0  0  0  0  0  0  0  0  0  0
   13.0173  -19.6840   22.9511 N   0  0  0  0  0  0  0  0  0  0  0  0
   12.2013  -19.7692   24.1079 C   0  0  0  0  0  0  0  0  0  0  0  0
   12.4127  -20.6973   24.9107 O   0  0  0  0  0  0  0  0  0  0  0  0
   11.1467  -18.7437   24.2856 C   0  0  0  0  0  0  0  0  0  0  0  0
   11.0897  -17.7921   23.1037 C   0  0  0  0  0  0  0  0  0  0  0  0
    9.9528  -16.8439   23.3486 C   0  0  2  0  0  0  0  0  0  0  0  0
    9.7956  -16.0362   22.1525 N   0  0  0  0  0  0  0  0  0  0  0  0
   10.0941  -16.0369   24.5605 C   0  0  0  0  0  0  0  0  0  0  0  0
   10.2477  -14.7961   24.4244 O   0  0  0  0  0  0  0  0  0  0  0  0
    8.8258  -13.0181   27.4063 C   0  0  0  0  0  0  0  0  0  0  0  0
    8.1405  -13.8335   26.2941 C   0  0  2  0  0  0  0  0  0  0  0  0
    6.7107  -13.3172   26.2689 C   0  0  0  0  0  0  0  0  0  0  0  0
    8.2206  -15.2630   26.7200 C   0  0  0  0  0  0  0  0  0  0  0  0
    9.5889  -15.7670   27.0133 C   0  0  2  0  0  0  0  0  0  0  0  0
   10.0699  -16.5551   25.8798 N   0  0  0  0  0  0  0  0  0  0  0  0
    9.7414  -16.4794   28.2810 C   0  0  0  0  0  0  0  0  0  0  0  0
   10.1823  -15.9042   29.4576 O   0  0  0  0  0  0  0  0  0  0  0  0
    9.4544  -17.7234   28.3347 O   0  0  0  0  0  0  0  0  0  0  0  0
  1  2  1  0
  2  3  1  0
  3  5  1  0
  3  4  1  1
  5  6  1  6
  7  5  1  0
  7  8  2  0
  9 10  1  0
 10 12  1  0
 10 11  2  0
 12 13  1  0
 14 13  1  6
 14 15  1  0
 15  7  1  0
 16 14  1  0
 17 16  2  0
 19 21  1  0
 19 18  1  1
 20 19  1  0
 22 21  1  6
 22 23  1  0
 23 16  1  0
 24 22  1  0
 25 24  1  0
 26 24  2  0
M  END
$$$$
