YRF.pdb
     RDKit          3D

 35 36  0  0  1  0  0  0  0  0999 V2000
   15.4073  -27.4241  -22.2909 O   0  0  0  0  0  0  0  0  0  0  0  0
   16.4680  -26.9086  -21.5883 C   0  0  0  0  0  0  0  0  0  0  0  0
   17.7524  -26.9547  -22.1292 C   0  0  0  0  0  0  0  0  0  0  0  0
   18.8169  -26.4465  -21.4415 C   0  0  0  0  0  0  0  0  0  0  0  0
   18.6531  -25.8775  -20.2033 C   0  0  0  0  0  0  0  0  0  0  0  0
   19.8525  -25.3451  -19.5028 C   0  0  0  0  0  0  0  0  0  0  0  0
   20.2857  -26.3403  -18.4176 C   0  0  2  0  0  0  0  0  0  0  0  0
   19.6264  -25.8632  -17.2081 N   0  0  0  0  0  0  0  0  0  0  0  0
   21.7643  -26.2061  -18.3324 C   0  0  0  0  0  0  0  0  0  0  0  0
   22.2868  -25.3344  -17.6491 O   0  0  0  0  0  0  0  0  0  0  0  0
   17.4125  -25.8199  -19.6538 C   0  0  0  0  0  0  0  0  0  0  0  0
   16.3329  -26.3384  -20.3564 C   0  0  0  0  0  0  0  0  0  0  0  0
   27.3123  -27.6127  -17.1160 N   0  0  0  0  0  0  0  0  0  0  0  0
   27.6495  -28.9727  -16.7578 C   0  0  0  0  0  0  0  0  0  0  0  0
   27.9665  -29.3169  -15.6426 N   0  0  0  0  0  0  0  0  0  0  0  0
   27.5974  -29.9495  -17.8160 N   0  0  0  0  0  0  0  0  0  0  0  0
   26.7682  -29.6426  -18.9621 C   0  0  0  0  0  0  0  0  0  0  0  0
   26.1701  -28.2675  -18.8563 C   0  0  0  0  0  0  0  0  0  0  0  0
   24.7086  -28.3192  -19.0546 C   0  0  0  0  0  0  0  0  0  0  0  0
   24.0448  -26.9428  -18.8941 C   0  0  2  0  0  0  0  0  0  0  0  0
   22.6269  -27.1093  -19.0560 N   0  0  0  0  0  0  0  0  0  0  0  0
   24.5957  -25.9598  -19.7963 C   0  0  0  0  0  0  0  0  0  0  0  0
   24.3751  -25.9690  -21.0622 O   0  0  0  0  0  0  0  0  0  0  0  0
   28.1525  -29.6260  -14.7835 N   0  0  0  0  0  0  0  0  0  0  0  0
   25.4209  -24.9146  -19.3237 C   0  0  2  0  0  0  0  0  0  0  0  0
   26.0863  -23.9909  -20.2531 C   0  0  0  0  0  0  0  0  0  0  0  0
   25.8082  -22.5694  -19.8432 C   0  0  0  0  0  0  0  0  0  0  0  0
   24.3974  -22.2236  -20.0437 C   0  0  0  0  0  0  0  0  0  0  0  0
   23.8930  -21.9197  -21.2920 C   0  0  0  0  0  0  0  0  0  0  0  0
   22.5311  -21.6385  -21.4536 C   0  0  0  0  0  0  0  0  0  0  0  0
   21.6469  -21.6505  -20.4012 C   0  0  0  0  0  0  0  0  0  0  0  0
   22.1366  -21.9494  -19.1421 C   0  0  0  0  0  0  0  0  0  0  0  0
   23.4720  -22.2242  -18.9983 C   0  0  0  0  0  0  0  0  0  0  0  0
   27.5030  -24.3377  -20.3947 O   0  0  0  0  0  0  0  0  0  0  0  0
   28.1589  -25.3246  -19.6873 O   0  0  0  0  0  0  0  0  0  0  0  0
  2  1  1  0
  3  2  2  0
  4  3  1  0
  5 11  1  0
  5  4  2  0
  6  5  1  0
  7  6  1  0
  7  8  1  1
  9  7  1  0
 10  9  2  0
 11 12  2  0
 12  2  1  0
 13 14  1  0
 14 16  1  0
 15 14  2  0
 16 17  1  0
 17 18  1  0
 18 19  1  0
 20 19  1  6
 20 22  1  0
 20 21  1  0
 21  9  1  0
 22 24  1  0
 23 22  2  0
 24 25  1  0
 25 26  1  6
 26 27  1  0
 27 28  2  0
 28 29  1  0
 30 29  2  0
 31 30  1  0
 32 27  1  0
 32 31  2  0
 33 34  1  0
 33 25  1  0
 35 33  2  0
M  END
$$$$
