YRF.pdb
     RDKit          3D

 35 36  0  0  1  0  0  0  0  0999 V2000
   21.3876   -9.7890    6.0761 O   0  0  0  0  0  0  0  0  0  0  0  0
   20.8263  -11.0334    6.2208 C   0  0  0  0  0  0  0  0  0  0  0  0
   19.9405  -11.5162    5.2581 C   0  0  0  0  0  0  0  0  0  0  0  0
   19.3741  -12.7516    5.3892 C   0  0  0  0  0  0  0  0  0  0  0  0
   19.6600  -13.5503    6.4681 C   0  0  0  0  0  0  0  0  0  0  0  0
   19.0079  -14.8845    6.5559 C   0  0  0  0  0  0  0  0  0  0  0  0
   17.4863  -14.6978    6.6317 C   0  0  2  0  0  0  0  0  0  0  0  0
   17.2634  -14.0872    7.9366 N   0  0  0  0  0  0  0  0  0  0  0  0
   16.9203  -16.0710    6.5585 C   0  0  0  0  0  0  0  0  0  0  0  0
   16.9851  -16.8387    7.5105 O   0  0  0  0  0  0  0  0  0  0  0  0
   20.5195  -13.1040    7.4202 C   0  0  0  0  0  0  0  0  0  0  0  0
   21.0928  -11.8468    7.2831 C   0  0  0  0  0  0  0  0  0  0  0  0
   13.5979  -20.5741   -0.1984 N   0  0  0  0  0  0  0  0  0  0  0  0
   13.5298  -21.5916    0.8272 C   0  0  0  0  0  0  0  0  0  0  0  0
   13.1039  -22.7082    0.6413 N   0  0  0  0  0  0  0  0  0  0  0  0
   14.0025  -21.2194    2.1366 N   0  0  0  0  0  0  0  0  0  0  0  0
   14.3767  -19.8356    2.3383 C   0  0  0  0  0  0  0  0  0  0  0  0
   14.9711  -19.6194    3.7021 C   0  0  0  0  0  0  0  0  0  0  0  0
   15.3188  -18.1987    3.8987 C   0  0  0  0  0  0  0  0  0  0  0  0
   15.9493  -17.9330    5.2745 C   0  0  2  0  0  0  0  0  0  0  0  0
   16.2724  -16.5354    5.3551 N   0  0  0  0  0  0  0  0  0  0  0  0
   17.0883  -18.7826    5.5289 C   0  0  0  0  0  0  0  0  0  0  0  0
   18.2426  -18.5838    5.0003 O   0  0  0  0  0  0  0  0  0  0  0  0
   12.8079  -23.5880    0.5606 N   0  0  0  0  0  0  0  0  0  0  0  0
   16.9909  -19.8976    6.3913 C   0  0  1  0  0  0  0  0  0  0  0  0
   18.1465  -20.7710    6.6395 C   0  0  0  0  0  0  0  0  0  0  0  0
   18.9479  -20.2372    7.7965 C   0  0  0  0  0  0  0  0  0  0  0  0
   20.0594  -21.1325    8.1327 C   0  0  0  0  0  0  0  0  0  0  0  0
   19.9579  -22.0724    9.1384 C   0  0  0  0  0  0  0  0  0  0  0  0
   21.0232  -22.9417    9.4020 C   0  0  0  0  0  0  0  0  0  0  0  0
   22.1979  -22.9042    8.6890 C   0  0  0  0  0  0  0  0  0  0  0  0
   22.3179  -21.9651    7.6799 C   0  0  0  0  0  0  0  0  0  0  0  0
   21.2665  -21.1212    7.4314 C   0  0  0  0  0  0  0  0  0  0  0  0
   17.7174  -22.1666    6.7637 O   0  0  0  0  0  0  0  0  0  0  0  0
   18.5221  -23.2707    6.5684 O   0  0  0  0  0  0  0  0  0  0  0  0
  2  1  1  0
  3  2  2  0
  4  3  1  0
  5 11  1  0
  5  4  2  0
  6  5  1  0
  7  6  1  0
  7  8  1  1
  9  7  1  0
 10  9  2  0
 11 12  2  0
 12  2  1  0
 13 14  1  0
 14 16  1  0
 15 14  2  0
 16 17  1  0
 17 18  1  0
 18 19  1  0
 20 19  1  6
 20 22  1  0
 20 21  1  0
 21  9  1  0
 22 24  1  0
 23 22  2  0
 24 25  1  0
 25 26  1  1
 26 27  1  0
 27 28  2  0
 28 29  1  0
 30 29  2  0
 31 30  1  0
 32 27  1  0
 32 31  2  0
 33 34  1  0
 33 25  1  0
 35 33  2  0
M  END
$$$$
