YRF.pdb
     RDKit          3D

 35 36  0  0  1  0  0  0  0  0999 V2000
    8.7996  -12.6162  -10.9850 O   0  0  0  0  0  0  0  0  0  0  0  0
    9.9549  -11.9346  -10.6929 C   0  0  0  0  0  0  0  0  0  0  0  0
   10.3385  -10.8442  -11.4727 C   0  0  0  0  0  0  0  0  0  0  0  0
   11.4853  -10.1574  -11.1944 C   0  0  0  0  0  0  0  0  0  0  0  0
   12.2895  -10.5193  -10.1427 C   0  0  0  0  0  0  0  0  0  0  0  0
   13.5278   -9.7338   -9.8932 C   0  0  0  0  0  0  0  0  0  0  0  0
   14.5634  -10.0679  -10.9756 C   0  0  2  0  0  0  0  0  0  0  0  0
   15.1249  -11.3456  -10.5540 N   0  0  0  0  0  0  0  0  0  0  0  0
   15.5667   -8.9724  -10.9077 C   0  0  0  0  0  0  0  0  0  0  0  0
   16.3490   -8.8817   -9.9699 O   0  0  0  0  0  0  0  0  0  0  0  0
   11.9387  -11.5777   -9.3674 C   0  0  0  0  0  0  0  0  0  0  0  0
   10.7719  -12.2737   -9.6544 C   0  0  0  0  0  0  0  0  0  0  0  0
   16.8123  -10.7833  -15.6078 N   0  0  0  0  0  0  0  0  0  0  0  0
   18.2278  -10.4884  -15.5729 C   0  0  0  0  0  0  0  0  0  0  0  0
   19.0748  -11.1906  -16.0751 N   0  0  0  0  0  0  0  0  0  0  0  0
   18.6179   -9.2813  -14.8895 N   0  0  0  0  0  0  0  0  0  0  0  0
   17.5648   -8.4853  -14.2954 C   0  0  0  0  0  0  0  0  0  0  0  0
   18.1043   -7.2143  -13.7009 C   0  0  0  0  0  0  0  0  0  0  0  0
   17.0103   -6.3948  -13.1449 C   0  0  0  0  0  0  0  0  0  0  0  0
   16.5528   -6.8853  -11.7625 C   0  0  2  0  0  0  0  0  0  0  0  0
   15.6460   -7.9829  -11.9557 N   0  0  0  0  0  0  0  0  0  0  0  0
   15.9812   -5.8255  -10.9662 C   0  0  0  0  0  0  0  0  0  0  0  0
   14.8067   -5.3477  -11.1750 O   0  0  0  0  0  0  0  0  0  0  0  0
   19.7324  -11.6823  -16.5156 N   0  0  0  0  0  0  0  0  0  0  0  0
   16.6975   -5.2491   -9.8933 C   0  0  1  0  0  0  0  0  0  0  0  0
   16.0791   -4.2427   -9.0189 C   0  0  0  0  0  0  0  0  0  0  0  0
   16.5831   -4.4142   -7.6108 C   0  0  0  0  0  0  0  0  0  0  0  0
   16.0821   -3.3522   -6.7327 C   0  0  0  0  0  0  0  0  0  0  0  0
   16.7853   -2.1814   -6.5326 C   0  0  0  0  0  0  0  0  0  0  0  0
   16.2554   -1.1695   -5.7233 C   0  0  0  0  0  0  0  0  0  0  0  0
   15.0355   -1.2875   -5.1007 C   0  0  0  0  0  0  0  0  0  0  0  0
   14.3191   -2.4565   -5.2874 C   0  0  0  0  0  0  0  0  0  0  0  0
   14.8491   -3.4386   -6.0836 C   0  0  0  0  0  0  0  0  0  0  0  0
   16.2427   -2.9011   -9.5851 O   0  0  0  0  0  0  0  0  0  0  0  0
   15.3335   -1.8690   -9.4711 O   0  0  0  0  0  0  0  0  0  0  0  0
  2  1  1  0
  3  2  2  0
  4  3  1  0
  5 11  1  0
  5  4  2  0
  6  5  1  0
  7  6  1  0
  7  8  1  1
  9  7  1  0
 10  9  2  0
 11 12  2  0
 12  2  1  0
 13 14  1  0
 14 16  1  0
 15 14  2  0
 16 17  1  0
 17 18  1  0
 18 19  1  0
 20 19  1  6
 20 22  1  0
 20 21  1  0
 21  9  1  0
 22 24  1  0
 23 22  2  0
 24 25  1  0
 25 26  1  6
 26 27  1  0
 27 28  2  0
 28 29  1  0
 30 29  2  0
 31 30  1  0
 32 27  1  0
 32 31  2  0
 33 34  1  0
 33 25  1  0
 35 33  2  0
M  END
$$$$
