YRF.pdb
     RDKit          3D

 35 36  0  0  1  0  0  0  0  0999 V2000
   30.6663  -19.1413  -19.0275 O   0  0  0  0  0  0  0  0  0  0  0  0
   30.0195  -19.0088  -17.8239 C   0  0  0  0  0  0  0  0  0  0  0  0
   29.7897  -20.1301  -17.0275 C   0  0  0  0  0  0  0  0  0  0  0  0
   29.1472  -20.0134  -15.8284 C   0  0  0  0  0  0  0  0  0  0  0  0
   28.7114  -18.7936  -15.3747 C   0  0  0  0  0  0  0  0  0  0  0  0
   28.0144  -18.7324  -14.0620 C   0  0  0  0  0  0  0  0  0  0  0  0
   26.7627  -19.6193  -14.1140 C   0  0  2  0  0  0  0  0  0  0  0  0
   25.9300  -19.0061  -15.1417 N   0  0  0  0  0  0  0  0  0  0  0  0
   26.1488  -19.5080  -12.7642 C   0  0  0  0  0  0  0  0  0  0  0  0
   25.8745  -18.4186  -12.2765 O   0  0  0  0  0  0  0  0  0  0  0  0
   28.9226  -17.6856  -16.1310 C   0  0  0  0  0  0  0  0  0  0  0  0
   29.5760  -17.8089  -17.3500 C   0  0  0  0  0  0  0  0  0  0  0  0
   21.5839  -22.7695  -14.0787 N   0  0  0  0  0  0  0  0  0  0  0  0
   21.0969  -21.4077  -14.0702 C   0  0  0  0  0  0  0  0  0  0  0  0
   20.0283  -21.0714  -14.5258 N   0  0  0  0  0  0  0  0  0  0  0  0
   21.9615  -20.4178  -13.4792 N   0  0  0  0  0  0  0  0  0  0  0  0
   23.1175  -20.8963  -12.7511 C   0  0  0  0  0  0  0  0  0  0  0  0
   22.9013  -20.8229  -11.2653 C   0  0  0  0  0  0  0  0  0  0  0  0
   24.0603  -21.3819  -10.5427 C   0  0  0  0  0  0  0  0  0  0  0  0
   25.3139  -20.5031  -10.6733 C   0  0  2  0  0  0  0  0  0  0  0  0
   25.8557  -20.6910  -11.9907 N   0  0  0  0  0  0  0  0  0  0  0  0
   26.2790  -20.7664   -9.6325 C   0  0  0  0  0  0  0  0  0  0  0  0
   27.5064  -21.0608   -9.8733 O   0  0  0  0  0  0  0  0  0  0  0  0
   19.1866  -20.7902  -14.8099 N   0  0  0  0  0  0  0  0  0  0  0  0
   25.9165  -20.7108   -8.2680 C   0  0  1  0  0  0  0  0  0  0  0  0
   26.9195  -20.8767   -7.2067 C   0  0  0  0  0  0  0  0  0  0  0  0
   27.9896  -19.8277   -7.3502 C   0  0  0  0  0  0  0  0  0  0  0  0
   28.7643  -19.6845   -6.1135 C   0  0  0  0  0  0  0  0  0  0  0  0
   28.5427  -18.6454   -5.2324 C   0  0  0  0  0  0  0  0  0  0  0  0
   29.2698  -18.5652   -4.0387 C   0  0  0  0  0  0  0  0  0  0  0  0
   30.2199  -19.4958   -3.6913 C   0  0  0  0  0  0  0  0  0  0  0  0
   30.4575  -20.5419   -4.5653 C   0  0  0  0  0  0  0  0  0  0  0  0
   29.7373  -20.6092   -5.7298 C   0  0  0  0  0  0  0  0  0  0  0  0
   26.2718  -20.9374   -5.8936 O   0  0  0  0  0  0  0  0  0  0  0  0
   26.8225  -21.4906   -4.7555 O   0  0  0  0  0  0  0  0  0  0  0  0
  2  1  1  0
  3  2  2  0
  4  3  1  0
  5 11  1  0
  5  4  2  0
  6  5  1  0
  7  6  1  0
  7  8  1  6
  9  7  1  0
 10  9  2  0
 11 12  2  0
 12  2  1  0
 13 14  1  0
 14 16  1  0
 15 14  2  0
 16 17  1  0
 17 18  1  0
 18 19  1  0
 20 19  1  1
 20 22  1  0
 20 21  1  0
 21  9  1  0
 22 24  1  0
 23 22  2  0
 24 25  1  0
 25 26  1  6
 26 27  1  0
 27 28  2  0
 28 29  1  0
 30 29  2  0
 31 30  1  0
 32 27  1  0
 32 31  2  0
 33 34  1  0
 33 25  1  0
 35 33  2  0
M  END
$$$$
