YRF.pdb
     RDKit          3D

 35 36  0  0  1  0  0  0  0  0999 V2000
   13.9779  -18.6319  -17.9173 O   0  0  0  0  0  0  0  0  0  0  0  0
   15.2356  -18.7210  -17.3744 C   0  0  0  0  0  0  0  0  0  0  0  0
   15.5384  -18.0369  -16.1977 C   0  0  0  0  0  0  0  0  0  0  0  0
   16.7853  -18.1159  -15.6468 C   0  0  0  0  0  0  0  0  0  0  0  0
   17.7718  -18.8685  -16.2333 C   0  0  0  0  0  0  0  0  0  0  0  0
   19.1108  -18.9112  -15.5867 C   0  0  0  0  0  0  0  0  0  0  0  0
   19.4848  -20.3715  -15.2979 C   0  0  2  0  0  0  0  0  0  0  0  0
   18.9491  -20.6231  -13.9655 N   0  0  0  0  0  0  0  0  0  0  0  0
   20.9714  -20.4042  -15.3126 C   0  0  0  0  0  0  0  0  0  0  0  0
   21.6194  -20.3990  -14.2734 O   0  0  0  0  0  0  0  0  0  0  0  0
   17.5031  -19.5447  -17.3800 C   0  0  0  0  0  0  0  0  0  0  0  0
   16.2340  -19.4612  -17.9371 C   0  0  0  0  0  0  0  0  0  0  0  0
   26.6571  -25.1541  -16.2081 N   0  0  0  0  0  0  0  0  0  0  0  0
   27.4228  -23.9346  -16.3432 C   0  0  0  0  0  0  0  0  0  0  0  0
   28.4764  -23.8624  -16.9327 N   0  0  0  0  0  0  0  0  0  0  0  0
   26.8712  -22.7555  -15.7253 N   0  0  0  0  0  0  0  0  0  0  0  0
   25.4326  -22.5985  -15.7619 C   0  0  0  0  0  0  0  0  0  0  0  0
   24.9608  -22.1630  -17.1211 C   0  0  0  0  0  0  0  0  0  0  0  0
   23.5029  -21.9344  -17.1172 C   0  0  0  0  0  0  0  0  0  0  0  0
   23.1219  -20.5812  -16.4970 C   0  0  2  0  0  0  0  0  0  0  0  0
   21.6929  -20.4467  -16.5620 N   0  0  0  0  0  0  0  0  0  0  0  0
   23.8132  -19.4781  -17.1209 C   0  0  0  0  0  0  0  0  0  0  0  0
   23.5418  -19.0612  -18.3058 O   0  0  0  0  0  0  0  0  0  0  0  0
   29.3209  -23.8276  -17.3250 N   0  0  0  0  0  0  0  0  0  0  0  0
   24.8431  -18.7848  -16.4463 C   0  0  2  0  0  0  0  0  0  0  0  0
   25.5803  -17.6938  -17.0990 C   0  0  0  0  0  0  0  0  0  0  0  0
   26.4520  -16.9947  -16.0903 C   0  0  0  0  0  0  0  0  0  0  0  0
   27.2608  -17.9529  -15.3301 C   0  0  0  0  0  0  0  0  0  0  0  0
   28.4122  -18.5078  -15.8512 C   0  0  0  0  0  0  0  0  0  0  0  0
   29.1847  -19.3845  -15.0801 C   0  0  0  0  0  0  0  0  0  0  0  0
   28.8435  -19.7296  -13.7940 C   0  0  0  0  0  0  0  0  0  0  0  0
   27.6899  -19.1854  -13.2575 C   0  0  0  0  0  0  0  0  0  0  0  0
   26.9438  -18.3272  -14.0231 C   0  0  0  0  0  0  0  0  0  0  0  0
   26.2725  -18.1851  -18.2935 O   0  0  0  0  0  0  0  0  0  0  0  0
   26.8026  -17.3939  -19.2923 O   0  0  0  0  0  0  0  0  0  0  0  0
  2  1  1  0
  3  2  2  0
  4  3  1  0
  5 11  1  0
  5  4  2  0
  6  5  1  0
  7  6  1  0
  7  8  1  1
  9  7  1  0
 10  9  2  0
 11 12  2  0
 12  2  1  0
 13 14  1  0
 14 16  1  0
 15 14  2  0
 16 17  1  0
 17 18  1  0
 18 19  1  0
 20 19  1  6
 20 22  1  0
 20 21  1  0
 21  9  1  0
 22 24  1  0
 23 22  2  0
 24 25  1  0
 25 26  1  1
 26 27  1  0
 27 28  2  0
 28 29  1  0
 30 29  2  0
 31 30  1  0
 32 27  1  0
 32 31  2  0
 33 34  1  0
 33 25  1  0
 35 33  2  0
M  END
$$$$
