YRF.pdb
     RDKit          3D

 35 36  0  0  1  0  0  0  0  0999 V2000
   17.3289  -21.6495  -13.3217 O   0  0  0  0  0  0  0  0  0  0  0  0
   18.5264  -20.9833  -13.2389 C   0  0  0  0  0  0  0  0  0  0  0  0
   19.4303  -21.2951  -12.2240 C   0  0  0  0  0  0  0  0  0  0  0  0
   20.6247  -20.6403  -12.1291 C   0  0  0  0  0  0  0  0  0  0  0  0
   20.9681  -19.6607  -13.0270 C   0  0  0  0  0  0  0  0  0  0  0  0
   22.2819  -18.9813  -12.8680 C   0  0  0  0  0  0  0  0  0  0  0  0
   23.2117  -19.4079  -14.0121 C   0  0  2  0  0  0  0  0  0  0  0  0
   22.3056  -19.8002  -15.0847 N   0  0  0  0  0  0  0  0  0  0  0  0
   23.9772  -20.5673  -13.4817 C   0  0  0  0  0  0  0  0  0  0  0  0
   23.7889  -21.7018  -13.9027 O   0  0  0  0  0  0  0  0  0  0  0  0
   20.1057  -19.3377  -14.0250 C   0  0  0  0  0  0  0  0  0  0  0  0
   18.8919  -20.0058  -14.1175 C   0  0  0  0  0  0  0  0  0  0  0  0
   30.5435  -23.6196  -15.0050 N   0  0  0  0  0  0  0  0  0  0  0  0
   29.7164  -23.2583  -16.1351 C   0  0  0  0  0  0  0  0  0  0  0  0
   29.6127  -23.9294  -17.1359 N   0  0  0  0  0  0  0  0  0  0  0  0
   28.9890  -22.0188  -16.0312 N   0  0  0  0  0  0  0  0  0  0  0  0
   29.1288  -21.2686  -14.8010 C   0  0  0  0  0  0  0  0  0  0  0  0
   28.1872  -21.7687  -13.7413 C   0  0  0  0  0  0  0  0  0  0  0  0
   27.0399  -20.8529  -13.5904 C   0  0  0  0  0  0  0  0  0  0  0  0
   26.0983  -21.2732  -12.4513 C   0  0  2  0  0  0  0  0  0  0  0  0
   24.9713  -20.3819  -12.4517 N   0  0  0  0  0  0  0  0  0  0  0  0
   26.7695  -21.3201  -11.1742 C   0  0  0  0  0  0  0  0  0  0  0  0
   27.9295  -20.8050  -10.9729 O   0  0  0  0  0  0  0  0  0  0  0  0
   29.4806  -24.4004  -17.9289 N   0  0  0  0  0  0  0  0  0  0  0  0
   26.1725  -21.9456  -10.0567 C   0  0  1  0  0  0  0  0  0  0  0  0
   26.4344  -21.4732   -8.6900 C   0  0  0  0  0  0  0  0  0  0  0  0
   27.5075  -20.4177   -8.7140 C   0  0  0  0  0  0  0  0  0  0  0  0
   27.9151  -20.0415   -7.3566 C   0  0  0  0  0  0  0  0  0  0  0  0
   28.8769  -20.7484   -6.6635 C   0  0  0  0  0  0  0  0  0  0  0  0
   29.2744  -20.3338   -5.3868 C   0  0  0  0  0  0  0  0  0  0  0  0
   28.7392  -19.2267   -4.7723 C   0  0  0  0  0  0  0  0  0  0  0  0
   27.7707  -18.5089   -5.4516 C   0  0  0  0  0  0  0  0  0  0  0  0
   27.3919  -18.9251   -6.7016 C   0  0  0  0  0  0  0  0  0  0  0  0
   25.1839  -21.0822   -8.0338 O   0  0  0  0  0  0  0  0  0  0  0  0
   23.9868  -20.8377   -8.6757 O   0  0  0  0  0  0  0  0  0  0  0  0
  2  1  1  0
  3  2  2  0
  4  3  1  0
  5 11  1  0
  5  4  2  0
  6  5  1  0
  7  6  1  0
  7  8  1  6
  9  7  1  0
 10  9  2  0
 11 12  2  0
 12  2  1  0
 13 14  1  0
 14 16  1  0
 15 14  2  0
 16 17  1  0
 17 18  1  0
 18 19  1  0
 20 19  1  6
 20 22  1  0
 20 21  1  0
 21  9  1  0
 22 24  1  0
 23 22  2  0
 24 25  1  0
 25 26  1  1
 26 27  1  0
 27 28  2  0
 28 29  1  0
 30 29  2  0
 31 30  1  0
 32 27  1  0
 32 31  2  0
 33 34  1  0
 33 25  1  0
 35 33  2  0
M  END
$$$$
