YRF.pdb
     RDKit          3D

 35 36  0  0  1  0  0  0  0  0999 V2000
   21.4713  -13.2480  -18.7300 O   0  0  0  0  0  0  0  0  0  0  0  0
   21.6142  -14.3813  -17.9684 C   0  0  0  0  0  0  0  0  0  0  0  0
   22.1157  -15.5492  -18.5416 C   0  0  0  0  0  0  0  0  0  0  0  0
   22.2626  -16.6839  -17.7965 C   0  0  0  0  0  0  0  0  0  0  0  0
   21.9225  -16.7065  -16.4670 C   0  0  0  0  0  0  0  0  0  0  0  0
   22.1021  -17.9744  -15.7100 C   0  0  0  0  0  0  0  0  0  0  0  0
   23.2891  -17.8237  -14.7487 C   0  0  2  0  0  0  0  0  0  0  0  0
   24.4346  -17.6038  -15.6233 N   0  0  0  0  0  0  0  0  0  0  0  0
   23.3799  -19.1243  -14.0334 C   0  0  0  0  0  0  0  0  0  0  0  0
   22.4270  -19.5779  -13.4120 O   0  0  0  0  0  0  0  0  0  0  0  0
   21.4317  -15.5824  -15.8842 C   0  0  0  0  0  0  0  0  0  0  0  0
   21.2834  -14.4308  -16.6458 C   0  0  0  0  0  0  0  0  0  0  0  0
   24.9284  -27.3493  -14.5042 N   0  0  0  0  0  0  0  0  0  0  0  0
   23.9823  -26.4602  -15.1416 C   0  0  0  0  0  0  0  0  0  0  0  0
   22.8990  -26.8097  -15.5501 N   0  0  0  0  0  0  0  0  0  0  0  0
   24.3868  -25.0846  -15.2852 N   0  0  0  0  0  0  0  0  0  0  0  0
   25.5181  -24.6402  -14.4990 C   0  0  0  0  0  0  0  0  0  0  0  0
   25.1276  -23.5511  -13.5392 C   0  0  0  0  0  0  0  0  0  0  0  0
   25.0072  -22.2582  -14.2404 C   0  0  0  0  0  0  0  0  0  0  0  0
   24.6349  -21.1079  -13.2923 C   0  0  2  0  0  0  0  0  0  0  0  0
   24.6021  -19.8919  -14.0568 N   0  0  0  0  0  0  0  0  0  0  0  0
   25.5206  -21.0260  -12.1553 C   0  0  0  0  0  0  0  0  0  0  0  0
   26.8006  -20.9996  -12.2647 O   0  0  0  0  0  0  0  0  0  0  0  0
   22.0685  -27.0251  -15.9136 N   0  0  0  0  0  0  0  0  0  0  0  0
   25.0150  -20.9673  -10.8371 C   0  0  1  0  0  0  0  0  0  0  0  0
   25.9131  -21.0137   -9.6748 C   0  0  0  0  0  0  0  0  0  0  0  0
   26.9180  -19.8965   -9.7641 C   0  0  0  0  0  0  0  0  0  0  0  0
   27.6956  -19.7792   -8.5264 C   0  0  0  0  0  0  0  0  0  0  0  0
   28.6956  -20.6756   -8.2078 C   0  0  0  0  0  0  0  0  0  0  0  0
   29.4486  -20.5069   -7.0397 C   0  0  0  0  0  0  0  0  0  0  0  0
   29.2353  -19.4637   -6.1703 C   0  0  0  0  0  0  0  0  0  0  0  0
   28.2338  -18.5581   -6.4726 C   0  0  0  0  0  0  0  0  0  0  0  0
   27.5051  -18.7343   -7.6204 C   0  0  0  0  0  0  0  0  0  0  0  0
   25.1402  -21.0649   -8.4309 O   0  0  0  0  0  0  0  0  0  0  0  0
   25.6385  -21.4213   -7.1943 O   0  0  0  0  0  0  0  0  0  0  0  0
  2  1  1  0
  3  2  2  0
  4  3  1  0
  5 11  1  0
  5  4  2  0
  6  5  1  0
  7  6  1  0
  7  8  1  6
  9  7  1  0
 10  9  2  0
 11 12  2  0
 12  2  1  0
 13 14  1  0
 14 16  1  0
 15 14  2  0
 16 17  1  0
 17 18  1  0
 18 19  1  0
 20 19  1  6
 20 22  1  0
 20 21  1  0
 21  9  1  0
 22 24  1  0
 23 22  2  0
 24 25  1  0
 25 26  1  1
 26 27  1  0
 27 28  2  0
 28 29  1  0
 30 29  2  0
 31 30  1  0
 32 27  1  0
 32 31  2  0
 33 34  1  0
 33 25  1  0
 35 33  2  0
M  END
$$$$
