YRF.pdb
     RDKit          3D

 35 36  0  0  1  0  0  0  0  0999 V2000
   30.8275  -18.3142  -19.1242 O   0  0  0  0  0  0  0  0  0  0  0  0
   30.1058  -18.3611  -17.9574 C   0  0  0  0  0  0  0  0  0  0  0  0
   29.5613  -17.1927  -17.4257 C   0  0  0  0  0  0  0  0  0  0  0  0
   28.8418  -17.2241  -16.2656 C   0  0  0  0  0  0  0  0  0  0  0  0
   28.6347  -18.4024  -15.5930 C   0  0  0  0  0  0  0  0  0  0  0  0
   27.8456  -18.3707  -14.3324 C   0  0  0  0  0  0  0  0  0  0  0  0
   26.5941  -19.2434  -14.4989 C   0  0  2  0  0  0  0  0  0  0  0  0
   25.7601  -18.5011  -15.4364 N   0  0  0  0  0  0  0  0  0  0  0  0
   25.9816  -19.3102  -13.1454 C   0  0  0  0  0  0  0  0  0  0  0  0
   25.6093  -18.2990  -12.5636 O   0  0  0  0  0  0  0  0  0  0  0  0
   29.1542  -19.5548  -16.0894 C   0  0  0  0  0  0  0  0  0  0  0  0
   29.8856  -19.5182  -17.2691 C   0  0  0  0  0  0  0  0  0  0  0  0
   19.6149  -22.0641  -12.2230 N   0  0  0  0  0  0  0  0  0  0  0  0
   20.2430  -21.4079  -13.3484 C   0  0  0  0  0  0  0  0  0  0  0  0
   20.0937  -21.7518  -14.4982 N   0  0  0  0  0  0  0  0  0  0  0  0
   21.0926  -20.2837  -13.0468 N   0  0  0  0  0  0  0  0  0  0  0  0
   22.0379  -20.4387  -11.9616 C   0  0  0  0  0  0  0  0  0  0  0  0
   23.1285  -21.4107  -12.3162 C   0  0  0  0  0  0  0  0  0  0  0  0
   24.0521  -21.5935  -11.1798 C   0  0  0  0  0  0  0  0  0  0  0  0
   25.1948  -20.5663  -11.1802 C   0  0  2  0  0  0  0  0  0  0  0  0
   25.8064  -20.5792  -12.4803 N   0  0  0  0  0  0  0  0  0  0  0  0
   26.1431  -20.8007  -10.1174 C   0  0  0  0  0  0  0  0  0  0  0  0
   26.8834  -21.8493  -10.0575 O   0  0  0  0  0  0  0  0  0  0  0  0
   19.9129  -21.9851  -15.3820 N   0  0  0  0  0  0  0  0  0  0  0  0
   26.3108  -19.8692   -9.0682 C   0  0  1  0  0  0  0  0  0  0  0  0
   27.0510  -20.2218   -7.8485 C   0  0  0  0  0  0  0  0  0  0  0  0
   27.6994  -18.9909   -7.2737 C   0  0  0  0  0  0  0  0  0  0  0  0
   28.3768  -19.2875   -6.0075 C   0  0  0  0  0  0  0  0  0  0  0  0
   27.8909  -18.8323   -4.7985 C   0  0  0  0  0  0  0  0  0  0  0  0
   28.5379  -19.1728   -3.6046 C   0  0  0  0  0  0  0  0  0  0  0  0
   29.6646  -19.9599   -3.5763 C   0  0  0  0  0  0  0  0  0  0  0  0
   30.1673  -20.4215   -4.7800 C   0  0  0  0  0  0  0  0  0  0  0  0
   29.5230  -20.0817   -5.9414 C   0  0  0  0  0  0  0  0  0  0  0  0
   26.1923  -20.9684   -6.9251 O   0  0  0  0  0  0  0  0  0  0  0  0
   26.6346  -21.8322   -5.9439 O   0  0  0  0  0  0  0  0  0  0  0  0
  2  1  1  0
  3  2  2  0
  4  3  1  0
  5 11  1  0
  5  4  2  0
  6  5  1  0
  7  6  1  0
  7  8  1  6
  9  7  1  0
 10  9  2  0
 11 12  2  0
 12  2  1  0
 13 14  1  0
 14 16  1  0
 15 14  2  0
 16 17  1  0
 17 18  1  0
 18 19  1  0
 20 19  1  6
 20 22  1  0
 20 21  1  0
 21  9  1  0
 22 24  1  0
 23 22  2  0
 24 25  1  0
 25 26  1  1
 26 27  1  0
 27 28  2  0
 28 29  1  0
 30 29  2  0
 31 30  1  0
 32 27  1  0
 32 31  2  0
 33 34  1  0
 33 25  1  0
 35 33  2  0
M  END
$$$$
