YRF.pdb
     RDKit          3D

 35 36  0  0  1  0  0  0  0  0999 V2000
   18.8796   -8.7593  -26.0405 O   0  0  0  0  0  0  0  0  0  0  0  0
   18.1301   -9.8102  -25.5734 C   0  0  0  0  0  0  0  0  0  0  0  0
   17.5764   -9.7592  -24.2946 C   0  0  0  0  0  0  0  0  0  0  0  0
   16.8294  -10.7974  -23.8167 C   0  0  0  0  0  0  0  0  0  0  0  0
   16.6026  -11.9160  -24.5789 C   0  0  0  0  0  0  0  0  0  0  0  0
   15.7837  -13.0149  -24.0005 C   0  0  0  0  0  0  0  0  0  0  0  0
   16.4903  -14.3546  -24.2489 C   0  0  2  0  0  0  0  0  0  0  0  0
   15.9005  -14.8480  -25.4874 N   0  0  0  0  0  0  0  0  0  0  0  0
   16.1302  -15.2077  -23.0853 C   0  0  0  0  0  0  0  0  0  0  0  0
   15.1430  -15.9322  -23.1074 O   0  0  0  0  0  0  0  0  0  0  0  0
   17.1305  -11.9911  -25.8280 C   0  0  0  0  0  0  0  0  0  0  0  0
   17.8901  -10.9332  -26.3098 C   0  0  0  0  0  0  0  0  0  0  0  0
   16.4480  -18.9299  -16.6819 N   0  0  0  0  0  0  0  0  0  0  0  0
   16.6361  -20.0402  -17.5893 C   0  0  0  0  0  0  0  0  0  0  0  0
   16.2575  -21.1665  -17.3636 N   0  0  0  0  0  0  0  0  0  0  0  0
   17.3210  -19.7541  -18.8245 N   0  0  0  0  0  0  0  0  0  0  0  0
   16.9359  -18.5524  -19.5337 C   0  0  0  0  0  0  0  0  0  0  0  0
   17.5019  -17.3225  -18.8805 C   0  0  0  0  0  0  0  0  0  0  0  0
   17.7375  -16.2636  -19.8811 C   0  0  0  0  0  0  0  0  0  0  0  0
   16.5305  -16.0521  -20.8081 C   0  0  2  0  0  0  0  0  0  0  0  0
   16.9436  -15.2054  -21.8929 N   0  0  0  0  0  0  0  0  0  0  0  0
   15.3825  -15.5327  -20.1036 C   0  0  0  0  0  0  0  0  0  0  0  0
   15.3388  -14.3453  -19.6144 O   0  0  0  0  0  0  0  0  0  0  0  0
   15.9287  -22.0312  -17.2524 N   0  0  0  0  0  0  0  0  0  0  0  0
   14.2237  -16.3187  -19.9139 C   0  0  2  0  0  0  0  0  0  0  0  0
   13.0171  -15.7574  -19.2905 C   0  0  0  0  0  0  0  0  0  0  0  0
   11.8425  -15.9220  -20.2174 C   0  0  0  0  0  0  0  0  0  0  0  0
   11.8310  -14.8834  -21.2524 C   0  0  0  0  0  0  0  0  0  0  0  0
   12.1055  -15.1705  -22.5743 C   0  0  0  0  0  0  0  0  0  0  0  0
   12.0408  -14.1624  -23.5435 C   0  0  0  0  0  0  0  0  0  0  0  0
   11.7083  -12.8647  -23.2352 C   0  0  0  0  0  0  0  0  0  0  0  0
   11.4340  -12.5588  -21.9139 C   0  0  0  0  0  0  0  0  0  0  0  0
   11.4995  -13.5558  -20.9753 C   0  0  0  0  0  0  0  0  0  0  0  0
   12.8347  -16.3032  -17.9428 O   0  0  0  0  0  0  0  0  0  0  0  0
   11.7817  -16.0138  -17.0989 O   0  0  0  0  0  0  0  0  0  0  0  0
  2  1  1  0
  3  2  2  0
  4  3  1  0
  5 11  1  0
  5  4  2  0
  6  5  1  0
  7  6  1  0
  7  8  1  6
  9  7  1  0
 10  9  2  0
 11 12  2  0
 12  2  1  0
 13 14  1  0
 14 16  1  0
 15 14  2  0
 16 17  1  0
 17 18  1  0
 18 19  1  0
 20 19  1  1
 20 22  1  0
 20 21  1  0
 21  9  1  0
 22 24  1  0
 23 22  2  0
 24 25  1  0
 25 26  1  6
 26 27  1  0
 27 28  2  0
 28 29  1  0
 30 29  2  0
 31 30  1  0
 32 27  1  0
 32 31  2  0
 33 34  1  0
 33 25  1  0
 35 33  2  0
M  END
$$$$
