YRF.pdb
     RDKit          3D

 35 36  0  0  1  0  0  0  0  0999 V2000
   26.3746  -16.4223  -21.2925 O   0  0  0  0  0  0  0  0  0  0  0  0
   25.6049  -17.1750  -20.4407 C   0  0  0  0  0  0  0  0  0  0  0  0
   24.6299  -16.5620  -19.6546 C   0  0  0  0  0  0  0  0  0  0  0  0
   23.8575  -17.2980  -18.8025 C   0  0  0  0  0  0  0  0  0  0  0  0
   24.0180  -18.6569  -18.6967 C   0  0  0  0  0  0  0  0  0  0  0  0
   23.1484  -19.4024  -17.7475 C   0  0  0  0  0  0  0  0  0  0  0  0
   23.9571  -19.7512  -16.4905 C   0  0  2  0  0  0  0  0  0  0  0  0
   24.9011  -20.7669  -16.9406 N   0  0  0  0  0  0  0  0  0  0  0  0
   22.9659  -20.3033  -15.5292 C   0  0  0  0  0  0  0  0  0  0  0  0
   22.6627  -21.4899  -15.5371 O   0  0  0  0  0  0  0  0  0  0  0  0
   24.9605  -19.2787  -19.4512 C   0  0  0  0  0  0  0  0  0  0  0  0
   25.7442  -18.5263  -20.3160 C   0  0  0  0  0  0  0  0  0  0  0  0
   21.0020  -21.3597   -8.2315 N   0  0  0  0  0  0  0  0  0  0  0  0
   22.4392  -21.2218   -8.3166 C   0  0  0  0  0  0  0  0  0  0  0  0
   23.1623  -21.0979   -7.3552 N   0  0  0  0  0  0  0  0  0  0  0  0
   23.0104  -21.2341   -9.6395 N   0  0  0  0  0  0  0  0  0  0  0  0
   22.1277  -20.9315  -10.7462 C   0  0  0  0  0  0  0  0  0  0  0  0
   22.4658  -19.6082  -11.3741 C   0  0  0  0  0  0  0  0  0  0  0  0
   21.4221  -19.2077  -12.3376 C   0  0  0  0  0  0  0  0  0  0  0  0
   21.4396  -20.0647  -13.6128 C   0  0  2  0  0  0  0  0  0  0  0  0
   22.3341  -19.4481  -14.5530 N   0  0  0  0  0  0  0  0  0  0  0  0
   20.1172  -20.2681  -14.1549 C   0  0  0  0  0  0  0  0  0  0  0  0
   19.4130  -19.3189  -14.6591 O   0  0  0  0  0  0  0  0  0  0  0  0
   23.6750  -21.0478   -6.5788 N   0  0  0  0  0  0  0  0  0  0  0  0
   19.5181  -21.5478  -14.1607 C   0  0  2  0  0  0  0  0  0  0  0  0
   18.1746  -21.7565  -14.7185 C   0  0  0  0  0  0  0  0  0  0  0  0
   18.2121  -22.8694  -15.7315 C   0  0  0  0  0  0  0  0  0  0  0  0
   18.9174  -22.4577  -16.9493 C   0  0  0  0  0  0  0  0  0  0  0  0
   20.2591  -22.7212  -17.1373 C   0  0  0  0  0  0  0  0  0  0  0  0
   20.8898  -22.3540  -18.3320 C   0  0  0  0  0  0  0  0  0  0  0  0
   20.2201  -21.7265  -19.3555 C   0  0  0  0  0  0  0  0  0  0  0  0
   18.8752  -21.4513  -19.1819 C   0  0  0  0  0  0  0  0  0  0  0  0
   18.2699  -21.8178  -18.0077 C   0  0  0  0  0  0  0  0  0  0  0  0
   17.1923  -21.9190  -13.6434 O   0  0  0  0  0  0  0  0  0  0  0  0
   17.4762  -21.9074  -12.2928 O   0  0  0  0  0  0  0  0  0  0  0  0
  2  1  1  0
  3  2  2  0
  4  3  1  0
  5 11  1  0
  5  4  2  0
  6  5  1  0
  7  6  1  0
  7  8  1  6
  9  7  1  0
 10  9  2  0
 11 12  2  0
 12  2  1  0
 13 14  1  0
 14 16  1  0
 15 14  2  0
 16 17  1  0
 17 18  1  0
 18 19  1  0
 20 19  1  1
 20 22  1  0
 20 21  1  0
 21  9  1  0
 22 24  1  0
 23 22  2  0
 24 25  1  0
 25 26  1  6
 26 27  1  0
 27 28  2  0
 28 29  1  0
 30 29  2  0
 31 30  1  0
 32 27  1  0
 32 31  2  0
 33 34  1  0
 33 25  1  0
 35 33  2  0
M  END
$$$$
