YRF.pdb
     RDKit          3D

 35 36  0  0  1  0  0  0  0  0999 V2000
   19.3060  -19.4186  -19.1807 O   0  0  0  0  0  0  0  0  0  0  0  0
   19.7721  -18.1768  -18.8269 C   0  0  0  0  0  0  0  0  0  0  0  0
   18.8798  -17.1193  -18.6540 C   0  0  0  0  0  0  0  0  0  0  0  0
   19.3292  -15.8786  -18.3029 C   0  0  0  0  0  0  0  0  0  0  0  0
   20.6667  -15.6386  -18.1105 C   0  0  0  0  0  0  0  0  0  0  0  0
   21.0940  -14.2647  -17.7328 C   0  0  0  0  0  0  0  0  0  0  0  0
   20.9474  -13.3391  -18.9483 C   0  0  2  0  0  0  0  0  0  0  0  0
   22.0244  -13.7466  -19.8425 N   0  0  0  0  0  0  0  0  0  0  0  0
   21.1560  -11.9648  -18.4201 C   0  0  0  0  0  0  0  0  0  0  0  0
   22.2780  -11.5394  -18.1754 O   0  0  0  0  0  0  0  0  0  0  0  0
   21.5569  -16.6514  -18.2726 C   0  0  0  0  0  0  0  0  0  0  0  0
   21.0956  -17.9113  -18.6302 C   0  0  0  0  0  0  0  0  0  0  0  0
   19.8846   -9.2256  -23.6656 N   0  0  0  0  0  0  0  0  0  0  0  0
   18.7449  -10.0715  -23.3874 C   0  0  0  0  0  0  0  0  0  0  0  0
   18.1557  -10.7072  -24.2309 N   0  0  0  0  0  0  0  0  0  0  0  0
   18.3100  -10.1359  -22.0151 N   0  0  0  0  0  0  0  0  0  0  0  0
   19.1370   -9.4785  -21.0255 C   0  0  0  0  0  0  0  0  0  0  0  0
   18.5526   -9.6073  -19.6464 C   0  0  0  0  0  0  0  0  0  0  0  0
   19.3456   -8.8342  -18.6711 C   0  0  0  0  0  0  0  0  0  0  0  0
   20.3164   -9.7168  -17.8716 C   0  0  2  0  0  0  0  0  0  0  0  0
   20.0322  -11.0901  -18.1843 N   0  0  0  0  0  0  0  0  0  0  0  0
   20.2628   -9.4467  -16.4545 C   0  0  0  0  0  0  0  0  0  0  0  0
   19.4776  -10.0711  -15.6515 O   0  0  0  0  0  0  0  0  0  0  0  0
   17.7375  -11.1580  -24.9310 N   0  0  0  0  0  0  0  0  0  0  0  0
   21.0892   -8.4635  -15.8656 C   0  0  2  0  0  0  0  0  0  0  0  0
   21.1203   -8.2682  -14.4093 C   0  0  0  0  0  0  0  0  0  0  0  0
   22.5308   -7.9883  -13.9641 C   0  0  0  0  0  0  0  0  0  0  0  0
   23.0303   -6.7332  -14.5346 C   0  0  0  0  0  0  0  0  0  0  0  0
   23.7349   -6.7029  -15.7211 C   0  0  0  0  0  0  0  0  0  0  0  0
   24.1573   -5.4819  -16.2600 C   0  0  0  0  0  0  0  0  0  0  0  0
   23.8979   -4.2782  -15.6488 C   0  0  0  0  0  0  0  0  0  0  0  0
   23.1960   -4.2908  -14.4564 C   0  0  0  0  0  0  0  0  0  0  0  0
   22.7870   -5.4934  -13.9408 C   0  0  0  0  0  0  0  0  0  0  0  0
   20.1246   -7.2725  -14.0038 O   0  0  0  0  0  0  0  0  0  0  0  0
   19.6770   -7.0689  -12.7143 O   0  0  0  0  0  0  0  0  0  0  0  0
  2  1  1  0
  3  2  2  0
  4  3  1  0
  5 11  1  0
  5  4  2  0
  6  5  1  0
  7  6  1  0
  7  8  1  6
  9  7  1  0
 10  9  2  0
 11 12  2  0
 12  2  1  0
 13 14  1  0
 14 16  1  0
 15 14  2  0
 16 17  1  0
 17 18  1  0
 18 19  1  0
 20 19  1  6
 20 22  1  0
 20 21  1  0
 21  9  1  0
 22 24  1  0
 23 22  2  0
 24 25  1  0
 25 26  1  6
 26 27  1  0
 27 28  2  0
 28 29  1  0
 30 29  2  0
 31 30  1  0
 32 27  1  0
 32 31  2  0
 33 34  1  0
 33 25  1  0
 35 33  2  0
M  END
$$$$
