YRF.pdb
     RDKit          3D

 35 36  0  0  1  0  0  0  0  0999 V2000
   30.4329  -14.3917  -18.2860 O   0  0  0  0  0  0  0  0  0  0  0  0
   29.6283  -15.0983  -17.4270 C   0  0  0  0  0  0  0  0  0  0  0  0
   28.5963  -14.4528  -16.7467 C   0  0  0  0  0  0  0  0  0  0  0  0
   27.7887  -15.1428  -15.8888 C   0  0  0  0  0  0  0  0  0  0  0  0
   27.9688  -16.4862  -15.6732 C   0  0  0  0  0  0  0  0  0  0  0  0
   27.0584  -17.1808  -14.7236 C   0  0  0  0  0  0  0  0  0  0  0  0
   26.1475  -18.1366  -15.5062 C   0  0  2  0  0  0  0  0  0  0  0  0
   25.1007  -17.2761  -16.0439 N   0  0  0  0  0  0  0  0  0  0  0  0
   25.6172  -19.0876  -14.4935 C   0  0  0  0  0  0  0  0  0  0  0  0
   24.7719  -18.7434  -13.6770 O   0  0  0  0  0  0  0  0  0  0  0  0
   28.9666  -17.1389  -16.3233 C   0  0  0  0  0  0  0  0  0  0  0  0
   29.7859  -16.4333  -17.1944 C   0  0  0  0  0  0  0  0  0  0  0  0
   23.7287  -26.3414  -14.1128 N   0  0  0  0  0  0  0  0  0  0  0  0
   22.7066  -25.9619  -13.1625 C   0  0  0  0  0  0  0  0  0  0  0  0
   22.0730  -26.7529  -12.5026 N   0  0  0  0  0  0  0  0  0  0  0  0
   22.4512  -24.5509  -13.0200 N   0  0  0  0  0  0  0  0  0  0  0  0
   23.3118  -23.6438  -13.7496 C   0  0  0  0  0  0  0  0  0  0  0  0
   24.7228  -23.6885  -13.2330 C   0  0  0  0  0  0  0  0  0  0  0  0
   25.5843  -22.7616  -13.9922 C   0  0  0  0  0  0  0  0  0  0  0  0
   25.5061  -21.3208  -13.4641 C   0  0  2  0  0  0  0  0  0  0  0  0
   26.0871  -20.4517  -14.4498 N   0  0  0  0  0  0  0  0  0  0  0  0
   26.1211  -21.1785  -12.1658 C   0  0  0  0  0  0  0  0  0  0  0  0
   27.3564  -21.4526  -11.9419 O   0  0  0  0  0  0  0  0  0  0  0  0
   21.6256  -27.3429  -11.9370 N   0  0  0  0  0  0  0  0  0  0  0  0
   25.3818  -20.7194  -11.0527 C   0  0  1  0  0  0  0  0  0  0  0  0
   25.9182  -20.8214   -9.6883 C   0  0  0  0  0  0  0  0  0  0  0  0
   27.0213  -19.8148   -9.4992 C   0  0  0  0  0  0  0  0  0  0  0  0
   27.5124  -19.8160   -8.1175 C   0  0  0  0  0  0  0  0  0  0  0  0
   27.0888  -18.8817   -7.1940 C   0  0  0  0  0  0  0  0  0  0  0  0
   27.5438  -18.9404   -5.8713 C   0  0  0  0  0  0  0  0  0  0  0  0
   28.4158  -19.9093   -5.4348 C   0  0  0  0  0  0  0  0  0  0  0  0
   28.8535  -20.8514   -6.3488 C   0  0  0  0  0  0  0  0  0  0  0  0
   28.3989  -20.7832   -7.6404 C   0  0  0  0  0  0  0  0  0  0  0  0
   24.8340  -20.7569   -8.7046 O   0  0  0  0  0  0  0  0  0  0  0  0
   23.6840  -20.0044   -8.8308 O   0  0  0  0  0  0  0  0  0  0  0  0
  2  1  1  0
  3  2  2  0
  4  3  1  0
  5 11  1  0
  5  4  2  0
  6  5  1  0
  7  6  1  0
  7  8  1  1
  9  7  1  0
 10  9  2  0
 11 12  2  0
 12  2  1  0
 13 14  1  0
 14 16  1  0
 15 14  2  0
 16 17  1  0
 17 18  1  0
 18 19  1  0
 20 19  1  6
 20 22  1  0
 20 21  1  0
 21  9  1  0
 22 24  1  0
 23 22  2  0
 24 25  1  0
 25 26  1  1
 26 27  1  0
 27 28  2  0
 28 29  1  0
 30 29  2  0
 31 30  1  0
 32 27  1  0
 32 31  2  0
 33 34  1  0
 33 25  1  0
 35 33  2  0
M  END
$$$$
