YRF.pdb
     RDKit          3D

 35 36  0  0  1  0  0  0  0  0999 V2000
   30.9041  -15.4570  -18.6679 O   0  0  0  0  0  0  0  0  0  0  0  0
   30.0524  -15.8622  -17.6703 C   0  0  0  0  0  0  0  0  0  0  0  0
   30.0440  -17.1940  -17.2576 C   0  0  0  0  0  0  0  0  0  0  0  0
   29.2018  -17.6114  -16.2671 C   0  0  0  0  0  0  0  0  0  0  0  0
   28.3435  -16.7348  -15.6519 C   0  0  0  0  0  0  0  0  0  0  0  0
   27.4479  -17.2513  -14.5823 C   0  0  0  0  0  0  0  0  0  0  0  0
   26.4080  -18.1922  -15.2063 C   0  0  2  0  0  0  0  0  0  0  0  0
   25.5043  -17.3028  -15.9260 N   0  0  0  0  0  0  0  0  0  0  0  0
   25.7364  -18.8509  -14.0546 C   0  0  0  0  0  0  0  0  0  0  0  0
   24.9209  -18.2520  -13.3646 O   0  0  0  0  0  0  0  0  0  0  0  0
   28.3317  -15.4319  -16.0351 C   0  0  0  0  0  0  0  0  0  0  0  0
   29.1894  -15.0120  -17.0431 C   0  0  0  0  0  0  0  0  0  0  0  0
   24.2899  -26.5507  -13.4320 N   0  0  0  0  0  0  0  0  0  0  0  0
   24.2408  -25.5923  -14.5140 C   0  0  0  0  0  0  0  0  0  0  0  0
   24.6336  -25.8207  -15.6348 N   0  0  0  0  0  0  0  0  0  0  0  0
   23.6883  -24.2981  -14.2038 N   0  0  0  0  0  0  0  0  0  0  0  0
   23.2176  -24.0843  -12.8517 C   0  0  0  0  0  0  0  0  0  0  0  0
   23.7325  -22.7893  -12.2879 C   0  0  0  0  0  0  0  0  0  0  0  0
   24.6940  -22.1636  -13.2162 C   0  0  0  0  0  0  0  0  0  0  0  0
   25.2475  -20.8340  -12.6808 C   0  0  2  0  0  0  0  0  0  0  0  0
   26.0291  -20.2244  -13.7210 N   0  0  0  0  0  0  0  0  0  0  0  0
   25.9899  -21.0032  -11.4544 C   0  0  0  0  0  0  0  0  0  0  0  0
   27.2370  -21.3118  -11.4271 O   0  0  0  0  0  0  0  0  0  0  0  0
   24.9402  -25.9247  -16.5086 N   0  0  0  0  0  0  0  0  0  0  0  0
   25.3711  -20.8328  -10.1955 C   0  0  1  0  0  0  0  0  0  0  0  0
   26.1315  -20.9842   -8.9471 C   0  0  0  0  0  0  0  0  0  0  0  0
   27.1258  -19.8614   -8.8181 C   0  0  0  0  0  0  0  0  0  0  0  0
   27.7200  -19.8273   -7.4780 C   0  0  0  0  0  0  0  0  0  0  0  0
   27.1758  -19.0708   -6.4598 C   0  0  0  0  0  0  0  0  0  0  0  0
   27.7429  -19.0976   -5.1802 C   0  0  0  0  0  0  0  0  0  0  0  0
   28.8456  -19.8613   -4.8793 C   0  0  0  0  0  0  0  0  0  0  0  0
   29.4062  -20.6227   -5.8895 C   0  0  0  0  0  0  0  0  0  0  0  0
   28.8398  -20.5883   -7.1375 C   0  0  0  0  0  0  0  0  0  0  0  0
   25.2225  -21.1516   -7.8099 O   0  0  0  0  0  0  0  0  0  0  0  0
   25.5622  -21.6972   -6.5886 O   0  0  0  0  0  0  0  0  0  0  0  0
  2  1  1  0
  3  2  2  0
  4  3  1  0
  5 11  1  0
  5  4  2  0
  6  5  1  0
  7  6  1  0
  7  8  1  1
  9  7  1  0
 10  9  2  0
 11 12  2  0
 12  2  1  0
 13 14  1  0
 14 16  1  0
 15 14  2  0
 16 17  1  0
 17 18  1  0
 18 19  1  0
 20 19  1  6
 20 22  1  0
 20 21  1  0
 21  9  1  0
 22 24  1  0
 23 22  2  0
 24 25  1  0
 25 26  1  1
 26 27  1  0
 27 28  2  0
 28 29  1  0
 30 29  2  0
 31 30  1  0
 32 27  1  0
 32 31  2  0
 33 34  1  0
 33 25  1  0
 35 33  2  0
M  END
$$$$
