YRF.pdb
     RDKit          3D

 35 36  0  0  1  0  0  0  0  0999 V2000
   21.5776  -12.1242  -20.0532 O   0  0  0  0  0  0  0  0  0  0  0  0
   21.5886  -13.4879  -19.8960 C   0  0  0  0  0  0  0  0  0  0  0  0
   22.5317  -14.0871  -19.0617 C   0  0  0  0  0  0  0  0  0  0  0  0
   22.5549  -15.4422  -18.8963 C   0  0  0  0  0  0  0  0  0  0  0  0
   21.6536  -16.2498  -19.5437 C   0  0  0  0  0  0  0  0  0  0  0  0
   21.7328  -17.7191  -19.3255 C   0  0  0  0  0  0  0  0  0  0  0  0
   22.8070  -18.3088  -20.2497 C   0  0  2  0  0  0  0  0  0  0  0  0
   22.2201  -18.2264  -21.5817 N   0  0  0  0  0  0  0  0  0  0  0  0
   22.9747  -19.7177  -19.8043 C   0  0  0  0  0  0  0  0  0  0  0  0
   22.1649  -20.5838  -20.1109 O   0  0  0  0  0  0  0  0  0  0  0  0
   20.7246  -15.6916  -20.3621 C   0  0  0  0  0  0  0  0  0  0  0  0
   20.7049  -14.3131  -20.5278 C   0  0  0  0  0  0  0  0  0  0  0  0
   28.1249  -25.8681  -16.3957 N   0  0  0  0  0  0  0  0  0  0  0  0
   28.0795  -25.6562  -17.8257 C   0  0  0  0  0  0  0  0  0  0  0  0
   28.2310  -26.5354  -18.6423 N   0  0  0  0  0  0  0  0  0  0  0  0
   27.8408  -24.3063  -18.2698 N   0  0  0  0  0  0  0  0  0  0  0  0
   27.2658  -23.3849  -17.3128 C   0  0  0  0  0  0  0  0  0  0  0  0
   25.8166  -23.1168  -17.6090 C   0  0  0  0  0  0  0  0  0  0  0  0
   25.6355  -21.7445  -18.1209 C   0  0  0  0  0  0  0  0  0  0  0  0
   24.1998  -21.4811  -18.6007 C   0  0  2  0  0  0  0  0  0  0  0  0
   24.1069  -20.1029  -18.9961 N   0  0  0  0  0  0  0  0  0  0  0  0
   23.2152  -21.8424  -17.6088 C   0  0  0  0  0  0  0  0  0  0  0  0
   23.1168  -21.2521  -16.4717 O   0  0  0  0  0  0  0  0  0  0  0  0
   28.3796  -27.1633  -19.3144 N   0  0  0  0  0  0  0  0  0  0  0  0
   22.2889  -22.8834  -17.8430 C   0  0  2  0  0  0  0  0  0  0  0  0
   21.3207  -23.2866  -16.8136 C   0  0  0  0  0  0  0  0  0  0  0  0
   19.9265  -22.9412  -17.2640 C   0  0  0  0  0  0  0  0  0  0  0  0
   18.9219  -23.4503  -16.3251 C   0  0  0  0  0  0  0  0  0  0  0  0
   18.4069  -22.6646  -15.3138 C   0  0  0  0  0  0  0  0  0  0  0  0
   17.4155  -23.1688  -14.4637 C   0  0  0  0  0  0  0  0  0  0  0  0
   16.9158  -24.4432  -14.5898 C   0  0  0  0  0  0  0  0  0  0  0  0
   17.4239  -25.2457  -15.5959 C   0  0  0  0  0  0  0  0  0  0  0  0
   18.3933  -24.7388  -16.4222 C   0  0  0  0  0  0  0  0  0  0  0  0
   21.5290  -24.6864  -16.4335 O   0  0  0  0  0  0  0  0  0  0  0  0
   21.9618  -25.6882  -17.2783 O   0  0  0  0  0  0  0  0  0  0  0  0
  2  1  1  0
  3  2  2  0
  4  3  1  0
  5 11  1  0
  5  4  2  0
  6  5  1  0
  7  6  1  0
  7  8  1  6
  9  7  1  0
 10  9  2  0
 11 12  2  0
 12  2  1  0
 13 14  1  0
 14 16  1  0
 15 14  2  0
 16 17  1  0
 17 18  1  0
 18 19  1  0
 20 19  1  1
 20 22  1  0
 20 21  1  0
 21  9  1  0
 22 24  1  0
 23 22  2  0
 24 25  1  0
 25 26  1  6
 26 27  1  0
 27 28  2  0
 28 29  1  0
 30 29  2  0
 31 30  1  0
 32 27  1  0
 32 31  2  0
 33 34  1  0
 33 25  1  0
 35 33  2  0
M  END
$$$$
