YRF.pdb
     RDKit          3D

 35 36  0  0  1  0  0  0  0  0999 V2000
   31.0961  -17.4076  -18.9970 O   0  0  0  0  0  0  0  0  0  0  0  0
   30.3208  -17.5550  -17.8737 C   0  0  0  0  0  0  0  0  0  0  0  0
   30.2746  -18.7821  -17.2132 C   0  0  0  0  0  0  0  0  0  0  0  0
   29.5074  -18.9435  -16.0953 C   0  0  0  0  0  0  0  0  0  0  0  0
   28.7632  -17.9059  -15.5918 C   0  0  0  0  0  0  0  0  0  0  0  0
   27.9446  -18.1457  -14.3731 C   0  0  0  0  0  0  0  0  0  0  0  0
   26.8336  -19.1522  -14.7021 C   0  0  2  0  0  0  0  0  0  0  0  0
   26.0083  -18.4668  -15.6894 N   0  0  0  0  0  0  0  0  0  0  0  0
   26.1062  -19.3631  -13.4224 C   0  0  0  0  0  0  0  0  0  0  0  0
   25.5294  -18.4421  -12.8577 O   0  0  0  0  0  0  0  0  0  0  0  0
   28.7904  -16.7002  -16.2162 C   0  0  0  0  0  0  0  0  0  0  0  0
   29.5716  -16.5407  -17.3531 C   0  0  0  0  0  0  0  0  0  0  0  0
   20.7494  -22.9385  -13.3504 N   0  0  0  0  0  0  0  0  0  0  0  0
   20.3188  -21.6604  -12.8281 C   0  0  0  0  0  0  0  0  0  0  0  0
   19.2321  -21.1757  -13.0443 N   0  0  0  0  0  0  0  0  0  0  0  0
   21.2653  -20.9475  -12.0081 N   0  0  0  0  0  0  0  0  0  0  0  0
   22.5045  -20.5341  -12.6319 C   0  0  0  0  0  0  0  0  0  0  0  0
   23.4149  -21.7050  -12.8768 C   0  0  0  0  0  0  0  0  0  0  0  0
   24.3104  -21.9179  -11.7234 C   0  0  0  0  0  0  0  0  0  0  0  0
   25.3472  -20.7943  -11.5692 C   0  0  2  0  0  0  0  0  0  0  0  0
   26.0589  -20.6699  -12.8111 N   0  0  0  0  0  0  0  0  0  0  0  0
   26.2257  -21.0096  -10.4441 C   0  0  0  0  0  0  0  0  0  0  0  0
   27.0149  -22.0198  -10.3546 O   0  0  0  0  0  0  0  0  0  0  0  0
   18.4096  -20.8080  -13.2820 N   0  0  0  0  0  0  0  0  0  0  0  0
   26.2652  -20.1011   -9.3627 C   0  0  2  0  0  0  0  0  0  0  0  0
   26.9183  -20.4552   -8.0946 C   0  0  0  0  0  0  0  0  0  0  0  0
   27.7536  -19.2993   -7.6130 C   0  0  0  0  0  0  0  0  0  0  0  0
   28.3197  -19.5671   -6.2871 C   0  0  0  0  0  0  0  0  0  0  0  0
   29.4101  -20.3957   -6.1154 C   0  0  0  0  0  0  0  0  0  0  0  0
   29.9527  -20.5929   -4.8400 C   0  0  0  0  0  0  0  0  0  0  0  0
   29.4388  -19.9853   -3.7192 C   0  0  0  0  0  0  0  0  0  0  0  0
   28.3430  -19.1544   -3.8729 C   0  0  0  0  0  0  0  0  0  0  0  0
   27.8227  -18.9690   -5.1276 C   0  0  0  0  0  0  0  0  0  0  0  0
   25.9338  -20.9614   -7.1345 O   0  0  0  0  0  0  0  0  0  0  0  0
   24.5645  -20.8357   -7.2521 O   0  0  0  0  0  0  0  0  0  0  0  0
  2  1  1  0
  3  2  2  0
  4  3  1  0
  5 11  1  0
  5  4  2  0
  6  5  1  0
  7  6  1  0
  7  8  1  6
  9  7  1  0
 10  9  2  0
 11 12  2  0
 12  2  1  0
 13 14  1  0
 14 16  1  0
 15 14  2  0
 16 17  1  0
 17 18  1  0
 18 19  1  0
 20 19  1  6
 20 22  1  0
 20 21  1  0
 21  9  1  0
 22 24  1  0
 23 22  2  0
 24 25  1  0
 25 26  1  6
 26 27  1  0
 27 28  2  0
 28 29  1  0
 30 29  2  0
 31 30  1  0
 32 27  1  0
 32 31  2  0
 33 34  1  0
 33 25  1  0
 35 33  2  0
M  END
$$$$
