KSY.pdb
     RDKit          3D

 28 28  0  0  1  0  0  0  0  0999 V2000
   23.3370  -11.8227  -21.7122 N   0  0  0  0  0  0  0  0  0  0  0  0
   22.9427  -11.4480  -20.3889 C   0  0  1  0  0  0  0  0  0  0  0  0
   23.5658  -12.2850  -19.3242 C   0  0  0  0  0  0  0  0  0  0  0  0
   22.9320  -13.6157  -19.1213 C   0  0  0  0  0  0  0  0  0  0  0  0
   23.7605  -14.7966  -19.4880 C   0  0  0  0  0  0  0  0  0  0  0  0
   23.0271  -16.1105  -19.2985 C   0  0  0  0  0  0  0  0  0  0  0  0
   23.8969  -17.2338  -19.5749 N   0  0  0  0  0  0  0  0  0  0  0  0
   23.0984   -9.9884  -20.1374 C   0  0  0  0  0  0  0  0  0  0  0  0
   24.1607   -9.3762  -20.4407 O   0  0  0  0  0  0  0  0  0  0  0  0
   19.8569   -7.6015  -19.7374 O   0  0  0  0  0  0  0  0  0  0  0  0
   21.0673   -7.0559  -20.1182 C   0  0  0  0  0  0  0  0  0  0  0  0
   22.1762   -7.7540  -19.3683 C   0  0  2  0  0  0  0  0  0  0  0  0
   22.0735   -9.2022  -19.5472 N   0  0  0  0  0  0  0  0  0  0  0  0
   22.1581   -7.3788  -17.9552 C   0  0  0  0  0  0  0  0  0  0  0  0
   21.4051   -7.9980  -17.1208 O   0  0  0  0  0  0  0  0  0  0  0  0
   26.8188  -11.1100  -16.4333 O   0  0  0  0  0  0  0  0  0  0  0  0
   26.2131   -9.8826  -16.1977 C   0  0  0  0  0  0  0  0  0  0  0  0
   25.2294   -9.7532  -15.2341 C   0  0  0  0  0  0  0  0  0  0  0  0
   24.6336   -8.5332  -15.0063 C   0  0  0  0  0  0  0  0  0  0  0  0
   24.9704   -7.3946  -15.7055 C   0  0  0  0  0  0  0  0  0  0  0  0
   24.3632   -6.0648  -15.5124 C   0  0  0  0  0  0  0  0  0  0  0  0
   22.9342   -6.0820  -15.9402 C   0  0  2  0  0  0  0  0  0  0  0  0
   22.9347   -6.3447  -17.3933 N   0  0  0  0  0  0  0  0  0  0  0  0
   22.3066   -4.7777  -15.6581 C   0  0  0  0  0  0  0  0  0  0  0  0
   22.0794   -4.2914  -14.3892 O   0  0  0  0  0  0  0  0  0  0  0  0
   25.9612   -7.5459  -16.6695 C   0  0  0  0  0  0  0  0  0  0  0  0
   26.5638   -8.7575  -16.9066 C   0  0  0  0  0  0  0  0  0  0  0  0
   21.9513   -4.0588  -16.6260 O   0  0  0  0  0  0  0  0  0  0  0  0
  2  1  1  6
  3  2  1  0
  3  4  1  0
  4  5  1  0
  5  6  1  0
  7  6  1  0
  8  9  2  0
  8  2  1  0
 10 11  1  0
 12 11  1  6
 12 14  1  0
 12 13  1  0
 13  8  1  0
 14 23  1  0
 15 14  2  0
 16 17  1  0
 17 18  2  0
 17 27  1  0
 18 19  1  0
 19 20  2  0
 20 21  1  0
 22 21  1  6
 22 24  1  0
 23 22  1  0
 24 28  2  0
 24 25  1  0
 26 20  1  0
 27 26  2  0
M  END
$$$$
