KSY.pdb
     RDKit          3D

 28 28  0  0  1  0  0  0  0  0999 V2000
   28.4552  -21.5387  -16.1096 N   0  0  0  0  0  0  0  0  0  0  0  0
   27.8043  -20.5740  -15.2774 C   0  0  1  0  0  0  0  0  0  0  0  0
   27.4396  -19.3197  -15.9958 C   0  0  0  0  0  0  0  0  0  0  0  0
   28.4175  -18.8809  -17.0277 C   0  0  0  0  0  0  0  0  0  0  0  0
   28.2020  -17.5223  -17.5962 C   0  0  0  0  0  0  0  0  0  0  0  0
   29.1526  -17.2041  -18.7342 C   0  0  0  0  0  0  0  0  0  0  0  0
   28.9243  -15.8680  -19.2417 N   0  0  0  0  0  0  0  0  0  0  0  0
   26.6629  -21.1529  -14.5159 C   0  0  0  0  0  0  0  0  0  0  0  0
   25.8921  -22.0100  -15.0323 O   0  0  0  0  0  0  0  0  0  0  0  0
   25.8426  -19.9322  -10.6186 O   0  0  0  0  0  0  0  0  0  0  0  0
   25.5068  -21.2323  -10.9419 C   0  0  0  0  0  0  0  0  0  0  0  0
   25.2358  -21.3131  -12.4250 C   0  0  2  0  0  0  0  0  0  0  0  0
   26.3727  -20.7816  -13.1762 N   0  0  0  0  0  0  0  0  0  0  0  0
   23.9921  -20.6208  -12.7598 C   0  0  0  0  0  0  0  0  0  0  0  0
   23.9504  -19.3399  -12.8246 O   0  0  0  0  0  0  0  0  0  0  0  0
   23.6161  -16.4810  -17.6852 O   0  0  0  0  0  0  0  0  0  0  0  0
   23.0248  -17.4925  -16.9394 C   0  0  0  0  0  0  0  0  0  0  0  0
   23.7772  -18.5494  -16.4599 C   0  0  0  0  0  0  0  0  0  0  0  0
   23.1839  -19.5483  -15.7213 C   0  0  0  0  0  0  0  0  0  0  0  0
   21.8391  -19.5581  -15.4214 C   0  0  0  0  0  0  0  0  0  0  0  0
   21.1467  -20.6020  -14.6434 C   0  0  0  0  0  0  0  0  0  0  0  0
   21.5152  -20.5017  -13.2013 C   0  0  2  0  0  0  0  0  0  0  0  0
   22.7684  -21.2649  -13.0348 N   0  0  0  0  0  0  0  0  0  0  0  0
   20.4488  -21.0839  -12.3656 C   0  0  0  0  0  0  0  0  0  0  0  0
   20.5512  -22.2985  -11.7233 O   0  0  0  0  0  0  0  0  0  0  0  0
   21.1005  -18.4869  -15.9124 C   0  0  0  0  0  0  0  0  0  0  0  0
   21.6802  -17.4836  -16.6505 C   0  0  0  0  0  0  0  0  0  0  0  0
   19.3764  -20.4433  -12.2257 O   0  0  0  0  0  0  0  0  0  0  0  0
  2  1  1  6
  3  2  1  0
  3  4  1  0
  4  5  1  0
  5  6  1  0
  7  6  1  0
  8  9  2  0
  8  2  1  0
 10 11  1  0
 12 11  1  1
 12 14  1  0
 12 13  1  0
 13  8  1  0
 14 23  1  0
 15 14  2  0
 16 17  1  0
 17 18  2  0
 17 27  1  0
 18 19  1  0
 19 20  2  0
 20 21  1  0
 22 21  1  6
 22 24  1  0
 23 22  1  0
 24 28  2  0
 24 25  1  0
 26 20  1  0
 27 26  2  0
M  END
$$$$
