KSY.pdb
     RDKit          3D

 28 28  0  0  1  0  0  0  0  0999 V2000
   23.3544  -13.0680  -16.5926 N   0  0  0  0  0  0  0  0  0  0  0  0
   23.5627  -11.8103  -15.9432 C   0  0  1  0  0  0  0  0  0  0  0  0
   24.9380  -11.2661  -16.1301 C   0  0  0  0  0  0  0  0  0  0  0  0
   26.0294  -12.1202  -15.5889 C   0  0  0  0  0  0  0  0  0  0  0  0
   26.6353  -13.0886  -16.5431 C   0  0  0  0  0  0  0  0  0  0  0  0
   27.8936  -13.7386  -16.0008 C   0  0  0  0  0  0  0  0  0  0  0  0
   28.5123  -14.5833  -17.0000 N   0  0  0  0  0  0  0  0  0  0  0  0
   22.5022  -10.8164  -16.2677 C   0  0  0  0  0  0  0  0  0  0  0  0
   22.0678  -10.6758  -17.4453 O   0  0  0  0  0  0  0  0  0  0  0  0
   20.8973   -8.4017  -13.3076 O   0  0  0  0  0  0  0  0  0  0  0  0
   20.0082   -8.8574  -14.2614 C   0  0  0  0  0  0  0  0  0  0  0  0
   20.7596   -9.1211  -15.5441 C   0  0  2  0  0  0  0  0  0  0  0  0
   21.9193   -9.9738  -15.2843 N   0  0  0  0  0  0  0  0  0  0  0  0
   21.1426   -7.8636  -16.1846 C   0  0  0  0  0  0  0  0  0  0  0  0
   22.2493   -7.2857  -15.8876 O   0  0  0  0  0  0  0  0  0  0  0  0
   21.2639   -0.7286  -21.4283 O   0  0  0  0  0  0  0  0  0  0  0  0
   20.9303   -1.9192  -20.7957 C   0  0  0  0  0  0  0  0  0  0  0  0
   21.7341   -3.0373  -20.9242 C   0  0  0  0  0  0  0  0  0  0  0  0
   21.3969   -4.2140  -20.2941 C   0  0  0  0  0  0  0  0  0  0  0  0
   20.2672   -4.3484  -19.5166 C   0  0  0  0  0  0  0  0  0  0  0  0
   19.8502   -5.5822  -18.8250 C   0  0  0  0  0  0  0  0  0  0  0  0
   20.7825   -5.8846  -17.7003 C   0  0  2  0  0  0  0  0  0  0  0  0
   20.3679   -7.1915  -17.1520 N   0  0  0  0  0  0  0  0  0  0  0  0
   20.6790   -4.8408  -16.6638 C   0  0  0  0  0  0  0  0  0  0  0  0
   19.8774   -4.9413  -15.5477 O   0  0  0  0  0  0  0  0  0  0  0  0
   19.4727   -3.2130  -19.4000 C   0  0  0  0  0  0  0  0  0  0  0  0
   19.7980   -2.0328  -20.0235 C   0  0  0  0  0  0  0  0  0  0  0  0
   21.3568   -3.7907  -16.7973 O   0  0  0  0  0  0  0  0  0  0  0  0
  2  1  1  6
  3  2  1  0
  3  4  1  0
  4  5  1  0
  5  6  1  0
  7  6  1  0
  8  9  2  0
  8  2  1  0
 10 11  1  0
 12 11  1  1
 12 14  1  0
 12 13  1  0
 13  8  1  0
 14 23  1  0
 15 14  2  0
 16 17  1  0
 17 18  2  0
 17 27  1  0
 18 19  1  0
 19 20  2  0
 20 21  1  0
 22 21  1  6
 22 24  1  0
 23 22  1  0
 24 28  2  0
 24 25  1  0
 26 20  1  0
 27 26  2  0
M  END
$$$$
