KSY.pdb
     RDKit          3D

 28 28  0  0  1  0  0  0  0  0999 V2000
   28.2890  -22.5491  -16.8221 N   0  0  0  0  0  0  0  0  0  0  0  0
   28.4587  -21.1334  -16.7034 C   0  0  1  0  0  0  0  0  0  0  0  0
   28.7305  -20.4569  -18.0037 C   0  0  0  0  0  0  0  0  0  0  0  0
   29.2012  -21.3556  -19.0920 C   0  0  0  0  0  0  0  0  0  0  0  0
   28.7356  -22.7675  -19.0205 C   0  0  0  0  0  0  0  0  0  0  0  0
   29.2306  -23.6090  -20.1810 C   0  0  0  0  0  0  0  0  0  0  0  0
   28.8947  -25.0038  -19.9901 N   0  0  0  0  0  0  0  0  0  0  0  0
   27.3561  -20.4873  -15.9388 C   0  0  0  0  0  0  0  0  0  0  0  0
   27.2550  -19.2307  -15.8612 O   0  0  0  0  0  0  0  0  0  0  0  0
   23.8688  -22.1823  -15.5229 O   0  0  0  0  0  0  0  0  0  0  0  0
   23.9542  -20.8542  -15.1533 C   0  0  0  0  0  0  0  0  0  0  0  0
   25.2849  -20.6184  -14.4802 C   0  0  2  0  0  0  0  0  0  0  0  0
   26.3602  -21.2354  -15.2565 N   0  0  0  0  0  0  0  0  0  0  0  0
   25.2595  -21.1082  -13.1027 C   0  0  0  0  0  0  0  0  0  0  0  0
   25.2107  -22.3662  -12.8538 O   0  0  0  0  0  0  0  0  0  0  0  0
   30.0972  -20.3065   -6.8844 O   0  0  0  0  0  0  0  0  0  0  0  0
   28.8966  -20.1672   -7.5687 C   0  0  0  0  0  0  0  0  0  0  0  0
   28.5833  -21.0045   -8.6241 C   0  0  0  0  0  0  0  0  0  0  0  0
   27.3913  -20.8602   -9.2976 C   0  0  0  0  0  0  0  0  0  0  0  0
   26.4603  -19.8981   -8.9717 C   0  0  0  0  0  0  0  0  0  0  0  0
   25.1727  -19.6902   -9.6597 C   0  0  0  0  0  0  0  0  0  0  0  0
   24.9186  -20.7975  -10.6266 C   0  0  2  0  0  0  0  0  0  0  0  0
   25.2868  -20.2820  -11.9605 N   0  0  0  0  0  0  0  0  0  0  0  0
   23.4929  -21.1734  -10.6010 C   0  0  0  0  0  0  0  0  0  0  0  0
   22.5817  -20.8022  -11.5655 O   0  0  0  0  0  0  0  0  0  0  0  0
   26.7942  -19.0669   -7.9080 C   0  0  0  0  0  0  0  0  0  0  0  0
   27.9801  -19.2003   -7.2275 C   0  0  0  0  0  0  0  0  0  0  0  0
   23.0719  -21.8726   -9.6450 O   0  0  0  0  0  0  0  0  0  0  0  0
  2  1  1  6
  3  2  1  0
  3  4  1  0
  4  5  1  0
  5  6  1  0
  7  6  1  0
  8  9  2  0
  8  2  1  0
 10 11  1  0
 12 11  1  6
 12 14  1  0
 12 13  1  0
 13  8  1  0
 14 23  1  0
 15 14  2  0
 16 17  1  0
 17 18  2  0
 17 27  1  0
 18 19  1  0
 19 20  2  0
 20 21  1  0
 22 21  1  1
 22 24  1  0
 23 22  1  0
 24 28  2  0
 24 25  1  0
 26 20  1  0
 27 26  2  0
M  END
$$$$
