KSY.pdb
     RDKit          3D

 28 28  0  0  1  0  0  0  0  0999 V2000
   22.7783  -21.1441  -17.0688 N   0  0  0  0  0  0  0  0  0  0  0  0
   23.8161  -20.2075  -16.7645 C   0  0  1  0  0  0  0  0  0  0  0  0
   23.9306  -19.1038  -17.7601 C   0  0  0  0  0  0  0  0  0  0  0  0
   22.9184  -19.1348  -18.8501 C   0  0  0  0  0  0  0  0  0  0  0  0
   21.5485  -19.5646  -18.4573 C   0  0  0  0  0  0  0  0  0  0  0  0
   20.5659  -19.5223  -19.6118 C   0  0  0  0  0  0  0  0  0  0  0  0
   19.2389  -19.9027  -19.1770 N   0  0  0  0  0  0  0  0  0  0  0  0
   23.7456  -19.7114  -15.3620 C   0  0  0  0  0  0  0  0  0  0  0  0
   23.9484  -18.4969  -15.0807 O   0  0  0  0  0  0  0  0  0  0  0  0
   21.8762  -21.9477  -12.4695 O   0  0  0  0  0  0  0  0  0  0  0  0
   21.9058  -20.5699  -12.3777 C   0  0  0  0  0  0  0  0  0  0  0  0
   23.2304  -20.0728  -12.9047 C   0  0  2  0  0  0  0  0  0  0  0  0
   23.4493  -20.5635  -14.2652 N   0  0  0  0  0  0  0  0  0  0  0  0
   24.3189  -20.4571  -12.0071 C   0  0  0  0  0  0  0  0  0  0  0  0
   25.0235  -21.5040  -12.2399 O   0  0  0  0  0  0  0  0  0  0  0  0
   30.1380  -20.6472   -5.3473 O   0  0  0  0  0  0  0  0  0  0  0  0
   29.2568  -20.2823   -6.3569 C   0  0  0  0  0  0  0  0  0  0  0  0
   29.4755  -20.6791   -7.6637 C   0  0  0  0  0  0  0  0  0  0  0  0
   28.5975  -20.3135   -8.6591 C   0  0  0  0  0  0  0  0  0  0  0  0
   27.4756  -19.5493   -8.4226 C   0  0  0  0  0  0  0  0  0  0  0  0
   26.5050  -19.1203   -9.4465 C   0  0  0  0  0  0  0  0  0  0  0  0
   25.6817  -20.2802   -9.8963 C   0  0  2  0  0  0  0  0  0  0  0  0
   24.6873  -19.7446  -10.8475 N   0  0  0  0  0  0  0  0  0  0  0  0
   25.0023  -20.8958   -8.7413 C   0  0  0  0  0  0  0  0  0  0  0  0
   23.7813  -20.4812   -8.2560 O   0  0  0  0  0  0  0  0  0  0  0  0
   27.2737  -19.1609   -7.1026 C   0  0  0  0  0  0  0  0  0  0  0  0
   28.1420  -19.5191   -6.1000 C   0  0  0  0  0  0  0  0  0  0  0  0
   25.5628  -21.8560   -8.1549 O   0  0  0  0  0  0  0  0  0  0  0  0
  2  1  1  6
  3  2  1  0
  3  4  1  0
  4  5  1  0
  5  6  1  0
  7  6  1  0
  8  9  2  0
  8  2  1  0
 10 11  1  0
 12 11  1  1
 12 14  1  0
 12 13  1  0
 13  8  1  0
 14 23  1  0
 15 14  2  0
 16 17  1  0
 17 18  2  0
 17 27  1  0
 18 19  1  0
 19 20  2  0
 20 21  1  0
 22 21  1  1
 22 24  1  0
 23 22  1  0
 24 28  2  0
 24 25  1  0
 26 20  1  0
 27 26  2  0
M  END
$$$$
