KSY.pdb
     RDKit          3D

 28 28  0  0  1  0  0  0  0  0999 V2000
   21.6673  -11.2613  -21.0985 N   0  0  0  0  0  0  0  0  0  0  0  0
   22.4386  -11.0764  -19.9077 C   0  0  1  0  0  0  0  0  0  0  0  0
   23.6989  -11.8724  -19.8870 C   0  0  0  0  0  0  0  0  0  0  0  0
   23.6073  -13.1735  -19.1710 C   0  0  0  0  0  0  0  0  0  0  0  0
   22.6527  -14.1651  -19.7376 C   0  0  0  0  0  0  0  0  0  0  0  0
   22.7345  -15.5164  -19.0540 C   0  0  0  0  0  0  0  0  0  0  0  0
   21.6589  -16.3822  -19.4874 N   0  0  0  0  0  0  0  0  0  0  0  0
   22.6613   -9.6391  -19.5880 C   0  0  0  0  0  0  0  0  0  0  0  0
   23.5475   -8.9610  -20.1798 O   0  0  0  0  0  0  0  0  0  0  0  0
   21.6293   -5.4010  -19.3740 O   0  0  0  0  0  0  0  0  0  0  0  0
   21.5295   -6.7577  -19.6128 C   0  0  0  0  0  0  0  0  0  0  0  0
   21.9968   -7.5057  -18.3874 C   0  0  2  0  0  0  0  0  0  0  0  0
   21.8996   -8.9484  -18.6083 N   0  0  0  0  0  0  0  0  0  0  0  0
   21.2419   -7.0848  -17.2080 C   0  0  0  0  0  0  0  0  0  0  0  0
   20.0387   -7.4893  -17.0195 O   0  0  0  0  0  0  0  0  0  0  0  0
   18.5325   -7.0920   -9.2377 O   0  0  0  0  0  0  0  0  0  0  0  0
   19.3257   -6.8692  -10.3558 C   0  0  0  0  0  0  0  0  0  0  0  0
   19.5499   -5.5855  -10.8190 C   0  0  0  0  0  0  0  0  0  0  0  0
   20.3374   -5.3726  -11.9281 C   0  0  0  0  0  0  0  0  0  0  0  0
   20.9355   -6.3978  -12.6280 C   0  0  0  0  0  0  0  0  0  0  0  0
   21.7809   -6.2331  -13.8249 C   0  0  0  0  0  0  0  0  0  0  0  0
   20.9395   -5.8939  -15.0092 C   0  0  2  0  0  0  0  0  0  0  0  0
   21.7407   -6.2309  -16.2030 N   0  0  0  0  0  0  0  0  0  0  0  0
   20.6144   -4.4556  -15.0027 C   0  0  0  0  0  0  0  0  0  0  0  0
   19.5787   -3.9040  -14.2806 O   0  0  0  0  0  0  0  0  0  0  0  0
   20.6977   -7.6805  -12.1462 C   0  0  0  0  0  0  0  0  0  0  0  0
   19.9142   -7.9065  -11.0406 C   0  0  0  0  0  0  0  0  0  0  0  0
   21.3164   -3.6767  -15.6959 O   0  0  0  0  0  0  0  0  0  0  0  0
  2  1  1  6
  3  2  1  0
  3  4  1  0
  4  5  1  0
  5  6  1  0
  7  6  1  0
  8  9  2  0
  8  2  1  0
 10 11  1  0
 12 11  1  6
 12 14  1  0
 12 13  1  0
 13  8  1  0
 14 23  1  0
 15 14  2  0
 16 17  1  0
 17 18  2  0
 17 27  1  0
 18 19  1  0
 19 20  2  0
 20 21  1  0
 22 21  1  1
 22 24  1  0
 23 22  1  0
 24 28  2  0
 24 25  1  0
 26 20  1  0
 27 26  2  0
M  END
$$$$
