KSY.pdb
     RDKit          3D

 28 28  0  0  1  0  0  0  0  0999 V2000
   26.8380  -26.8987  -21.0956 N   0  0  0  0  0  0  0  0  0  0  0  0
   25.5371  -26.4675  -21.5063 C   0  0  1  0  0  0  0  0  0  0  0  0
   24.4360  -27.3338  -20.9966 C   0  0  0  0  0  0  0  0  0  0  0  0
   24.1740  -28.5554  -21.8045 C   0  0  0  0  0  0  0  0  0  0  0  0
   24.5221  -29.8515  -21.1607 C   0  0  0  0  0  0  0  0  0  0  0  0
   24.2240  -31.0461  -22.0462 C   0  0  0  0  0  0  0  0  0  0  0  0
   24.6699  -32.2751  -21.4255 N   0  0  0  0  0  0  0  0  0  0  0  0
   25.3024  -25.0217  -21.2373 C   0  0  0  0  0  0  0  0  0  0  0  0
   26.0148  -24.3793  -20.4158 O   0  0  0  0  0  0  0  0  0  0  0  0
   22.1650  -22.7934  -23.0551 O   0  0  0  0  0  0  0  0  0  0  0  0
   23.4287  -22.2505  -22.9290 C   0  0  0  0  0  0  0  0  0  0  0  0
   24.0955  -22.8413  -21.7100 C   0  0  2  0  0  0  0  0  0  0  0  0
   24.2741  -24.2830  -21.8806 N   0  0  0  0  0  0  0  0  0  0  0  0
   23.3327  -22.5276  -20.5027 C   0  0  0  0  0  0  0  0  0  0  0  0
   22.6412  -23.4313  -19.9094 O   0  0  0  0  0  0  0  0  0  0  0  0
   19.9350  -18.4039  -13.4795 O   0  0  0  0  0  0  0  0  0  0  0  0
   20.6107  -18.6893  -14.6589 C   0  0  0  0  0  0  0  0  0  0  0  0
   20.0326  -18.4232  -15.8869 C   0  0  0  0  0  0  0  0  0  0  0  0
   20.7087  -18.7089  -17.0517 C   0  0  0  0  0  0  0  0  0  0  0  0
   21.9701  -19.2632  -17.0672 C   0  0  0  0  0  0  0  0  0  0  0  0
   22.7392  -19.5982  -18.2798 C   0  0  0  0  0  0  0  0  0  0  0  0
   22.4645  -21.0048  -18.6940 C   0  0  2  0  0  0  0  0  0  0  0  0
   23.2851  -21.2559  -19.8957 N   0  0  0  0  0  0  0  0  0  0  0  0
   21.0335  -21.1680  -19.0105 C   0  0  0  0  0  0  0  0  0  0  0  0
   20.1151  -21.7324  -18.1525 O   0  0  0  0  0  0  0  0  0  0  0  0
   22.5336  -19.5228  -15.8226 C   0  0  0  0  0  0  0  0  0  0  0  0
   21.8698  -19.2425  -14.6529 C   0  0  0  0  0  0  0  0  0  0  0  0
   20.6157  -20.7741  -20.1286 O   0  0  0  0  0  0  0  0  0  0  0  0
  2  1  1  1
  3  2  1  0
  3  4  1  0
  4  5  1  0
  5  6  1  0
  7  6  1  0
  8  9  2  0
  8  2  1  0
 10 11  1  0
 12 11  1  6
 12 14  1  0
 12 13  1  0
 13  8  1  0
 14 23  1  0
 15 14  2  0
 16 17  1  0
 17 18  2  0
 17 27  1  0
 18 19  1  0
 19 20  2  0
 20 21  1  0
 22 21  1  6
 22 24  1  0
 23 22  1  0
 24 28  2  0
 24 25  1  0
 26 20  1  0
 27 26  2  0
M  END
$$$$
