KSY.pdb
     RDKit          3D

 28 28  0  0  1  0  0  0  0  0999 V2000
   17.3264  -12.3234  -16.6737 N   0  0  0  0  0  0  0  0  0  0  0  0
   16.4282  -11.5840  -15.8409 C   0  0  1  0  0  0  0  0  0  0  0  0
   15.8433  -12.3927  -14.7335 C   0  0  0  0  0  0  0  0  0  0  0  0
   14.9171  -13.4732  -15.1674 C   0  0  0  0  0  0  0  0  0  0  0  0
   14.1821  -14.1785  -14.0821 C   0  0  0  0  0  0  0  0  0  0  0  0
   13.2299  -15.2353  -14.6081 C   0  0  0  0  0  0  0  0  0  0  0  0
   12.5183  -15.8774  -13.5236 N   0  0  0  0  0  0  0  0  0  0  0  0
   17.0139  -10.2994  -15.3672 C   0  0  0  0  0  0  0  0  0  0  0  0
   18.2634  -10.1206  -15.3226 O   0  0  0  0  0  0  0  0  0  0  0  0
   16.5716   -5.5880  -14.9656 O   0  0  0  0  0  0  0  0  0  0  0  0
   15.9558   -6.7982  -15.2181 C   0  0  0  0  0  0  0  0  0  0  0  0
   16.7645   -7.9013  -14.5789 C   0  0  2  0  0  0  0  0  0  0  0  0
   16.2130   -9.2069  -14.9407 N   0  0  0  0  0  0  0  0  0  0  0  0
   16.8266   -7.7208  -13.1292 C   0  0  0  0  0  0  0  0  0  0  0  0
   15.8798   -8.1441  -12.3734 O   0  0  0  0  0  0  0  0  0  0  0  0
   22.7894   -4.8658  -14.4140 O   0  0  0  0  0  0  0  0  0  0  0  0
   21.9330   -5.4034  -13.4619 C   0  0  0  0  0  0  0  0  0  0  0  0
   21.8225   -6.7729  -13.3034 C   0  0  0  0  0  0  0  0  0  0  0  0
   20.9714   -7.2984  -12.3574 C   0  0  0  0  0  0  0  0  0  0  0  0
   20.1965   -6.5139  -11.5311 C   0  0  0  0  0  0  0  0  0  0  0  0
   19.2626   -7.0177  -10.5072 C   0  0  0  0  0  0  0  0  0  0  0  0
   17.8549   -6.8914  -10.9847 C   0  0  2  0  0  0  0  0  0  0  0  0
   17.8887   -7.0923  -12.4472 N   0  0  0  0  0  0  0  0  0  0  0  0
   17.3318   -5.5499  -10.6663 C   0  0  0  0  0  0  0  0  0  0  0  0
   17.0091   -4.6046  -11.6152 O   0  0  0  0  0  0  0  0  0  0  0  0
   20.3223   -5.1401  -11.7062 C   0  0  0  0  0  0  0  0  0  0  0  0
   21.1679   -4.6029  -12.6463 C   0  0  0  0  0  0  0  0  0  0  0  0
   17.1687   -5.2383   -9.4595 O   0  0  0  0  0  0  0  0  0  0  0  0
  2  1  1  1
  3  2  1  0
  3  4  1  0
  4  5  1  0
  5  6  1  0
  7  6  1  0
  8  9  2  0
  8  2  1  0
 10 11  1  0
 12 11  1  6
 12 14  1  0
 12 13  1  0
 13  8  1  0
 14 23  1  0
 15 14  2  0
 16 17  1  0
 17 18  2  0
 17 27  1  0
 18 19  1  0
 19 20  2  0
 20 21  1  0
 22 21  1  6
 22 24  1  0
 23 22  1  0
 24 28  2  0
 24 25  1  0
 26 20  1  0
 27 26  2  0
M  END
$$$$
