KSY.pdb
     RDKit          3D

 28 28  0  0  1  0  0  0  0  0999 V2000
   19.2006  -14.2063  -19.8662 N   0  0  0  0  0  0  0  0  0  0  0  0
   18.8193  -13.7759  -18.5560 C   0  0  1  0  0  0  0  0  0  0  0  0
   19.2718  -14.6959  -17.4737 C   0  0  0  0  0  0  0  0  0  0  0  0
   18.3569  -15.8359  -17.1964 C   0  0  0  0  0  0  0  0  0  0  0  0
   18.5161  -17.0292  -18.0717 C   0  0  0  0  0  0  0  0  0  0  0  0
   17.5593  -18.1508  -17.7159 C   0  0  0  0  0  0  0  0  0  0  0  0
   18.0408  -18.9001  -16.5751 N   0  0  0  0  0  0  0  0  0  0  0  0
   19.1821  -12.3558  -18.2923 C   0  0  0  0  0  0  0  0  0  0  0  0
   20.1233  -11.7887  -18.9150 O   0  0  0  0  0  0  0  0  0  0  0  0
   17.8947   -7.9709  -17.3572 O   0  0  0  0  0  0  0  0  0  0  0  0
   17.5899   -9.3062  -17.5358 C   0  0  0  0  0  0  0  0  0  0  0  0
   18.7810  -10.1388  -17.1268 C   0  0  2  0  0  0  0  0  0  0  0  0
   18.5001  -11.5592  -17.3347 N   0  0  0  0  0  0  0  0  0  0  0  0
   19.1560   -9.8563  -15.7420 C   0  0  0  0  0  0  0  0  0  0  0  0
   18.6056  -10.4888  -14.7705 O   0  0  0  0  0  0  0  0  0  0  0  0
   22.1535   -2.9246  -16.1918 O   0  0  0  0  0  0  0  0  0  0  0  0
   22.0570   -4.1806  -15.6069 C   0  0  0  0  0  0  0  0  0  0  0  0
   21.9719   -4.3159  -14.2331 C   0  0  0  0  0  0  0  0  0  0  0  0
   21.8764   -5.5644  -13.6607 C   0  0  0  0  0  0  0  0  0  0  0  0
   21.8605   -6.7267  -14.4005 C   0  0  0  0  0  0  0  0  0  0  0  0
   21.7684   -8.0896  -13.8451 C   0  0  0  0  0  0  0  0  0  0  0  0
   20.3655   -8.5895  -13.9321 C   0  0  2  0  0  0  0  0  0  0  0  0
   20.1196   -8.9030  -15.3539 N   0  0  0  0  0  0  0  0  0  0  0  0
   19.4287   -7.5485  -13.4701 C   0  0  0  0  0  0  0  0  0  0  0  0
   19.2392   -7.2164  -12.1464 O   0  0  0  0  0  0  0  0  0  0  0  0
   21.9469   -6.5690  -15.7795 C   0  0  0  0  0  0  0  0  0  0  0  0
   22.0424   -5.3291  -16.3633 C   0  0  0  0  0  0  0  0  0  0  0  0
   18.7555   -6.9216  -14.3266 O   0  0  0  0  0  0  0  0  0  0  0  0
  2  1  1  6
  3  2  1  0
  3  4  1  0
  4  5  1  0
  5  6  1  0
  7  6  1  0
  8  9  2  0
  8  2  1  0
 10 11  1  0
 12 11  1  1
 12 14  1  0
 12 13  1  0
 13  8  1  0
 14 23  1  0
 15 14  2  0
 16 17  1  0
 17 18  2  0
 17 27  1  0
 18 19  1  0
 19 20  2  0
 20 21  1  0
 22 21  1  6
 22 24  1  0
 23 22  1  0
 24 28  2  0
 24 25  1  0
 26 20  1  0
 27 26  2  0
M  END
$$$$
