KSY.pdb
     RDKit          3D

 28 28  0  0  1  0  0  0  0  0999 V2000
   19.9838  -13.8021  -16.6013 N   0  0  0  0  0  0  0  0  0  0  0  0
   20.3886  -12.5389  -17.1376 C   0  0  1  0  0  0  0  0  0  0  0  0
   19.3168  -11.8522  -17.9135 C   0  0  0  0  0  0  0  0  0  0  0  0
   18.0653  -12.6384  -18.0856 C   0  0  0  0  0  0  0  0  0  0  0  0
   16.9221  -12.2448  -17.2176 C   0  0  0  0  0  0  0  0  0  0  0  0
   15.6704  -13.0566  -17.4907 C   0  0  0  0  0  0  0  0  0  0  0  0
   14.5682  -12.6008  -16.6710 N   0  0  0  0  0  0  0  0  0  0  0  0
   21.0123  -11.6560  -16.1132 C   0  0  0  0  0  0  0  0  0  0  0  0
   20.3912  -11.3191  -15.0663 O   0  0  0  0  0  0  0  0  0  0  0  0
   24.9871  -10.4305  -16.3959 O   0  0  0  0  0  0  0  0  0  0  0  0
   24.3851  -10.4212  -15.1529 C   0  0  0  0  0  0  0  0  0  0  0  0
   22.9075  -10.1647  -15.3269 C   0  0  2  0  0  0  0  0  0  0  0  0
   22.3298  -11.1432  -16.2479 N   0  0  0  0  0  0  0  0  0  0  0  0
   22.6721   -8.7927  -15.7744 C   0  0  0  0  0  0  0  0  0  0  0  0
   22.4517   -8.5341  -17.0119 O   0  0  0  0  0  0  0  0  0  0  0  0
   20.5420   -1.1038  -18.5129 O   0  0  0  0  0  0  0  0  0  0  0  0
   20.6915   -2.3478  -17.9137 C   0  0  0  0  0  0  0  0  0  0  0  0
   20.1060   -2.6180  -16.6901 C   0  0  0  0  0  0  0  0  0  0  0  0
   20.2587   -3.8536  -16.1024 C   0  0  0  0  0  0  0  0  0  0  0  0
   20.9853   -4.8716  -16.6805 C   0  0  0  0  0  0  0  0  0  0  0  0
   21.1907   -6.2101  -16.0970 C   0  0  0  0  0  0  0  0  0  0  0  0
   22.5389   -6.2967  -15.4641 C   0  0  2  0  0  0  0  0  0  0  0  0
   22.6624   -7.6664  -14.9262 N   0  0  0  0  0  0  0  0  0  0  0  0
   22.6499   -5.3092  -14.3745 C   0  0  0  0  0  0  0  0  0  0  0  0
   23.1550   -4.0377  -14.5368 O   0  0  0  0  0  0  0  0  0  0  0  0
   21.5657   -4.5799  -17.9101 C   0  0  0  0  0  0  0  0  0  0  0  0
   21.4209   -3.3512  -18.5075 C   0  0  0  0  0  0  0  0  0  0  0  0
   22.2656   -5.6371  -13.2235 O   0  0  0  0  0  0  0  0  0  0  0  0
  2  1  1  1
  3  2  1  0
  3  4  1  0
  4  5  1  0
  5  6  1  0
  7  6  1  0
  8  9  2  0
  8  2  1  0
 10 11  1  0
 12 11  1  6
 12 14  1  0
 12 13  1  0
 13  8  1  0
 14 23  1  0
 15 14  2  0
 16 17  1  0
 17 18  2  0
 17 27  1  0
 18 19  1  0
 19 20  2  0
 20 21  1  0
 22 21  1  1
 22 24  1  0
 23 22  1  0
 24 28  2  0
 24 25  1  0
 26 20  1  0
 27 26  2  0
M  END
$$$$
