ASE.pdb
     RDKit          3D

 21 20  0  0  1  0  0  0  0  0999 V2000
   -5.7762  -24.8360   23.1232 C   0  0  0  0  0  0  0  0  0  0  0  0
   -4.5529  -24.3376   23.9034 C   0  0  2  0  0  0  0  0  0  0  0  0
   -3.4580  -25.2011   23.5654 N   0  0  0  0  0  0  0  0  0  0  0  0
   -4.9286  -24.3958   25.3390 C   0  0  0  0  0  0  0  0  0  0  0  0
   -5.8793  -25.1741   25.6564 O   0  0  0  0  0  0  0  0  0  0  0  0
   -3.8620  -23.1171   29.9001 O   0  0  0  0  0  0  0  0  0  0  0  0
   -3.5617  -23.0695   28.5606 C   0  0  0  0  0  0  0  0  0  0  0  0
   -4.6691  -23.6954   27.7430 C   0  0  2  0  0  0  0  0  0  0  0  0
   -4.3074  -23.6560   26.3610 N   0  0  0  0  0  0  0  0  0  0  0  0
   -5.9860  -23.0601   28.0325 C   0  0  0  0  0  0  0  0  0  0  0  0
   -6.3161  -21.9761   27.4415 O   0  0  0  0  0  0  0  0  0  0  0  0
   -6.9260  -23.5893   28.9461 N   0  0  0  0  0  0  0  0  0  0  0  0
   -8.2497  -22.9017   29.1727 C   0  0  1  0  0  0  0  0  0  0  0  0
   -9.3190  -23.9012   29.0505 C   0  0  0  0  0  0  0  0  0  0  0  0
  -10.7314  -23.5215   29.2674 C   0  0  0  0  0  0  0  0  0  0  0  0
  -11.7419  -24.5738   29.2638 C   0  0  0  0  0  0  0  0  0  0  0  0
  -12.2086  -25.0096   30.3418 O   0  0  0  0  0  0  0  0  0  0  0  0
   -8.0979  -22.2573   30.4966 C   0  0  0  0  0  0  0  0  0  0  0  0
   -8.7844  -21.1315   30.9114 O   0  0  0  0  0  0  0  0  0  0  0  0
  -12.2054  -25.1063   28.0751 O   0  0  0  0  0  0  0  0  0  0  0  0
   -7.2791  -22.7351   31.3570 O   0  0  0  0  0  0  0  0  0  0  0  0
  2  1  1  6
  2  4  1  0
  3  2  1  0
  4  5  2  0
  7  6  1  0
  8  7  1  1
  9  8  1  0
  9  4  1  0
 10 11  2  0
 10  8  1  0
 12 10  1  0
 13 12  1  0
 13 14  1  1
 14 15  1  0
 15 16  1  0
 16 20  1  0
 17 16  2  0
 18 13  1  0
 19 18  1  0
 21 18  2  0
M  END
$$$$
