ASE.pdb
     RDKit          3D

 21 20  0  0  1  0  0  0  0  0999 V2000
    7.8434  -18.9951   18.4332 C   0  0  0  0  0  0  0  0  0  0  0  0
    7.8313  -17.5234   18.0004 C   0  0  2  0  0  0  0  0  0  0  0  0
    8.4619  -17.4582   16.7133 N   0  0  0  0  0  0  0  0  0  0  0  0
    8.5649  -16.7782   19.0550 C   0  0  0  0  0  0  0  0  0  0  0  0
    9.8304  -16.7468   18.9664 O   0  0  0  0  0  0  0  0  0  0  0  0
    6.8367  -15.4185   22.6467 O   0  0  0  0  0  0  0  0  0  0  0  0
    7.6387  -14.5616   21.9333 C   0  0  0  0  0  0  0  0  0  0  0  0
    8.6491  -15.3335   21.1148 C   0  0  2  0  0  0  0  0  0  0  0  0
    7.9586  -16.1097   20.1335 N   0  0  0  0  0  0  0  0  0  0  0  0
    9.5529  -16.1393   21.9838 C   0  0  0  0  0  0  0  0  0  0  0  0
    9.3215  -17.3828   22.1673 O   0  0  0  0  0  0  0  0  0  0  0  0
   10.6850  -15.6069   22.6421 N   0  0  0  0  0  0  0  0  0  0  0  0
   11.6243  -16.5066   23.4065 C   0  0  1  0  0  0  0  0  0  0  0  0
   13.0039  -16.1299   23.0710 C   0  0  0  0  0  0  0  0  0  0  0  0
   14.1471  -16.8200   23.7056 C   0  0  0  0  0  0  0  0  0  0  0  0
   15.4957  -16.3545   23.4005 C   0  0  0  0  0  0  0  0  0  0  0  0
   15.6755  -15.2351   22.8672 O   0  0  0  0  0  0  0  0  0  0  0  0
   11.2186  -16.3328   24.8193 C   0  0  0  0  0  0  0  0  0  0  0  0
   11.5665  -17.1828   25.8523 O   0  0  0  0  0  0  0  0  0  0  0  0
   16.5980  -17.1350   23.6960 O   0  0  0  0  0  0  0  0  0  0  0  0
   10.4862  -15.3406   25.1631 O   0  0  0  0  0  0  0  0  0  0  0  0
  2  1  1  1
  2  4  1  0
  3  2  1  0
  4  5  2  0
  7  6  1  0
  8  7  1  1
  9  8  1  0
  9  4  1  0
 10 11  2  0
 10  8  1  0
 12 10  1  0
 13 12  1  0
 13 14  1  1
 14 15  1  0
 15 16  1  0
 16 20  1  0
 17 16  2  0
 18 13  1  0
 19 18  1  0
 21 18  2  0
M  END
$$$$
