ASE.pdb
     RDKit          3D

 21 20  0  0  1  0  0  0  0  0999 V2000
   -1.2362  -26.6865   28.7465 C   0  0  0  0  0  0  0  0  0  0  0  0
   -1.1744  -26.1981   30.1994 C   0  0  2  0  0  0  0  0  0  0  0  0
   -0.4819  -27.2043   30.9523 N   0  0  0  0  0  0  0  0  0  0  0  0
   -2.5829  -26.0052   30.6290 C   0  0  0  0  0  0  0  0  0  0  0  0
   -3.3871  -26.9645   30.4210 O   0  0  0  0  0  0  0  0  0  0  0  0
   -3.6311  -22.9431   33.1721 O   0  0  0  0  0  0  0  0  0  0  0  0
   -4.3293  -24.1259   33.1606 C   0  0  0  0  0  0  0  0  0  0  0  0
   -4.4059  -24.6866   31.7583 C   0  0  2  0  0  0  0  0  0  0  0  0
   -3.0809  -24.8439   31.2464 N   0  0  0  0  0  0  0  0  0  0  0  0
   -5.2866  -23.8577   30.8873 C   0  0  0  0  0  0  0  0  0  0  0  0
   -4.7935  -22.8847   30.2214 O   0  0  0  0  0  0  0  0  0  0  0  0
   -6.6753  -24.0787   30.7422 N   0  0  0  0  0  0  0  0  0  0  0  0
   -7.4861  -23.2636   29.7654 C   0  0  1  0  0  0  0  0  0  0  0  0
   -8.7335  -23.9853   29.4814 C   0  0  0  0  0  0  0  0  0  0  0  0
   -9.7818  -23.3718   28.6383 C   0  0  0  0  0  0  0  0  0  0  0  0
  -11.0663  -24.0535   28.5214 C   0  0  0  0  0  0  0  0  0  0  0  0
  -12.1363  -23.4274   28.7031 O   0  0  0  0  0  0  0  0  0  0  0  0
   -7.6227  -21.9450   30.4239 C   0  0  0  0  0  0  0  0  0  0  0  0
   -7.5712  -20.7268   29.7728 O   0  0  0  0  0  0  0  0  0  0  0  0
  -11.1282  -25.3981   28.2054 O   0  0  0  0  0  0  0  0  0  0  0  0
   -7.7981  -21.8709   31.6900 O   0  0  0  0  0  0  0  0  0  0  0  0
  2  1  1  6
  2  4  1  0
  3  2  1  0
  4  5  2  0
  7  6  1  0
  8  7  1  1
  9  8  1  0
  9  4  1  0
 10 11  2  0
 10  8  1  0
 12 10  1  0
 13 12  1  0
 13 14  1  1
 14 15  1  0
 15 16  1  0
 16 20  1  0
 17 16  2  0
 18 13  1  0
 19 18  1  0
 21 18  2  0
M  END
$$$$
