ASE.pdb
     RDKit          3D

 21 20  0  0  1  0  0  0  0  0999 V2000
    7.7916  -18.8726   17.9588 C   0  0  0  0  0  0  0  0  0  0  0  0
    7.6340  -17.3679   17.7048 C   0  0  2  0  0  0  0  0  0  0  0  0
    8.2014  -17.0973   16.4151 N   0  0  0  0  0  0  0  0  0  0  0  0
    8.3446  -16.6862   18.8166 C   0  0  0  0  0  0  0  0  0  0  0  0
    9.6121  -16.6589   18.7617 O   0  0  0  0  0  0  0  0  0  0  0  0
    6.6131  -15.6231   22.4964 O   0  0  0  0  0  0  0  0  0  0  0  0
    7.3470  -14.6759   21.8250 C   0  0  0  0  0  0  0  0  0  0  0  0
    8.3814  -15.3320   20.9383 C   0  0  2  0  0  0  0  0  0  0  0  0
    7.7147  -16.0732   19.9144 N   0  0  0  0  0  0  0  0  0  0  0  0
    9.3428  -16.1471   21.7338 C   0  0  0  0  0  0  0  0  0  0  0  0
    9.1854  -17.4121   21.8250 O   0  0  0  0  0  0  0  0  0  0  0  0
   10.4526  -15.6009   22.4182 N   0  0  0  0  0  0  0  0  0  0  0  0
   11.4639  -16.5002   23.0851 C   0  0  1  0  0  0  0  0  0  0  0  0
   12.8087  -16.0012   22.7690 C   0  0  0  0  0  0  0  0  0  0  0  0
   14.0076  -16.6782   23.3077 C   0  0  0  0  0  0  0  0  0  0  0  0
   15.3205  -16.1403   22.9680 C   0  0  0  0  0  0  0  0  0  0  0  0
   15.6735  -16.0360   21.7704 O   0  0  0  0  0  0  0  0  0  0  0  0
   11.0733  -16.4837   24.5128 C   0  0  0  0  0  0  0  0  0  0  0  0
   11.4996  -17.3958   25.4598 O   0  0  0  0  0  0  0  0  0  0  0  0
   16.1965  -15.7332   23.9572 O   0  0  0  0  0  0  0  0  0  0  0  0
   10.2793  -15.5816   24.9544 O   0  0  0  0  0  0  0  0  0  0  0  0
  2  1  1  1
  2  4  1  0
  3  2  1  0
  4  5  2  0
  7  6  1  0
  8  7  1  1
  9  8  1  0
  9  4  1  0
 10 11  2  0
 10  8  1  0
 12 10  1  0
 13 12  1  0
 13 14  1  1
 14 15  1  0
 15 16  1  0
 16 20  1  0
 17 16  2  0
 18 13  1  0
 19 18  1  0
 21 18  2  0
M  END
$$$$
