ASE.pdb
     RDKit          3D

 21 20  0  0  1  0  0  0  0  0999 V2000
    7.3091  -11.5054   26.2822 C   0  0  0  0  0  0  0  0  0  0  0  0
    6.1665  -12.3849   25.7584 C   0  0  2  0  0  0  0  0  0  0  0  0
    5.3064  -12.6647   26.8722 N   0  0  0  0  0  0  0  0  0  0  0  0
    6.8082  -13.5975   25.1894 C   0  0  0  0  0  0  0  0  0  0  0  0
    7.1917  -14.4869   26.0092 O   0  0  0  0  0  0  0  0  0  0  0  0
    8.0517  -13.9357   21.1923 O   0  0  0  0  0  0  0  0  0  0  0  0
    7.3809  -14.9926   21.7575 C   0  0  0  0  0  0  0  0  0  0  0  0
    7.5816  -15.0120   23.2561 C   0  0  2  0  0  0  0  0  0  0  0  0
    7.0159  -13.8258   23.8174 N   0  0  0  0  0  0  0  0  0  0  0  0
    9.0149  -15.2143   23.6113 C   0  0  0  0  0  0  0  0  0  0  0  0
    9.7854  -14.2052   23.7579 O   0  0  0  0  0  0  0  0  0  0  0  0
    9.6017  -16.4861   23.8027 N   0  0  0  0  0  0  0  0  0  0  0  0
   11.0603  -16.6135   24.1663 C   0  0  1  0  0  0  0  0  0  0  0  0
   11.1542  -17.0123   25.5768 C   0  0  0  0  0  0  0  0  0  0  0  0
   10.4558  -18.2207   26.0645 C   0  0  0  0  0  0  0  0  0  0  0  0
   10.5977  -18.5853   27.4700 C   0  0  0  0  0  0  0  0  0  0  0  0
   11.4037  -17.9713   28.2070 O   0  0  0  0  0  0  0  0  0  0  0  0
   11.5959  -17.5718   23.1733 C   0  0  0  0  0  0  0  0  0  0  0  0
   12.9318  -17.8950   23.0269 O   0  0  0  0  0  0  0  0  0  0  0  0
    9.8457  -19.6094   28.0152 O   0  0  0  0  0  0  0  0  0  0  0  0
   10.8061  -18.1694   22.3619 O   0  0  0  0  0  0  0  0  0  0  0  0
  2  1  1  1
  2  4  1  0
  3  2  1  0
  4  5  2  0
  7  6  1  0
  8  7  1  6
  9  8  1  0
  9  4  1  0
 10 11  2  0
 10  8  1  0
 12 10  1  0
 13 12  1  0
 13 14  1  1
 14 15  1  0
 15 16  1  0
 16 20  1  0
 17 16  2  0
 18 13  1  0
 19 18  1  0
 21 18  2  0
M  END
$$$$
