ASE.pdb
     RDKit          3D

 21 20  0  0  1  0  0  0  0  0999 V2000
    7.9853  -15.3233   17.9650 C   0  0  0  0  0  0  0  0  0  0  0  0
    7.6598  -14.0059   18.6803 C   0  0  2  0  0  0  0  0  0  0  0  0
    8.0398  -12.9419   17.7958 N   0  0  0  0  0  0  0  0  0  0  0  0
    8.4333  -14.0237   19.9480 C   0  0  0  0  0  0  0  0  0  0  0  0
    9.6409  -13.6377   19.8935 O   0  0  0  0  0  0  0  0  0  0  0  0
    7.0258  -15.7975   23.5050 O   0  0  0  0  0  0  0  0  0  0  0  0
    7.6960  -14.6004   23.5716 C   0  0  0  0  0  0  0  0  0  0  0  0
    8.6616  -14.4645   22.4159 C   0  0  2  0  0  0  0  0  0  0  0  0
    7.9230  -14.4333   21.1928 N   0  0  0  0  0  0  0  0  0  0  0  0
    9.7084  -15.5249   22.4528 C   0  0  0  0  0  0  0  0  0  0  0  0
    9.5600  -16.5933   21.7674 O   0  0  0  0  0  0  0  0  0  0  0  0
   10.8924  -15.4291   23.2191 N   0  0  0  0  0  0  0  0  0  0  0  0
   11.8652  -16.5808   23.2793 C   0  0  1  0  0  0  0  0  0  0  0  0
   13.2066  -16.0725   22.9635 C   0  0  0  0  0  0  0  0  0  0  0  0
   14.3930  -16.9435   23.1044 C   0  0  0  0  0  0  0  0  0  0  0  0
   15.7063  -16.3816   22.8077 C   0  0  0  0  0  0  0  0  0  0  0  0
   16.0101  -15.2330   23.2054 O   0  0  0  0  0  0  0  0  0  0  0  0
   11.6751  -17.1413   24.6360 C   0  0  0  0  0  0  0  0  0  0  0  0
   10.9893  -16.5167   25.6607 O   0  0  0  0  0  0  0  0  0  0  0  0
   16.6394  -17.1044   22.0876 O   0  0  0  0  0  0  0  0  0  0  0  0
   12.1670  -18.2845   24.9368 O   0  0  0  0  0  0  0  0  0  0  0  0
  2  1  1  6
  2  4  1  0
  3  2  1  0
  4  5  2  0
  7  6  1  0
  8  7  1  1
  9  8  1  0
  9  4  1  0
 10 11  2  0
 10  8  1  0
 12 10  1  0
 13 12  1  0
 13 14  1  1
 14 15  1  0
 15 16  1  0
 16 20  1  0
 17 16  2  0
 18 13  1  0
 19 18  1  0
 21 18  2  0
M  END
$$$$
