ASE.pdb
     RDKit          3D

 21 20  0  0  1  0  0  0  0  0999 V2000
    7.8490  -15.5800   17.5197 C   0  0  0  0  0  0  0  0  0  0  0  0
    8.0566  -16.6608   18.5884 C   0  0  2  0  0  0  0  0  0  0  0  0
    6.7586  -17.1646   18.9348 N   0  0  0  0  0  0  0  0  0  0  0  0
    8.7514  -15.9937   19.7188 C   0  0  0  0  0  0  0  0  0  0  0  0
    9.9627  -15.6619   19.5376 O   0  0  0  0  0  0  0  0  0  0  0  0
    7.0911  -15.6095   23.6072 O   0  0  0  0  0  0  0  0  0  0  0  0
    7.8120  -14.5819   23.0495 C   0  0  0  0  0  0  0  0  0  0  0  0
    8.8388  -15.1170   22.0769 C   0  0  2  0  0  0  0  0  0  0  0  0
    8.1636  -15.7058   20.9635 N   0  0  0  0  0  0  0  0  0  0  0  0
    9.7968  -16.0402   22.7489 C   0  0  0  0  0  0  0  0  0  0  0  0
    9.6054  -17.3030   22.7039 O   0  0  0  0  0  0  0  0  0  0  0  0
   10.9393  -15.6025   23.4570 N   0  0  0  0  0  0  0  0  0  0  0  0
   11.9743  -16.5911   23.9340 C   0  0  1  0  0  0  0  0  0  0  0  0
   13.2878  -16.1670   23.4315 C   0  0  0  0  0  0  0  0  0  0  0  0
   14.4974  -16.9663   23.7211 C   0  0  0  0  0  0  0  0  0  0  0  0
   15.7731  -16.5194   23.1722 C   0  0  0  0  0  0  0  0  0  0  0  0
   16.5695  -17.3429   22.6649 O   0  0  0  0  0  0  0  0  0  0  0  0
   11.8050  -16.6075   25.4044 C   0  0  0  0  0  0  0  0  0  0  0  0
   12.2827  -17.5958   26.2444 O   0  0  0  0  0  0  0  0  0  0  0  0
   16.1254  -15.1827   23.1976 O   0  0  0  0  0  0  0  0  0  0  0  0
   11.1722  -15.6622   25.9918 O   0  0  0  0  0  0  0  0  0  0  0  0
  2  1  1  6
  2  4  1  0
  3  2  1  0
  4  5  2  0
  7  6  1  0
  8  7  1  1
  9  8  1  0
  9  4  1  0
 10 11  2  0
 10  8  1  0
 12 10  1  0
 13 12  1  0
 13 14  1  1
 14 15  1  0
 15 16  1  0
 16 20  1  0
 17 16  2  0
 18 13  1  0
 19 18  1  0
 21 18  2  0
M  END
$$$$
