ASE.pdb
     RDKit          3D

 21 20  0  0  1  0  0  0  0  0999 V2000
    7.7533  -18.9891   18.2545 C   0  0  0  0  0  0  0  0  0  0  0  0
    7.7293  -17.5531   17.7154 C   0  0  2  0  0  0  0  0  0  0  0  0
    8.3438  -17.5800   16.4191 N   0  0  0  0  0  0  0  0  0  0  0  0
    8.4724  -16.7301   18.7034 C   0  0  0  0  0  0  0  0  0  0  0  0
    9.7051  -16.5301   18.4783 O   0  0  0  0  0  0  0  0  0  0  0  0
    6.8722  -15.5831   22.4245 O   0  0  0  0  0  0  0  0  0  0  0  0
    7.6242  -14.6767   21.7176 C   0  0  0  0  0  0  0  0  0  0  0  0
    8.6190  -15.3875   20.8278 C   0  0  2  0  0  0  0  0  0  0  0  0
    7.9081  -16.1612   19.8591 N   0  0  0  0  0  0  0  0  0  0  0  0
    9.5936  -16.1831   21.6270 C   0  0  0  0  0  0  0  0  0  0  0  0
    9.3897  -17.4288   21.8271 O   0  0  0  0  0  0  0  0  0  0  0  0
   10.7659  -15.6383   22.1991 N   0  0  0  0  0  0  0  0  0  0  0  0
   11.7385  -16.5180   22.9448 C   0  0  1  0  0  0  0  0  0  0  0  0
   13.0973  -16.0129   22.7078 C   0  0  0  0  0  0  0  0  0  0  0  0
   14.2588  -16.6373   23.3763 C   0  0  0  0  0  0  0  0  0  0  0  0
   15.5981  -16.2214   22.9741 C   0  0  0  0  0  0  0  0  0  0  0  0
   16.3133  -16.9747   22.2735 O   0  0  0  0  0  0  0  0  0  0  0  0
   11.2565  -16.4815   24.3438 C   0  0  0  0  0  0  0  0  0  0  0  0
   11.5580  -17.4239   25.3090 O   0  0  0  0  0  0  0  0  0  0  0  0
   16.1012  -14.9908   23.3536 O   0  0  0  0  0  0  0  0  0  0  0  0
   10.4963  -15.5305   24.7400 O   0  0  0  0  0  0  0  0  0  0  0  0
  2  1  1  1
  2  4  1  0
  3  2  1  0
  4  5  2  0
  7  6  1  0
  8  7  1  1
  9  8  1  0
  9  4  1  0
 10 11  2  0
 10  8  1  0
 12 10  1  0
 13 12  1  0
 13 14  1  1
 14 15  1  0
 15 16  1  0
 16 20  1  0
 17 16  2  0
 18 13  1  0
 19 18  1  0
 21 18  2  0
M  END
$$$$
