ASE.pdb
     RDKit          3D

 21 20  0  0  1  0  0  0  0  0999 V2000
   10.1842  -18.8975   18.5514 C   0  0  0  0  0  0  0  0  0  0  0  0
    9.5056  -17.5217   18.5512 C   0  0  2  0  0  0  0  0  0  0  0  0
    9.8278  -16.8940   17.3018 N   0  0  0  0  0  0  0  0  0  0  0  0
   10.0431  -16.7974   19.7311 C   0  0  0  0  0  0  0  0  0  0  0  0
   11.3054  -16.7265   19.8399 O   0  0  0  0  0  0  0  0  0  0  0  0
    7.6851  -15.5990   22.9991 O   0  0  0  0  0  0  0  0  0  0  0  0
    8.6283  -14.7257   22.5148 C   0  0  0  0  0  0  0  0  0  0  0  0
    9.7631  -15.4773   21.8561 C   0  0  2  0  0  0  0  0  0  0  0  0
    9.2562  -16.1889   20.7252 N   0  0  0  0  0  0  0  0  0  0  0  0
   10.4816  -16.3445   22.8326 C   0  0  0  0  0  0  0  0  0  0  0  0
   10.2417  -17.5992   22.8700 O   0  0  0  0  0  0  0  0  0  0  0  0
   11.4406  -15.8602   23.7513 N   0  0  0  0  0  0  0  0  0  0  0  0
   12.1878  -16.8092   24.6553 C   0  0  1  0  0  0  0  0  0  0  0  0
   13.6134  -16.4573   24.6213 C   0  0  0  0  0  0  0  0  0  0  0  0
   14.3839  -16.5620   23.3638 C   0  0  0  0  0  0  0  0  0  0  0  0
   15.8027  -16.2231   23.3882 C   0  0  0  0  0  0  0  0  0  0  0  0
   16.3401  -15.8156   24.4441 O   0  0  0  0  0  0  0  0  0  0  0  0
   11.5060  -16.6727   25.9620 C   0  0  0  0  0  0  0  0  0  0  0  0
   11.7588  -17.4573   27.0716 O   0  0  0  0  0  0  0  0  0  0  0  0
   16.5802  -16.3481   22.2518 O   0  0  0  0  0  0  0  0  0  0  0  0
   10.6031  -15.7805   26.1289 O   0  0  0  0  0  0  0  0  0  0  0  0
  2  1  1  6
  2  4  1  0
  3  2  1  0
  4  5  2  0
  7  6  1  0
  8  7  1  1
  9  8  1  0
  9  4  1  0
 10 11  2  0
 10  8  1  0
 12 10  1  0
 13 12  1  0
 13 14  1  1
 14 15  1  0
 15 16  1  0
 16 20  1  0
 17 16  2  0
 18 13  1  0
 19 18  1  0
 21 18  2  0
M  END
$$$$
