ASE.pdb
     RDKit          3D

 21 20  0  0  1  0  0  0  0  0999 V2000
    7.8653  -15.2676   18.4097 C   0  0  0  0  0  0  0  0  0  0  0  0
    7.7848  -13.8999   19.0998 C   0  0  2  0  0  0  0  0  0  0  0  0
    8.3768  -12.9437   18.2088 N   0  0  0  0  0  0  0  0  0  0  0  0
    8.5180  -14.0428   20.3834 C   0  0  0  0  0  0  0  0  0  0  0  0
    9.7817  -13.9353   20.3421 O   0  0  0  0  0  0  0  0  0  0  0  0
    6.8186  -15.5934   23.8869 O   0  0  0  0  0  0  0  0  0  0  0  0
    7.5982  -14.4679   23.9972 C   0  0  0  0  0  0  0  0  0  0  0  0
    8.6074  -14.4057   22.8728 C   0  0  2  0  0  0  0  0  0  0  0  0
    7.9130  -14.2848   21.6297 N   0  0  0  0  0  0  0  0  0  0  0  0
    9.5479  -15.5610   22.9201 C   0  0  0  0  0  0  0  0  0  0  0  0
    9.3729  -16.5596   22.1420 O   0  0  0  0  0  0  0  0  0  0  0  0
   10.6558  -15.6327   23.7951 N   0  0  0  0  0  0  0  0  0  0  0  0
   11.6107  -16.7991   23.7334 C   0  0  1  0  0  0  0  0  0  0  0  0
   12.9045  -16.3142   23.2352 C   0  0  0  0  0  0  0  0  0  0  0  0
   14.0839  -17.2057   23.2137 C   0  0  0  0  0  0  0  0  0  0  0  0
   15.3526  -16.6677   22.7348 C   0  0  0  0  0  0  0  0  0  0  0  0
   15.8363  -15.6312   23.2463 O   0  0  0  0  0  0  0  0  0  0  0  0
   11.5973  -17.3477   25.1082 C   0  0  0  0  0  0  0  0  0  0  0  0
   12.1386  -18.5642   25.4795 O   0  0  0  0  0  0  0  0  0  0  0  0
   16.0455  -17.2907   21.7134 O   0  0  0  0  0  0  0  0  0  0  0  0
   11.0516  -16.6889   26.0607 O   0  0  0  0  0  0  0  0  0  0  0  0
  2  1  1  6
  2  4  1  0
  3  2  1  0
  4  5  2  0
  7  6  1  0
  8  7  1  1
  9  8  1  0
  9  4  1  0
 10 11  2  0
 10  8  1  0
 12 10  1  0
 13 12  1  0
 13 14  1  1
 14 15  1  0
 15 16  1  0
 16 20  1  0
 17 16  2  0
 18 13  1  0
 19 18  1  0
 21 18  2  0
M  END
$$$$
