ASE.pdb
     RDKit          3D

 21 20  0  0  1  0  0  0  0  0999 V2000
    9.0994  -19.2170   18.9009 C   0  0  0  0  0  0  0  0  0  0  0  0
    8.6153  -17.7658   18.7877 C   0  0  2  0  0  0  0  0  0  0  0  0
    8.9113  -17.3263   17.4543 N   0  0  0  0  0  0  0  0  0  0  0  0
    9.3444  -17.0057   19.8348 C   0  0  0  0  0  0  0  0  0  0  0  0
   10.5666  -16.7451   19.6141 O   0  0  0  0  0  0  0  0  0  0  0  0
    9.1321  -14.7410   24.1379 O   0  0  0  0  0  0  0  0  0  0  0  0
    8.4919  -15.4188   23.1292 C   0  0  0  0  0  0  0  0  0  0  0  0
    9.4786  -15.8549   22.0696 C   0  0  2  0  0  0  0  0  0  0  0  0
    8.7778  -16.5578   21.0414 N   0  0  0  0  0  0  0  0  0  0  0  0
   10.6052  -16.6315   22.6607 C   0  0  0  0  0  0  0  0  0  0  0  0
   10.4726  -17.8837   22.8794 O   0  0  0  0  0  0  0  0  0  0  0  0
   11.8508  -16.0610   23.0091 N   0  0  0  0  0  0  0  0  0  0  0  0
   12.9500  -16.9124   23.5948 C   0  0  1  0  0  0  0  0  0  0  0  0
   14.2427  -16.3501   23.1821 C   0  0  0  0  0  0  0  0  0  0  0  0
   15.5088  -16.9566   23.6459 C   0  0  0  0  0  0  0  0  0  0  0  0
   16.7634  -16.3018   23.2914 C   0  0  0  0  0  0  0  0  0  0  0  0
   17.1444  -15.2816   23.9110 O   0  0  0  0  0  0  0  0  0  0  0  0
   12.6664  -16.9162   25.0475 C   0  0  0  0  0  0  0  0  0  0  0  0
   13.1612  -17.8415   25.9474 O   0  0  0  0  0  0  0  0  0  0  0  0
   17.5555  -16.7944   22.2708 O   0  0  0  0  0  0  0  0  0  0  0  0
   11.9078  -16.0209   25.5594 O   0  0  0  0  0  0  0  0  0  0  0  0
  2  1  1  6
  2  4  1  0
  3  2  1  0
  4  5  2  0
  7  6  1  0
  8  7  1  1
  9  8  1  0
  9  4  1  0
 10 11  2  0
 10  8  1  0
 12 10  1  0
 13 12  1  0
 13 14  1  1
 14 15  1  0
 15 16  1  0
 16 20  1  0
 17 16  2  0
 18 13  1  0
 19 18  1  0
 21 18  2  0
M  END
$$$$
