ASE.pdb
     RDKit          3D

 21 20  0  0  1  0  0  0  0  0999 V2000
   -2.7155  -28.0481   26.6300 C   0  0  0  0  0  0  0  0  0  0  0  0
   -2.5428  -26.5971   26.1629 C   0  0  2  0  0  0  0  0  0  0  0  0
   -1.1693  -26.4394   25.7793 N   0  0  0  0  0  0  0  0  0  0  0  0
   -2.9354  -25.7447   27.3139 C   0  0  0  0  0  0  0  0  0  0  0  0
   -2.3261  -25.9376   28.4101 O   0  0  0  0  0  0  0  0  0  0  0  0
   -3.7998  -21.9768   26.8891 O   0  0  0  0  0  0  0  0  0  0  0  0
   -3.4349  -22.5472   28.0841 C   0  0  0  0  0  0  0  0  0  0  0  0
   -4.2096  -23.8234   28.3247 C   0  0  2  0  0  0  0  0  0  0  0  0
   -3.9253  -24.7467   27.2717 N   0  0  0  0  0  0  0  0  0  0  0  0
   -5.6644  -23.5523   28.5028 C   0  0  0  0  0  0  0  0  0  0  0  0
   -6.4478  -23.5808   27.4934 O   0  0  0  0  0  0  0  0  0  0  0  0
   -6.2579  -23.2549   29.7508 N   0  0  0  0  0  0  0  0  0  0  0  0
   -7.7431  -23.0123   29.8582 C   0  0  1  0  0  0  0  0  0  0  0  0
   -8.2947  -23.9422   30.8524 C   0  0  0  0  0  0  0  0  0  0  0  0
   -8.5385  -25.3581   30.5036 C   0  0  0  0  0  0  0  0  0  0  0  0
   -9.0163  -26.2583   31.5475 C   0  0  0  0  0  0  0  0  0  0  0  0
   -9.2183  -25.8335   32.7088 O   0  0  0  0  0  0  0  0  0  0  0  0
   -7.8498  -21.5701   30.1739 C   0  0  0  0  0  0  0  0  0  0  0  0
   -8.9982  -20.8133   30.0355 O   0  0  0  0  0  0  0  0  0  0  0  0
   -9.2581  -27.5923   31.2761 O   0  0  0  0  0  0  0  0  0  0  0  0
   -6.8306  -20.9267   30.6056 O   0  0  0  0  0  0  0  0  0  0  0  0
  2  1  1  1
  2  4  1  0
  3  2  1  0
  4  5  2  0
  7  6  1  0
  8  7  1  6
  9  8  1  0
  9  4  1  0
 10 11  2  0
 10  8  1  0
 12 10  1  0
 13 12  1  0
 13 14  1  1
 14 15  1  0
 15 16  1  0
 16 20  1  0
 17 16  2  0
 18 13  1  0
 19 18  1  0
 21 18  2  0
M  END
$$$$
