ASE.pdb
     RDKit          3D

 21 20  0  0  1  0  0  0  0  0999 V2000
   11.8713  -20.6423   18.4336 C   0  0  0  0  0  0  0  0  0  0  0  0
   11.0756  -19.3793   18.0797 C   0  0  2  0  0  0  0  0  0  0  0  0
   11.4444  -19.0105   16.7431 N   0  0  0  0  0  0  0  0  0  0  0  0
   11.4457  -18.3615   19.0958 C   0  0  0  0  0  0  0  0  0  0  0  0
   12.4040  -17.5807   18.8092 O   0  0  0  0  0  0  0  0  0  0  0  0
    9.3005  -17.8241   22.6778 O   0  0  0  0  0  0  0  0  0  0  0  0
    9.9029  -16.7717   22.0325 C   0  0  0  0  0  0  0  0  0  0  0  0
   11.1591  -17.2281   21.3252 C   0  0  2  0  0  0  0  0  0  0  0  0
   10.8113  -18.2041   20.3410 N   0  0  0  0  0  0  0  0  0  0  0  0
   12.1891  -17.6996   22.2939 C   0  0  0  0  0  0  0  0  0  0  0  0
   12.2720  -18.9414   22.5844 O   0  0  0  0  0  0  0  0  0  0  0  0
   13.1105  -16.8410   22.9360 N   0  0  0  0  0  0  0  0  0  0  0  0
   14.0537  -17.3724   23.9867 C   0  0  1  0  0  0  0  0  0  0  0  0
   15.2392  -16.5061   24.0273 C   0  0  0  0  0  0  0  0  0  0  0  0
   16.4369  -16.8326   23.2243 C   0  0  0  0  0  0  0  0  0  0  0  0
   17.5649  -15.9079   23.2519 C   0  0  0  0  0  0  0  0  0  0  0  0
   17.5308  -14.8448   22.5897 O   0  0  0  0  0  0  0  0  0  0  0  0
   13.2311  -17.4220   25.2163 C   0  0  0  0  0  0  0  0  0  0  0  0
   13.5341  -18.1662   26.3410 O   0  0  0  0  0  0  0  0  0  0  0  0
   18.6882  -16.1836   24.0094 O   0  0  0  0  0  0  0  0  0  0  0  0
   12.1453  -16.7481   25.2940 O   0  0  0  0  0  0  0  0  0  0  0  0
  2  1  1  1
  2  4  1  0
  3  2  1  0
  4  5  2  0
  7  6  1  0
  8  7  1  1
  9  8  1  0
  9  4  1  0
 10 11  2  0
 10  8  1  0
 12 10  1  0
 13 12  1  0
 13 14  1  1
 14 15  1  0
 15 16  1  0
 16 20  1  0
 17 16  2  0
 18 13  1  0
 19 18  1  0
 21 18  2  0
M  END
$$$$
