WKC.pdb
     RDKit          3D

 30 31  0  0  1  0  0  0  0  0999 V2000
   22.0270  -17.9794  -17.9281 N   0  0  0  0  0  0  0  0  0  0  0  0
   22.2928  -17.8762  -16.5310 C   0  0  1  0  0  0  0  0  0  0  0  0
   21.1548  -18.3341  -15.6507 C   0  0  0  0  0  0  0  0  0  0  0  0
   19.9898  -17.4309  -15.7224 C   0  0  0  0  0  0  0  0  0  0  0  0
   19.3342  -16.9926  -16.8537 C   0  0  0  0  0  0  0  0  0  0  0  0
   18.3389  -16.1904  -16.4465 N   0  0  0  0  0  0  0  0  0  0  0  0
   18.3436  -16.1065  -15.0875 C   0  0  0  0  0  0  0  0  0  0  0  0
   17.5309  -15.4153  -14.1957 C   0  0  0  0  0  0  0  0  0  0  0  0
   17.7829  -15.5249  -12.8482 C   0  0  0  0  0  0  0  0  0  0  0  0
   18.8215  -16.3019  -12.3390 C   0  0  0  0  0  0  0  0  0  0  0  0
   19.6023  -16.9688  -13.2399 C   0  0  0  0  0  0  0  0  0  0  0  0
   19.3795  -16.8829  -14.6001 C   0  0  0  0  0  0  0  0  0  0  0  0
   23.5426  -18.6100  -16.2201 C   0  0  0  0  0  0  0  0  0  0  0  0
   23.5680  -19.8530  -16.3836 O   0  0  0  0  0  0  0  0  0  0  0  0
   24.6835  -17.9225  -15.7480 N   0  0  0  0  0  0  0  0  0  0  0  0
   25.8747  -18.6190  -15.3017 C   0  0  1  0  0  0  0  0  0  0  0  0
   27.0920  -17.7409  -15.4482 C   0  0  0  0  0  0  0  0  0  0  0  0
   28.3013  -18.5794  -15.1464 C   0  0  0  0  0  0  0  0  0  0  0  0
   28.5190  -19.6082  -16.2317 C   0  0  0  0  0  0  0  0  0  0  0  0
   29.7230  -20.4786  -15.9717 C   0  0  0  0  0  0  0  0  0  0  0  0
   29.8222  -21.3927  -17.1171 N   0  0  0  0  0  0  0  0  0  0  0  0
   25.7098  -18.9902  -13.8588 C   0  0  0  0  0  0  0  0  0  0  0  0
   25.3862  -18.1004  -13.0409 O   0  0  0  0  0  0  0  0  0  0  0  0
   25.9189  -20.3321  -13.4297 N   0  0  0  0  0  0  0  0  0  0  0  0
   25.8059  -20.6859  -12.0300 C   0  0  1  0  0  0  0  0  0  0  0  0
   24.3937  -20.3493  -11.5813 C   0  0  0  0  0  0  0  0  0  0  0  0
   24.3799  -19.9438   -9.7976 S   0  0  0  0  0  0  0  0  0  0  0  0
   26.0584  -22.1404  -11.8491 C   0  0  0  0  0  0  0  0  0  0  0  0
   26.4505  -22.6852  -10.6351 O   0  0  0  0  0  0  0  0  0  0  0  0
   25.9129  -22.9126  -12.8299 O   0  0  0  0  0  0  0  0  0  0  0  0
  2  1  1  6
  2 13  1  0
  2  3  1  0
  3  4  1  0
  4  5  2  0
  5  6  1  0
  7  6  1  0
  8  7  2  0
  9  8  1  0
 10 11  1  0
 10  9  2  0
 11 12  2  0
 12  4  1  0
 12  7  1  0
 13 14  2  0
 15 13  1  0
 15 16  1  0
 16 17  1  1
 17 18  1  0
 19 18  1  0
 20 21  1  0
 20 19  1  0
 22 24  1  0
 22 16  1  0
 23 22  2  0
 25 28  1  0
 25 26  1  6
 25 24  1  0
 27 26  1  0
 28 29  1  0
 30 28  2  0
M  END
$$$$
