WKC.pdb
     RDKit          3D

 30 31  0  0  1  0  0  0  0  0999 V2000
   24.5891  -19.4284  -11.6801 N   0  0  0  0  0  0  0  0  0  0  0  0
   25.7246  -20.2754  -11.8426 C   0  0  1  0  0  0  0  0  0  0  0  0
   25.7864  -21.4202  -10.8600 C   0  0  0  0  0  0  0  0  0  0  0  0
   26.1712  -20.9784   -9.5054 C   0  0  0  0  0  0  0  0  0  0  0  0
   25.3350  -20.6387   -8.4628 C   0  0  0  0  0  0  0  0  0  0  0  0
   26.1158  -20.2999   -7.4257 N   0  0  0  0  0  0  0  0  0  0  0  0
   27.4254  -20.4148   -7.7802 C   0  0  0  0  0  0  0  0  0  0  0  0
   28.6027  -20.1846   -7.0770 C   0  0  0  0  0  0  0  0  0  0  0  0
   29.8049  -20.3911   -7.7122 C   0  0  0  0  0  0  0  0  0  0  0  0
   29.8915  -20.8224   -9.0345 C   0  0  0  0  0  0  0  0  0  0  0  0
   28.7178  -21.0399   -9.6986 C   0  0  0  0  0  0  0  0  0  0  0  0
   27.4920  -20.8433   -9.0937 C   0  0  0  0  0  0  0  0  0  0  0  0
   25.7685  -20.7638  -13.2414 C   0  0  0  0  0  0  0  0  0  0  0  0
   24.7024  -21.1455  -13.7800 O   0  0  0  0  0  0  0  0  0  0  0  0
   26.9882  -20.7993  -13.9543 N   0  0  0  0  0  0  0  0  0  0  0  0
   27.0437  -21.0837  -15.3753 C   0  0  1  0  0  0  0  0  0  0  0  0
   28.4225  -20.8082  -15.9206 C   0  0  0  0  0  0  0  0  0  0  0  0
   28.3741  -21.0024  -17.4095 C   0  0  0  0  0  0  0  0  0  0  0  0
   27.2682  -20.1715  -18.0181 C   0  0  0  0  0  0  0  0  0  0  0  0
   27.2036  -20.3036  -19.5192 C   0  0  0  0  0  0  0  0  0  0  0  0
   26.1025  -19.4367  -19.9592 N   0  0  0  0  0  0  0  0  0  0  0  0
   26.7098  -22.5283  -15.5962 C   0  0  0  0  0  0  0  0  0  0  0  0
   27.4305  -23.4014  -15.0637 O   0  0  0  0  0  0  0  0  0  0  0  0
   25.5921  -22.8969  -16.3983 N   0  0  0  0  0  0  0  0  0  0  0  0
   25.2178  -24.2877  -16.5488 C   0  0  1  0  0  0  0  0  0  0  0  0
   23.7353  -24.4031  -16.2359 C   0  0  0  0  0  0  0  0  0  0  0  0
   23.2483  -26.1635  -16.1368 S   0  0  0  0  0  0  0  0  0  0  0  0
   25.4745  -24.7374  -17.9430 C   0  0  0  0  0  0  0  0  0  0  0  0
   26.0456  -25.9667  -18.2382 O   0  0  0  0  0  0  0  0  0  0  0  0
   25.1647  -23.9796  -18.8966 O   0  0  0  0  0  0  0  0  0  0  0  0
  2  1  1  6
  2 13  1  0
  2  3  1  0
  3  4  1  0
  4  5  2  0
  5  6  1  0
  7  6  1  0
  8  7  2  0
  9  8  1  0
 10 11  1  0
 10  9  2  0
 11 12  2  0
 12  4  1  0
 12  7  1  0
 13 14  2  0
 15 13  1  0
 15 16  1  0
 16 17  1  1
 17 18  1  0
 19 18  1  0
 20 21  1  0
 20 19  1  0
 22 24  1  0
 22 16  1  0
 23 22  2  0
 25 28  1  0
 25 26  1  6
 25 24  1  0
 27 26  1  0
 28 29  1  0
 30 28  2  0
M  END
$$$$
