WKC.pdb
     RDKit          3D

 30 31  0  0  1  0  0  0  0  0999 V2000
   27.8326  -20.6724  -13.5945 N   0  0  0  0  0  0  0  0  0  0  0  0
   26.8500  -21.4093  -12.8701 C   0  0  1  0  0  0  0  0  0  0  0  0
   26.5388  -20.8460  -11.5043 C   0  0  0  0  0  0  0  0  0  0  0  0
   27.6989  -20.9051  -10.5939 C   0  0  0  0  0  0  0  0  0  0  0  0
   29.0096  -21.1837  -10.9195 C   0  0  0  0  0  0  0  0  0  0  0  0
   29.7185  -21.1293   -9.7817 N   0  0  0  0  0  0  0  0  0  0  0  0
   28.8945  -20.8238   -8.7416 C   0  0  0  0  0  0  0  0  0  0  0  0
   29.1360  -20.6538   -7.3828 C   0  0  0  0  0  0  0  0  0  0  0  0
   28.0819  -20.3417   -6.5566 C   0  0  0  0  0  0  0  0  0  0  0  0
   26.7789  -20.1886   -7.0264 C   0  0  0  0  0  0  0  0  0  0  0  0
   26.5736  -20.3619   -8.3657 C   0  0  0  0  0  0  0  0  0  0  0  0
   27.6073  -20.6757   -9.2260 C   0  0  0  0  0  0  0  0  0  0  0  0
   25.6249  -21.5255  -13.6964 C   0  0  0  0  0  0  0  0  0  0  0  0
   25.1590  -20.4916  -14.2318 O   0  0  0  0  0  0  0  0  0  0  0  0
   24.9934  -22.7767  -13.8769 N   0  0  0  0  0  0  0  0  0  0  0  0
   23.7657  -22.9195  -14.6357 C   0  0  1  0  0  0  0  0  0  0  0  0
   23.5737  -24.3495  -15.0747 C   0  0  0  0  0  0  0  0  0  0  0  0
   24.0423  -24.4592  -16.4977 C   0  0  0  0  0  0  0  0  0  0  0  0
   23.8961  -25.8778  -16.9975 C   0  0  0  0  0  0  0  0  0  0  0  0
   24.9437  -26.8027  -16.4299 C   0  0  0  0  0  0  0  0  0  0  0  0
   24.6682  -28.1296  -16.9963 N   0  0  0  0  0  0  0  0  0  0  0  0
   22.6097  -22.5132  -13.7724 C   0  0  0  0  0  0  0  0  0  0  0  0
   22.7823  -22.4254  -12.5364 O   0  0  0  0  0  0  0  0  0  0  0  0
   21.3390  -22.2332  -14.3517 N   0  0  0  0  0  0  0  0  0  0  0  0
   20.3149  -21.5489  -13.5901 C   0  0  1  0  0  0  0  0  0  0  0  0
   20.8029  -20.1339  -13.3277 C   0  0  0  0  0  0  0  0  0  0  0  0
   19.5263  -19.1854  -12.4240 S   0  0  0  0  0  0  0  0  0  0  0  0
   19.0452  -21.5081  -14.3634 C   0  0  0  0  0  0  0  0  0  0  0  0
   17.7988  -21.5628  -13.7567 O   0  0  0  0  0  0  0  0  0  0  0  0
   19.0950  -21.4208  -15.6162 O   0  0  0  0  0  0  0  0  0  0  0  0
  2  1  1  6
  2 13  1  0
  2  3  1  0
  3  4  1  0
  4  5  2  0
  5  6  1  0
  7  6  1  0
  8  7  2  0
  9  8  1  0
 10 11  1  0
 10  9  2  0
 11 12  2  0
 12  4  1  0
 12  7  1  0
 13 14  2  0
 15 13  1  0
 15 16  1  0
 16 17  1  1
 17 18  1  0
 19 18  1  0
 20 21  1  0
 20 19  1  0
 22 24  1  0
 22 16  1  0
 23 22  2  0
 25 28  1  0
 25 26  1  6
 25 24  1  0
 27 26  1  0
 28 29  1  0
 30 28  2  0
M  END
$$$$
