WKC.pdb
     RDKit          3D

 30 31  0  0  1  0  0  0  0  0999 V2000
   27.2537  -18.9804  -13.0121 N   0  0  0  0  0  0  0  0  0  0  0  0
   27.7280  -20.3184  -12.8780 C   0  0  1  0  0  0  0  0  0  0  0  0
   26.7185  -21.2751  -12.2904 C   0  0  0  0  0  0  0  0  0  0  0  0
   26.3314  -20.9089  -10.9141 C   0  0  0  0  0  0  0  0  0  0  0  0
   25.0780  -20.5583  -10.4584 C   0  0  0  0  0  0  0  0  0  0  0  0
   25.1920  -20.3070   -9.1454 N   0  0  0  0  0  0  0  0  0  0  0  0
   26.4834  -20.4881   -8.7538 C   0  0  0  0  0  0  0  0  0  0  0  0
   27.1075  -20.3568   -7.5181 C   0  0  0  0  0  0  0  0  0  0  0  0
   28.4557  -20.6121   -7.4264 C   0  0  0  0  0  0  0  0  0  0  0  0
   29.2235  -20.9979   -8.5235 C   0  0  0  0  0  0  0  0  0  0  0  0
   28.5820  -21.1182   -9.7235 C   0  0  0  0  0  0  0  0  0  0  0  0
   27.2297  -20.8702   -9.8540 C   0  0  0  0  0  0  0  0  0  0  0  0
   28.2171  -20.7933  -14.1942 C   0  0  0  0  0  0  0  0  0  0  0  0
   27.9767  -20.1011  -15.2118 O   0  0  0  0  0  0  0  0  0  0  0  0
   28.9397  -22.0031  -14.3007 N   0  0  0  0  0  0  0  0  0  0  0  0
   29.4673  -22.4784  -15.5652 C   0  0  1  0  0  0  0  0  0  0  0  0
   30.2967  -23.7216  -15.3633 C   0  0  0  0  0  0  0  0  0  0  0  0
   31.5345  -23.5887  -16.2041 C   0  0  0  0  0  0  0  0  0  0  0  0
   32.4324  -24.7904  -16.0217 C   0  0  0  0  0  0  0  0  0  0  0  0
   33.7421  -24.6517  -16.7568 C   0  0  0  0  0  0  0  0  0  0  0  0
   34.5361  -25.8364  -16.4052 N   0  0  0  0  0  0  0  0  0  0  0  0
   28.3240  -22.7963  -16.4811 C   0  0  0  0  0  0  0  0  0  0  0  0
   27.3097  -23.3548  -16.0073 O   0  0  0  0  0  0  0  0  0  0  0  0
   28.3944  -22.4677  -17.8652 N   0  0  0  0  0  0  0  0  0  0  0  0
   27.3028  -22.7957  -18.7584 C   0  0  1  0  0  0  0  0  0  0  0  0
   26.6926  -21.4902  -19.2405 C   0  0  0  0  0  0  0  0  0  0  0  0
   25.0467  -21.7988  -19.9765 S   0  0  0  0  0  0  0  0  0  0  0  0
   27.8101  -23.5735  -19.9202 C   0  0  0  0  0  0  0  0  0  0  0  0
   27.0678  -24.5738  -20.5310 O   0  0  0  0  0  0  0  0  0  0  0  0
   28.9552  -23.3205  -20.3722 O   0  0  0  0  0  0  0  0  0  0  0  0
  2  1  1  6
  2 13  1  0
  2  3  1  0
  3  4  1  0
  4  5  2  0
  5  6  1  0
  7  6  1  0
  8  7  2  0
  9  8  1  0
 10 11  1  0
 10  9  2  0
 11 12  2  0
 12  4  1  0
 12  7  1  0
 13 14  2  0
 15 13  1  0
 15 16  1  0
 16 17  1  1
 17 18  1  0
 19 18  1  0
 20 21  1  0
 20 19  1  0
 22 24  1  0
 22 16  1  0
 23 22  2  0
 25 28  1  0
 25 26  1  6
 25 24  1  0
 27 26  1  0
 28 29  1  0
 30 28  2  0
M  END
$$$$
