WKC.pdb
     RDKit          3D

 30 31  0  0  1  0  0  0  0  0999 V2000
   24.7544  -19.2693  -11.7693 N   0  0  0  0  0  0  0  0  0  0  0  0
   25.8012  -20.2027  -12.0265 C   0  0  1  0  0  0  0  0  0  0  0  0
   25.8254  -21.3790  -11.0802 C   0  0  0  0  0  0  0  0  0  0  0  0
   26.0225  -20.9676   -9.6765 C   0  0  0  0  0  0  0  0  0  0  0  0
   25.0764  -20.4690   -8.8059 C   0  0  0  0  0  0  0  0  0  0  0  0
   25.6988  -20.2318   -7.6413 N   0  0  0  0  0  0  0  0  0  0  0  0
   27.0145  -20.5657   -7.7475 C   0  0  0  0  0  0  0  0  0  0  0  0
   28.0647  -20.5086   -6.8378 C   0  0  0  0  0  0  0  0  0  0  0  0
   29.3127  -20.9234   -7.2400 C   0  0  0  0  0  0  0  0  0  0  0  0
   29.5683  -21.3995   -8.5245 C   0  0  0  0  0  0  0  0  0  0  0  0
   28.5166  -21.4435   -9.3950 C   0  0  0  0  0  0  0  0  0  0  0  0
   27.2496  -21.0356   -9.0270 C   0  0  0  0  0  0  0  0  0  0  0  0
   25.7167  -20.6488  -13.4375 C   0  0  0  0  0  0  0  0  0  0  0  0
   24.5849  -20.7764  -13.9623 O   0  0  0  0  0  0  0  0  0  0  0  0
   26.8886  -20.9256  -14.1772 N   0  0  0  0  0  0  0  0  0  0  0  0
   26.8516  -21.2428  -15.5918 C   0  0  1  0  0  0  0  0  0  0  0  0
   28.1849  -20.9589  -16.2368 C   0  0  0  0  0  0  0  0  0  0  0  0
   28.2188  -19.5010  -16.5973 C   0  0  0  0  0  0  0  0  0  0  0  0
   29.4906  -19.1671  -17.3421 C   0  0  0  0  0  0  0  0  0  0  0  0
   29.5211  -17.7385  -17.8249 C   0  0  0  0  0  0  0  0  0  0  0  0
   30.8139  -17.5620  -18.4994 N   0  0  0  0  0  0  0  0  0  0  0  0
   26.5282  -22.6972  -15.7564 C   0  0  0  0  0  0  0  0  0  0  0  0
   27.4569  -23.5326  -15.6866 O   0  0  0  0  0  0  0  0  0  0  0  0
   25.1872  -23.1173  -15.9882 N   0  0  0  0  0  0  0  0  0  0  0  0
   24.8697  -24.5216  -16.1441 C   0  0  1  0  0  0  0  0  0  0  0  0
   24.9870  -25.1758  -14.7776 C   0  0  0  0  0  0  0  0  0  0  0  0
   23.5663  -24.6999  -13.7282 S   0  0  0  0  0  0  0  0  0  0  0  0
   23.4833  -24.6773  -16.6595 C   0  0  0  0  0  0  0  0  0  0  0  0
   22.6215  -23.6024  -16.8216 O   0  0  0  0  0  0  0  0  0  0  0  0
   23.0689  -25.8246  -16.9621 O   0  0  0  0  0  0  0  0  0  0  0  0
  2  1  1  1
  2 13  1  0
  2  3  1  0
  3  4  1  0
  4  5  2  0
  5  6  1  0
  7  6  1  0
  8  7  2  0
  9  8  1  0
 10 11  1  0
 10  9  2  0
 11 12  2  0
 12  4  1  0
 12  7  1  0
 13 14  2  0
 15 13  1  0
 15 16  1  0
 16 17  1  1
 17 18  1  0
 19 18  1  0
 20 21  1  0
 20 19  1  0
 22 24  1  0
 22 16  1  0
 23 22  2  0
 25 28  1  0
 25 26  1  1
 25 24  1  0
 27 26  1  0
 28 29  1  0
 30 28  2  0
M  END
$$$$
