WKC.pdb
     RDKit          3D

 30 31  0  0  1  0  0  0  0  0999 V2000
   27.3408  -21.0573  -12.9688 N   0  0  0  0  0  0  0  0  0  0  0  0
   26.2433  -21.4188  -12.1333 C   0  0  1  0  0  0  0  0  0  0  0  0
   26.1589  -20.6291  -10.8492 C   0  0  0  0  0  0  0  0  0  0  0  0
   27.4234  -20.6556  -10.0885 C   0  0  0  0  0  0  0  0  0  0  0  0
   28.7070  -20.6777  -10.5920 C   0  0  0  0  0  0  0  0  0  0  0  0
   29.5419  -20.6977   -9.5420 N   0  0  0  0  0  0  0  0  0  0  0  0
   28.8244  -20.6890   -8.3847 C   0  0  0  0  0  0  0  0  0  0  0  0
   29.2130  -20.7018   -7.0497 C   0  0  0  0  0  0  0  0  0  0  0  0
   28.2412  -20.6876   -6.0768 C   0  0  0  0  0  0  0  0  0  0  0  0
   26.8802  -20.6608   -6.3748 C   0  0  0  0  0  0  0  0  0  0  0  0
   26.5301  -20.6487   -7.6951 C   0  0  0  0  0  0  0  0  0  0  0  0
   27.4778  -20.6623   -8.6995 C   0  0  0  0  0  0  0  0  0  0  0  0
   24.9866  -21.3152  -12.9125 C   0  0  0  0  0  0  0  0  0  0  0  0
   24.4636  -20.1858  -13.0649 O   0  0  0  0  0  0  0  0  0  0  0  0
   24.3888  -22.4669  -13.4722 N   0  0  0  0  0  0  0  0  0  0  0  0
   23.2304  -22.3904  -14.3415 C   0  0  1  0  0  0  0  0  0  0  0  0
   23.1321  -23.6207  -15.2081 C   0  0  0  0  0  0  0  0  0  0  0  0
   23.9939  -23.3991  -16.4184 C   0  0  0  0  0  0  0  0  0  0  0  0
   25.4148  -23.8359  -16.1463 C   0  0  0  0  0  0  0  0  0  0  0  0
   25.5924  -25.3298  -16.2549 C   0  0  0  0  0  0  0  0  0  0  0  0
   27.0346  -25.5802  -16.1344 N   0  0  0  0  0  0  0  0  0  0  0  0
   21.9953  -22.2856  -13.4986 C   0  0  0  0  0  0  0  0  0  0  0  0
   22.0262  -22.7238  -12.3272 O   0  0  0  0  0  0  0  0  0  0  0  0
   20.8095  -21.6977  -14.0248 N   0  0  0  0  0  0  0  0  0  0  0  0
   19.8521  -21.0554  -13.1485 C   0  0  1  0  0  0  0  0  0  0  0  0
   20.5450  -19.8699  -12.4976 C   0  0  0  0  0  0  0  0  0  0  0  0
   19.3854  -18.9965  -11.3847 S   0  0  0  0  0  0  0  0  0  0  0  0
   18.6788  -20.5846  -13.9319 C   0  0  0  0  0  0  0  0  0  0  0  0
   17.3917  -20.5715  -13.4145 O   0  0  0  0  0  0  0  0  0  0  0  0
   18.8520  -20.1813  -15.1095 O   0  0  0  0  0  0  0  0  0  0  0  0
  2  1  1  6
  2 13  1  0
  2  3  1  0
  3  4  1  0
  4  5  2  0
  5  6  1  0
  7  6  1  0
  8  7  2  0
  9  8  1  0
 10 11  1  0
 10  9  2  0
 11 12  2  0
 12  4  1  0
 12  7  1  0
 13 14  2  0
 15 13  1  0
 15 16  1  0
 16 17  1  1
 17 18  1  0
 19 18  1  0
 20 21  1  0
 20 19  1  0
 22 24  1  0
 22 16  1  0
 23 22  2  0
 25 28  1  0
 25 26  1  6
 25 24  1  0
 27 26  1  0
 28 29  1  0
 30 28  2  0
M  END
$$$$
