WKC.pdb
     RDKit          3D

 30 31  0  0  1  0  0  0  0  0999 V2000
   24.0937  -20.1536  -11.7846 N   0  0  0  0  0  0  0  0  0  0  0  0
   25.4790  -20.4220  -11.9904 C   0  0  1  0  0  0  0  0  0  0  0  0
   26.0489  -21.4696  -11.0644 C   0  0  0  0  0  0  0  0  0  0  0  0
   26.3150  -20.9404   -9.7125 C   0  0  0  0  0  0  0  0  0  0  0  0
   25.3930  -20.6226   -8.7376 C   0  0  0  0  0  0  0  0  0  0  0  0
   26.0806  -20.1786   -7.6746 N   0  0  0  0  0  0  0  0  0  0  0  0
   27.4145  -20.2053   -7.9468 C   0  0  0  0  0  0  0  0  0  0  0  0
   28.5254  -19.8528   -7.1885 C   0  0  0  0  0  0  0  0  0  0  0  0
   29.7766  -19.9913   -7.7424 C   0  0  0  0  0  0  0  0  0  0  0  0
   29.9767  -20.4716   -9.0352 C   0  0  0  0  0  0  0  0  0  0  0  0
   28.8660  -20.8095   -9.7549 C   0  0  0  0  0  0  0  0  0  0  0  0
   27.5940  -20.6840   -9.2321 C   0  0  0  0  0  0  0  0  0  0  0  0
   25.6966  -20.7838  -13.4112 C   0  0  0  0  0  0  0  0  0  0  0  0
   24.8021  -21.4236  -14.0138 O   0  0  0  0  0  0  0  0  0  0  0  0
   26.8891  -20.4157  -14.0741 N   0  0  0  0  0  0  0  0  0  0  0  0
   27.0965  -20.6686  -15.4870 C   0  0  1  0  0  0  0  0  0  0  0  0
   28.2388  -19.8376  -16.0152 C   0  0  0  0  0  0  0  0  0  0  0  0
   27.6950  -18.9422  -17.0919 C   0  0  0  0  0  0  0  0  0  0  0  0
   28.4486  -17.6328  -17.1250 C   0  0  0  0  0  0  0  0  0  0  0  0
   27.9994  -16.7343  -18.2501 C   0  0  0  0  0  0  0  0  0  0  0  0
   28.8156  -15.5170  -18.1524 N   0  0  0  0  0  0  0  0  0  0  0  0
   27.4173  -22.1201  -15.6799 C   0  0  0  0  0  0  0  0  0  0  0  0
   28.3051  -22.6407  -14.9684 O   0  0  0  0  0  0  0  0  0  0  0  0
   26.7226  -22.8899  -16.6563 N   0  0  0  0  0  0  0  0  0  0  0  0
   26.9806  -24.3077  -16.7993 C   0  0  1  0  0  0  0  0  0  0  0  0
   26.4893  -24.9959  -15.5367 C   0  0  0  0  0  0  0  0  0  0  0  0
   24.6704  -24.8511  -15.4082 S   0  0  0  0  0  0  0  0  0  0  0  0
   26.2517  -24.8425  -17.9803 C   0  0  0  0  0  0  0  0  0  0  0  0
   26.3770  -26.1580  -18.4026 O   0  0  0  0  0  0  0  0  0  0  0  0
   25.4905  -24.0790  -18.6261 O   0  0  0  0  0  0  0  0  0  0  0  0
  2  1  1  6
  2 13  1  0
  2  3  1  0
  3  4  1  0
  4  5  2  0
  5  6  1  0
  7  6  1  0
  8  7  2  0
  9  8  1  0
 10 11  1  0
 10  9  2  0
 11 12  2  0
 12  4  1  0
 12  7  1  0
 13 14  2  0
 15 13  1  0
 15 16  1  0
 16 17  1  1
 17 18  1  0
 19 18  1  0
 20 21  1  0
 20 19  1  0
 22 24  1  0
 22 16  1  0
 23 22  2  0
 25 28  1  0
 25 26  1  1
 25 24  1  0
 27 26  1  0
 28 29  1  0
 30 28  2  0
M  END
$$$$
