WKC.pdb
     RDKit          3D

 30 31  0  0  1  0  0  0  0  0999 V2000
   26.6668  -22.7231  -13.0610 N   0  0  0  0  0  0  0  0  0  0  0  0
   25.8812  -21.7593  -12.3630 C   0  0  1  0  0  0  0  0  0  0  0  0
   26.5851  -20.4450  -12.1247 C   0  0  0  0  0  0  0  0  0  0  0  0
   27.7113  -20.5734  -11.1795 C   0  0  0  0  0  0  0  0  0  0  0  0
   29.0491  -20.7190  -11.4807 C   0  0  0  0  0  0  0  0  0  0  0  0
   29.7091  -20.7976  -10.3152 N   0  0  0  0  0  0  0  0  0  0  0  0
   28.8277  -20.7062   -9.2814 C   0  0  0  0  0  0  0  0  0  0  0  0
   29.0058  -20.7331   -7.9026 C   0  0  0  0  0  0  0  0  0  0  0  0
   27.9026  -20.6161   -7.0898 C   0  0  0  0  0  0  0  0  0  0  0  0
   26.6110  -20.4715   -7.5926 C   0  0  0  0  0  0  0  0  0  0  0  0
   26.4686  -20.4485   -8.9510 C   0  0  0  0  0  0  0  0  0  0  0  0
   27.5528  -20.5632   -9.7986 C   0  0  0  0  0  0  0  0  0  0  0  0
   24.6022  -21.5617  -13.0856 C   0  0  0  0  0  0  0  0  0  0  0  0
   24.6079  -21.5901  -14.3393 O   0  0  0  0  0  0  0  0  0  0  0  0
   23.3996  -21.3448  -12.3758 N   0  0  0  0  0  0  0  0  0  0  0  0
   22.1090  -21.3099  -13.0364 C   0  0  1  0  0  0  0  0  0  0  0  0
   20.9961  -21.5373  -12.0443 C   0  0  0  0  0  0  0  0  0  0  0  0
   19.7275  -21.7527  -12.8196 C   0  0  0  0  0  0  0  0  0  0  0  0
   18.5706  -22.0150  -11.8834 C   0  0  0  0  0  0  0  0  0  0  0  0
   17.2774  -22.2675  -12.6174 C   0  0  0  0  0  0  0  0  0  0  0  0
   16.2521  -22.4636  -11.5841 N   0  0  0  0  0  0  0  0  0  0  0  0
   21.9263  -19.9673  -13.6774 C   0  0  0  0  0  0  0  0  0  0  0  0
   22.5578  -18.9896  -13.2186 O   0  0  0  0  0  0  0  0  0  0  0  0
   21.0487  -19.8106  -14.7882 N   0  0  0  0  0  0  0  0  0  0  0  0
   21.1065  -18.6218  -15.6131 C   0  0  1  0  0  0  0  0  0  0  0  0
   22.4964  -18.5505  -16.2233 C   0  0  0  0  0  0  0  0  0  0  0  0
   22.6005  -17.1447  -17.3890 S   0  0  0  0  0  0  0  0  0  0  0  0
   20.0862  -18.6992  -16.6924 C   0  0  0  0  0  0  0  0  0  0  0  0
   19.2621  -17.6322  -17.0193 O   0  0  0  0  0  0  0  0  0  0  0  0
   19.9596  -19.7699  -17.3382 O   0  0  0  0  0  0  0  0  0  0  0  0
  2  1  1  6
  2 13  1  0
  2  3  1  0
  3  4  1  0
  4  5  2  0
  5  6  1  0
  7  6  1  0
  8  7  2  0
  9  8  1  0
 10 11  1  0
 10  9  2  0
 11 12  2  0
 12  4  1  0
 12  7  1  0
 13 14  2  0
 15 13  1  0
 15 16  1  0
 16 17  1  1
 17 18  1  0
 19 18  1  0
 20 21  1  0
 20 19  1  0
 22 24  1  0
 22 16  1  0
 23 22  2  0
 25 28  1  0
 25 26  1  6
 25 24  1  0
 27 26  1  0
 28 29  1  0
 30 28  2  0
M  END
$$$$
