WKC.pdb
     RDKit          3D

 30 31  0  0  1  0  0  0  0  0999 V2000
   28.1475  -20.5793   -9.9256 N   0  0  0  0  0  0  0  0  0  0  0  0
   26.8402  -21.1107   -9.7209 C   0  0  1  0  0  0  0  0  0  0  0  0
   26.0952  -20.4885   -8.5644 C   0  0  0  0  0  0  0  0  0  0  0  0
   26.9650  -19.6403   -7.7263 C   0  0  0  0  0  0  0  0  0  0  0  0
   27.3739  -18.3477   -7.9784 C   0  0  0  0  0  0  0  0  0  0  0  0
   28.1520  -17.9731   -6.9517 N   0  0  0  0  0  0  0  0  0  0  0  0
   28.2491  -18.9921   -6.0536 C   0  0  0  0  0  0  0  0  0  0  0  0
   28.9260  -19.1042   -4.8442 C   0  0  0  0  0  0  0  0  0  0  0  0
   28.8365  -20.2832   -4.1418 C   0  0  0  0  0  0  0  0  0  0  0  0
   28.0936  -21.3722   -4.5936 C   0  0  0  0  0  0  0  0  0  0  0  0
   27.4401  -21.2313   -5.7848 C   0  0  0  0  0  0  0  0  0  0  0  0
   27.5067  -20.0629   -6.5178 C   0  0  0  0  0  0  0  0  0  0  0  0
   26.0685  -20.9978  -10.9814 C   0  0  0  0  0  0  0  0  0  0  0  0
   26.1799  -19.9520  -11.6644 O   0  0  0  0  0  0  0  0  0  0  0  0
   25.2229  -22.0478  -11.4052 N   0  0  0  0  0  0  0  0  0  0  0  0
   24.5732  -22.0402  -12.7018 C   0  0  1  0  0  0  0  0  0  0  0  0
   24.1862  -23.4388  -13.1122 C   0  0  0  0  0  0  0  0  0  0  0  0
   23.9655  -23.4362  -14.5981 C   0  0  0  0  0  0  0  0  0  0  0  0
   25.1900  -23.9517  -15.3182 C   0  0  0  0  0  0  0  0  0  0  0  0
   25.0000  -24.0129  -16.8132 C   0  0  0  0  0  0  0  0  0  0  0  0
   26.3076  -24.3722  -17.3775 N   0  0  0  0  0  0  0  0  0  0  0  0
   23.3384  -21.1941  -12.6227 C   0  0  0  0  0  0  0  0  0  0  0  0
   22.6563  -21.2202  -11.5743 O   0  0  0  0  0  0  0  0  0  0  0  0
   22.9513  -20.3766  -13.7229 N   0  0  0  0  0  0  0  0  0  0  0  0
   21.7718  -19.5402  -13.6423 C   0  0  1  0  0  0  0  0  0  0  0  0
   21.7969  -18.5914  -14.8291 C   0  0  0  0  0  0  0  0  0  0  0  0
   23.2463  -17.4813  -14.7166 S   0  0  0  0  0  0  0  0  0  0  0  0
   20.5457  -20.3803  -13.6954 C   0  0  0  0  0  0  0  0  0  0  0  0
   19.3391  -19.9767  -13.1425 O   0  0  0  0  0  0  0  0  0  0  0  0
   20.5967  -21.5013  -14.2615 O   0  0  0  0  0  0  0  0  0  0  0  0
  2  1  1  6
  2 13  1  0
  2  3  1  0
  3  4  1  0
  4  5  2  0
  5  6  1  0
  7  6  1  0
  8  7  2  0
  9  8  1  0
 10 11  1  0
 10  9  2  0
 11 12  2  0
 12  4  1  0
 12  7  1  0
 13 14  2  0
 15 13  1  0
 15 16  1  0
 16 17  1  1
 17 18  1  0
 19 18  1  0
 20 21  1  0
 20 19  1  0
 22 24  1  0
 22 16  1  0
 23 22  2  0
 25 28  1  0
 25 26  1  6
 25 24  1  0
 27 26  1  0
 28 29  1  0
 30 28  2  0
M  END
$$$$
