WKC.pdb
     RDKit          3D

 30 31  0  0  1  0  0  0  0  0999 V2000
   24.2990  -18.0367  -17.4160 N   0  0  0  0  0  0  0  0  0  0  0  0
   24.8552  -19.0922  -16.6351 C   0  0  1  0  0  0  0  0  0  0  0  0
   25.3608  -18.6573  -15.2805 C   0  0  0  0  0  0  0  0  0  0  0  0
   26.4150  -17.6289  -15.3773 C   0  0  0  0  0  0  0  0  0  0  0  0
   26.4750  -16.4216  -14.7137 C   0  0  0  0  0  0  0  0  0  0  0  0
   27.6046  -15.8126  -15.1050 N   0  0  0  0  0  0  0  0  0  0  0  0
   28.2645  -16.5995  -15.9991 C   0  0  0  0  0  0  0  0  0  0  0  0
   29.4602  -16.4243  -16.6869 C   0  0  0  0  0  0  0  0  0  0  0  0
   29.8832  -17.4141  -17.5428 C   0  0  0  0  0  0  0  0  0  0  0  0
   29.1609  -18.5878  -17.7494 C   0  0  0  0  0  0  0  0  0  0  0  0
   27.9906  -18.7306  -17.0595 C   0  0  0  0  0  0  0  0  0  0  0  0
   27.5341  -17.7583  -16.1916 C   0  0  0  0  0  0  0  0  0  0  0  0
   23.8579  -20.1819  -16.5130 C   0  0  0  0  0  0  0  0  0  0  0  0
   22.6411  -19.8825  -16.4646 O   0  0  0  0  0  0  0  0  0  0  0  0
   24.2700  -21.5323  -16.4517 N   0  0  0  0  0  0  0  0  0  0  0  0
   23.3240  -22.6223  -16.3086 C   0  0  1  0  0  0  0  0  0  0  0  0
   24.0262  -23.9535  -16.4043 C   0  0  0  0  0  0  0  0  0  0  0  0
   25.4993  -23.6870  -16.5298 C   0  0  0  0  0  0  0  0  0  0  0  0
   26.2790  -24.9807  -16.4861 C   0  0  0  0  0  0  0  0  0  0  0  0
   27.7699  -24.7608  -16.5483 C   0  0  0  0  0  0  0  0  0  0  0  0
   28.3856  -26.0859  -16.3979 N   0  0  0  0  0  0  0  0  0  0  0  0
   22.6574  -22.5158  -14.9702 C   0  0  0  0  0  0  0  0  0  0  0  0
   23.2211  -21.8592  -14.0668 O   0  0  0  0  0  0  0  0  0  0  0  0
   21.4051  -23.1521  -14.7344 N   0  0  0  0  0  0  0  0  0  0  0  0
   20.7301  -23.0048  -13.4617 C   0  0  1  0  0  0  0  0  0  0  0  0
   20.2868  -21.5565  -13.3392 C   0  0  0  0  0  0  0  0  0  0  0  0
   19.3168  -21.3228  -11.8061 S   0  0  0  0  0  0  0  0  0  0  0  0
   19.5442  -23.9006  -13.4062 C   0  0  0  0  0  0  0  0  0  0  0  0
   19.0359  -24.3942  -12.2135 O   0  0  0  0  0  0  0  0  0  0  0  0
   18.9745  -24.2277  -14.4777 O   0  0  0  0  0  0  0  0  0  0  0  0
  2  1  1  1
  2 13  1  0
  2  3  1  0
  3  4  1  0
  4  5  2  0
  5  6  1  0
  7  6  1  0
  8  7  2  0
  9  8  1  0
 10 11  1  0
 10  9  2  0
 11 12  2  0
 12  4  1  0
 12  7  1  0
 13 14  2  0
 15 13  1  0
 15 16  1  0
 16 17  1  1
 17 18  1  0
 19 18  1  0
 20 21  1  0
 20 19  1  0
 22 24  1  0
 22 16  1  0
 23 22  2  0
 25 28  1  0
 25 26  1  6
 25 24  1  0
 27 26  1  0
 28 29  1  0
 30 28  2  0
M  END
$$$$
