WKC.pdb
     RDKit          3D

 30 31  0  0  1  0  0  0  0  0999 V2000
   27.3973  -22.3034  -13.6986 N   0  0  0  0  0  0  0  0  0  0  0  0
   26.3604  -21.6025  -13.0153 C   0  0  1  0  0  0  0  0  0  0  0  0
   26.7985  -20.2919  -12.4069 C   0  0  0  0  0  0  0  0  0  0  0  0
   27.7482  -20.4787  -11.2927 C   0  0  0  0  0  0  0  0  0  0  0  0
   29.1095  -20.6837  -11.3737 C   0  0  0  0  0  0  0  0  0  0  0  0
   29.5659  -20.8009  -10.1176 N   0  0  0  0  0  0  0  0  0  0  0  0
   28.5322  -20.6762   -9.2400 C   0  0  0  0  0  0  0  0  0  0  0  0
   28.4810  -20.7209   -7.8512 C   0  0  0  0  0  0  0  0  0  0  0  0
   27.2661  -20.5589   -7.2275 C   0  0  0  0  0  0  0  0  0  0  0  0
   26.0819  -20.3513   -7.9320 C   0  0  0  0  0  0  0  0  0  0  0  0
   26.1646  -20.3123   -9.2950 C   0  0  0  0  0  0  0  0  0  0  0  0
   27.3666  -20.4709   -9.9560 C   0  0  0  0  0  0  0  0  0  0  0  0
   25.2155  -21.4118  -13.9373 C   0  0  0  0  0  0  0  0  0  0  0  0
   25.3885  -20.7398  -14.9818 O   0  0  0  0  0  0  0  0  0  0  0  0
   23.9532  -21.9757  -13.6448 N   0  0  0  0  0  0  0  0  0  0  0  0
   22.8139  -21.8181  -14.5284 C   0  0  1  0  0  0  0  0  0  0  0  0
   22.3074  -23.1616  -14.9899 C   0  0  0  0  0  0  0  0  0  0  0  0
   23.4880  -23.9561  -15.4712 C   0  0  0  0  0  0  0  0  0  0  0  0
   23.0578  -25.3393  -15.9016 C   0  0  0  0  0  0  0  0  0  0  0  0
   22.4153  -26.1205  -14.7827 C   0  0  0  0  0  0  0  0  0  0  0  0
   22.0390  -27.4200  -15.3545 N   0  0  0  0  0  0  0  0  0  0  0  0
   21.7189  -21.1098  -13.7894 C   0  0  0  0  0  0  0  0  0  0  0  0
   21.4936  -21.4244  -12.5996 O   0  0  0  0  0  0  0  0  0  0  0  0
   20.9505  -20.0978  -14.4328 N   0  0  0  0  0  0  0  0  0  0  0  0
   19.9176  -19.3840  -13.7111 C   0  0  1  0  0  0  0  0  0  0  0  0
   19.8520  -17.9739  -14.2737 C   0  0  0  0  0  0  0  0  0  0  0  0
   21.4656  -17.1378  -14.0661 S   0  0  0  0  0  0  0  0  0  0  0  0
   18.6060  -20.0607  -13.8946 C   0  0  0  0  0  0  0  0  0  0  0  0
   17.5198  -19.8219  -13.0653 O   0  0  0  0  0  0  0  0  0  0  0  0
   18.4685  -20.8825  -14.8355 O   0  0  0  0  0  0  0  0  0  0  0  0
  2  1  1  6
  2 13  1  0
  2  3  1  0
  3  4  1  0
  4  5  2  0
  5  6  1  0
  7  6  1  0
  8  7  2  0
  9  8  1  0
 10 11  1  0
 10  9  2  0
 11 12  2  0
 12  4  1  0
 12  7  1  0
 13 14  2  0
 15 13  1  0
 15 16  1  0
 16 17  1  1
 17 18  1  0
 19 18  1  0
 20 21  1  0
 20 19  1  0
 22 24  1  0
 22 16  1  0
 23 22  2  0
 25 28  1  0
 25 26  1  6
 25 24  1  0
 27 26  1  0
 28 29  1  0
 30 28  2  0
M  END
$$$$
