WKC.pdb
     RDKit          3D

 30 31  0  0  1  0  0  0  0  0999 V2000
   21.8016  -18.2405  -16.7608 N   0  0  0  0  0  0  0  0  0  0  0  0
   22.8808  -17.5832  -16.1001 C   0  0  1  0  0  0  0  0  0  0  0  0
   22.4473  -16.5476  -15.0905 C   0  0  0  0  0  0  0  0  0  0  0  0
   22.5386  -15.1730  -15.6203 C   0  0  0  0  0  0  0  0  0  0  0  0
   21.5123  -14.3878  -16.1017 C   0  0  0  0  0  0  0  0  0  0  0  0
   22.0530  -13.2185  -16.4761 N   0  0  0  0  0  0  0  0  0  0  0  0
   23.3949  -13.2386  -16.2460 C   0  0  0  0  0  0  0  0  0  0  0  0
   24.3890  -12.2897  -16.4579 C   0  0  0  0  0  0  0  0  0  0  0  0
   25.6851  -12.6013  -16.1198 C   0  0  0  0  0  0  0  0  0  0  0  0
   26.0436  -13.8316  -15.5724 C   0  0  0  0  0  0  0  0  0  0  0  0
   25.0449  -14.7427  -15.3762 C   0  0  0  0  0  0  0  0  0  0  0  0
   23.7322  -14.4655  -15.7034 C   0  0  0  0  0  0  0  0  0  0  0  0
   23.7627  -18.6016  -15.4818 C   0  0  0  0  0  0  0  0  0  0  0  0
   23.2372  -19.5786  -14.8971 O   0  0  0  0  0  0  0  0  0  0  0  0
   25.1685  -18.4739  -15.5490 N   0  0  0  0  0  0  0  0  0  0  0  0
   26.0613  -19.4305  -14.9236 C   0  0  1  0  0  0  0  0  0  0  0  0
   27.5010  -19.0415  -15.1478 C   0  0  0  0  0  0  0  0  0  0  0  0
   28.3597  -20.2014  -14.7306 C   0  0  0  0  0  0  0  0  0  0  0  0
   28.1922  -21.3582  -15.6884 C   0  0  0  0  0  0  0  0  0  0  0  0
   29.1396  -22.4947  -15.3954 C   0  0  0  0  0  0  0  0  0  0  0  0
   28.7348  -23.6013  -16.2723 N   0  0  0  0  0  0  0  0  0  0  0  0
   25.7865  -19.4619  -13.4504 C   0  0  0  0  0  0  0  0  0  0  0  0
   25.9421  -18.4133  -12.7860 O   0  0  0  0  0  0  0  0  0  0  0  0
   25.3568  -20.6653  -12.8212 N   0  0  0  0  0  0  0  0  0  0  0  0
   25.2363  -20.7429  -11.3802 C   0  0  1  0  0  0  0  0  0  0  0  0
   23.7616  -20.8976  -11.0480 C   0  0  0  0  0  0  0  0  0  0  0  0
   23.0783  -22.3711  -11.8893 S   0  0  0  0  0  0  0  0  0  0  0  0
   25.9936  -21.9155  -10.8671 C   0  0  0  0  0  0  0  0  0  0  0  0
   26.1353  -22.1786   -9.5123 O   0  0  0  0  0  0  0  0  0  0  0  0
   26.5291  -22.7037  -11.6866 O   0  0  0  0  0  0  0  0  0  0  0  0
  2  1  1  1
  2 13  1  0
  2  3  1  0
  3  4  1  0
  4  5  2  0
  5  6  1  0
  7  6  1  0
  8  7  2  0
  9  8  1  0
 10 11  1  0
 10  9  2  0
 11 12  2  0
 12  4  1  0
 12  7  1  0
 13 14  2  0
 15 13  1  0
 15 16  1  0
 16 17  1  1
 17 18  1  0
 19 18  1  0
 20 21  1  0
 20 19  1  0
 22 24  1  0
 22 16  1  0
 23 22  2  0
 25 28  1  0
 25 26  1  6
 25 24  1  0
 27 26  1  0
 28 29  1  0
 30 28  2  0
M  END
$$$$
