AQD.pdb
     RDKit          3D

 23 22  0  0  1  0  0  0  0  0999 V2000
   18.0781  -15.8130  -14.3278 C   0  0  0  0  0  0  0  0  0  0  0  0
   17.9614  -15.7308  -15.8248 C   0  0  2  0  0  0  0  0  0  0  0  0
   18.5790  -16.8794  -16.4724 N   0  0  0  0  0  0  0  0  0  0  0  0
   18.6330  -14.5131  -16.3758 C   0  0  0  0  0  0  0  0  0  0  0  0
   19.8740  -14.4616  -16.5911 O   0  0  0  0  0  0  0  0  0  0  0  0
   15.1967  -11.3039  -18.9660 N   0  0  0  0  0  0  0  0  0  0  0  0
   15.6287  -12.5508  -19.4698 C   0  0  0  0  0  0  0  0  0  0  0  0
   14.8108  -13.2879  -20.0548 O   0  0  0  0  0  0  0  0  0  0  0  0
   17.0397  -12.9484  -19.2898 C   0  0  0  0  0  0  0  0  0  0  0  0
   17.7703  -11.8355  -18.6300 C   0  0  0  0  0  0  0  0  0  0  0  0
   18.4870  -12.2247  -17.3651 C   0  0  2  0  0  0  0  0  0  0  0  0
   17.8831  -13.3297  -16.6894 N   0  0  0  0  0  0  0  0  0  0  0  0
   18.6375  -11.0318  -16.4632 C   0  0  0  0  0  0  0  0  0  0  0  0
   17.7846  -10.7838  -15.5728 O   0  0  0  0  0  0  0  0  0  0  0  0
   19.7352  -10.1412  -16.5731 N   0  0  0  0  0  0  0  0  0  0  0  0
   19.8806   -9.0293  -15.5964 C   0  0  1  0  0  0  0  0  0  0  0  0
   21.3301   -8.6628  -15.5116 C   0  0  0  0  0  0  0  0  0  0  0  0
   21.6616   -7.5115  -14.6746 C   0  0  0  0  0  0  0  0  0  0  0  0
   21.8383   -6.3788  -15.1513 O   0  0  0  0  0  0  0  0  0  0  0  0
   19.0526   -7.9108  -16.0906 C   0  0  0  0  0  0  0  0  0  0  0  0
   18.5589   -7.0656  -15.3269 O   0  0  0  0  0  0  0  0  0  0  0  0
   21.7827   -7.6883  -13.3064 O   0  0  0  0  0  0  0  0  0  0  0  0
   18.8227   -7.8086  -17.4645 O   0  0  0  0  0  0  0  0  0  0  0  0
  2  4  1  0
  2  1  1  1
  2  3  1  0
  4  5  2  0
  6  7  1  0
  7  8  2  0
  7  9  1  0
  9 10  1  0
 11 10  1  6
 11 13  1  0
 12 11  1  0
 12  4  1  0
 13 14  2  0
 13 15  1  0
 15 16  1  0
 16 17  1  6
 17 18  1  0
 18 19  2  0
 18 22  1  0
 20 23  1  0
 20 16  1  0
 21 20  2  0
M  END
$$$$
