AQD.pdb
     RDKit          3D

 23 22  0  0  1  0  0  0  0  0999 V2000
   16.6153  -13.3061  -14.8428 C   0  0  0  0  0  0  0  0  0  0  0  0
   16.5869  -11.8052  -14.7543 C   0  0  2  0  0  0  0  0  0  0  0  0
   15.4596  -11.2484  -15.4887 N   0  0  0  0  0  0  0  0  0  0  0  0
   17.8220  -11.1839  -15.3253 C   0  0  0  0  0  0  0  0  0  0  0  0
   18.9774  -11.4594  -14.9031 O   0  0  0  0  0  0  0  0  0  0  0  0
   20.0406  -10.6041  -20.2824 N   0  0  0  0  0  0  0  0  0  0  0  0
   20.6991   -9.4121  -19.9073 C   0  0  0  0  0  0  0  0  0  0  0  0
   21.7538   -9.0898  -20.4888 O   0  0  0  0  0  0  0  0  0  0  0  0
   20.1195   -8.5783  -18.8348 C   0  0  0  0  0  0  0  0  0  0  0  0
   18.8906   -9.2398  -18.3251 C   0  0  0  0  0  0  0  0  0  0  0  0
   18.9051   -9.5270  -16.8479 C   0  0  2  0  0  0  0  0  0  0  0  0
   17.7464  -10.2313  -16.3967 N   0  0  0  0  0  0  0  0  0  0  0  0
   19.1262   -8.2586  -16.0724 C   0  0  0  0  0  0  0  0  0  0  0  0
   18.1571   -7.5342  -15.7295 O   0  0  0  0  0  0  0  0  0  0  0  0
   20.4226   -7.8251  -15.6959 N   0  0  0  0  0  0  0  0  0  0  0  0
   20.5750   -6.6156  -14.8443 C   0  0  1  0  0  0  0  0  0  0  0  0
   21.9059   -6.6846  -14.1611 C   0  0  0  0  0  0  0  0  0  0  0  0
   22.2463   -5.5645  -13.2862 C   0  0  0  0  0  0  0  0  0  0  0  0
   22.9781   -4.6340  -13.6607 O   0  0  0  0  0  0  0  0  0  0  0  0
   20.4688   -5.4440  -15.7371 C   0  0  0  0  0  0  0  0  0  0  0  0
   20.7694   -5.5000  -16.9403 O   0  0  0  0  0  0  0  0  0  0  0  0
   21.7372   -5.5391  -11.9985 O   0  0  0  0  0  0  0  0  0  0  0  0
   20.0140   -4.2371  -15.2010 O   0  0  0  0  0  0  0  0  0  0  0  0
  2  4  1  0
  2  1  1  6
  2  3  1  0
  4  5  2  0
  6  7  1  0
  7  8  2  0
  7  9  1  0
  9 10  1  0
 11 10  1  6
 11 13  1  0
 12 11  1  0
 12  4  1  0
 13 14  2  0
 13 15  1  0
 15 16  1  0
 16 17  1  6
 17 18  1  0
 18 19  2  0
 18 22  1  0
 20 23  1  0
 20 16  1  0
 21 20  2  0
M  END
$$$$
