AQD.pdb
     RDKit          3D

 23 22  0  0  1  0  0  0  0  0999 V2000
   16.4009  -12.0912  -10.9553 C   0  0  0  0  0  0  0  0  0  0  0  0
   15.4042  -11.2223  -10.2392 C   0  0  2  0  0  0  0  0  0  0  0  0
   14.0360  -11.6057  -10.5570 N   0  0  0  0  0  0  0  0  0  0  0  0
   15.5447   -9.7802  -10.6111 C   0  0  0  0  0  0  0  0  0  0  0  0
   15.1388   -9.3211  -11.7127 O   0  0  0  0  0  0  0  0  0  0  0  0
   12.7631   -5.2573   -7.3123 N   0  0  0  0  0  0  0  0  0  0  0  0
   14.1089   -5.6245   -7.5337 C   0  0  0  0  0  0  0  0  0  0  0  0
   15.0085   -5.0693   -6.8726 O   0  0  0  0  0  0  0  0  0  0  0  0
   14.4147   -6.6580   -8.5436 C   0  0  0  0  0  0  0  0  0  0  0  0
   15.8427   -6.5367   -8.9355 C   0  0  0  0  0  0  0  0  0  0  0  0
   16.2619   -7.4542  -10.0525 C   0  0  2  0  0  0  0  0  0  0  0  0
   16.1575   -8.8393   -9.7166 N   0  0  0  0  0  0  0  0  0  0  0  0
   17.6412   -7.0969  -10.5308 C   0  0  0  0  0  0  0  0  0  0  0  0
   18.6610   -7.4625   -9.8921 O   0  0  0  0  0  0  0  0  0  0  0  0
   17.8541   -6.3399  -11.7106 N   0  0  0  0  0  0  0  0  0  0  0  0
   19.2424   -6.0629  -12.1660 C   0  0  1  0  0  0  0  0  0  0  0  0
   19.9154   -7.3704  -12.4493 C   0  0  0  0  0  0  0  0  0  0  0  0
   21.2191   -7.3015  -13.1062 C   0  0  0  0  0  0  0  0  0  0  0  0
   22.0545   -6.4276  -12.8235 O   0  0  0  0  0  0  0  0  0  0  0  0
   19.1393   -5.2180  -13.3729 C   0  0  0  0  0  0  0  0  0  0  0  0
   18.1026   -5.1608  -14.0535 O   0  0  0  0  0  0  0  0  0  0  0  0
   21.5337   -8.2402  -14.0746 O   0  0  0  0  0  0  0  0  0  0  0  0
   20.2502   -4.4618  -13.7534 O   0  0  0  0  0  0  0  0  0  0  0  0
  2  4  1  0
  2  1  1  6
  2  3  1  0
  4  5  2  0
  6  7  1  0
  7  8  2  0
  7  9  1  0
  9 10  1  0
 11 10  1  1
 11 13  1  0
 12 11  1  0
 12  4  1  0
 13 14  2  0
 13 15  1  0
 15 16  1  0
 16 17  1  6
 17 18  1  0
 18 19  2  0
 18 22  1  0
 20 23  1  0
 20 16  1  0
 21 20  2  0
M  END
$$$$
