AQD.pdb
     RDKit          3D

 23 22  0  0  1  0  0  0  0  0999 V2000
   18.1015  -16.0657  -18.1387 C   0  0  0  0  0  0  0  0  0  0  0  0
   18.6388  -15.1553  -17.0692 C   0  0  2  0  0  0  0  0  0  0  0  0
   18.1667  -15.5463  -15.7485 N   0  0  0  0  0  0  0  0  0  0  0  0
   18.2167  -13.7350  -17.2744 C   0  0  0  0  0  0  0  0  0  0  0  0
   18.6074  -13.0461  -18.2551 O   0  0  0  0  0  0  0  0  0  0  0  0
   13.8671  -13.3801  -15.3144 N   0  0  0  0  0  0  0  0  0  0  0  0
   13.6841  -13.0722  -16.6808 C   0  0  0  0  0  0  0  0  0  0  0  0
   12.7890  -13.6568  -17.3224 O   0  0  0  0  0  0  0  0  0  0  0  0
   14.5591  -12.0645  -17.3135 C   0  0  0  0  0  0  0  0  0  0  0  0
   15.4634  -11.4986  -16.2793 C   0  0  0  0  0  0  0  0  0  0  0  0
   16.9279  -11.7254  -16.5414 C   0  0  2  0  0  0  0  0  0  0  0  0
   17.3339  -13.0821  -16.3495 N   0  0  0  0  0  0  0  0  0  0  0  0
   17.7570  -10.7727  -15.7265 C   0  0  0  0  0  0  0  0  0  0  0  0
   18.0994  -11.0579  -14.5505 O   0  0  0  0  0  0  0  0  0  0  0  0
   18.1864   -9.5228  -16.2400 N   0  0  0  0  0  0  0  0  0  0  0  0
   18.9613   -8.5979  -15.3708 C   0  0  1  0  0  0  0  0  0  0  0  0
   20.2914   -8.3506  -16.0129 C   0  0  0  0  0  0  0  0  0  0  0  0
   21.1336   -7.3305  -15.3917 C   0  0  0  0  0  0  0  0  0  0  0  0
   21.7504   -6.4869  -16.0621 O   0  0  0  0  0  0  0  0  0  0  0  0
   18.1669   -7.3594  -15.2435 C   0  0  0  0  0  0  0  0  0  0  0  0
   17.5666   -6.8568  -16.2070 O   0  0  0  0  0  0  0  0  0  0  0  0
   21.2481   -7.3029  -14.0118 O   0  0  0  0  0  0  0  0  0  0  0  0
   18.0944   -6.7401  -13.9938 O   0  0  0  0  0  0  0  0  0  0  0  0
  2  4  1  0
  2  1  1  6
  2  3  1  0
  4  5  2  0
  6  7  1  0
  7  8  2  0
  7  9  1  0
  9 10  1  0
 11 10  1  1
 11 13  1  0
 12 11  1  0
 12  4  1  0
 13 14  2  0
 13 15  1  0
 15 16  1  0
 16 17  1  6
 17 18  1  0
 18 19  2  0
 18 22  1  0
 20 23  1  0
 20 16  1  0
 21 20  2  0
M  END
$$$$
