AQD.pdb
     RDKit          3D

 23 22  0  0  1  0  0  0  0  0999 V2000
   27.3026  -18.9395  -16.9742 C   0  0  0  0  0  0  0  0  0  0  0  0
   27.9542  -19.9559  -16.0776 C   0  0  2  0  0  0  0  0  0  0  0  0
   28.6634  -20.9690  -16.8461 N   0  0  0  0  0  0  0  0  0  0  0  0
   26.9574  -20.6788  -15.2284 C   0  0  0  0  0  0  0  0  0  0  0  0
   26.4298  -21.7684  -15.5803 O   0  0  0  0  0  0  0  0  0  0  0  0
   26.2383  -20.0515   -9.0914 N   0  0  0  0  0  0  0  0  0  0  0  0
   25.2582  -21.0341   -9.3540 C   0  0  0  0  0  0  0  0  0  0  0  0
   24.6796  -21.5881   -8.3986 O   0  0  0  0  0  0  0  0  0  0  0  0
   24.9446  -21.3793  -10.7554 C   0  0  0  0  0  0  0  0  0  0  0  0
   25.8259  -20.5878  -11.6522 C   0  0  0  0  0  0  0  0  0  0  0  0
   25.6346  -20.8675  -13.1186 C   0  0  2  0  0  0  0  0  0  0  0  0
   26.5500  -20.1568  -13.9547 N   0  0  0  0  0  0  0  0  0  0  0  0
   24.2062  -20.6187  -13.5147 C   0  0  0  0  0  0  0  0  0  0  0  0
   23.7864  -19.4507  -13.7171 O   0  0  0  0  0  0  0  0  0  0  0  0
   23.2767  -21.6771  -13.6766 N   0  0  0  0  0  0  0  0  0  0  0  0
   21.8862  -21.3748  -14.1082 C   0  0  1  0  0  0  0  0  0  0  0  0
   21.2749  -22.6325  -14.6443 C   0  0  0  0  0  0  0  0  0  0  0  0
   19.9277  -22.5155  -15.1987 C   0  0  0  0  0  0  0  0  0  0  0  0
   19.3603  -21.4186  -15.3265 O   0  0  0  0  0  0  0  0  0  0  0  0
   21.1670  -20.8695  -12.9214 C   0  0  0  0  0  0  0  0  0  0  0  0
   21.3960  -21.2959  -11.7781 O   0  0  0  0  0  0  0  0  0  0  0  0
   19.2621  -23.6638  -15.5941 O   0  0  0  0  0  0  0  0  0  0  0  0
   20.1987  -19.8791  -13.1010 O   0  0  0  0  0  0  0  0  0  0  0  0
  2  4  1  0
  2  1  1  6
  2  3  1  0
  4  5  2  0
  6  7  1  0
  7  8  2  0
  7  9  1  0
  9 10  1  0
 11 10  1  1
 11 13  1  0
 12 11  1  0
 12  4  1  0
 13 14  2  0
 13 15  1  0
 15 16  1  0
 16 17  1  1
 17 18  1  0
 18 19  2  0
 18 22  1  0
 20 23  1  0
 20 16  1  0
 21 20  2  0
M  END
$$$$
