AQD.pdb
     RDKit          3D

 23 22  0  0  1  0  0  0  0  0999 V2000
   24.4781  -12.2634  -18.2481 C   0  0  0  0  0  0  0  0  0  0  0  0
   23.4216  -11.2803  -18.6708 C   0  0  2  0  0  0  0  0  0  0  0  0
   23.9871  -10.1955  -19.4604 N   0  0  0  0  0  0  0  0  0  0  0  0
   22.7385  -10.6493  -17.4991 C   0  0  0  0  0  0  0  0  0  0  0  0
   22.1264  -11.3231  -16.6270 O   0  0  0  0  0  0  0  0  0  0  0  0
   23.6537   -4.9272  -15.2035 N   0  0  0  0  0  0  0  0  0  0  0  0
   22.6289   -5.3809  -14.3438 C   0  0  0  0  0  0  0  0  0  0  0  0
   22.2639   -4.6574  -13.3962 O   0  0  0  0  0  0  0  0  0  0  0  0
   22.0163   -6.7019  -14.5909 C   0  0  0  0  0  0  0  0  0  0  0  0
   22.6850   -7.3286  -15.7604 C   0  0  0  0  0  0  0  0  0  0  0  0
   22.0548   -8.6147  -16.2226 C   0  0  2  0  0  0  0  0  0  0  0  0
   22.7491   -9.2260  -17.3118 N   0  0  0  0  0  0  0  0  0  0  0  0
   20.6007   -8.3994  -16.5363 C   0  0  0  0  0  0  0  0  0  0  0  0
   20.2458   -7.8659  -17.6185 O   0  0  0  0  0  0  0  0  0  0  0  0
   19.5737   -8.7832  -15.6373 N   0  0  0  0  0  0  0  0  0  0  0  0
   18.1505   -8.5762  -16.0150 C   0  0  1  0  0  0  0  0  0  0  0  0
   17.3350   -9.6705  -15.3985 C   0  0  0  0  0  0  0  0  0  0  0  0
   17.4545  -10.9931  -16.0089 C   0  0  0  0  0  0  0  0  0  0  0  0
   17.9164  -11.1532  -17.1502 O   0  0  0  0  0  0  0  0  0  0  0  0
   17.7611   -7.2429  -15.5131 C   0  0  0  0  0  0  0  0  0  0  0  0
   16.9943   -6.4971  -16.1432 O   0  0  0  0  0  0  0  0  0  0  0  0
   17.0398  -12.1034  -15.2926 O   0  0  0  0  0  0  0  0  0  0  0  0
   18.2779   -6.8154  -14.2880 O   0  0  0  0  0  0  0  0  0  0  0  0
  2  4  1  0
  2  1  1  1
  2  3  1  0
  4  5  2  0
  6  7  1  0
  7  8  2  0
  7  9  1  0
  9 10  1  0
 11 10  1  6
 11 13  1  0
 12 11  1  0
 12  4  1  0
 13 14  2  0
 13 15  1  0
 15 16  1  0
 16 17  1  1
 17 18  1  0
 18 19  2  0
 18 22  1  0
 20 23  1  0
 20 16  1  0
 21 20  2  0
M  END
$$$$
