AQD.pdb
     RDKit          3D

 23 22  0  0  1  0  0  0  0  0999 V2000
   27.8690  -20.0967  -17.0553 C   0  0  0  0  0  0  0  0  0  0  0  0
   28.0656  -21.1722  -16.0228 C   0  0  2  0  0  0  0  0  0  0  0  0
   28.4218  -22.4433  -16.6372 N   0  0  0  0  0  0  0  0  0  0  0  0
   26.8274  -21.4143  -15.2192 C   0  0  0  0  0  0  0  0  0  0  0  0
   25.8638  -22.1041  -15.6490 O   0  0  0  0  0  0  0  0  0  0  0  0
   26.0666  -20.3313   -9.0898 N   0  0  0  0  0  0  0  0  0  0  0  0
   24.8308  -20.9361   -9.4094 C   0  0  0  0  0  0  0  0  0  0  0  0
   24.0418  -21.2324   -8.4905 O   0  0  0  0  0  0  0  0  0  0  0  0
   24.5060  -21.2017  -10.8256 C   0  0  0  0  0  0  0  0  0  0  0  0
   25.6834  -20.8505  -11.6609 C   0  0  0  0  0  0  0  0  0  0  0  0
   25.4915  -21.0809  -13.1357 C   0  0  2  0  0  0  0  0  0  0  0  0
   26.6782  -20.8637  -13.9017 N   0  0  0  0  0  0  0  0  0  0  0  0
   24.3387  -20.2622  -13.6455 C   0  0  0  0  0  0  0  0  0  0  0  0
   24.4627  -19.0268  -13.8455 O   0  0  0  0  0  0  0  0  0  0  0  0
   23.0728  -20.8380  -13.9214 N   0  0  0  0  0  0  0  0  0  0  0  0
   21.9658  -19.9775  -14.4167 C   0  0  1  0  0  0  0  0  0  0  0  0
   21.7358  -20.2909  -15.8629 C   0  0  0  0  0  0  0  0  0  0  0  0
   20.6806  -19.5330  -16.5325 C   0  0  0  0  0  0  0  0  0  0  0  0
   20.0451  -18.6362  -15.9551 O   0  0  0  0  0  0  0  0  0  0  0  0
   20.7815  -20.2795  -13.5875 C   0  0  0  0  0  0  0  0  0  0  0  0
   20.7001  -21.3110  -12.9015 O   0  0  0  0  0  0  0  0  0  0  0  0
   20.3793  -19.8235  -17.8526 O   0  0  0  0  0  0  0  0  0  0  0  0
   19.7229  -19.3684  -13.5813 O   0  0  0  0  0  0  0  0  0  0  0  0
  2  4  1  0
  2  1  1  6
  2  3  1  0
  4  5  2  0
  6  7  1  0
  7  8  2  0
  7  9  1  0
  9 10  1  0
 11 10  1  1
 11 13  1  0
 12 11  1  0
 12  4  1  0
 13 14  2  0
 13 15  1  0
 15 16  1  0
 16 17  1  6
 17 18  1  0
 18 19  2  0
 18 22  1  0
 20 23  1  0
 20 16  1  0
 21 20  2  0
M  END
$$$$
