AQD.pdb
     RDKit          3D

 23 22  0  0  1  0  0  0  0  0999 V2000
   26.8629  -17.4181  -19.8885 C   0  0  0  0  0  0  0  0  0  0  0  0
   27.1289  -17.7918  -18.4564 C   0  0  2  0  0  0  0  0  0  0  0  0
   28.2325  -18.7353  -18.3470 N   0  0  0  0  0  0  0  0  0  0  0  0
   25.9434  -18.4395  -17.8139 C   0  0  0  0  0  0  0  0  0  0  0  0
   24.9183  -18.7763  -18.4657 O   0  0  0  0  0  0  0  0  0  0  0  0
   25.2524  -22.5382  -14.3158 N   0  0  0  0  0  0  0  0  0  0  0  0
   24.1007  -21.9862  -13.7126 C   0  0  0  0  0  0  0  0  0  0  0  0
   23.2958  -22.7409  -13.1320 O   0  0  0  0  0  0  0  0  0  0  0  0
   23.8806  -20.5275  -13.7859 C   0  0  0  0  0  0  0  0  0  0  0  0
   25.0567  -19.8981  -14.4402 C   0  0  0  0  0  0  0  0  0  0  0  0
   24.7632  -19.2675  -15.7748 C   0  0  2  0  0  0  0  0  0  0  0  0
   25.9190  -18.7110  -16.4044 N   0  0  0  0  0  0  0  0  0  0  0  0
   23.6575  -18.2580  -15.6425 C   0  0  0  0  0  0  0  0  0  0  0  0
   23.7782  -17.2642  -14.8813 O   0  0  0  0  0  0  0  0  0  0  0  0
   22.4413  -18.3779  -16.3614 N   0  0  0  0  0  0  0  0  0  0  0  0
   21.4006  -17.3243  -16.2267 C   0  0  1  0  0  0  0  0  0  0  0  0
   21.2177  -16.6689  -17.5608 C   0  0  0  0  0  0  0  0  0  0  0  0
   20.2200  -15.6032  -17.6302 C   0  0  0  0  0  0  0  0  0  0  0  0
   19.6444  -15.1720  -16.6182 O   0  0  0  0  0  0  0  0  0  0  0  0
   20.1683  -17.9929  -15.7624 C   0  0  0  0  0  0  0  0  0  0  0  0
   19.1198  -17.3666  -15.5398 O   0  0  0  0  0  0  0  0  0  0  0  0
   19.9061  -15.0562  -18.8632 O   0  0  0  0  0  0  0  0  0  0  0  0
   20.1929  -19.3761  -15.5702 O   0  0  0  0  0  0  0  0  0  0  0  0
  2  4  1  0
  2  1  1  6
  2  3  1  0
  4  5  2  0
  6  7  1  0
  7  8  2  0
  7  9  1  0
  9 10  1  0
 11 10  1  1
 11 13  1  0
 12 11  1  0
 12  4  1  0
 13 14  2  0
 13 15  1  0
 15 16  1  0
 16 17  1  6
 17 18  1  0
 18 19  2  0
 18 22  1  0
 20 23  1  0
 20 16  1  0
 21 20  2  0
M  END
$$$$
