AQD.pdb
     RDKit          3D

 23 22  0  0  1  0  0  0  0  0999 V2000
   18.2994  -14.7971  -16.9723 C   0  0  0  0  0  0  0  0  0  0  0  0
   19.4021  -13.8311  -16.6371 C   0  0  2  0  0  0  0  0  0  0  0  0
   20.1686  -14.2758  -15.4819 N   0  0  0  0  0  0  0  0  0  0  0  0
   18.8772  -12.4697  -16.3076 C   0  0  0  0  0  0  0  0  0  0  0  0
   18.2980  -11.7416  -17.1583 O   0  0  0  0  0  0  0  0  0  0  0  0
   16.9776  -10.1845  -10.8699 N   0  0  0  0  0  0  0  0  0  0  0  0
   16.0207  -10.2075  -11.9087 C   0  0  0  0  0  0  0  0  0  0  0  0
   14.8104  -10.1133  -11.6243 O   0  0  0  0  0  0  0  0  0  0  0  0
   16.4804  -10.3427  -13.3058 C   0  0  0  0  0  0  0  0  0  0  0  0
   17.9605  -10.4721  -13.3125 C   0  0  0  0  0  0  0  0  0  0  0  0
   18.5683  -10.5978  -14.6836 C   0  0  2  0  0  0  0  0  0  0  0  0
   19.0111  -11.9222  -14.9872 N   0  0  0  0  0  0  0  0  0  0  0  0
   19.6655   -9.5862  -14.8621 C   0  0  0  0  0  0  0  0  0  0  0  0
   20.8225   -9.8036  -14.4198 O   0  0  0  0  0  0  0  0  0  0  0  0
   19.4494   -8.3542  -15.5299 N   0  0  0  0  0  0  0  0  0  0  0  0
   20.5884   -7.4213  -15.7383 C   0  0  1  0  0  0  0  0  0  0  0  0
   20.3544   -6.6685  -17.0117 C   0  0  0  0  0  0  0  0  0  0  0  0
   21.3164   -5.6155  -17.3306 C   0  0  0  0  0  0  0  0  0  0  0  0
   20.9612   -4.4544  -17.5897 O   0  0  0  0  0  0  0  0  0  0  0  0
   20.6329   -6.5267  -14.5641 C   0  0  0  0  0  0  0  0  0  0  0  0
   19.6074   -6.1865  -13.9526 O   0  0  0  0  0  0  0  0  0  0  0  0
   22.6671   -5.9213  -17.3444 O   0  0  0  0  0  0  0  0  0  0  0  0
   21.8745   -6.0525  -14.1347 O   0  0  0  0  0  0  0  0  0  0  0  0
  2  4  1  0
  2  1  1  1
  2  3  1  0
  4  5  2  0
  6  7  1  0
  7  8  2  0
  7  9  1  0
  9 10  1  0
 11 10  1  1
 11 13  1  0
 12 11  1  0
 12  4  1  0
 13 14  2  0
 13 15  1  0
 15 16  1  0
 16 17  1  6
 17 18  1  0
 18 19  2  0
 18 22  1  0
 20 23  1  0
 20 16  1  0
 21 20  2  0
M  END
$$$$
