AQD.pdb
     RDKit          3D

 23 22  0  0  1  0  0  0  0  0999 V2000
   18.4961  -12.1678  -16.3013 C   0  0  0  0  0  0  0  0  0  0  0  0
   19.8848  -11.9128  -16.8190 C   0  0  2  0  0  0  0  0  0  0  0  0
   20.6448  -13.1488  -16.9399 N   0  0  0  0  0  0  0  0  0  0  0  0
   20.6664  -11.0133  -15.9149 C   0  0  0  0  0  0  0  0  0  0  0  0
   20.3632  -10.8389  -14.7038 O   0  0  0  0  0  0  0  0  0  0  0  0
   26.6482  -10.0206  -16.0755 N   0  0  0  0  0  0  0  0  0  0  0  0
   25.9834  -11.0905  -15.4364 C   0  0  0  0  0  0  0  0  0  0  0  0
   26.6379  -12.0925  -15.0866 O   0  0  0  0  0  0  0  0  0  0  0  0
   24.5289  -10.9934  -15.1991 C   0  0  0  0  0  0  0  0  0  0  0  0
   24.0596   -9.6554  -15.6431 C   0  0  0  0  0  0  0  0  0  0  0  0
   22.5734   -9.4476  -15.5291 C   0  0  2  0  0  0  0  0  0  0  0  0
   21.8151  -10.2969  -16.3928 N   0  0  0  0  0  0  0  0  0  0  0  0
   22.2329   -7.9975  -15.7304 C   0  0  0  0  0  0  0  0  0  0  0  0
   22.2222   -7.4904  -16.8812 O   0  0  0  0  0  0  0  0  0  0  0  0
   21.9117   -7.1440  -14.6447 N   0  0  0  0  0  0  0  0  0  0  0  0
   21.5880   -5.7158  -14.9030 C   0  0  1  0  0  0  0  0  0  0  0  0
   20.0991   -5.5572  -14.8752 C   0  0  0  0  0  0  0  0  0  0  0  0
   19.5866   -4.1996  -15.0483 C   0  0  0  0  0  0  0  0  0  0  0  0
   20.1033   -3.3958  -15.8410 O   0  0  0  0  0  0  0  0  0  0  0  0
   22.2508   -4.9259  -13.8457 C   0  0  0  0  0  0  0  0  0  0  0  0
   22.7113   -5.4502  -12.8189 O   0  0  0  0  0  0  0  0  0  0  0  0
   18.4899   -3.7957  -14.3051 O   0  0  0  0  0  0  0  0  0  0  0  0
   22.3583   -3.5437  -14.0154 O   0  0  0  0  0  0  0  0  0  0  0  0
  2  4  1  0
  2  1  1  1
  2  3  1  0
  4  5  2  0
  6  7  1  0
  7  8  2  0
  7  9  1  0
  9 10  1  0
 11 10  1  6
 11 13  1  0
 12 11  1  0
 12  4  1  0
 13 14  2  0
 13 15  1  0
 15 16  1  0
 16 17  1  1
 17 18  1  0
 18 19  2  0
 18 22  1  0
 20 23  1  0
 20 16  1  0
 21 20  2  0
M  END
$$$$
