AQD.pdb
     RDKit          3D

 23 22  0  0  1  0  0  0  0  0999 V2000
   13.3134   -9.7734  -12.5113 C   0  0  0  0  0  0  0  0  0  0  0  0
   13.7774  -10.4526  -13.7702 C   0  0  2  0  0  0  0  0  0  0  0  0
   13.3654  -11.8486  -13.8066 N   0  0  0  0  0  0  0  0  0  0  0  0
   15.2675  -10.4398  -13.9004 C   0  0  0  0  0  0  0  0  0  0  0  0
   16.0047  -11.2965  -13.3419 O   0  0  0  0  0  0  0  0  0  0  0  0
   18.5684  -10.5421  -18.6850 N   0  0  0  0  0  0  0  0  0  0  0  0
   18.4927  -11.6114  -17.7652 C   0  0  0  0  0  0  0  0  0  0  0  0
   18.7725  -12.7648  -18.1475 O   0  0  0  0  0  0  0  0  0  0  0  0
   18.0836  -11.3341  -16.3734 C   0  0  0  0  0  0  0  0  0  0  0  0
   17.7664   -9.8881  -16.2467 C   0  0  0  0  0  0  0  0  0  0  0  0
   17.3528   -9.4603  -14.8643 C   0  0  2  0  0  0  0  0  0  0  0  0
   15.9359   -9.4361  -14.6794 N   0  0  0  0  0  0  0  0  0  0  0  0
   17.9852   -8.1421  -14.5155 C   0  0  0  0  0  0  0  0  0  0  0  0
   17.3290   -7.0717  -14.5886 O   0  0  0  0  0  0  0  0  0  0  0  0
   19.3351   -8.0455  -14.0928 N   0  0  0  0  0  0  0  0  0  0  0  0
   19.9530   -6.7059  -13.9062 C   0  0  1  0  0  0  0  0  0  0  0  0
   21.2392   -6.8798  -13.1591 C   0  0  0  0  0  0  0  0  0  0  0  0
   22.0061   -5.6644  -12.8933 C   0  0  0  0  0  0  0  0  0  0  0  0
   22.0919   -4.7444  -13.7226 O   0  0  0  0  0  0  0  0  0  0  0  0
   20.1651   -6.1380  -15.2529 C   0  0  0  0  0  0  0  0  0  0  0  0
   20.6131   -6.8143  -16.1928 O   0  0  0  0  0  0  0  0  0  0  0  0
   22.6581   -5.5337  -11.6785 O   0  0  0  0  0  0  0  0  0  0  0  0
   19.8485   -4.7946  -15.4668 O   0  0  0  0  0  0  0  0  0  0  0  0
  2  4  1  0
  2  1  1  1
  2  3  1  0
  4  5  2  0
  6  7  1  0
  7  8  2  0
  7  9  1  0
  9 10  1  0
 11 10  1  6
 11 13  1  0
 12 11  1  0
 12  4  1  0
 13 14  2  0
 13 15  1  0
 15 16  1  0
 16 17  1  6
 17 18  1  0
 18 19  2  0
 18 22  1  0
 20 23  1  0
 20 16  1  0
 21 20  2  0
M  END
$$$$
