AQD.pdb
     RDKit          3D

 23 22  0  0  1  0  0  0  0  0999 V2000
   13.3836  -11.3315  -12.9191 C   0  0  0  0  0  0  0  0  0  0  0  0
   14.8818  -11.2016  -12.9308 C   0  0  2  0  0  0  0  0  0  0  0  0
   15.4987  -12.0453  -11.9171 N   0  0  0  0  0  0  0  0  0  0  0  0
   15.3276   -9.8007  -12.6548 C   0  0  0  0  0  0  0  0  0  0  0  0
   15.3032   -8.8957  -13.5321 O   0  0  0  0  0  0  0  0  0  0  0  0
   15.3157   -6.9851   -7.1431 N   0  0  0  0  0  0  0  0  0  0  0  0
   14.1794   -7.2239   -7.9473 C   0  0  0  0  0  0  0  0  0  0  0  0
   13.0444   -7.1452   -7.4370 O   0  0  0  0  0  0  0  0  0  0  0  0
   14.3663   -7.5608   -9.3732 C   0  0  0  0  0  0  0  0  0  0  0  0
   15.8219   -7.6525   -9.6566 C   0  0  0  0  0  0  0  0  0  0  0  0
   16.1573   -8.0622  -11.0654 C   0  0  2  0  0  0  0  0  0  0  0  0
   15.8109   -9.4174  -11.3585 N   0  0  0  0  0  0  0  0  0  0  0  0
   17.6034   -7.7779  -11.3607 C   0  0  0  0  0  0  0  0  0  0  0  0
   18.5189   -8.3794  -10.7429 O   0  0  0  0  0  0  0  0  0  0  0  0
   17.9977   -6.8296  -12.3382 N   0  0  0  0  0  0  0  0  0  0  0  0
   19.4418   -6.6394  -12.6376 C   0  0  1  0  0  0  0  0  0  0  0  0
   19.9716   -7.9086  -13.2302 C   0  0  0  0  0  0  0  0  0  0  0  0
   21.3405   -7.8660  -13.7405 C   0  0  0  0  0  0  0  0  0  0  0  0
   22.1385   -6.9728  -13.4136 O   0  0  0  0  0  0  0  0  0  0  0  0
   19.5410   -5.5039  -13.5767 C   0  0  0  0  0  0  0  0  0  0  0  0
   18.5749   -5.1208  -14.2557 O   0  0  0  0  0  0  0  0  0  0  0  0
   21.7618   -8.8525  -14.6165 O   0  0  0  0  0  0  0  0  0  0  0  0
   20.7667   -4.8452  -13.6982 O   0  0  0  0  0  0  0  0  0  0  0  0
  2  4  1  0
  2  1  1  1
  2  3  1  0
  4  5  2  0
  6  7  1  0
  7  8  2  0
  7  9  1  0
  9 10  1  0
 11 10  1  1
 11 13  1  0
 12 11  1  0
 12  4  1  0
 13 14  2  0
 13 15  1  0
 15 16  1  0
 16 17  1  6
 17 18  1  0
 18 19  2  0
 18 22  1  0
 20 23  1  0
 20 16  1  0
 21 20  2  0
M  END
$$$$
