AQD.pdb
     RDKit          3D

 23 22  0  0  1  0  0  0  0  0999 V2000
   18.6041  -10.3377  -18.9589 C   0  0  0  0  0  0  0  0  0  0  0  0
   19.8996  -10.9314  -18.4788 C   0  0  2  0  0  0  0  0  0  0  0  0
   19.7238  -12.3062  -18.0325 N   0  0  0  0  0  0  0  0  0  0  0  0
   20.4724  -10.1734  -17.3233 C   0  0  0  0  0  0  0  0  0  0  0  0
   19.7836   -9.8425  -16.3207 O   0  0  0  0  0  0  0  0  0  0  0  0
   26.0714  -10.7256  -15.0522 N   0  0  0  0  0  0  0  0  0  0  0  0
   26.0484  -10.1696  -16.3505 C   0  0  0  0  0  0  0  0  0  0  0  0
   27.0854  -10.1944  -17.0423 O   0  0  0  0  0  0  0  0  0  0  0  0
   24.7947   -9.5731  -16.8544 C   0  0  0  0  0  0  0  0  0  0  0  0
   23.7695   -9.6354  -15.7808 C   0  0  0  0  0  0  0  0  0  0  0  0
   22.4182   -9.1056  -16.1788 C   0  0  2  0  0  0  0  0  0  0  0  0
   21.8536   -9.7825  -17.3036 N   0  0  0  0  0  0  0  0  0  0  0  0
   22.4840   -7.6197  -16.3952 C   0  0  0  0  0  0  0  0  0  0  0  0
   22.7960   -7.1437  -17.5167 O   0  0  0  0  0  0  0  0  0  0  0  0
   22.2007   -6.6965  -15.3571 N   0  0  0  0  0  0  0  0  0  0  0  0
   22.2500   -5.2369  -15.6374 C   0  0  1  0  0  0  0  0  0  0  0  0
   20.9844   -4.8481  -16.3373 C   0  0  0  0  0  0  0  0  0  0  0  0
   20.7766   -3.4185  -16.5584 C   0  0  0  0  0  0  0  0  0  0  0  0
   21.7066   -2.6577  -16.8714 O   0  0  0  0  0  0  0  0  0  0  0  0
   22.3982   -4.5533  -14.3368 C   0  0  0  0  0  0  0  0  0  0  0  0
   22.3526   -5.1665  -13.2583 O   0  0  0  0  0  0  0  0  0  0  0  0
   19.5027   -2.8947  -16.4146 O   0  0  0  0  0  0  0  0  0  0  0  0
   22.5960   -3.1707  -14.3297 O   0  0  0  0  0  0  0  0  0  0  0  0
  2  4  1  0
  2  1  1  1
  2  3  1  0
  4  5  2  0
  6  7  1  0
  7  8  2  0
  7  9  1  0
  9 10  1  0
 11 10  1  6
 11 13  1  0
 12 11  1  0
 12  4  1  0
 13 14  2  0
 13 15  1  0
 15 16  1  0
 16 17  1  1
 17 18  1  0
 18 19  2  0
 18 22  1  0
 20 23  1  0
 20 16  1  0
 21 20  2  0
M  END
$$$$
