AQD.pdb
     RDKit          3D

 23 22  0  0  1  0  0  0  0  0999 V2000
   15.5718  -11.5963  -15.5449 C   0  0  0  0  0  0  0  0  0  0  0  0
   17.0432  -11.9057  -15.5668 C   0  0  2  0  0  0  0  0  0  0  0  0
   17.3465  -13.1117  -14.8094 N   0  0  0  0  0  0  0  0  0  0  0  0
   17.8591  -10.8044  -14.9679 C   0  0  0  0  0  0  0  0  0  0  0  0
   17.7929  -10.4979  -13.7468 O   0  0  0  0  0  0  0  0  0  0  0  0
   23.5506   -9.0961  -16.0379 N   0  0  0  0  0  0  0  0  0  0  0  0
   23.0919  -10.0649  -15.1180 C   0  0  0  0  0  0  0  0  0  0  0  0
   23.9066  -10.8681  -14.6223 O   0  0  0  0  0  0  0  0  0  0  0  0
   21.6576  -10.1004  -14.7677 C   0  0  0  0  0  0  0  0  0  0  0  0
   20.9657   -8.9883  -15.4690 C   0  0  0  0  0  0  0  0  0  0  0  0
   19.4824   -8.9237  -15.2222 C   0  0  2  0  0  0  0  0  0  0  0  0
   18.7687  -10.0346  -15.7686 N   0  0  0  0  0  0  0  0  0  0  0  0
   18.9303   -7.6118  -15.7051 C   0  0  0  0  0  0  0  0  0  0  0  0
   18.5786   -7.4610  -16.9031 O   0  0  0  0  0  0  0  0  0  0  0  0
   18.7821   -6.4964  -14.8424 N   0  0  0  0  0  0  0  0  0  0  0  0
   18.2308   -5.2224  -15.3757 C   0  0  1  0  0  0  0  0  0  0  0  0
   17.5621   -4.4913  -14.2527 C   0  0  0  0  0  0  0  0  0  0  0  0
   17.0064   -3.1778  -14.5719 C   0  0  0  0  0  0  0  0  0  0  0  0
   17.1585   -2.1982  -13.8245 O   0  0  0  0  0  0  0  0  0  0  0  0
   19.3667   -4.4624  -15.9352 C   0  0  0  0  0  0  0  0  0  0  0  0
   20.4799   -4.4368  -15.3862 O   0  0  0  0  0  0  0  0  0  0  0  0
   16.2871   -3.0198  -15.7448 O   0  0  0  0  0  0  0  0  0  0  0  0
   19.1726   -3.7517  -17.1218 O   0  0  0  0  0  0  0  0  0  0  0  0
  2  4  1  0
  2  1  1  1
  2  3  1  0
  4  5  2  0
  6  7  1  0
  7  8  2  0
  7  9  1  0
  9 10  1  0
 11 10  1  6
 11 13  1  0
 12 11  1  0
 12  4  1  0
 13 14  2  0
 13 15  1  0
 15 16  1  0
 16 17  1  1
 17 18  1  0
 18 19  2  0
 18 22  1  0
 20 23  1  0
 20 16  1  0
 21 20  2  0
M  END
$$$$
