AQD.pdb
     RDKit          3D

 23 22  0  0  1  0  0  0  0  0999 V2000
   17.2737  -15.3455  -16.7758 C   0  0  0  0  0  0  0  0  0  0  0  0
   18.0056  -14.1563  -16.2178 C   0  0  2  0  0  0  0  0  0  0  0  0
   18.3016  -14.3275  -14.8025 N   0  0  0  0  0  0  0  0  0  0  0  0
   17.2094  -12.8961  -16.3419 C   0  0  0  0  0  0  0  0  0  0  0  0
   16.9341  -12.3745  -17.4561 O   0  0  0  0  0  0  0  0  0  0  0  0
   11.3080  -12.6278  -14.4396 N   0  0  0  0  0  0  0  0  0  0  0  0
   12.4484  -11.8543  -14.1293 C   0  0  0  0  0  0  0  0  0  0  0  0
   12.4152  -11.0868  -13.1473 O   0  0  0  0  0  0  0  0  0  0  0  0
   13.6513  -11.9758  -14.9777 C   0  0  0  0  0  0  0  0  0  0  0  0
   14.6843  -11.0298  -14.4821 C   0  0  0  0  0  0  0  0  0  0  0  0
   15.9514  -11.0104  -15.2939 C   0  0  2  0  0  0  0  0  0  0  0  0
   16.7152  -12.2129  -15.1801 N   0  0  0  0  0  0  0  0  0  0  0  0
   16.7682   -9.7947  -14.9562 C   0  0  0  0  0  0  0  0  0  0  0  0
   17.5843   -9.8105  -13.9994 O   0  0  0  0  0  0  0  0  0  0  0  0
   16.6579   -8.5879  -15.6921 N   0  0  0  0  0  0  0  0  0  0  0  0
   17.4059   -7.3829  -15.2449 C   0  0  1  0  0  0  0  0  0  0  0  0
   18.1473   -6.8250  -16.4204 C   0  0  0  0  0  0  0  0  0  0  0  0
   18.8058   -5.5355  -16.2211 C   0  0  0  0  0  0  0  0  0  0  0  0
   19.6209   -5.3462  -15.3039 O   0  0  0  0  0  0  0  0  0  0  0  0
   16.4102   -6.4307  -14.7130 C   0  0  0  0  0  0  0  0  0  0  0  0
   15.2109   -6.4820  -15.0299 O   0  0  0  0  0  0  0  0  0  0  0  0
   18.5122   -4.4912  -17.0820 O   0  0  0  0  0  0  0  0  0  0  0  0
   16.8414   -5.4430  -13.8246 O   0  0  0  0  0  0  0  0  0  0  0  0
  2  4  1  0
  2  1  1  1
  2  3  1  0
  4  5  2  0
  6  7  1  0
  7  8  2  0
  7  9  1  0
  9 10  1  0
 11 10  1  1
 11 13  1  0
 12 11  1  0
 12  4  1  0
 13 14  2  0
 13 15  1  0
 15 16  1  0
 16 17  1  6
 17 18  1  0
 18 19  2  0
 18 22  1  0
 20 23  1  0
 20 16  1  0
 21 20  2  0
M  END
$$$$
