AQD.pdb
     RDKit          3D

 23 22  0  0  1  0  0  0  0  0999 V2000
   28.0819  -19.4063  -17.9768 C   0  0  0  0  0  0  0  0  0  0  0  0
   27.5940  -18.8036  -16.6884 C   0  0  2  0  0  0  0  0  0  0  0  0
   28.7021  -18.3883  -15.8400 N   0  0  0  0  0  0  0  0  0  0  0  0
   26.7778  -19.7690  -15.8888 C   0  0  0  0  0  0  0  0  0  0  0  0
   25.7832  -20.3769  -16.3689 O   0  0  0  0  0  0  0  0  0  0  0  0
   24.9008  -21.8329  -10.6900 N   0  0  0  0  0  0  0  0  0  0  0  0
   25.5885  -20.6295  -10.4175 C   0  0  0  0  0  0  0  0  0  0  0  0
   25.2643  -19.9550   -9.4203 O   0  0  0  0  0  0  0  0  0  0  0  0
   26.6748  -20.2022  -11.3224 C   0  0  0  0  0  0  0  0  0  0  0  0
   26.8476  -21.2297  -12.3816 C   0  0  0  0  0  0  0  0  0  0  0  0
   26.2407  -20.8634  -13.7092 C   0  0  2  0  0  0  0  0  0  0  0  0
   27.0948  -20.0513  -14.5174 N   0  0  0  0  0  0  0  0  0  0  0  0
   24.8922  -20.2306  -13.5091 C   0  0  0  0  0  0  0  0  0  0  0  0
   24.7826  -18.9938  -13.3093 O   0  0  0  0  0  0  0  0  0  0  0  0
   23.6951  -20.9898  -13.5360 N   0  0  0  0  0  0  0  0  0  0  0  0
   22.3857  -20.2943  -13.6502 C   0  0  1  0  0  0  0  0  0  0  0  0
   22.2707  -19.7295  -15.0324 C   0  0  0  0  0  0  0  0  0  0  0  0
   20.9828  -19.1369  -15.3875 C   0  0  0  0  0  0  0  0  0  0  0  0
   20.6023  -18.0541  -14.9139 O   0  0  0  0  0  0  0  0  0  0  0  0
   21.3390  -21.2982  -13.3713 C   0  0  0  0  0  0  0  0  0  0  0  0
   21.5206  -22.5121  -13.5572 O   0  0  0  0  0  0  0  0  0  0  0  0
   20.1601  -19.8033  -16.2802 O   0  0  0  0  0  0  0  0  0  0  0  0
   20.1070  -20.8577  -12.8826 O   0  0  0  0  0  0  0  0  0  0  0  0
  2  4  1  0
  2  1  1  6
  2  3  1  0
  4  5  2  0
  6  7  1  0
  7  8  2  0
  7  9  1  0
  9 10  1  0
 11 10  1  1
 11 13  1  0
 12 11  1  0
 12  4  1  0
 13 14  2  0
 13 15  1  0
 15 16  1  0
 16 17  1  6
 17 18  1  0
 18 19  2  0
 18 22  1  0
 20 23  1  0
 20 16  1  0
 21 20  2  0
M  END
$$$$
