AQD.pdb
     RDKit          3D

 23 22  0  0  1  0  0  0  0  0999 V2000
   15.3569  -12.8244  -15.2593 C   0  0  0  0  0  0  0  0  0  0  0  0
   16.7194  -13.1091  -15.8284 C   0  0  2  0  0  0  0  0  0  0  0  0
   17.3467  -14.2456  -15.1689 N   0  0  0  0  0  0  0  0  0  0  0  0
   17.6506  -11.9497  -15.6669 C   0  0  0  0  0  0  0  0  0  0  0  0
   17.9083  -11.4379  -14.5440 O   0  0  0  0  0  0  0  0  0  0  0  0
   21.6745  -13.8733  -16.5249 N   0  0  0  0  0  0  0  0  0  0  0  0
   21.1688  -12.8299  -17.3316 C   0  0  0  0  0  0  0  0  0  0  0  0
   20.4237  -13.1086  -18.2917 O   0  0  0  0  0  0  0  0  0  0  0  0
   21.5365  -11.4348  -17.0154 C   0  0  0  0  0  0  0  0  0  0  0  0
   20.4860  -10.5300  -17.5493 C   0  0  0  0  0  0  0  0  0  0  0  0
   19.3006  -10.3475  -16.6401 C   0  0  2  0  0  0  0  0  0  0  0  0
   18.3032  -11.3583  -16.8006 N   0  0  0  0  0  0  0  0  0  0  0  0
   18.7287   -8.9667  -16.8000 C   0  0  0  0  0  0  0  0  0  0  0  0
   18.0066   -8.6773  -17.7881 O   0  0  0  0  0  0  0  0  0  0  0  0
   18.9740   -7.9385  -15.8551 N   0  0  0  0  0  0  0  0  0  0  0  0
   18.3579   -6.5991  -16.0494 C   0  0  1  0  0  0  0  0  0  0  0  0
   17.3595   -6.3762  -14.9557 C   0  0  0  0  0  0  0  0  0  0  0  0
   16.8051   -5.0283  -14.8464 C   0  0  0  0  0  0  0  0  0  0  0  0
   16.9164   -4.1936  -15.7587 O   0  0  0  0  0  0  0  0  0  0  0  0
   19.4546   -5.6107  -16.0106 C   0  0  0  0  0  0  0  0  0  0  0  0
   20.6192   -5.9262  -15.7181 O   0  0  0  0  0  0  0  0  0  0  0  0
   16.1344   -4.6697  -13.6890 O   0  0  0  0  0  0  0  0  0  0  0  0
   19.1623   -4.2792  -16.3144 O   0  0  0  0  0  0  0  0  0  0  0  0
  2  4  1  0
  2  1  1  1
  2  3  1  0
  4  5  2  0
  6  7  1  0
  7  8  2  0
  7  9  1  0
  9 10  1  0
 11 10  1  6
 11 13  1  0
 12 11  1  0
 12  4  1  0
 13 14  2  0
 13 15  1  0
 15 16  1  0
 16 17  1  1
 17 18  1  0
 18 19  2  0
 18 22  1  0
 20 23  1  0
 20 16  1  0
 21 20  2  0
M  END
$$$$
