QTG.pdb
     RDKit          3D

 21 20  0  0  1  0  0  0  0  0999 V2000
   18.5054  -15.0611  -16.3320 N   0  0  0  0  0  0  0  0  0  0  0  0
   17.1330  -14.7506  -16.1363 C   0  0  0  0  0  0  0  0  0  0  0  0
   16.3316  -15.6934  -15.9193 O   0  0  0  0  0  0  0  0  0  0  0  0
   16.6933  -13.3298  -16.1943 C   0  0  0  0  0  0  0  0  0  0  0  0
   17.9145  -12.4904  -16.4976 C   0  0  0  0  0  0  0  0  0  0  0  0
   18.3446  -11.6562  -15.3352 C   0  0  2  0  0  0  0  0  0  0  0  0
   17.2742  -11.5483  -14.3979 N   0  0  0  0  0  0  0  0  0  0  0  0
   18.8412  -10.3513  -15.8184 C   0  0  0  0  0  0  0  0  0  0  0  0
   19.6974  -10.3422  -16.7397 O   0  0  0  0  0  0  0  0  0  0  0  0
   18.4026   -5.6664  -16.8086 C   0  0  0  0  0  0  0  0  0  0  0  0
   17.9004   -6.8745  -16.0840 C   0  0  1  0  0  0  0  0  0  0  0  0
   16.9347   -7.4953  -16.8811 O   0  0  0  0  0  0  0  0  0  0  0  0
   19.0002   -7.8523  -15.7399 C   0  0  2  0  0  0  0  0  0  0  0  0
   18.4065   -9.0983  -15.3010 N   0  0  0  0  0  0  0  0  0  0  0  0
   19.9396   -7.3014  -14.7350 C   0  0  0  0  0  0  0  0  0  0  0  0
   19.6297   -7.2121  -13.5214 O   0  0  0  0  0  0  0  0  0  0  0  0
   21.2371   -6.8481  -15.1003 N   0  0  0  0  0  0  0  0  0  0  0  0
   22.2210   -6.4303  -14.1223 C   0  0  0  0  0  0  0  0  0  0  0  0
   21.9802   -5.0425  -13.7075 C   0  0  0  0  0  0  0  0  0  0  0  0
   22.7974   -4.4793  -12.7393 O   0  0  0  0  0  0  0  0  0  0  0  0
   21.0600   -4.3294  -14.1907 O   0  0  0  0  0  0  0  0  0  0  0  0
  1  2  1  0
  2  3  2  0
  4  5  1  0
  4  2  1  0
  6  8  1  0
  6  5  1  0
  6  7  1  1
  8  9  2  0
 11 10  1  6
 11 13  1  0
 12 11  1  0
 13 15  1  0
 13 14  1  1
 14  8  1  0
 15 17  1  0
 15 16  2  0
 17 18  1  0
 18 19  1  0
 19 21  2  0
 19 20  1  0
M  END
$$$$
