QTG.pdb
     RDKit          3D

 21 20  0  0  1  0  0  0  0  0999 V2000
   20.6291  -20.4471  -17.4825 N   0  0  0  0  0  0  0  0  0  0  0  0
   21.0346  -21.8060  -17.5657 C   0  0  0  0  0  0  0  0  0  0  0  0
   20.1480  -22.6961  -17.5618 O   0  0  0  0  0  0  0  0  0  0  0  0
   22.4851  -22.1281  -17.6538 C   0  0  0  0  0  0  0  0  0  0  0  0
   23.2419  -20.8189  -17.6209 C   0  0  0  0  0  0  0  0  0  0  0  0
   24.7178  -21.0017  -17.7633 C   0  0  2  0  0  0  0  0  0  0  0  0
   24.9855  -22.0426  -18.7018 N   0  0  0  0  0  0  0  0  0  0  0  0
   25.3190  -21.2350  -16.4340 C   0  0  0  0  0  0  0  0  0  0  0  0
   25.6718  -22.4048  -16.1353 O   0  0  0  0  0  0  0  0  0  0  0  0
   28.3924  -19.7033  -15.0842 C   0  0  0  0  0  0  0  0  0  0  0  0
   27.3405  -19.5300  -14.0353 C   0  0  1  0  0  0  0  0  0  0  0  0
   26.8903  -18.2076  -14.0786 O   0  0  0  0  0  0  0  0  0  0  0  0
   26.1795  -20.4824  -14.2048 C   0  0  2  0  0  0  0  0  0  0  0  0
   25.5236  -20.2104  -15.4671 N   0  0  0  0  0  0  0  0  0  0  0  0
   25.2358  -20.4172  -13.0642 C   0  0  0  0  0  0  0  0  0  0  0  0
   24.0472  -20.0400  -13.2121 O   0  0  0  0  0  0  0  0  0  0  0  0
   25.6343  -20.7795  -11.7480 N   0  0  0  0  0  0  0  0  0  0  0  0
   24.7654  -20.6223  -10.5993 C   0  0  0  0  0  0  0  0  0  0  0  0
   25.5022  -20.8785   -9.3554 C   0  0  0  0  0  0  0  0  0  0  0  0
   24.8261  -20.8061   -8.1470 O   0  0  0  0  0  0  0  0  0  0  0  0
   26.7297  -21.1635   -9.3285 O   0  0  0  0  0  0  0  0  0  0  0  0
  1  2  1  0
  2  3  2  0
  4  5  1  0
  4  2  1  0
  6  8  1  0
  6  5  1  0
  6  7  1  6
  8  9  2  0
 11 10  1  6
 11 13  1  0
 12 11  1  0
 13 15  1  0
 13 14  1  6
 14  8  1  0
 15 17  1  0
 15 16  2  0
 17 18  1  0
 18 19  1  0
 19 21  2  0
 19 20  1  0
M  END
$$$$
