QTG.pdb
     RDKit          3D

 21 20  0  0  1  0  0  0  0  0999 V2000
   15.2820  -13.0475  -13.7721 N   0  0  0  0  0  0  0  0  0  0  0  0
   14.9586  -13.1193  -15.1535 C   0  0  0  0  0  0  0  0  0  0  0  0
   13.9687  -13.8104  -15.5010 O   0  0  0  0  0  0  0  0  0  0  0  0
   15.7966  -12.3791  -16.1361 C   0  0  0  0  0  0  0  0  0  0  0  0
   16.8988  -11.6904  -15.3624 C   0  0  0  0  0  0  0  0  0  0  0  0
   17.8809  -10.9978  -16.2498 C   0  0  2  0  0  0  0  0  0  0  0  0
   18.3462  -11.9018  -17.2510 N   0  0  0  0  0  0  0  0  0  0  0  0
   18.9635  -10.4143  -15.4309 C   0  0  0  0  0  0  0  0  0  0  0  0
   19.0249  -10.7249  -14.2137 O   0  0  0  0  0  0  0  0  0  0  0  0
   22.6272  -10.7319  -16.0675 C   0  0  0  0  0  0  0  0  0  0  0  0
   22.3429   -9.2815  -15.8395 C   0  0  1  0  0  0  0  0  0  0  0  0
   22.3299   -8.6360  -17.0790 O   0  0  0  0  0  0  0  0  0  0  0  0
   21.0379   -9.0457  -15.1146 C   0  0  2  0  0  0  0  0  0  0  0  0
   19.9452   -9.5177  -15.9397 N   0  0  0  0  0  0  0  0  0  0  0  0
   20.8663   -7.6260  -14.7261 C   0  0  0  0  0  0  0  0  0  0  0  0
   20.1442   -6.8429  -15.3910 O   0  0  0  0  0  0  0  0  0  0  0  0
   21.5128   -7.0854  -13.5807 N   0  0  0  0  0  0  0  0  0  0  0  0
   21.3290   -5.7121  -13.1572 C   0  0  0  0  0  0  0  0  0  0  0  0
   22.0268   -4.7935  -14.0656 C   0  0  0  0  0  0  0  0  0  0  0  0
   22.0013   -3.4337  -13.7961 O   0  0  0  0  0  0  0  0  0  0  0  0
   22.6540   -5.1807  -15.0881 O   0  0  0  0  0  0  0  0  0  0  0  0
  1  2  1  0
  2  3  2  0
  4  5  1  0
  4  2  1  0
  6  8  1  0
  6  5  1  0
  6  7  1  6
  8  9  2  0
 11 10  1  6
 11 13  1  0
 12 11  1  0
 13 15  1  0
 13 14  1  6
 14  8  1  0
 15 17  1  0
 15 16  2  0
 17 18  1  0
 18 19  1  0
 19 21  2  0
 19 20  1  0
M  END
$$$$
