QTG.pdb
     RDKit          3D

 21 20  0  0  1  0  0  0  0  0999 V2000
   25.8703  -12.8437  -15.8601 N   0  0  0  0  0  0  0  0  0  0  0  0
   25.1173  -13.7547  -16.6482 C   0  0  0  0  0  0  0  0  0  0  0  0
   25.7279  -14.6772  -17.2435 O   0  0  0  0  0  0  0  0  0  0  0  0
   23.6412  -13.5875  -16.7421 C   0  0  0  0  0  0  0  0  0  0  0  0
   23.2567  -12.4436  -15.8301 C   0  0  0  0  0  0  0  0  0  0  0  0
   21.7998  -12.1194  -15.8939 C   0  0  2  0  0  0  0  0  0  0  0  0
   21.1574  -12.9739  -16.8390 N   0  0  0  0  0  0  0  0  0  0  0  0
   21.6243  -10.6810  -16.1825 C   0  0  0  0  0  0  0  0  0  0  0  0
   22.0498  -10.2358  -17.2791 O   0  0  0  0  0  0  0  0  0  0  0  0
   18.4871   -9.1274  -16.6386 C   0  0  0  0  0  0  0  0  0  0  0  0
   19.1930   -8.2176  -15.6843 C   0  0  1  0  0  0  0  0  0  0  0  0
   18.6835   -8.4442  -14.4027 O   0  0  0  0  0  0  0  0  0  0  0  0
   20.6922   -8.4081  -15.6911 C   0  0  2  0  0  0  0  0  0  0  0  0
   20.9995   -9.7652  -15.2894 N   0  0  0  0  0  0  0  0  0  0  0  0
   21.3835   -7.4087  -14.8432 C   0  0  0  0  0  0  0  0  0  0  0  0
   21.6729   -7.6476  -13.6448 O   0  0  0  0  0  0  0  0  0  0  0  0
   21.7512   -6.1315  -15.3491 N   0  0  0  0  0  0  0  0  0  0  0  0
   22.4757   -5.1583  -14.5572 C   0  0  0  0  0  0  0  0  0  0  0  0
   21.5466   -4.3378  -13.7702 C   0  0  0  0  0  0  0  0  0  0  0  0
   22.0510   -3.2939  -13.0097 O   0  0  0  0  0  0  0  0  0  0  0  0
   20.3018   -4.5350  -13.7498 O   0  0  0  0  0  0  0  0  0  0  0  0
  1  2  1  0
  2  3  2  0
  4  5  1  0
  4  2  1  0
  6  8  1  0
  6  5  1  0
  6  7  1  6
  8  9  2  0
 11 10  1  6
 11 13  1  0
 12 11  1  0
 13 15  1  0
 13 14  1  1
 14  8  1  0
 15 17  1  0
 15 16  2  0
 17 18  1  0
 18 19  1  0
 19 21  2  0
 19 20  1  0
M  END
$$$$
