QTG.pdb
     RDKit          3D

 21 20  0  0  1  0  0  0  0  0999 V2000
   22.4227  -20.6713  -11.9677 N   0  0  0  0  0  0  0  0  0  0  0  0
   22.3236  -20.8543  -10.5624 C   0  0  0  0  0  0  0  0  0  0  0  0
   21.2859  -21.3912  -10.1008 O   0  0  0  0  0  0  0  0  0  0  0  0
   23.4436  -20.4072   -9.6900 C   0  0  0  0  0  0  0  0  0  0  0  0
   24.5085  -19.8174  -10.5878 C   0  0  0  0  0  0  0  0  0  0  0  0
   25.5177  -20.8276  -11.0268 C   0  0  2  0  0  0  0  0  0  0  0  0
   26.3668  -21.1672   -9.9315 N   0  0  0  0  0  0  0  0  0  0  0  0
   26.2485  -20.3183  -12.2057 C   0  0  0  0  0  0  0  0  0  0  0  0
   27.0053  -19.3251  -12.0557 O   0  0  0  0  0  0  0  0  0  0  0  0
   28.3436  -20.0250  -16.3051 C   0  0  0  0  0  0  0  0  0  0  0  0
   27.3555  -20.8928  -15.5929 C   0  0  1  0  0  0  0  0  0  0  0  0
   28.0608  -21.8407  -14.8465 O   0  0  0  0  0  0  0  0  0  0  0  0
   26.4251  -20.1094  -14.6960 C   0  0  2  0  0  0  0  0  0  0  0  0
   26.1465  -20.8875  -13.5065 N   0  0  0  0  0  0  0  0  0  0  0  0
   25.1840  -19.7066  -15.3983 C   0  0  0  0  0  0  0  0  0  0  0  0
   24.0980  -20.3106  -15.2175 O   0  0  0  0  0  0  0  0  0  0  0  0
   25.1667  -18.6158  -16.3106 N   0  0  0  0  0  0  0  0  0  0  0  0
   23.9785  -18.2333  -17.0460 C   0  0  0  0  0  0  0  0  0  0  0  0
   24.2638  -17.1006  -17.9357 C   0  0  0  0  0  0  0  0  0  0  0  0
   23.7855  -15.8438  -17.5980 O   0  0  0  0  0  0  0  0  0  0  0  0
   24.9277  -17.2125  -19.0013 O   0  0  0  0  0  0  0  0  0  0  0  0
  1  2  1  0
  2  3  2  0
  4  5  1  0
  4  2  1  0
  6  8  1  0
  6  5  1  0
  6  7  1  1
  8  9  2  0
 11 10  1  1
 11 13  1  0
 12 11  1  0
 13 15  1  0
 13 14  1  1
 14  8  1  0
 15 17  1  0
 15 16  2  0
 17 18  1  0
 18 19  1  0
 19 21  2  0
 19 20  1  0
M  END
$$$$
