QTG.pdb
     RDKit          3D

 21 20  0  0  1  0  0  0  0  0999 V2000
   23.3350  -20.4112  -10.3558 N   0  0  0  0  0  0  0  0  0  0  0  0
   24.0338  -20.4257   -9.1190 C   0  0  0  0  0  0  0  0  0  0  0  0
   23.3706  -20.5451   -8.0587 O   0  0  0  0  0  0  0  0  0  0  0  0
   25.5169  -20.2998   -9.1201 C   0  0  0  0  0  0  0  0  0  0  0  0
   25.9465  -20.0252  -10.5442 C   0  0  0  0  0  0  0  0  0  0  0  0
   25.6782  -21.1748  -11.4597 C   0  0  2  0  0  0  0  0  0  0  0  0
   26.4530  -22.3029  -11.0558 N   0  0  0  0  0  0  0  0  0  0  0  0
   25.9193  -20.7619  -12.8577 C   0  0  0  0  0  0  0  0  0  0  0  0
   27.1084  -20.6795  -13.2593 O   0  0  0  0  0  0  0  0  0  0  0  0
   24.3029  -22.3020  -15.9612 C   0  0  0  0  0  0  0  0  0  0  0  0
   24.2061  -20.8134  -16.0673 C   0  0  1  0  0  0  0  0  0  0  0  0
   22.8932  -20.4362  -15.7719 O   0  0  0  0  0  0  0  0  0  0  0  0
   25.1732  -20.0954  -15.1546 C   0  0  2  0  0  0  0  0  0  0  0  0
   24.8816  -20.4505  -13.7811 N   0  0  0  0  0  0  0  0  0  0  0  0
   25.1516  -18.6287  -15.3648 C   0  0  0  0  0  0  0  0  0  0  0  0
   24.5585  -17.8573  -14.5710 O   0  0  0  0  0  0  0  0  0  0  0  0
   25.8027  -18.0274  -16.4769 N   0  0  0  0  0  0  0  0  0  0  0  0
   25.8196  -16.5943  -16.6890 C   0  0  0  0  0  0  0  0  0  0  0  0
   26.5429  -16.2632  -17.9231 C   0  0  0  0  0  0  0  0  0  0  0  0
   26.6020  -14.9399  -18.3328 O   0  0  0  0  0  0  0  0  0  0  0  0
   27.1187  -17.1280  -18.6368 O   0  0  0  0  0  0  0  0  0  0  0  0
  1  2  1  0
  2  3  2  0
  4  5  1  0
  4  2  1  0
  6  8  1  0
  6  5  1  0
  6  7  1  1
  8  9  2  0
 11 10  1  1
 11 13  1  0
 12 11  1  0
 13 15  1  0
 13 14  1  1
 14  8  1  0
 15 17  1  0
 15 16  2  0
 17 18  1  0
 18 19  1  0
 19 21  2  0
 19 20  1  0
M  END
$$$$
