QTG.pdb
     RDKit          3D

 21 20  0  0  1  0  0  0  0  0999 V2000
   25.5488  -20.6895   -9.3722 N   0  0  0  0  0  0  0  0  0  0  0  0
   26.2318  -21.2445  -10.4874 C   0  0  0  0  0  0  0  0  0  0  0  0
   25.9220  -22.4027  -10.8627 O   0  0  0  0  0  0  0  0  0  0  0  0
   27.2836  -20.4418  -11.1692 C   0  0  0  0  0  0  0  0  0  0  0  0
   26.6397  -19.7741  -12.3639 C   0  0  0  0  0  0  0  0  0  0  0  0
   26.2599  -20.7460  -13.4330 C   0  0  2  0  0  0  0  0  0  0  0  0
   27.4120  -21.0923  -14.2002 N   0  0  0  0  0  0  0  0  0  0  0  0
   25.1570  -20.1871  -14.2419 C   0  0  0  0  0  0  0  0  0  0  0  0
   25.4104  -19.2288  -15.0160 O   0  0  0  0  0  0  0  0  0  0  0  0
   23.5496  -21.4964  -16.9511 C   0  0  0  0  0  0  0  0  0  0  0  0
   22.3929  -21.0855  -16.0968 C   0  0  1  0  0  0  0  0  0  0  0  0
   21.8437  -22.2334  -15.5190 O   0  0  0  0  0  0  0  0  0  0  0  0
   22.7785  -20.0942  -15.0232 C   0  0  2  0  0  0  0  0  0  0  0  0
   23.8189  -20.6709  -14.1970 N   0  0  0  0  0  0  0  0  0  0  0  0
   21.6102  -19.6604  -14.2215 C   0  0  0  0  0  0  0  0  0  0  0  0
   21.4964  -19.9584  -13.0069 O   0  0  0  0  0  0  0  0  0  0  0  0
   20.5632  -18.8856  -14.7922 N   0  0  0  0  0  0  0  0  0  0  0  0
   19.4186  -18.4368  -14.0258 C   0  0  0  0  0  0  0  0  0  0  0  0
   18.4746  -19.5409  -13.8125 C   0  0  0  0  0  0  0  0  0  0  0  0
   17.3062  -19.2989  -13.1063 O   0  0  0  0  0  0  0  0  0  0  0  0
   18.6730  -20.7091  -14.2423 O   0  0  0  0  0  0  0  0  0  0  0  0
  1  2  1  0
  2  3  2  0
  4  5  1  0
  4  2  1  0
  6  8  1  0
  6  5  1  0
  6  7  1  6
  8  9  2  0
 11 10  1  1
 11 13  1  0
 12 11  1  0
 13 15  1  0
 13 14  1  1
 14  8  1  0
 15 17  1  0
 15 16  2  0
 17 18  1  0
 18 19  1  0
 19 21  2  0
 19 20  1  0
M  END
$$$$
