QTG.pdb
     RDKit          3D

 21 20  0  0  1  0  0  0  0  0999 V2000
   19.1858  -20.0862  -14.9215 N   0  0  0  0  0  0  0  0  0  0  0  0
   19.1207  -20.1332  -16.3399 C   0  0  0  0  0  0  0  0  0  0  0  0
   18.0741  -19.7282  -16.9044 O   0  0  0  0  0  0  0  0  0  0  0  0
   20.2856  -20.6567  -17.1044 C   0  0  0  0  0  0  0  0  0  0  0  0
   21.3468  -21.0480  -16.1000 C   0  0  0  0  0  0  0  0  0  0  0  0
   22.1492  -19.8811  -15.6241 C   0  0  2  0  0  0  0  0  0  0  0  0
   22.2577  -18.9138  -16.6675 N   0  0  0  0  0  0  0  0  0  0  0  0
   23.4544  -20.3513  -15.1157 C   0  0  0  0  0  0  0  0  0  0  0  0
   23.5226  -21.5074  -14.6250 O   0  0  0  0  0  0  0  0  0  0  0  0
   28.2873  -19.6649  -14.2268 C   0  0  0  0  0  0  0  0  0  0  0  0
   27.0387  -19.3395  -14.9830 C   0  0  1  0  0  0  0  0  0  0  0  0
   27.1767  -19.8217  -16.2875 O   0  0  0  0  0  0  0  0  0  0  0  0
   25.7971  -19.9154  -14.3423 C   0  0  2  0  0  0  0  0  0  0  0  0
   24.6442  -19.5704  -15.1482 N   0  0  0  0  0  0  0  0  0  0  0  0
   25.6421  -19.4756  -12.9358 C   0  0  0  0  0  0  0  0  0  0  0  0
   25.4678  -18.2683  -12.6375 O   0  0  0  0  0  0  0  0  0  0  0  0
   25.6839  -20.4026  -11.8581 N   0  0  0  0  0  0  0  0  0  0  0  0
   25.5705  -19.9934  -10.4729 C   0  0  0  0  0  0  0  0  0  0  0  0
   25.7346  -21.1462   -9.5786 C   0  0  0  0  0  0  0  0  0  0  0  0
   25.6847  -20.9454   -8.2076 O   0  0  0  0  0  0  0  0  0  0  0  0
   25.9203  -22.3208   -9.9965 O   0  0  0  0  0  0  0  0  0  0  0  0
  1  2  1  0
  2  3  2  0
  4  5  1  0
  4  2  1  0
  6  8  1  0
  6  5  1  0
  6  7  1  6
  8  9  2  0
 11 10  1  1
 11 13  1  0
 12 11  1  0
 13 15  1  0
 13 14  1  6
 14  8  1  0
 15 17  1  0
 15 16  2  0
 17 18  1  0
 18 19  1  0
 19 21  2  0
 19 20  1  0
M  END
$$$$
