QTG.pdb
     RDKit          3D

 21 20  0  0  1  0  0  0  0  0999 V2000
   30.6529  -22.2967  -10.9717 N   0  0  0  0  0  0  0  0  0  0  0  0
   29.8548  -21.2679  -10.4038 C   0  0  0  0  0  0  0  0  0  0  0  0
   29.3614  -21.4541   -9.2636 O   0  0  0  0  0  0  0  0  0  0  0  0
   29.6313  -20.0129  -11.1723 C   0  0  0  0  0  0  0  0  0  0  0  0
   28.6964  -20.3425  -12.3147 C   0  0  0  0  0  0  0  0  0  0  0  0
   27.3394  -20.7584  -11.8483 C   0  0  2  0  0  0  0  0  0  0  0  0
   27.4232  -22.0204  -11.1878 N   0  0  0  0  0  0  0  0  0  0  0  0
   26.3990  -20.7488  -12.9879 C   0  0  0  0  0  0  0  0  0  0  0  0
   26.5312  -21.6269  -13.8785 O   0  0  0  0  0  0  0  0  0  0  0  0
   23.0738  -21.6917  -13.0403 C   0  0  0  0  0  0  0  0  0  0  0  0
   23.0477  -20.3220  -13.6401 C   0  0  1  0  0  0  0  0  0  0  0  0
   22.6431  -19.4180  -12.6541 O   0  0  0  0  0  0  0  0  0  0  0  0
   24.3828  -19.9062  -14.2132 C   0  0  2  0  0  0  0  0  0  0  0  0
   25.3479  -19.8006  -13.1384 N   0  0  0  0  0  0  0  0  0  0  0  0
   24.2855  -18.6520  -14.9963 C   0  0  0  0  0  0  0  0  0  0  0  0
   23.4020  -18.4891  -15.8737 O   0  0  0  0  0  0  0  0  0  0  0  0
   25.1898  -17.5742  -14.7893 N   0  0  0  0  0  0  0  0  0  0  0  0
   25.2165  -16.4040  -15.6431 C   0  0  0  0  0  0  0  0  0  0  0  0
   25.7613  -16.7407  -16.9643 C   0  0  0  0  0  0  0  0  0  0  0  0
   25.9278  -15.7309  -17.8997 O   0  0  0  0  0  0  0  0  0  0  0  0
   26.0889  -17.9119  -17.2958 O   0  0  0  0  0  0  0  0  0  0  0  0
  1  2  1  0
  2  3  2  0
  4  5  1  0
  4  2  1  0
  6  8  1  0
  6  5  1  0
  6  7  1  6
  8  9  2  0
 11 10  1  1
 11 13  1  0
 12 11  1  0
 13 15  1  0
 13 14  1  1
 14  8  1  0
 15 17  1  0
 15 16  2  0
 17 18  1  0
 18 19  1  0
 19 21  2  0
 19 20  1  0
M  END
$$$$
