QTG.pdb
     RDKit          3D

 21 20  0  0  1  0  0  0  0  0999 V2000
   17.4437  -14.0073  -14.2484 N   0  0  0  0  0  0  0  0  0  0  0  0
   16.7608  -13.8603  -15.4854 C   0  0  0  0  0  0  0  0  0  0  0  0
   15.7547  -14.5806  -15.7024 O   0  0  0  0  0  0  0  0  0  0  0  0
   17.2560  -12.8656  -16.4758 C   0  0  0  0  0  0  0  0  0  0  0  0
   18.4035  -12.1193  -15.8323 C   0  0  0  0  0  0  0  0  0  0  0  0
   19.5201  -11.8442  -16.7859 C   0  0  2  0  0  0  0  0  0  0  0  0
   20.1662  -13.0672  -17.1363 N   0  0  0  0  0  0  0  0  0  0  0  0
   20.4329  -10.8389  -16.2037 C   0  0  0  0  0  0  0  0  0  0  0  0
   21.0302  -11.1233  -15.1340 O   0  0  0  0  0  0  0  0  0  0  0  0
   23.4873   -9.6371  -17.6632 C   0  0  0  0  0  0  0  0  0  0  0  0
   22.7324   -8.4033  -17.2833 C   0  0  1  0  0  0  0  0  0  0  0  0
   22.1522   -7.8702  -18.4376 O   0  0  0  0  0  0  0  0  0  0  0  0
   21.6722   -8.6619  -16.2379 C   0  0  2  0  0  0  0  0  0  0  0  0
   20.6777   -9.5621  -16.7838 N   0  0  0  0  0  0  0  0  0  0  0  0
   21.0673   -7.4054  -15.7367 C   0  0  0  0  0  0  0  0  0  0  0  0
   19.9532   -6.9992  -16.1496 O   0  0  0  0  0  0  0  0  0  0  0  0
   21.7225   -6.6013  -14.7638 N   0  0  0  0  0  0  0  0  0  0  0  0
   21.1886   -5.3318  -14.3140 C   0  0  0  0  0  0  0  0  0  0  0  0
   21.9956   -4.7933  -13.2119 C   0  0  0  0  0  0  0  0  0  0  0  0
   21.7623   -3.4967  -12.7795 O   0  0  0  0  0  0  0  0  0  0  0  0
   22.8985   -5.4550  -12.6325 O   0  0  0  0  0  0  0  0  0  0  0  0
  1  2  1  0
  2  3  2  0
  4  5  1  0
  4  2  1  0
  6  8  1  0
  6  5  1  0
  6  7  1  1
  8  9  2  0
 11 10  1  6
 11 13  1  0
 12 11  1  0
 13 15  1  0
 13 14  1  6
 14  8  1  0
 15 17  1  0
 15 16  2  0
 17 18  1  0
 18 19  1  0
 19 21  2  0
 19 20  1  0
M  END
$$$$
