QTG.pdb
     RDKit          3D

 21 20  0  0  1  0  0  0  0  0999 V2000
   26.5889  -23.5793  -15.7799 N   0  0  0  0  0  0  0  0  0  0  0  0
   27.9833  -23.4896  -16.0359 C   0  0  0  0  0  0  0  0  0  0  0  0
   28.6121  -24.5447  -16.3000 O   0  0  0  0  0  0  0  0  0  0  0  0
   28.6483  -22.1590  -15.9832 C   0  0  0  0  0  0  0  0  0  0  0  0
   27.5913  -21.1392  -15.6219 C   0  0  0  0  0  0  0  0  0  0  0  0
   27.0260  -20.4453  -16.8181 C   0  0  2  0  0  0  0  0  0  0  0  0
   28.0628  -19.7424  -17.5015 N   0  0  0  0  0  0  0  0  0  0  0  0
   25.9000  -19.5826  -16.4047 C   0  0  0  0  0  0  0  0  0  0  0  0
   26.1617  -18.4671  -15.8859 O   0  0  0  0  0  0  0  0  0  0  0  0
   23.6488  -17.9085  -18.4078 C   0  0  0  0  0  0  0  0  0  0  0  0
   22.7420  -18.5720  -17.4209 C   0  0  1  0  0  0  0  0  0  0  0  0
   22.1231  -19.6548  -18.0516 O   0  0  0  0  0  0  0  0  0  0  0  0
   23.4656  -19.0361  -16.1780 C   0  0  2  0  0  0  0  0  0  0  0  0
   24.5309  -19.9403  -16.5592 N   0  0  0  0  0  0  0  0  0  0  0  0
   22.5431  -19.6496  -15.1939 C   0  0  0  0  0  0  0  0  0  0  0  0
   22.6607  -20.8479  -14.8375 O   0  0  0  0  0  0  0  0  0  0  0  0
   21.4810  -18.9076  -14.6076 N   0  0  0  0  0  0  0  0  0  0  0  0
   20.4956  -19.5134  -13.7352 C   0  0  0  0  0  0  0  0  0  0  0  0
   19.1369  -19.2238  -14.2108 C   0  0  0  0  0  0  0  0  0  0  0  0
   18.0578  -19.7798  -13.5409 O   0  0  0  0  0  0  0  0  0  0  0  0
   18.8981  -18.4885  -15.2063 O   0  0  0  0  0  0  0  0  0  0  0  0
  1  2  1  0
  2  3  2  0
  4  5  1  0
  4  2  1  0
  6  8  1  0
  6  5  1  0
  6  7  1  1
  8  9  2  0
 11 10  1  6
 11 13  1  0
 12 11  1  0
 13 15  1  0
 13 14  1  6
 14  8  1  0
 15 17  1  0
 15 16  2  0
 17 18  1  0
 18 19  1  0
 19 21  2  0
 19 20  1  0
M  END
$$$$
