QTG.pdb
     RDKit          3D

 21 20  0  0  1  0  0  0  0  0999 V2000
   16.4394   -8.8224  -18.9042 N   0  0  0  0  0  0  0  0  0  0  0  0
   16.3047  -10.2273  -19.0660 C   0  0  0  0  0  0  0  0  0  0  0  0
   15.3498  -10.6609  -19.7577 O   0  0  0  0  0  0  0  0  0  0  0  0
   17.2916  -11.1323  -18.4158 C   0  0  0  0  0  0  0  0  0  0  0  0
   18.3153  -10.2613  -17.7221 C   0  0  0  0  0  0  0  0  0  0  0  0
   19.3826  -11.0552  -17.0421 C   0  0  2  0  0  0  0  0  0  0  0  0
   18.8506  -12.3070  -16.6109 N   0  0  0  0  0  0  0  0  0  0  0  0
   19.9744  -10.2563  -15.9491 C   0  0  0  0  0  0  0  0  0  0  0  0
   19.3848  -10.2350  -14.8383 O   0  0  0  0  0  0  0  0  0  0  0  0
   23.0591  -10.8730  -14.3017 C   0  0  0  0  0  0  0  0  0  0  0  0
   23.1271   -9.4233  -14.6627 C   0  0  1  0  0  0  0  0  0  0  0  0
   23.9575   -9.2868  -15.7786 O   0  0  0  0  0  0  0  0  0  0  0  0
   21.7690   -8.8243  -14.9465 C   0  0  2  0  0  0  0  0  0  0  0  0
   21.1773   -9.5062  -16.0790 N   0  0  0  0  0  0  0  0  0  0  0  0
   21.8403   -7.3592  -15.1566 C   0  0  0  0  0  0  0  0  0  0  0  0
   21.7044   -6.8488  -16.2959 O   0  0  0  0  0  0  0  0  0  0  0  0
   22.0663   -6.4632  -14.0756 N   0  0  0  0  0  0  0  0  0  0  0  0
   22.2193   -5.0351  -14.2657 C   0  0  0  0  0  0  0  0  0  0  0  0
   20.9118   -4.3676  -14.2402 C   0  0  0  0  0  0  0  0  0  0  0  0
   20.8592   -2.9879  -14.3672 O   0  0  0  0  0  0  0  0  0  0  0  0
   19.8236   -4.9897  -14.1076 O   0  0  0  0  0  0  0  0  0  0  0  0
  1  2  1  0
  2  3  2  0
  4  5  1  0
  4  2  1  0
  6  8  1  0
  6  5  1  0
  6  7  1  1
  8  9  2  0
 11 10  1  6
 11 13  1  0
 12 11  1  0
 13 15  1  0
 13 14  1  6
 14  8  1  0
 15 17  1  0
 15 16  2  0
 17 18  1  0
 18 19  1  0
 19 21  2  0
 19 20  1  0
M  END
$$$$
