QTG.pdb
     RDKit          3D

 21 20  0  0  1  0  0  0  0  0999 V2000
   19.4846  -14.7603  -16.9066 N   0  0  0  0  0  0  0  0  0  0  0  0
   18.0916  -14.5691  -16.7040 C   0  0  0  0  0  0  0  0  0  0  0  0
   17.3414  -15.5767  -16.7173 O   0  0  0  0  0  0  0  0  0  0  0  0
   17.5709  -13.1921  -16.4843 C   0  0  0  0  0  0  0  0  0  0  0  0
   18.7457  -12.2440  -16.5781 C   0  0  0  0  0  0  0  0  0  0  0  0
   18.7613  -11.2338  -15.4776 C   0  0  2  0  0  0  0  0  0  0  0  0
   17.4422  -10.7331  -15.2651 N   0  0  0  0  0  0  0  0  0  0  0  0
   19.7511  -10.1808  -15.7852 C   0  0  0  0  0  0  0  0  0  0  0  0
   20.8943  -10.5315  -16.1748 O   0  0  0  0  0  0  0  0  0  0  0  0
   19.5092   -7.7193  -18.4074 C   0  0  0  0  0  0  0  0  0  0  0  0
   19.8446   -6.9407  -17.1754 C   0  0  1  0  0  0  0  0  0  0  0  0
   18.6772   -6.3288  -16.7107 O   0  0  0  0  0  0  0  0  0  0  0  0
   20.4541   -7.7954  -16.0882 C   0  0  2  0  0  0  0  0  0  0  0  0
   19.4865   -8.7871  -15.6664 N   0  0  0  0  0  0  0  0  0  0  0  0
   20.9460   -6.9819  -14.9515 C   0  0  0  0  0  0  0  0  0  0  0  0
   20.2966   -6.8832  -13.8812 O   0  0  0  0  0  0  0  0  0  0  0  0
   22.1779   -6.2748  -15.0214 N   0  0  0  0  0  0  0  0  0  0  0  0
   22.6865   -5.4839  -13.9192 C   0  0  0  0  0  0  0  0  0  0  0  0
   21.9665   -4.2079  -13.8236 C   0  0  0  0  0  0  0  0  0  0  0  0
   22.3416   -3.2963  -12.8485 O   0  0  0  0  0  0  0  0  0  0  0  0
   21.0156   -3.8948  -14.5894 O   0  0  0  0  0  0  0  0  0  0  0  0
  1  2  1  0
  2  3  2  0
  4  5  1  0
  4  2  1  0
  6  8  1  0
  6  5  1  0
  6  7  1  6
  8  9  2  0
 11 10  1  6
 11 13  1  0
 12 11  1  0
 13 15  1  0
 13 14  1  1
 14  8  1  0
 15 17  1  0
 15 16  2  0
 17 18  1  0
 18 19  1  0
 19 21  2  0
 19 20  1  0
M  END
$$$$
