QTG.pdb
     RDKit          3D

 21 20  0  0  1  0  0  0  0  0999 V2000
   23.5737  -20.8884  -10.7805 N   0  0  0  0  0  0  0  0  0  0  0  0
   23.8260  -20.9681   -9.3847 C   0  0  0  0  0  0  0  0  0  0  0  0
   22.8834  -21.3024   -8.6246 O   0  0  0  0  0  0  0  0  0  0  0  0
   25.1883  -20.6552   -8.8729 C   0  0  0  0  0  0  0  0  0  0  0  0
   25.9880  -20.0953  -10.0283 C   0  0  0  0  0  0  0  0  0  0  0  0
   26.0191  -21.0129  -11.2069 C   0  0  2  0  0  0  0  0  0  0  0  0
   27.1664  -21.8577  -11.1290 N   0  0  0  0  0  0  0  0  0  0  0  0
   25.9508  -20.2218  -12.4529 C   0  0  0  0  0  0  0  0  0  0  0  0
   26.2114  -18.9927  -12.3949 O   0  0  0  0  0  0  0  0  0  0  0  0
   27.9574  -20.1238  -15.2539 C   0  0  0  0  0  0  0  0  0  0  0  0
   26.5989  -20.2731  -15.8611 C   0  0  1  0  0  0  0  0  0  0  0  0
   26.4624  -21.5879  -16.3150 O   0  0  0  0  0  0  0  0  0  0  0  0
   25.4846  -19.9353  -14.8977 C   0  0  2  0  0  0  0  0  0  0  0  0
   25.6062  -20.7703  -13.7205 N   0  0  0  0  0  0  0  0  0  0  0  0
   24.1489  -20.0563  -15.5279 C   0  0  0  0  0  0  0  0  0  0  0  0
   23.3551  -20.9791  -15.2193 O   0  0  0  0  0  0  0  0  0  0  0  0
   23.7048  -19.1311  -16.5123 N   0  0  0  0  0  0  0  0  0  0  0  0
   22.4134  -19.2416  -17.1597 C   0  0  0  0  0  0  0  0  0  0  0  0
   21.4676  -18.2709  -16.5949 C   0  0  0  0  0  0  0  0  0  0  0  0
   20.7638  -17.4406  -17.4538 O   0  0  0  0  0  0  0  0  0  0  0  0
   21.2601  -18.1518  -15.3573 O   0  0  0  0  0  0  0  0  0  0  0  0
  1  2  1  0
  2  3  2  0
  4  5  1  0
  4  2  1  0
  6  8  1  0
  6  5  1  0
  6  7  1  6
  8  9  2  0
 11 10  1  1
 11 13  1  0
 12 11  1  0
 13 15  1  0
 13 14  1  1
 14  8  1  0
 15 17  1  0
 15 16  2  0
 17 18  1  0
 18 19  1  0
 19 21  2  0
 19 20  1  0
M  END
$$$$
