QTG.pdb
     RDKit          3D

 21 20  0  0  1  0  0  0  0  0999 V2000
   22.7071  -21.6636   -8.9596 N   0  0  0  0  0  0  0  0  0  0  0  0
   23.4641  -20.5115   -9.3026 C   0  0  0  0  0  0  0  0  0  0  0  0
   22.9457  -19.6612  -10.0684 O   0  0  0  0  0  0  0  0  0  0  0  0
   24.8359  -20.3508   -8.7476 C   0  0  0  0  0  0  0  0  0  0  0  0
   25.7180  -19.8373   -9.8638 C   0  0  0  0  0  0  0  0  0  0  0  0
   25.9925  -20.8725  -10.9053 C   0  0  2  0  0  0  0  0  0  0  0  0
   27.0062  -21.7638  -10.4428 N   0  0  0  0  0  0  0  0  0  0  0  0
   26.3243  -20.2126  -12.1849 C   0  0  0  0  0  0  0  0  0  0  0  0
   27.2321  -19.3421  -12.1899 O   0  0  0  0  0  0  0  0  0  0  0  0
   28.0156  -21.3023  -14.8967 C   0  0  0  0  0  0  0  0  0  0  0  0
   26.7879  -20.7444  -15.5433 C   0  0  1  0  0  0  0  0  0  0  0  0
   25.9736  -21.8109  -15.9339 O   0  0  0  0  0  0  0  0  0  0  0  0
   26.0219  -19.8071  -14.6386 C   0  0  2  0  0  0  0  0  0  0  0  0
   25.6750  -20.5046  -13.4176 N   0  0  0  0  0  0  0  0  0  0  0  0
   24.8299  -19.2371  -15.3095 C   0  0  0  0  0  0  0  0  0  0  0  0
   23.6653  -19.4993  -14.9200 O   0  0  0  0  0  0  0  0  0  0  0  0
   24.9513  -18.3659  -16.4270 N   0  0  0  0  0  0  0  0  0  0  0  0
   23.8098  -17.7096  -17.0314 C   0  0  0  0  0  0  0  0  0  0  0  0
   23.0970  -18.6314  -17.9247 C   0  0  0  0  0  0  0  0  0  0  0  0
   21.9115  -18.2160  -18.5117 O   0  0  0  0  0  0  0  0  0  0  0  0
   23.5108  -19.7924  -18.1884 O   0  0  0  0  0  0  0  0  0  0  0  0
  1  2  1  0
  2  3  2  0
  4  5  1  0
  4  2  1  0
  6  8  1  0
  6  5  1  0
  6  7  1  1
  8  9  2  0
 11 10  1  1
 11 13  1  0
 12 11  1  0
 13 15  1  0
 13 14  1  1
 14  8  1  0
 15 17  1  0
 15 16  2  0
 17 18  1  0
 18 19  1  0
 19 21  2  0
 19 20  1  0
M  END
$$$$
