NPK.pdb
     RDKit          3D

 25 25  0  0  1  0  0  0  0  0999 V2000
    8.0571  -16.1015   20.5765 N   0  0  0  0  0  0  0  0  0  0  0  0
    7.1922  -16.6157   21.5667 C   0  0  0  0  0  0  0  0  0  0  0  0
    6.9222  -17.8569   21.4775 O   0  0  0  0  0  0  0  0  0  0  0  0
    6.6433  -15.7657   22.6288 C   0  0  0  0  0  0  0  0  0  0  0  0
    7.2414  -14.3610   22.4442 C   0  0  2  0  0  0  0  0  0  0  0  0
    7.9516  -14.3816   21.2213 N   0  0  0  0  0  0  0  0  0  0  0  0
    7.9773  -14.0435   23.6598 C   0  0  0  0  0  0  0  0  0  0  0  0
    9.1970  -14.4588   23.7477 O   0  0  0  0  0  0  0  0  0  0  0  0
    7.5183  -13.3182   24.7894 N   0  0  0  0  0  0  0  0  0  0  0  0
    6.2688  -12.6277   24.8835 C   0  0  0  0  0  0  0  0  0  0  0  0
    5.9437  -12.6797   26.3682 C   0  0  0  0  0  0  0  0  0  0  0  0
    7.3237  -12.2863   26.9171 C   0  0  0  0  0  0  0  0  0  0  0  0
    8.2128  -13.1337   26.0524 C   0  0  1  0  0  0  0  0  0  0  0  0
    8.5771  -14.4219   26.6819 C   0  0  0  0  0  0  0  0  0  0  0  0
    7.7465  -15.3731   26.6965 O   0  0  0  0  0  0  0  0  0  0  0  0
    9.8201  -14.6780   27.2862 N   0  0  0  0  0  0  0  0  0  0  0  0
   10.2445  -15.9704   27.8063 C   0  0  1  0  0  0  0  0  0  0  0  0
   11.3727  -16.5476   27.0410 C   0  0  0  0  0  0  0  0  0  0  0  0
   11.7778  -17.8853   27.5792 C   0  0  0  0  0  0  0  0  0  0  0  0
   12.9749  -18.4696   26.8695 C   0  0  0  0  0  0  0  0  0  0  0  0
   13.2731  -19.8281   27.4991 C   0  0  0  0  0  0  0  0  0  0  0  0
   14.4605  -20.4254   26.9258 N   0  0  0  0  0  0  0  0  0  0  0  0
   10.6398  -15.7580   29.2093 C   0  0  0  0  0  0  0  0  0  0  0  0
   10.8181  -14.6356   29.7581 O   0  0  0  0  0  0  0  0  0  0  0  0
   10.8350  -16.9106   30.0059 O   0  0  0  0  0  0  0  0  0  0  0  0
  1  2  1  0
  2  3  2  0
  4  2  1  0
  5  4  1  0
  5  6  1  6
  7  5  1  0
  7  9  1  0
  8  7  2  0
  9 13  1  0
 10  9  1  0
 10 11  1  0
 11 12  1  0
 13 12  1  0
 13 14  1  1
 14 15  2  0
 16 14  1  0
 17 16  1  0
 17 18  1  6
 19 18  1  0
 20 19  1  0
 20 21  1  0
 22 21  1  0
 23 17  1  0
 24 23  2  0
 25 23  1  0
M  END
$$$$
