NPK.pdb
     RDKit          3D

 25 25  0  0  1  0  0  0  0  0999 V2000
    6.9424  -17.9955   15.6911 N   0  0  0  0  0  0  0  0  0  0  0  0
    6.5993  -18.2799   17.0307 C   0  0  0  0  0  0  0  0  0  0  0  0
    5.7526  -19.2157   17.1999 O   0  0  0  0  0  0  0  0  0  0  0  0
    7.1868  -17.5384   18.1518 C   0  0  0  0  0  0  0  0  0  0  0  0
    8.1214  -16.4730   17.5547 C   0  0  2  0  0  0  0  0  0  0  0  0
    8.8961  -17.1232   16.5661 N   0  0  0  0  0  0  0  0  0  0  0  0
    8.8179  -15.8403   18.6659 C   0  0  0  0  0  0  0  0  0  0  0  0
    9.8789  -16.4219   19.1174 O   0  0  0  0  0  0  0  0  0  0  0  0
    8.4753  -14.6368   19.3345 N   0  0  0  0  0  0  0  0  0  0  0  0
    7.4537  -13.7212   18.9286 C   0  0  0  0  0  0  0  0  0  0  0  0
    7.0004  -13.0903   20.2360 C   0  0  0  0  0  0  0  0  0  0  0  0
    8.3830  -12.8083   20.8438 C   0  0  0  0  0  0  0  0  0  0  0  0
    9.0828  -14.1026   20.5416 C   0  0  1  0  0  0  0  0  0  0  0  0
    9.0326  -15.0649   21.6640 C   0  0  0  0  0  0  0  0  0  0  0  0
    7.9175  -15.4603   22.1054 O   0  0  0  0  0  0  0  0  0  0  0  0
   10.1704  -15.5917   22.2995 N   0  0  0  0  0  0  0  0  0  0  0  0
   10.1458  -16.5663   23.3814 C   0  0  1  0  0  0  0  0  0  0  0  0
   10.4776  -17.9337   22.9214 C   0  0  0  0  0  0  0  0  0  0  0  0
   11.8547  -18.0005   22.3364 C   0  0  0  0  0  0  0  0  0  0  0  0
   12.2523  -19.3956   21.9195 C   0  0  0  0  0  0  0  0  0  0  0  0
   13.6738  -19.3297   21.3662 C   0  0  0  0  0  0  0  0  0  0  0  0
   14.1869  -20.6511   21.0730 N   0  0  0  0  0  0  0  0  0  0  0  0
   11.1266  -16.1168   24.3843 C   0  0  0  0  0  0  0  0  0  0  0  0
   11.9862  -15.2089   24.2125 O   0  0  0  0  0  0  0  0  0  0  0  0
   11.1002  -16.7583   25.6448 O   0  0  0  0  0  0  0  0  0  0  0  0
  1  2  1  0
  2  3  2  0
  4  2  1  0
  5  4  1  0
  5  6  1  6
  7  5  1  0
  7  9  1  0
  8  7  2  0
  9 13  1  0
 10  9  1  0
 10 11  1  0
 11 12  1  0
 13 12  1  0
 13 14  1  1
 14 15  2  0
 16 14  1  0
 17 16  1  0
 17 18  1  6
 19 18  1  0
 20 19  1  0
 20 21  1  0
 22 21  1  0
 23 17  1  0
 24 23  2  0
 25 23  1  0
M  END
$$$$
