NPK.pdb
     RDKit          3D

 25 25  0  0  1  0  0  0  0  0999 V2000
    5.4084  -15.6542   20.5945 N   0  0  0  0  0  0  0  0  0  0  0  0
    6.5758  -16.2239   21.1473 C   0  0  0  0  0  0  0  0  0  0  0  0
    7.1831  -17.0677   20.4122 O   0  0  0  0  0  0  0  0  0  0  0  0
    7.0523  -15.8604   22.4862 C   0  0  0  0  0  0  0  0  0  0  0  0
    7.6255  -14.4362   22.3958 C   0  0  2  0  0  0  0  0  0  0  0  0
    8.4074  -14.3893   21.2182 N   0  0  0  0  0  0  0  0  0  0  0  0
    8.2800  -14.1545   23.6656 C   0  0  0  0  0  0  0  0  0  0  0  0
    9.4523  -14.6598   23.8607 O   0  0  0  0  0  0  0  0  0  0  0  0
    7.7860  -13.3766   24.7443 N   0  0  0  0  0  0  0  0  0  0  0  0
    6.5770  -12.6118   24.7336 C   0  0  0  0  0  0  0  0  0  0  0  0
    6.1439  -12.6091   26.1914 C   0  0  0  0  0  0  0  0  0  0  0  0
    7.5023  -12.2845   26.8315 C   0  0  0  0  0  0  0  0  0  0  0  0
    8.3982  -13.2031   26.0507 C   0  0  1  0  0  0  0  0  0  0  0  0
    8.6381  -14.4950   26.7302 C   0  0  0  0  0  0  0  0  0  0  0  0
    7.7433  -15.3861   26.7235 O   0  0  0  0  0  0  0  0  0  0  0  0
    9.8271  -14.8188   27.4065 N   0  0  0  0  0  0  0  0  0  0  0  0
   10.1673  -16.1427   27.9089 C   0  0  1  0  0  0  0  0  0  0  0  0
   11.2370  -16.7925   27.1183 C   0  0  0  0  0  0  0  0  0  0  0  0
   11.5700  -18.1516   27.6521 C   0  0  0  0  0  0  0  0  0  0  0  0
   12.7202  -18.8059   26.9260 C   0  0  0  0  0  0  0  0  0  0  0  0
   12.9726  -20.1627   27.5790 C   0  0  0  0  0  0  0  0  0  0  0  0
   14.1021  -20.8365   26.9743 N   0  0  0  0  0  0  0  0  0  0  0  0
   10.6022  -15.9714   29.3058 C   0  0  0  0  0  0  0  0  0  0  0  0
   11.0323  -14.8986   29.8126 O   0  0  0  0  0  0  0  0  0  0  0  0
   10.5304  -17.1062   30.1474 O   0  0  0  0  0  0  0  0  0  0  0  0
  1  2  1  0
  2  3  2  0
  4  2  1  0
  5  4  1  0
  5  6  1  6
  7  5  1  0
  7  9  1  0
  8  7  2  0
  9 13  1  0
 10  9  1  0
 10 11  1  0
 11 12  1  0
 13 12  1  0
 13 14  1  1
 14 15  2  0
 16 14  1  0
 17 16  1  0
 17 18  1  6
 19 18  1  0
 20 19  1  0
 20 21  1  0
 22 21  1  0
 23 17  1  0
 24 23  2  0
 25 23  1  0
M  END
$$$$
