NPK.pdb
     RDKit          3D

 25 25  0  0  1  0  0  0  0  0999 V2000
    7.2750  -19.4597   15.5510 N   0  0  0  0  0  0  0  0  0  0  0  0
    7.0428  -18.2715   16.2771 C   0  0  0  0  0  0  0  0  0  0  0  0
    5.9660  -17.6519   15.9976 O   0  0  0  0  0  0  0  0  0  0  0  0
    7.9885  -17.7881   17.2888 C   0  0  0  0  0  0  0  0  0  0  0  0
    8.4423  -16.3839   16.8557 C   0  0  2  0  0  0  0  0  0  0  0  0
    9.2090  -16.5519   15.6792 N   0  0  0  0  0  0  0  0  0  0  0  0
    9.0806  -15.7635   18.0079 C   0  0  0  0  0  0  0  0  0  0  0  0
   10.2569  -16.1816   18.3387 O   0  0  0  0  0  0  0  0  0  0  0  0
    8.5666  -14.7326   18.8360 N   0  0  0  0  0  0  0  0  0  0  0  0
    7.3428  -14.0239   18.6197 C   0  0  0  0  0  0  0  0  0  0  0  0
    6.9034  -13.6349   20.0227 C   0  0  0  0  0  0  0  0  0  0  0  0
    8.2523  -13.1216   20.5494 C   0  0  0  0  0  0  0  0  0  0  0  0
    9.1695  -14.1992   20.0458 C   0  0  1  0  0  0  0  0  0  0  0  0
    9.4318  -15.2536   21.0497 C   0  0  0  0  0  0  0  0  0  0  0  0
    8.5366  -16.1020   21.3209 O   0  0  0  0  0  0  0  0  0  0  0  0
   10.6433  -15.3888   21.7498 N   0  0  0  0  0  0  0  0  0  0  0  0
   10.9542  -16.4660   22.6792 C   0  0  1  0  0  0  0  0  0  0  0  0
   12.4041  -16.5751   22.9575 C   0  0  0  0  0  0  0  0  0  0  0  0
   12.7071  -17.7292   23.8626 C   0  0  0  0  0  0  0  0  0  0  0  0
   13.6951  -18.7029   23.2676 C   0  0  0  0  0  0  0  0  0  0  0  0
   13.9224  -19.8175   24.2859 C   0  0  0  0  0  0  0  0  0  0  0  0
   14.9492  -20.7360   23.8414 N   0  0  0  0  0  0  0  0  0  0  0  0
   10.2190  -16.1826   23.9238 C   0  0  0  0  0  0  0  0  0  0  0  0
    9.8125  -15.0459   24.2916 O   0  0  0  0  0  0  0  0  0  0  0  0
    9.9471  -17.2785   24.7760 O   0  0  0  0  0  0  0  0  0  0  0  0
  1  2  1  0
  2  3  2  0
  4  2  1  0
  5  4  1  0
  5  6  1  6
  7  5  1  0
  7  9  1  0
  8  7  2  0
  9 13  1  0
 10  9  1  0
 10 11  1  0
 11 12  1  0
 13 12  1  0
 13 14  1  1
 14 15  2  0
 16 14  1  0
 17 16  1  0
 17 18  1  1
 19 18  1  0
 20 19  1  0
 20 21  1  0
 22 21  1  0
 23 17  1  0
 24 23  2  0
 25 23  1  0
M  END
$$$$
