NPK.pdb
     RDKit          3D

 25 25  0  0  1  0  0  0  0  0999 V2000
    5.8544  -18.0262   16.1674 N   0  0  0  0  0  0  0  0  0  0  0  0
    6.8190  -18.7175   16.9321 C   0  0  0  0  0  0  0  0  0  0  0  0
    7.0900  -19.9000   16.5456 O   0  0  0  0  0  0  0  0  0  0  0  0
    7.4639  -18.1038   18.0979 C   0  0  0  0  0  0  0  0  0  0  0  0
    8.3199  -16.9344   17.5833 C   0  0  2  0  0  0  0  0  0  0  0  0
    9.1942  -17.4713   16.6098 N   0  0  0  0  0  0  0  0  0  0  0  0
    8.9053  -16.2847   18.7474 C   0  0  0  0  0  0  0  0  0  0  0  0
    9.9581  -16.8222   19.2676 O   0  0  0  0  0  0  0  0  0  0  0  0
    8.4595  -15.1075   19.4018 N   0  0  0  0  0  0  0  0  0  0  0  0
    7.3443  -14.3051   19.0027 C   0  0  0  0  0  0  0  0  0  0  0  0
    6.8582  -13.6955   20.3084 C   0  0  0  0  0  0  0  0  0  0  0  0
    8.2185  -13.2669   20.8796 C   0  0  0  0  0  0  0  0  0  0  0  0
    9.0362  -14.4919   20.5850 C   0  0  1  0  0  0  0  0  0  0  0  0
    9.1045  -15.4317   21.7255 C   0  0  0  0  0  0  0  0  0  0  0  0
    8.0691  -16.0558   22.0903 O   0  0  0  0  0  0  0  0  0  0  0  0
   10.2742  -15.6928   22.4602 N   0  0  0  0  0  0  0  0  0  0  0  0
   10.3724  -16.6368   23.5647 C   0  0  1  0  0  0  0  0  0  0  0  0
   11.4604  -17.6225   23.3740 C   0  0  0  0  0  0  0  0  0  0  0  0
   11.3518  -18.3156   22.0507 C   0  0  0  0  0  0  0  0  0  0  0  0
   12.5368  -19.2001   21.7483 C   0  0  0  0  0  0  0  0  0  0  0  0
   12.3153  -19.8218   20.3714 C   0  0  0  0  0  0  0  0  0  0  0  0
   13.4552  -20.6143   19.9616 N   0  0  0  0  0  0  0  0  0  0  0  0
   10.6131  -15.8455   24.7836 C   0  0  0  0  0  0  0  0  0  0  0  0
   10.5539  -16.2845   25.9653 O   0  0  0  0  0  0  0  0  0  0  0  0
   10.9380  -14.4795   24.6119 O   0  0  0  0  0  0  0  0  0  0  0  0
  1  2  1  0
  2  3  2  0
  4  2  1  0
  5  4  1  0
  5  6  1  6
  7  5  1  0
  7  9  1  0
  8  7  2  0
  9 13  1  0
 10  9  1  0
 10 11  1  0
 11 12  1  0
 13 12  1  0
 13 14  1  1
 14 15  2  0
 16 14  1  0
 17 16  1  0
 17 18  1  6
 19 18  1  0
 20 19  1  0
 20 21  1  0
 22 21  1  0
 23 17  1  0
 24 23  2  0
 25 23  1  0
M  END
$$$$
