NPK.pdb
     RDKit          3D

 25 25  0  0  1  0  0  0  0  0999 V2000
    8.8018  -18.8382   17.3840 N   0  0  0  0  0  0  0  0  0  0  0  0
    7.5680  -18.5274   17.9958 C   0  0  0  0  0  0  0  0  0  0  0  0
    7.1088  -19.4050   18.7959 O   0  0  0  0  0  0  0  0  0  0  0  0
    6.8657  -17.2692   17.7209 C   0  0  0  0  0  0  0  0  0  0  0  0
    7.9088  -16.2700   17.1929 C   0  0  2  0  0  0  0  0  0  0  0  0
    8.6205  -16.9334   16.1665 N   0  0  0  0  0  0  0  0  0  0  0  0
    8.6577  -15.7823   18.3424 C   0  0  0  0  0  0  0  0  0  0  0  0
    9.7171  -16.4349   18.6882 O   0  0  0  0  0  0  0  0  0  0  0  0
    8.3691  -14.6542   19.1528 N   0  0  0  0  0  0  0  0  0  0  0  0
    7.2842  -13.7428   18.9547 C   0  0  0  0  0  0  0  0  0  0  0  0
    6.9766  -13.2443   20.3581 C   0  0  0  0  0  0  0  0  0  0  0  0
    8.4150  -12.9683   20.8218 C   0  0  0  0  0  0  0  0  0  0  0  0
    9.1044  -14.2062   20.3234 C   0  0  1  0  0  0  0  0  0  0  0  0
    9.2130  -15.2637   21.3521 C   0  0  0  0  0  0  0  0  0  0  0  0
    8.2226  -16.0078   21.5977 O   0  0  0  0  0  0  0  0  0  0  0  0
   10.3744  -15.5131   22.1038 N   0  0  0  0  0  0  0  0  0  0  0  0
   10.5360  -16.6070   23.0515 C   0  0  1  0  0  0  0  0  0  0  0  0
   11.5454  -17.5960   22.6102 C   0  0  0  0  0  0  0  0  0  0  0  0
   11.6834  -18.7192   23.5913 C   0  0  0  0  0  0  0  0  0  0  0  0
   12.7485  -19.7155   23.2024 C   0  0  0  0  0  0  0  0  0  0  0  0
   12.7277  -20.8451   24.2294 C   0  0  0  0  0  0  0  0  0  0  0  0
   13.7856  -21.8017   23.9820 N   0  0  0  0  0  0  0  0  0  0  0  0
   10.9420  -16.0059   24.3335 C   0  0  0  0  0  0  0  0  0  0  0  0
   11.6023  -14.9385   24.4654 O   0  0  0  0  0  0  0  0  0  0  0  0
   10.5578  -16.6839   25.5141 O   0  0  0  0  0  0  0  0  0  0  0  0
  1  2  1  0
  2  3  2  0
  4  2  1  0
  5  4  1  0
  5  6  1  6
  7  5  1  0
  7  9  1  0
  8  7  2  0
  9 13  1  0
 10  9  1  0
 10 11  1  0
 11 12  1  0
 13 12  1  0
 13 14  1  1
 14 15  2  0
 16 14  1  0
 17 16  1  0
 17 18  1  6
 19 18  1  0
 20 19  1  0
 20 21  1  0
 22 21  1  0
 23 17  1  0
 24 23  2  0
 25 23  1  0
M  END
$$$$
