NPK.pdb
     RDKit          3D

 25 25  0  0  1  0  0  0  0  0999 V2000
    6.7238  -19.8753   16.9986 N   0  0  0  0  0  0  0  0  0  0  0  0
    6.4804  -18.9276   18.0163 C   0  0  0  0  0  0  0  0  0  0  0  0
    5.3014  -18.4486   18.0581 O   0  0  0  0  0  0  0  0  0  0  0  0
    7.5267  -18.5256   18.9625 C   0  0  0  0  0  0  0  0  0  0  0  0
    8.0245  -17.1364   18.5296 C   0  0  2  0  0  0  0  0  0  0  0  0
    8.7219  -17.3181   17.3126 N   0  0  0  0  0  0  0  0  0  0  0  0
    8.7493  -16.5683   19.6574 C   0  0  0  0  0  0  0  0  0  0  0  0
    9.9466  -16.9989   19.8787 O   0  0  0  0  0  0  0  0  0  0  0  0
    8.3012  -15.5773   20.5684 N   0  0  0  0  0  0  0  0  0  0  0  0
    7.0480  -14.8905   20.5007 C   0  0  0  0  0  0  0  0  0  0  0  0
    6.7448  -14.5581   21.9535 C   0  0  0  0  0  0  0  0  0  0  0  0
    8.1295  -14.0313   22.3601 C   0  0  0  0  0  0  0  0  0  0  0  0
    9.0124  -15.0701   21.7297 C   0  0  1  0  0  0  0  0  0  0  0  0
    9.3955  -16.1505   22.6647 C   0  0  0  0  0  0  0  0  0  0  0  0
    8.5530  -17.0355   22.9840 O   0  0  0  0  0  0  0  0  0  0  0  0
   10.6697  -16.2725   23.2458 N   0  0  0  0  0  0  0  0  0  0  0  0
   11.0927  -17.3682   24.1068 C   0  0  1  0  0  0  0  0  0  0  0  0
   12.5437  -17.6431   24.0043 C   0  0  0  0  0  0  0  0  0  0  0  0
   12.9613  -18.7528   24.9194 C   0  0  0  0  0  0  0  0  0  0  0  0
   14.4368  -19.0607   24.8394 C   0  0  0  0  0  0  0  0  0  0  0  0
   14.7139  -20.2551   25.7492 C   0  0  0  0  0  0  0  0  0  0  0  0
   16.0643  -20.7469   25.5764 N   0  0  0  0  0  0  0  0  0  0  0  0
   10.7452  -16.9866   25.4864 C   0  0  0  0  0  0  0  0  0  0  0  0
   10.5544  -15.8077   25.8943 O   0  0  0  0  0  0  0  0  0  0  0  0
   10.6148  -18.0316   26.4311 O   0  0  0  0  0  0  0  0  0  0  0  0
  1  2  1  0
  2  3  2  0
  4  2  1  0
  5  4  1  0
  5  6  1  6
  7  5  1  0
  7  9  1  0
  8  7  2  0
  9 13  1  0
 10  9  1  0
 10 11  1  0
 11 12  1  0
 13 12  1  0
 13 14  1  1
 14 15  2  0
 16 14  1  0
 17 16  1  0
 17 18  1  1
 19 18  1  0
 20 19  1  0
 20 21  1  0
 22 21  1  0
 23 17  1  0
 24 23  2  0
 25 23  1  0
M  END
$$$$
