NPK.pdb
     RDKit          3D

 25 25  0  0  1  0  0  0  0  0999 V2000
   60.3082   69.9369   42.4267 N   0  0  0  0  0  0  0  0  0  0  0  0
   58.9079   70.0820   42.5323 C   0  0  0  0  0  0  0  0  0  0  0  0
   58.2330   69.7023   41.5216 O   0  0  0  0  0  0  0  0  0  0  0  0
   58.2781   70.6367   43.7354 C   0  0  0  0  0  0  0  0  0  0  0  0
   57.0171   71.3922   43.2836 C   0  0  2  0  0  0  0  0  0  0  0  0
   56.5718   70.7628   42.0979 N   0  0  0  0  0  0  0  0  0  0  0  0
   57.3611   72.8057   43.2225 C   0  0  0  0  0  0  0  0  0  0  0  0
   57.0321   73.5466   44.2277 O   0  0  0  0  0  0  0  0  0  0  0  0
   58.0287   73.4933   42.1764 N   0  0  0  0  0  0  0  0  0  0  0  0
   57.9966   73.1349   40.7917 C   0  0  0  0  0  0  0  0  0  0  0  0
   58.1852   74.4631   40.0752 C   0  0  0  0  0  0  0  0  0  0  0  0
   59.3462   75.0131   40.9178 C   0  0  0  0  0  0  0  0  0  0  0  0
   58.8639   74.6760   42.2997 C   0  0  1  0  0  0  0  0  0  0  0  0
   58.1523   75.7954   42.9548 C   0  0  0  0  0  0  0  0  0  0  0  0
   56.8898   75.8239   42.9574 O   0  0  0  0  0  0  0  0  0  0  0  0
   58.7956   76.8675   43.5972 N   0  0  0  0  0  0  0  0  0  0  0  0
   58.2662   78.2207   43.6948 C   0  0  1  0  0  0  0  0  0  0  0  0
   58.0553   78.6482   45.0963 C   0  0  0  0  0  0  0  0  0  0  0  0
   56.9518   77.8745   45.7495 C   0  0  0  0  0  0  0  0  0  0  0  0
   55.6132   78.5666   45.6621 C   0  0  0  0  0  0  0  0  0  0  0  0
   54.5448   77.4931   45.4698 C   0  0  0  0  0  0  0  0  0  0  0  0
   53.8348   77.6740   44.2213 N   0  0  0  0  0  0  0  0  0  0  0  0
   59.2383   79.1089   43.0346 C   0  0  0  0  0  0  0  0  0  0  0  0
   58.9499   80.0734   42.2735 O   0  0  0  0  0  0  0  0  0  0  0  0
   60.6093   78.8575   43.2760 O   0  0  0  0  0  0  0  0  0  0  0  0
  1  2  1  0
  2  3  2  0
  4  2  1  0
  5  4  1  0
  5  6  1  6
  7  5  1  0
  7  9  1  0
  8  7  2  0
  9 13  1  0
 10  9  1  0
 10 11  1  0
 11 12  1  0
 13 12  1  0
 13 14  1  6
 14 15  2  0
 16 14  1  0
 17 16  1  0
 17 18  1  1
 19 18  1  0
 20 19  1  0
 20 21  1  0
 22 21  1  0
 23 17  1  0
 24 23  2  0
 25 23  1  0
M  END
$$$$
