NIF.pdb
     RDKit          3D

 28 28  0  0  1  0  0  0  0  0999 V2000
   18.6711  -22.8866  -13.9594 N   0  0  0  0  0  0  0  0  0  0  0  0
   18.9119  -21.5838  -14.4663 C   0  0  0  0  0  0  0  0  0  0  0  0
   18.0257  -21.0318  -15.1474 O   0  0  0  0  0  0  0  0  0  0  0  0
   20.1781  -20.9115  -14.1888 C   0  0  0  0  0  0  0  0  0  0  0  0
   20.6201  -20.9104  -12.7642 C   0  0  2  0  0  0  0  0  0  0  0  0
   19.6030  -20.4474  -11.8479 N   0  0  0  0  0  0  0  0  0  0  0  0
   21.9393  -20.2414  -12.5367 C   0  0  0  0  0  0  0  0  0  0  0  0
   22.0422  -18.9855  -12.5565 O   0  0  0  0  0  0  0  0  0  0  0  0
   25.3308  -21.1244   -8.7035 C   0  0  0  0  0  0  0  0  0  0  0  0
   24.6118  -20.6630   -9.9016 C   0  0  0  0  0  0  0  0  0  0  0  0
   25.1951  -20.8047  -11.2463 C   0  0  2  0  0  0  0  0  0  0  0  0
   26.6199  -20.1795  -11.2684 C   0  0  0  0  0  0  0  0  0  0  0  0
   24.4605  -20.5448  -12.4679 C   0  0  2  0  0  0  0  0  0  0  0  0
   23.0916  -21.0219  -12.3013 N   0  0  0  0  0  0  0  0  0  0  0  0
   24.9886  -20.7136  -13.8040 C   0  0  0  0  0  0  0  0  0  0  0  0
   24.4182  -20.6393  -14.8951 O   0  0  0  0  0  0  0  0  0  0  0  0
   26.4087  -21.0294  -13.9112 N   0  0  0  0  0  0  0  0  0  0  0  0
   27.2342  -20.3491  -14.8944 C   0  0  1  0  0  0  0  0  0  0  0  0
   27.1398  -18.8802  -14.6803 C   0  0  0  0  0  0  0  0  0  0  0  0
   27.8669  -18.0598  -15.6752 C   0  0  0  0  0  0  0  0  0  0  0  0
   27.2139  -17.0144  -16.2851 C   0  0  0  0  0  0  0  0  0  0  0  0
   27.8128  -16.1993  -17.2194 C   0  0  0  0  0  0  0  0  0  0  0  0
   29.1270  -16.4612  -17.5425 C   0  0  0  0  0  0  0  0  0  0  0  0
   29.7952  -17.5077  -16.9382 C   0  0  0  0  0  0  0  0  0  0  0  0
   29.1762  -18.3192  -15.9991 C   0  0  0  0  0  0  0  0  0  0  0  0
   28.6097  -20.8902  -14.9567 C   0  0  0  0  0  0  0  0  0  0  0  0
   29.4417  -20.9776  -13.8528 O   0  0  0  0  0  0  0  0  0  0  0  0
   29.0642  -21.2934  -16.0513 O   0  0  0  0  0  0  0  0  0  0  0  0
  1  2  1  0
  2  3  2  0
  4  5  1  0
  4  2  1  0
  5  6  1  1
  7  5  1  0
  7  8  2  0
  9 10  1  0
 10 11  1  0
 11 13  1  0
 11 12  1  1
 13 14  1  6
 14  7  1  0
 15 17  1  0
 15 13  1  0
 16 15  2  0
 18 17  1  0
 18 26  1  0
 18 19  1  1
 20 19  1  0
 20 25  2  0
 21 20  1  0
 22 21  2  0
 22 23  1  0
 23 24  2  0
 24 25  1  0
 26 27  1  0
 28 26  2  0
M  END
$$$$
