NIF.pdb
     RDKit          3D

 28 28  0  0  1  0  0  0  0  0999 V2000
   27.2467  -38.0293  -14.3082 N   0  0  0  0  0  0  0  0  0  0  0  0
   26.0237  -37.4423  -14.7229 C   0  0  0  0  0  0  0  0  0  0  0  0
   25.3281  -38.0389  -15.5680 O   0  0  0  0  0  0  0  0  0  0  0  0
   25.5976  -36.1626  -14.1633 C   0  0  0  0  0  0  0  0  0  0  0  0
   24.2765  -35.6515  -14.6304 C   0  0  2  0  0  0  0  0  0  0  0  0
   24.3200  -35.0733  -15.9541 N   0  0  0  0  0  0  0  0  0  0  0  0
   23.5834  -34.7650  -13.6438 C   0  0  0  0  0  0  0  0  0  0  0  0
   23.5822  -33.5127  -13.7853 O   0  0  0  0  0  0  0  0  0  0  0  0
   18.6514  -35.0058  -12.4525 C   0  0  0  0  0  0  0  0  0  0  0  0
   20.1072  -34.8195  -12.5578 C   0  0  0  0  0  0  0  0  0  0  0  0
   20.9581  -34.7454  -11.3583 C   0  0  2  0  0  0  0  0  0  0  0  0
   20.2848  -33.8320  -10.2934 C   0  0  0  0  0  0  0  0  0  0  0  0
   22.3953  -34.5674  -11.4072 C   0  0  2  0  0  0  0  0  0  0  0  0
   22.9235  -35.3318  -12.5323 N   0  0  0  0  0  0  0  0  0  0  0  0
   23.2657  -34.5341  -10.2523 C   0  0  0  0  0  0  0  0  0  0  0  0
   24.4183  -34.9522  -10.1184 O   0  0  0  0  0  0  0  0  0  0  0  0
   22.7237  -33.9271   -9.0417 N   0  0  0  0  0  0  0  0  0  0  0  0
   23.5326  -33.8565   -7.8369 C   0  0  1  0  0  0  0  0  0  0  0  0
   24.7391  -33.0290   -8.1055 C   0  0  0  0  0  0  0  0  0  0  0  0
   25.6473  -32.8617   -6.9485 C   0  0  0  0  0  0  0  0  0  0  0  0
   26.7602  -33.6636   -6.8508 C   0  0  0  0  0  0  0  0  0  0  0  0
   27.6588  -33.5753   -5.8112 C   0  0  0  0  0  0  0  0  0  0  0  0
   27.4120  -32.6330   -4.8358 C   0  0  0  0  0  0  0  0  0  0  0  0
   26.2984  -31.8210   -4.9208 C   0  0  0  0  0  0  0  0  0  0  0  0
   25.4032  -31.9238   -5.9752 C   0  0  0  0  0  0  0  0  0  0  0  0
   22.7489  -33.4608   -6.6461 C   0  0  0  0  0  0  0  0  0  0  0  0
   21.6756  -32.5869   -6.6998 O   0  0  0  0  0  0  0  0  0  0  0  0
   23.0546  -33.9262   -5.5249 O   0  0  0  0  0  0  0  0  0  0  0  0
  1  2  1  0
  2  3  2  0
  4  5  1  0
  4  2  1  0
  5  6  1  6
  7  5  1  0
  7  8  2  0
  9 10  1  0
 10 11  1  0
 11 13  1  0
 11 12  1  1
 13 14  1  6
 14  7  1  0
 15 17  1  0
 15 13  1  0
 16 15  2  0
 18 17  1  0
 18 26  1  0
 18 19  1  6
 20 19  1  0
 20 25  2  0
 21 20  1  0
 22 21  2  0
 22 23  1  0
 23 24  2  0
 24 25  1  0
 26 27  1  0
 28 26  2  0
M  END
$$$$
