NIF.pdb
     RDKit          3D

 28 28  0  0  1  0  0  0  0  0999 V2000
   19.0212  -13.6892  -18.5780 N   0  0  0  0  0  0  0  0  0  0  0  0
   18.8609  -12.2842  -18.6905 C   0  0  0  0  0  0  0  0  0  0  0  0
   18.0640  -11.8373  -19.5385 O   0  0  0  0  0  0  0  0  0  0  0  0
   19.6207  -11.3878  -17.8236 C   0  0  0  0  0  0  0  0  0  0  0  0
   20.5994  -12.0390  -16.9056 C   0  0  2  0  0  0  0  0  0  0  0  0
   20.0022  -13.0281  -16.0376 N   0  0  0  0  0  0  0  0  0  0  0  0
   21.4679  -11.0756  -16.1591 C   0  0  0  0  0  0  0  0  0  0  0  0
   21.0435  -10.4801  -15.1327 O   0  0  0  0  0  0  0  0  0  0  0  0
   26.6987  -12.2037  -15.5420 C   0  0  0  0  0  0  0  0  0  0  0  0
   25.3189  -11.6927  -15.5337 C   0  0  0  0  0  0  0  0  0  0  0  0
   25.0062  -10.3257  -15.9829 C   0  0  2  0  0  0  0  0  0  0  0  0
   26.0047   -9.3208  -15.3388 C   0  0  0  0  0  0  0  0  0  0  0  0
   23.6596   -9.7956  -16.0531 C   0  0  2  0  0  0  0  0  0  0  0  0
   22.7815  -10.8204  -16.6081 N   0  0  0  0  0  0  0  0  0  0  0  0
   23.3201   -8.4462  -16.4490 C   0  0  0  0  0  0  0  0  0  0  0  0
   23.1949   -7.9605  -17.5759 O   0  0  0  0  0  0  0  0  0  0  0  0
   23.0932   -7.4865  -15.3743 N   0  0  0  0  0  0  0  0  0  0  0  0
   22.6465   -6.1389  -15.6829 C   0  0  1  0  0  0  0  0  0  0  0  0
   21.3569   -6.2080  -16.4210 C   0  0  0  0  0  0  0  0  0  0  0  0
   20.7898   -4.8953  -16.8043 C   0  0  0  0  0  0  0  0  0  0  0  0
   21.5049   -4.0791  -17.6491 C   0  0  0  0  0  0  0  0  0  0  0  0
   21.0533   -2.8445  -18.0586 C   0  0  0  0  0  0  0  0  0  0  0  0
   19.8262   -2.4282  -17.5884 C   0  0  0  0  0  0  0  0  0  0  0  0
   19.0972   -3.2372  -16.7394 C   0  0  0  0  0  0  0  0  0  0  0  0
   19.5676   -4.4782  -16.3367 C   0  0  0  0  0  0  0  0  0  0  0  0
   22.6486   -5.2520  -14.4989 C   0  0  0  0  0  0  0  0  0  0  0  0
   22.9075   -3.8931  -14.5688 O   0  0  0  0  0  0  0  0  0  0  0  0
   22.4082   -5.7330  -13.3683 O   0  0  0  0  0  0  0  0  0  0  0  0
  1  2  1  0
  2  3  2  0
  4  5  1  0
  4  2  1  0
  5  6  1  1
  7  5  1  0
  7  8  2  0
  9 10  1  0
 10 11  1  0
 11 13  1  0
 11 12  1  1
 13 14  1  6
 14  7  1  0
 15 17  1  0
 15 13  1  0
 16 15  2  0
 18 17  1  0
 18 26  1  0
 18 19  1  1
 20 19  1  0
 20 25  2  0
 21 20  1  0
 22 21  2  0
 22 23  1  0
 23 24  2  0
 24 25  1  0
 26 27  1  0
 28 26  2  0
M  END
$$$$
