NIF.pdb
     RDKit          3D

 28 28  0  0  1  0  0  0  0  0999 V2000
   30.0964  -21.5478  -16.9131 N   0  0  0  0  0  0  0  0  0  0  0  0
   29.0649  -22.1119  -16.1194 C   0  0  0  0  0  0  0  0  0  0  0  0
   28.6639  -23.2618  -16.3855 O   0  0  0  0  0  0  0  0  0  0  0  0
   28.4911  -21.3503  -15.0135 C   0  0  0  0  0  0  0  0  0  0  0  0
   27.0037  -21.2400  -14.9972 C   0  0  2  0  0  0  0  0  0  0  0  0
   26.4559  -20.6813  -16.2122 N   0  0  0  0  0  0  0  0  0  0  0  0
   26.4555  -20.5822  -13.7698 C   0  0  0  0  0  0  0  0  0  0  0  0
   26.5490  -19.3363  -13.6044 O   0  0  0  0  0  0  0  0  0  0  0  0
   21.6425  -20.2389  -13.0280 C   0  0  0  0  0  0  0  0  0  0  0  0
   23.1031  -20.1627  -12.8663 C   0  0  0  0  0  0  0  0  0  0  0  0
   23.7821  -20.8078  -11.7301 C   0  0  2  0  0  0  0  0  0  0  0  0
   23.0364  -20.4621  -10.4086 C   0  0  0  0  0  0  0  0  0  0  0  0
   25.2213  -20.8230  -11.5626 C   0  0  2  0  0  0  0  0  0  0  0  0
   25.8278  -21.3625  -12.7751 N   0  0  0  0  0  0  0  0  0  0  0  0
   25.9096  -21.1862  -10.3432 C   0  0  0  0  0  0  0  0  0  0  0  0
   26.1491  -22.3008   -9.8723 O   0  0  0  0  0  0  0  0  0  0  0  0
   26.4003  -20.0888   -9.5171 N   0  0  0  0  0  0  0  0  0  0  0  0
   26.9682  -20.3600   -8.2075 C   0  0  1  0  0  0  0  0  0  0  0  0
   27.9786  -19.3166   -7.8868 C   0  0  0  0  0  0  0  0  0  0  0  0
   28.5318  -19.3886   -6.5156 C   0  0  0  0  0  0  0  0  0  0  0  0
   29.5668  -20.2564   -6.2569 C   0  0  0  0  0  0  0  0  0  0  0  0
   30.1426  -20.3868   -5.0130 C   0  0  0  0  0  0  0  0  0  0  0  0
   29.6431  -19.6019   -3.9957 C   0  0  0  0  0  0  0  0  0  0  0  0
   28.6040  -18.7262   -4.2408 C   0  0  0  0  0  0  0  0  0  0  0  0
   28.0355  -18.6079   -5.5004 C   0  0  0  0  0  0  0  0  0  0  0  0
   25.9347  -20.5765   -7.1714 C   0  0  0  0  0  0  0  0  0  0  0  0
   26.0714  -21.4946   -6.1432 O   0  0  0  0  0  0  0  0  0  0  0  0
   24.8765  -19.9086   -7.2075 O   0  0  0  0  0  0  0  0  0  0  0  0
  1  2  1  0
  2  3  2  0
  4  5  1  0
  4  2  1  0
  5  6  1  6
  7  5  1  0
  7  8  2  0
  9 10  1  0
 10 11  1  0
 11 13  1  0
 11 12  1  1
 13 14  1  6
 14  7  1  0
 15 17  1  0
 15 13  1  0
 16 15  2  0
 18 17  1  0
 18 26  1  0
 18 19  1  1
 20 19  1  0
 20 25  2  0
 21 20  1  0
 22 21  2  0
 22 23  1  0
 23 24  2  0
 24 25  1  0
 26 27  1  0
 28 26  2  0
M  END
$$$$
