NIF.pdb
     RDKit          3D

 28 28  0  0  1  0  0  0  0  0999 V2000
   28.5394  -19.4067  -17.3234 N   0  0  0  0  0  0  0  0  0  0  0  0
   28.3141  -18.9655  -15.9942 C   0  0  0  0  0  0  0  0  0  0  0  0
   29.0535  -18.0795  -15.5227 O   0  0  0  0  0  0  0  0  0  0  0  0
   27.2331  -19.5456  -15.2023 C   0  0  0  0  0  0  0  0  0  0  0  0
   27.6434  -20.2611  -13.9595 C   0  0  2  0  0  0  0  0  0  0  0  0
   28.6589  -21.2646  -14.1833 N   0  0  0  0  0  0  0  0  0  0  0  0
   26.4972  -20.7809  -13.1498 C   0  0  0  0  0  0  0  0  0  0  0  0
   25.6466  -21.5615  -13.6553 O   0  0  0  0  0  0  0  0  0  0  0  0
   27.6707  -20.7021   -7.9447 C   0  0  0  0  0  0  0  0  0  0  0  0
   27.0121  -21.2423   -9.1445 C   0  0  0  0  0  0  0  0  0  0  0  0
   25.6831  -20.7691   -9.5668 C   0  0  2  0  0  0  0  0  0  0  0  0
   24.5986  -21.3148   -8.5933 C   0  0  0  0  0  0  0  0  0  0  0  0
   25.2357  -20.7675  -10.9449 C   0  0  2  0  0  0  0  0  0  0  0  0
   26.3564  -20.3915  -11.8004 N   0  0  0  0  0  0  0  0  0  0  0  0
   23.9527  -20.2768  -11.3988 C   0  0  0  0  0  0  0  0  0  0  0  0
   23.4925  -19.1326  -11.3812 O   0  0  0  0  0  0  0  0  0  0  0  0
   23.0366  -21.2630  -11.9607 N   0  0  0  0  0  0  0  0  0  0  0  0
   21.8727  -20.8298  -12.7148 C   0  0  1  0  0  0  0  0  0  0  0  0
   22.3074  -19.9100  -13.7999 C   0  0  0  0  0  0  0  0  0  0  0  0
   21.2274  -19.4728  -14.7131 C   0  0  0  0  0  0  0  0  0  0  0  0
   21.1216  -20.0591  -15.9525 C   0  0  0  0  0  0  0  0  0  0  0  0
   20.1479  -19.7157  -16.8635 C   0  0  0  0  0  0  0  0  0  0  0  0
   19.2488  -18.7378  -16.4950 C   0  0  0  0  0  0  0  0  0  0  0  0
   19.3430  -18.1403  -15.2537 C   0  0  0  0  0  0  0  0  0  0  0  0
   20.3307  -18.4984  -14.3483 C   0  0  0  0  0  0  0  0  0  0  0  0
   21.0216  -21.9593  -13.1489 C   0  0  0  0  0  0  0  0  0  0  0  0
   19.6372  -21.9158  -13.1346 O   0  0  0  0  0  0  0  0  0  0  0  0
   21.5584  -23.0161  -13.5516 O   0  0  0  0  0  0  0  0  0  0  0  0
  1  2  1  0
  2  3  2  0
  4  5  1  0
  4  2  1  0
  5  6  1  6
  7  5  1  0
  7  8  2  0
  9 10  1  0
 10 11  1  0
 11 13  1  0
 11 12  1  1
 13 14  1  6
 14  7  1  0
 15 17  1  0
 15 13  1  0
 16 15  2  0
 18 17  1  0
 18 26  1  0
 18 19  1  6
 20 19  1  0
 20 25  2  0
 21 20  1  0
 22 21  2  0
 22 23  1  0
 23 24  2  0
 24 25  1  0
 26 27  1  0
 28 26  2  0
M  END
$$$$
