NIF.pdb
     RDKit          3D

 28 28  0  0  1  0  0  0  0  0999 V2000
   24.4985  -12.8323  -19.6307 N   0  0  0  0  0  0  0  0  0  0  0  0
   25.0976  -11.6738  -19.0730 C   0  0  0  0  0  0  0  0  0  0  0  0
   26.3398  -11.6267  -18.9794 O   0  0  0  0  0  0  0  0  0  0  0  0
   24.2647  -10.5631  -18.6204 C   0  0  0  0  0  0  0  0  0  0  0  0
   22.7920  -10.7463  -18.7698 C   0  0  2  0  0  0  0  0  0  0  0  0
   22.3699  -10.9099  -20.1423 N   0  0  0  0  0  0  0  0  0  0  0  0
   21.9747   -9.7269  -18.0400 C   0  0  0  0  0  0  0  0  0  0  0  0
   21.4944   -8.7287  -18.6410 O   0  0  0  0  0  0  0  0  0  0  0  0
   17.8376  -11.2565  -15.5266 C   0  0  0  0  0  0  0  0  0  0  0  0
   18.8611  -10.3919  -16.1350 C   0  0  0  0  0  0  0  0  0  0  0  0
   19.8135   -9.6337  -15.3067 C   0  0  2  0  0  0  0  0  0  0  0  0
   19.0364   -8.7725  -14.2693 C   0  0  0  0  0  0  0  0  0  0  0  0
   20.9660   -8.9401  -15.8453 C   0  0  2  0  0  0  0  0  0  0  0  0
   21.7382   -9.8755  -16.6564 N   0  0  0  0  0  0  0  0  0  0  0  0
   21.7699   -7.9813  -15.1192 C   0  0  0  0  0  0  0  0  0  0  0  0
   22.5658   -8.1566  -14.1934 O   0  0  0  0  0  0  0  0  0  0  0  0
   21.6350   -6.5832  -15.5125 N   0  0  0  0  0  0  0  0  0  0  0  0
   22.3903   -5.5546  -14.8179 C   0  0  1  0  0  0  0  0  0  0  0  0
   23.8379   -5.8931  -14.8675 C   0  0  0  0  0  0  0  0  0  0  0  0
   24.4886   -5.6471  -16.1743 C   0  0  0  0  0  0  0  0  0  0  0  0
   24.9778   -4.3922  -16.4518 C   0  0  0  0  0  0  0  0  0  0  0  0
   25.5986   -4.0754  -17.6394 C   0  0  0  0  0  0  0  0  0  0  0  0
   25.7247   -5.0771  -18.5779 C   0  0  0  0  0  0  0  0  0  0  0  0
   25.2380   -6.3420  -18.3130 C   0  0  0  0  0  0  0  0  0  0  0  0
   24.6149   -6.6435  -17.1111 C   0  0  0  0  0  0  0  0  0  0  0  0
   22.0460   -4.1894  -15.2719 C   0  0  0  0  0  0  0  0  0  0  0  0
   21.1861   -3.9348  -16.3275 O   0  0  0  0  0  0  0  0  0  0  0  0
   22.5462   -3.2014  -14.6880 O   0  0  0  0  0  0  0  0  0  0  0  0
  1  2  1  0
  2  3  2  0
  4  5  1  0
  4  2  1  0
  5  6  1  6
  7  5  1  0
  7  8  2  0
  9 10  1  0
 10 11  1  0
 11 13  1  0
 11 12  1  6
 13 14  1  1
 14  7  1  0
 15 17  1  0
 15 13  1  0
 16 15  2  0
 18 17  1  0
 18 26  1  0
 18 19  1  6
 20 19  1  0
 20 25  2  0
 21 20  1  0
 22 21  2  0
 22 23  1  0
 23 24  2  0
 24 25  1  0
 26 27  1  0
 28 26  2  0
M  END
$$$$
