NIF.pdb
     RDKit          3D

 28 28  0  0  1  0  0  0  0  0999 V2000
   29.8112  -23.1792  -17.0289 N   0  0  0  0  0  0  0  0  0  0  0  0
   30.2676  -22.9675  -15.7026 C   0  0  0  0  0  0  0  0  0  0  0  0
   31.2911  -23.5660  -15.3176 O   0  0  0  0  0  0  0  0  0  0  0  0
   29.5440  -22.0628  -14.8137 C   0  0  0  0  0  0  0  0  0  0  0  0
   28.3292  -21.4147  -15.3873 C   0  0  2  0  0  0  0  0  0  0  0  0
   28.6098  -20.5841  -16.5361 N   0  0  0  0  0  0  0  0  0  0  0  0
   27.4758  -20.7174  -14.3747 C   0  0  0  0  0  0  0  0  0  0  0  0
   27.7214  -19.5318  -14.0248 O   0  0  0  0  0  0  0  0  0  0  0  0
   22.9267  -19.3791  -15.5175 C   0  0  0  0  0  0  0  0  0  0  0  0
   24.1934  -19.6990  -14.8406 C   0  0  0  0  0  0  0  0  0  0  0  0
   24.2172  -20.4654  -13.5835 C   0  0  2  0  0  0  0  0  0  0  0  0
   23.0881  -19.9597  -12.6395 C   0  0  0  0  0  0  0  0  0  0  0  0
   25.4341  -20.7849  -12.8648 C   0  0  2  0  0  0  0  0  0  0  0  0
   26.3807  -21.3927  -13.7942 N   0  0  0  0  0  0  0  0  0  0  0  0
   25.4866  -21.3284  -11.5251 C   0  0  0  0  0  0  0  0  0  0  0  0
   25.5702  -22.5003  -11.1499 O   0  0  0  0  0  0  0  0  0  0  0  0
   25.4247  -20.3699  -10.4273 N   0  0  0  0  0  0  0  0  0  0  0  0
   25.2638  -20.8365   -9.0608 C   0  0  1  0  0  0  0  0  0  0  0  0
   25.7426  -19.7841   -8.1250 C   0  0  0  0  0  0  0  0  0  0  0  0
   27.1472  -19.9382   -7.6836 C   0  0  0  0  0  0  0  0  0  0  0  0
   27.8314  -21.0833   -8.0179 C   0  0  0  0  0  0  0  0  0  0  0  0
   29.1393  -21.3091   -7.6515 C   0  0  0  0  0  0  0  0  0  0  0  0
   29.7720  -20.3292   -6.9168 C   0  0  0  0  0  0  0  0  0  0  0  0
   29.0975  -19.1742   -6.5738 C   0  0  0  0  0  0  0  0  0  0  0  0
   27.7796  -18.9634   -6.9512 C   0  0  0  0  0  0  0  0  0  0  0  0
   23.9031  -21.3497   -8.7897 C   0  0  0  0  0  0  0  0  0  0  0  0
   23.6084  -22.2002   -7.7369 O   0  0  0  0  0  0  0  0  0  0  0  0
   22.9570  -21.0121   -9.5369 O   0  0  0  0  0  0  0  0  0  0  0  0
  1  2  1  0
  2  3  2  0
  4  5  1  0
  4  2  1  0
  5  6  1  6
  7  5  1  0
  7  8  2  0
  9 10  1  0
 10 11  1  0
 11 13  1  0
 11 12  1  1
 13 14  1  6
 14  7  1  0
 15 17  1  0
 15 13  1  0
 16 15  2  0
 18 17  1  0
 18 26  1  0
 18 19  1  1
 20 19  1  0
 20 25  2  0
 21 20  1  0
 22 21  2  0
 22 23  1  0
 23 24  2  0
 24 25  1  0
 26 27  1  0
 28 26  2  0
M  END
$$$$
