NIF.pdb
     RDKit          3D

 28 28  0  0  1  0  0  0  0  0999 V2000
   20.1230  -19.7082  -14.1116 N   0  0  0  0  0  0  0  0  0  0  0  0
   20.4769  -20.0679  -12.7859 C   0  0  0  0  0  0  0  0  0  0  0  0
   19.6240  -19.9504  -11.8844 O   0  0  0  0  0  0  0  0  0  0  0  0
   21.8184  -20.5656  -12.4944 C   0  0  0  0  0  0  0  0  0  0  0  0
   22.7755  -20.5757  -13.6383 C   0  0  2  0  0  0  0  0  0  0  0  0
   22.3050  -21.3357  -14.7739 N   0  0  0  0  0  0  0  0  0  0  0  0
   24.1778  -20.9319  -13.2556 C   0  0  0  0  0  0  0  0  0  0  0  0
   24.5845  -22.1233  -13.3165 O   0  0  0  0  0  0  0  0  0  0  0  0
   28.4552  -19.1822  -15.3328 C   0  0  0  0  0  0  0  0  0  0  0  0
   27.3727  -19.7450  -14.5102 C   0  0  0  0  0  0  0  0  0  0  0  0
   27.3987  -19.6488  -13.0410 C   0  0  2  0  0  0  0  0  0  0  0  0
   28.8236  -19.9926  -12.5182 C   0  0  0  0  0  0  0  0  0  0  0  0
   26.3556  -20.1791  -12.1865 C   0  0  2  0  0  0  0  0  0  0  0  0
   25.0628  -19.9252  -12.8135 N   0  0  0  0  0  0  0  0  0  0  0  0
   26.3421  -20.0895  -10.7427 C   0  0  0  0  0  0  0  0  0  0  0  0
   25.9716  -19.1683  -10.0110 O   0  0  0  0  0  0  0  0  0  0  0  0
   26.8457  -21.2463  -10.0106 N   0  0  0  0  0  0  0  0  0  0  0  0
   26.9598  -21.1993   -8.5630 C   0  0  1  0  0  0  0  0  0  0  0  0
   28.1554  -20.3958   -8.1923 C   0  0  0  0  0  0  0  0  0  0  0  0
   28.3413  -20.1942   -6.7376 C   0  0  0  0  0  0  0  0  0  0  0  0
   28.9859  -21.1635   -6.0052 C   0  0  0  0  0  0  0  0  0  0  0  0
   29.2038  -21.0580   -4.6498 C   0  0  0  0  0  0  0  0  0  0  0  0
   28.7470  -19.9206   -4.0190 C   0  0  0  0  0  0  0  0  0  0  0  0
   28.0980  -18.9390   -4.7416 C   0  0  0  0  0  0  0  0  0  0  0  0
   27.8867  -19.0620   -6.1069 C   0  0  0  0  0  0  0  0  0  0  0  0
   25.6987  -20.7939   -7.9042 C   0  0  0  0  0  0  0  0  0  0  0  0
   24.6428  -20.2072   -8.5820 O   0  0  0  0  0  0  0  0  0  0  0  0
   25.5585  -20.9803   -6.6742 O   0  0  0  0  0  0  0  0  0  0  0  0
  1  2  1  0
  2  3  2  0
  4  5  1  0
  4  2  1  0
  5  6  1  6
  7  5  1  0
  7  8  2  0
  9 10  1  0
 10 11  1  0
 11 13  1  0
 11 12  1  1
 13 14  1  6
 14  7  1  0
 15 17  1  0
 15 13  1  0
 16 15  2  0
 18 17  1  0
 18 26  1  0
 18 19  1  6
 20 19  1  0
 20 25  2  0
 21 20  1  0
 22 21  2  0
 22 23  1  0
 23 24  2  0
 24 25  1  0
 26 27  1  0
 28 26  2  0
M  END
$$$$
