NIF.pdb
     RDKit          3D

 28 28  0  0  1  0  0  0  0  0999 V2000
   19.3452  -22.7742  -13.9618 N   0  0  0  0  0  0  0  0  0  0  0  0
   20.4379  -22.0469  -14.4997 C   0  0  0  0  0  0  0  0  0  0  0  0
   20.2312  -21.2722  -15.4542 O   0  0  0  0  0  0  0  0  0  0  0  0
   21.7756  -22.2105  -13.9374 C   0  0  0  0  0  0  0  0  0  0  0  0
   22.2778  -21.0803  -13.1037 C   0  0  2  0  0  0  0  0  0  0  0  0
   22.3926  -19.8369  -13.8312 N   0  0  0  0  0  0  0  0  0  0  0  0
   23.5148  -21.4013  -12.3249 C   0  0  0  0  0  0  0  0  0  0  0  0
   23.6164  -22.4818  -11.6842 O   0  0  0  0  0  0  0  0  0  0  0  0
   28.2071  -20.9799  -14.6002 C   0  0  0  0  0  0  0  0  0  0  0  0
   27.0414  -21.1810  -13.7250 C   0  0  0  0  0  0  0  0  0  0  0  0
   26.9464  -20.5197  -12.4128 C   0  0  2  0  0  0  0  0  0  0  0  0
   28.3037  -20.6465  -11.6622 C   0  0  0  0  0  0  0  0  0  0  0  0
   25.8105  -20.6643  -11.5250 C   0  0  2  0  0  0  0  0  0  0  0  0
   24.5863  -20.4828  -12.2980 N   0  0  0  0  0  0  0  0  0  0  0  0
   25.7421  -20.1462  -10.1760 C   0  0  0  0  0  0  0  0  0  0  0  0
   25.2768  -19.0823   -9.7602 O   0  0  0  0  0  0  0  0  0  0  0  0
   26.3096  -20.9825   -9.1244 N   0  0  0  0  0  0  0  0  0  0  0  0
   26.6695  -20.3987   -7.8435 C   0  0  1  0  0  0  0  0  0  0  0  0
   27.2679  -21.4496   -6.9776 C   0  0  0  0  0  0  0  0  0  0  0  0
   27.8816  -20.9485   -5.7271 C   0  0  0  0  0  0  0  0  0  0  0  0
   27.1742  -21.0412   -4.5514 C   0  0  0  0  0  0  0  0  0  0  0  0
   27.6678  -20.6029   -3.3430 C   0  0  0  0  0  0  0  0  0  0  0  0
   28.9305  -20.0498   -3.3349 C   0  0  0  0  0  0  0  0  0  0  0  0
   29.6523  -19.9501   -4.5079 C   0  0  0  0  0  0  0  0  0  0  0  0
   29.1393  -20.3967   -5.7167 C   0  0  0  0  0  0  0  0  0  0  0  0
   27.4734  -19.1648   -7.9848 C   0  0  0  0  0  0  0  0  0  0  0  0
   27.2049  -17.9997   -7.2855 O   0  0  0  0  0  0  0  0  0  0  0  0
   28.4479  -19.1510   -8.7705 O   0  0  0  0  0  0  0  0  0  0  0  0
  1  2  1  0
  2  3  2  0
  4  5  1  0
  4  2  1  0
  5  6  1  6
  7  5  1  0
  7  8  2  0
  9 10  1  0
 10 11  1  0
 11 13  1  0
 11 12  1  1
 13 14  1  6
 14  7  1  0
 15 17  1  0
 15 13  1  0
 16 15  2  0
 18 17  1  0
 18 26  1  0
 18 19  1  1
 20 19  1  0
 20 25  2  0
 21 20  1  0
 22 21  2  0
 22 23  1  0
 23 24  2  0
 24 25  1  0
 26 27  1  0
 28 26  2  0
M  END
$$$$
