NIF.pdb
     RDKit          3D

 28 28  0  0  1  0  0  0  0  0999 V2000
   19.8616  -21.2035  -14.6181 N   0  0  0  0  0  0  0  0  0  0  0  0
   20.7297  -22.2529  -15.0151 C   0  0  0  0  0  0  0  0  0  0  0  0
   20.3424  -23.0539  -15.8883 O   0  0  0  0  0  0  0  0  0  0  0  0
   22.0502  -22.3825  -14.4054 C   0  0  0  0  0  0  0  0  0  0  0  0
   22.3838  -21.3843  -13.3484 C   0  0  2  0  0  0  0  0  0  0  0  0
   22.3092  -20.0159  -13.8069 N   0  0  0  0  0  0  0  0  0  0  0  0
   23.6588  -21.6726  -12.6197 C   0  0  0  0  0  0  0  0  0  0  0  0
   23.9209  -22.8333  -12.2045 O   0  0  0  0  0  0  0  0  0  0  0  0
   28.1907  -20.6695  -14.7651 C   0  0  0  0  0  0  0  0  0  0  0  0
   27.0643  -21.0370  -13.8925 C   0  0  0  0  0  0  0  0  0  0  0  0
   26.9385  -20.4868  -12.5324 C   0  0  2  0  0  0  0  0  0  0  0  0
   28.3140  -20.5589  -11.8082 C   0  0  0  0  0  0  0  0  0  0  0  0
   25.8329  -20.7902  -11.6463 C   0  0  2  0  0  0  0  0  0  0  0  0
   24.5844  -20.6331  -12.3851 N   0  0  0  0  0  0  0  0  0  0  0  0
   25.7530  -20.3965  -10.2566 C   0  0  0  0  0  0  0  0  0  0  0  0
   25.1207  -19.4776   -9.7301 O   0  0  0  0  0  0  0  0  0  0  0  0
   26.5354  -21.1814   -9.3082 N   0  0  0  0  0  0  0  0  0  0  0  0
   26.7438  -20.6935   -7.9556 C   0  0  1  0  0  0  0  0  0  0  0  0
   27.6601  -21.6192   -7.2374 C   0  0  0  0  0  0  0  0  0  0  0  0
   28.1749  -21.1065   -5.9475 C   0  0  0  0  0  0  0  0  0  0  0  0
   27.3854  -21.2052   -4.8258 C   0  0  0  0  0  0  0  0  0  0  0  0
   27.7843  -20.7569   -3.5866 C   0  0  0  0  0  0  0  0  0  0  0  0
   29.0358  -20.1872   -3.4891 C   0  0  0  0  0  0  0  0  0  0  0  0
   29.8394  -20.0813   -4.6070 C   0  0  0  0  0  0  0  0  0  0  0  0
   29.4212  -20.5380   -5.8481 C   0  0  0  0  0  0  0  0  0  0  0  0
   27.1320  -19.2665   -7.9175 C   0  0  0  0  0  0  0  0  0  0  0  0
   26.6716  -18.3800   -6.9579 O   0  0  0  0  0  0  0  0  0  0  0  0
   27.9132  -18.8170   -8.7863 O   0  0  0  0  0  0  0  0  0  0  0  0
  1  2  1  0
  2  3  2  0
  4  5  1  0
  4  2  1  0
  5  6  1  6
  7  5  1  0
  7  8  2  0
  9 10  1  0
 10 11  1  0
 11 13  1  0
 11 12  1  1
 13 14  1  6
 14  7  1  0
 15 17  1  0
 15 13  1  0
 16 15  2  0
 18 17  1  0
 18 26  1  0
 18 19  1  6
 20 19  1  0
 20 25  2  0
 21 20  1  0
 22 21  2  0
 22 23  1  0
 23 24  2  0
 24 25  1  0
 26 27  1  0
 28 26  2  0
M  END
$$$$
