NIF.pdb
     RDKit          3D

 28 28  0  0  1  0  0  0  0  0999 V2000
   33.1482  -23.6566  -12.7533 N   0  0  0  0  0  0  0  0  0  0  0  0
   31.9129  -23.4156  -13.4076 C   0  0  0  0  0  0  0  0  0  0  0  0
   31.6551  -24.0438  -14.4529 O   0  0  0  0  0  0  0  0  0  0  0  0
   30.9685  -22.4472  -12.8575 C   0  0  0  0  0  0  0  0  0  0  0  0
   30.1072  -21.7380  -13.8475 C   0  0  2  0  0  0  0  0  0  0  0  0
   30.8548  -21.1089  -14.9123 N   0  0  0  0  0  0  0  0  0  0  0  0
   29.1057  -20.8128  -13.2305 C   0  0  0  0  0  0  0  0  0  0  0  0
   28.9667  -19.6329  -13.6512 O   0  0  0  0  0  0  0  0  0  0  0  0
   25.7413  -19.4826  -15.3158 C   0  0  0  0  0  0  0  0  0  0  0  0
   26.6313  -19.7135  -14.1670 C   0  0  0  0  0  0  0  0  0  0  0  0
   26.2239  -20.5744  -13.0441 C   0  0  2  0  0  0  0  0  0  0  0  0
   24.7035  -20.3911  -12.7675 C   0  0  0  0  0  0  0  0  0  0  0  0
   26.9927  -20.7143  -11.8239 C   0  0  2  0  0  0  0  0  0  0  0  0
   28.3048  -21.2589  -12.1573 N   0  0  0  0  0  0  0  0  0  0  0  0
   26.4631  -21.1760  -10.5593 C   0  0  0  0  0  0  0  0  0  0  0  0
   26.2103  -22.3217  -10.1789 O   0  0  0  0  0  0  0  0  0  0  0  0
   26.1636  -20.1536   -9.5630 N   0  0  0  0  0  0  0  0  0  0  0  0
   25.6775  -20.5373   -8.2487 C   0  0  1  0  0  0  0  0  0  0  0  0
   25.9449  -19.4344   -7.2871 C   0  0  0  0  0  0  0  0  0  0  0  0
   27.1349  -19.6335   -6.4293 C   0  0  0  0  0  0  0  0  0  0  0  0
   27.7649  -18.5344   -5.8945 C   0  0  0  0  0  0  0  0  0  0  0  0
   28.8753  -18.6267   -5.0854 C   0  0  0  0  0  0  0  0  0  0  0  0
   29.3598  -19.8880   -4.8122 C   0  0  0  0  0  0  0  0  0  0  0  0
   28.7374  -21.0007   -5.3425 C   0  0  0  0  0  0  0  0  0  0  0  0
   27.6197  -20.8892   -6.1561 C   0  0  0  0  0  0  0  0  0  0  0  0
   24.2809  -21.0244   -8.2770 C   0  0  0  0  0  0  0  0  0  0  0  0
   23.7407  -21.8379   -7.2946 O   0  0  0  0  0  0  0  0  0  0  0  0
   23.5336  -20.6983   -9.2270 O   0  0  0  0  0  0  0  0  0  0  0  0
  1  2  1  0
  2  3  2  0
  4  5  1  0
  4  2  1  0
  5  6  1  6
  7  5  1  0
  7  8  2  0
  9 10  1  0
 10 11  1  0
 11 13  1  0
 11 12  1  1
 13 14  1  6
 14  7  1  0
 15 17  1  0
 15 13  1  0
 16 15  2  0
 18 17  1  0
 18 26  1  0
 18 19  1  1
 20 19  1  0
 20 25  2  0
 21 20  1  0
 22 21  2  0
 22 23  1  0
 23 24  2  0
 24 25  1  0
 26 27  1  0
 28 26  2  0
M  END
$$$$
