TGD.pdb
     RDKit          3D

 20 19  0  0  1  0  0  0  0  0999 V2000
   25.2926  -21.2910  -10.7642 C   0  0  0  0  0  0  0  0  0  0  0  0
   26.7149  -20.8089  -10.8641 C   0  0  1  0  0  0  0  0  0  0  0  0
   27.5680  -21.5257  -10.0266 O   0  0  0  0  0  0  0  0  0  0  0  0
   27.2621  -20.8963  -12.2693 C   0  0  2  0  0  0  0  0  0  0  0  0
   28.6661  -20.6059  -12.2330 N   0  0  0  0  0  0  0  0  0  0  0  0
   26.5232  -19.9873  -13.1888 C   0  0  0  0  0  0  0  0  0  0  0  0
   27.1623  -19.0745  -13.7366 O   0  0  0  0  0  0  0  0  0  0  0  0
   25.1351  -20.1343  -13.4504 N   0  0  0  0  0  0  0  0  0  0  0  0
   24.4862  -19.4490  -14.5407 C   0  0  0  0  0  0  0  0  0  0  0  0
   23.1009  -19.9209  -14.7532 C   0  0  0  0  0  0  0  0  0  0  0  0
   22.4002  -19.3575  -15.6321 O   0  0  0  0  0  0  0  0  0  0  0  0
   22.5010  -20.9776  -14.0259 N   0  0  0  0  0  0  0  0  0  0  0  0
   21.1045  -21.3828  -14.2266 C   0  0  1  0  0  0  0  0  0  0  0  0
   21.0103  -22.8690  -14.4394 C   0  0  0  0  0  0  0  0  0  0  0  0
   19.6046  -23.2461  -14.6732 C   0  0  0  0  0  0  0  0  0  0  0  0
   19.2655  -24.4488  -14.7765 O   0  0  0  0  0  0  0  0  0  0  0  0
   20.3777  -21.0248  -12.9951 C   0  0  0  0  0  0  0  0  0  0  0  0
   21.0389  -20.7516  -11.8222 O   0  0  0  0  0  0  0  0  0  0  0  0
   18.6112  -22.2931  -14.7870 O   0  0  0  0  0  0  0  0  0  0  0  0
   19.1207  -20.9612  -12.9914 O   0  0  0  0  0  0  0  0  0  0  0  0
  2  1  1  6
  3  2  1  0
  4  5  1  1
  4  2  1  0
  6  4  1  0
  7  6  2  0
  8  6  1  0
  9  8  1  0
  9 10  1  0
 10 11  2  0
 12 10  1  0
 12 13  1  0
 13 17  1  0
 13 14  1  1
 15 19  1  0
 15 14  1  0
 16 15  2  0
 17 18  1  0
 20 17  2  0
M  END
$$$$
