TGD.pdb
     RDKit          3D

 20 19  0  0  1  0  0  0  0  0999 V2000
   28.5975  -11.0701  -16.4623 C   0  0  0  0  0  0  0  0  0  0  0  0
   27.2591  -11.3271  -17.1010 C   0  0  1  0  0  0  0  0  0  0  0  0
   26.8345  -12.6410  -16.9101 O   0  0  0  0  0  0  0  0  0  0  0  0
   26.1788  -10.4095  -16.5789 C   0  0  2  0  0  0  0  0  0  0  0  0
   24.9235  -10.8117  -17.1440 N   0  0  0  0  0  0  0  0  0  0  0  0
   26.4980   -8.9851  -16.8738 C   0  0  0  0  0  0  0  0  0  0  0  0
   27.4545   -8.4703  -16.2722 O   0  0  0  0  0  0  0  0  0  0  0  0
   25.7527   -8.2160  -17.8065 N   0  0  0  0  0  0  0  0  0  0  0  0
   26.0634   -6.8346  -18.0792 C   0  0  0  0  0  0  0  0  0  0  0  0
   25.0605   -5.9115  -17.5057 C   0  0  0  0  0  0  0  0  0  0  0  0
   25.1839   -4.6786  -17.7195 O   0  0  0  0  0  0  0  0  0  0  0  0
   23.9558   -6.3254  -16.7223 N   0  0  0  0  0  0  0  0  0  0  0  0
   22.8462   -5.4266  -16.3823 C   0  0  1  0  0  0  0  0  0  0  0  0
   21.6695   -5.6733  -17.2866 C   0  0  0  0  0  0  0  0  0  0  0  0
   20.5355   -4.8330  -16.8615 C   0  0  0  0  0  0  0  0  0  0  0  0
   20.7193   -3.6784  -16.4084 O   0  0  0  0  0  0  0  0  0  0  0  0
   22.4603   -5.7353  -14.9936 C   0  0  0  0  0  0  0  0  0  0  0  0
   23.0161   -6.7888  -14.3088 O   0  0  0  0  0  0  0  0  0  0  0  0
   19.2323   -5.2833  -16.9455 O   0  0  0  0  0  0  0  0  0  0  0  0
   21.6029   -5.0322  -14.3980 O   0  0  0  0  0  0  0  0  0  0  0  0
  2  1  1  1
  3  2  1  0
  4  5  1  6
  4  2  1  0
  6  4  1  0
  7  6  2  0
  8  6  1  0
  9  8  1  0
  9 10  1  0
 10 11  2  0
 12 10  1  0
 12 13  1  0
 13 17  1  0
 13 14  1  6
 15 19  1  0
 15 14  1  0
 16 15  2  0
 17 18  1  0
 20 17  2  0
M  END
$$$$
