TGD.pdb
     RDKit          3D

 20 19  0  0  1  0  0  0  0  0999 V2000
   16.0335  -12.1392  -17.7195 C   0  0  0  0  0  0  0  0  0  0  0  0
   15.4285  -12.7174  -16.4685 C   0  0  1  0  0  0  0  0  0  0  0  0
   15.3291  -14.1063  -16.5319 O   0  0  0  0  0  0  0  0  0  0  0  0
   16.2112  -12.3640  -15.2259 C   0  0  2  0  0  0  0  0  0  0  0  0
   15.6297  -13.0489  -14.1080 N   0  0  0  0  0  0  0  0  0  0  0  0
   16.2542  -10.8895  -15.0219 C   0  0  0  0  0  0  0  0  0  0  0  0
   15.1739  -10.2930  -14.8838 O   0  0  0  0  0  0  0  0  0  0  0  0
   17.4736  -10.1625  -14.9815 N   0  0  0  0  0  0  0  0  0  0  0  0
   17.5065   -8.7368  -14.7681 C   0  0  0  0  0  0  0  0  0  0  0  0
   18.8803   -8.1932  -14.8298 C   0  0  0  0  0  0  0  0  0  0  0  0
   19.8411   -8.9950  -14.9517 O   0  0  0  0  0  0  0  0  0  0  0  0
   19.1929   -6.8137  -14.7607 N   0  0  0  0  0  0  0  0  0  0  0  0
   20.5676   -6.3084  -14.8579 C   0  0  1  0  0  0  0  0  0  0  0  0
   20.5705   -4.8163  -15.0496 C   0  0  0  0  0  0  0  0  0  0  0  0
   21.9591   -4.3371  -15.1726 C   0  0  0  0  0  0  0  0  0  0  0  0
   22.4666   -3.5925  -14.3008 O   0  0  0  0  0  0  0  0  0  0  0  0
   21.2298   -6.6320  -13.5813 C   0  0  0  0  0  0  0  0  0  0  0  0
   20.5244   -7.1165  -12.5065 O   0  0  0  0  0  0  0  0  0  0  0  0
   22.7510   -4.6883  -16.2484 O   0  0  0  0  0  0  0  0  0  0  0  0
   22.4707   -6.4694  -13.4467 O   0  0  0  0  0  0  0  0  0  0  0  0
  2  1  1  6
  3  2  1  0
  4  5  1  1
  4  2  1  0
  6  4  1  0
  7  6  2  0
  8  6  1  0
  9  8  1  0
  9 10  1  0
 10 11  2  0
 12 10  1  0
 12 13  1  0
 13 17  1  0
 13 14  1  1
 15 19  1  0
 15 14  1  0
 16 15  2  0
 17 18  1  0
 20 17  2  0
M  END
$$$$
