TGD.pdb
     RDKit          3D

 20 19  0  0  1  0  0  0  0  0999 V2000
   17.0594  -10.9197  -18.3635 C   0  0  0  0  0  0  0  0  0  0  0  0
   17.7050  -10.3885  -17.1120 C   0  0  1  0  0  0  0  0  0  0  0  0
   16.7613   -9.9456  -16.1867 O   0  0  0  0  0  0  0  0  0  0  0  0
   18.5805  -11.4124  -16.4286 C   0  0  2  0  0  0  0  0  0  0  0  0
   17.8051  -12.5963  -16.1965 N   0  0  0  0  0  0  0  0  0  0  0  0
   19.1621  -10.8654  -15.1715 C   0  0  0  0  0  0  0  0  0  0  0  0
   18.7543  -11.3310  -14.0951 O   0  0  0  0  0  0  0  0  0  0  0  0
   20.1512   -9.8463  -15.1716 N   0  0  0  0  0  0  0  0  0  0  0  0
   20.7773   -9.3890  -13.9559 C   0  0  0  0  0  0  0  0  0  0  0  0
   21.7722   -8.3236  -14.2050 C   0  0  0  0  0  0  0  0  0  0  0  0
   22.8219   -8.6139  -14.8334 O   0  0  0  0  0  0  0  0  0  0  0  0
   21.6224   -6.9812  -13.7797 N   0  0  0  0  0  0  0  0  0  0  0  0
   22.2633   -5.8562  -14.4713 C   0  0  1  0  0  0  0  0  0  0  0  0
   21.8239   -5.7994  -15.9089 C   0  0  0  0  0  0  0  0  0  0  0  0
   22.4923   -4.6731  -16.5853 C   0  0  0  0  0  0  0  0  0  0  0  0
   22.8505   -3.6551  -15.9471 O   0  0  0  0  0  0  0  0  0  0  0  0
   21.8230   -4.6290  -13.7835 C   0  0  0  0  0  0  0  0  0  0  0  0
   20.5714   -4.5250  -13.2265 O   0  0  0  0  0  0  0  0  0  0  0  0
   22.7484   -4.6958  -17.9425 O   0  0  0  0  0  0  0  0  0  0  0  0
   22.5934   -3.6379  -13.6907 O   0  0  0  0  0  0  0  0  0  0  0  0
  2  1  1  6
  3  2  1  0
  4  5  1  1
  4  2  1  0
  6  4  1  0
  7  6  2  0
  8  6  1  0
  9  8  1  0
  9 10  1  0
 10 11  2  0
 12 10  1  0
 12 13  1  0
 13 17  1  0
 13 14  1  6
 15 19  1  0
 15 14  1  0
 16 15  2  0
 17 18  1  0
 20 17  2  0
M  END
$$$$
