TGD.pdb
     RDKit          3D

 20 19  0  0  1  0  0  0  0  0999 V2000
   19.5474   -9.9913  -18.9305 C   0  0  0  0  0  0  0  0  0  0  0  0
   19.0955  -11.2763  -18.2903 C   0  0  1  0  0  0  0  0  0  0  0  0
   18.8862  -12.2821  -19.2324 O   0  0  0  0  0  0  0  0  0  0  0  0
   20.0789  -11.7950  -17.2678 C   0  0  2  0  0  0  0  0  0  0  0  0
   19.6786  -13.1151  -16.8757 N   0  0  0  0  0  0  0  0  0  0  0  0
   20.1806  -10.8694  -16.1057 C   0  0  0  0  0  0  0  0  0  0  0  0
   19.2075  -10.7960  -15.3379 O   0  0  0  0  0  0  0  0  0  0  0  0
   21.3380  -10.0847  -15.8573 N   0  0  0  0  0  0  0  0  0  0  0  0
   21.4285   -9.1927  -14.7279 C   0  0  0  0  0  0  0  0  0  0  0  0
   21.2847   -7.7746  -15.1218 C   0  0  0  0  0  0  0  0  0  0  0  0
   21.2676   -7.4876  -16.3459 O   0  0  0  0  0  0  0  0  0  0  0  0
   21.1630   -6.7033  -14.2038 N   0  0  0  0  0  0  0  0  0  0  0  0
   20.9902   -5.3101  -14.6324 C   0  0  1  0  0  0  0  0  0  0  0  0
   19.7795   -4.7017  -13.9788 C   0  0  0  0  0  0  0  0  0  0  0  0
   19.6098   -3.3147  -14.4480 C   0  0  0  0  0  0  0  0  0  0  0  0
   19.6835   -3.0299  -15.6668 O   0  0  0  0  0  0  0  0  0  0  0  0
   22.1931   -4.5792  -14.1947 C   0  0  0  0  0  0  0  0  0  0  0  0
   22.6365   -3.4599  -14.8566 O   0  0  0  0  0  0  0  0  0  0  0  0
   19.3641   -2.2798  -13.5666 O   0  0  0  0  0  0  0  0  0  0  0  0
   22.8481   -4.9695  -13.1932 O   0  0  0  0  0  0  0  0  0  0  0  0
  2  1  1  6
  3  2  1  0
  4  5  1  1
  4  2  1  0
  6  4  1  0
  7  6  2  0
  8  6  1  0
  9  8  1  0
  9 10  1  0
 10 11  2  0
 12 10  1  0
 12 13  1  0
 13 17  1  0
 13 14  1  1
 15 19  1  0
 15 14  1  0
 16 15  2  0
 17 18  1  0
 20 17  2  0
M  END
$$$$
