TGD.pdb
     RDKit          3D

 20 19  0  0  1  0  0  0  0  0999 V2000
   27.9724  -12.5446  -15.9386 C   0  0  0  0  0  0  0  0  0  0  0  0
   27.2192  -11.9097  -17.0765 C   0  0  1  0  0  0  0  0  0  0  0  0
   27.5445  -12.4868  -18.3029 O   0  0  0  0  0  0  0  0  0  0  0  0
   25.7211  -11.9979  -16.9045 C   0  0  2  0  0  0  0  0  0  0  0  0
   25.0958  -11.6397  -18.1444 N   0  0  0  0  0  0  0  0  0  0  0  0
   25.2610  -11.1437  -15.7748 C   0  0  0  0  0  0  0  0  0  0  0  0
   25.6115  -11.4640  -14.6275 O   0  0  0  0  0  0  0  0  0  0  0  0
   24.4489   -9.9953  -15.9714 N   0  0  0  0  0  0  0  0  0  0  0  0
   23.8933   -9.2541  -14.8663 C   0  0  0  0  0  0  0  0  0  0  0  0
   23.1291   -8.0700  -15.3143 C   0  0  0  0  0  0  0  0  0  0  0  0
   23.1494   -7.7654  -16.5341 O   0  0  0  0  0  0  0  0  0  0  0  0
   22.3655   -7.2446  -14.4534 N   0  0  0  0  0  0  0  0  0  0  0  0
   21.5431   -6.1335  -14.9471 C   0  0  1  0  0  0  0  0  0  0  0  0
   20.1095   -6.3086  -14.5261 C   0  0  0  0  0  0  0  0  0  0  0  0
   19.2929   -5.2181  -15.0890 C   0  0  0  0  0  0  0  0  0  0  0  0
   19.7790   -4.0786  -15.2819 O   0  0  0  0  0  0  0  0  0  0  0  0
   22.0789   -4.9043  -14.3348 C   0  0  0  0  0  0  0  0  0  0  0  0
   22.6160   -4.9046  -13.0703 O   0  0  0  0  0  0  0  0  0  0  0  0
   17.9665   -5.4089  -15.4240 O   0  0  0  0  0  0  0  0  0  0  0  0
   22.0555   -3.8148  -14.9647 O   0  0  0  0  0  0  0  0  0  0  0  0
  2  1  1  1
  3  2  1  0
  4  5  1  6
  4  2  1  0
  6  4  1  0
  7  6  2  0
  8  6  1  0
  9  8  1  0
  9 10  1  0
 10 11  2  0
 12 10  1  0
 12 13  1  0
 13 17  1  0
 13 14  1  1
 15 19  1  0
 15 14  1  0
 16 15  2  0
 17 18  1  0
 20 17  2  0
M  END
$$$$
