TGD.pdb
     RDKit          3D

 20 19  0  0  1  0  0  0  0  0999 V2000
   47.5045  -14.4605   -8.1568 C   0  0  0  0  0  0  0  0  0  0  0  0
   46.5694  -13.5458   -7.4123 C   0  0  1  0  0  0  0  0  0  0  0  0
   47.2190  -12.8573   -6.3892 O   0  0  0  0  0  0  0  0  0  0  0  0
   45.9115  -12.5271   -8.3129 C   0  0  2  0  0  0  0  0  0  0  0  0
   46.9341  -11.8144   -9.0222 N   0  0  0  0  0  0  0  0  0  0  0  0
   45.0277  -11.6160   -7.5341 C   0  0  0  0  0  0  0  0  0  0  0  0
   45.4666  -10.4906   -7.2468 O   0  0  0  0  0  0  0  0  0  0  0  0
   43.7224  -11.9928   -7.1203 N   0  0  0  0  0  0  0  0  0  0  0  0
   42.8549  -11.0866   -6.4093 C   0  0  0  0  0  0  0  0  0  0  0  0
   41.6675  -10.7080   -7.2053 C   0  0  0  0  0  0  0  0  0  0  0  0
   41.6963  -10.8808   -8.4505 O   0  0  0  0  0  0  0  0  0  0  0  0
   40.4846  -10.1572   -6.6552 N   0  0  0  0  0  0  0  0  0  0  0  0
   39.2811   -9.9071   -7.4575 C   0  0  1  0  0  0  0  0  0  0  0  0
   38.0411  -10.1577   -6.6435 C   0  0  0  0  0  0  0  0  0  0  0  0
   37.9587  -11.5881   -6.2970 C   0  0  0  0  0  0  0  0  0  0  0  0
   38.2876  -12.4738   -7.1212 O   0  0  0  0  0  0  0  0  0  0  0  0
   39.3211   -8.4871   -7.8510 C   0  0  0  0  0  0  0  0  0  0  0  0
   38.5111   -7.9918   -8.8441 O   0  0  0  0  0  0  0  0  0  0  0  0
   37.5178  -12.0058   -5.0564 O   0  0  0  0  0  0  0  0  0  0  0  0
   40.1076   -7.6881   -7.2790 O   0  0  0  0  0  0  0  0  0  0  0  0
  2  1  1  6
  3  2  1  0
  4  5  1  1
  4  2  1  0
  6  4  1  0
  7  6  2  0
  8  6  1  0
  9  8  1  0
  9 10  1  0
 10 11  2  0
 12 10  1  0
 12 13  1  0
 13 17  1  0
 13 14  1  1
 15 19  1  0
 15 14  1  0
 16 15  2  0
 17 18  1  0
 20 17  2  0
M  END
$$$$
