TGD.pdb
     RDKit          3D

 20 19  0  0  1  0  0  0  0  0999 V2000
   19.6327  -15.2607  -15.1453 C   0  0  0  0  0  0  0  0  0  0  0  0
   20.4372  -16.3147  -15.8574 C   0  0  1  0  0  0  0  0  0  0  0  0
   20.0399  -17.6024  -15.5014 O   0  0  0  0  0  0  0  0  0  0  0  0
   20.3466  -16.1997  -17.3609 C   0  0  2  0  0  0  0  0  0  0  0  0
   20.9750  -17.3480  -17.9468 N   0  0  0  0  0  0  0  0  0  0  0  0
   20.9495  -14.9240  -17.8372 C   0  0  0  0  0  0  0  0  0  0  0  0
   21.7489  -14.9809  -18.7857 O   0  0  0  0  0  0  0  0  0  0  0  0
   20.6400  -13.6697  -17.2475 N   0  0  0  0  0  0  0  0  0  0  0  0
   21.2471  -12.4423  -17.6994 C   0  0  0  0  0  0  0  0  0  0  0  0
   20.7329  -11.2623  -16.9714 C   0  0  0  0  0  0  0  0  0  0  0  0
   19.7344  -11.4050  -16.2207 O   0  0  0  0  0  0  0  0  0  0  0  0
   21.2949   -9.9656  -17.0620 N   0  0  0  0  0  0  0  0  0  0  0  0
   20.9313   -8.8800  -16.1433 C   0  0  1  0  0  0  0  0  0  0  0  0
   21.2345   -9.2666  -14.7214 C   0  0  0  0  0  0  0  0  0  0  0  0
   20.8610   -8.1623  -13.8193 C   0  0  0  0  0  0  0  0  0  0  0  0
   20.0731   -7.2607  -14.1913 O   0  0  0  0  0  0  0  0  0  0  0  0
   21.7572   -7.7165  -16.5134 C   0  0  0  0  0  0  0  0  0  0  0  0
   21.5467   -6.4778  -15.9576 O   0  0  0  0  0  0  0  0  0  0  0  0
   21.3625   -8.0787  -12.5349 O   0  0  0  0  0  0  0  0  0  0  0  0
   22.6839   -7.8339  -17.3570 O   0  0  0  0  0  0  0  0  0  0  0  0
  2  1  1  1
  3  2  1  0
  4  5  1  6
  4  2  1  0
  6  4  1  0
  7  6  2  0
  8  6  1  0
  9  8  1  0
  9 10  1  0
 10 11  2  0
 12 10  1  0
 12 13  1  0
 13 17  1  0
 13 14  1  1
 15 19  1  0
 15 14  1  0
 16 15  2  0
 17 18  1  0
 20 17  2  0
M  END
$$$$
