TGD.pdb
     RDKit          3D

 20 19  0  0  1  0  0  0  0  0999 V2000
   17.1259  -12.9840  -18.7774 C   0  0  0  0  0  0  0  0  0  0  0  0
   17.6727  -12.1337  -17.6623 C   0  0  1  0  0  0  0  0  0  0  0  0
   16.7832  -12.0415  -16.5932 O   0  0  0  0  0  0  0  0  0  0  0  0
   18.9886  -12.6489  -17.1286 C   0  0  2  0  0  0  0  0  0  0  0  0
   18.8273  -14.0267  -16.7646 N   0  0  0  0  0  0  0  0  0  0  0  0
   19.4658  -11.8179  -15.9887 C   0  0  0  0  0  0  0  0  0  0  0  0
   19.3691  -12.2938  -14.8458 O   0  0  0  0  0  0  0  0  0  0  0  0
   20.0177  -10.5221  -16.1708 N   0  0  0  0  0  0  0  0  0  0  0  0
   20.5547   -9.7589  -15.0715 C   0  0  0  0  0  0  0  0  0  0  0  0
   21.0142   -8.4179  -15.4928 C   0  0  0  0  0  0  0  0  0  0  0  0
   20.9970   -8.1317  -16.7170 O   0  0  0  0  0  0  0  0  0  0  0  0
   21.4781   -7.4204  -14.6010 N   0  0  0  0  0  0  0  0  0  0  0  0
   21.7719   -6.0484  -15.0325 C   0  0  1  0  0  0  0  0  0  0  0  0
   20.5224   -5.3689  -15.5225 C   0  0  0  0  0  0  0  0  0  0  0  0
   20.8431   -3.9955  -15.9512 C   0  0  0  0  0  0  0  0  0  0  0  0
   21.9944   -3.6921  -16.3441 O   0  0  0  0  0  0  0  0  0  0  0  0
   22.2788   -5.3308  -13.8489 C   0  0  0  0  0  0  0  0  0  0  0  0
   22.8765   -4.0983  -13.9551 O   0  0  0  0  0  0  0  0  0  0  0  0
   19.8915   -2.9943  -15.9366 O   0  0  0  0  0  0  0  0  0  0  0  0
   22.1739   -5.8378  -12.7016 O   0  0  0  0  0  0  0  0  0  0  0  0
  2  1  1  6
  3  2  1  0
  4  5  1  1
  4  2  1  0
  6  4  1  0
  7  6  2  0
  8  6  1  0
  9  8  1  0
  9 10  1  0
 10 11  2  0
 12 10  1  0
 12 13  1  0
 13 17  1  0
 13 14  1  1
 15 19  1  0
 15 14  1  0
 16 15  2  0
 17 18  1  0
 20 17  2  0
M  END
$$$$
