TGD.pdb
     RDKit          3D

 20 19  0  0  1  0  0  0  0  0999 V2000
   27.2153  -14.1902  -16.8229 C   0  0  0  0  0  0  0  0  0  0  0  0
   26.7036  -13.1813  -15.8301 C   0  0  1  0  0  0  0  0  0  0  0  0
   27.3807  -13.2573  -14.6141 O   0  0  0  0  0  0  0  0  0  0  0  0
   26.8119  -11.7615  -16.3341 C   0  0  2  0  0  0  0  0  0  0  0  0
   26.5505  -10.8672  -15.2438 N   0  0  0  0  0  0  0  0  0  0  0  0
   25.8941  -11.5303  -17.4839 C   0  0  0  0  0  0  0  0  0  0  0  0
   26.1242  -12.1422  -18.5396 O   0  0  0  0  0  0  0  0  0  0  0  0
   24.7849  -10.6468  -17.4060 N   0  0  0  0  0  0  0  0  0  0  0  0
   23.8710  -10.4689  -18.5070 C   0  0  0  0  0  0  0  0  0  0  0  0
   22.8180   -9.4753  -18.2054 C   0  0  0  0  0  0  0  0  0  0  0  0
   21.9939   -9.1776  -19.1072 O   0  0  0  0  0  0  0  0  0  0  0  0
   22.6713   -8.8277  -16.9546 N   0  0  0  0  0  0  0  0  0  0  0  0
   21.3928   -8.2692  -16.4982 C   0  0  1  0  0  0  0  0  0  0  0  0
   20.6558   -9.2641  -15.6438 C   0  0  0  0  0  0  0  0  0  0  0  0
   19.4797   -8.6167  -15.0352 C   0  0  0  0  0  0  0  0  0  0  0  0
   18.6864   -7.9344  -15.7259 O   0  0  0  0  0  0  0  0  0  0  0  0
   21.7142   -7.0812  -15.6870 C   0  0  0  0  0  0  0  0  0  0  0  0
   23.0049   -6.6311  -15.5487 O   0  0  0  0  0  0  0  0  0  0  0  0
   19.2076   -8.7361  -13.6862 O   0  0  0  0  0  0  0  0  0  0  0  0
   20.8022   -6.4459  -15.0962 O   0  0  0  0  0  0  0  0  0  0  0  0
  2  1  1  6
  3  2  1  0
  4  5  1  1
  4  2  1  0
  6  4  1  0
  7  6  2  0
  8  6  1  0
  9  8  1  0
  9 10  1  0
 10 11  2  0
 12 10  1  0
 12 13  1  0
 13 17  1  0
 13 14  1  1
 15 19  1  0
 15 14  1  0
 16 15  2  0
 17 18  1  0
 20 17  2  0
M  END
$$$$
