TGD.pdb
     RDKit          3D

 20 19  0  0  1  0  0  0  0  0999 V2000
   27.4108  -20.5143  -12.5510 C   0  0  0  0  0  0  0  0  0  0  0  0
   26.6832  -21.2508  -11.4585 C   0  0  1  0  0  0  0  0  0  0  0  0
   27.4933  -21.4631  -10.3443 O   0  0  0  0  0  0  0  0  0  0  0  0
   25.4393  -20.5283  -10.9975 C   0  0  2  0  0  0  0  0  0  0  0  0
   24.9881  -21.1275   -9.7751 N   0  0  0  0  0  0  0  0  0  0  0  0
   24.3891  -20.5441  -12.0531 C   0  0  0  0  0  0  0  0  0  0  0  0
   23.3713  -21.2246  -11.8461 O   0  0  0  0  0  0  0  0  0  0  0  0
   24.5182  -19.8157  -13.2654 N   0  0  0  0  0  0  0  0  0  0  0  0
   23.4785  -19.8044  -14.2645 C   0  0  0  0  0  0  0  0  0  0  0  0
   23.8506  -19.0033  -15.4506 C   0  0  0  0  0  0  0  0  0  0  0  0
   25.0174  -18.5406  -15.5237 O   0  0  0  0  0  0  0  0  0  0  0  0
   22.9723  -18.7178  -16.5241 N   0  0  0  0  0  0  0  0  0  0  0  0
   23.4038  -17.9998  -17.7295 C   0  0  1  0  0  0  0  0  0  0  0  0
   24.4814  -18.7676  -18.4452 C   0  0  0  0  0  0  0  0  0  0  0  0
   23.9718  -20.0984  -18.8225 C   0  0  0  0  0  0  0  0  0  0  0  0
   23.0709  -20.6597  -18.1553 O   0  0  0  0  0  0  0  0  0  0  0  0
   22.2233  -17.8945  -18.6060 C   0  0  0  0  0  0  0  0  0  0  0  0
   21.0455  -18.5361  -18.3081 O   0  0  0  0  0  0  0  0  0  0  0  0
   24.4654  -20.7752  -19.9208 O   0  0  0  0  0  0  0  0  0  0  0  0
   22.2694  -17.2065  -19.6590 O   0  0  0  0  0  0  0  0  0  0  0  0
  2  1  1  6
  3  2  1  0
  4  5  1  1
  4  2  1  0
  6  4  1  0
  7  6  2  0
  8  6  1  0
  9  8  1  0
  9 10  1  0
 10 11  2  0
 12 10  1  0
 12 13  1  0
 13 17  1  0
 13 14  1  6
 15 19  1  0
 15 14  1  0
 16 15  2  0
 17 18  1  0
 20 17  2  0
M  END
$$$$
