TGD.pdb
     RDKit          3D

 20 19  0  0  1  0  0  0  0  0999 V2000
   17.5231  -12.5164  -16.9834 C   0  0  0  0  0  0  0  0  0  0  0  0
   18.8357  -11.8413  -17.2775 C   0  0  1  0  0  0  0  0  0  0  0  0
   18.6587  -10.6077  -17.9018 O   0  0  0  0  0  0  0  0  0  0  0  0
   19.6670  -11.6185  -16.0361 C   0  0  2  0  0  0  0  0  0  0  0  0
   18.8972  -10.8503  -15.1011 N   0  0  0  0  0  0  0  0  0  0  0  0
   20.9625  -10.9643  -16.3699 C   0  0  0  0  0  0  0  0  0  0  0  0
   21.7770  -11.6085  -17.0508 O   0  0  0  0  0  0  0  0  0  0  0  0
   21.2840   -9.6498  -15.9392 N   0  0  0  0  0  0  0  0  0  0  0  0
   22.5211   -9.0064  -16.3068 C   0  0  0  0  0  0  0  0  0  0  0  0
   22.5850   -7.6059  -15.8363 C   0  0  0  0  0  0  0  0  0  0  0  0
   23.6437   -6.9543  -16.0248 O   0  0  0  0  0  0  0  0  0  0  0  0
   21.5222   -6.9389  -15.1799 N   0  0  0  0  0  0  0  0  0  0  0  0
   21.5746   -5.5122  -14.8385 C   0  0  1  0  0  0  0  0  0  0  0  0
   20.2629   -4.8451  -15.1504 C   0  0  0  0  0  0  0  0  0  0  0  0
   20.3158   -3.4325  -14.7325 C   0  0  0  0  0  0  0  0  0  0  0  0
   21.3184   -2.7213  -14.9797 O   0  0  0  0  0  0  0  0  0  0  0  0
   21.8237   -5.4320  -13.3878 C   0  0  0  0  0  0  0  0  0  0  0  0
   22.0905   -4.2353  -12.7679 O   0  0  0  0  0  0  0  0  0  0  0  0
   19.2673   -2.8405  -14.0554 O   0  0  0  0  0  0  0  0  0  0  0  0
   21.7972   -6.4705  -12.6772 O   0  0  0  0  0  0  0  0  0  0  0  0
  2  1  1  1
  3  2  1  0
  4  5  1  1
  4  2  1  0
  6  4  1  0
  7  6  2  0
  8  6  1  0
  9  8  1  0
  9 10  1  0
 10 11  2  0
 12 10  1  0
 12 13  1  0
 13 17  1  0
 13 14  1  1
 15 19  1  0
 15 14  1  0
 16 15  2  0
 17 18  1  0
 20 17  2  0
M  END
$$$$
