TGD.pdb
     RDKit          3D

 20 19  0  0  1  0  0  0  0  0999 V2000
   17.2932  -14.8641  -17.0173 C   0  0  0  0  0  0  0  0  0  0  0  0
   18.2416  -13.7416  -17.3424 C   0  0  1  0  0  0  0  0  0  0  0  0
   17.5746  -12.6247  -17.8430 O   0  0  0  0  0  0  0  0  0  0  0  0
   19.0537  -13.3007  -16.1475 C   0  0  2  0  0  0  0  0  0  0  0  0
   18.1560  -12.8388  -15.1288 N   0  0  0  0  0  0  0  0  0  0  0  0
   20.0507  -12.2633  -16.5315 C   0  0  0  0  0  0  0  0  0  0  0  0
   21.0588  -12.6329  -17.1551 O   0  0  0  0  0  0  0  0  0  0  0  0
   19.8819  -10.8903  -16.2100 N   0  0  0  0  0  0  0  0  0  0  0  0
   20.8774   -9.9004  -16.5393 C   0  0  0  0  0  0  0  0  0  0  0  0
   20.4331   -8.5288  -16.2105 C   0  0  0  0  0  0  0  0  0  0  0  0
   19.2456   -8.3531  -15.8365 O   0  0  0  0  0  0  0  0  0  0  0  0
   21.2635   -7.3844  -16.2883 N   0  0  0  0  0  0  0  0  0  0  0  0
   20.8134   -6.0507  -15.8719 C   0  0  1  0  0  0  0  0  0  0  0  0
   21.9096   -5.3276  -15.1381 C   0  0  0  0  0  0  0  0  0  0  0  0
   21.7207   -5.4888  -13.6851 C   0  0  0  0  0  0  0  0  0  0  0  0
   20.7322   -6.1081  -13.2255 O   0  0  0  0  0  0  0  0  0  0  0  0
   20.4868   -5.3095  -17.1035 C   0  0  0  0  0  0  0  0  0  0  0  0
   19.4897   -4.3647  -17.1325 O   0  0  0  0  0  0  0  0  0  0  0  0
   22.6216   -4.9658  -12.7780 O   0  0  0  0  0  0  0  0  0  0  0  0
   21.1218   -5.5287  -18.1679 O   0  0  0  0  0  0  0  0  0  0  0  0
  2  1  1  1
  3  2  1  0
  4  5  1  1
  4  2  1  0
  6  4  1  0
  7  6  2  0
  8  6  1  0
  9  8  1  0
  9 10  1  0
 10 11  2  0
 12 10  1  0
 12 13  1  0
 13 17  1  0
 13 14  1  6
 15 19  1  0
 15 14  1  0
 16 15  2  0
 17 18  1  0
 20 17  2  0
M  END
$$$$
