IWD.pdb
     RDKit          3D

 31 32  0  0  1  0  0  0  0  0999 V2000
   18.8085  -13.6827    3.4751 C   0  0  0  0  0  0  0  0  0  0  0  0
   17.7267  -14.5105    2.8141 C   0  0  0  0  0  0  0  0  0  0  0  0
   17.4019  -15.7713    3.5666 C   0  0  2  0  0  0  0  0  0  0  0  0
   18.6002  -16.6917    3.6766 C   0  0  0  0  0  0  0  0  0  0  0  0
   16.2684  -16.5439    2.9505 C   0  0  2  0  0  0  0  0  0  0  0  0
   15.0310  -15.7637    2.9222 N   0  0  0  0  0  0  0  0  0  0  0  0
   16.0147  -17.8324    3.6131 C   0  0  0  0  0  0  0  0  0  0  0  0
   15.3086  -17.8841    4.6546 O   0  0  0  0  0  0  0  0  0  0  0  0
   16.5316  -19.0940    3.1471 N   0  0  0  0  0  0  0  0  0  0  0  0
   16.3420  -20.3097    3.8786 C   0  0  1  0  0  0  0  0  0  0  0  0
   16.7701  -21.5622    3.1447 C   0  0  0  0  0  0  0  0  0  0  0  0
   16.1745  -21.6980    1.7998 C   0  0  0  0  0  0  0  0  0  0  0  0
   15.4555  -20.7302    1.1123 C   0  0  0  0  0  0  0  0  0  0  0  0
   15.1162  -21.2331   -0.0808 N   0  0  0  0  0  0  0  0  0  0  0  0
   15.5987  -22.4992   -0.1770 C   0  0  0  0  0  0  0  0  0  0  0  0
   15.5355  -23.4554   -1.1664 C   0  0  0  0  0  0  0  0  0  0  0  0
   16.1157  -24.7008   -1.0146 C   0  0  0  0  0  0  0  0  0  0  0  0
   16.7698  -24.9984    0.1436 C   0  0  0  0  0  0  0  0  0  0  0  0
   16.8445  -24.0640    1.1377 C   0  0  0  0  0  0  0  0  0  0  0  0
   16.2618  -22.8047    0.9898 C   0  0  0  0  0  0  0  0  0  0  0  0
   17.1048  -20.2488    5.1433 C   0  0  0  0  0  0  0  0  0  0  0  0
   18.2120  -19.6466    5.2001 O   0  0  0  0  0  0  0  0  0  0  0  0
   16.5819  -20.8711    6.2889 N   0  0  0  0  0  0  0  0  0  0  0  0
   17.2579  -20.8907    7.5814 C   0  0  1  0  0  0  0  0  0  0  0  0
   16.9477  -19.6341    8.3631 C   0  0  0  0  0  0  0  0  0  0  0  0
   17.4560  -19.6089    9.7289 C   0  0  0  0  0  0  0  0  0  0  0  0
   18.4579  -18.8828    9.9862 O   0  0  0  0  0  0  0  0  0  0  0  0
   16.9596  -22.1420    8.3079 C   0  0  0  0  0  0  0  0  0  0  0  0
   15.9290  -22.7907    7.9803 O   0  0  0  0  0  0  0  0  0  0  0  0
   16.9161  -20.3332   10.7827 O   0  0  0  0  0  0  0  0  0  0  0  0
   17.7268  -22.6680    9.3296 O   0  0  0  0  0  0  0  0  0  0  0  0
  2  3  1  0
  2  1  1  0
  3  4  1  6
  5  6  1  1
  5  3  1  0
  7  8  2  0
  7  5  1  0
  9  7  1  0
 10 21  1  0
 10  9  1  0
 10 11  1  6
 12 11  1  0
 13 12  2  0
 14 13  1  0
 15 14  1  0
 15 20  2  0
 16 15  1  0
 17 16  2  0
 17 18  1  0
 18 19  2  0
 19 20  1  0
 20 12  1  0
 21 23  1  0
 22 21  2  0
 23 24  1  0
 24 28  1  0
 25 26  1  0
 24 25  1  1
 26 30  1  0
 27 26  2  0
 28 29  2  0
 28 31  1  0
M  END
$$$$
