IWD.pdb
     RDKit          3D

 31 32  0  0  1  0  0  0  0  0999 V2000
   28.9925  -18.5685  -15.9812 C   0  0  0  0  0  0  0  0  0  0  0  0
   27.7260  -19.3336  -16.3024 C   0  0  0  0  0  0  0  0  0  0  0  0
   26.9416  -19.7217  -15.0795 C   0  0  2  0  0  0  0  0  0  0  0  0
   26.4217  -18.5118  -14.3306 C   0  0  0  0  0  0  0  0  0  0  0  0
   27.7346  -20.5657  -14.1203 C   0  0  2  0  0  0  0  0  0  0  0  0
   28.1759  -21.8180  -14.7349 N   0  0  0  0  0  0  0  0  0  0  0  0
   27.0124  -20.8647  -12.8742 C   0  0  0  0  0  0  0  0  0  0  0  0
   25.9977  -21.6105  -12.8903 O   0  0  0  0  0  0  0  0  0  0  0  0
   27.3878  -20.3507  -11.5817 N   0  0  0  0  0  0  0  0  0  0  0  0
   26.4985  -20.3898  -10.4608 C   0  0  1  0  0  0  0  0  0  0  0  0
   26.9214  -19.5315   -9.2882 C   0  0  0  0  0  0  0  0  0  0  0  0
   26.6325  -20.1365   -7.9720 C   0  0  0  0  0  0  0  0  0  0  0  0
   25.6086  -21.0260   -7.6775 C   0  0  0  0  0  0  0  0  0  0  0  0
   25.7066  -21.3601   -6.3850 N   0  0  0  0  0  0  0  0  0  0  0  0
   26.7669  -20.7077   -5.8419 C   0  0  0  0  0  0  0  0  0  0  0  0
   27.3059  -20.6839   -4.5746 C   0  0  0  0  0  0  0  0  0  0  0  0
   28.4113  -19.9132   -4.2669 C   0  0  0  0  0  0  0  0  0  0  0  0
   28.9893  -19.1526   -5.2392 C   0  0  0  0  0  0  0  0  0  0  0  0
   28.4706  -19.1619   -6.5033 C   0  0  0  0  0  0  0  0  0  0  0  0
   27.3556  -19.9388   -6.8201 C   0  0  0  0  0  0  0  0  0  0  0  0
   25.1540  -19.9420  -10.8817 C   0  0  0  0  0  0  0  0  0  0  0  0
   25.0155  -18.9476  -11.6459 O   0  0  0  0  0  0  0  0  0  0  0  0
   24.0248  -20.6384  -10.4205 N   0  0  0  0  0  0  0  0  0  0  0  0
   22.7108  -20.5605  -11.0493 C   0  0  1  0  0  0  0  0  0  0  0  0
   22.7838  -21.0092  -12.4914 C   0  0  0  0  0  0  0  0  0  0  0  0
   21.9473  -20.2592  -13.4200 C   0  0  0  0  0  0  0  0  0  0  0  0
   21.2347  -19.3195  -12.9658 O   0  0  0  0  0  0  0  0  0  0  0  0
   21.7029  -21.2803  -10.2440 C   0  0  0  0  0  0  0  0  0  0  0  0
   22.0907  -21.8936   -9.2126 O   0  0  0  0  0  0  0  0  0  0  0  0
   21.8721  -20.5033  -14.7844 O   0  0  0  0  0  0  0  0  0  0  0  0
   20.3523  -21.3373  -10.5304 O   0  0  0  0  0  0  0  0  0  0  0  0
  2  3  1  0
  2  1  1  0
  3  4  1  1
  5  6  1  6
  5  3  1  0
  7  8  2  0
  7  5  1  0
  9  7  1  0
 10 21  1  0
 10  9  1  0
 10 11  1  1
 12 11  1  0
 13 12  2  0
 14 13  1  0
 15 14  1  0
 15 20  2  0
 16 15  1  0
 17 16  2  0
 17 18  1  0
 18 19  2  0
 19 20  1  0
 20 12  1  0
 21 23  1  0
 22 21  2  0
 23 24  1  0
 24 28  1  0
 25 26  1  0
 24 25  1  6
 26 30  1  0
 27 26  2  0
 28 29  2  0
 28 31  1  0
M  END
$$$$
