IWD.pdb
     RDKit          3D

 31 32  0  0  1  0  0  0  0  0999 V2000
   28.4755  -24.0029  -18.9057 C   0  0  0  0  0  0  0  0  0  0  0  0
   28.0863  -22.7115  -18.2178 C   0  0  0  0  0  0  0  0  0  0  0  0
   27.3766  -22.9272  -16.9096 C   0  0  2  0  0  0  0  0  0  0  0  0
   26.0659  -23.6653  -17.0895 C   0  0  0  0  0  0  0  0  0  0  0  0
   27.0987  -21.6436  -16.1772 C   0  0  2  0  0  0  0  0  0  0  0  0
   28.2857  -20.7913  -16.1044 N   0  0  0  0  0  0  0  0  0  0  0  0
   26.5660  -21.8508  -14.8218 C   0  0  0  0  0  0  0  0  0  0  0  0
   25.4935  -22.4883  -14.6503 O   0  0  0  0  0  0  0  0  0  0  0  0
   27.1990  -21.3618  -13.6234 N   0  0  0  0  0  0  0  0  0  0  0  0
   26.5548  -21.4186  -12.3465 C   0  0  1  0  0  0  0  0  0  0  0  0
   27.4611  -21.1342  -11.1682 C   0  0  0  0  0  0  0  0  0  0  0  0
   26.7358  -20.8628   -9.9103 C   0  0  0  0  0  0  0  0  0  0  0  0
   25.3591  -20.8573   -9.7342 C   0  0  0  0  0  0  0  0  0  0  0  0
   25.1055  -20.5983   -8.4457 N   0  0  0  0  0  0  0  0  0  0  0  0
   26.2840  -20.4370   -7.7899 C   0  0  0  0  0  0  0  0  0  0  0  0
   26.5980  -20.1552   -6.4788 C   0  0  0  0  0  0  0  0  0  0  0  0
   27.9072  -20.0315   -6.0531 C   0  0  0  0  0  0  0  0  0  0  0  0
   28.9211  -20.1911   -6.9500 C   0  0  0  0  0  0  0  0  0  0  0  0
   28.6316  -20.4715   -8.2556 C   0  0  0  0  0  0  0  0  0  0  0  0
   27.3119  -20.5986   -8.6910 C   0  0  0  0  0  0  0  0  0  0  0  0
   25.4488  -20.4385  -12.3076 C   0  0  0  0  0  0  0  0  0  0  0  0
   25.6816  -19.2005  -12.3780 O   0  0  0  0  0  0  0  0  0  0  0  0
   24.1277  -20.9013  -12.1912 N   0  0  0  0  0  0  0  0  0  0  0  0
   22.9533  -20.0779  -12.4575 C   0  0  1  0  0  0  0  0  0  0  0  0
   23.0487  -19.4419  -13.8259 C   0  0  0  0  0  0  0  0  0  0  0  0
   21.9153  -19.6896  -14.7081 C   0  0  0  0  0  0  0  0  0  0  0  0
   20.7489  -19.5059  -14.2576 O   0  0  0  0  0  0  0  0  0  0  0  0
   21.7133  -20.8498  -12.2362 C   0  0  0  0  0  0  0  0  0  0  0  0
   21.7278  -22.0860  -12.4848 O   0  0  0  0  0  0  0  0  0  0  0  0
   22.0215  -20.1193  -16.0237 O   0  0  0  0  0  0  0  0  0  0  0  0
   20.5231  -20.3227  -11.7724 O   0  0  0  0  0  0  0  0  0  0  0  0
  2  3  1  0
  2  1  1  0
  3  4  1  6
  5  6  1  1
  5  3  1  0
  7  8  2  0
  7  5  1  0
  9  7  1  0
 10 21  1  0
 10  9  1  0
 10 11  1  1
 12 11  1  0
 13 12  2  0
 14 13  1  0
 15 14  1  0
 15 20  2  0
 16 15  1  0
 17 16  2  0
 17 18  1  0
 18 19  2  0
 19 20  1  0
 20 12  1  0
 21 23  1  0
 22 21  2  0
 23 24  1  0
 24 28  1  0
 25 26  1  0
 24 25  1  6
 26 30  1  0
 27 26  2  0
 28 29  2  0
 28 31  1  0
M  END
$$$$
