IWD.pdb
     RDKit          3D

 31 32  0  0  1  0  0  0  0  0999 V2000
   30.4179  -18.4725  -13.8020 C   0  0  0  0  0  0  0  0  0  0  0  0
   30.0371  -19.9316  -13.9386 C   0  0  0  0  0  0  0  0  0  0  0  0
   29.2546  -20.4525  -12.7648 C   0  0  2  0  0  0  0  0  0  0  0  0
   29.5387  -21.9163  -12.4975 C   0  0  0  0  0  0  0  0  0  0  0  0
   27.7697  -20.2826  -12.9309 C   0  0  2  0  0  0  0  0  0  0  0  0
   27.4096  -18.8923  -13.2101 N   0  0  0  0  0  0  0  0  0  0  0  0
   26.9965  -20.7615  -11.7748 C   0  0  0  0  0  0  0  0  0  0  0  0
   27.0872  -21.9609  -11.4016 O   0  0  0  0  0  0  0  0  0  0  0  0
   26.1053  -19.9339  -11.0024 N   0  0  0  0  0  0  0  0  0  0  0  0
   25.1760  -20.4871  -10.0647 C   0  0  1  0  0  0  0  0  0  0  0  0
   25.1512  -19.7975   -8.7177 C   0  0  0  0  0  0  0  0  0  0  0  0
   26.4813  -19.6728   -8.0874 C   0  0  0  0  0  0  0  0  0  0  0  0
   27.5406  -18.8975   -8.5382 C   0  0  0  0  0  0  0  0  0  0  0  0
   28.5538  -19.0349   -7.6744 N   0  0  0  0  0  0  0  0  0  0  0  0
   28.1725  -19.8787   -6.6807 C   0  0  0  0  0  0  0  0  0  0  0  0
   28.8135  -20.3615   -5.5613 C   0  0  0  0  0  0  0  0  0  0  0  0
   28.1957  -21.2368   -4.6880 C   0  0  0  0  0  0  0  0  0  0  0  0
   26.9167  -21.6383   -4.9351 C   0  0  0  0  0  0  0  0  0  0  0  0
   26.2624  -21.1711   -6.0399 C   0  0  0  0  0  0  0  0  0  0  0  0
   26.8806  -20.2864   -6.9244 C   0  0  0  0  0  0  0  0  0  0  0  0
   23.8102  -20.4219  -10.6264 C   0  0  0  0  0  0  0  0  0  0  0  0
   23.4461  -19.4353  -11.3235 O   0  0  0  0  0  0  0  0  0  0  0  0
   22.9157  -21.4754  -10.3757 N   0  0  0  0  0  0  0  0  0  0  0  0
   21.5620  -21.5363  -10.9159 C   0  0  1  0  0  0  0  0  0  0  0  0
   21.3986  -22.7472  -11.8065 C   0  0  0  0  0  0  0  0  0  0  0  0
   20.2087  -22.7451  -12.6483 C   0  0  0  0  0  0  0  0  0  0  0  0
   19.4032  -21.7761  -12.5515 O   0  0  0  0  0  0  0  0  0  0  0  0
   20.5625  -21.4455   -9.8319 C   0  0  0  0  0  0  0  0  0  0  0  0
   19.7542  -20.4776   -9.8453 O   0  0  0  0  0  0  0  0  0  0  0  0
   19.8882  -23.7415  -13.5600 O   0  0  0  0  0  0  0  0  0  0  0  0
   20.4375  -22.3457   -8.7910 O   0  0  0  0  0  0  0  0  0  0  0  0
  2  3  1  0
  2  1  1  0
  3  4  1  6
  5  6  1  1
  5  3  1  0
  7  8  2  0
  7  5  1  0
  9  7  1  0
 10 21  1  0
 10  9  1  0
 10 11  1  1
 12 11  1  0
 13 12  2  0
 14 13  1  0
 15 14  1  0
 15 20  2  0
 16 15  1  0
 17 16  2  0
 17 18  1  0
 18 19  2  0
 19 20  1  0
 20 12  1  0
 21 23  1  0
 22 21  2  0
 23 24  1  0
 24 28  1  0
 25 26  1  0
 24 25  1  1
 26 30  1  0
 27 26  2  0
 28 29  2  0
 28 31  1  0
M  END
$$$$
