IWD.pdb
     RDKit          3D

 31 32  0  0  1  0  0  0  0  0999 V2000
   29.4329  -19.5467  -17.8237 C   0  0  0  0  0  0  0  0  0  0  0  0
   28.6497  -18.8739  -16.7162 C   0  0  0  0  0  0  0  0  0  0  0  0
   27.9217  -19.8463  -15.8297 C   0  0  2  0  0  0  0  0  0  0  0  0
   27.0193  -20.7705  -16.6213 C   0  0  0  0  0  0  0  0  0  0  0  0
   27.0930  -19.1674  -14.7744 C   0  0  2  0  0  0  0  0  0  0  0  0
   27.8889  -18.2372  -13.9733 N   0  0  0  0  0  0  0  0  0  0  0  0
   26.4030  -20.1102  -13.8807 C   0  0  0  0  0  0  0  0  0  0  0  0
   25.8868  -21.1622  -14.3420 O   0  0  0  0  0  0  0  0  0  0  0  0
   26.2636  -19.9186  -12.4595 N   0  0  0  0  0  0  0  0  0  0  0  0
   25.3545  -20.6963  -11.6736 C   0  0  1  0  0  0  0  0  0  0  0  0
   25.5594  -20.5876  -10.1780 C   0  0  0  0  0  0  0  0  0  0  0  0
   26.9424  -20.8717   -9.7437 C   0  0  0  0  0  0  0  0  0  0  0  0
   27.9158  -21.5432  -10.4703 C   0  0  0  0  0  0  0  0  0  0  0  0
   29.0378  -21.5660   -9.7407 N   0  0  0  0  0  0  0  0  0  0  0  0
   28.8098  -20.9267   -8.5642 C   0  0  0  0  0  0  0  0  0  0  0  0
   29.6011  -20.6696   -7.4666 C   0  0  0  0  0  0  0  0  0  0  0  0
   29.1195  -19.9892   -6.3640 C   0  0  0  0  0  0  0  0  0  0  0  0
   27.8265  -19.5579   -6.3551 C   0  0  0  0  0  0  0  0  0  0  0  0
   27.0244  -19.8023   -7.4340 C   0  0  0  0  0  0  0  0  0  0  0  0
   27.5053  -20.4877   -8.5504 C   0  0  0  0  0  0  0  0  0  0  0  0
   23.9670  -20.2792  -11.9670 C   0  0  0  0  0  0  0  0  0  0  0  0
   23.5923  -19.0929  -11.7573 O   0  0  0  0  0  0  0  0  0  0  0  0
   23.0638  -21.2219  -12.4853 N   0  0  0  0  0  0  0  0  0  0  0  0
   21.6899  -20.9075  -12.8614 C   0  0  1  0  0  0  0  0  0  0  0  0
   21.5592  -20.8090  -14.3646 C   0  0  0  0  0  0  0  0  0  0  0  0
   21.9463  -22.0046  -15.1030 C   0  0  0  0  0  0  0  0  0  0  0  0
   23.1527  -22.3781  -15.0560 O   0  0  0  0  0  0  0  0  0  0  0  0
   20.7467  -21.8562  -12.2348 C   0  0  0  0  0  0  0  0  0  0  0  0
   19.5108  -21.6565  -12.3865 O   0  0  0  0  0  0  0  0  0  0  0  0
   21.0783  -22.7739  -15.8655 O   0  0  0  0  0  0  0  0  0  0  0  0
   21.1111  -22.9596  -11.4871 O   0  0  0  0  0  0  0  0  0  0  0  0
  2  3  1  0
  2  1  1  0
  3  4  1  6
  5  6  1  1
  5  3  1  0
  7  8  2  0
  7  5  1  0
  9  7  1  0
 10 21  1  0
 10  9  1  0
 10 11  1  1
 12 11  1  0
 13 12  2  0
 14 13  1  0
 15 14  1  0
 15 20  2  0
 16 15  1  0
 17 16  2  0
 17 18  1  0
 18 19  2  0
 19 20  1  0
 20 12  1  0
 21 23  1  0
 22 21  2  0
 23 24  1  0
 24 28  1  0
 25 26  1  0
 24 25  1  6
 26 30  1  0
 27 26  2  0
 28 29  2  0
 28 31  1  0
M  END
$$$$
