IWD.pdb
     RDKit          3D

 31 32  0  0  1  0  0  0  0  0999 V2000
   15.0473  -22.6383    3.4081 C   0  0  0  0  0  0  0  0  0  0  0  0
   15.1267  -21.1564    3.1076 C   0  0  0  0  0  0  0  0  0  0  0  0
   16.0898  -20.4216    3.9985 C   0  0  2  0  0  0  0  0  0  0  0  0
   15.6851  -20.4967    5.4565 C   0  0  0  0  0  0  0  0  0  0  0  0
   16.2422  -18.9730    3.6251 C   0  0  2  0  0  0  0  0  0  0  0  0
   16.5535  -18.8075    2.2051 N   0  0  0  0  0  0  0  0  0  0  0  0
   17.2526  -18.2682    4.4288 C   0  0  0  0  0  0  0  0  0  0  0  0
   18.4795  -18.4589    4.2181 O   0  0  0  0  0  0  0  0  0  0  0  0
   16.9385  -17.3378    5.4832 N   0  0  0  0  0  0  0  0  0  0  0  0
   17.9504  -16.7667    6.3191 C   0  0  1  0  0  0  0  0  0  0  0  0
   17.5947  -15.4205    6.9122 C   0  0  0  0  0  0  0  0  0  0  0  0
   18.0334  -14.2731    6.0918 C   0  0  0  0  0  0  0  0  0  0  0  0
   17.3527  -13.7159    5.0183 C   0  0  0  0  0  0  0  0  0  0  0  0
   18.0673  -12.6784    4.5658 N   0  0  0  0  0  0  0  0  0  0  0  0
   19.1894  -12.5553    5.3211 C   0  0  0  0  0  0  0  0  0  0  0  0
   20.2517  -11.6792    5.2885 C   0  0  0  0  0  0  0  0  0  0  0  0
   21.3001  -11.7709    6.1847 C   0  0  0  0  0  0  0  0  0  0  0  0
   21.2896  -12.7532    7.1296 C   0  0  0  0  0  0  0  0  0  0  0  0
   20.2451  -13.6327    7.1797 C   0  0  0  0  0  0  0  0  0  0  0  0
   19.1834  -13.5444    6.2783 C   0  0  0  0  0  0  0  0  0  0  0  0
   18.2426  -17.6864    7.4389 C   0  0  0  0  0  0  0  0  0  0  0  0
   17.4098  -18.5701    7.7816 O   0  0  0  0  0  0  0  0  0  0  0  0
   19.4640  -17.5670    8.1221 N   0  0  0  0  0  0  0  0  0  0  0  0
   19.9152  -18.5021    9.1468 C   0  0  1  0  0  0  0  0  0  0  0  0
   19.9118  -19.9172    8.6141 C   0  0  0  0  0  0  0  0  0  0  0  0
   19.6337  -20.9534    9.6007 C   0  0  0  0  0  0  0  0  0  0  0  0
   19.0925  -20.6172   10.6921 O   0  0  0  0  0  0  0  0  0  0  0  0
   21.2113  -18.0732    9.7111 C   0  0  0  0  0  0  0  0  0  0  0  0
   21.6733  -18.7108   10.6962 O   0  0  0  0  0  0  0  0  0  0  0  0
   19.9235  -22.3001    9.4304 O   0  0  0  0  0  0  0  0  0  0  0  0
   21.9701  -17.0177    9.2423 O   0  0  0  0  0  0  0  0  0  0  0  0
  2  3  1  0
  2  1  1  0
  3  4  1  1
  5  6  1  6
  5  3  1  0
  7  8  2  0
  7  5  1  0
  9  7  1  0
 10 21  1  0
 10  9  1  0
 10 11  1  1
 12 11  1  0
 13 12  2  0
 14 13  1  0
 15 14  1  0
 15 20  2  0
 16 15  1  0
 17 16  2  0
 17 18  1  0
 18 19  2  0
 19 20  1  0
 20 12  1  0
 21 23  1  0
 22 21  2  0
 23 24  1  0
 24 28  1  0
 25 26  1  0
 24 25  1  6
 26 30  1  0
 27 26  2  0
 28 29  2  0
 28 31  1  0
M  END
$$$$
