IWD.pdb
     RDKit          3D

 31 32  0  0  1  0  0  0  0  0999 V2000
   27.9860  -24.3922  -20.3662 C   0  0  0  0  0  0  0  0  0  0  0  0
   28.6728  -23.8992  -19.1101 C   0  0  0  0  0  0  0  0  0  0  0  0
   27.7210  -23.6498  -17.9729 C   0  0  2  0  0  0  0  0  0  0  0  0
   26.6164  -22.6871  -18.3576 C   0  0  0  0  0  0  0  0  0  0  0  0
   28.4052  -23.1166  -16.7446 C   0  0  2  0  0  0  0  0  0  0  0  0
   29.4059  -24.0520  -16.2305 N   0  0  0  0  0  0  0  0  0  0  0  0
   27.4706  -22.7639  -15.6649 C   0  0  0  0  0  0  0  0  0  0  0  0
   26.7128  -23.6387  -15.1683 O   0  0  0  0  0  0  0  0  0  0  0  0
   27.3465  -21.4417  -15.1060 N   0  0  0  0  0  0  0  0  0  0  0  0
   26.5303  -21.1743  -13.9610 C   0  0  1  0  0  0  0  0  0  0  0  0
   27.0061  -20.0238  -13.1004 C   0  0  0  0  0  0  0  0  0  0  0  0
   27.9479  -20.4256  -12.0358 C   0  0  0  0  0  0  0  0  0  0  0  0
   29.3075  -20.6635  -12.1810 C   0  0  0  0  0  0  0  0  0  0  0  0
   29.8063  -20.9743  -10.9784 N   0  0  0  0  0  0  0  0  0  0  0  0
   28.8018  -20.9425  -10.0647 C   0  0  0  0  0  0  0  0  0  0  0  0
   28.7580  -21.1809   -8.7089 C   0  0  0  0  0  0  0  0  0  0  0  0
   27.5810  -21.0878   -7.9900 C   0  0  0  0  0  0  0  0  0  0  0  0
   26.4277  -20.7515   -8.6339 C   0  0  0  0  0  0  0  0  0  0  0  0
   26.4491  -20.5104   -9.9786 C   0  0  0  0  0  0  0  0  0  0  0  0
   27.6344  -20.6018  -10.7094 C   0  0  0  0  0  0  0  0  0  0  0  0
   25.1522  -20.8665  -14.3983 C   0  0  0  0  0  0  0  0  0  0  0  0
   24.9426  -20.2079  -15.4538 O   0  0  0  0  0  0  0  0  0  0  0  0
   24.0711  -21.3171  -13.6230 N   0  0  0  0  0  0  0  0  0  0  0  0
   22.6753  -21.0230  -13.9286 C   0  0  1  0  0  0  0  0  0  0  0  0
   21.8579  -22.2947  -13.9585 C   0  0  0  0  0  0  0  0  0  0  0  0
   20.7613  -22.3077  -14.9186 C   0  0  0  0  0  0  0  0  0  0  0  0
   20.5226  -21.2550  -15.5757 O   0  0  0  0  0  0  0  0  0  0  0  0
   22.1476  -19.9882  -13.0158 C   0  0  0  0  0  0  0  0  0  0  0  0
   22.5111  -20.0161  -11.8085 O   0  0  0  0  0  0  0  0  0  0  0  0
   19.9471  -23.4039  -15.1682 O   0  0  0  0  0  0  0  0  0  0  0  0
   21.2779  -18.9781  -13.3801 O   0  0  0  0  0  0  0  0  0  0  0  0
  2  3  1  0
  2  1  1  0
  3  4  1  6
  5  6  1  1
  5  3  1  0
  7  8  2  0
  7  5  1  0
  9  7  1  0
 10 21  1  0
 10  9  1  0
 10 11  1  6
 12 11  1  0
 13 12  2  0
 14 13  1  0
 15 14  1  0
 15 20  2  0
 16 15  1  0
 17 16  2  0
 17 18  1  0
 18 19  2  0
 19 20  1  0
 20 12  1  0
 21 23  1  0
 22 21  2  0
 23 24  1  0
 24 28  1  0
 25 26  1  0
 24 25  1  1
 26 30  1  0
 27 26  2  0
 28 29  2  0
 28 31  1  0
M  END
$$$$
