IWD.pdb
     RDKit          3D

 31 32  0  0  1  0  0  0  0  0999 V2000
   26.3703  -18.6019  -19.8283 C   0  0  0  0  0  0  0  0  0  0  0  0
   27.2804  -18.8869  -18.6523 C   0  0  0  0  0  0  0  0  0  0  0  0
   26.6261  -19.7191  -17.5843 C   0  0  2  0  0  0  0  0  0  0  0  0
   25.3021  -19.1328  -17.1389 C   0  0  0  0  0  0  0  0  0  0  0  0
   27.4948  -19.8994  -16.3701 C   0  0  2  0  0  0  0  0  0  0  0  0
   28.7413  -20.5944  -16.6919 N   0  0  0  0  0  0  0  0  0  0  0  0
   26.8175  -20.6020  -15.2694 C   0  0  0  0  0  0  0  0  0  0  0  0
   26.7054  -21.8562  -15.2888 O   0  0  0  0  0  0  0  0  0  0  0  0
   26.2472  -19.9428  -14.1222 N   0  0  0  0  0  0  0  0  0  0  0  0
   25.6357  -20.6719  -13.0530 C   0  0  1  0  0  0  0  0  0  0  0  0
   26.2415  -20.4204  -11.6890 C   0  0  0  0  0  0  0  0  0  0  0  0
   27.7034  -20.2104  -11.7157 C   0  0  0  0  0  0  0  0  0  0  0  0
   28.3719  -19.1149  -12.2442 C   0  0  0  0  0  0  0  0  0  0  0  0
   29.6836  -19.2920  -12.0447 N   0  0  0  0  0  0  0  0  0  0  0  0
   29.8745  -20.4732  -11.4020 C   0  0  0  0  0  0  0  0  0  0  0  0
   31.0021  -21.1337  -10.9666 C   0  0  0  0  0  0  0  0  0  0  0  0
   30.9293  -22.3582  -10.3295 C   0  0  0  0  0  0  0  0  0  0  0  0
   29.7115  -22.9347  -10.1233 C   0  0  0  0  0  0  0  0  0  0  0  0
   28.5803  -22.2962  -10.5471 C   0  0  0  0  0  0  0  0  0  0  0  0
   28.6474  -21.0594  -11.1897 C   0  0  0  0  0  0  0  0  0  0  0  0
   24.2007  -20.3252  -12.9765 C   0  0  0  0  0  0  0  0  0  0  0  0
   23.8255  -19.1211  -13.0120 O   0  0  0  0  0  0  0  0  0  0  0  0
   23.2525  -21.3553  -12.8638 N   0  0  0  0  0  0  0  0  0  0  0  0
   21.8153  -21.1549  -13.0127 C   0  0  1  0  0  0  0  0  0  0  0  0
   21.5187  -20.3203  -14.2382 C   0  0  0  0  0  0  0  0  0  0  0  0
   21.1740  -21.0747  -15.4368 C   0  0  0  0  0  0  0  0  0  0  0  0
   19.9614  -21.3695  -15.6359 O   0  0  0  0  0  0  0  0  0  0  0  0
   21.1011  -22.4475  -12.9759 C   0  0  0  0  0  0  0  0  0  0  0  0
   19.8462  -22.4323  -12.8512 O   0  0  0  0  0  0  0  0  0  0  0  0
   22.0900  -21.5009  -16.3887 O   0  0  0  0  0  0  0  0  0  0  0  0
   21.7017  -23.6884  -13.0689 O   0  0  0  0  0  0  0  0  0  0  0  0
  2  3  1  0
  2  1  1  0
  3  4  1  1
  5  6  1  6
  5  3  1  0
  7  8  2  0
  7  5  1  0
  9  7  1  0
 10 21  1  0
 10  9  1  0
 10 11  1  1
 12 11  1  0
 13 12  2  0
 14 13  1  0
 15 14  1  0
 15 20  2  0
 16 15  1  0
 17 16  2  0
 17 18  1  0
 18 19  2  0
 19 20  1  0
 20 12  1  0
 21 23  1  0
 22 21  2  0
 23 24  1  0
 24 28  1  0
 25 26  1  0
 24 25  1  6
 26 30  1  0
 27 26  2  0
 28 29  2  0
 28 31  1  0
M  END
$$$$
