IWD.pdb
     RDKit          3D

 31 32  0  0  1  0  0  0  0  0999 V2000
   27.6158  -16.0006  -16.6165 C   0  0  0  0  0  0  0  0  0  0  0  0
   28.1253  -16.7761  -15.4200 C   0  0  0  0  0  0  0  0  0  0  0  0
   27.3035  -17.9971  -15.1112 C   0  0  2  0  0  0  0  0  0  0  0  0
   25.8407  -17.6604  -14.9071 C   0  0  0  0  0  0  0  0  0  0  0  0
   27.7913  -18.7378  -13.8969 C   0  0  2  0  0  0  0  0  0  0  0  0
   29.1678  -19.2054  -14.0618 N   0  0  0  0  0  0  0  0  0  0  0  0
   26.9340  -19.8737  -13.5250 C   0  0  0  0  0  0  0  0  0  0  0  0
   27.0711  -20.9878  -14.0961 O   0  0  0  0  0  0  0  0  0  0  0  0
   25.9058  -19.8119  -12.5176 N   0  0  0  0  0  0  0  0  0  0  0  0
   25.1291  -20.9577  -12.1533 C   0  0  1  0  0  0  0  0  0  0  0  0
   24.9759  -21.1694  -10.6626 C   0  0  0  0  0  0  0  0  0  0  0  0
   26.1641  -20.7738   -9.8792 C   0  0  0  0  0  0  0  0  0  0  0  0
   26.1998  -19.8598   -8.8354 C   0  0  0  0  0  0  0  0  0  0  0  0
   27.4545  -19.8058   -8.3723 N   0  0  0  0  0  0  0  0  0  0  0  0
   28.2255  -20.6614   -9.0922 C   0  0  0  0  0  0  0  0  0  0  0  0
   29.5624  -20.9891   -9.0423 C   0  0  0  0  0  0  0  0  0  0  0  0
   30.1208  -21.9075   -9.9114 C   0  0  0  0  0  0  0  0  0  0  0  0
   29.3330  -22.5094  -10.8468 C   0  0  0  0  0  0  0  0  0  0  0  0
   28.0041  -22.1989  -10.9133 C   0  0  0  0  0  0  0  0  0  0  0  0
   27.4345  -21.2734  -10.0378 C   0  0  0  0  0  0  0  0  0  0  0  0
   23.7734  -20.8388  -12.7305 C   0  0  0  0  0  0  0  0  0  0  0  0
   23.2236  -19.7104  -12.8580 O   0  0  0  0  0  0  0  0  0  0  0  0
   23.0987  -22.0011  -13.1387 N   0  0  0  0  0  0  0  0  0  0  0  0
   21.7720  -21.9983  -13.7453 C   0  0  1  0  0  0  0  0  0  0  0  0
   21.5236  -23.2923  -14.4871 C   0  0  0  0  0  0  0  0  0  0  0  0
   21.9099  -23.2884  -15.8925 C   0  0  0  0  0  0  0  0  0  0  0  0
   22.2890  -22.1999  -16.4108 O   0  0  0  0  0  0  0  0  0  0  0  0
   20.7392  -21.6709  -12.7410 C   0  0  0  0  0  0  0  0  0  0  0  0
   21.0201  -21.8320  -11.5222 O   0  0  0  0  0  0  0  0  0  0  0  0
   21.8914  -24.4052  -16.7166 O   0  0  0  0  0  0  0  0  0  0  0  0
   19.4744  -21.1955  -13.0301 O   0  0  0  0  0  0  0  0  0  0  0  0
  2  3  1  0
  2  1  1  0
  3  4  1  1
  5  6  1  6
  5  3  1  0
  7  8  2  0
  7  5  1  0
  9  7  1  0
 10 21  1  0
 10  9  1  0
 10 11  1  1
 12 11  1  0
 13 12  2  0
 14 13  1  0
 15 14  1  0
 15 20  2  0
 16 15  1  0
 17 16  2  0
 17 18  1  0
 18 19  2  0
 19 20  1  0
 20 12  1  0
 21 23  1  0
 22 21  2  0
 23 24  1  0
 24 28  1  0
 25 26  1  0
 24 25  1  1
 26 30  1  0
 27 26  2  0
 28 29  2  0
 28 31  1  0
M  END
$$$$
