IWD.pdb
     RDKit          3D

 31 32  0  0  1  0  0  0  0  0999 V2000
   28.2139  -17.7550  -17.3789 C   0  0  0  0  0  0  0  0  0  0  0  0
   28.6556  -18.7265  -16.3048 C   0  0  0  0  0  0  0  0  0  0  0  0
   27.5162  -19.2526  -15.4763 C   0  0  2  0  0  0  0  0  0  0  0  0
   26.7480  -18.1388  -14.7948 C   0  0  0  0  0  0  0  0  0  0  0  0
   27.9615  -20.2308  -14.4246 C   0  0  2  0  0  0  0  0  0  0  0  0
   28.7087  -21.3479  -15.0029 N   0  0  0  0  0  0  0  0  0  0  0  0
   26.8535  -20.7566  -13.6126 C   0  0  0  0  0  0  0  0  0  0  0  0
   26.0776  -21.6294  -14.0841 O   0  0  0  0  0  0  0  0  0  0  0  0
   26.5717  -20.3352  -12.2640 N   0  0  0  0  0  0  0  0  0  0  0  0
   25.4823  -20.8776  -11.5104 C   0  0  1  0  0  0  0  0  0  0  0  0
   25.5949  -20.6908  -10.0127 C   0  0  0  0  0  0  0  0  0  0  0  0
   26.9388  -20.9850   -9.4748 C   0  0  0  0  0  0  0  0  0  0  0  0
   27.9229  -21.7524  -10.0822 C   0  0  0  0  0  0  0  0  0  0  0  0
   29.0007  -21.7512   -9.2885 N   0  0  0  0  0  0  0  0  0  0  0  0
   28.7339  -21.0028   -8.1869 C   0  0  0  0  0  0  0  0  0  0  0  0
   29.4728  -20.6785   -7.0707 C   0  0  0  0  0  0  0  0  0  0  0  0
   28.9589  -19.8867   -6.0609 C   0  0  0  0  0  0  0  0  0  0  0  0
   27.6861  -19.4102   -6.1655 C   0  0  0  0  0  0  0  0  0  0  0  0
   26.9360  -19.7197   -7.2647 C   0  0  0  0  0  0  0  0  0  0  0  0
   27.4498  -20.5177   -8.2878 C   0  0  0  0  0  0  0  0  0  0  0  0
   24.2183  -20.2473  -11.9465 C   0  0  0  0  0  0  0  0  0  0  0  0
   24.2052  -19.0640  -12.3841 O   0  0  0  0  0  0  0  0  0  0  0  0
   23.0242  -20.9828  -11.8693 N   0  0  0  0  0  0  0  0  0  0  0  0
   21.7512  -20.5227  -12.4133 C   0  0  1  0  0  0  0  0  0  0  0  0
   21.8805  -20.2248  -13.8901 C   0  0  0  0  0  0  0  0  0  0  0  0
   22.1075  -21.3856  -14.7419 C   0  0  0  0  0  0  0  0  0  0  0  0
   22.2330  -22.5187  -14.1964 O   0  0  0  0  0  0  0  0  0  0  0  0
   20.6681  -21.4710  -12.0818 C   0  0  0  0  0  0  0  0  0  0  0  0
   19.4966  -21.1932  -12.4567 O   0  0  0  0  0  0  0  0  0  0  0  0
   22.1988  -21.3398  -16.1262 O   0  0  0  0  0  0  0  0  0  0  0  0
   20.8345  -22.6534  -11.3863 O   0  0  0  0  0  0  0  0  0  0  0  0
  2  3  1  0
  2  1  1  0
  3  4  1  1
  5  6  1  6
  5  3  1  0
  7  8  2  0
  7  5  1  0
  9  7  1  0
 10 21  1  0
 10  9  1  0
 10 11  1  1
 12 11  1  0
 13 12  2  0
 14 13  1  0
 15 14  1  0
 15 20  2  0
 16 15  1  0
 17 16  2  0
 17 18  1  0
 18 19  2  0
 19 20  1  0
 20 12  1  0
 21 23  1  0
 22 21  2  0
 23 24  1  0
 24 28  1  0
 25 26  1  0
 24 25  1  6
 26 30  1  0
 27 26  2  0
 28 29  2  0
 28 31  1  0
M  END
$$$$
