IWD.pdb
     RDKit          3D

 31 32  0  0  1  0  0  0  0  0999 V2000
   27.8601  -19.9132   -6.6977 C   0  0  0  0  0  0  0  0  0  0  0  0
   27.8916  -20.7315   -7.9713 C   0  0  0  0  0  0  0  0  0  0  0  0
   26.8629  -20.2992   -8.9793 C   0  0  2  0  0  0  0  0  0  0  0  0
   25.4559  -20.3741   -8.4228 C   0  0  0  0  0  0  0  0  0  0  0  0
   26.9124  -21.1060  -10.2474 C   0  0  2  0  0  0  0  0  0  0  0  0
   28.2869  -21.4190  -10.6391 N   0  0  0  0  0  0  0  0  0  0  0  0
   26.2214  -20.4612  -11.3745 C   0  0  0  0  0  0  0  0  0  0  0  0
   26.4629  -19.2599  -11.6656 O   0  0  0  0  0  0  0  0  0  0  0  0
   25.2485  -21.1210  -12.2075 N   0  0  0  0  0  0  0  0  0  0  0  0
   24.5995  -20.4519  -13.2938 C   0  0  1  0  0  0  0  0  0  0  0  0
   25.1319  -20.8093  -14.6647 C   0  0  0  0  0  0  0  0  0  0  0  0
   26.4633  -20.2389  -14.9543 C   0  0  0  0  0  0  0  0  0  0  0  0
   27.6777  -20.9094  -14.9095 C   0  0  0  0  0  0  0  0  0  0  0  0
   28.6405  -20.0508  -15.2666 N   0  0  0  0  0  0  0  0  0  0  0  0
   28.0756  -18.8461  -15.5392 C   0  0  0  0  0  0  0  0  0  0  0  0
   28.5949  -17.6342  -15.9376 C   0  0  0  0  0  0  0  0  0  0  0  0
   27.7905  -16.5296  -16.1465 C   0  0  0  0  0  0  0  0  0  0  0  0
   26.4451  -16.6349  -15.9546 C   0  0  0  0  0  0  0  0  0  0  0  0
   25.9093  -17.8281  -15.5597 C   0  0  0  0  0  0  0  0  0  0  0  0
   26.7162  -18.9469  -15.3483 C   0  0  0  0  0  0  0  0  0  0  0  0
   23.1559  -20.7694  -13.2772 C   0  0  0  0  0  0  0  0  0  0  0  0
   22.6488  -21.4161  -12.3198 O   0  0  0  0  0  0  0  0  0  0  0  0
   22.3484  -20.3413  -14.3438 N   0  0  0  0  0  0  0  0  0  0  0  0
   20.8973  -20.2152  -14.2630 C   0  0  1  0  0  0  0  0  0  0  0  0
   20.4995  -19.4252  -13.0366 C   0  0  0  0  0  0  0  0  0  0  0  0
   19.6075  -20.1157  -12.1135 C   0  0  0  0  0  0  0  0  0  0  0  0
   19.1489  -21.2446  -12.4487 O   0  0  0  0  0  0  0  0  0  0  0  0
   20.3480  -19.6838  -15.5272 C   0  0  0  0  0  0  0  0  0  0  0  0
   21.0393  -18.8512  -16.1746 O   0  0  0  0  0  0  0  0  0  0  0  0
   19.2174  -19.6196  -10.8772 O   0  0  0  0  0  0  0  0  0  0  0  0
   19.1236  -20.0286  -16.0669 O   0  0  0  0  0  0  0  0  0  0  0  0
  2  3  1  0
  2  1  1  0
  3  4  1  1
  5  6  1  6
  5  3  1  0
  7  8  2  0
  7  5  1  0
  9  7  1  0
 10 21  1  0
 10  9  1  0
 10 11  1  6
 12 11  1  0
 13 12  2  0
 14 13  1  0
 15 14  1  0
 15 20  2  0
 16 15  1  0
 17 16  2  0
 17 18  1  0
 18 19  2  0
 19 20  1  0
 20 12  1  0
 21 23  1  0
 22 21  2  0
 23 24  1  0
 24 28  1  0
 25 26  1  0
 24 25  1  1
 26 30  1  0
 27 26  2  0
 28 29  2  0
 28 31  1  0
M  END
$$$$
