IWD.pdb
     RDKit          3D

 31 32  0  0  1  0  0  0  0  0999 V2000
   26.2655  -36.5494   -4.7468 C   0  0  0  0  0  0  0  0  0  0  0  0
   25.3856  -35.3378   -4.5221 C   0  0  0  0  0  0  0  0  0  0  0  0
   25.5947  -34.6941   -3.1793 C   0  0  2  0  0  0  0  0  0  0  0  0
   25.2672  -35.6375   -2.0401 C   0  0  0  0  0  0  0  0  0  0  0  0
   24.7854  -33.4394   -3.0006 C   0  0  2  0  0  0  0  0  0  0  0  0
   25.0268  -32.4788   -4.0774 N   0  0  0  0  0  0  0  0  0  0  0  0
   25.0102  -32.7818   -1.7041 C   0  0  0  0  0  0  0  0  0  0  0  0
   26.1783  -32.4976   -1.3290 O   0  0  0  0  0  0  0  0  0  0  0  0
   23.9568  -32.4218   -0.7894 N   0  0  0  0  0  0  0  0  0  0  0  0
   24.2286  -31.8729    0.5043 C   0  0  1  0  0  0  0  0  0  0  0  0
   23.0041  -31.4124    1.2653 C   0  0  0  0  0  0  0  0  0  0  0  0
   23.3123  -30.7837    2.5660 C   0  0  0  0  0  0  0  0  0  0  0  0
   24.2455  -29.7835    2.8006 C   0  0  0  0  0  0  0  0  0  0  0  0
   24.1998  -29.4683    4.1006 N   0  0  0  0  0  0  0  0  0  0  0  0
   23.2614  -30.2406    4.7070 C   0  0  0  0  0  0  0  0  0  0  0  0
   22.8178  -30.3316    6.0078 C   0  0  0  0  0  0  0  0  0  0  0  0
   21.8320  -31.2257    6.3811 C   0  0  0  0  0  0  0  0  0  0  0  0
   21.2789  -32.0437    5.4414 C   0  0  0  0  0  0  0  0  0  0  0  0
   21.7042  -31.9694    4.1450 C   0  0  0  0  0  0  0  0  0  0  0  0
   22.6983  -31.0680    3.7621 C   0  0  0  0  0  0  0  0  0  0  0  0
   24.9179  -32.8834    1.3343 C   0  0  0  0  0  0  0  0  0  0  0  0
   24.6204  -34.1059    1.2414 O   0  0  0  0  0  0  0  0  0  0  0  0
   25.9141  -32.4673    2.2329 N   0  0  0  0  0  0  0  0  0  0  0  0
   26.7097  -33.3831    3.0431 C   0  0  1  0  0  0  0  0  0  0  0  0
   27.3613  -34.4341    2.1730 C   0  0  0  0  0  0  0  0  0  0  0  0
   28.1606  -35.4236    2.8847 C   0  0  0  0  0  0  0  0  0  0  0  0
   28.1954  -35.3759    4.1471 O   0  0  0  0  0  0  0  0  0  0  0  0
   27.6554  -32.6370    3.8982 C   0  0  0  0  0  0  0  0  0  0  0  0
   28.2026  -31.6050    3.4231 O   0  0  0  0  0  0  0  0  0  0  0  0
   28.8978  -36.4276    2.2721 O   0  0  0  0  0  0  0  0  0  0  0  0
   27.9939  -32.9801    5.1932 O   0  0  0  0  0  0  0  0  0  0  0  0
  2  3  1  0
  2  1  1  0
  3  4  1  1
  5  6  1  6
  5  3  1  0
  7  8  2  0
  7  5  1  0
  9  7  1  0
 10 21  1  0
 10  9  1  0
 10 11  1  1
 12 11  1  0
 13 12  2  0
 14 13  1  0
 15 14  1  0
 15 20  2  0
 16 15  1  0
 17 16  2  0
 17 18  1  0
 18 19  2  0
 19 20  1  0
 20 12  1  0
 21 23  1  0
 22 21  2  0
 23 24  1  0
 24 28  1  0
 25 26  1  0
 24 25  1  6
 26 30  1  0
 27 26  2  0
 28 29  2  0
 28 31  1  0
M  END
$$$$
