IWD.pdb
     RDKit          3D

 31 32  0  0  1  0  0  0  0  0999 V2000
   25.3570  -18.7544  -16.3984 C   0  0  0  0  0  0  0  0  0  0  0  0
   25.0550  -20.2372  -16.3461 C   0  0  0  0  0  0  0  0  0  0  0  0
   24.5744  -20.6971  -14.9974 C   0  0  2  0  0  0  0  0  0  0  0  0
   23.3875  -19.8904  -14.5120 C   0  0  0  0  0  0  0  0  0  0  0  0
   25.6465  -20.6396  -13.9444 C   0  0  2  0  0  0  0  0  0  0  0  0
   26.8549  -21.3522  -14.3596 N   0  0  0  0  0  0  0  0  0  0  0  0
   25.2062  -21.1511  -12.6375 C   0  0  0  0  0  0  0  0  0  0  0  0
   24.7682  -22.3269  -12.5292 O   0  0  0  0  0  0  0  0  0  0  0  0
   25.2364  -20.3825  -11.4192 N   0  0  0  0  0  0  0  0  0  0  0  0
   24.7451  -20.9033  -10.1798 C   0  0  1  0  0  0  0  0  0  0  0  0
   25.3579  -20.2792   -8.9447 C   0  0  0  0  0  0  0  0  0  0  0  0
   26.7796  -20.6264   -8.7443 C   0  0  0  0  0  0  0  0  0  0  0  0
   27.5500  -21.4543   -9.5488 C   0  0  0  0  0  0  0  0  0  0  0  0
   28.7897  -21.4877   -9.0452 N   0  0  0  0  0  0  0  0  0  0  0  0
   28.8351  -20.7026   -7.9378 C   0  0  0  0  0  0  0  0  0  0  0  0
   29.8400  -20.3896   -7.0494 C   0  0  0  0  0  0  0  0  0  0  0  0
   29.6252  -19.5511   -5.9717 C   0  0  0  0  0  0  0  0  0  0  0  0
   28.3871  -19.0156   -5.7759 C   0  0  0  0  0  0  0  0  0  0  0  0
   27.3762  -19.3129   -6.6457 C   0  0  0  0  0  0  0  0  0  0  0  0
   27.5873  -20.1579   -7.7360 C   0  0  0  0  0  0  0  0  0  0  0  0
   23.2826  -20.7016  -10.1049 C   0  0  0  0  0  0  0  0  0  0  0  0
   22.7554  -19.6388  -10.5342 O   0  0  0  0  0  0  0  0  0  0  0  0
   22.4798  -21.7109   -9.5482 N   0  0  0  0  0  0  0  0  0  0  0  0
   21.0269  -21.7524   -9.6715 C   0  0  1  0  0  0  0  0  0  0  0  0
   20.6231  -22.1364  -11.0771 C   0  0  0  0  0  0  0  0  0  0  0  0
   19.1928  -22.3255  -11.2845 C   0  0  0  0  0  0  0  0  0  0  0  0
   18.3872  -21.6542  -10.5792 O   0  0  0  0  0  0  0  0  0  0  0  0
   20.4376  -22.6066   -8.6201 C   0  0  0  0  0  0  0  0  0  0  0  0
   21.2168  -23.2812   -7.8934 O   0  0  0  0  0  0  0  0  0  0  0  0
   18.6409  -23.2003  -12.2102 O   0  0  0  0  0  0  0  0  0  0  0  0
   19.0855  -22.7287   -8.3627 O   0  0  0  0  0  0  0  0  0  0  0  0
  2  3  1  0
  2  1  1  0
  3  4  1  1
  5  6  1  6
  5  3  1  0
  7  8  2  0
  7  5  1  0
  9  7  1  0
 10 21  1  0
 10  9  1  0
 10 11  1  1
 12 11  1  0
 13 12  2  0
 14 13  1  0
 15 14  1  0
 15 20  2  0
 16 15  1  0
 17 16  2  0
 17 18  1  0
 18 19  2  0
 19 20  1  0
 20 12  1  0
 21 23  1  0
 22 21  2  0
 23 24  1  0
 24 28  1  0
 25 26  1  0
 24 25  1  6
 26 30  1  0
 27 26  2  0
 28 29  2  0
 28 31  1  0
M  END
$$$$
