FEG.pdb
     RDKit          3D

 25 25  0  0  1  0  0  0  0  0999 V2000
    6.1349  -17.2035   22.5632 N   0  0  0  0  0  0  0  0  0  0  0  0
    7.4649  -17.3691   22.1066 C   0  0  1  0  0  0  0  0  0  0  0  0
    7.7336  -16.5855   20.8174 C   0  0  0  0  0  0  0  0  0  0  0  0
    7.7150  -15.1306   21.1107 C   0  0  0  0  0  0  0  0  0  0  0  0
    7.9486  -14.2658   20.0738 C   0  0  0  0  0  0  0  0  0  0  0  0
    7.9392  -12.9045   20.3085 C   0  0  0  0  0  0  0  0  0  0  0  0
    7.6968  -12.4489   21.5720 C   0  0  0  0  0  0  0  0  0  0  0  0
    7.4609  -13.3260   22.6184 C   0  0  0  0  0  0  0  0  0  0  0  0
    7.4698  -14.6918   22.3853 C   0  0  0  0  0  0  0  0  0  0  0  0
    8.5156  -17.0211   23.0570 C   0  0  0  0  0  0  0  0  0  0  0  0
    8.1745  -16.6502   24.2104 O   0  0  0  0  0  0  0  0  0  0  0  0
    9.9145  -17.0663   22.7858 N   0  0  0  0  0  0  0  0  0  0  0  0
   10.9158  -17.1355   23.8074 C   0  0  1  0  0  0  0  0  0  0  0  0
   10.6667  -18.3672   24.6411 C   0  0  0  0  0  0  0  0  0  0  0  0
   11.6791  -18.4439   25.7619 C   0  0  0  0  0  0  0  0  0  0  0  0
   11.4933  -19.6774   26.5764 C   0  0  0  0  0  0  0  0  0  0  0  0
   10.4643  -19.8466   27.2748 O   0  0  0  0  0  0  0  0  0  0  0  0
   12.2949  -17.0958   23.2660 C   0  0  0  0  0  0  0  0  0  0  0  0
   12.6582  -17.7571   22.2525 O   0  0  0  0  0  0  0  0  0  0  0  0
   12.4603  -20.6703   26.5793 O   0  0  0  0  0  0  0  0  0  0  0  0
   13.2975  -16.2937   23.8747 N   0  0  0  0  0  0  0  0  0  0  0  0
   14.1915  -15.4653   23.0519 C   0  0  0  0  0  0  0  0  0  0  0  0
   15.5580  -16.0815   23.0253 C   0  0  0  0  0  0  0  0  0  0  0  0
   16.6363  -15.3817   23.5436 O   0  0  0  0  0  0  0  0  0  0  0  0
   15.7048  -17.2245   22.5328 O   0  0  0  0  0  0  0  0  0  0  0  0
  2 10  1  0
  2  1  1  1
  3  4  1  0
  3  2  1  0
  4  9  2  0
  4  5  1  0
  5  6  2  0
  6  7  1  0
  8  7  2  0
  9  8  1  0
 10 11  2  0
 12 10  1  0
 12 13  1  0
 13 14  1  6
 14 15  1  0
 16 15  1  0
 16 17  2  0
 18 13  1  0
 18 21  1  0
 19 18  2  0
 20 16  1  0
 22 21  1  0
 23 22  1  0
 23 24  1  0
 25 23  2  0
M  END
$$$$
