FEG.pdb
     RDKit          3D

 25 25  0  0  1  0  0  0  0  0999 V2000
    5.7684  -17.8125   24.4767 N   0  0  0  0  0  0  0  0  0  0  0  0
    6.6990  -16.7639   24.6752 C   0  0  1  0  0  0  0  0  0  0  0  0
    6.7312  -16.2899   26.1321 C   0  0  0  0  0  0  0  0  0  0  0  0
    6.9338  -14.8200   26.1690 C   0  0  0  0  0  0  0  0  0  0  0  0
    8.2052  -14.3444   25.9811 C   0  0  0  0  0  0  0  0  0  0  0  0
    8.4324  -12.9821   26.0087 C   0  0  0  0  0  0  0  0  0  0  0  0
    7.3828  -12.1366   26.2232 C   0  0  0  0  0  0  0  0  0  0  0  0
    6.0983  -12.6207   26.4129 C   0  0  0  0  0  0  0  0  0  0  0  0
    5.8680  -13.9867   26.3856 C   0  0  0  0  0  0  0  0  0  0  0  0
    8.0738  -17.0448   24.2761 C   0  0  0  0  0  0  0  0  0  0  0  0
    8.5813  -18.1426   24.6244 O   0  0  0  0  0  0  0  0  0  0  0  0
    8.9018  -16.1688   23.5146 N   0  0  0  0  0  0  0  0  0  0  0  0
   10.2312  -16.5010   23.0981 C   0  0  1  0  0  0  0  0  0  0  0  0
   10.6389  -15.5566   21.9954 C   0  0  0  0  0  0  0  0  0  0  0  0
   10.0083  -15.9865   20.6898 C   0  0  0  0  0  0  0  0  0  0  0  0
   10.9058  -16.9012   19.9300 C   0  0  0  0  0  0  0  0  0  0  0  0
   11.9955  -16.4974   19.4560 O   0  0  0  0  0  0  0  0  0  0  0  0
   11.2016  -16.5056   24.2183 C   0  0  0  0  0  0  0  0  0  0  0  0
   12.4378  -16.7134   24.0603 O   0  0  0  0  0  0  0  0  0  0  0  0
   10.5528  -18.2265   19.7298 O   0  0  0  0  0  0  0  0  0  0  0  0
   10.7783  -16.2712   25.5544 N   0  0  0  0  0  0  0  0  0  0  0  0
   11.7608  -16.1977   26.6461 C   0  0  0  0  0  0  0  0  0  0  0  0
   12.0973  -17.5836   27.1081 C   0  0  0  0  0  0  0  0  0  0  0  0
   11.6189  -18.6768   26.4031 O   0  0  0  0  0  0  0  0  0  0  0  0
   12.8090  -17.7329   28.1288 O   0  0  0  0  0  0  0  0  0  0  0  0
  2 10  1  0
  2  1  1  1
  3  4  1  0
  3  2  1  0
  4  9  2  0
  4  5  1  0
  5  6  2  0
  6  7  1  0
  8  7  2  0
  9  8  1  0
 10 11  2  0
 12 10  1  0
 12 13  1  0
 13 14  1  6
 14 15  1  0
 16 15  1  0
 16 17  2  0
 18 13  1  0
 18 21  1  0
 19 18  2  0
 20 16  1  0
 22 21  1  0
 23 22  1  0
 23 24  1  0
 25 23  2  0
M  END
$$$$
