FEG.pdb
     RDKit          3D

 25 25  0  0  1  0  0  0  0  0999 V2000
    5.7598  -17.5636   25.3608 N   0  0  0  0  0  0  0  0  0  0  0  0
    6.8520  -16.6695   25.2494 C   0  0  1  0  0  0  0  0  0  0  0  0
    7.2196  -16.0377   26.5962 C   0  0  0  0  0  0  0  0  0  0  0  0
    7.2627  -14.5609   26.4537 C   0  0  0  0  0  0  0  0  0  0  0  0
    8.4647  -13.9833   26.1385 C   0  0  0  0  0  0  0  0  0  0  0  0
    8.5435  -12.6114   25.9977 C   0  0  0  0  0  0  0  0  0  0  0  0
    7.4193  -11.8584   26.1759 C   0  0  0  0  0  0  0  0  0  0  0  0
    6.2052  -12.4455   26.4946 C   0  0  0  0  0  0  0  0  0  0  0  0
    6.1237  -13.8214   26.6364 C   0  0  0  0  0  0  0  0  0  0  0  0
    8.0751  -17.2219   24.6771 C   0  0  0  0  0  0  0  0  0  0  0  0
    8.5858  -18.2315   25.2284 O   0  0  0  0  0  0  0  0  0  0  0  0
    8.7491  -16.7077   23.5308 N   0  0  0  0  0  0  0  0  0  0  0  0
    9.9924  -17.2274   23.0458 C   0  0  1  0  0  0  0  0  0  0  0  0
   10.0911  -16.9361   21.5694 C   0  0  0  0  0  0  0  0  0  0  0  0
   11.2767  -17.6659   20.9787 C   0  0  0  0  0  0  0  0  0  0  0  0
   11.4353  -17.3582   19.5297 C   0  0  0  0  0  0  0  0  0  0  0  0
   12.5381  -16.9850   19.0611 O   0  0  0  0  0  0  0  0  0  0  0  0
   11.1630  -16.7153   23.7968 C   0  0  0  0  0  0  0  0  0  0  0  0
   11.3522  -15.4876   24.0277 O   0  0  0  0  0  0  0  0  0  0  0  0
   10.3600  -17.4789   18.6635 O   0  0  0  0  0  0  0  0  0  0  0  0
   12.1513  -17.6009   24.3047 N   0  0  0  0  0  0  0  0  0  0  0  0
   13.3080  -17.0802   25.0486 C   0  0  0  0  0  0  0  0  0  0  0  0
   14.1748  -18.2226   25.4861 C   0  0  0  0  0  0  0  0  0  0  0  0
   15.3271  -17.9700   26.2137 O   0  0  0  0  0  0  0  0  0  0  0  0
   13.8427  -19.3931   25.1857 O   0  0  0  0  0  0  0  0  0  0  0  0
  2 10  1  0
  2  1  1  1
  3  4  1  0
  3  2  1  0
  4  9  2  0
  4  5  1  0
  5  6  2  0
  6  7  1  0
  8  7  2  0
  9  8  1  0
 10 11  2  0
 12 10  1  0
 12 13  1  0
 13 14  1  6
 14 15  1  0
 16 15  1  0
 16 17  2  0
 18 13  1  0
 18 21  1  0
 19 18  2  0
 20 16  1  0
 22 21  1  0
 23 22  1  0
 23 24  1  0
 25 23  2  0
M  END
$$$$
