FEG.pdb
     RDKit          3D

 25 25  0  0  1  0  0  0  0  0999 V2000
    5.8928  -17.9220   25.9597 N   0  0  0  0  0  0  0  0  0  0  0  0
    6.7196  -16.7959   25.7289 C   0  0  1  0  0  0  0  0  0  0  0  0
    6.9777  -15.9976   27.0113 C   0  0  0  0  0  0  0  0  0  0  0  0
    7.1618  -14.5643   26.6723 C   0  0  0  0  0  0  0  0  0  0  0  0
    8.4432  -14.0991   26.5338 C   0  0  0  0  0  0  0  0  0  0  0  0
    8.6539  -12.7707   26.2187 C   0  0  0  0  0  0  0  0  0  0  0  0
    7.5780  -11.9478   26.0516 C   0  0  0  0  0  0  0  0  0  0  0  0
    6.2834  -12.4213   26.1924 C   0  0  0  0  0  0  0  0  0  0  0  0
    6.0697  -13.7533   26.5084 C   0  0  0  0  0  0  0  0  0  0  0  0
    8.0147  -17.0684   25.1151 C   0  0  0  0  0  0  0  0  0  0  0  0
    8.8319  -17.7880   25.7464 O   0  0  0  0  0  0  0  0  0  0  0  0
    8.4382  -16.5817   23.8437 N   0  0  0  0  0  0  0  0  0  0  0  0
    9.7004  -16.9105   23.2520 C   0  0  1  0  0  0  0  0  0  0  0  0
    9.5039  -17.0821   21.7667 C   0  0  0  0  0  0  0  0  0  0  0  0
    9.9413  -15.8293   21.0413 C   0  0  0  0  0  0  0  0  0  0  0  0
    9.8617  -16.0029   19.5637 C   0  0  0  0  0  0  0  0  0  0  0  0
    9.1621  -16.9107   19.0525 O   0  0  0  0  0  0  0  0  0  0  0  0
   10.7588  -15.9218   23.5660 C   0  0  0  0  0  0  0  0  0  0  0  0
   10.5125  -14.7240   23.8841 O   0  0  0  0  0  0  0  0  0  0  0  0
   10.5640  -15.1590   18.7178 O   0  0  0  0  0  0  0  0  0  0  0  0
   12.1327  -16.2818   23.5233 N   0  0  0  0  0  0  0  0  0  0  0  0
   13.1756  -15.2756   23.7738 C   0  0  0  0  0  0  0  0  0  0  0  0
   14.5232  -15.9303   23.7198 C   0  0  0  0  0  0  0  0  0  0  0  0
   15.6648  -15.1664   23.9043 O   0  0  0  0  0  0  0  0  0  0  0  0
   14.5969  -17.1633   23.5078 O   0  0  0  0  0  0  0  0  0  0  0  0
  2 10  1  0
  2  1  1  1
  3  4  1  0
  3  2  1  0
  4  9  2  0
  4  5  1  0
  5  6  2  0
  6  7  1  0
  8  7  2  0
  9  8  1  0
 10 11  2  0
 12 10  1  0
 12 13  1  0
 13 14  1  6
 14 15  1  0
 16 15  1  0
 16 17  2  0
 18 13  1  0
 18 21  1  0
 19 18  2  0
 20 16  1  0
 22 21  1  0
 23 22  1  0
 23 24  1  0
 25 23  2  0
M  END
$$$$
