FEG.pdb
     RDKit          3D

 25 25  0  0  1  0  0  0  0  0999 V2000
    5.6615  -16.8596   24.3169 N   0  0  0  0  0  0  0  0  0  0  0  0
    6.8494  -16.2314   24.7632 C   0  0  1  0  0  0  0  0  0  0  0  0
    6.7507  -15.7840   26.2255 C   0  0  0  0  0  0  0  0  0  0  0  0
    6.7569  -14.3012   26.2899 C   0  0  0  0  0  0  0  0  0  0  0  0
    7.9577  -13.6748   26.4983 C   0  0  0  0  0  0  0  0  0  0  0  0
    8.0027  -12.2957   26.5641 C   0  0  0  0  0  0  0  0  0  0  0  0
    6.8468  -11.5846   26.4198 C   0  0  0  0  0  0  0  0  0  0  0  0
    5.6340  -12.2210   26.2092 C   0  0  0  0  0  0  0  0  0  0  0  0
    5.5865  -13.6041   26.1428 C   0  0  0  0  0  0  0  0  0  0  0  0
    8.0753  -17.0104   24.6259 C   0  0  0  0  0  0  0  0  0  0  0  0
    8.0472  -18.2253   24.9533 O   0  0  0  0  0  0  0  0  0  0  0  0
    9.3188  -16.5045   24.1457 N   0  0  0  0  0  0  0  0  0  0  0  0
   10.5441  -17.2446   24.1923 C   0  0  1  0  0  0  0  0  0  0  0  0
   11.5202  -16.6183   23.2285 C   0  0  0  0  0  0  0  0  0  0  0  0
   12.7798  -17.4520   23.1567 C   0  0  0  0  0  0  0  0  0  0  0  0
   13.7895  -16.8315   22.2538 C   0  0  0  0  0  0  0  0  0  0  0  0
   15.0159  -16.8862   22.5148 O   0  0  0  0  0  0  0  0  0  0  0  0
   11.1005  -17.3518   25.5618 C   0  0  0  0  0  0  0  0  0  0  0  0
   12.0894  -16.6738   25.9605 O   0  0  0  0  0  0  0  0  0  0  0  0
   13.3918  -16.1766   21.0989 O   0  0  0  0  0  0  0  0  0  0  0  0
   10.5356  -18.2427   26.5138 N   0  0  0  0  0  0  0  0  0  0  0  0
   11.2878  -19.4205   26.9713 C   0  0  0  0  0  0  0  0  0  0  0  0
   12.0892  -19.0594   28.1858 C   0  0  0  0  0  0  0  0  0  0  0  0
   11.8535  -19.7161   29.3834 O   0  0  0  0  0  0  0  0  0  0  0  0
   12.9635  -18.1657   28.0991 O   0  0  0  0  0  0  0  0  0  0  0  0
  2 10  1  0
  2  1  1  1
  3  4  1  0
  3  2  1  0
  4  9  2  0
  4  5  1  0
  5  6  2  0
  6  7  1  0
  8  7  2  0
  9  8  1  0
 10 11  2  0
 12 10  1  0
 12 13  1  0
 13 14  1  6
 14 15  1  0
 16 15  1  0
 16 17  2  0
 18 13  1  0
 18 21  1  0
 19 18  2  0
 20 16  1  0
 22 21  1  0
 23 22  1  0
 23 24  1  0
 25 23  2  0
M  END
$$$$
