FEG.pdb
     RDKit          3D

 25 25  0  0  1  0  0  0  0  0999 V2000
    5.5881  -16.6766   25.4364 N   0  0  0  0  0  0  0  0  0  0  0  0
    6.5853  -16.4721   24.4522 C   0  0  1  0  0  0  0  0  0  0  0  0
    6.6506  -15.0118   23.9924 C   0  0  0  0  0  0  0  0  0  0  0  0
    6.7816  -14.1264   25.1765 C   0  0  0  0  0  0  0  0  0  0  0  0
    8.0301  -13.6554   25.4883 C   0  0  0  0  0  0  0  0  0  0  0  0
    8.1909  -12.8288   26.5833 C   0  0  0  0  0  0  0  0  0  0  0  0
    7.0997  -12.4981   27.3333 C   0  0  0  0  0  0  0  0  0  0  0  0
    5.8385  -12.9760   27.0155 C   0  0  0  0  0  0  0  0  0  0  0  0
    5.6748  -13.8052   25.9176 C   0  0  0  0  0  0  0  0  0  0  0  0
    7.9383  -16.8761   24.8190 C   0  0  0  0  0  0  0  0  0  0  0  0
    8.1185  -17.3869   25.9552 O   0  0  0  0  0  0  0  0  0  0  0  0
    9.0886  -16.7393   23.9879 N   0  0  0  0  0  0  0  0  0  0  0  0
   10.3289  -17.4103   24.2384 C   0  0  1  0  0  0  0  0  0  0  0  0
   11.1909  -17.3016   23.0057 C   0  0  0  0  0  0  0  0  0  0  0  0
   11.8527  -15.9426   22.9584 C   0  0  0  0  0  0  0  0  0  0  0  0
   12.6515  -15.7721   21.7124 C   0  0  0  0  0  0  0  0  0  0  0  0
   13.8802  -15.5206   21.7572 O   0  0  0  0  0  0  0  0  0  0  0  0
   11.0199  -16.9101   25.4503 C   0  0  0  0  0  0  0  0  0  0  0  0
   12.1565  -17.3225   25.8171 O   0  0  0  0  0  0  0  0  0  0  0  0
   12.0491  -15.8885   20.4696 O   0  0  0  0  0  0  0  0  0  0  0  0
   10.4235  -15.9200   26.2769 N   0  0  0  0  0  0  0  0  0  0  0  0
   11.1985  -15.2777   27.3490 C   0  0  0  0  0  0  0  0  0  0  0  0
   11.0373  -16.0597   28.6178 C   0  0  0  0  0  0  0  0  0  0  0  0
   11.4323  -15.5008   29.8231 O   0  0  0  0  0  0  0  0  0  0  0  0
   10.5459  -17.2116   28.5689 O   0  0  0  0  0  0  0  0  0  0  0  0
  2 10  1  0
  2  1  1  1
  3  4  1  0
  3  2  1  0
  4  9  2  0
  4  5  1  0
  5  6  2  0
  6  7  1  0
  8  7  2  0
  9  8  1  0
 10 11  2  0
 12 10  1  0
 12 13  1  0
 13 14  1  6
 14 15  1  0
 16 15  1  0
 16 17  2  0
 18 13  1  0
 18 21  1  0
 19 18  2  0
 20 16  1  0
 22 21  1  0
 23 22  1  0
 23 24  1  0
 25 23  2  0
M  END
$$$$
