FEG.pdb
     RDKit          3D

 25 25  0  0  1  0  0  0  0  0999 V2000
    6.4973  -16.7550   25.7768 N   0  0  0  0  0  0  0  0  0  0  0  0
    7.5440  -15.9911   25.2060 C   0  0  1  0  0  0  0  0  0  0  0  0
    8.1002  -14.9525   26.1860 C   0  0  0  0  0  0  0  0  0  0  0  0
    7.2882  -13.7127   26.1053 C   0  0  0  0  0  0  0  0  0  0  0  0
    7.4554  -12.9085   25.0085 C   0  0  0  0  0  0  0  0  0  0  0  0
    6.7169  -11.7463   24.8987 C   0  0  0  0  0  0  0  0  0  0  0  0
    5.8340  -11.4229   25.8879 C   0  0  0  0  0  0  0  0  0  0  0  0
    5.6672  -12.2382   26.9959 C   0  0  0  0  0  0  0  0  0  0  0  0
    6.4069  -13.4045   27.1082 C   0  0  0  0  0  0  0  0  0  0  0  0
    8.6757  -16.7479   24.6817 C   0  0  0  0  0  0  0  0  0  0  0  0
    9.1851  -17.6375   25.4120 O   0  0  0  0  0  0  0  0  0  0  0  0
    9.2608  -16.5621   23.3950 N   0  0  0  0  0  0  0  0  0  0  0  0
   10.5188  -17.1280   23.0097 C   0  0  1  0  0  0  0  0  0  0  0  0
   10.4019  -17.6403   21.5961 C   0  0  0  0  0  0  0  0  0  0  0  0
    9.3244  -18.6986   21.5195 C   0  0  0  0  0  0  0  0  0  0  0  0
    9.2021  -19.2484   20.1402 C   0  0  0  0  0  0  0  0  0  0  0  0
    8.1596  -19.0781   19.4624 O   0  0  0  0  0  0  0  0  0  0  0  0
   11.6490  -16.1829   23.1707 C   0  0  0  0  0  0  0  0  0  0  0  0
   11.5097  -14.9275   23.1369 O   0  0  0  0  0  0  0  0  0  0  0  0
   10.2448  -19.9644   19.5737 O   0  0  0  0  0  0  0  0  0  0  0  0
   12.9738  -16.6541   23.3756 N   0  0  0  0  0  0  0  0  0  0  0  0
   14.0861  -15.7059   23.5378 C   0  0  0  0  0  0  0  0  0  0  0  0
   15.3734  -16.4641   23.6621 C   0  0  0  0  0  0  0  0  0  0  0  0
   16.5704  -15.7722   23.7594 O   0  0  0  0  0  0  0  0  0  0  0  0
   15.3473  -17.7170   23.6760 O   0  0  0  0  0  0  0  0  0  0  0  0
  2 10  1  0
  2  1  1  1
  3  4  1  0
  3  2  1  0
  4  9  2  0
  4  5  1  0
  5  6  2  0
  6  7  1  0
  8  7  2  0
  9  8  1  0
 10 11  2  0
 12 10  1  0
 12 13  1  0
 13 14  1  6
 14 15  1  0
 16 15  1  0
 16 17  2  0
 18 13  1  0
 18 21  1  0
 19 18  2  0
 20 16  1  0
 22 21  1  0
 23 22  1  0
 23 24  1  0
 25 23  2  0
M  END
$$$$
