FEG.pdb
     RDKit          3D

 25 25  0  0  1  0  0  0  0  0999 V2000
    6.5180  -17.0637   25.7130 N   0  0  0  0  0  0  0  0  0  0  0  0
    7.4137  -16.1400   25.1220 C   0  0  1  0  0  0  0  0  0  0  0  0
    8.0416  -15.2021   26.1584 C   0  0  0  0  0  0  0  0  0  0  0  0
    7.3607  -13.8841   26.1086 C   0  0  0  0  0  0  0  0  0  0  0  0
    6.5458  -13.5450   27.1568 C   0  0  0  0  0  0  0  0  0  0  0  0
    5.8952  -12.3264   27.1454 C   0  0  0  0  0  0  0  0  0  0  0  0
    6.0786  -11.4840   26.0874 C   0  0  0  0  0  0  0  0  0  0  0  0
    6.9033  -11.8299   25.0290 C   0  0  0  0  0  0  0  0  0  0  0  0
    7.5569  -13.0516   25.0382 C   0  0  0  0  0  0  0  0  0  0  0  0
    8.5008  -16.7157   24.3376 C   0  0  0  0  0  0  0  0  0  0  0  0
    9.2196  -17.5977   24.8757 O   0  0  0  0  0  0  0  0  0  0  0  0
    8.8217  -16.3585   22.9951 N   0  0  0  0  0  0  0  0  0  0  0  0
   10.0605  -16.6981   22.3615 C   0  0  1  0  0  0  0  0  0  0  0  0
    9.9440  -16.3984   20.8882 C   0  0  0  0  0  0  0  0  0  0  0  0
   11.2158  -16.8047   20.1780 C   0  0  0  0  0  0  0  0  0  0  0  0
   10.9713  -17.9259   19.2278 C   0  0  0  0  0  0  0  0  0  0  0  0
   10.6588  -19.0699   19.6386 O   0  0  0  0  0  0  0  0  0  0  0  0
   11.2271  -16.0243   22.9792 C   0  0  0  0  0  0  0  0  0  0  0  0
   11.1663  -14.8719   23.4939 O   0  0  0  0  0  0  0  0  0  0  0  0
   11.0848  -17.7265   17.8610 O   0  0  0  0  0  0  0  0  0  0  0  0
   12.4989  -16.6565   23.0232 N   0  0  0  0  0  0  0  0  0  0  0  0
   13.6484  -15.9775   23.6397 C   0  0  0  0  0  0  0  0  0  0  0  0
   14.8389  -16.8883   23.6122 C   0  0  0  0  0  0  0  0  0  0  0  0
   14.7221  -18.1846   24.0884 O   0  0  0  0  0  0  0  0  0  0  0  0
   15.9259  -16.4616   23.1570 O   0  0  0  0  0  0  0  0  0  0  0  0
  2 10  1  0
  2  1  1  1
  3  4  1  0
  3  2  1  0
  4  9  2  0
  4  5  1  0
  5  6  2  0
  6  7  1  0
  8  7  2  0
  9  8  1  0
 10 11  2  0
 12 10  1  0
 12 13  1  0
 13 14  1  6
 14 15  1  0
 16 15  1  0
 16 17  2  0
 18 13  1  0
 18 21  1  0
 19 18  2  0
 20 16  1  0
 22 21  1  0
 23 22  1  0
 23 24  1  0
 25 23  2  0
M  END
$$$$
