FEG.pdb
     RDKit          3D

 25 25  0  0  1  0  0  0  0  0999 V2000
    7.7707  -17.5022   22.6638 N   0  0  0  0  0  0  0  0  0  0  0  0
    8.7669  -16.6491   22.1302 C   0  0  1  0  0  0  0  0  0  0  0  0
    8.7125  -15.2456   22.7430 C   0  0  0  0  0  0  0  0  0  0  0  0
    8.3350  -14.2637   21.6959 C   0  0  0  0  0  0  0  0  0  0  0  0
    7.0238  -14.2226   21.3000 C   0  0  0  0  0  0  0  0  0  0  0  0
    6.6350  -13.3217   20.3277 C   0  0  0  0  0  0  0  0  0  0  0  0
    7.5680  -12.4893   19.7806 C   0  0  0  0  0  0  0  0  0  0  0  0
    8.8932  -12.5333   20.1830 C   0  0  0  0  0  0  0  0  0  0  0  0
    9.2855  -13.4361   21.1581 C   0  0  0  0  0  0  0  0  0  0  0  0
   10.1421  -17.1227   22.2432 C   0  0  0  0  0  0  0  0  0  0  0  0
   10.3905  -18.0332   23.0759 O   0  0  0  0  0  0  0  0  0  0  0  0
   11.2428  -16.6346   21.4796 N   0  0  0  0  0  0  0  0  0  0  0  0
   12.5563  -17.2028   21.5341 C   0  0  1  0  0  0  0  0  0  0  0  0
   13.2265  -16.9913   20.1999 C   0  0  0  0  0  0  0  0  0  0  0  0
   14.5393  -17.7410   20.1585 C   0  0  0  0  0  0  0  0  0  0  0  0
   15.1867  -17.6265   18.8215 C   0  0  0  0  0  0  0  0  0  0  0  0
   14.6680  -18.1421   17.8017 O   0  0  0  0  0  0  0  0  0  0  0  0
   13.3662  -16.6745   22.6573 C   0  0  0  0  0  0  0  0  0  0  0  0
   13.6293  -15.4471   22.8016 O   0  0  0  0  0  0  0  0  0  0  0  0
   16.3837  -16.9431   18.6762 O   0  0  0  0  0  0  0  0  0  0  0  0
   13.8978  -17.5430   23.6484 N   0  0  0  0  0  0  0  0  0  0  0  0
   14.6136  -16.9979   24.8116 C   0  0  0  0  0  0  0  0  0  0  0  0
   16.0600  -16.8115   24.4645 C   0  0  0  0  0  0  0  0  0  0  0  0
   16.6627  -15.5809   24.6736 O   0  0  0  0  0  0  0  0  0  0  0  0
   16.7047  -17.7751   23.9887 O   0  0  0  0  0  0  0  0  0  0  0  0
  2 10  1  0
  2  1  1  1
  3  4  1  0
  3  2  1  0
  4  9  2  0
  4  5  1  0
  5  6  2  0
  6  7  1  0
  8  7  2  0
  9  8  1  0
 10 11  2  0
 12 10  1  0
 12 13  1  0
 13 14  1  6
 14 15  1  0
 16 15  1  0
 16 17  2  0
 18 13  1  0
 18 21  1  0
 19 18  2  0
 20 16  1  0
 22 21  1  0
 23 22  1  0
 23 24  1  0
 25 23  2  0
M  END
$$$$
