FEG.pdb
     RDKit          3D

 25 25  0  0  1  0  0  0  0  0999 V2000
    5.5181  -17.5391   23.9751 N   0  0  0  0  0  0  0  0  0  0  0  0
    6.4384  -16.5535   24.4071 C   0  0  1  0  0  0  0  0  0  0  0  0
    6.0042  -15.8959   25.7214 C   0  0  0  0  0  0  0  0  0  0  0  0
    6.7228  -14.6083   25.8905 C   0  0  0  0  0  0  0  0  0  0  0  0
    6.3968  -13.5781   25.0479 C   0  0  0  0  0  0  0  0  0  0  0  0
    7.0446  -12.3646   25.1753 C   0  0  0  0  0  0  0  0  0  0  0  0
    7.9981  -12.2175   26.1405 C   0  0  0  0  0  0  0  0  0  0  0  0
    8.3255  -13.2612   26.9911 C   0  0  0  0  0  0  0  0  0  0  0  0
    7.6772  -14.4792   26.8652 C   0  0  0  0  0  0  0  0  0  0  0  0
    7.8183  -16.9965   24.5746 C   0  0  0  0  0  0  0  0  0  0  0  0
    8.0271  -18.0634   25.2088 O   0  0  0  0  0  0  0  0  0  0  0  0
    8.9652  -16.3135   24.0737 N   0  0  0  0  0  0  0  0  0  0  0  0
   10.2971  -16.8319   24.1670 C   0  0  1  0  0  0  0  0  0  0  0  0
   11.0927  -16.3256   22.9902 C   0  0  0  0  0  0  0  0  0  0  0  0
   12.4707  -16.9486   22.9940 C   0  0  0  0  0  0  0  0  0  0  0  0
   13.2457  -16.5569   21.7833 C   0  0  0  0  0  0  0  0  0  0  0  0
   14.3969  -17.0105   21.5734 O   0  0  0  0  0  0  0  0  0  0  0  0
   10.9486  -16.5166   25.4603 C   0  0  0  0  0  0  0  0  0  0  0  0
   11.7785  -15.5748   25.6041 O   0  0  0  0  0  0  0  0  0  0  0  0
   12.7069  -15.6770   20.8578 O   0  0  0  0  0  0  0  0  0  0  0  0
   10.6646  -17.2759   26.6273 N   0  0  0  0  0  0  0  0  0  0  0  0
   11.4622  -17.0923   27.8491 C   0  0  0  0  0  0  0  0  0  0  0  0
   11.8654  -18.4322   28.3872 C   0  0  0  0  0  0  0  0  0  0  0  0
   12.6820  -19.2579   27.6306 O   0  0  0  0  0  0  0  0  0  0  0  0
   11.4563  -18.7865   29.5176 O   0  0  0  0  0  0  0  0  0  0  0  0
  2 10  1  0
  2  1  1  1
  3  4  1  0
  3  2  1  0
  4  9  2  0
  4  5  1  0
  5  6  2  0
  6  7  1  0
  8  7  2  0
  9  8  1  0
 10 11  2  0
 12 10  1  0
 12 13  1  0
 13 14  1  6
 14 15  1  0
 16 15  1  0
 16 17  2  0
 18 13  1  0
 18 21  1  0
 19 18  2  0
 20 16  1  0
 22 21  1  0
 23 22  1  0
 23 24  1  0
 25 23  2  0
M  END
$$$$
