FEG.pdb
     RDKit          3D

 25 25  0  0  1  0  0  0  0  0999 V2000
    6.6793  -16.3741   26.0523 N   0  0  0  0  0  0  0  0  0  0  0  0
    7.5044  -15.7288   25.0995 C   0  0  1  0  0  0  0  0  0  0  0  0
    8.2775  -14.5539   25.7079 C   0  0  0  0  0  0  0  0  0  0  0  0
    7.3566  -13.4070   25.9075 C   0  0  0  0  0  0  0  0  0  0  0  0
    7.0339  -13.0619   27.1938 C   0  0  0  0  0  0  0  0  0  0  0  0
    6.1797  -11.9999   27.4188 C   0  0  0  0  0  0  0  0  0  0  0  0
    5.6740  -11.3151   26.3520 C   0  0  0  0  0  0  0  0  0  0  0  0
    6.0023  -11.6666   25.0524 C   0  0  0  0  0  0  0  0  0  0  0  0
    6.8589  -12.7315   24.8243 C   0  0  0  0  0  0  0  0  0  0  0  0
    8.4700  -16.5779   24.4103 C   0  0  0  0  0  0  0  0  0  0  0  0
    9.1460  -17.3876   25.0969 O   0  0  0  0  0  0  0  0  0  0  0  0
    8.7156  -16.5674   23.0059 N   0  0  0  0  0  0  0  0  0  0  0  0
    9.9166  -17.0710   22.4098 C   0  0  1  0  0  0  0  0  0  0  0  0
    9.7645  -17.0238   20.9102 C   0  0  0  0  0  0  0  0  0  0  0  0
   10.9745  -17.6460   20.2501 C   0  0  0  0  0  0  0  0  0  0  0  0
   10.8428  -17.6446   18.7661 C   0  0  0  0  0  0  0  0  0  0  0  0
   11.4639  -16.8144   18.0590 O   0  0  0  0  0  0  0  0  0  0  0  0
   11.1314  -16.3587   22.8718 C   0  0  0  0  0  0  0  0  0  0  0  0
   11.1990  -15.1008   22.9703 O   0  0  0  0  0  0  0  0  0  0  0  0
   10.0256  -18.5671   18.1319 O   0  0  0  0  0  0  0  0  0  0  0  0
   12.3052  -17.0727   23.2342 N   0  0  0  0  0  0  0  0  0  0  0  0
   13.5039  -16.3542   23.6920 C   0  0  0  0  0  0  0  0  0  0  0  0
   14.5889  -17.3412   24.0018 C   0  0  0  0  0  0  0  0  0  0  0  0
   14.3690  -18.6926   23.7861 O   0  0  0  0  0  0  0  0  0  0  0  0
   15.6825  -16.9275   24.4529 O   0  0  0  0  0  0  0  0  0  0  0  0
  2 10  1  0
  2  1  1  1
  3  4  1  0
  3  2  1  0
  4  9  2  0
  4  5  1  0
  5  6  2  0
  6  7  1  0
  8  7  2  0
  9  8  1  0
 10 11  2  0
 12 10  1  0
 12 13  1  0
 13 14  1  6
 14 15  1  0
 16 15  1  0
 16 17  2  0
 18 13  1  0
 18 21  1  0
 19 18  2  0
 20 16  1  0
 22 21  1  0
 23 22  1  0
 23 24  1  0
 25 23  2  0
M  END
$$$$
