FEG.pdb
     RDKit          3D

 25 25  0  0  1  0  0  0  0  0999 V2000
    6.3433  -17.1505   26.1828 N   0  0  0  0  0  0  0  0  0  0  0  0
    7.0320  -16.0897   25.5463 C   0  0  1  0  0  0  0  0  0  0  0  0
    8.0061  -15.3833   26.4952 C   0  0  0  0  0  0  0  0  0  0  0  0
    7.5284  -14.0023   26.7554 C   0  0  0  0  0  0  0  0  0  0  0  0
    6.2344  -13.6994   26.4215 C   0  0  0  0  0  0  0  0  0  0  0  0
    5.7543  -12.4242   26.6490 C   0  0  0  0  0  0  0  0  0  0  0  0
    6.5816  -11.4907   27.2029 C   0  0  0  0  0  0  0  0  0  0  0  0
    7.8897  -11.8002   27.5394 C   0  0  0  0  0  0  0  0  0  0  0  0
    8.3734  -13.0785   27.3122 C   0  0  0  0  0  0  0  0  0  0  0  0
    7.7737  -16.4412   24.3402 C   0  0  0  0  0  0  0  0  0  0  0  0
    8.0777  -17.6492   24.1604 O   0  0  0  0  0  0  0  0  0  0  0  0
    8.1886  -15.5193   23.3348 N   0  0  0  0  0  0  0  0  0  0  0  0
    8.7505  -15.9189   22.0795 C   0  0  1  0  0  0  0  0  0  0  0  0
    8.5869  -14.7857   21.0980 C   0  0  0  0  0  0  0  0  0  0  0  0
    7.1331  -14.6518   20.7037 C   0  0  0  0  0  0  0  0  0  0  0  0
    6.7619  -15.6451   19.6571 C   0  0  0  0  0  0  0  0  0  0  0  0
    5.8755  -16.5087   19.8656 O   0  0  0  0  0  0  0  0  0  0  0  0
   10.1605  -16.3608   22.1941 C   0  0  0  0  0  0  0  0  0  0  0  0
   10.7651  -16.9856   21.2773 O   0  0  0  0  0  0  0  0  0  0  0  0
    7.3927  -15.6351   18.4231 O   0  0  0  0  0  0  0  0  0  0  0  0
   10.9172  -16.0970   23.3675 N   0  0  0  0  0  0  0  0  0  0  0  0
   12.2594  -16.6742   23.5350 C   0  0  0  0  0  0  0  0  0  0  0  0
   13.2541  -15.8528   22.7712 C   0  0  0  0  0  0  0  0  0  0  0  0
   14.3902  -15.3820   23.4104 O   0  0  0  0  0  0  0  0  0  0  0  0
   13.0421  -15.6034   21.5614 O   0  0  0  0  0  0  0  0  0  0  0  0
  2 10  1  0
  2  1  1  1
  3  4  1  0
  3  2  1  0
  4  9  2  0
  4  5  1  0
  5  6  2  0
  6  7  1  0
  8  7  2  0
  9  8  1  0
 10 11  2  0
 12 10  1  0
 12 13  1  0
 13 14  1  6
 14 15  1  0
 16 15  1  0
 16 17  2  0
 18 13  1  0
 18 21  1  0
 19 18  2  0
 20 16  1  0
 22 21  1  0
 23 22  1  0
 23 24  1  0
 25 23  2  0
M  END
$$$$
