FEG.pdb
     RDKit          3D

 25 25  0  0  1  0  0  0  0  0999 V2000
    5.7483  -16.5262   24.0136 N   0  0  0  0  0  0  0  0  0  0  0  0
    7.0218  -16.1533   24.5074 C   0  0  1  0  0  0  0  0  0  0  0  0
    6.9579  -15.6696   25.9601 C   0  0  0  0  0  0  0  0  0  0  0  0
    6.9140  -14.1862   25.9853 C   0  0  0  0  0  0  0  0  0  0  0  0
    5.6985  -13.5852   26.1831 C   0  0  0  0  0  0  0  0  0  0  0  0
    5.6186  -12.2065   26.2127 C   0  0  0  0  0  0  0  0  0  0  0  0
    6.7553  -11.4703   26.0439 C   0  0  0  0  0  0  0  0  0  0  0  0
    7.9830  -12.0809   25.8440 C   0  0  0  0  0  0  0  0  0  0  0  0
    8.0656  -13.4637   25.8140 C   0  0  0  0  0  0  0  0  0  0  0  0
    8.0613  -17.1742   24.4316 C   0  0  0  0  0  0  0  0  0  0  0  0
    7.7130  -18.3823   24.4890 O   0  0  0  0  0  0  0  0  0  0  0  0
    9.4567  -16.9151   24.2962 N   0  0  0  0  0  0  0  0  0  0  0  0
   10.4506  -17.9451   24.2457 C   0  0  1  0  0  0  0  0  0  0  0  0
   11.7387  -17.3449   23.7413 C   0  0  0  0  0  0  0  0  0  0  0  0
   11.8036  -17.4567   22.2345 C   0  0  0  0  0  0  0  0  0  0  0  0
   12.7147  -16.4308   21.6538 C   0  0  0  0  0  0  0  0  0  0  0  0
   12.3945  -15.7833   20.6275 O   0  0  0  0  0  0  0  0  0  0  0  0
   10.6270  -18.6394   25.5431 C   0  0  0  0  0  0  0  0  0  0  0  0
   11.3139  -19.6916   25.6756 O   0  0  0  0  0  0  0  0  0  0  0  0
   13.9431  -16.1691   22.2397 O   0  0  0  0  0  0  0  0  0  0  0  0
   10.0180  -18.1437   26.7274 N   0  0  0  0  0  0  0  0  0  0  0  0
   10.1478  -18.8763   27.9958 C   0  0  0  0  0  0  0  0  0  0  0  0
   11.3808  -18.4160   28.7136 C   0  0  0  0  0  0  0  0  0  0  0  0
   11.6624  -18.9080   29.9783 O   0  0  0  0  0  0  0  0  0  0  0  0
   12.1410  -17.5898   28.1566 O   0  0  0  0  0  0  0  0  0  0  0  0
  2 10  1  0
  2  1  1  1
  3  4  1  0
  3  2  1  0
  4  9  2  0
  4  5  1  0
  5  6  2  0
  6  7  1  0
  8  7  2  0
  9  8  1  0
 10 11  2  0
 12 10  1  0
 12 13  1  0
 13 14  1  1
 14 15  1  0
 16 15  1  0
 16 17  2  0
 18 13  1  0
 18 21  1  0
 19 18  2  0
 20 16  1  0
 22 21  1  0
 23 22  1  0
 23 24  1  0
 25 23  2  0
M  END
$$$$
