CPY.pdb
     RDKit          3D

 26 27  0  0  1  0  0  0  0  0999 V2000
    7.1611  -18.9502   19.7737 N   0  0  0  0  0  0  0  0  0  0  0  0
    6.9903  -18.0106   20.8449 C   0  0  1  0  0  0  0  0  0  0  0  0
    6.6601  -18.7583   22.1529 C   0  0  0  0  0  0  0  0  0  0  0  0
    4.9406  -19.3273   21.9685 S   0  0  0  0  0  0  0  0  0  0  0  0
    8.1141  -17.1091   21.0836 C   0  0  0  0  0  0  0  0  0  0  0  0
    9.2692  -17.5673   21.2410 O   0  0  0  0  0  0  0  0  0  0  0  0
    7.9352  -15.6854   21.1456 N   0  0  0  0  0  0  0  0  0  0  0  0
    6.7012  -15.0364   20.8516 C   0  0  0  0  0  0  0  0  0  0  0  0
    6.9816  -13.5628   20.8547 C   0  0  0  0  0  0  0  0  0  0  0  0
    8.2291  -13.4442   21.7008 C   0  0  0  0  0  0  0  0  0  0  0  0
    8.9538  -14.7434   21.4926 C   0  0  1  0  0  0  0  0  0  0  0  0
    9.5856  -15.0662   22.8171 C   0  0  0  0  0  0  0  0  0  0  0  0
   10.7268  -14.6298   23.0540 O   0  0  0  0  0  0  0  0  0  0  0  0
    6.1597  -10.7985   27.0329 O   0  0  0  0  0  0  0  0  0  0  0  0
    6.6581  -12.0820   26.8039 C   0  0  0  0  0  0  0  0  0  0  0  0
    8.0073  -12.3479   26.9215 C   0  0  0  0  0  0  0  0  0  0  0  0
    8.5247  -13.5934   26.7039 C   0  0  0  0  0  0  0  0  0  0  0  0
    7.7027  -14.6705   26.3477 C   0  0  0  0  0  0  0  0  0  0  0  0
    8.2883  -16.0093   26.1046 C   0  0  0  0  0  0  0  0  0  0  0  0
    9.4627  -15.9949   25.1571 C   0  0  2  0  0  0  0  0  0  0  0  0
    8.9290  -15.8441   23.7946 N   0  0  0  0  0  0  0  0  0  0  0  0
   10.1884  -17.2754   25.2817 C   0  0  0  0  0  0  0  0  0  0  0  0
   10.9324  -17.5180   26.4259 O   0  0  0  0  0  0  0  0  0  0  0  0
    6.3565  -14.3918   26.2331 C   0  0  0  0  0  0  0  0  0  0  0  0
    5.8305  -13.1262   26.4543 C   0  0  0  0  0  0  0  0  0  0  0  0
   10.1683  -18.1656   24.3990 O   0  0  0  0  0  0  0  0  0  0  0  0
  2  1  1  6
  2  5  1  0
  3  2  1  0
  4  3  1  0
  5  6  2  0
  7  5  1  0
  7 11  1  0
  8  9  1  0
  8  7  1  0
  9 10  1  0
 10 11  1  0
 11 12  1  1
 12 21  1  0
 13 12  2  0
 15 14  1  0
 16 15  2  0
 17 16  1  0
 18 24  1  0
 18 17  2  0
 19 18  1  0
 20 21  1  0
 20 19  1  1
 22 20  1  0
 22 23  1  0
 24 25  2  0
 25 15  1  0
 26 22  2  0
M  END
$$$$
