CPY.pdb
     RDKit          3D

 26 27  0  0  1  0  0  0  0  0999 V2000
   10.8877  -16.4797   17.5225 N   0  0  0  0  0  0  0  0  0  0  0  0
    9.7482  -16.6026   18.3863 C   0  0  1  0  0  0  0  0  0  0  0  0
    9.6122  -18.0598   18.8734 C   0  0  0  0  0  0  0  0  0  0  0  0
    8.1974  -18.0607   20.0193 S   0  0  0  0  0  0  0  0  0  0  0  0
    9.7294  -15.7112   19.5427 C   0  0  0  0  0  0  0  0  0  0  0  0
   10.7067  -15.6705   20.3251 O   0  0  0  0  0  0  0  0  0  0  0  0
    8.6041  -14.8624   19.8189 N   0  0  0  0  0  0  0  0  0  0  0  0
    7.4685  -14.7627   18.9640 C   0  0  0  0  0  0  0  0  0  0  0  0
    6.6197  -13.6520   19.5083 C   0  0  0  0  0  0  0  0  0  0  0  0
    7.0440  -13.5631   20.9568 C   0  0  0  0  0  0  0  0  0  0  0  0
    8.4779  -14.0104   20.9605 C   0  0  1  0  0  0  0  0  0  0  0  0
    8.6579  -14.7677   22.2456 C   0  0  0  0  0  0  0  0  0  0  0  0
    8.3283  -15.9674   22.2804 O   0  0  0  0  0  0  0  0  0  0  0  0
   10.9264  -16.3283   30.7792 O   0  0  0  0  0  0  0  0  0  0  0  0
   10.7180  -15.7750   29.5147 C   0  0  0  0  0  0  0  0  0  0  0  0
   10.1273  -14.5357   29.3739 C   0  0  0  0  0  0  0  0  0  0  0  0
    9.9104  -13.9683   28.1503 C   0  0  0  0  0  0  0  0  0  0  0  0
   10.2808  -14.6236   26.9687 C   0  0  0  0  0  0  0  0  0  0  0  0
   10.0240  -13.9939   25.6526 C   0  0  0  0  0  0  0  0  0  0  0  0
    9.3102  -14.8969   24.6768 C   0  0  2  0  0  0  0  0  0  0  0  0
    9.1858  -14.1645   23.4071 N   0  0  0  0  0  0  0  0  0  0  0  0
    7.9720  -15.2140   25.2158 C   0  0  0  0  0  0  0  0  0  0  0  0
    7.8078  -16.3621   25.9752 O   0  0  0  0  0  0  0  0  0  0  0  0
   10.8697  -15.8615   27.1228 C   0  0  0  0  0  0  0  0  0  0  0  0
   11.0904  -16.4382   28.3663 C   0  0  0  0  0  0  0  0  0  0  0  0
    6.9644  -14.4935   25.0221 O   0  0  0  0  0  0  0  0  0  0  0  0
  2  1  1  1
  2  5  1  0
  3  2  1  0
  4  3  1  0
  5  6  2  0
  7  5  1  0
  7 11  1  0
  8  9  1  0
  8  7  1  0
  9 10  1  0
 10 11  1  0
 11 12  1  1
 12 21  1  0
 13 12  2  0
 15 14  1  0
 16 15  2  0
 17 16  1  0
 18 24  1  0
 18 17  2  0
 19 18  1  0
 20 21  1  0
 20 19  1  1
 22 20  1  0
 22 23  1  0
 24 25  2  0
 25 15  1  0
 26 22  2  0
M  END
$$$$
