CPY.pdb
     RDKit          3D

 26 27  0  0  1  0  0  0  0  0999 V2000
    7.0235  -19.2380   20.1301 N   0  0  0  0  0  0  0  0  0  0  0  0
    6.9086  -18.1643   21.0753 C   0  0  1  0  0  0  0  0  0  0  0  0
    6.5743  -18.7266   22.4721 C   0  0  0  0  0  0  0  0  0  0  0  0
    4.9638  -19.5561   22.2911 S   0  0  0  0  0  0  0  0  0  0  0  0
    8.0702  -17.2858   21.1822 C   0  0  0  0  0  0  0  0  0  0  0  0
    9.2237  -17.7692   21.2501 O   0  0  0  0  0  0  0  0  0  0  0  0
    7.9311  -15.8566   21.2132 N   0  0  0  0  0  0  0  0  0  0  0  0
    6.6964  -15.1837   20.9830 C   0  0  0  0  0  0  0  0  0  0  0  0
    7.0127  -13.7185   20.9230 C   0  0  0  0  0  0  0  0  0  0  0  0
    8.3170  -13.6093   21.6798 C   0  0  0  0  0  0  0  0  0  0  0  0
    8.9937  -14.9327   21.4628 C   0  0  1  0  0  0  0  0  0  0  0  0
    9.7055  -15.2345   22.7511 C   0  0  0  0  0  0  0  0  0  0  0  0
   10.8543  -14.7848   22.9157 O   0  0  0  0  0  0  0  0  0  0  0  0
    5.6081  -11.2502   26.4036 O   0  0  0  0  0  0  0  0  0  0  0  0
    6.3024  -12.4588   26.3280 C   0  0  0  0  0  0  0  0  0  0  0  0
    7.6697  -12.5012   26.5103 C   0  0  0  0  0  0  0  0  0  0  0  0
    8.3766  -13.6683   26.4425 C   0  0  0  0  0  0  0  0  0  0  0  0
    7.7412  -14.8894   26.1821 C   0  0  0  0  0  0  0  0  0  0  0  0
    8.5305  -16.1404   26.1008 C   0  0  0  0  0  0  0  0  0  0  0  0
    9.6832  -16.0685   25.1296 C   0  0  2  0  0  0  0  0  0  0  0  0
    9.1153  -16.0073   23.7740 N   0  0  0  0  0  0  0  0  0  0  0  0
   10.5086  -17.2840   25.2823 C   0  0  0  0  0  0  0  0  0  0  0  0
   11.3072  -17.4173   26.4076 O   0  0  0  0  0  0  0  0  0  0  0  0
    6.3747  -14.8337   26.0014 C   0  0  0  0  0  0  0  0  0  0  0  0
    5.6562  -13.6478   26.0704 C   0  0  0  0  0  0  0  0  0  0  0  0
   10.5270  -18.2126   24.4403 O   0  0  0  0  0  0  0  0  0  0  0  0
  2  1  1  6
  2  5  1  0
  3  2  1  0
  4  3  1  0
  5  6  2  0
  7  5  1  0
  7 11  1  0
  8  9  1  0
  8  7  1  0
  9 10  1  0
 10 11  1  0
 11 12  1  1
 12 21  1  0
 13 12  2  0
 15 14  1  0
 16 15  2  0
 17 16  1  0
 18 24  1  0
 18 17  2  0
 19 18  1  0
 20 21  1  0
 20 19  1  1
 22 20  1  0
 22 23  1  0
 24 25  2  0
 25 15  1  0
 26 22  2  0
M  END
$$$$
