CPY.pdb
     RDKit          3D

 26 27  0  0  1  0  0  0  0  0999 V2000
    7.4989  -19.4455   21.7497 N   0  0  0  0  0  0  0  0  0  0  0  0
    6.8704  -18.4148   22.5259 C   0  0  1  0  0  0  0  0  0  0  0  0
    6.0948  -19.0414   23.7026 C   0  0  0  0  0  0  0  0  0  0  0  0
    5.2173  -17.6594   24.4993 S   0  0  0  0  0  0  0  0  0  0  0  0
    7.7594  -17.3773   23.0415 C   0  0  0  0  0  0  0  0  0  0  0  0
    8.5870  -17.6451   23.9428 O   0  0  0  0  0  0  0  0  0  0  0  0
    7.7152  -16.0324   22.5395 N   0  0  0  0  0  0  0  0  0  0  0  0
    6.8904  -15.6286   21.4500 C   0  0  0  0  0  0  0  0  0  0  0  0
    7.2702  -14.2137   21.1275 C   0  0  0  0  0  0  0  0  0  0  0  0
    7.8915  -13.7150   22.4126 C   0  0  0  0  0  0  0  0  0  0  0  0
    8.4860  -14.9399   23.0471 C   0  0  1  0  0  0  0  0  0  0  0  0
    8.2924  -14.7590   24.5260 C   0  0  0  0  0  0  0  0  0  0  0  0
    7.1350  -14.6199   24.9619 O   0  0  0  0  0  0  0  0  0  0  0  0
    9.7726  -20.0864   28.7921 O   0  0  0  0  0  0  0  0  0  0  0  0
    9.4317  -18.7608   28.5185 C   0  0  0  0  0  0  0  0  0  0  0  0
    8.5541  -18.4525   27.4990 C   0  0  0  0  0  0  0  0  0  0  0  0
    8.2013  -17.1653   27.2075 C   0  0  0  0  0  0  0  0  0  0  0  0
    8.7185  -16.0865   27.9365 C   0  0  0  0  0  0  0  0  0  0  0  0
    8.3309  -14.6983   27.5938 C   0  0  0  0  0  0  0  0  0  0  0  0
    9.3206  -13.9959   26.6971 C   0  0  2  0  0  0  0  0  0  0  0  0
    9.3757  -14.7419   25.4304 N   0  0  0  0  0  0  0  0  0  0  0  0
   10.6444  -14.0057   27.3525 C   0  0  0  0  0  0  0  0  0  0  0  0
   10.7982  -13.3547   28.5667 O   0  0  0  0  0  0  0  0  0  0  0  0
    9.5946  -16.4077   28.9524 C   0  0  0  0  0  0  0  0  0  0  0  0
    9.9531  -17.7157   29.2489 C   0  0  0  0  0  0  0  0  0  0  0  0
   11.6484  -14.5770   26.8653 O   0  0  0  0  0  0  0  0  0  0  0  0
  2  1  1  1
  2  5  1  0
  3  2  1  0
  4  3  1  0
  5  6  2  0
  7  5  1  0
  7 11  1  0
  8  9  1  0
  8  7  1  0
  9 10  1  0
 10 11  1  0
 11 12  1  1
 12 21  1  0
 13 12  2  0
 15 14  1  0
 16 15  2  0
 17 16  1  0
 18 24  1  0
 18 17  2  0
 19 18  1  0
 20 21  1  0
 20 19  1  1
 22 20  1  0
 22 23  1  0
 24 25  2  0
 25 15  1  0
 26 22  2  0
M  END
$$$$
