CPY.pdb
     RDKit          3D

 26 27  0  0  1  0  0  0  0  0999 V2000
   13.1080  -14.4088   18.3363 N   0  0  0  0  0  0  0  0  0  0  0  0
   11.8406  -15.0344   18.5852 C   0  0  1  0  0  0  0  0  0  0  0  0
   11.9921  -16.5685   18.5340 C   0  0  0  0  0  0  0  0  0  0  0  0
   10.3410  -17.2344   18.9146 S   0  0  0  0  0  0  0  0  0  0  0  0
   11.1844  -14.6631   19.8358 C   0  0  0  0  0  0  0  0  0  0  0  0
   11.8228  -14.6793   20.9134 O   0  0  0  0  0  0  0  0  0  0  0  0
    9.8027  -14.2725   19.8722 N   0  0  0  0  0  0  0  0  0  0  0  0
    8.9864  -14.1681   18.7090 C   0  0  0  0  0  0  0  0  0  0  0  0
    7.6861  -13.5651   19.1519 C   0  0  0  0  0  0  0  0  0  0  0  0
    7.6366  -13.8826   20.6293 C   0  0  0  0  0  0  0  0  0  0  0  0
    9.0762  -13.9308   21.0556 C   0  0  1  0  0  0  0  0  0  0  0  0
    9.1511  -15.0173   22.0906 C   0  0  0  0  0  0  0  0  0  0  0  0
    9.3097  -16.1917   21.7101 O   0  0  0  0  0  0  0  0  0  0  0  0
    5.2958  -11.2646   26.8767 O   0  0  0  0  0  0  0  0  0  0  0  0
    6.3065  -12.1905   26.6127 C   0  0  0  0  0  0  0  0  0  0  0  0
    6.0538  -13.5464   26.6624 C   0  0  0  0  0  0  0  0  0  0  0  0
    7.0219  -14.4763   26.4089 C   0  0  0  0  0  0  0  0  0  0  0  0
    8.3299  -14.0945   26.0834 C   0  0  0  0  0  0  0  0  0  0  0  0
    9.3660  -15.1213   25.8249 C   0  0  0  0  0  0  0  0  0  0  0  0
    9.2254  -15.8012   24.4851 C   0  0  2  0  0  0  0  0  0  0  0  0
    9.0480  -14.7490   23.4724 N   0  0  0  0  0  0  0  0  0  0  0  0
    8.0382  -16.6794   24.5212 C   0  0  0  0  0  0  0  0  0  0  0  0
    8.1222  -17.8968   25.1791 O   0  0  0  0  0  0  0  0  0  0  0  0
    8.5698  -12.7368   26.0373 C   0  0  0  0  0  0  0  0  0  0  0  0
    7.5861  -11.7916   26.2947 C   0  0  0  0  0  0  0  0  0  0  0  0
    6.9457  -16.3810   23.9833 O   0  0  0  0  0  0  0  0  0  0  0  0
  2  1  1  1
  2  5  1  0
  3  2  1  0
  4  3  1  0
  5  6  2  0
  7  5  1  0
  7 11  1  0
  8  9  1  0
  8  7  1  0
  9 10  1  0
 10 11  1  0
 11 12  1  1
 12 21  1  0
 13 12  2  0
 15 14  1  0
 16 15  2  0
 17 16  1  0
 18 24  1  0
 18 17  2  0
 19 18  1  0
 20 21  1  0
 20 19  1  1
 22 20  1  0
 22 23  1  0
 24 25  2  0
 25 15  1  0
 26 22  2  0
M  END
$$$$
