CPY.pdb
     RDKit          3D

 26 27  0  0  1  0  0  0  0  0999 V2000
   11.1871  -17.2616   18.0965 N   0  0  0  0  0  0  0  0  0  0  0  0
    9.9984  -17.5030   18.8636 C   0  0  1  0  0  0  0  0  0  0  0  0
    9.9970  -18.9531   19.3892 C   0  0  0  0  0  0  0  0  0  0  0  0
    8.4860  -19.1063   20.3932 S   0  0  0  0  0  0  0  0  0  0  0  0
    9.7686  -16.5920   19.9815 C   0  0  0  0  0  0  0  0  0  0  0  0
   10.6618  -16.4075   20.8400 O   0  0  0  0  0  0  0  0  0  0  0  0
    8.5267  -15.8866   20.1328 N   0  0  0  0  0  0  0  0  0  0  0  0
    7.4881  -15.9092   19.1576 C   0  0  0  0  0  0  0  0  0  0  0  0
    6.4583  -14.9150   19.6064 C   0  0  0  0  0  0  0  0  0  0  0  0
    6.7074  -14.7980   21.0931 C   0  0  0  0  0  0  0  0  0  0  0  0
    8.1753  -15.0725   21.2548 C   0  0  1  0  0  0  0  0  0  0  0  0
    8.3022  -15.8222   22.5507 C   0  0  0  0  0  0  0  0  0  0  0  0
    8.2311  -17.0646   22.5288 O   0  0  0  0  0  0  0  0  0  0  0  0
    4.9740  -11.0451   27.2028 O   0  0  0  0  0  0  0  0  0  0  0  0
    5.9596  -11.9901   26.9131 C   0  0  0  0  0  0  0  0  0  0  0  0
    6.7321  -12.5366   27.9177 C   0  0  0  0  0  0  0  0  0  0  0  0
    7.7037  -13.4632   27.6656 C   0  0  0  0  0  0  0  0  0  0  0  0
    7.9649  -13.9072   26.3627 C   0  0  0  0  0  0  0  0  0  0  0  0
    9.0323  -14.9035   26.1124 C   0  0  0  0  0  0  0  0  0  0  0  0
    8.6857  -15.9075   25.0404 C   0  0  2  0  0  0  0  0  0  0  0  0
    8.4983  -15.1652   23.7842 N   0  0  0  0  0  0  0  0  0  0  0  0
    7.4333  -16.5928   25.4195 C   0  0  0  0  0  0  0  0  0  0  0  0
    6.2775  -16.3267   24.7017 O   0  0  0  0  0  0  0  0  0  0  0  0
    7.1865  -13.3533   25.3676 C   0  0  0  0  0  0  0  0  0  0  0  0
    6.1989  -12.4117   25.6237 C   0  0  0  0  0  0  0  0  0  0  0  0
    7.3570  -17.4115   26.3659 O   0  0  0  0  0  0  0  0  0  0  0  0
  2  1  1  1
  2  5  1  0
  3  2  1  0
  4  3  1  0
  5  6  2  0
  7  5  1  0
  7 11  1  0
  8  9  1  0
  8  7  1  0
  9 10  1  0
 10 11  1  0
 11 12  1  1
 12 21  1  0
 13 12  2  0
 15 14  1  0
 16 15  2  0
 17 16  1  0
 18 24  1  0
 18 17  2  0
 19 18  1  0
 20 21  1  0
 20 19  1  1
 22 20  1  0
 22 23  1  0
 24 25  2  0
 25 15  1  0
 26 22  2  0
M  END
$$$$
