CPY.pdb
     RDKit          3D

 26 27  0  0  1  0  0  0  0  0999 V2000
    8.2368  -12.3848   19.0521 N   0  0  0  0  0  0  0  0  0  0  0  0
    8.6488  -13.7313   19.3295 C   0  0  1  0  0  0  0  0  0  0  0  0
   10.1885  -13.8218   19.3244 C   0  0  0  0  0  0  0  0  0  0  0  0
   10.6417  -14.3262   17.6348 S   0  0  0  0  0  0  0  0  0  0  0  0
    8.1430  -14.3063   20.5728 C   0  0  0  0  0  0  0  0  0  0  0  0
    8.1197  -13.6222   21.6218 O   0  0  0  0  0  0  0  0  0  0  0  0
    7.6620  -15.6582   20.6344 N   0  0  0  0  0  0  0  0  0  0  0  0
    7.5466  -16.5024   19.4922 C   0  0  0  0  0  0  0  0  0  0  0  0
    6.8444  -17.7467   19.9493 C   0  0  0  0  0  0  0  0  0  0  0  0
    7.1045  -17.7700   21.4385 C   0  0  0  0  0  0  0  0  0  0  0  0
    7.2311  -16.3239   21.8245 C   0  0  1  0  0  0  0  0  0  0  0  0
    8.2821  -16.2863   22.8975 C   0  0  0  0  0  0  0  0  0  0  0  0
    9.4795  -16.2899   22.5580 O   0  0  0  0  0  0  0  0  0  0  0  0
    6.0776  -10.5270   26.1686 O   0  0  0  0  0  0  0  0  0  0  0  0
    6.6063  -11.8144   26.2771 C   0  0  0  0  0  0  0  0  0  0  0  0
    7.9693  -12.0251   26.2303 C   0  0  0  0  0  0  0  0  0  0  0  0
    8.5163  -13.2726   26.3340 C   0  0  0  0  0  0  0  0  0  0  0  0
    7.7120  -14.4085   26.4942 C   0  0  0  0  0  0  0  0  0  0  0  0
    8.3274  -15.7525   26.5918 C   0  0  0  0  0  0  0  0  0  0  0  0
    8.9896  -16.2106   25.3156 C   0  0  2  0  0  0  0  0  0  0  0  0
    7.9555  -16.2471   24.2700 N   0  0  0  0  0  0  0  0  0  0  0  0
    9.5468  -17.5619   25.5290 C   0  0  0  0  0  0  0  0  0  0  0  0
   10.7219  -17.6981   26.2518 O   0  0  0  0  0  0  0  0  0  0  0  0
    6.3516  -14.1847   26.5392 C   0  0  0  0  0  0  0  0  0  0  0  0
    5.7955  -12.9169   26.4340 C   0  0  0  0  0  0  0  0  0  0  0  0
    9.0092  -18.6048   25.0873 O   0  0  0  0  0  0  0  0  0  0  0  0
  2  1  1  1
  2  5  1  0
  3  2  1  0
  4  3  1  0
  5  6  2  0
  7  5  1  0
  7 11  1  0
  8  9  1  0
  8  7  1  0
  9 10  1  0
 10 11  1  0
 11 12  1  1
 12 21  1  0
 13 12  2  0
 15 14  1  0
 16 15  2  0
 17 16  1  0
 18 24  1  0
 18 17  2  0
 19 18  1  0
 20 21  1  0
 20 19  1  1
 22 20  1  0
 22 23  1  0
 24 25  2  0
 25 15  1  0
 26 22  2  0
M  END
$$$$
