CPY.pdb
     RDKit          3D

 26 27  0  0  1  0  0  0  0  0999 V2000
   10.2547  -17.0502   16.6497 N   0  0  0  0  0  0  0  0  0  0  0  0
    9.1627  -16.7196   17.5202 C   0  0  1  0  0  0  0  0  0  0  0  0
    8.3552  -17.9900   17.8568 C   0  0  0  0  0  0  0  0  0  0  0  0
    7.3041  -18.2991   16.4027 S   0  0  0  0  0  0  0  0  0  0  0  0
    9.5240  -16.0431   18.7628 C   0  0  0  0  0  0  0  0  0  0  0  0
   10.5167  -16.4247   19.4245 O   0  0  0  0  0  0  0  0  0  0  0  0
    8.7630  -14.9320   19.2621 N   0  0  0  0  0  0  0  0  0  0  0  0
    7.7695  -14.2550   18.4973 C   0  0  0  0  0  0  0  0  0  0  0  0
    7.3495  -13.0612   19.3029 C   0  0  0  0  0  0  0  0  0  0  0  0
    7.7230  -13.4428   20.7174 C   0  0  0  0  0  0  0  0  0  0  0  0
    8.9042  -14.3581   20.5644 C   0  0  1  0  0  0  0  0  0  0  0  0
    8.7557  -15.3881   21.6480 C   0  0  0  0  0  0  0  0  0  0  0  0
    7.9414  -16.3145   21.4809 O   0  0  0  0  0  0  0  0  0  0  0  0
    5.7833  -11.7787   28.7957 O   0  0  0  0  0  0  0  0  0  0  0  0
    6.3370  -12.2704   27.6124 C   0  0  0  0  0  0  0  0  0  0  0  0
    7.6217  -11.9320   27.2389 C   0  0  0  0  0  0  0  0  0  0  0  0
    8.1907  -12.3974   26.0874 C   0  0  0  0  0  0  0  0  0  0  0  0
    7.4906  -13.2485   25.2225 C   0  0  0  0  0  0  0  0  0  0  0  0
    8.1240  -13.7304   23.9730 C   0  0  0  0  0  0  0  0  0  0  0  0
    8.8867  -15.0219   24.1384 C   0  0  2  0  0  0  0  0  0  0  0  0
    9.5063  -15.3380   22.8421 N   0  0  0  0  0  0  0  0  0  0  0  0
    7.9382  -16.0868   24.5234 C   0  0  0  0  0  0  0  0  0  0  0  0
    7.9813  -16.5911   25.8140 O   0  0  0  0  0  0  0  0  0  0  0  0
    6.2076  -13.5791   25.6067 C   0  0  0  0  0  0  0  0  0  0  0  0
    5.6293  -13.1063   26.7770 C   0  0  0  0  0  0  0  0  0  0  0  0
    7.0862  -16.5654   23.7380 O   0  0  0  0  0  0  0  0  0  0  0  0
  2  1  1  1
  2  5  1  0
  3  2  1  0
  4  3  1  0
  5  6  2  0
  7  5  1  0
  7 11  1  0
  8  9  1  0
  8  7  1  0
  9 10  1  0
 10 11  1  0
 11 12  1  1
 12 21  1  0
 13 12  2  0
 15 14  1  0
 16 15  2  0
 17 16  1  0
 18 24  1  0
 18 17  2  0
 19 18  1  0
 20 21  1  0
 20 19  1  6
 22 20  1  0
 22 23  1  0
 24 25  2  0
 25 15  1  0
 26 22  2  0
M  END
$$$$
