CPY.pdb
     RDKit          3D

 26 27  0  0  1  0  0  0  0  0999 V2000
    5.8201  -18.3237   18.8933 N   0  0  0  0  0  0  0  0  0  0  0  0
    5.6357  -17.2386   19.8143 C   0  0  1  0  0  0  0  0  0  0  0  0
    4.7530  -17.6943   20.9942 C   0  0  0  0  0  0  0  0  0  0  0  0
    3.0619  -17.7953   20.3274 S   0  0  0  0  0  0  0  0  0  0  0  0
    6.8585  -16.6377   20.3399 C   0  0  0  0  0  0  0  0  0  0  0  0
    7.7988  -17.3634   20.7375 O   0  0  0  0  0  0  0  0  0  0  0  0
    7.0219  -15.2129   20.4182 N   0  0  0  0  0  0  0  0  0  0  0  0
    6.1636  -14.2875   19.7570 C   0  0  0  0  0  0  0  0  0  0  0  0
    6.7757  -12.9303   19.9402 C   0  0  0  0  0  0  0  0  0  0  0  0
    7.6424  -13.0985   21.1676 C   0  0  0  0  0  0  0  0  0  0  0  0
    8.0544  -14.5429   21.1464 C   0  0  1  0  0  0  0  0  0  0  0  0
    8.0903  -14.9704   22.5863 C   0  0  0  0  0  0  0  0  0  0  0  0
    7.0170  -15.0442   23.2120 O   0  0  0  0  0  0  0  0  0  0  0  0
    8.3589  -19.9112   29.5505 O   0  0  0  0  0  0  0  0  0  0  0  0
    8.4189  -19.2455   28.3250 C   0  0  0  0  0  0  0  0  0  0  0  0
    7.5405  -18.2220   28.0327 C   0  0  0  0  0  0  0  0  0  0  0  0
    7.5747  -17.5520   26.8427 C   0  0  0  0  0  0  0  0  0  0  0  0
    8.5119  -17.8750   25.8528 C   0  0  0  0  0  0  0  0  0  0  0  0
    8.5216  -17.1427   24.5650 C   0  0  0  0  0  0  0  0  0  0  0  0
    9.3136  -15.8588   24.6031 C   0  0  2  0  0  0  0  0  0  0  0  0
    9.2960  -15.2888   23.2471 N   0  0  0  0  0  0  0  0  0  0  0  0
   10.7000  -16.1687   25.0080 C   0  0  0  0  0  0  0  0  0  0  0  0
   11.6185  -16.5342   24.0362 O   0  0  0  0  0  0  0  0  0  0  0  0
    9.3839  -18.8998   26.1568 C   0  0  0  0  0  0  0  0  0  0  0  0
    9.3494  -19.5807   27.3662 C   0  0  0  0  0  0  0  0  0  0  0  0
   11.0964  -16.1186   26.1964 O   0  0  0  0  0  0  0  0  0  0  0  0
  2  1  1  6
  2  5  1  0
  3  2  1  0
  4  3  1  0
  5  6  2  0
  7  5  1  0
  7 11  1  0
  8  9  1  0
  8  7  1  0
  9 10  1  0
 10 11  1  0
 11 12  1  1
 12 21  1  0
 13 12  2  0
 15 14  1  0
 16 15  2  0
 17 16  1  0
 18 24  1  0
 18 17  2  0
 19 18  1  0
 20 21  1  0
 20 19  1  6
 22 20  1  0
 22 23  1  0
 24 25  2  0
 25 15  1  0
 26 22  2  0
M  END
$$$$
