CPY.pdb
     RDKit          3D

 26 27  0  0  1  0  0  0  0  0999 V2000
    7.6108  -12.6674   18.4321 N   0  0  0  0  0  0  0  0  0  0  0  0
    8.3420  -13.8435   18.8089 C   0  0  1  0  0  0  0  0  0  0  0  0
    9.8576  -13.5714   18.7206 C   0  0  0  0  0  0  0  0  0  0  0  0
   10.6619  -15.1405   19.1740 S   0  0  0  0  0  0  0  0  0  0  0  0
    8.0328  -14.3874   20.1283 C   0  0  0  0  0  0  0  0  0  0  0  0
    8.1200  -13.6631   21.1466 O   0  0  0  0  0  0  0  0  0  0  0  0
    7.6243  -15.7534   20.3011 N   0  0  0  0  0  0  0  0  0  0  0  0
    7.4083  -16.6507   19.2154 C   0  0  0  0  0  0  0  0  0  0  0  0
    6.8240  -17.9009   19.8036 C   0  0  0  0  0  0  0  0  0  0  0  0
    7.2650  -17.8486   21.2489 C   0  0  0  0  0  0  0  0  0  0  0  0
    7.3726  -16.3830   21.5602 C   0  0  1  0  0  0  0  0  0  0  0  0
    8.5441  -16.2566   22.4923 C   0  0  0  0  0  0  0  0  0  0  0  0
    9.6873  -16.4532   22.0413 O   0  0  0  0  0  0  0  0  0  0  0  0
    5.1004  -11.8200   27.2730 O   0  0  0  0  0  0  0  0  0  0  0  0
    6.2213  -12.4344   26.7121 C   0  0  0  0  0  0  0  0  0  0  0  0
    7.2223  -12.9453   27.5131 C   0  0  0  0  0  0  0  0  0  0  0  0
    8.3307  -13.5520   26.9938 C   0  0  0  0  0  0  0  0  0  0  0  0
    8.5059  -13.6857   25.6103 C   0  0  0  0  0  0  0  0  0  0  0  0
    9.7223  -14.3362   25.0702 C   0  0  0  0  0  0  0  0  0  0  0  0
    9.5406  -15.8023   24.7626 C   0  0  2  0  0  0  0  0  0  0  0  0
    8.3892  -15.9237   23.8551 N   0  0  0  0  0  0  0  0  0  0  0  0
    9.2733  -16.5221   26.0245 C   0  0  0  0  0  0  0  0  0  0  0  0
    8.0275  -17.0983   26.2189 O   0  0  0  0  0  0  0  0  0  0  0  0
    7.4988  -13.1707   24.8207 C   0  0  0  0  0  0  0  0  0  0  0  0
    6.3722  -12.5543   25.3482 C   0  0  0  0  0  0  0  0  0  0  0  0
   10.1210  -16.6420   26.9404 O   0  0  0  0  0  0  0  0  0  0  0  0
  2  1  1  1
  2  5  1  0
  3  2  1  0
  4  3  1  0
  5  6  2  0
  7  5  1  0
  7 11  1  0
  8  9  1  0
  8  7  1  0
  9 10  1  0
 10 11  1  0
 11 12  1  1
 12 21  1  0
 13 12  2  0
 15 14  1  0
 16 15  2  0
 17 16  1  0
 18 24  1  0
 18 17  2  0
 19 18  1  0
 20 21  1  0
 20 19  1  1
 22 20  1  0
 22 23  1  0
 24 25  2  0
 25 15  1  0
 26 22  2  0
M  END
$$$$
