CPY.pdb
     RDKit          3D

 26 27  0  0  1  0  0  0  0  0999 V2000
   10.6531  -15.7707   17.9752 N   0  0  0  0  0  0  0  0  0  0  0  0
    9.6726  -16.2544   18.9049 C   0  0  1  0  0  0  0  0  0  0  0  0
    9.6143  -17.7949   18.8540 C   0  0  0  0  0  0  0  0  0  0  0  0
    8.8072  -18.2003   17.2732 S   0  0  0  0  0  0  0  0  0  0  0  0
    9.8493  -15.8311   20.2912 C   0  0  0  0  0  0  0  0  0  0  0  0
   10.9993  -15.6707   20.7611 O   0  0  0  0  0  0  0  0  0  0  0  0
    8.7254  -15.5879   21.1517 N   0  0  0  0  0  0  0  0  0  0  0  0
    7.3791  -15.5370   20.6878 C   0  0  0  0  0  0  0  0  0  0  0  0
    6.5434  -15.0856   21.8490 C   0  0  0  0  0  0  0  0  0  0  0  0
    7.3867  -15.4475   23.0506 C   0  0  0  0  0  0  0  0  0  0  0  0
    8.8039  -15.3570   22.5609 C   0  0  1  0  0  0  0  0  0  0  0  0
    9.5428  -16.4582   23.2672 C   0  0  0  0  0  0  0  0  0  0  0  0
    9.5487  -17.5934   22.7570 O   0  0  0  0  0  0  0  0  0  0  0  0
    9.5436  -13.8747   30.3507 O   0  0  0  0  0  0  0  0  0  0  0  0
   10.1633  -14.5571   29.3025 C   0  0  0  0  0  0  0  0  0  0  0  0
   10.3339  -13.9572   28.0714 C   0  0  0  0  0  0  0  0  0  0  0  0
   10.9365  -14.5991   27.0269 C   0  0  0  0  0  0  0  0  0  0  0  0
   11.4145  -15.9096   27.1567 C   0  0  0  0  0  0  0  0  0  0  0  0
   12.0532  -16.5898   26.0060 C   0  0  0  0  0  0  0  0  0  0  0  0
   11.0738  -17.2836   25.0914 C   0  0  2  0  0  0  0  0  0  0  0  0
   10.2260  -16.2463   24.4838 N   0  0  0  0  0  0  0  0  0  0  0  0
   10.2497  -18.2100   25.8943 C   0  0  0  0  0  0  0  0  0  0  0  0
   10.8252  -19.3746   26.3782 O   0  0  0  0  0  0  0  0  0  0  0  0
   11.2376  -16.4983   28.3916 C   0  0  0  0  0  0  0  0  0  0  0  0
   10.6254  -15.8460   29.4534 C   0  0  0  0  0  0  0  0  0  0  0  0
    9.0440  -17.9986   26.1653 O   0  0  0  0  0  0  0  0  0  0  0  0
  2  1  1  6
  2  5  1  0
  3  2  1  0
  4  3  1  0
  5  6  2  0
  7  5  1  0
  7 11  1  0
  8  9  1  0
  8  7  1  0
  9 10  1  0
 10 11  1  0
 11 12  1  1
 12 21  1  0
 13 12  2  0
 15 14  1  0
 16 15  2  0
 17 16  1  0
 18 24  1  0
 18 17  2  0
 19 18  1  0
 20 21  1  0
 20 19  1  1
 22 20  1  0
 22 23  1  0
 24 25  2  0
 25 15  1  0
 26 22  2  0
M  END
$$$$
