CPY.pdb
     RDKit          3D

 26 27  0  0  1  0  0  0  0  0999 V2000
    7.7581  -12.6746   18.5118 N   0  0  0  0  0  0  0  0  0  0  0  0
    8.1487  -14.0343   18.7528 C   0  0  1  0  0  0  0  0  0  0  0  0
    9.6571  -14.2046   18.4796 C   0  0  0  0  0  0  0  0  0  0  0  0
    9.7925  -14.5661   16.7004 S   0  0  0  0  0  0  0  0  0  0  0  0
    7.8447  -14.5557   20.0826 C   0  0  0  0  0  0  0  0  0  0  0  0
    7.9225  -13.8106   21.0864 O   0  0  0  0  0  0  0  0  0  0  0  0
    7.4520  -15.9228   20.2819 N   0  0  0  0  0  0  0  0  0  0  0  0
    7.2518  -16.8449   19.2142 C   0  0  0  0  0  0  0  0  0  0  0  0
    6.6800  -18.0897   19.8257 C   0  0  0  0  0  0  0  0  0  0  0  0
    7.1138  -18.0021   21.2715 C   0  0  0  0  0  0  0  0  0  0  0  0
    7.2022  -16.5292   21.5527 C   0  0  1  0  0  0  0  0  0  0  0  0
    8.3679  -16.3692   22.4870 C   0  0  0  0  0  0  0  0  0  0  0  0
    9.5091  -16.2634   22.0019 O   0  0  0  0  0  0  0  0  0  0  0  0
    5.0897  -11.7151   26.5826 O   0  0  0  0  0  0  0  0  0  0  0  0
    6.1907  -12.4906   26.2150 C   0  0  0  0  0  0  0  0  0  0  0  0
    7.4130  -11.9047   25.9556 C   0  0  0  0  0  0  0  0  0  0  0  0
    8.5082  -12.6369   25.5940 C   0  0  0  0  0  0  0  0  0  0  0  0
    8.4422  -14.0307   25.4682 C   0  0  0  0  0  0  0  0  0  0  0  0
    9.6401  -14.8022   25.0626 C   0  0  0  0  0  0  0  0  0  0  0  0
    9.3616  -16.2620   24.8010 C   0  0  2  0  0  0  0  0  0  0  0  0
    8.2096  -16.3353   23.8890 N   0  0  0  0  0  0  0  0  0  0  0  0
    9.0395  -16.9206   26.0834 C   0  0  0  0  0  0  0  0  0  0  0  0
   10.0653  -17.1948   26.9746 O   0  0  0  0  0  0  0  0  0  0  0  0
    7.2152  -14.6041   25.7297 C   0  0  0  0  0  0  0  0  0  0  0  0
    6.1021  -13.8601   26.0972 C   0  0  0  0  0  0  0  0  0  0  0  0
    7.8757  -17.2492   26.4141 O   0  0  0  0  0  0  0  0  0  0  0  0
  2  1  1  1
  2  5  1  0
  3  2  1  0
  4  3  1  0
  5  6  2  0
  7  5  1  0
  7 11  1  0
  8  9  1  0
  8  7  1  0
  9 10  1  0
 10 11  1  0
 11 12  1  1
 12 21  1  0
 13 12  2  0
 15 14  1  0
 16 15  2  0
 17 16  1  0
 18 24  1  0
 18 17  2  0
 19 18  1  0
 20 21  1  0
 20 19  1  1
 22 20  1  0
 22 23  1  0
 24 25  2  0
 25 15  1  0
 26 22  2  0
M  END
$$$$
