EPK.pdb
     RDKit          3D

 26 26  0  0  1  0  0  0  0  0999 V2000
   21.4739  -21.2871  -14.0115 N   0  0  0  0  0  0  0  0  0  0  0  0
   21.1117  -20.6793  -12.7788 C   0  0  1  0  0  0  0  0  0  0  0  0
   19.8227  -19.9043  -13.0144 C   0  0  0  0  0  0  0  0  0  0  0  0
   18.6804  -20.8265  -12.7047 C   0  0  0  0  0  0  0  0  0  0  0  0
   17.3623  -20.1896  -12.8860 C   0  0  0  0  0  0  0  0  0  0  0  0
   16.8086  -19.6859  -11.8776 O   0  0  0  0  0  0  0  0  0  0  0  0
   21.0353  -21.5511  -11.6098 C   0  0  0  0  0  0  0  0  0  0  0  0
   20.8815  -22.7983  -11.8724 O   0  0  0  0  0  0  0  0  0  0  0  0
   16.6959  -20.1116  -14.0984 O   0  0  0  0  0  0  0  0  0  0  0  0
   21.1107  -21.1792  -10.2518 N   0  0  0  0  0  0  0  0  0  0  0  0
   21.0749  -19.9026   -9.5809 C   0  0  0  0  0  0  0  0  0  0  0  0
   22.3170  -20.0253   -8.6837 C   0  0  0  0  0  0  0  0  0  0  0  0
   22.1106  -21.4146   -8.1206 C   0  0  0  0  0  0  0  0  0  0  0  0
   21.2566  -22.1317   -9.1466 C   0  0  1  0  0  0  0  0  0  0  0  0
   19.9269  -22.4736   -8.5749 C   0  0  0  0  0  0  0  0  0  0  0  0
   19.0133  -21.6436   -8.6638 O   0  0  0  0  0  0  0  0  0  0  0  0
   19.6572  -23.7038   -7.9337 N   0  0  0  0  0  0  0  0  0  0  0  0
   18.3699  -24.1452   -7.5050 C   0  0  1  0  0  0  0  0  0  0  0  0
   17.9395  -25.4623   -8.0716 C   0  0  0  0  0  0  0  0  0  0  0  0
   16.5313  -25.8362   -7.6791 C   0  0  0  0  0  0  0  0  0  0  0  0
   16.1781  -27.1977   -8.2346 C   0  0  0  0  0  0  0  0  0  0  0  0
   14.7789  -27.6237   -7.8961 C   0  0  0  0  0  0  0  0  0  0  0  0
   14.5813  -28.9578   -8.4831 N   0  0  0  0  0  0  0  0  0  0  0  0
   18.2768  -24.2542   -6.0153 C   0  0  0  0  0  0  0  0  0  0  0  0
   19.3170  -24.4878   -5.3589 O   0  0  0  0  0  0  0  0  0  0  0  0
   17.0990  -24.1109   -5.3168 O   0  0  0  0  0  0  0  0  0  0  0  0
  2  1  1  6
  2  7  1  0
  3  2  1  0
  4  3  1  0
  5  4  1  0
  6  5  2  0
  7 10  1  0
  8  7  2  0
  9  5  1  0
 10 11  1  0
 10 14  1  0
 11 12  1  0
 12 13  1  0
 14 13  1  0
 15 16  2  0
 14 15  1  1
 17 15  1  0
 18 17  1  0
 18 19  1  6
 20 19  1  0
 21 20  1  0
 22 21  1  0
 23 22  1  0
 24 18  1  0
 25 24  2  0
 26 24  1  0
M  END
$$$$
