EPK.pdb
     RDKit          3D

 26 26  0  0  1  0  0  0  0  0999 V2000
   28.1513  -21.2724  -17.2298 N   0  0  0  0  0  0  0  0  0  0  0  0
   27.5336  -20.4640  -16.2372 C   0  0  1  0  0  0  0  0  0  0  0  0
   26.7581  -19.3702  -16.9583 C   0  0  0  0  0  0  0  0  0  0  0  0
   27.6220  -18.1437  -16.9762 C   0  0  0  0  0  0  0  0  0  0  0  0
   27.1251  -17.1043  -17.8974 C   0  0  0  0  0  0  0  0  0  0  0  0
   25.8822  -16.9708  -18.0187 O   0  0  0  0  0  0  0  0  0  0  0  0
   26.7281  -21.1520  -15.2322 C   0  0  0  0  0  0  0  0  0  0  0  0
   26.1467  -22.2209  -15.6418 O   0  0  0  0  0  0  0  0  0  0  0  0
   27.9426  -16.2654  -18.6378 O   0  0  0  0  0  0  0  0  0  0  0  0
   26.5238  -20.7775  -13.8883 N   0  0  0  0  0  0  0  0  0  0  0  0
   27.0140  -19.6801  -13.0905 C   0  0  0  0  0  0  0  0  0  0  0  0
   27.5285  -20.4409  -11.8579 C   0  0  0  0  0  0  0  0  0  0  0  0
   26.3613  -21.3696  -11.6035 C   0  0  0  0  0  0  0  0  0  0  0  0
   25.6792  -21.5209  -12.9481 C   0  0  1  0  0  0  0  0  0  0  0  0
   24.3095  -20.9424  -12.9091 C   0  0  0  0  0  0  0  0  0  0  0  0
   24.1826  -19.7151  -13.0034 O   0  0  0  0  0  0  0  0  0  0  0  0
   23.1444  -21.7299  -12.7689 N   0  0  0  0  0  0  0  0  0  0  0  0
   21.8137  -21.2236  -12.6748 C   0  0  1  0  0  0  0  0  0  0  0  0
   20.7553  -22.2712  -12.5218 C   0  0  0  0  0  0  0  0  0  0  0  0
   19.3585  -21.7017  -12.5601 C   0  0  0  0  0  0  0  0  0  0  0  0
   18.3859  -22.7378  -13.0776 C   0  0  0  0  0  0  0  0  0  0  0  0
   16.9589  -22.2728  -13.0392 C   0  0  0  0  0  0  0  0  0  0  0  0
   16.1227  -23.4173  -13.4319 N   0  0  0  0  0  0  0  0  0  0  0  0
   21.6529  -20.2645  -11.5372 C   0  0  0  0  0  0  0  0  0  0  0  0
   20.7398  -19.4096  -11.5903 O   0  0  0  0  0  0  0  0  0  0  0  0
   22.4610  -20.2681  -10.4225 O   0  0  0  0  0  0  0  0  0  0  0  0
  2  1  1  6
  2  7  1  0
  3  2  1  0
  4  3  1  0
  5  4  1  0
  6  5  2  0
  7 10  1  0
  8  7  2  0
  9  5  1  0
 10 11  1  0
 10 14  1  0
 11 12  1  0
 12 13  1  0
 14 13  1  0
 15 16  2  0
 14 15  1  1
 17 15  1  0
 18 17  1  0
 18 19  1  1
 20 19  1  0
 21 20  1  0
 22 21  1  0
 23 22  1  0
 24 18  1  0
 25 24  2  0
 26 24  1  0
M  END
$$$$
