EPK.pdb
     RDKit          3D

 26 26  0  0  1  0  0  0  0  0999 V2000
   16.9534  -11.5379    6.0253 N   0  0  0  0  0  0  0  0  0  0  0  0
   17.7704  -12.5135    5.3923 C   0  0  1  0  0  0  0  0  0  0  0  0
   19.0424  -12.6477    6.2180 C   0  0  0  0  0  0  0  0  0  0  0  0
   19.7686  -11.3370    6.1414 C   0  0  0  0  0  0  0  0  0  0  0  0
   21.0232  -11.3291    6.9171 C   0  0  0  0  0  0  0  0  0  0  0  0
   21.9888  -12.0035    6.4811 O   0  0  0  0  0  0  0  0  0  0  0  0
   17.1528  -13.8044    5.1014 C   0  0  0  0  0  0  0  0  0  0  0  0
   16.1510  -14.1062    5.8454 O   0  0  0  0  0  0  0  0  0  0  0  0
   21.2045  -10.6247    8.0966 O   0  0  0  0  0  0  0  0  0  0  0  0
   17.5296  -14.7360    4.1124 N   0  0  0  0  0  0  0  0  0  0  0  0
   18.6207  -14.7785    3.1697 C   0  0  0  0  0  0  0  0  0  0  0  0
   17.8534  -15.0679    1.8695 C   0  0  0  0  0  0  0  0  0  0  0  0
   16.9391  -16.1805    2.3342 C   0  0  0  0  0  0  0  0  0  0  0  0
   16.7964  -15.9737    3.8285 C   0  0  1  0  0  0  0  0  0  0  0  0
   17.3918  -17.1143    4.5747 C   0  0  0  0  0  0  0  0  0  0  0  0
   18.6234  -17.1756    4.6780 O   0  0  0  0  0  0  0  0  0  0  0  0
   16.6157  -18.1331    5.1721 N   0  0  0  0  0  0  0  0  0  0  0  0
   17.1283  -19.1996    5.9693 C   0  0  1  0  0  0  0  0  0  0  0  0
   16.3536  -19.4736    7.2206 C   0  0  0  0  0  0  0  0  0  0  0  0
   16.5578  -18.4172    8.2785 C   0  0  0  0  0  0  0  0  0  0  0  0
   15.7847  -18.7733    9.5286 C   0  0  0  0  0  0  0  0  0  0  0  0
   15.9106  -17.7395   10.6099 C   0  0  0  0  0  0  0  0  0  0  0  0
   15.0698  -18.1851   11.7314 N   0  0  0  0  0  0  0  0  0  0  0  0
   17.2076  -20.4863    5.2089 C   0  0  0  0  0  0  0  0  0  0  0  0
   16.4039  -20.6852    4.2699 O   0  0  0  0  0  0  0  0  0  0  0  0
   18.1243  -21.4754    5.4860 O   0  0  0  0  0  0  0  0  0  0  0  0
  2  1  1  1
  2  7  1  0
  3  2  1  0
  4  3  1  0
  5  4  1  0
  6  5  2  0
  7 10  1  0
  8  7  2  0
  9  5  1  0
 10 11  1  0
 10 14  1  0
 11 12  1  0
 12 13  1  0
 14 13  1  0
 15 16  2  0
 14 15  1  1
 17 15  1  0
 18 17  1  0
 18 19  1  1
 20 19  1  0
 21 20  1  0
 22 21  1  0
 23 22  1  0
 24 18  1  0
 25 24  2  0
 26 24  1  0
M  END
$$$$
