EPK.pdb
     RDKit          3D

 26 26  0  0  1  0  0  0  0  0999 V2000
   27.2660  -21.6414  -16.9930 N   0  0  0  0  0  0  0  0  0  0  0  0
   27.1829  -20.8557  -15.8114 C   0  0  1  0  0  0  0  0  0  0  0  0
   26.7935  -19.4444  -16.2293 C   0  0  0  0  0  0  0  0  0  0  0  0
   25.7090  -19.5636  -17.2592 C   0  0  0  0  0  0  0  0  0  0  0  0
   25.1926  -18.2553  -17.7037 C   0  0  0  0  0  0  0  0  0  0  0  0
   25.9186  -17.5613  -18.4576 O   0  0  0  0  0  0  0  0  0  0  0  0
   26.3449  -21.3716  -14.7326 C   0  0  0  0  0  0  0  0  0  0  0  0
   25.6253  -22.3883  -15.0436 O   0  0  0  0  0  0  0  0  0  0  0  0
   23.9567  -17.7430  -17.3423 O   0  0  0  0  0  0  0  0  0  0  0  0
   26.2426  -20.8843  -13.4134 N   0  0  0  0  0  0  0  0  0  0  0  0
   26.8380  -19.7594  -12.7343 C   0  0  0  0  0  0  0  0  0  0  0  0
   27.3849  -20.4523  -11.4759 C   0  0  0  0  0  0  0  0  0  0  0  0
   26.1873  -21.2898  -11.0832 C   0  0  0  0  0  0  0  0  0  0  0  0
   25.4180  -21.5036  -12.3711 C   0  0  1  0  0  0  0  0  0  0  0  0
   24.0860  -20.8456  -12.3014 C   0  0  0  0  0  0  0  0  0  0  0  0
   23.9677  -19.6996  -12.7533 O   0  0  0  0  0  0  0  0  0  0  0  0
   22.9473  -21.4684  -11.7423 N   0  0  0  0  0  0  0  0  0  0  0  0
   21.6559  -20.8731  -11.6256 C   0  0  1  0  0  0  0  0  0  0  0  0
   20.5700  -21.8125  -11.2020 C   0  0  0  0  0  0  0  0  0  0  0  0
   20.1617  -22.7668  -12.2972 C   0  0  0  0  0  0  0  0  0  0  0  0
   19.0756  -23.6957  -11.8026 C   0  0  0  0  0  0  0  0  0  0  0  0
   18.5324  -24.5885  -12.8805 C   0  0  0  0  0  0  0  0  0  0  0  0
   17.4696  -25.4020  -12.2705 N   0  0  0  0  0  0  0  0  0  0  0  0
   21.6469  -19.7262  -10.6641 C   0  0  0  0  0  0  0  0  0  0  0  0
   20.6920  -18.9172  -10.6953 O   0  0  0  0  0  0  0  0  0  0  0  0
   22.6403  -19.5069   -9.7363 O   0  0  0  0  0  0  0  0  0  0  0  0
  2  1  1  6
  2  7  1  0
  3  2  1  0
  4  3  1  0
  5  4  1  0
  6  5  2  0
  7 10  1  0
  8  7  2  0
  9  5  1  0
 10 11  1  0
 10 14  1  0
 11 12  1  0
 12 13  1  0
 14 13  1  0
 15 16  2  0
 14 15  1  1
 17 15  1  0
 18 17  1  0
 18 19  1  1
 20 19  1  0
 21 20  1  0
 22 21  1  0
 23 22  1  0
 24 18  1  0
 25 24  2  0
 26 24  1  0
M  END
$$$$
