EPK.pdb
     RDKit          3D

 26 26  0  0  1  0  0  0  0  0999 V2000
   18.3355  -11.4996  -15.7438 N   0  0  0  0  0  0  0  0  0  0  0  0
   18.5854  -10.1331  -15.4429 C   0  0  1  0  0  0  0  0  0  0  0  0
   17.5338   -9.3068  -16.1704 C   0  0  0  0  0  0  0  0  0  0  0  0
   17.7228   -9.5330  -17.6415 C   0  0  0  0  0  0  0  0  0  0  0  0
   16.8056   -8.7270  -18.4693 C   0  0  0  0  0  0  0  0  0  0  0  0
   16.0340   -7.9273  -17.8843 O   0  0  0  0  0  0  0  0  0  0  0  0
   18.6989   -9.7776  -14.0312 C   0  0  0  0  0  0  0  0  0  0  0  0
   18.2329  -10.6503  -13.2129 O   0  0  0  0  0  0  0  0  0  0  0  0
   16.7412   -8.7961  -19.8518 O   0  0  0  0  0  0  0  0  0  0  0  0
   19.2535   -8.6040  -13.4806 N   0  0  0  0  0  0  0  0  0  0  0  0
   19.8346   -7.4230  -14.0711 C   0  0  0  0  0  0  0  0  0  0  0  0
   21.1505   -7.3363  -13.2814 C   0  0  0  0  0  0  0  0  0  0  0  0
   20.6393   -7.5568  -11.8743 C   0  0  0  0  0  0  0  0  0  0  0  0
   19.3527   -8.3395  -12.0418 C   0  0  1  0  0  0  0  0  0  0  0  0
   18.1881   -7.5391  -11.5780 C   0  0  0  0  0  0  0  0  0  0  0  0
   17.7882   -6.6089  -12.2895 O   0  0  0  0  0  0  0  0  0  0  0  0
   17.5157   -7.7912  -10.3608 N   0  0  0  0  0  0  0  0  0  0  0  0
   16.2866   -7.1889   -9.9579 C   0  0  1  0  0  0  0  0  0  0  0  0
   15.2797   -8.1410   -9.3914 C   0  0  0  0  0  0  0  0  0  0  0  0
   13.9983   -7.4599   -8.9779 C   0  0  0  0  0  0  0  0  0  0  0  0
   13.0230   -8.4740   -8.4234 C   0  0  0  0  0  0  0  0  0  0  0  0
   11.7431   -7.8539   -7.9423 C   0  0  0  0  0  0  0  0  0  0  0  0
   10.9204   -8.9399   -7.3882 N   0  0  0  0  0  0  0  0  0  0  0  0
   16.4923   -6.1087   -8.9428 C   0  0  0  0  0  0  0  0  0  0  0  0
   17.4594   -6.1964   -8.1526 O   0  0  0  0  0  0  0  0  0  0  0  0
   15.6694   -5.0110   -8.8264 O   0  0  0  0  0  0  0  0  0  0  0  0
  2  1  1  1
  2  7  1  0
  3  2  1  0
  4  3  1  0
  5  4  1  0
  6  5  2  0
  7 10  1  0
  8  7  2  0
  9  5  1  0
 10 11  1  0
 10 14  1  0
 11 12  1  0
 12 13  1  0
 14 13  1  0
 15 16  2  0
 14 15  1  6
 17 15  1  0
 18 17  1  0
 18 19  1  1
 20 19  1  0
 21 20  1  0
 22 21  1  0
 23 22  1  0
 24 18  1  0
 25 24  2  0
 26 24  1  0
M  END
$$$$
