EPK.pdb
     RDKit          3D

 26 26  0  0  1  0  0  0  0  0999 V2000
   23.7631  -21.0313  -10.1012 N   0  0  0  0  0  0  0  0  0  0  0  0
   24.0516  -21.1816  -11.4849 C   0  0  1  0  0  0  0  0  0  0  0  0
   22.7334  -21.0758  -12.2392 C   0  0  0  0  0  0  0  0  0  0  0  0
   22.0131  -22.3812  -12.0713 C   0  0  0  0  0  0  0  0  0  0  0  0
   20.5475  -22.2452  -12.1674 C   0  0  0  0  0  0  0  0  0  0  0  0
   19.8470  -23.2674  -11.9632 O   0  0  0  0  0  0  0  0  0  0  0  0
   25.0867  -20.3152  -12.0418 C   0  0  0  0  0  0  0  0  0  0  0  0
   25.2935  -19.2289  -11.3895 O   0  0  0  0  0  0  0  0  0  0  0  0
   19.8940  -21.0609  -12.4687 O   0  0  0  0  0  0  0  0  0  0  0  0
   25.8676  -20.5377  -13.1944 N   0  0  0  0  0  0  0  0  0  0  0  0
   25.9560  -21.6391  -14.1219 C   0  0  0  0  0  0  0  0  0  0  0  0
   27.4770  -21.8594  -14.1475 C   0  0  0  0  0  0  0  0  0  0  0  0
   27.9569  -20.4324  -14.2995 C   0  0  0  0  0  0  0  0  0  0  0  0
   26.8454  -19.5802  -13.7210 C   0  0  1  0  0  0  0  0  0  0  0  0
   26.2291  -18.7347  -14.7780 C   0  0  0  0  0  0  0  0  0  0  0  0
   25.5541  -19.2849  -15.6573 O   0  0  0  0  0  0  0  0  0  0  0  0
   26.3785  -17.3302  -14.8256 N   0  0  0  0  0  0  0  0  0  0  0  0
   25.9054  -16.4860  -15.8741 C   0  0  1  0  0  0  0  0  0  0  0  0
   26.1136  -15.0220  -15.6405 C   0  0  0  0  0  0  0  0  0  0  0  0
   25.6648  -14.1739  -16.8050 C   0  0  0  0  0  0  0  0  0  0  0  0
   25.9489  -12.7144  -16.5285 C   0  0  0  0  0  0  0  0  0  0  0  0
   25.5965  -11.8202  -17.6818 C   0  0  0  0  0  0  0  0  0  0  0  0
   25.8728  -10.4397  -17.2561 N   0  0  0  0  0  0  0  0  0  0  0  0
   26.5327  -16.8160  -17.1922 C   0  0  0  0  0  0  0  0  0  0  0  0
   25.8111  -16.8501  -18.2147 O   0  0  0  0  0  0  0  0  0  0  0  0
   27.8736  -17.0875  -17.3469 O   0  0  0  0  0  0  0  0  0  0  0  0
  2  1  1  1
  2  7  1  0
  3  2  1  0
  4  3  1  0
  5  4  1  0
  6  5  2  0
  7 10  1  0
  8  7  2  0
  9  5  1  0
 10 11  1  0
 10 14  1  0
 11 12  1  0
 12 13  1  0
 14 13  1  0
 15 16  2  0
 14 15  1  6
 17 15  1  0
 18 17  1  0
 18 19  1  1
 20 19  1  0
 21 20  1  0
 22 21  1  0
 23 22  1  0
 24 18  1  0
 25 24  2  0
 26 24  1  0
M  END
$$$$
