EPK.pdb
     RDKit          3D

 26 26  0  0  1  0  0  0  0  0999 V2000
   14.7463  -18.2797    6.1444 N   0  0  0  0  0  0  0  0  0  0  0  0
   15.9413  -19.0235    6.3417 C   0  0  1  0  0  0  0  0  0  0  0  0
   16.6655  -19.0854    5.0040 C   0  0  0  0  0  0  0  0  0  0  0  0
   15.7806  -19.8293    4.0476 C   0  0  0  0  0  0  0  0  0  0  0  0
   16.3075  -19.8438    2.6700 C   0  0  0  0  0  0  0  0  0  0  0  0
   17.5269  -19.5935    2.5036 O   0  0  0  0  0  0  0  0  0  0  0  0
   16.8137  -18.5950    7.4315 C   0  0  0  0  0  0  0  0  0  0  0  0
   16.5176  -17.4576    7.9481 O   0  0  0  0  0  0  0  0  0  0  0  0
   15.5424  -20.1161    1.5471 O   0  0  0  0  0  0  0  0  0  0  0  0
   17.9231  -19.2810    7.9670 N   0  0  0  0  0  0  0  0  0  0  0  0
   18.5592  -20.5313    7.6305 C   0  0  0  0  0  0  0  0  0  0  0  0
   18.6227  -21.1926    9.0167 C   0  0  0  0  0  0  0  0  0  0  0  0
   19.1453  -20.0394    9.8454 C   0  0  0  0  0  0  0  0  0  0  0  0
   18.7246  -18.7928    9.0936 C   0  0  1  0  0  0  0  0  0  0  0  0
   19.9159  -18.0502    8.6020 C   0  0  0  0  0  0  0  0  0  0  0  0
   20.4310  -18.3994    7.5324 O   0  0  0  0  0  0  0  0  0  0  0  0
   20.4881  -16.9629    9.3003 N   0  0  0  0  0  0  0  0  0  0  0  0
   21.6471  -16.2385    8.8908 C   0  0  1  0  0  0  0  0  0  0  0  0
   21.4881  -14.7500    8.8943 C   0  0  0  0  0  0  0  0  0  0  0  0
   20.3419  -14.2819    8.0318 C   0  0  0  0  0  0  0  0  0  0  0  0
   20.3293  -12.7716    7.9543 C   0  0  0  0  0  0  0  0  0  0  0  0
   19.2171  -12.2380    7.0986 C   0  0  0  0  0  0  0  0  0  0  0  0
   19.2359  -10.7734    7.2323 N   0  0  0  0  0  0  0  0  0  0  0  0
   22.8405  -16.5567    9.7361 C   0  0  0  0  0  0  0  0  0  0  0  0
   22.6777  -17.2064   10.7938 O   0  0  0  0  0  0  0  0  0  0  0  0
   24.1224  -16.1714    9.4136 O   0  0  0  0  0  0  0  0  0  0  0  0
  2  1  1  6
  2  7  1  0
  3  2  1  0
  4  3  1  0
  5  4  1  0
  6  5  2  0
  7 10  1  0
  8  7  2  0
  9  5  1  0
 10 11  1  0
 10 14  1  0
 11 12  1  0
 12 13  1  0
 14 13  1  0
 15 16  2  0
 14 15  1  6
 17 15  1  0
 18 17  1  0
 18 19  1  1
 20 19  1  0
 21 20  1  0
 22 21  1  0
 23 22  1  0
 24 18  1  0
 25 24  2  0
 26 24  1  0
M  END
$$$$
