EPK.pdb
     RDKit          3D

 26 26  0  0  1  0  0  0  0  0999 V2000
   25.8821  -24.0233  -14.8442 N   0  0  0  0  0  0  0  0  0  0  0  0
   24.9407  -22.9812  -14.6248 C   0  0  1  0  0  0  0  0  0  0  0  0
   23.9559  -23.0051  -15.7856 C   0  0  0  0  0  0  0  0  0  0  0  0
   24.0126  -21.6617  -16.4512 C   0  0  0  0  0  0  0  0  0  0  0  0
   24.6761  -21.7004  -17.7680 C   0  0  0  0  0  0  0  0  0  0  0  0
   24.9094  -20.6080  -18.3418 O   0  0  0  0  0  0  0  0  0  0  0  0
   24.2746  -22.9554  -13.3256 C   0  0  0  0  0  0  0  0  0  0  0  0
   24.2904  -24.0684  -12.6859 O   0  0  0  0  0  0  0  0  0  0  0  0
   25.0586  -22.8660  -18.4126 O   0  0  0  0  0  0  0  0  0  0  0  0
   23.6294  -21.8632  -12.7102 N   0  0  0  0  0  0  0  0  0  0  0  0
   23.3530  -20.5155  -13.1444 C   0  0  0  0  0  0  0  0  0  0  0  0
   23.8834  -19.7214  -11.9399 C   0  0  0  0  0  0  0  0  0  0  0  0
   23.2725  -20.5104  -10.8024 C   0  0  0  0  0  0  0  0  0  0  0  0
   23.0560  -21.9022  -11.3612 C   0  0  1  0  0  0  0  0  0  0  0  0
   21.6050  -22.2230  -11.4213 C   0  0  0  0  0  0  0  0  0  0  0  0
   20.9327  -21.7527  -12.3478 O   0  0  0  0  0  0  0  0  0  0  0  0
   20.9567  -23.0409  -10.4683 N   0  0  0  0  0  0  0  0  0  0  0  0
   19.5528  -23.2894  -10.4141 C   0  0  1  0  0  0  0  0  0  0  0  0
   19.0596  -23.8079   -9.0992 C   0  0  0  0  0  0  0  0  0  0  0  0
   17.6102  -24.2252   -9.1411 C   0  0  0  0  0  0  0  0  0  0  0  0
   17.2070  -24.8463   -7.8224 C   0  0  0  0  0  0  0  0  0  0  0  0
   15.7464  -25.1875   -7.7577 C   0  0  0  0  0  0  0  0  0  0  0  0
   15.4877  -25.7183   -6.4105 N   0  0  0  0  0  0  0  0  0  0  0  0
   18.7497  -22.0682  -10.7361 C   0  0  0  0  0  0  0  0  0  0  0  0
   17.7525  -22.1793  -11.4849 O   0  0  0  0  0  0  0  0  0  0  0  0
   19.0480  -20.8149  -10.2507 O   0  0  0  0  0  0  0  0  0  0  0  0
  2  1  1  1
  2  7  1  0
  3  2  1  0
  4  3  1  0
  5  4  1  0
  6  5  2  0
  7 10  1  0
  8  7  2  0
  9  5  1  0
 10 11  1  0
 10 14  1  0
 11 12  1  0
 12 13  1  0
 14 13  1  0
 15 16  2  0
 14 15  1  6
 17 15  1  0
 18 17  1  0
 18 19  1  1
 20 19  1  0
 21 20  1  0
 22 21  1  0
 23 22  1  0
 24 18  1  0
 25 24  2  0
 26 24  1  0
M  END
$$$$
