EPK.pdb
     RDKit          3D

 26 26  0  0  1  0  0  0  0  0999 V2000
   18.7736  -10.9197  -15.7063 N   0  0  0  0  0  0  0  0  0  0  0  0
   19.0233   -9.5635  -15.3621 C   0  0  1  0  0  0  0  0  0  0  0  0
   17.9818   -8.7131  -16.0761 C   0  0  0  0  0  0  0  0  0  0  0  0
   18.2196   -8.8550  -17.5507 C   0  0  0  0  0  0  0  0  0  0  0  0
   17.2374   -8.1147  -18.3650 C   0  0  0  0  0  0  0  0  0  0  0  0
   17.0984   -8.4491  -19.5675 O   0  0  0  0  0  0  0  0  0  0  0  0
   19.1219   -9.2505  -13.9392 C   0  0  0  0  0  0  0  0  0  0  0  0
   18.6314  -10.1392  -13.1531 O   0  0  0  0  0  0  0  0  0  0  0  0
   16.4579   -7.0732  -17.8873 O   0  0  0  0  0  0  0  0  0  0  0  0
   19.6860   -8.1018  -13.3472 N   0  0  0  0  0  0  0  0  0  0  0  0
   20.3251   -6.9298  -13.8939 C   0  0  0  0  0  0  0  0  0  0  0  0
   21.6082   -6.8931  -13.0483 C   0  0  0  0  0  0  0  0  0  0  0  0
   21.0317   -7.1193  -11.6677 C   0  0  0  0  0  0  0  0  0  0  0  0
   19.7315   -7.8616  -11.9014 C   0  0  1  0  0  0  0  0  0  0  0  0
   18.5716   -7.0343  -11.4742 C   0  0  0  0  0  0  0  0  0  0  0  0
   18.2536   -6.0589  -12.1662 O   0  0  0  0  0  0  0  0  0  0  0  0
   17.8145   -7.3103  -10.3133 N   0  0  0  0  0  0  0  0  0  0  0  0
   16.5773   -6.6887   -9.9689 C   0  0  1  0  0  0  0  0  0  0  0  0
   15.4032   -7.6162   -9.9213 C   0  0  0  0  0  0  0  0  0  0  0  0
   14.4571   -7.3050   -8.7878 C   0  0  0  0  0  0  0  0  0  0  0  0
   13.2275   -8.1808   -8.8781 C   0  0  0  0  0  0  0  0  0  0  0  0
   12.2051   -7.8658   -7.8248 C   0  0  0  0  0  0  0  0  0  0  0  0
   11.0515   -8.7452   -8.0681 N   0  0  0  0  0  0  0  0  0  0  0  0
   16.6434   -5.9925   -8.6457 C   0  0  0  0  0  0  0  0  0  0  0  0
   15.8040   -5.1001   -8.3883 O   0  0  0  0  0  0  0  0  0  0  0  0
   17.5857   -6.2802   -7.6839 O   0  0  0  0  0  0  0  0  0  0  0  0
  2  1  1  1
  2  7  1  0
  3  2  1  0
  4  3  1  0
  5  4  1  0
  6  5  2  0
  7 10  1  0
  8  7  2  0
  9  5  1  0
 10 11  1  0
 10 14  1  0
 11 12  1  0
 12 13  1  0
 14 13  1  0
 15 16  2  0
 14 15  1  6
 17 15  1  0
 18 17  1  0
 18 19  1  1
 20 19  1  0
 21 20  1  0
 22 21  1  0
 23 22  1  0
 24 18  1  0
 25 24  2  0
 26 24  1  0
M  END
$$$$
