EPK.pdb
     RDKit          3D

 26 26  0  0  1  0  0  0  0  0999 V2000
   24.5473  -14.8834  -17.9505 N   0  0  0  0  0  0  0  0  0  0  0  0
   24.7429  -13.4922  -18.1665 C   0  0  1  0  0  0  0  0  0  0  0  0
   23.9275  -13.1024  -19.3916 C   0  0  0  0  0  0  0  0  0  0  0  0
   24.4960  -13.8448  -20.5650 C   0  0  0  0  0  0  0  0  0  0  0  0
   23.8619  -13.4710  -21.8434 C   0  0  0  0  0  0  0  0  0  0  0  0
   23.1474  -14.3286  -22.4188 O   0  0  0  0  0  0  0  0  0  0  0  0
   24.5040  -12.6072  -17.0299 C   0  0  0  0  0  0  0  0  0  0  0  0
   23.6912  -13.0647  -16.1477 O   0  0  0  0  0  0  0  0  0  0  0  0
   24.0045  -12.2333  -22.4501 O   0  0  0  0  0  0  0  0  0  0  0  0
   25.0579  -11.3309  -16.8010 N   0  0  0  0  0  0  0  0  0  0  0  0
   26.0375  -10.5450  -17.5107 C   0  0  0  0  0  0  0  0  0  0  0  0
   26.9810  -10.1691  -16.3569 C   0  0  0  0  0  0  0  0  0  0  0  0
   25.9755   -9.7382  -15.3115 C   0  0  0  0  0  0  0  0  0  0  0  0
   24.6982  -10.4708  -15.6692 C   0  0  1  0  0  0  0  0  0  0  0  0
   23.6349   -9.5086  -16.0637 C   0  0  0  0  0  0  0  0  0  0  0  0
   23.5818   -9.1359  -17.2426 O   0  0  0  0  0  0  0  0  0  0  0  0
   22.6810   -8.9989  -15.1540 N   0  0  0  0  0  0  0  0  0  0  0  0
   21.5341   -8.2277  -15.5082 C   0  0  1  0  0  0  0  0  0  0  0  0
   20.2367   -8.9723  -15.4481 C   0  0  0  0  0  0  0  0  0  0  0  0
   19.0671   -8.1498  -15.9300 C   0  0  0  0  0  0  0  0  0  0  0  0
   17.8001   -8.9750  -15.8989 C   0  0  0  0  0  0  0  0  0  0  0  0
   16.6208   -8.2606  -16.4931 C   0  0  0  0  0  0  0  0  0  0  0  0
   15.4987   -9.2116  -16.4968 N   0  0  0  0  0  0  0  0  0  0  0  0
   21.3843   -7.0105  -14.6503 C   0  0  0  0  0  0  0  0  0  0  0  0
   21.8171   -7.0402  -13.4760 O   0  0  0  0  0  0  0  0  0  0  0  0
   20.7907   -5.8461  -15.0834 O   0  0  0  0  0  0  0  0  0  0  0  0
  2  1  1  1
  2  7  1  0
  3  2  1  0
  4  3  1  0
  5  4  1  0
  6  5  2  0
  7 10  1  0
  8  7  2  0
  9  5  1  0
 10 11  1  0
 10 14  1  0
 11 12  1  0
 12 13  1  0
 14 13  1  0
 15 16  2  0
 14 15  1  6
 17 15  1  0
 18 17  1  0
 18 19  1  1
 20 19  1  0
 21 20  1  0
 22 21  1  0
 23 22  1  0
 24 18  1  0
 25 24  2  0
 26 24  1  0
M  END
$$$$
