EPK.pdb
     RDKit          3D

 26 26  0  0  1  0  0  0  0  0999 V2000
   27.4803  -21.6294  -15.9394 N   0  0  0  0  0  0  0  0  0  0  0  0
   26.3092  -20.8780  -16.2296 C   0  0  1  0  0  0  0  0  0  0  0  0
   26.2337  -20.7181  -17.7417 C   0  0  0  0  0  0  0  0  0  0  0  0
   27.4104  -19.8894  -18.1655 C   0  0  0  0  0  0  0  0  0  0  0  0
   27.4387  -19.6320  -19.6177 C   0  0  0  0  0  0  0  0  0  0  0  0
   28.1800  -20.3543  -20.3290 O   0  0  0  0  0  0  0  0  0  0  0  0
   25.0563  -21.3590  -15.6540 C   0  0  0  0  0  0  0  0  0  0  0  0
   25.0390  -22.6085  -15.3597 O   0  0  0  0  0  0  0  0  0  0  0  0
   26.6991  -18.6437  -20.2473 O   0  0  0  0  0  0  0  0  0  0  0  0
   23.8876  -20.6151  -15.3917 N   0  0  0  0  0  0  0  0  0  0  0  0
   23.5067  -19.2533  -15.6777 C   0  0  0  0  0  0  0  0  0  0  0  0
   23.0206  -18.8037  -14.2905 C   0  0  0  0  0  0  0  0  0  0  0  0
   22.1556  -19.9849  -13.9083 C   0  0  0  0  0  0  0  0  0  0  0  0
   22.7109  -21.1513  -14.7004 C   0  0  1  0  0  0  0  0  0  0  0  0
   21.7083  -21.6421  -15.6833 C   0  0  0  0  0  0  0  0  0  0  0  0
   21.4485  -20.9365  -16.6661 O   0  0  0  0  0  0  0  0  0  0  0  0
   21.0372  -22.8783  -15.5471 N   0  0  0  0  0  0  0  0  0  0  0  0
   20.1090  -23.4201  -16.4856 C   0  0  1  0  0  0  0  0  0  0  0  0
   20.1681  -24.9084  -16.6358 C   0  0  0  0  0  0  0  0  0  0  0  0
   21.5754  -25.4233  -16.8130 C   0  0  0  0  0  0  0  0  0  0  0  0
   21.5528  -26.8910  -17.1768 C   0  0  0  0  0  0  0  0  0  0  0  0
   22.9240  -27.4613  -17.3972 C   0  0  0  0  0  0  0  0  0  0  0  0
   22.7500  -28.8823  -17.7346 N   0  0  0  0  0  0  0  0  0  0  0  0
   18.6940  -23.0665  -16.1498 C   0  0  0  0  0  0  0  0  0  0  0  0
   17.7862  -23.3698  -16.9567 O   0  0  0  0  0  0  0  0  0  0  0  0
   18.3290  -22.4189  -14.9909 O   0  0  0  0  0  0  0  0  0  0  0  0
  2  1  1  6
  2  7  1  0
  3  2  1  0
  4  3  1  0
  5  4  1  0
  6  5  2  0
  7 10  1  0
  8  7  2  0
  9  5  1  0
 10 11  1  0
 10 14  1  0
 11 12  1  0
 12 13  1  0
 14 13  1  0
 15 16  2  0
 14 15  1  6
 17 15  1  0
 18 17  1  0
 18 19  1  1
 20 19  1  0
 21 20  1  0
 22 21  1  0
 23 22  1  0
 24 18  1  0
 25 24  2  0
 26 24  1  0
M  END
$$$$
