EPK.pdb
     RDKit          3D

 26 26  0  0  1  0  0  0  0  0999 V2000
   25.3332  -21.8126  -13.6798 N   0  0  0  0  0  0  0  0  0  0  0  0
   24.0725  -21.7967  -14.3360 C   0  0  1  0  0  0  0  0  0  0  0  0
   23.7335  -23.2341  -14.7060 C   0  0  0  0  0  0  0  0  0  0  0  0
   24.8494  -23.7526  -15.5644 C   0  0  0  0  0  0  0  0  0  0  0  0
   24.6419  -25.1479  -15.9956 C   0  0  0  0  0  0  0  0  0  0  0  0
   25.5479  -25.6962  -16.6707 O   0  0  0  0  0  0  0  0  0  0  0  0
   22.9765  -21.1228  -13.6453 C   0  0  0  0  0  0  0  0  0  0  0  0
   23.1244  -21.0091  -12.3751 O   0  0  0  0  0  0  0  0  0  0  0  0
   23.5104  -25.8926  -15.7031 O   0  0  0  0  0  0  0  0  0  0  0  0
   21.7979  -20.5944  -14.2105 N   0  0  0  0  0  0  0  0  0  0  0  0
   21.3145  -20.5058  -15.5668 C   0  0  0  0  0  0  0  0  0  0  0  0
   20.9385  -19.0167  -15.6310 C   0  0  0  0  0  0  0  0  0  0  0  0
   20.1826  -18.8697  -14.3285 C   0  0  0  0  0  0  0  0  0  0  0  0
   20.7251  -19.9656  -13.4334 C   0  0  1  0  0  0  0  0  0  0  0  0
   19.6626  -20.9567  -13.1156 C   0  0  0  0  0  0  0  0  0  0  0  0
   19.2860  -21.7271  -14.0078 O   0  0  0  0  0  0  0  0  0  0  0  0
   19.0620  -21.0600  -11.8406 N   0  0  0  0  0  0  0  0  0  0  0  0
   18.2057  -22.1194  -11.4161 C   0  0  1  0  0  0  0  0  0  0  0  0
   18.4857  -22.6365  -10.0394 C   0  0  0  0  0  0  0  0  0  0  0  0
   17.6347  -23.8290   -9.6779 C   0  0  0  0  0  0  0  0  0  0  0  0
   17.9360  -24.2768   -8.2651 C   0  0  0  0  0  0  0  0  0  0  0  0
   17.1202  -25.4632   -7.8400 C   0  0  0  0  0  0  0  0  0  0  0  0
   17.5237  -25.7923   -6.4643 N   0  0  0  0  0  0  0  0  0  0  0  0
   16.7614  -21.7293  -11.4556 C   0  0  0  0  0  0  0  0  0  0  0  0
   16.4541  -20.5269  -11.2912 O   0  0  0  0  0  0  0  0  0  0  0  0
   15.7390  -22.6274  -11.6646 O   0  0  0  0  0  0  0  0  0  0  0  0
  2  1  1  1
  2  7  1  0
  3  2  1  0
  4  3  1  0
  5  4  1  0
  6  5  2  0
  7 10  1  0
  8  7  2  0
  9  5  1  0
 10 11  1  0
 10 14  1  0
 11 12  1  0
 12 13  1  0
 14 13  1  0
 15 16  2  0
 14 15  1  6
 17 15  1  0
 18 17  1  0
 18 19  1  1
 20 19  1  0
 21 20  1  0
 22 21  1  0
 23 22  1  0
 24 18  1  0
 25 24  2  0
 26 24  1  0
M  END
$$$$
