NRC.pdb
     RDKit          3D

 26 25  0  0  1  0  0  0  0  0999 V2000
   30.9894  -23.8190  -18.2069 N   0  0  0  0  0  0  0  0  0  0  0  0
   30.6046  -22.5322  -18.6679 C   0  0  0  0  0  0  0  0  0  0  0  0
   31.2743  -22.0197  -19.6203 O   0  0  0  0  0  0  0  0  0  0  0  0
   29.4645  -21.8037  -18.0667 C   0  0  0  0  0  0  0  0  0  0  0  0
   28.8039  -22.5529  -16.9501 C   0  0  2  0  0  0  0  0  0  0  0  0
   27.9249  -23.5503  -17.5690 N   0  0  0  0  0  0  0  0  0  0  0  0
   27.9279  -21.5793  -16.2154 C   0  0  0  0  0  0  0  0  0  0  0  0
   28.4693  -20.6139  -15.6273 O   0  0  0  0  0  0  0  0  0  0  0  0
   19.8055  -17.9110  -17.0097 N   0  0  0  0  0  0  0  0  0  0  0  0
   20.8941  -17.0621  -16.6919 C   0  0  0  0  0  0  0  0  0  0  0  0
   20.7918  -15.7745  -16.6563 N   0  0  0  0  0  0  0  0  0  0  0  0
   22.1432  -17.6427  -16.4004 N   0  0  0  0  0  0  0  0  0  0  0  0
   22.3042  -19.0844  -16.4916 C   0  0  0  0  0  0  0  0  0  0  0  0
   23.4073  -19.5886  -15.6647 C   0  0  0  0  0  0  0  0  0  0  0  0
   24.5791  -20.2579  -16.2023 C   0  0  0  0  0  0  0  0  0  0  0  0
   25.6469  -20.8206  -15.3754 C   0  0  2  0  0  0  0  0  0  0  0  0
   26.5208  -21.7112  -16.1634 N   0  0  0  0  0  0  0  0  0  0  0  0
   25.3452  -21.4385  -14.0827 C   0  0  0  0  0  0  0  0  0  0  0  0
   24.8162  -22.5202  -13.8880 O   0  0  0  0  0  0  0  0  0  0  0  0
   21.6238  -15.2397  -16.3369 N   0  0  0  0  0  0  0  0  0  0  0  0
   25.6892  -20.7353  -12.8441 C   0  0  2  0  0  0  0  0  0  0  0  0
   25.1789  -21.1155  -11.5672 C   0  0  0  0  0  0  0  0  0  0  0  0
   25.8873  -20.4279  -10.4181 S   0  0  0  0  0  0  0  0  0  0  0  0
   25.1258  -21.0932   -8.8861 C   0  0  0  0  0  0  0  0  0  0  0  0
   23.7470  -20.7820  -11.4974 O   0  0  0  0  0  0  0  0  0  0  0  0
   23.3331  -19.6986  -11.9340 O   0  0  0  0  0  0  0  0  0  0  0  0
  2  1  1  0
  2  3  2  0
  4  5  1  0
  4  2  1  0
  5  7  1  0
  5  6  1  6
  7  8  2  0
  9 10  1  0
 10 11  2  0
 12 13  1  0
 12 10  1  0
 13 14  1  0
 15 14  1  0
 16 18  1  0
 16 15  1  6
 17  7  1  0
 17 16  1  0
 18 19  2  0
 20 21  1  0
 20 18  1  0
 22 23  1  0
 21 22  1  1
 24 21  1  0
 24 26  1  0
 25 24  2  0
M  END
$$$$
