NRC.pdb
     RDKit          3D

 26 25  0  0  1  0  0  0  0  0999 V2000
   29.3028  -18.8900  -15.1815 N   0  0  0  0  0  0  0  0  0  0  0  0
   28.0392  -18.6452  -15.7813 C   0  0  0  0  0  0  0  0  0  0  0  0
   27.9525  -17.6816  -16.6073 O   0  0  0  0  0  0  0  0  0  0  0  0
   26.8568  -19.4772  -15.4624 C   0  0  0  0  0  0  0  0  0  0  0  0
   27.1383  -20.5450  -14.4498 C   0  0  2  0  0  0  0  0  0  0  0  0
   27.5388  -21.7427  -15.1951 N   0  0  0  0  0  0  0  0  0  0  0  0
   25.8420  -20.8600  -13.7603 C   0  0  0  0  0  0  0  0  0  0  0  0
   25.0667  -21.6878  -14.2941 O   0  0  0  0  0  0  0  0  0  0  0  0
   20.9881  -23.1429   -7.5635 N   0  0  0  0  0  0  0  0  0  0  0  0
   20.3252  -21.9210   -7.8357 C   0  0  0  0  0  0  0  0  0  0  0  0
   19.0897  -21.7088   -7.5220 N   0  0  0  0  0  0  0  0  0  0  0  0
   21.0402  -20.8901   -8.4746 N   0  0  0  0  0  0  0  0  0  0  0  0
   22.3614  -21.1610   -9.0164 C   0  0  0  0  0  0  0  0  0  0  0  0
   22.9562  -19.9943   -9.6796 C   0  0  0  0  0  0  0  0  0  0  0  0
   24.1453  -20.0572  -10.5117 C   0  0  0  0  0  0  0  0  0  0  0  0
   24.1282  -20.4103  -11.9315 C   0  0  2  0  0  0  0  0  0  0  0  0
   25.4659  -20.2600  -12.5361 N   0  0  0  0  0  0  0  0  0  0  0  0
   23.1131  -19.8544  -12.8283 C   0  0  0  0  0  0  0  0  0  0  0  0
   23.0101  -18.6965  -13.1978 O   0  0  0  0  0  0  0  0  0  0  0  0
   18.6791  -20.7947   -7.7976 N   0  0  0  0  0  0  0  0  0  0  0  0
   22.0749  -20.7288  -13.3803 C   0  0  2  0  0  0  0  0  0  0  0  0
   21.0248  -20.2534  -14.2211 C   0  0  0  0  0  0  0  0  0  0  0  0
   20.9299  -21.0062  -15.5323 S   0  0  0  0  0  0  0  0  0  0  0  0
   22.5271  -20.7241  -16.3920 C   0  0  0  0  0  0  0  0  0  0  0  0
   19.7400  -20.3849  -13.5150 O   0  0  0  0  0  0  0  0  0  0  0  0
   19.6414  -21.1220  -12.5238 O   0  0  0  0  0  0  0  0  0  0  0  0
  2  1  1  0
  2  3  2  0
  4  5  1  0
  4  2  1  0
  5  7  1  0
  5  6  1  6
  7  8  2  0
  9 10  1  0
 10 11  2  0
 12 13  1  0
 12 10  1  0
 13 14  1  0
 15 14  1  0
 16 18  1  0
 16 15  1  1
 17  7  1  0
 17 16  1  0
 18 19  2  0
 20 21  1  0
 20 18  1  0
 22 23  1  0
 21 22  1  1
 24 21  1  0
 24 26  1  0
 25 24  2  0
M  END
$$$$
