NRC.pdb
     RDKit          3D

 26 25  0  0  1  0  0  0  0  0999 V2000
   28.0200  -14.1589  -19.3340 N   0  0  0  0  0  0  0  0  0  0  0  0
   27.0115  -14.6081  -18.4409 C   0  0  0  0  0  0  0  0  0  0  0  0
   26.4667  -13.7458  -17.6808 O   0  0  0  0  0  0  0  0  0  0  0  0
   26.6014  -16.0298  -18.3885 C   0  0  0  0  0  0  0  0  0  0  0  0
   27.3384  -16.8964  -19.3635 C   0  0  2  0  0  0  0  0  0  0  0  0
   26.7589  -16.6369  -20.6853 N   0  0  0  0  0  0  0  0  0  0  0  0
   27.0317  -18.3241  -19.0132 C   0  0  0  0  0  0  0  0  0  0  0  0
   25.8539  -18.7323  -19.1451 O   0  0  0  0  0  0  0  0  0  0  0  0
   31.1043  -24.4028  -15.9942 N   0  0  0  0  0  0  0  0  0  0  0  0
   30.0415  -25.3235  -16.1660 C   0  0  0  0  0  0  0  0  0  0  0  0
   29.9116  -26.3869  -15.4435 N   0  0  0  0  0  0  0  0  0  0  0  0
   29.0824  -25.0719  -17.1656 N   0  0  0  0  0  0  0  0  0  0  0  0
   29.1613  -23.8478  -17.9453 C   0  0  0  0  0  0  0  0  0  0  0  0
   28.9493  -22.6415  -17.1361 C   0  0  0  0  0  0  0  0  0  0  0  0
   28.9349  -21.2952  -17.6816 C   0  0  0  0  0  0  0  0  0  0  0  0
   27.7117  -20.5524  -17.9855 C   0  0  2  0  0  0  0  0  0  0  0  0
   28.0188  -19.2209  -18.5425 N   0  0  0  0  0  0  0  0  0  0  0  0
   26.6390  -20.4405  -16.9952 C   0  0  0  0  0  0  0  0  0  0  0  0
   26.6053  -19.7019  -16.0249 O   0  0  0  0  0  0  0  0  0  0  0  0
   29.0829  -26.9874  -15.6253 N   0  0  0  0  0  0  0  0  0  0  0  0
   25.4439  -21.2788  -17.1216 C   0  0  1  0  0  0  0  0  0  0  0  0
   24.3431  -21.2042  -16.2171 C   0  0  0  0  0  0  0  0  0  0  0  0
   23.5991  -19.8870  -16.2977 S   0  0  0  0  0  0  0  0  0  0  0  0
   22.1776  -20.0399  -15.1463 C   0  0  0  0  0  0  0  0  0  0  0  0
   23.3966  -22.2919  -16.5130 O   0  0  0  0  0  0  0  0  0  0  0  0
   22.4620  -22.5387  -15.7377 O   0  0  0  0  0  0  0  0  0  0  0  0
  2  1  1  0
  2  3  2  0
  4  5  1  0
  4  2  1  0
  5  7  1  0
  5  6  1  6
  7  8  2  0
  9 10  1  0
 10 11  2  0
 12 13  1  0
 12 10  1  0
 13 14  1  0
 15 14  1  0
 16 18  1  0
 16 15  1  1
 17  7  1  0
 17 16  1  0
 18 19  2  0
 20 21  1  0
 20 18  1  0
 22 23  1  0
 21 22  1  6
 24 21  1  0
 24 26  1  0
 25 24  2  0
M  END
$$$$
