NRC.pdb
     RDKit          3D

 26 25  0  0  1  0  0  0  0  0999 V2000
   25.0303  -13.2604  -16.7025 N   0  0  0  0  0  0  0  0  0  0  0  0
   25.3845  -11.9318  -16.3476 C   0  0  0  0  0  0  0  0  0  0  0  0
   26.5262  -11.7445  -15.8188 O   0  0  0  0  0  0  0  0  0  0  0  0
   24.4630  -10.7967  -16.5809 C   0  0  0  0  0  0  0  0  0  0  0  0
   23.1623  -11.2061  -17.2016 C   0  0  2  0  0  0  0  0  0  0  0  0
   23.4019  -11.3386  -18.6423 N   0  0  0  0  0  0  0  0  0  0  0  0
   22.1990  -10.0700  -17.0112 C   0  0  0  0  0  0  0  0  0  0  0  0
   22.3597   -9.0295  -17.6914 O   0  0  0  0  0  0  0  0  0  0  0  0
   13.5448  -10.0899  -15.1199 N   0  0  0  0  0  0  0  0  0  0  0  0
   13.8764   -8.7133  -15.0794 C   0  0  0  0  0  0  0  0  0  0  0  0
   12.9973   -7.7859  -14.8876 N   0  0  0  0  0  0  0  0  0  0  0  0
   15.2213   -8.3352  -15.2542 N   0  0  0  0  0  0  0  0  0  0  0  0
   16.2253   -9.3526  -15.5179 C   0  0  0  0  0  0  0  0  0  0  0  0
   17.5756   -8.7964  -15.6671 C   0  0  0  0  0  0  0  0  0  0  0  0
   18.7647   -9.6059  -15.8692 C   0  0  0  0  0  0  0  0  0  0  0  0
   20.1195   -9.0587  -15.9449 C   0  0  2  0  0  0  0  0  0  0  0  0
   21.1218  -10.1310  -16.0969 N   0  0  0  0  0  0  0  0  0  0  0  0
   20.5864   -8.0788  -14.9623 C   0  0  0  0  0  0  0  0  0  0  0  0
   21.0123   -8.3038  -13.8416 O   0  0  0  0  0  0  0  0  0  0  0  0
   13.3324   -6.8021  -14.9032 N   0  0  0  0  0  0  0  0  0  0  0  0
   20.5676   -6.6519  -15.2947 C   0  0  2  0  0  0  0  0  0  0  0  0
   21.0300   -5.6398  -14.4017 C   0  0  0  0  0  0  0  0  0  0  0  0
   22.4673   -5.2357  -14.6584 S   0  0  0  0  0  0  0  0  0  0  0  0
   22.8125   -3.8452  -13.5109 C   0  0  0  0  0  0  0  0  0  0  0  0
   20.1797   -4.4461  -14.5382 O   0  0  0  0  0  0  0  0  0  0  0  0
   19.4351   -4.3151  -15.5201 O   0  0  0  0  0  0  0  0  0  0  0  0
  2  1  1  0
  2  3  2  0
  4  5  1  0
  4  2  1  0
  5  7  1  0
  5  6  1  6
  7  8  2  0
  9 10  1  0
 10 11  2  0
 12 13  1  0
 12 10  1  0
 13 14  1  0
 15 14  1  0
 16 18  1  0
 16 15  1  1
 17  7  1  0
 17 16  1  0
 18 19  2  0
 20 21  1  0
 20 18  1  0
 22 23  1  0
 21 22  1  6
 24 21  1  0
 24 26  1  0
 25 24  2  0
M  END
$$$$
