NRC.pdb
     RDKit          3D

 26 25  0  0  1  0  0  0  0  0999 V2000
   17.1456  -14.1098  -14.5665 N   0  0  0  0  0  0  0  0  0  0  0  0
   18.2862  -13.3814  -14.9967 C   0  0  0  0  0  0  0  0  0  0  0  0
   19.3077  -14.0441  -15.3651 O   0  0  0  0  0  0  0  0  0  0  0  0
   18.2961  -11.9011  -15.0190 C   0  0  0  0  0  0  0  0  0  0  0  0
   17.0616  -11.2904  -14.4292 C   0  0  2  0  0  0  0  0  0  0  0  0
   16.0126  -11.3823  -15.4498 N   0  0  0  0  0  0  0  0  0  0  0  0
   17.3453   -9.8322  -14.2096 C   0  0  0  0  0  0  0  0  0  0  0  0
   17.6552   -9.1279  -15.1990 O   0  0  0  0  0  0  0  0  0  0  0  0
   13.1386   -8.3071   -8.1825 N   0  0  0  0  0  0  0  0  0  0  0  0
   14.2272   -7.4007   -8.1672 C   0  0  0  0  0  0  0  0  0  0  0  0
   14.5835   -6.7510   -7.1085 N   0  0  0  0  0  0  0  0  0  0  0  0
   14.9556   -7.1969   -9.3546 N   0  0  0  0  0  0  0  0  0  0  0  0
   14.3925   -7.6228  -10.6251 C   0  0  0  0  0  0  0  0  0  0  0  0
   15.2552   -7.3003  -11.7682 C   0  0  0  0  0  0  0  0  0  0  0  0
   16.7038   -7.2242  -11.6906 C   0  0  0  0  0  0  0  0  0  0  0  0
   17.6047   -7.8108  -12.6830 C   0  0  2  0  0  0  0  0  0  0  0  0
   17.2755   -9.2274  -12.9331 N   0  0  0  0  0  0  0  0  0  0  0  0
   19.0553   -7.6525  -12.5625 C   0  0  0  0  0  0  0  0  0  0  0  0
   19.7797   -8.1251  -11.7024 O   0  0  0  0  0  0  0  0  0  0  0  0
   15.3812   -6.0911   -7.2013 N   0  0  0  0  0  0  0  0  0  0  0  0
   19.7824   -6.8502  -13.5497 C   0  0  1  0  0  0  0  0  0  0  0  0
   21.1775   -6.5693  -13.4473 C   0  0  0  0  0  0  0  0  0  0  0  0
   21.9709   -7.0702  -14.6367 S   0  0  0  0  0  0  0  0  0  0  0  0
   21.6613   -8.8774  -14.7240 C   0  0  0  0  0  0  0  0  0  0  0  0
   21.3733   -5.1147  -13.3367 O   0  0  0  0  0  0  0  0  0  0  0  0
   20.4423   -4.3356  -13.5856 O   0  0  0  0  0  0  0  0  0  0  0  0
  2  1  1  0
  2  3  2  0
  4  5  1  0
  4  2  1  0
  5  7  1  0
  5  6  1  6
  7  8  2  0
  9 10  1  0
 10 11  2  0
 12 13  1  0
 12 10  1  0
 13 14  1  0
 15 14  1  0
 16 18  1  0
 16 15  1  1
 17  7  1  0
 17 16  1  0
 18 19  2  0
 20 21  1  0
 20 18  1  0
 22 23  1  0
 21 22  1  1
 24 21  1  0
 24 26  1  0
 25 24  2  0
M  END
$$$$
