NRC.pdb
     RDKit          3D

 26 25  0  0  1  0  0  0  0  0999 V2000
   22.7284  -24.5506  -22.6989 N   0  0  0  0  0  0  0  0  0  0  0  0
   21.6166  -24.9775  -21.9254 C   0  0  0  0  0  0  0  0  0  0  0  0
   20.5541  -24.2803  -21.9807 O   0  0  0  0  0  0  0  0  0  0  0  0
   21.6823  -26.1912  -21.0801 C   0  0  0  0  0  0  0  0  0  0  0  0
   23.0300  -26.8459  -21.0852 C   0  0  2  0  0  0  0  0  0  0  0  0
   23.0933  -27.6788  -22.2905 N   0  0  0  0  0  0  0  0  0  0  0  0
   23.0836  -27.7679  -19.9012 C   0  0  0  0  0  0  0  0  0  0  0  0
   22.5342  -28.8908  -19.9925 O   0  0  0  0  0  0  0  0  0  0  0  0
   29.3796  -31.5146  -16.1375 N   0  0  0  0  0  0  0  0  0  0  0  0
   28.4123  -31.7013  -17.1554 C   0  0  0  0  0  0  0  0  0  0  0  0
   28.5542  -32.5632  -18.1076 N   0  0  0  0  0  0  0  0  0  0  0  0
   27.2438  -30.9162  -17.1316 N   0  0  0  0  0  0  0  0  0  0  0  0
   26.9751  -30.0622  -15.9865 C   0  0  0  0  0  0  0  0  0  0  0  0
   25.6747  -29.3866  -16.0716 C   0  0  0  0  0  0  0  0  0  0  0  0
   25.2456  -28.6018  -17.2162 C   0  0  0  0  0  0  0  0  0  0  0  0
   23.8447  -28.3271  -17.5365 C   0  0  2  0  0  0  0  0  0  0  0  0
   23.7287  -27.4173  -18.6925 N   0  0  0  0  0  0  0  0  0  0  0  0
   22.9036  -27.9224  -16.4903 C   0  0  0  0  0  0  0  0  0  0  0  0
   22.9292  -26.8954  -15.8326 O   0  0  0  0  0  0  0  0  0  0  0  0
   27.7979  -32.6154  -18.8187 N   0  0  0  0  0  0  0  0  0  0  0  0
   21.7830  -28.8001  -16.1428 C   0  0  2  0  0  0  0  0  0  0  0  0
   20.8107  -28.4646  -15.1540 C   0  0  0  0  0  0  0  0  0  0  0  0
   19.5920  -29.3636  -15.1935 S   0  0  0  0  0  0  0  0  0  0  0  0
   18.8264  -29.1024  -16.8413 C   0  0  0  0  0  0  0  0  0  0  0  0
   21.4211  -28.5666  -13.8185 O   0  0  0  0  0  0  0  0  0  0  0  0
   22.5839  -28.9749  -13.6895 O   0  0  0  0  0  0  0  0  0  0  0  0
  2  1  1  0
  2  3  2  0
  4  5  1  0
  4  2  1  0
  5  7  1  0
  5  6  1  6
  7  8  2  0
  9 10  1  0
 10 11  2  0
 12 13  1  0
 12 10  1  0
 13 14  1  0
 15 14  1  0
 16 18  1  0
 16 15  1  1
 17  7  1  0
 17 16  1  0
 18 19  2  0
 20 21  1  0
 20 18  1  0
 22 23  1  0
 21 22  1  6
 24 21  1  0
 24 26  1  0
 25 24  2  0
M  END
$$$$
