NRC.pdb
     RDKit          3D

 26 25  0  0  1  0  0  0  0  0999 V2000
   29.9655  -24.9478  -18.1802 N   0  0  0  0  0  0  0  0  0  0  0  0
   30.3066  -24.4071  -16.9122 C   0  0  0  0  0  0  0  0  0  0  0  0
   31.1739  -25.0268  -16.2181 O   0  0  0  0  0  0  0  0  0  0  0  0
   29.6793  -23.1650  -16.4065 C   0  0  0  0  0  0  0  0  0  0  0  0
   28.5663  -22.6655  -17.2763 C   0  0  2  0  0  0  0  0  0  0  0  0
   29.1806  -21.8386  -18.3199 N   0  0  0  0  0  0  0  0  0  0  0  0
   27.7123  -21.7616  -16.4344 C   0  0  0  0  0  0  0  0  0  0  0  0
   28.2343  -20.7339  -15.9420 O   0  0  0  0  0  0  0  0  0  0  0  0
   20.0854  -21.1587  -14.7282 N   0  0  0  0  0  0  0  0  0  0  0  0
   19.9665  -19.7563  -14.8887 C   0  0  0  0  0  0  0  0  0  0  0  0
   19.0264  -19.0645  -14.3343 N   0  0  0  0  0  0  0  0  0  0  0  0
   20.9123  -19.0831  -15.6853 N   0  0  0  0  0  0  0  0  0  0  0  0
   21.8987  -19.8478  -16.4302 C   0  0  0  0  0  0  0  0  0  0  0  0
   23.0987  -20.1524  -15.6415 C   0  0  0  0  0  0  0  0  0  0  0  0
   24.3238  -20.6883  -16.2092 C   0  0  0  0  0  0  0  0  0  0  0  0
   25.4709  -21.1204  -15.4104 C   0  0  2  0  0  0  0  0  0  0  0  0
   26.3468  -22.0261  -16.1784 N   0  0  0  0  0  0  0  0  0  0  0  0
   25.2847  -21.6416  -14.0549 C   0  0  0  0  0  0  0  0  0  0  0  0
   24.7115  -22.6689  -13.7322 O   0  0  0  0  0  0  0  0  0  0  0  0
   18.9821  -18.0517  -14.5641 N   0  0  0  0  0  0  0  0  0  0  0  0
   25.8201  -20.8982  -12.9113 C   0  0  2  0  0  0  0  0  0  0  0  0
   25.4296  -21.1580  -11.5639 C   0  0  0  0  0  0  0  0  0  0  0  0
   26.2415  -20.3766  -10.5513 S   0  0  0  0  0  0  0  0  0  0  0  0
   25.5824  -20.8489   -8.9045 C   0  0  0  0  0  0  0  0  0  0  0  0
   24.0105  -20.8069  -11.3931 O   0  0  0  0  0  0  0  0  0  0  0  0
   23.5171  -19.8627  -12.0262 O   0  0  0  0  0  0  0  0  0  0  0  0
  2  1  1  0
  2  3  2  0
  4  5  1  0
  4  2  1  0
  5  7  1  0
  5  6  1  6
  7  8  2  0
  9 10  1  0
 10 11  2  0
 12 13  1  0
 12 10  1  0
 13 14  1  0
 15 14  1  0
 16 18  1  0
 16 15  1  6
 17  7  1  0
 17 16  1  0
 18 19  2  0
 20 21  1  0
 20 18  1  0
 22 23  1  0
 21 22  1  1
 24 21  1  0
 24 26  1  0
 25 24  2  0
M  END
$$$$
