NRC.pdb
     RDKit          3D

 26 25  0  0  1  0  0  0  0  0999 V2000
   23.4344   -9.2009  -14.9815 N   0  0  0  0  0  0  0  0  0  0  0  0
   22.3231   -9.5841  -14.1849 C   0  0  0  0  0  0  0  0  0  0  0  0
   22.3370  -10.7469  -13.6692 O   0  0  0  0  0  0  0  0  0  0  0  0
   21.1820   -8.6687  -13.9568 C   0  0  0  0  0  0  0  0  0  0  0  0
   19.8496   -9.3483  -14.0426 C   0  0  2  0  0  0  0  0  0  0  0  0
   19.6113   -9.6393  -15.4600 N   0  0  0  0  0  0  0  0  0  0  0  0
   18.8116   -8.3532  -13.6098 C   0  0  0  0  0  0  0  0  0  0  0  0
   18.4934   -7.4374  -14.4043 O   0  0  0  0  0  0  0  0  0  0  0  0
   11.5302  -11.2587  -11.8853 N   0  0  0  0  0  0  0  0  0  0  0  0
   12.4368  -11.6441  -10.8674 C   0  0  0  0  0  0  0  0  0  0  0  0
   12.2157  -12.6377  -10.0713 N   0  0  0  0  0  0  0  0  0  0  0  0
   13.6321  -10.9163  -10.7138 N   0  0  0  0  0  0  0  0  0  0  0  0
   13.8912   -9.7711  -11.5706 C   0  0  0  0  0  0  0  0  0  0  0  0
   15.2221   -9.1892  -11.3581 C   0  0  0  0  0  0  0  0  0  0  0  0
   15.7794   -8.1271  -12.1776 C   0  0  0  0  0  0  0  0  0  0  0  0
   17.0852   -7.5127  -11.9373 C   0  0  2  0  0  0  0  0  0  0  0  0
   18.1824   -8.4116  -12.3446 N   0  0  0  0  0  0  0  0  0  0  0  0
   17.3982   -6.9026  -10.6436 C   0  0  0  0  0  0  0  0  0  0  0  0
   17.9335   -7.4369   -9.6865 O   0  0  0  0  0  0  0  0  0  0  0  0
   12.9471  -12.8532   -9.3649 N   0  0  0  0  0  0  0  0  0  0  0  0
   17.0583   -5.4979  -10.4023 C   0  0  1  0  0  0  0  0  0  0  0  0
   17.2622   -4.8538   -9.1456 C   0  0  0  0  0  0  0  0  0  0  0  0
   18.1931   -3.6621   -9.2356 S   0  0  0  0  0  0  0  0  0  0  0  0
   18.2149   -2.9120   -7.5604 C   0  0  0  0  0  0  0  0  0  0  0  0
   15.9668   -4.3937   -8.6198 O   0  0  0  0  0  0  0  0  0  0  0  0
   15.8704   -3.9938   -7.4508 O   0  0  0  0  0  0  0  0  0  0  0  0
  2  1  1  0
  2  3  2  0
  4  5  1  0
  4  2  1  0
  5  7  1  0
  5  6  1  6
  7  8  2  0
  9 10  1  0
 10 11  2  0
 12 13  1  0
 12 10  1  0
 13 14  1  0
 15 14  1  0
 16 18  1  0
 16 15  1  1
 17  7  1  0
 17 16  1  0
 18 19  2  0
 20 21  1  0
 20 18  1  0
 22 23  1  0
 21 22  1  6
 24 21  1  0
 24 26  1  0
 25 24  2  0
M  END
$$$$
