NRC.pdb
     RDKit          3D

 26 25  0  0  1  0  0  0  0  0999 V2000
   17.1646  -20.7148  -16.5539 N   0  0  0  0  0  0  0  0  0  0  0  0
   17.7534  -20.0492  -15.4462 C   0  0  0  0  0  0  0  0  0  0  0  0
   16.9778  -19.6102  -14.5385 O   0  0  0  0  0  0  0  0  0  0  0  0
   19.2190  -19.8673  -15.3425 C   0  0  0  0  0  0  0  0  0  0  0  0
   19.9828  -20.5765  -16.4188 C   0  0  2  0  0  0  0  0  0  0  0  0
   20.1229  -21.9722  -15.9914 N   0  0  0  0  0  0  0  0  0  0  0  0
   21.3603  -19.9799  -16.4566 C   0  0  0  0  0  0  0  0  0  0  0  0
   21.4752  -18.7558  -16.7004 O   0  0  0  0  0  0  0  0  0  0  0  0
   26.8723  -21.4770  -10.4407 N   0  0  0  0  0  0  0  0  0  0  0  0
   25.5349  -21.0442  -10.2650 C   0  0  0  0  0  0  0  0  0  0  0  0
   25.1062  -20.5219   -9.1636 N   0  0  0  0  0  0  0  0  0  0  0  0
   24.6308  -21.1868  -11.3348 N   0  0  0  0  0  0  0  0  0  0  0  0
   25.1361  -21.4444  -12.6731 C   0  0  0  0  0  0  0  0  0  0  0  0
   24.4350  -20.6721  -13.7060 C   0  0  0  0  0  0  0  0  0  0  0  0
   24.6890  -20.8102  -15.1296 C   0  0  0  0  0  0  0  0  0  0  0  0
   23.8833  -20.1661  -16.1671 C   0  0  2  0  0  0  0  0  0  0  0  0
   22.5274  -20.7452  -16.2278 N   0  0  0  0  0  0  0  0  0  0  0  0
   24.4094  -19.9918  -17.5223 C   0  0  0  0  0  0  0  0  0  0  0  0
   24.3717  -20.7977  -18.4373 O   0  0  0  0  0  0  0  0  0  0  0  0
   24.1182  -20.1997   -9.1428 N   0  0  0  0  0  0  0  0  0  0  0  0
   25.0671  -18.7350  -17.8896 C   0  0  2  0  0  0  0  0  0  0  0  0
   25.6069  -18.4908  -19.1876 C   0  0  0  0  0  0  0  0  0  0  0  0
   25.4757  -17.0451  -19.6206 S   0  0  0  0  0  0  0  0  0  0  0  0
   23.7285  -16.5805  -19.3031 C   0  0  0  0  0  0  0  0  0  0  0  0
   27.0340  -18.8514  -19.1958 O   0  0  0  0  0  0  0  0  0  0  0  0
   27.6340  -19.0134  -20.2678 O   0  0  0  0  0  0  0  0  0  0  0  0
  2  1  1  0
  2  3  2  0
  4  5  1  0
  4  2  1  0
  5  7  1  0
  5  6  1  1
  7  8  2  0
  9 10  1  0
 10 11  2  0
 12 13  1  0
 12 10  1  0
 13 14  1  0
 15 14  1  0
 16 18  1  0
 16 15  1  1
 17  7  1  0
 17 16  1  0
 18 19  2  0
 20 21  1  0
 20 18  1  0
 22 23  1  0
 21 22  1  6
 24 21  1  0
 24 26  1  0
 25 24  2  0
M  END
$$$$
