NRC.pdb
     RDKit          3D

 26 25  0  0  1  0  0  0  0  0999 V2000
   19.2615  -19.8283  -14.6544 N   0  0  0  0  0  0  0  0  0  0  0  0
   19.5423  -18.5107  -15.1036 C   0  0  0  0  0  0  0  0  0  0  0  0
   18.6674  -17.9311  -15.8225 O   0  0  0  0  0  0  0  0  0  0  0  0
   20.8076  -17.8266  -14.7527 C   0  0  0  0  0  0  0  0  0  0  0  0
   21.3826  -17.0267  -15.8815 C   0  0  2  0  0  0  0  0  0  0  0  0
   21.8627  -17.9863  -16.8811 N   0  0  0  0  0  0  0  0  0  0  0  0
   22.5827  -16.2989  -15.3478 C   0  0  0  0  0  0  0  0  0  0  0  0
   22.4265  -15.5173  -14.3804 O   0  0  0  0  0  0  0  0  0  0  0  0
   25.6108  -21.0371  -14.5201 N   0  0  0  0  0  0  0  0  0  0  0  0
   26.7575  -21.0505  -15.3517 C   0  0  0  0  0  0  0  0  0  0  0  0
   26.9962  -21.9944  -16.2013 N   0  0  0  0  0  0  0  0  0  0  0  0
   27.6790  -19.9907  -15.2520 N   0  0  0  0  0  0  0  0  0  0  0  0
   27.3346  -18.8096  -14.4781 C   0  0  0  0  0  0  0  0  0  0  0  0
   26.3461  -17.9564  -15.1489 C   0  0  0  0  0  0  0  0  0  0  0  0
   25.9699  -16.6340  -14.6800 C   0  0  0  0  0  0  0  0  0  0  0  0
   25.0662  -15.7395  -15.4038 C   0  0  2  0  0  0  0  0  0  0  0  0
   23.8769  -16.4627  -15.8939 N   0  0  0  0  0  0  0  0  0  0  0  0
   25.5735  -14.8515  -16.4516 C   0  0  0  0  0  0  0  0  0  0  0  0
   25.6692  -15.0959  -17.6429 O   0  0  0  0  0  0  0  0  0  0  0  0
   27.8703  -21.9227  -16.7591 N   0  0  0  0  0  0  0  0  0  0  0  0
   26.0346  -13.5053  -16.1018 C   0  0  2  0  0  0  0  0  0  0  0  0
   26.7275  -12.6588  -17.0178 C   0  0  0  0  0  0  0  0  0  0  0  0
   27.6581  -11.6802  -16.3311 S   0  0  0  0  0  0  0  0  0  0  0  0
   28.3873  -10.6555  -17.6682 C   0  0  0  0  0  0  0  0  0  0  0  0
   27.5214  -13.4873  -17.9395 O   0  0  0  0  0  0  0  0  0  0  0  0
   27.4469  -13.3113  -19.1639 O   0  0  0  0  0  0  0  0  0  0  0  0
  2  1  1  0
  2  3  2  0
  4  5  1  0
  4  2  1  0
  5  7  1  0
  5  6  1  6
  7  8  2  0
  9 10  1  0
 10 11  2  0
 12 13  1  0
 12 10  1  0
 13 14  1  0
 15 14  1  0
 16 18  1  0
 16 15  1  6
 17  7  1  0
 17 16  1  0
 18 19  2  0
 20 21  1  0
 20 18  1  0
 22 23  1  0
 21 22  1  1
 24 21  1  0
 24 26  1  0
 25 24  2  0
M  END
$$$$
