NRC.pdb
     RDKit          3D

 26 25  0  0  1  0  0  0  0  0999 V2000
   23.1768  -26.9676  -16.3977 N   0  0  0  0  0  0  0  0  0  0  0  0
   24.2725  -26.2787  -15.8133 C   0  0  0  0  0  0  0  0  0  0  0  0
   25.1467  -26.9692  -15.1992 O   0  0  0  0  0  0  0  0  0  0  0  0
   24.4014  -24.8069  -15.9097 C   0  0  0  0  0  0  0  0  0  0  0  0
   23.2606  -24.1571  -16.6315 C   0  0  2  0  0  0  0  0  0  0  0  0
   23.6564  -24.0457  -18.0391 N   0  0  0  0  0  0  0  0  0  0  0  0
   23.1273  -22.7619  -16.0927 C   0  0  0  0  0  0  0  0  0  0  0  0
   22.0615  -22.4434  -15.5148 O   0  0  0  0  0  0  0  0  0  0  0  0
   25.3459  -20.6306   -8.6252 N   0  0  0  0  0  0  0  0  0  0  0  0
   24.0527  -20.9068   -9.1332 C   0  0  0  0  0  0  0  0  0  0  0  0
   23.0181  -21.0552   -8.3733 N   0  0  0  0  0  0  0  0  0  0  0  0
   23.8829  -21.0244  -10.5258 N   0  0  0  0  0  0  0  0  0  0  0  0
   25.0345  -20.8966  -11.4034 C   0  0  0  0  0  0  0  0  0  0  0  0
   24.6879  -20.3588  -12.7247 C   0  0  0  0  0  0  0  0  0  0  0  0
   24.3690  -21.1863  -13.8752 C   0  0  0  0  0  0  0  0  0  0  0  0
   24.3551  -20.6951  -15.2532 C   0  0  2  0  0  0  0  0  0  0  0  0
   24.1557  -21.7985  -16.2125 N   0  0  0  0  0  0  0  0  0  0  0  0
   25.4069  -19.7996  -15.7387 C   0  0  0  0  0  0  0  0  0  0  0  0
   25.9309  -18.8803  -15.1318 O   0  0  0  0  0  0  0  0  0  0  0  0
   22.1031  -21.2125   -8.8407 N   0  0  0  0  0  0  0  0  0  0  0  0
   25.9355  -19.9688  -17.0948 C   0  0  1  0  0  0  0  0  0  0  0  0
   26.4186  -18.8813  -17.8819 C   0  0  0  0  0  0  0  0  0  0  0  0
   27.8442  -19.0802  -18.3544 S   0  0  0  0  0  0  0  0  0  0  0  0
   28.8595  -19.2509  -16.8348 C   0  0  0  0  0  0  0  0  0  0  0  0
   25.5558  -18.7155  -19.0628 O   0  0  0  0  0  0  0  0  0  0  0  0
   24.5814  -19.4609  -19.2376 O   0  0  0  0  0  0  0  0  0  0  0  0
  2  1  1  0
  2  3  2  0
  4  5  1  0
  4  2  1  0
  5  7  1  0
  5  6  1  6
  7  8  2  0
  9 10  1  0
 10 11  2  0
 12 13  1  0
 12 10  1  0
 13 14  1  0
 15 14  1  0
 16 18  1  0
 16 15  1  1
 17  7  1  0
 17 16  1  0
 18 19  2  0
 20 21  1  0
 20 18  1  0
 22 23  1  0
 21 22  1  1
 24 21  1  0
 24 26  1  0
 25 24  2  0
M  END
$$$$
