NRC.pdb
     RDKit          3D

 26 25  0  0  1  0  0  0  0  0999 V2000
   18.5904  -19.2490  -14.0950 N   0  0  0  0  0  0  0  0  0  0  0  0
   19.0088  -19.2388  -12.7380 C   0  0  0  0  0  0  0  0  0  0  0  0
   18.2627  -18.6497  -11.8927 O   0  0  0  0  0  0  0  0  0  0  0  0
   20.2690  -19.8886  -12.3117 C   0  0  0  0  0  0  0  0  0  0  0  0
   21.0274  -20.5123  -13.4434 C   0  0  2  0  0  0  0  0  0  0  0  0
   20.3412  -21.7649  -13.7757 N   0  0  0  0  0  0  0  0  0  0  0  0
   22.3894  -20.8728  -12.9237 C   0  0  0  0  0  0  0  0  0  0  0  0
   22.4686  -21.6449  -11.9394 O   0  0  0  0  0  0  0  0  0  0  0  0
   29.3608  -22.4535  -15.6878 N   0  0  0  0  0  0  0  0  0  0  0  0
   28.4043  -21.7091  -16.4211 C   0  0  0  0  0  0  0  0  0  0  0  0
   27.8075  -22.1741  -17.4687 N   0  0  0  0  0  0  0  0  0  0  0  0
   28.0865  -20.4063  -15.9925 N   0  0  0  0  0  0  0  0  0  0  0  0
   28.4191  -19.9940  -14.6390 C   0  0  0  0  0  0  0  0  0  0  0  0
   27.3847  -20.3554  -13.6621 C   0  0  0  0  0  0  0  0  0  0  0  0
   25.9626  -20.3667  -13.9585 C   0  0  0  0  0  0  0  0  0  0  0  0
   24.9265  -20.6603  -12.9682 C   0  0  2  0  0  0  0  0  0  0  0  0
   23.5805  -20.3757  -13.5019 N   0  0  0  0  0  0  0  0  0  0  0  0
   25.0349  -20.1527  -11.5991 C   0  0  0  0  0  0  0  0  0  0  0  0
   24.6103  -19.0927  -11.1699 O   0  0  0  0  0  0  0  0  0  0  0  0
   28.1023  -23.1114  -17.8076 N   0  0  0  0  0  0  0  0  0  0  0  0
   25.7166  -20.9543  -10.5795 C   0  0  2  0  0  0  0  0  0  0  0  0
   26.2292  -20.3994   -9.3692 C   0  0  0  0  0  0  0  0  0  0  0  0
   25.6296  -21.0293   -8.1288 S   0  0  0  0  0  0  0  0  0  0  0  0
   26.4619  -20.2264   -6.7033 C   0  0  0  0  0  0  0  0  0  0  0  0
   27.6884  -20.5883   -9.3280 O   0  0  0  0  0  0  0  0  0  0  0  0
   28.2125  -21.5538   -9.9014 O   0  0  0  0  0  0  0  0  0  0  0  0
  2  1  1  0
  2  3  2  0
  4  5  1  0
  4  2  1  0
  5  7  1  0
  5  6  1  1
  7  8  2  0
  9 10  1  0
 10 11  2  0
 12 13  1  0
 12 10  1  0
 13 14  1  0
 15 14  1  0
 16 18  1  0
 16 15  1  6
 17  7  1  0
 17 16  1  0
 18 19  2  0
 20 21  1  0
 20 18  1  0
 22 23  1  0
 21 22  1  1
 24 21  1  0
 24 26  1  0
 25 24  2  0
M  END
$$$$
