NRC.pdb
     RDKit          3D

 26 25  0  0  1  0  0  0  0  0999 V2000
   17.2754  -14.5957  -17.5175 N   0  0  0  0  0  0  0  0  0  0  0  0
   18.4025  -13.8238  -17.9056 C   0  0  0  0  0  0  0  0  0  0  0  0
   19.0155  -14.1634  -18.9672 O   0  0  0  0  0  0  0  0  0  0  0  0
   18.8565  -12.6619  -17.1082 C   0  0  0  0  0  0  0  0  0  0  0  0
   20.3457  -12.4987  -17.0920 C   0  0  2  0  0  0  0  0  0  0  0  0
   20.8825  -13.5777  -16.2565 N   0  0  0  0  0  0  0  0  0  0  0  0
   20.6458  -11.2025  -16.3957 C   0  0  0  0  0  0  0  0  0  0  0  0
   20.3109  -11.0778  -15.1942 O   0  0  0  0  0  0  0  0  0  0  0  0
   27.9420  -10.7385  -17.0511 N   0  0  0  0  0  0  0  0  0  0  0  0
   27.4608  -11.2801  -15.8338 C   0  0  0  0  0  0  0  0  0  0  0  0
   28.0211  -12.2836  -15.2431 N   0  0  0  0  0  0  0  0  0  0  0  0
   26.3235  -10.7022  -15.2381 N   0  0  0  0  0  0  0  0  0  0  0  0
   25.6270   -9.6224  -15.9172 C   0  0  0  0  0  0  0  0  0  0  0  0
   24.1693   -9.7961  -15.9192 C   0  0  0  0  0  0  0  0  0  0  0  0
   23.2391   -8.8102  -16.4417 C   0  0  0  0  0  0  0  0  0  0  0  0
   21.7846   -8.9258  -16.3352 C   0  0  2  0  0  0  0  0  0  0  0  0
   21.2899  -10.1225  -17.0428 N   0  0  0  0  0  0  0  0  0  0  0  0
   20.9196   -7.7820  -16.6305 C   0  0  0  0  0  0  0  0  0  0  0  0
   20.7608   -7.2369  -17.7102 O   0  0  0  0  0  0  0  0  0  0  0  0
   27.5294  -12.6867  -14.4208 N   0  0  0  0  0  0  0  0  0  0  0  0
   20.1286   -7.1739  -15.5574 C   0  0  2  0  0  0  0  0  0  0  0  0
   19.3500   -5.9923  -15.7398 C   0  0  0  0  0  0  0  0  0  0  0  0
   18.1832   -5.8982  -14.7782 S   0  0  0  0  0  0  0  0  0  0  0  0
   17.1615   -7.3935  -15.0777 C   0  0  0  0  0  0  0  0  0  0  0  0
   20.2072   -4.8113  -15.5482 O   0  0  0  0  0  0  0  0  0  0  0  0
   21.4078   -4.9455  -15.2719 O   0  0  0  0  0  0  0  0  0  0  0  0
  2  1  1  0
  2  3  2  0
  4  5  1  0
  4  2  1  0
  5  7  1  0
  5  6  1  1
  7  8  2  0
  9 10  1  0
 10 11  2  0
 12 13  1  0
 12 10  1  0
 13 14  1  0
 15 14  1  0
 16 18  1  0
 16 15  1  6
 17  7  1  0
 17 16  1  0
 18 19  2  0
 20 21  1  0
 20 18  1  0
 22 23  1  0
 21 22  1  6
 24 21  1  0
 24 26  1  0
 25 24  2  0
M  END
$$$$
