NRC.pdb
     RDKit          3D

 26 25  0  0  1  0  0  0  0  0999 V2000
   22.0691  -21.3677   -7.9099 N   0  0  0  0  0  0  0  0  0  0  0  0
   21.4601  -20.5218   -8.8744 C   0  0  0  0  0  0  0  0  0  0  0  0
   20.5543  -19.7234   -8.4742 O   0  0  0  0  0  0  0  0  0  0  0  0
   21.8589  -20.5608  -10.2997 C   0  0  0  0  0  0  0  0  0  0  0  0
   20.6969  -20.6791  -11.2381 C   0  0  2  0  0  0  0  0  0  0  0  0
   20.1500  -22.0293  -11.0692 N   0  0  0  0  0  0  0  0  0  0  0  0
   21.2395  -20.5880  -12.6353 C   0  0  0  0  0  0  0  0  0  0  0  0
   21.8576  -21.5735  -13.1020 O   0  0  0  0  0  0  0  0  0  0  0  0
   23.0093  -16.0564  -18.1489 N   0  0  0  0  0  0  0  0  0  0  0  0
   22.2290  -16.4092  -19.2773 C   0  0  0  0  0  0  0  0  0  0  0  0
   22.6896  -16.3821  -20.4843 N   0  0  0  0  0  0  0  0  0  0  0  0
   20.8934  -16.8083  -19.0793 N   0  0  0  0  0  0  0  0  0  0  0  0
   20.3857  -16.9730  -17.7274 C   0  0  0  0  0  0  0  0  0  0  0  0
   21.1935  -17.8982  -16.9234 C   0  0  0  0  0  0  0  0  0  0  0  0
   20.8253  -18.3429  -15.5904 C   0  0  0  0  0  0  0  0  0  0  0  0
   21.5836  -19.3311  -14.8229 C   0  0  2  0  0  0  0  0  0  0  0  0
   21.0790  -19.4363  -13.4402 N   0  0  0  0  0  0  0  0  0  0  0  0
   23.0476  -19.3101  -14.8164 C   0  0  0  0  0  0  0  0  0  0  0  0
   23.7709  -18.4926  -14.2720 O   0  0  0  0  0  0  0  0  0  0  0  0
   22.0267  -16.6096  -21.2518 N   0  0  0  0  0  0  0  0  0  0  0  0
   23.7916  -20.3565  -15.5224 C   0  0  2  0  0  0  0  0  0  0  0  0
   25.2154  -20.3707  -15.6138 C   0  0  0  0  0  0  0  0  0  0  0  0
   25.8006  -21.7648  -15.5197 S   0  0  0  0  0  0  0  0  0  0  0  0
   27.6157  -21.5630  -15.7046 C   0  0  0  0  0  0  0  0  0  0  0  0
   25.6256  -19.7796  -16.8979 O   0  0  0  0  0  0  0  0  0  0  0  0
   24.9251  -19.9282  -17.9093 O   0  0  0  0  0  0  0  0  0  0  0  0
  2  1  1  0
  2  3  2  0
  4  5  1  0
  4  2  1  0
  5  7  1  0
  5  6  1  6
  7  8  2  0
  9 10  1  0
 10 11  2  0
 12 13  1  0
 12 10  1  0
 13 14  1  0
 15 14  1  0
 16 18  1  0
 16 15  1  1
 17  7  1  0
 17 16  1  0
 18 19  2  0
 20 21  1  0
 20 18  1  0
 22 23  1  0
 21 22  1  6
 24 21  1  0
 24 26  1  0
 25 24  2  0
M  END
$$$$
