NRC.pdb
     RDKit          3D

 26 25  0  0  1  0  0  0  0  0999 V2000
   27.1145  -32.9378   -6.8466 N   0  0  0  0  0  0  0  0  0  0  0  0
   25.9942  -33.7418   -7.1855 C   0  0  0  0  0  0  0  0  0  0  0  0
   25.5560  -34.5483   -6.3047 O   0  0  0  0  0  0  0  0  0  0  0  0
   25.3513  -33.6521   -8.5161 C   0  0  0  0  0  0  0  0  0  0  0  0
   26.0544  -32.7180   -9.4531 C   0  0  2  0  0  0  0  0  0  0  0  0
   25.6934  -31.3562   -9.0461 N   0  0  0  0  0  0  0  0  0  0  0  0
   25.4802  -32.9425  -10.8224 C   0  0  0  0  0  0  0  0  0  0  0  0
   24.3245  -32.5208  -11.0625 O   0  0  0  0  0  0  0  0  0  0  0  0
   29.9171  -31.2273  -17.6414 N   0  0  0  0  0  0  0  0  0  0  0  0
   30.2578  -31.9826  -16.4925 C   0  0  0  0  0  0  0  0  0  0  0  0
   31.4571  -32.4042  -16.2610 N   0  0  0  0  0  0  0  0  0  0  0  0
   29.2488  -32.2883  -15.5593 N   0  0  0  0  0  0  0  0  0  0  0  0
   27.9684  -31.6048  -15.6357 C   0  0  0  0  0  0  0  0  0  0  0  0
   27.0561  -31.9793  -14.5482 C   0  0  0  0  0  0  0  0  0  0  0  0
   26.7410  -33.3527  -14.1952 C   0  0  0  0  0  0  0  0  0  0  0  0
   25.7046  -33.7294  -13.2337 C   0  0  2  0  0  0  0  0  0  0  0  0
   26.1927  -33.6087  -11.8464 N   0  0  0  0  0  0  0  0  0  0  0  0
   24.9578  -34.9791  -13.3900 C   0  0  0  0  0  0  0  0  0  0  0  0
   25.3633  -36.1110  -13.1842 O   0  0  0  0  0  0  0  0  0  0  0  0
   31.6176  -32.9174  -15.3715 N   0  0  0  0  0  0  0  0  0  0  0  0
   23.5641  -34.9405  -13.8404 C   0  0  1  0  0  0  0  0  0  0  0  0
   22.7577  -36.1100  -13.9736 C   0  0  0  0  0  0  0  0  0  0  0  0
   21.2756  -35.8029  -14.0361 S   0  0  0  0  0  0  0  0  0  0  0  0
   20.8861  -34.8837  -12.4956 C   0  0  0  0  0  0  0  0  0  0  0  0
   23.1372  -36.8241  -15.2034 O   0  0  0  0  0  0  0  0  0  0  0  0
   23.9701  -36.3363  -15.9806 O   0  0  0  0  0  0  0  0  0  0  0  0
  2  1  1  0
  2  3  2  0
  4  5  1  0
  4  2  1  0
  5  7  1  0
  5  6  1  1
  7  8  2  0
  9 10  1  0
 10 11  2  0
 12 13  1  0
 12 10  1  0
 13 14  1  0
 15 14  1  0
 16 18  1  0
 16 15  1  6
 17  7  1  0
 17 16  1  0
 18 19  2  0
 20 21  1  0
 20 18  1  0
 22 23  1  0
 21 22  1  1
 24 21  1  0
 24 26  1  0
 25 24  2  0
M  END
$$$$
