NRC.pdb
     RDKit          3D

 26 25  0  0  1  0  0  0  0  0999 V2000
   15.3982  -14.3038  -16.0851 N   0  0  0  0  0  0  0  0  0  0  0  0
   16.7025  -14.7570  -15.7533 C   0  0  0  0  0  0  0  0  0  0  0  0
   16.8224  -15.9440  -15.3118 O   0  0  0  0  0  0  0  0  0  0  0  0
   17.8884  -13.8851  -15.9118 C   0  0  0  0  0  0  0  0  0  0  0  0
   17.5578  -12.5245  -16.4451 C   0  0  2  0  0  0  0  0  0  0  0  0
   17.5049  -12.6418  -17.9059 N   0  0  0  0  0  0  0  0  0  0  0  0
   18.7097  -11.6212  -16.1105 C   0  0  0  0  0  0  0  0  0  0  0  0
   18.9777  -11.4162  -14.9033 O   0  0  0  0  0  0  0  0  0  0  0  0
   21.6714   -9.2983  -23.1445 N   0  0  0  0  0  0  0  0  0  0  0  0
   22.1287   -8.3090  -22.2396 C   0  0  0  0  0  0  0  0  0  0  0  0
   22.3538   -7.0865  -22.5926 N   0  0  0  0  0  0  0  0  0  0  0  0
   22.3478   -8.6690  -20.8963 N   0  0  0  0  0  0  0  0  0  0  0  0
   22.0627  -10.0260  -20.4604 C   0  0  0  0  0  0  0  0  0  0  0  0
   21.1359  -10.0770  -19.3232 C   0  0  0  0  0  0  0  0  0  0  0  0
   21.5575  -10.0173  -17.9343 C   0  0  0  0  0  0  0  0  0  0  0  0
   20.6387  -10.1085  -16.7994 C   0  0  2  0  0  0  0  0  0  0  0  0
   19.4999  -10.9964  -17.1031 N   0  0  0  0  0  0  0  0  0  0  0  0
   20.1596   -8.8999  -16.1259 C   0  0  0  0  0  0  0  0  0  0  0  0
   19.2447   -8.1735  -16.4771 O   0  0  0  0  0  0  0  0  0  0  0  0
   22.6156   -6.4154  -21.8433 N   0  0  0  0  0  0  0  0  0  0  0  0
   20.8047   -8.4547  -14.8879 C   0  0  1  0  0  0  0  0  0  0  0  0
   20.4116   -7.2755  -14.1874 C   0  0  0  0  0  0  0  0  0  0  0  0
   20.6663   -7.3604  -12.6964 S   0  0  0  0  0  0  0  0  0  0  0  0
   19.5965   -8.7183  -12.0789 C   0  0  0  0  0  0  0  0  0  0  0  0
   21.1547   -6.1227  -14.7215 O   0  0  0  0  0  0  0  0  0  0  0  0
   21.9865   -6.2773  -15.6270 O   0  0  0  0  0  0  0  0  0  0  0  0
  2  1  1  0
  2  3  2  0
  4  5  1  0
  4  2  1  0
  5  7  1  0
  5  6  1  6
  7  8  2  0
  9 10  1  0
 10 11  2  0
 12 13  1  0
 12 10  1  0
 13 14  1  0
 15 14  1  0
 16 18  1  0
 16 15  1  6
 17  7  1  0
 17 16  1  0
 18 19  2  0
 20 21  1  0
 20 18  1  0
 22 23  1  0
 21 22  1  1
 24 21  1  0
 24 26  1  0
 25 24  2  0
M  END
$$$$
