NRC.pdb
     RDKit          3D

 26 25  0  0  1  0  0  0  0  0999 V2000
   14.1456   -8.3487  -23.7882 N   0  0  0  0  0  0  0  0  0  0  0  0
   13.5187   -7.3656  -22.9777 C   0  0  0  0  0  0  0  0  0  0  0  0
   12.7896   -6.4984  -23.5560 O   0  0  0  0  0  0  0  0  0  0  0  0
   13.7017   -7.3422  -21.5087 C   0  0  0  0  0  0  0  0  0  0  0  0
   14.5418   -8.4724  -20.9971 C   0  0  2  0  0  0  0  0  0  0  0  0
   13.6424   -9.6129  -20.7948 N   0  0  0  0  0  0  0  0  0  0  0  0
   15.0615   -8.0679  -19.6476 C   0  0  0  0  0  0  0  0  0  0  0  0
   14.2370   -7.7294  -18.7663 O   0  0  0  0  0  0  0  0  0  0  0  0
   19.6032  -13.0929  -15.1434 N   0  0  0  0  0  0  0  0  0  0  0  0
   18.1872  -13.0985  -15.1019 C   0  0  0  0  0  0  0  0  0  0  0  0
   17.5060  -14.0445  -14.5445 N   0  0  0  0  0  0  0  0  0  0  0  0
   17.4882  -12.0280  -15.6915 N   0  0  0  0  0  0  0  0  0  0  0  0
   18.2273  -10.9568  -16.3387 C   0  0  0  0  0  0  0  0  0  0  0  0
   17.3546   -9.9085  -16.8813 C   0  0  0  0  0  0  0  0  0  0  0  0
   17.8441   -8.6666  -17.4544 C   0  0  0  0  0  0  0  0  0  0  0  0
   16.9773   -7.6363  -18.0268 C   0  0  2  0  0  0  0  0  0  0  0  0
   16.4409   -8.0553  -19.3361 N   0  0  0  0  0  0  0  0  0  0  0  0
   17.4175   -6.2415  -18.0944 C   0  0  0  0  0  0  0  0  0  0  0  0
   18.2046   -5.7543  -18.8889 O   0  0  0  0  0  0  0  0  0  0  0  0
   16.4744  -13.9252  -14.4999 N   0  0  0  0  0  0  0  0  0  0  0  0
   16.8955   -5.2680  -17.1317 C   0  0  2  0  0  0  0  0  0  0  0  0
   17.2760   -3.8929  -17.1330 C   0  0  0  0  0  0  0  0  0  0  0  0
   16.2104   -2.9835  -16.5563 S   0  0  0  0  0  0  0  0  0  0  0  0
   14.7253   -3.2163  -17.6097 C   0  0  0  0  0  0  0  0  0  0  0  0
   18.5061   -3.7286  -16.3415 O   0  0  0  0  0  0  0  0  0  0  0  0
   19.0243   -4.7029  -15.7778 O   0  0  0  0  0  0  0  0  0  0  0  0
  2  1  1  0
  2  3  2  0
  4  5  1  0
  4  2  1  0
  5  7  1  0
  5  6  1  1
  7  8  2  0
  9 10  1  0
 10 11  2  0
 12 13  1  0
 12 10  1  0
 13 14  1  0
 15 14  1  0
 16 18  1  0
 16 15  1  6
 17  7  1  0
 17 16  1  0
 18 19  2  0
 20 21  1  0
 20 18  1  0
 22 23  1  0
 21 22  1  6
 24 21  1  0
 24 26  1  0
 25 24  2  0
M  END
$$$$
