NRC.pdb
     RDKit          3D

 26 25  0  0  1  0  0  0  0  0999 V2000
   23.9611  -17.9377  -20.0474 N   0  0  0  0  0  0  0  0  0  0  0  0
   24.7057  -19.1469  -20.0459 C   0  0  0  0  0  0  0  0  0  0  0  0
   24.8822  -19.7351  -21.1599 O   0  0  0  0  0  0  0  0  0  0  0  0
   25.2615  -19.7119  -18.7953 C   0  0  0  0  0  0  0  0  0  0  0  0
   24.9671  -18.8788  -17.5854 C   0  0  2  0  0  0  0  0  0  0  0  0
   25.8114  -17.6832  -17.6769 N   0  0  0  0  0  0  0  0  0  0  0  0
   25.4228  -19.6572  -16.3849 C   0  0  0  0  0  0  0  0  0  0  0  0
   24.7400  -20.6416  -16.0161 O   0  0  0  0  0  0  0  0  0  0  0  0
   31.0968  -24.3513  -15.6728 N   0  0  0  0  0  0  0  0  0  0  0  0
   30.5619  -23.8437  -16.8824 C   0  0  0  0  0  0  0  0  0  0  0  0
   30.8498  -24.3416  -18.0395 N   0  0  0  0  0  0  0  0  0  0  0  0
   29.6770  -22.7502  -16.8254 N   0  0  0  0  0  0  0  0  0  0  0  0
   29.1470  -22.3208  -15.5419 C   0  0  0  0  0  0  0  0  0  0  0  0
   29.3525  -20.8893  -15.2900 C   0  0  0  0  0  0  0  0  0  0  0  0
   28.5161  -20.0967  -14.4054 C   0  0  0  0  0  0  0  0  0  0  0  0
   27.0549  -20.0688  -14.4742 C   0  0  2  0  0  0  0  0  0  0  0  0
   26.5893  -19.3222  -15.6588 N   0  0  0  0  0  0  0  0  0  0  0  0
   26.2581  -19.6916  -13.3052 C   0  0  0  0  0  0  0  0  0  0  0  0
   25.9822  -18.5628  -12.9340 O   0  0  0  0  0  0  0  0  0  0  0  0
   30.4579  -23.8625  -18.8745 N   0  0  0  0  0  0  0  0  0  0  0  0
   25.6992  -20.7341  -12.4405 C   0  0  2  0  0  0  0  0  0  0  0  0
   24.9719  -20.4466  -11.2472 C   0  0  0  0  0  0  0  0  0  0  0  0
   23.4754  -20.6158  -11.4109 S   0  0  0  0  0  0  0  0  0  0  0  0
   22.7477  -20.2918   -9.7571 C   0  0  0  0  0  0  0  0  0  0  0  0
   25.4269  -21.3442  -10.1730 O   0  0  0  0  0  0  0  0  0  0  0  0
   26.0110  -22.4027  -10.4450 O   0  0  0  0  0  0  0  0  0  0  0  0
  2  1  1  0
  2  3  2  0
  4  5  1  0
  4  2  1  0
  5  7  1  0
  5  6  1  6
  7  8  2  0
  9 10  1  0
 10 11  2  0
 12 13  1  0
 12 10  1  0
 13 14  1  0
 15 14  1  0
 16 18  1  0
 16 15  1  1
 17  7  1  0
 17 16  1  0
 18 19  2  0
 20 21  1  0
 20 18  1  0
 22 23  1  0
 21 22  1  6
 24 21  1  0
 24 26  1  0
 25 24  2  0
M  END
$$$$
