CMF.pdb
     RDKit          3D

 26 26  0  0  1  0  0  0  0  0999 V2000
   22.2356  -15.2758  -18.4750 N   0  0  0  0  0  0  0  0  0  0  0  0
   21.2145  -14.4190  -17.9684 C   0  0  1  0  0  0  0  0  0  0  0  0
   20.8694  -14.8973  -16.5532 C   0  0  0  0  0  0  0  0  0  0  0  0
   19.5793  -16.1395  -16.5525 S   0  0  0  0  0  0  0  0  0  0  0  0
   21.6033  -13.0071  -17.8654 C   0  0  0  0  0  0  0  0  0  0  0  0
   22.7272  -12.7103  -17.3885 O   0  0  0  0  0  0  0  0  0  0  0  0
   21.1574   -7.8568  -22.1198 C   0  0  0  0  0  0  0  0  0  0  0  0
   19.9792   -7.5980  -20.7919 S   0  0  0  0  0  0  0  0  0  0  0  0
   20.5444   -8.3184  -19.2176 C   0  0  0  0  0  0  0  0  0  0  0  0
   20.3090   -9.8096  -19.1921 C   0  0  0  0  0  0  0  0  0  0  0  0
   21.1653  -10.5398  -18.2249 C   0  0  2  0  0  0  0  0  0  0  0  0
   20.7603  -11.9515  -18.2837 N   0  0  0  0  0  0  0  0  0  0  0  0
   21.1611  -10.0446  -16.8457 C   0  0  0  0  0  0  0  0  0  0  0  0
   20.2865  -10.3722  -16.0060 O   0  0  0  0  0  0  0  0  0  0  0  0
   22.1617   -9.1415  -16.3446 N   0  0  0  0  0  0  0  0  0  0  0  0
   22.0962   -8.6502  -14.9857 C   0  0  1  0  0  0  0  0  0  0  0  0
   23.2036   -9.2549  -14.1678 C   0  0  0  0  0  0  0  0  0  0  0  0
   24.4168   -9.5523  -14.9404 C   0  0  0  0  0  0  0  0  0  0  0  0
   24.9457   -8.6298  -15.8338 C   0  0  0  0  0  0  0  0  0  0  0  0
   26.0913   -8.8980  -16.5600 C   0  0  0  0  0  0  0  0  0  0  0  0
   26.7530  -10.0969  -16.4226 C   0  0  0  0  0  0  0  0  0  0  0  0
   26.2419  -11.0206  -15.5421 C   0  0  0  0  0  0  0  0  0  0  0  0
   25.0918  -10.7474  -14.8150 C   0  0  0  0  0  0  0  0  0  0  0  0
   22.1394   -7.1742  -15.0593 C   0  0  0  0  0  0  0  0  0  0  0  0
   21.9652   -6.5210  -14.0073 O   0  0  0  0  0  0  0  0  0  0  0  0
   22.3629   -6.4848  -16.2338 O   0  0  0  0  0  0  0  0  0  0  0  0
  2  3  1  0
  2  5  1  0
  2  1  1  1
  4  3  1  0
  5  6  2  0
  7  8  1  0
  8  9  1  0
  9 10  1  0
 11 10  1  6
 11 13  1  0
 12 11  1  0
 12  5  1  0
 13 14  2  0
 15 16  1  0
 15 13  1  0
 16 24  1  0
 16 17  1  1
 18 19  2  0
 18 17  1  0
 20 19  1  0
 21 20  2  0
 22 21  1  0
 22 23  2  0
 23 18  1  0
 24 25  2  0
 24 26  1  0
M  END
$$$$
