CMF.pdb
     RDKit          3D

 26 26  0  0  1  0  0  0  0  0999 V2000
   19.8811  -16.1888  -16.0949 N   0  0  0  0  0  0  0  0  0  0  0  0
   20.2057  -15.1096  -16.9685 C   0  0  1  0  0  0  0  0  0  0  0  0
   18.9719  -14.2046  -17.0641 C   0  0  0  0  0  0  0  0  0  0  0  0
   17.6253  -14.9847  -17.9504 S   0  0  0  0  0  0  0  0  0  0  0  0
   21.3218  -14.2731  -16.5104 C   0  0  0  0  0  0  0  0  0  0  0  0
   21.3178  -13.8294  -15.3349 O   0  0  0  0  0  0  0  0  0  0  0  0
   28.2539  -12.6611  -15.4584 C   0  0  0  0  0  0  0  0  0  0  0  0
   26.7483  -13.4915  -15.9703 S   0  0  0  0  0  0  0  0  0  0  0  0
   25.9481  -12.6625  -17.3807 C   0  0  0  0  0  0  0  0  0  0  0  0
   24.6769  -13.3758  -17.7746 C   0  0  0  0  0  0  0  0  0  0  0  0
   23.5195  -13.0769  -16.8955 C   0  0  2  0  0  0  0  0  0  0  0  0
   22.4159  -13.9391  -17.3418 N   0  0  0  0  0  0  0  0  0  0  0  0
   23.0999  -11.6747  -16.8225 C   0  0  0  0  0  0  0  0  0  0  0  0
   22.3359  -11.1465  -17.6679 O   0  0  0  0  0  0  0  0  0  0  0  0
   23.5321  -10.7911  -15.7735 N   0  0  0  0  0  0  0  0  0  0  0  0
   23.1528   -9.3952  -15.7834 C   0  0  1  0  0  0  0  0  0  0  0  0
   23.4054   -8.7856  -14.4323 C   0  0  0  0  0  0  0  0  0  0  0  0
   23.0629   -7.3596  -14.3518 C   0  0  0  0  0  0  0  0  0  0  0  0
   21.8683   -6.9370  -13.7834 C   0  0  0  0  0  0  0  0  0  0  0  0
   21.5406   -5.5965  -13.6966 C   0  0  0  0  0  0  0  0  0  0  0  0
   22.3923   -4.6266  -14.1738 C   0  0  0  0  0  0  0  0  0  0  0  0
   23.5789   -5.0289  -14.7394 C   0  0  0  0  0  0  0  0  0  0  0  0
   23.9041   -6.3754  -14.8244 C   0  0  0  0  0  0  0  0  0  0  0  0
   23.9039   -8.7531  -16.8832 C   0  0  0  0  0  0  0  0  0  0  0  0
   25.0991   -9.0776  -17.0558 O   0  0  0  0  0  0  0  0  0  0  0  0
   23.3474   -7.8133  -17.7270 O   0  0  0  0  0  0  0  0  0  0  0  0
  2  3  1  0
  2  5  1  0
  2  1  1  1
  4  3  1  0
  5  6  2  0
  7  8  1  0
  8  9  1  0
  9 10  1  0
 11 10  1  6
 11 13  1  0
 12 11  1  0
 12  5  1  0
 13 14  2  0
 15 16  1  0
 15 13  1  0
 16 24  1  0
 16 17  1  1
 18 19  2  0
 18 17  1  0
 20 19  1  0
 21 20  2  0
 22 21  1  0
 22 23  2  0
 23 18  1  0
 24 25  2  0
 24 26  1  0
M  END
$$$$
