CMF.pdb
     RDKit          3D

 26 26  0  0  1  0  0  0  0  0999 V2000
   26.8584  -19.8793  -10.1381 N   0  0  0  0  0  0  0  0  0  0  0  0
   26.0837  -20.6891  -11.0196 C   0  0  1  0  0  0  0  0  0  0  0  0
   24.6363  -20.6689  -10.5145 C   0  0  0  0  0  0  0  0  0  0  0  0
   24.4775  -21.3873   -8.8816 S   0  0  0  0  0  0  0  0  0  0  0  0
   26.0631  -20.2223  -12.4114 C   0  0  0  0  0  0  0  0  0  0  0  0
   25.9666  -18.9920  -12.6477 O   0  0  0  0  0  0  0  0  0  0  0  0
   28.5531  -19.0811  -17.6459 C   0  0  0  0  0  0  0  0  0  0  0  0
   28.8917  -19.2634  -15.8936 S   0  0  0  0  0  0  0  0  0  0  0  0
   28.6398  -20.9721  -15.3161 C   0  0  0  0  0  0  0  0  0  0  0  0
   27.2295  -21.4332  -15.5961 C   0  0  0  0  0  0  0  0  0  0  0  0
   26.1853  -20.6365  -14.9059 C   0  0  2  0  0  0  0  0  0  0  0  0
   26.1479  -21.1048  -13.5132 N   0  0  0  0  0  0  0  0  0  0  0  0
   24.8485  -20.6526  -15.5061 C   0  0  0  0  0  0  0  0  0  0  0  0
   23.9054  -21.3469  -15.0523 O   0  0  0  0  0  0  0  0  0  0  0  0
   24.5113  -19.8720  -16.6658 N   0  0  0  0  0  0  0  0  0  0  0  0
   23.1291  -19.5988  -16.9933 C   0  0  1  0  0  0  0  0  0  0  0  0
   22.4699  -18.8613  -15.8607 C   0  0  0  0  0  0  0  0  0  0  0  0
   21.1071  -18.4051  -16.1639 C   0  0  0  0  0  0  0  0  0  0  0  0
   20.8759  -17.1680  -16.7513 C   0  0  0  0  0  0  0  0  0  0  0  0
   19.5972  -16.7331  -17.0471 C   0  0  0  0  0  0  0  0  0  0  0  0
   18.5003  -17.5161  -16.7680 C   0  0  0  0  0  0  0  0  0  0  0  0
   18.7126  -18.7434  -16.1866 C   0  0  0  0  0  0  0  0  0  0  0  0
   19.9977  -19.1762  -15.8914 C   0  0  0  0  0  0  0  0  0  0  0  0
   23.1284  -18.8598  -18.2739 C   0  0  0  0  0  0  0  0  0  0  0  0
   22.2015  -19.0764  -19.0848 O   0  0  0  0  0  0  0  0  0  0  0  0
   24.1022  -17.9433  -18.6152 O   0  0  0  0  0  0  0  0  0  0  0  0
  2  3  1  0
  2  5  1  0
  2  1  1  1
  4  3  1  0
  5  6  2  0
  7  8  1  0
  8  9  1  0
  9 10  1  0
 11 10  1  6
 11 13  1  0
 12 11  1  0
 12  5  1  0
 13 14  2  0
 15 16  1  0
 15 13  1  0
 16 24  1  0
 16 17  1  1
 18 19  2  0
 18 17  1  0
 20 19  1  0
 21 20  2  0
 22 21  1  0
 22 23  2  0
 23 18  1  0
 24 25  2  0
 24 26  1  0
M  END
$$$$
