CMF.pdb
     RDKit          3D

 26 26  0  0  1  0  0  0  0  0999 V2000
   29.0165  -17.0749  -17.7876 N   0  0  0  0  0  0  0  0  0  0  0  0
   28.0725  -18.1429  -17.7525 C   0  0  1  0  0  0  0  0  0  0  0  0
   28.8592  -19.4577  -17.8084 C   0  0  0  0  0  0  0  0  0  0  0  0
   29.2965  -19.9159  -19.4836 S   0  0  0  0  0  0  0  0  0  0  0  0
   27.2473  -18.1835  -16.5388 C   0  0  0  0  0  0  0  0  0  0  0  0
   27.7651  -17.8936  -15.4313 O   0  0  0  0  0  0  0  0  0  0  0  0
   21.0140  -17.3430  -16.9740 C   0  0  0  0  0  0  0  0  0  0  0  0
   21.0069  -17.8023  -15.2398 S   0  0  0  0  0  0  0  0  0  0  0  0
   22.6728  -18.2103  -14.6271 C   0  0  0  0  0  0  0  0  0  0  0  0
   23.6874  -18.1499  -15.7437 C   0  0  0  0  0  0  0  0  0  0  0  0
   25.0504  -18.5801  -15.3452 C   0  0  2  0  0  0  0  0  0  0  0  0
   25.8786  -18.5383  -16.5588 N   0  0  0  0  0  0  0  0  0  0  0  0
   25.1555  -19.8800  -14.6768 C   0  0  0  0  0  0  0  0  0  0  0  0
   25.2024  -20.9674  -15.3035 O   0  0  0  0  0  0  0  0  0  0  0  0
   25.2130  -20.0122  -13.2460 N   0  0  0  0  0  0  0  0  0  0  0  0
   25.3001  -21.3181  -12.6300 C   0  0  1  0  0  0  0  0  0  0  0  0
   26.5284  -21.3967  -11.7662 C   0  0  0  0  0  0  0  0  0  0  0  0
   26.3758  -20.7468  -10.4580 C   0  0  0  0  0  0  0  0  0  0  0  0
   26.3801  -19.3633  -10.3364 C   0  0  0  0  0  0  0  0  0  0  0  0
   26.2298  -18.7425   -9.1101 C   0  0  0  0  0  0  0  0  0  0  0  0
   26.0695  -19.4784   -7.9583 C   0  0  0  0  0  0  0  0  0  0  0  0
   26.0631  -20.8491   -8.0621 C   0  0  0  0  0  0  0  0  0  0  0  0
   26.2141  -21.4683   -9.2948 C   0  0  0  0  0  0  0  0  0  0  0  0
   24.0342  -21.5332  -11.8970 C   0  0  0  0  0  0  0  0  0  0  0  0
   23.7900  -22.6772  -11.4551 O   0  0  0  0  0  0  0  0  0  0  0  0
   23.1109  -20.5310  -11.6782 O   0  0  0  0  0  0  0  0  0  0  0  0
  2  3  1  0
  2  5  1  0
  2  1  1  1
  4  3  1  0
  5  6  2  0
  7  8  1  0
  8  9  1  0
  9 10  1  0
 11 10  1  6
 11 13  1  0
 12 11  1  0
 12  5  1  0
 13 14  2  0
 15 16  1  0
 15 13  1  0
 16 24  1  0
 16 17  1  1
 18 19  2  0
 18 17  1  0
 20 19  1  0
 21 20  2  0
 22 21  1  0
 22 23  2  0
 23 18  1  0
 24 25  2  0
 24 26  1  0
M  END
$$$$
