CMF.pdb
     RDKit          3D

 26 26  0  0  1  0  0  0  0  0999 V2000
   28.5979  -21.6041  -15.7272 N   0  0  0  0  0  0  0  0  0  0  0  0
   28.1134  -20.6278  -14.8077 C   0  0  1  0  0  0  0  0  0  0  0  0
   27.4262  -19.5258  -15.6226 C   0  0  0  0  0  0  0  0  0  0  0  0
   28.6000  -18.5117  -16.5177 S   0  0  0  0  0  0  0  0  0  0  0  0
   27.1259  -21.1361  -13.8477 C   0  0  0  0  0  0  0  0  0  0  0  0
   26.2749  -21.9792  -14.2266 O   0  0  0  0  0  0  0  0  0  0  0  0
   27.6233  -20.3666   -7.3210 C   0  0  0  0  0  0  0  0  0  0  0  0
   25.8598  -20.1570   -7.5751 S   0  0  0  0  0  0  0  0  0  0  0  0
   25.3129  -20.8055   -9.1867 C   0  0  0  0  0  0  0  0  0  0  0  0
   26.3613  -20.5681  -10.2470 C   0  0  0  0  0  0  0  0  0  0  0  0
   25.9594  -21.0132  -11.6042 C   0  0  2  0  0  0  0  0  0  0  0  0
   27.0875  -20.7152  -12.4981 N   0  0  0  0  0  0  0  0  0  0  0  0
   24.7077  -20.4603  -12.1287 C   0  0  0  0  0  0  0  0  0  0  0  0
   24.6043  -19.2788  -12.5422 O   0  0  0  0  0  0  0  0  0  0  0  0
   23.4959  -21.2301  -12.2108 N   0  0  0  0  0  0  0  0  0  0  0  0
   22.3347  -20.7050  -12.8951 C   0  0  1  0  0  0  0  0  0  0  0  0
   22.2963  -21.2184  -14.3079 C   0  0  0  0  0  0  0  0  0  0  0  0
   22.1424  -22.6758  -14.4051 C   0  0  0  0  0  0  0  0  0  0  0  0
   20.9050  -23.2823  -14.2324 C   0  0  0  0  0  0  0  0  0  0  0  0
   20.7491  -24.6527  -14.3293 C   0  0  0  0  0  0  0  0  0  0  0  0
   21.8220  -25.4704  -14.6023 C   0  0  0  0  0  0  0  0  0  0  0  0
   23.0536  -24.8851  -14.7760 C   0  0  0  0  0  0  0  0  0  0  0  0
   23.2058  -23.5092  -14.6780 C   0  0  0  0  0  0  0  0  0  0  0  0
   21.1540  -21.0779  -12.0870 C   0  0  0  0  0  0  0  0  0  0  0  0
   20.0254  -20.7064  -12.4767 O   0  0  0  0  0  0  0  0  0  0  0  0
   21.2399  -21.8160  -10.9240 O   0  0  0  0  0  0  0  0  0  0  0  0
  2  3  1  0
  2  5  1  0
  2  1  1  6
  4  3  1  0
  5  6  2  0
  7  8  1  0
  8  9  1  0
  9 10  1  0
 11 10  1  1
 11 13  1  0
 12 11  1  0
 12  5  1  0
 13 14  2  0
 15 16  1  0
 15 13  1  0
 16 24  1  0
 16 17  1  6
 18 19  2  0
 18 17  1  0
 20 19  1  0
 21 20  2  0
 22 21  1  0
 22 23  2  0
 23 18  1  0
 24 25  2  0
 24 26  1  0
M  END
$$$$
