CMF.pdb
     RDKit          3D

 26 26  0  0  1  0  0  0  0  0999 V2000
   26.2335    3.0408  -13.7095 N   0  0  0  0  0  0  0  0  0  0  0  0
   25.8016    3.4607  -12.4171 C   0  0  1  0  0  0  0  0  0  0  0  0
   25.0737    2.2788  -11.7660 C   0  0  0  0  0  0  0  0  0  0  0  0
   23.4319    2.0385  -12.4402 S   0  0  0  0  0  0  0  0  0  0  0  0
   26.8890    3.8514  -11.5114 C   0  0  0  0  0  0  0  0  0  0  0  0
   28.0240    3.3306  -11.6501 O   0  0  0  0  0  0  0  0  0  0  0  0
   27.9458    9.9517   -8.2680 C   0  0  0  0  0  0  0  0  0  0  0  0
   29.1523    9.1302   -9.3111 S   0  0  0  0  0  0  0  0  0  0  0  0
   29.1309    7.3216   -9.0984 C   0  0  0  0  0  0  0  0  0  0  0  0
   27.9308    6.7126   -9.7830 C   0  0  0  0  0  0  0  0  0  0  0  0
   27.8190    5.2429   -9.6121 C   0  0  2  0  0  0  0  0  0  0  0  0
   26.7161    4.7995  -10.4764 N   0  0  0  0  0  0  0  0  0  0  0  0
   27.6456    4.7565   -8.2406 C   0  0  0  0  0  0  0  0  0  0  0  0
   26.5666    4.8699   -7.6080 O   0  0  0  0  0  0  0  0  0  0  0  0
   28.7014    4.1092   -7.5097 N   0  0  0  0  0  0  0  0  0  0  0  0
   28.5152    3.7320   -6.1257 C   0  0  1  0  0  0  0  0  0  0  0  0
   28.2835    2.2496   -6.0250 C   0  0  0  0  0  0  0  0  0  0  0  0
   26.9734    1.8186   -6.5301 C   0  0  0  0  0  0  0  0  0  0  0  0
   26.8078    1.4123   -7.8478 C   0  0  0  0  0  0  0  0  0  0  0  0
   25.5801    0.9980   -8.3302 C   0  0  0  0  0  0  0  0  0  0  0  0
   24.4707    0.9733   -7.5163 C   0  0  0  0  0  0  0  0  0  0  0  0
   24.6183    1.3725   -6.2092 C   0  0  0  0  0  0  0  0  0  0  0  0
   25.8523    1.7876   -5.7289 C   0  0  0  0  0  0  0  0  0  0  0  0
   29.7043    4.2068   -5.3866 C   0  0  0  0  0  0  0  0  0  0  0  0
   30.6118    4.7818   -6.0265 O   0  0  0  0  0  0  0  0  0  0  0  0
   29.8588    4.0450   -4.0247 O   0  0  0  0  0  0  0  0  0  0  0  0
  2  3  1  0
  2  5  1  0
  2  1  1  6
  4  3  1  0
  5  6  2  0
  7  8  1  0
  8  9  1  0
  9 10  1  0
 11 10  1  1
 11 13  1  0
 12 11  1  0
 12  5  1  0
 13 14  2  0
 15 16  1  0
 15 13  1  0
 16 24  1  0
 16 17  1  6
 18 19  2  0
 18 17  1  0
 20 19  1  0
 21 20  2  0
 22 21  1  0
 22 23  2  0
 23 18  1  0
 24 25  2  0
 24 26  1  0
M  END
$$$$
