CMF.pdb
     RDKit          3D

 26 26  0  0  1  0  0  0  0  0999 V2000
   28.1609  -11.8390  -21.0332 N   0  0  0  0  0  0  0  0  0  0  0  0
   28.0249  -10.7156  -20.1656 C   0  0  1  0  0  0  0  0  0  0  0  0
   27.7553   -9.4857  -21.0403 C   0  0  0  0  0  0  0  0  0  0  0  0
   29.1283   -9.1124  -22.1280 S   0  0  0  0  0  0  0  0  0  0  0  0
   26.9156  -10.8185  -19.2094 C   0  0  0  0  0  0  0  0  0  0  0  0
   25.7545  -11.0425  -19.6339 O   0  0  0  0  0  0  0  0  0  0  0  0
   25.5232  -15.1646  -14.4922 C   0  0  0  0  0  0  0  0  0  0  0  0
   27.0407  -14.3959  -15.0619 S   0  0  0  0  0  0  0  0  0  0  0  0
   26.7464  -13.1955  -16.3995 C   0  0  0  0  0  0  0  0  0  0  0  0
   26.4643  -11.8222  -15.8388 C   0  0  0  0  0  0  0  0  0  0  0  0
   25.9990  -10.8409  -16.8498 C   0  0  2  0  0  0  0  0  0  0  0  0
   27.0958  -10.6752  -17.8141 N   0  0  0  0  0  0  0  0  0  0  0  0
   25.5418   -9.5453  -16.3400 C   0  0  0  0  0  0  0  0  0  0  0  0
   26.2808   -8.5307  -16.2949 O   0  0  0  0  0  0  0  0  0  0  0  0
   24.2066   -9.3340  -15.8497 N   0  0  0  0  0  0  0  0  0  0  0  0
   23.7535   -8.0067  -15.4952 C   0  0  1  0  0  0  0  0  0  0  0  0
   24.0634   -7.0448  -16.6087 C   0  0  0  0  0  0  0  0  0  0  0  0
   23.4477   -5.7223  -16.4381 C   0  0  0  0  0  0  0  0  0  0  0  0
   22.3898   -5.3118  -17.2388 C   0  0  0  0  0  0  0  0  0  0  0  0
   21.7992   -4.0717  -17.0808 C   0  0  0  0  0  0  0  0  0  0  0  0
   22.2416   -3.1937  -16.1177 C   0  0  0  0  0  0  0  0  0  0  0  0
   23.2880   -3.5854  -15.3169 C   0  0  0  0  0  0  0  0  0  0  0  0
   23.8780   -4.8311  -15.4788 C   0  0  0  0  0  0  0  0  0  0  0  0
   22.3139   -8.1144  -15.1762 C   0  0  0  0  0  0  0  0  0  0  0  0
   21.6217   -8.9328  -15.8202 O   0  0  0  0  0  0  0  0  0  0  0  0
   21.6995   -7.3543  -14.2017 O   0  0  0  0  0  0  0  0  0  0  0  0
  2  3  1  0
  2  5  1  0
  2  1  1  6
  4  3  1  0
  5  6  2  0
  7  8  1  0
  8  9  1  0
  9 10  1  0
 11 10  1  1
 11 13  1  0
 12 11  1  0
 12  5  1  0
 13 14  2  0
 15 16  1  0
 15 13  1  0
 16 24  1  0
 16 17  1  6
 18 19  2  0
 18 17  1  0
 20 19  1  0
 21 20  2  0
 22 21  1  0
 22 23  2  0
 23 18  1  0
 24 25  2  0
 24 26  1  0
M  END
$$$$
