CMF.pdb
     RDKit          3D

 26 26  0  0  1  0  0  0  0  0999 V2000
   26.8542  -19.2454  -15.3750 N   0  0  0  0  0  0  0  0  0  0  0  0
   27.0039  -20.3087  -14.4368 C   0  0  1  0  0  0  0  0  0  0  0  0
   28.5036  -20.4823  -14.1697 C   0  0  0  0  0  0  0  0  0  0  0  0
   29.3005  -21.4987  -15.4104 S   0  0  0  0  0  0  0  0  0  0  0  0
   26.3581  -20.0690  -13.1403 C   0  0  0  0  0  0  0  0  0  0  0  0
   26.3808  -18.9149  -12.6442 O   0  0  0  0  0  0  0  0  0  0  0  0
   20.9158  -18.6998  -12.4311 C   0  0  0  0  0  0  0  0  0  0  0  0
   22.2893  -19.3792  -11.4982 S   0  0  0  0  0  0  0  0  0  0  0  0
   22.6887  -21.0837  -12.0003 C   0  0  0  0  0  0  0  0  0  0  0  0
   23.7879  -21.6560  -11.1376 C   0  0  0  0  0  0  0  0  0  0  0  0
   25.0320  -20.8473  -11.1292 C   0  0  2  0  0  0  0  0  0  0  0  0
   25.7029  -21.0905  -12.4142 N   0  0  0  0  0  0  0  0  0  0  0  0
   25.9458  -21.0669  -10.0048 C   0  0  0  0  0  0  0  0  0  0  0  0
   26.5955  -22.1308   -9.8516 O   0  0  0  0  0  0  0  0  0  0  0  0
   26.1704  -20.0778   -8.9855 N   0  0  0  0  0  0  0  0  0  0  0  0
   26.9793  -20.3852   -7.8264 C   0  0  1  0  0  0  0  0  0  0  0  0
   27.6571  -19.1386   -7.3288 C   0  0  0  0  0  0  0  0  0  0  0  0
   28.3571  -19.3146   -6.0496 C   0  0  0  0  0  0  0  0  0  0  0  0
   27.8617  -18.7622   -4.8757 C   0  0  0  0  0  0  0  0  0  0  0  0
   28.5097  -18.9287   -3.6657 C   0  0  0  0  0  0  0  0  0  0  0  0
   29.6770  -19.6529   -3.5809 C   0  0  0  0  0  0  0  0  0  0  0  0
   30.1802  -20.2062   -4.7343 C   0  0  0  0  0  0  0  0  0  0  0  0
   29.5266  -20.0367   -5.9467 C   0  0  0  0  0  0  0  0  0  0  0  0
   26.0859  -21.0211   -6.8347 C   0  0  0  0  0  0  0  0  0  0  0  0
   26.5942  -21.7634   -5.9662 O   0  0  0  0  0  0  0  0  0  0  0  0
   24.7186  -20.8336   -6.8232 O   0  0  0  0  0  0  0  0  0  0  0  0
  2  3  1  0
  2  5  1  0
  2  1  1  6
  4  3  1  0
  5  6  2  0
  7  8  1  0
  8  9  1  0
  9 10  1  0
 11 10  1  1
 11 13  1  0
 12 11  1  0
 12  5  1  0
 13 14  2  0
 15 16  1  0
 15 13  1  0
 16 24  1  0
 16 17  1  1
 18 19  2  0
 18 17  1  0
 20 19  1  0
 21 20  2  0
 22 21  1  0
 22 23  2  0
 23 18  1  0
 24 25  2  0
 24 26  1  0
M  END
$$$$
