CMF.pdb
     RDKit          3D

 26 26  0  0  1  0  0  0  0  0999 V2000
   28.5901  -21.9678  -15.5079 N   0  0  0  0  0  0  0  0  0  0  0  0
   28.1010  -20.9247  -14.6677 C   0  0  1  0  0  0  0  0  0  0  0  0
   27.3674  -19.9172  -15.5607 C   0  0  0  0  0  0  0  0  0  0  0  0
   28.4757  -19.0798  -16.6912 S   0  0  0  0  0  0  0  0  0  0  0  0
   27.1485  -21.3682  -13.6423 C   0  0  0  0  0  0  0  0  0  0  0  0
   26.2702  -22.2153  -13.9418 O   0  0  0  0  0  0  0  0  0  0  0  0
   27.6614  -20.5163   -6.9985 C   0  0  0  0  0  0  0  0  0  0  0  0
   26.0559  -19.8506   -7.4432 S   0  0  0  0  0  0  0  0  0  0  0  0
   25.4283  -20.5470   -9.0045 C   0  0  0  0  0  0  0  0  0  0  0  0
   26.4642  -20.4386  -10.0978 C   0  0  0  0  0  0  0  0  0  0  0  0
   26.0386  -21.0237  -11.3932 C   0  0  2  0  0  0  0  0  0  0  0  0
   27.1740  -20.8797  -12.3154 N   0  0  0  0  0  0  0  0  0  0  0  0
   24.8082  -20.4857  -11.9799 C   0  0  0  0  0  0  0  0  0  0  0  0
   24.7552  -19.3653  -12.5451 O   0  0  0  0  0  0  0  0  0  0  0  0
   23.5611  -21.2012  -11.9539 N   0  0  0  0  0  0  0  0  0  0  0  0
   22.3931  -20.6699  -12.6216 C   0  0  1  0  0  0  0  0  0  0  0  0
   22.4362  -21.0169  -14.0841 C   0  0  0  0  0  0  0  0  0  0  0  0
   21.2126  -20.6608  -14.8142 C   0  0  0  0  0  0  0  0  0  0  0  0
   21.0140  -19.3761  -15.3032 C   0  0  0  0  0  0  0  0  0  0  0  0
   19.8688  -19.0335  -15.9980 C   0  0  0  0  0  0  0  0  0  0  0  0
   18.8779  -19.9597  -16.2314 C   0  0  0  0  0  0  0  0  0  0  0  0
   19.0596  -21.2357  -15.7537 C   0  0  0  0  0  0  0  0  0  0  0  0
   20.2107  -21.5756  -15.0569 C   0  0  0  0  0  0  0  0  0  0  0  0
   21.2114  -21.2034  -11.9111 C   0  0  0  0  0  0  0  0  0  0  0  0
   21.3017  -22.3251  -11.3660 O   0  0  0  0  0  0  0  0  0  0  0  0
   20.0149  -20.5215  -11.8219 O   0  0  0  0  0  0  0  0  0  0  0  0
  2  3  1  0
  2  5  1  0
  2  1  1  6
  4  3  1  0
  5  6  2  0
  7  8  1  0
  8  9  1  0
  9 10  1  0
 11 10  1  1
 11 13  1  0
 12 11  1  0
 12  5  1  0
 13 14  2  0
 15 16  1  0
 15 13  1  0
 16 24  1  0
 16 17  1  6
 18 19  2  0
 18 17  1  0
 20 19  1  0
 21 20  2  0
 22 21  1  0
 22 23  2  0
 23 18  1  0
 24 25  2  0
 24 26  1  0
M  END
$$$$
