CMF.pdb
     RDKit          3D

 26 26  0  0  1  0  0  0  0  0999 V2000
   26.0371  -11.9094  -17.3830 N   0  0  0  0  0  0  0  0  0  0  0  0
   25.2306  -11.5912  -16.2509 C   0  0  1  0  0  0  0  0  0  0  0  0
   26.1571  -11.0300  -15.1660 C   0  0  0  0  0  0  0  0  0  0  0  0
   26.9413   -9.5001  -15.6682 S   0  0  0  0  0  0  0  0  0  0  0  0
   24.1995  -10.5777  -16.5063 C   0  0  0  0  0  0  0  0  0  0  0  0
   24.4040   -9.6961  -17.3779 O   0  0  0  0  0  0  0  0  0  0  0  0
   17.5183  -10.7469  -17.5388 C   0  0  0  0  0  0  0  0  0  0  0  0
   18.8777  -11.9140  -17.6305 S   0  0  0  0  0  0  0  0  0  0  0  0
   20.5002  -11.0931  -17.5295 C   0  0  0  0  0  0  0  0  0  0  0  0
   20.6461  -10.3466  -16.2251 C   0  0  0  0  0  0  0  0  0  0  0  0
   21.9089   -9.5762  -16.1081 C   0  0  2  0  0  0  0  0  0  0  0  0
   22.9703  -10.5474  -15.8077 N   0  0  0  0  0  0  0  0  0  0  0  0
   21.9131   -8.4720  -15.1447 C   0  0  0  0  0  0  0  0  0  0  0  0
   21.9991   -8.6494  -13.9043 O   0  0  0  0  0  0  0  0  0  0  0  0
   21.8186   -7.0943  -15.5459 N   0  0  0  0  0  0  0  0  0  0  0  0
   21.9525   -6.0328  -14.5725 C   0  0  1  0  0  0  0  0  0  0  0  0
   23.3675   -5.5239  -14.5602 C   0  0  0  0  0  0  0  0  0  0  0  0
   23.8337   -5.0371  -15.8651 C   0  0  0  0  0  0  0  0  0  0  0  0
   24.6363   -5.8229  -16.6819 C   0  0  0  0  0  0  0  0  0  0  0  0
   25.0740   -5.3761  -17.9150 C   0  0  0  0  0  0  0  0  0  0  0  0
   24.7276   -4.1280  -18.3801 C   0  0  0  0  0  0  0  0  0  0  0  0
   23.9336   -3.3381  -17.5832 C   0  0  0  0  0  0  0  0  0  0  0  0
   23.4962   -3.7904  -16.3463 C   0  0  0  0  0  0  0  0  0  0  0  0
   20.9464   -5.0052  -14.9152 C   0  0  0  0  0  0  0  0  0  0  0  0
   20.2879   -5.1458  -15.9689 O   0  0  0  0  0  0  0  0  0  0  0  0
   20.7006   -3.8993  -14.1269 O   0  0  0  0  0  0  0  0  0  0  0  0
  2  3  1  0
  2  5  1  0
  2  1  1  6
  4  3  1  0
  5  6  2  0
  7  8  1  0
  8  9  1  0
  9 10  1  0
 11 10  1  1
 11 13  1  0
 12 11  1  0
 12  5  1  0
 13 14  2  0
 15 16  1  0
 15 13  1  0
 16 24  1  0
 16 17  1  6
 18 19  2  0
 18 17  1  0
 20 19  1  0
 21 20  2  0
 22 21  1  0
 22 23  2  0
 23 18  1  0
 24 25  2  0
 24 26  1  0
M  END
$$$$
