CMF.pdb
     RDKit          3D

 26 26  0  0  1  0  0  0  0  0999 V2000
   22.3606   -9.0315  -22.5688 N   0  0  0  0  0  0  0  0  0  0  0  0
   23.4404   -9.0539  -21.6379 C   0  0  1  0  0  0  0  0  0  0  0  0
   24.3539   -7.8656  -21.9604 C   0  0  0  0  0  0  0  0  0  0  0  0
   23.5383   -6.2926  -21.6995 S   0  0  0  0  0  0  0  0  0  0  0  0
   23.0337   -8.9188  -20.2338 C   0  0  0  0  0  0  0  0  0  0  0  0
   21.8476   -8.6051  -19.9629 O   0  0  0  0  0  0  0  0  0  0  0  0
   22.9650  -13.0934  -14.7409 C   0  0  0  0  0  0  0  0  0  0  0  0
   24.3405  -11.9576  -14.9309 S   0  0  0  0  0  0  0  0  0  0  0  0
   23.8188  -10.3484  -15.6055 C   0  0  0  0  0  0  0  0  0  0  0  0
   24.0955  -10.2702  -17.0878 C   0  0  0  0  0  0  0  0  0  0  0  0
   23.5018   -9.0832  -17.7513 C   0  0  2  0  0  0  0  0  0  0  0  0
   23.9269   -9.1282  -19.1575 N   0  0  0  0  0  0  0  0  0  0  0  0
   23.8004   -7.7810  -17.1491 C   0  0  0  0  0  0  0  0  0  0  0  0
   24.7910   -7.0855  -17.4845 O   0  0  0  0  0  0  0  0  0  0  0  0
   22.9796   -7.1961  -16.1234 N   0  0  0  0  0  0  0  0  0  0  0  0
   23.1332   -5.8040  -15.7619 C   0  0  1  0  0  0  0  0  0  0  0  0
   22.9269   -4.9344  -16.9712 C   0  0  0  0  0  0  0  0  0  0  0  0
   22.9223   -3.4962  -16.6734 C   0  0  0  0  0  0  0  0  0  0  0  0
   21.7465   -2.8315  -16.3499 C   0  0  0  0  0  0  0  0  0  0  0  0
   21.7335   -1.4795  -16.0610 C   0  0  0  0  0  0  0  0  0  0  0  0
   22.8933   -0.7389  -16.0837 C   0  0  0  0  0  0  0  0  0  0  0  0
   24.0655   -1.3824  -16.4021 C   0  0  0  0  0  0  0  0  0  0  0  0
   24.0743   -2.7397  -16.6914 C   0  0  0  0  0  0  0  0  0  0  0  0
   22.1833   -5.5382  -14.6605 C   0  0  0  0  0  0  0  0  0  0  0  0
   21.1002   -6.1629  -14.6456 O   0  0  0  0  0  0  0  0  0  0  0  0
   22.4365   -4.6336  -13.6493 O   0  0  0  0  0  0  0  0  0  0  0  0
  2  3  1  0
  2  5  1  0
  2  1  1  6
  4  3  1  0
  5  6  2  0
  7  8  1  0
  8  9  1  0
  9 10  1  0
 11 10  1  1
 11 13  1  0
 12 11  1  0
 12  5  1  0
 13 14  2  0
 15 16  1  0
 15 13  1  0
 16 24  1  0
 16 17  1  6
 18 19  2  0
 18 17  1  0
 20 19  1  0
 21 20  2  0
 22 21  1  0
 22 23  2  0
 23 18  1  0
 24 25  2  0
 24 26  1  0
M  END
$$$$
