CMF.pdb
     RDKit          3D

 26 26  0  0  1  0  0  0  0  0999 V2000
   27.8609  -19.8700  -18.6642 N   0  0  0  0  0  0  0  0  0  0  0  0
   27.2592  -18.8289  -17.8978 C   0  0  1  0  0  0  0  0  0  0  0  0
   27.6271  -17.4957  -18.5596 C   0  0  0  0  0  0  0  0  0  0  0  0
   29.3833  -17.1560  -18.4710 S   0  0  0  0  0  0  0  0  0  0  0  0
   25.7938  -18.8912  -17.8350 C   0  0  0  0  0  0  0  0  0  0  0  0
   25.1488  -19.2673  -18.8456 O   0  0  0  0  0  0  0  0  0  0  0  0
   21.7075  -22.2154  -14.1144 C   0  0  0  0  0  0  0  0  0  0  0  0
   21.3476  -20.4922  -13.7685 S   0  0  0  0  0  0  0  0  0  0  0  0
   21.7274  -19.4103  -15.1834 C   0  0  0  0  0  0  0  0  0  0  0  0
   23.2133  -19.3723  -15.4491 C   0  0  0  0  0  0  0  0  0  0  0  0
   23.5957  -18.5529  -16.6256 C   0  0  2  0  0  0  0  0  0  0  0  0
   25.0647  -18.5432  -16.6744 N   0  0  0  0  0  0  0  0  0  0  0  0
   23.0551  -17.1918  -16.6769 C   0  0  0  0  0  0  0  0  0  0  0  0
   23.3716  -16.3005  -15.8505 O   0  0  0  0  0  0  0  0  0  0  0  0
   22.1164  -16.7692  -17.6810 N   0  0  0  0  0  0  0  0  0  0  0  0
   21.6300  -15.4072  -17.7079 C   0  0  1  0  0  0  0  0  0  0  0  0
   22.3616  -14.6221  -18.7612 C   0  0  0  0  0  0  0  0  0  0  0  0
   22.2139  -15.1678  -20.1168 C   0  0  0  0  0  0  0  0  0  0  0  0
   23.1446  -16.0553  -20.6411 C   0  0  0  0  0  0  0  0  0  0  0  0
   23.0101  -16.5798  -21.9133 C   0  0  0  0  0  0  0  0  0  0  0  0
   21.9417  -16.2387  -22.7110 C   0  0  0  0  0  0  0  0  0  0  0  0
   21.0118  -15.3612  -22.2063 C   0  0  0  0  0  0  0  0  0  0  0  0
   21.1504  -14.8371  -20.9288 C   0  0  0  0  0  0  0  0  0  0  0  0
   20.1679  -15.4766  -17.9160 C   0  0  0  0  0  0  0  0  0  0  0  0
   19.6481  -16.5962  -18.1154 O   0  0  0  0  0  0  0  0  0  0  0  0
   19.3513  -14.3640  -17.9005 O   0  0  0  0  0  0  0  0  0  0  0  0
  2  3  1  0
  2  5  1  0
  2  1  1  6
  4  3  1  0
  5  6  2  0
  7  8  1  0
  8  9  1  0
  9 10  1  0
 11 10  1  1
 11 13  1  0
 12 11  1  0
 12  5  1  0
 13 14  2  0
 15 16  1  0
 15 13  1  0
 16 24  1  0
 16 17  1  6
 18 19  2  0
 18 17  1  0
 20 19  1  0
 21 20  2  0
 22 21  1  0
 22 23  2  0
 23 18  1  0
 24 25  2  0
 24 26  1  0
M  END
$$$$
