CMF.pdb
     RDKit          3D

 26 26  0  0  1  0  0  0  0  0999 V2000
   14.9191  -11.8757  -10.9304 N   0  0  0  0  0  0  0  0  0  0  0  0
   14.6845  -10.8288  -11.8696 C   0  0  1  0  0  0  0  0  0  0  0  0
   14.4647   -9.5357  -11.0757 C   0  0  0  0  0  0  0  0  0  0  0  0
   12.8749   -9.5076  -10.2514 S   0  0  0  0  0  0  0  0  0  0  0  0
   15.7971  -10.5843  -12.7958 C   0  0  0  0  0  0  0  0  0  0  0  0
   16.9750  -10.7981  -12.4145 O   0  0  0  0  0  0  0  0  0  0  0  0
   14.3252  -10.7721  -18.9562 C   0  0  0  0  0  0  0  0  0  0  0  0
   16.1081  -10.8463  -19.1411 S   0  0  0  0  0  0  0  0  0  0  0  0
   16.9800  -10.4339  -17.5963 C   0  0  0  0  0  0  0  0  0  0  0  0
   16.0234  -10.4071  -16.4283 C   0  0  0  0  0  0  0  0  0  0  0  0
   16.6694  -10.1133  -15.1252 C   0  0  2  0  0  0  0  0  0  0  0  0
   15.6019  -10.1131  -14.1148 N   0  0  0  0  0  0  0  0  0  0  0  0
   17.4666   -8.8858  -15.0536 C   0  0  0  0  0  0  0  0  0  0  0  0
   16.9894   -7.7829  -14.6886 O   0  0  0  0  0  0  0  0  0  0  0  0
   18.8624   -8.8483  -15.3973 N   0  0  0  0  0  0  0  0  0  0  0  0
   19.5818   -7.5936  -15.4206 C   0  0  1  0  0  0  0  0  0  0  0  0
   20.3780   -7.4355  -14.1548 C   0  0  0  0  0  0  0  0  0  0  0  0
   21.2498   -6.2534  -14.1466 C   0  0  0  0  0  0  0  0  0  0  0  0
   20.8288   -5.0521  -13.5911 C   0  0  0  0  0  0  0  0  0  0  0  0
   21.6450   -3.9363  -13.5722 C   0  0  0  0  0  0  0  0  0  0  0  0
   22.9126   -3.9765  -14.1068 C   0  0  0  0  0  0  0  0  0  0  0  0
   23.3440   -5.1585  -14.6603 C   0  0  0  0  0  0  0  0  0  0  0  0
   22.5216   -6.2762  -14.6772 C   0  0  0  0  0  0  0  0  0  0  0  0
   20.4010   -7.5901  -16.6513 C   0  0  0  0  0  0  0  0  0  0  0  0
   20.7699   -8.6877  -17.1232 O   0  0  0  0  0  0  0  0  0  0  0  0
   20.7771   -6.4327  -17.3024 O   0  0  0  0  0  0  0  0  0  0  0  0
  2  3  1  0
  2  5  1  0
  2  1  1  1
  4  3  1  0
  5  6  2  0
  7  8  1  0
  8  9  1  0
  9 10  1  0
 11 10  1  6
 11 13  1  0
 12 11  1  0
 12  5  1  0
 13 14  2  0
 15 16  1  0
 15 13  1  0
 16 24  1  0
 16 17  1  1
 18 19  2  0
 18 17  1  0
 20 19  1  0
 21 20  2  0
 22 21  1  0
 22 23  2  0
 23 18  1  0
 24 25  2  0
 24 26  1  0
M  END
$$$$
