ILH.pdb
     RDKit          3D

 27 27  0  0  1  0  0  0  0  0999 V2000
   29.2930  -18.4848  -17.1168 C   0  0  0  0  0  0  0  0  0  0  0  0
   28.0351  -17.9897  -16.4715 C   0  0  0  0  0  0  0  0  0  0  0  0
   27.3555  -19.0517  -15.6353 C   0  0  2  0  0  0  0  0  0  0  0  0
   27.1109  -20.2707  -16.4775 C   0  0  0  0  0  0  0  0  0  0  0  0
   26.0409  -18.5539  -15.0770 C   0  0  2  0  0  0  0  0  0  0  0  0
   26.2807  -17.3902  -14.2469 N   0  0  0  0  0  0  0  0  0  0  0  0
   25.3717  -19.6320  -14.2658 C   0  0  0  0  0  0  0  0  0  0  0  0
   24.9384  -20.6757  -14.8272 O   0  0  0  0  0  0  0  0  0  0  0  0
   26.8250  -20.4258   -9.0795 C   0  0  0  0  0  0  0  0  0  0  0  0
   26.4558  -20.5465  -10.5619 C   0  0  1  0  0  0  0  0  0  0  0  0
   26.9790  -21.9258  -10.9952 C   0  0  0  0  0  0  0  0  0  0  0  0
   24.9752  -20.4976  -10.6706 C   0  0  0  0  0  0  0  0  0  0  0  0
   24.4365  -20.4633  -12.0603 C   0  0  2  0  0  0  0  0  0  0  0  0
   25.2107  -19.5077  -12.8625 N   0  0  0  0  0  0  0  0  0  0  0  0
   22.9857  -20.1486  -12.1381 C   0  0  0  0  0  0  0  0  0  0  0  0
   22.5132  -19.2020  -11.4611 O   0  0  0  0  0  0  0  0  0  0  0  0
   22.0863  -20.8804  -12.9577 N   0  0  0  0  0  0  0  0  0  0  0  0
   21.0683  -20.1893  -13.6992 C   0  0  1  0  0  0  0  0  0  0  0  0
   21.6083  -19.0564  -14.5156 C   0  0  0  0  0  0  0  0  0  0  0  0
   20.5820  -18.3030  -15.2696 C   0  0  0  0  0  0  0  0  0  0  0  0
   19.2165  -18.5110  -15.3627 C   0  0  0  0  0  0  0  0  0  0  0  0
   18.7132  -17.5762  -16.1787 N   0  0  0  0  0  0  0  0  0  0  0  0
   19.6970  -16.7807  -16.6108 C   0  0  0  0  0  0  0  0  0  0  0  0
   20.8181  -17.2189  -16.0638 N   0  0  0  0  0  0  0  0  0  0  0  0
   20.2611  -21.1260  -14.5372 C   0  0  0  0  0  0  0  0  0  0  0  0
   19.3042  -20.5888  -15.1978 O   0  0  0  0  0  0  0  0  0  0  0  0
   20.4971  -22.4764  -14.6223 O   0  0  0  0  0  0  0  0  0  0  0  0
  1  2  1  0
  2  3  1  0
  3  4  1  6
  5  3  1  0
  5  6  1  1
  7  8  2  0
  7  5  1  0
 10  9  1  1
 10 12  1  0
 11 10  1  0
 13 12  1  1
 13 14  1  0
 14  7  1  0
 15 17  1  0
 15 13  1  0
 16 15  2  0
 18 17  1  0
 18 25  1  0
 19 20  1  0
 18 19  1  6
 20 21  2  0
 21 22  1  0
 23 22  1  0
 24 20  1  0
 24 23  2  0
 25 27  1  0
 26 25  2  0
M  END
$$$$
