ILH.pdb
     RDKit          3D

 27 27  0  0  1  0  0  0  0  0999 V2000
   27.7981  -16.9795  -17.9548 C   0  0  0  0  0  0  0  0  0  0  0  0
   28.2271  -17.8921  -16.8472 C   0  0  0  0  0  0  0  0  0  0  0  0
   27.0624  -18.6164  -16.2087 C   0  0  2  0  0  0  0  0  0  0  0  0
   26.0607  -17.6134  -15.7132 C   0  0  0  0  0  0  0  0  0  0  0  0
   27.5192  -19.4828  -15.0561 C   0  0  2  0  0  0  0  0  0  0  0  0
   28.5153  -20.4244  -15.5274 N   0  0  0  0  0  0  0  0  0  0  0  0
   26.3521  -20.2270  -14.4624 C   0  0  0  0  0  0  0  0  0  0  0  0
   25.8698  -21.2320  -15.0536 O   0  0  0  0  0  0  0  0  0  0  0  0
   25.8105  -20.3044   -8.9425 C   0  0  0  0  0  0  0  0  0  0  0  0
   25.9665  -20.6660  -10.4235 C   0  0  1  0  0  0  0  0  0  0  0  0
   26.1727  -22.1895  -10.4453 C   0  0  0  0  0  0  0  0  0  0  0  0
   24.7042  -20.3052  -11.1185 C   0  0  0  0  0  0  0  0  0  0  0  0
   24.6827  -20.5716  -12.5851 C   0  0  2  0  0  0  0  0  0  0  0  0
   25.7674  -19.8250  -13.2348 N   0  0  0  0  0  0  0  0  0  0  0  0
   23.3815  -20.2654  -13.2356 C   0  0  0  0  0  0  0  0  0  0  0  0
   23.0642  -19.0730  -13.4703 O   0  0  0  0  0  0  0  0  0  0  0  0
   22.4581  -21.2754  -13.6140 N   0  0  0  0  0  0  0  0  0  0  0  0
   21.1873  -20.9105  -14.1762 C   0  0  1  0  0  0  0  0  0  0  0  0
   20.8954  -21.6143  -15.4649 C   0  0  0  0  0  0  0  0  0  0  0  0
   21.6791  -21.1240  -16.6202 C   0  0  0  0  0  0  0  0  0  0  0  0
   22.5481  -20.0503  -16.7131 C   0  0  0  0  0  0  0  0  0  0  0  0
   23.0040  -19.9984  -17.9711 N   0  0  0  0  0  0  0  0  0  0  0  0
   22.4644  -20.9913  -18.6854 C   0  0  0  0  0  0  0  0  0  0  0  0
   21.6694  -21.6659  -17.8724 N   0  0  0  0  0  0  0  0  0  0  0  0
   20.0754  -21.0907  -13.1952 C   0  0  0  0  0  0  0  0  0  0  0  0
   20.3714  -21.7597  -12.1438 O   0  0  0  0  0  0  0  0  0  0  0  0
   18.8091  -20.5883  -13.3702 O   0  0  0  0  0  0  0  0  0  0  0  0
  1  2  1  0
  2  3  1  0
  3  4  1  1
  5  3  1  0
  5  6  1  6
  7  8  2  0
  7  5  1  0
 10  9  1  1
 10 12  1  0
 11 10  1  0
 13 12  1  1
 13 14  1  0
 14  7  1  0
 15 17  1  0
 15 13  1  0
 16 15  2  0
 18 17  1  0
 18 25  1  0
 19 20  1  0
 18 19  1  6
 20 21  2  0
 21 22  1  0
 23 22  1  0
 24 20  1  0
 24 23  2  0
 25 27  1  0
 26 25  2  0
M  END
$$$$
