ILH.pdb
     RDKit          3D

 27 27  0  0  1  0  0  0  0  0999 V2000
   18.8029  -15.0986  -20.2073 C   0  0  0  0  0  0  0  0  0  0  0  0
   20.0399  -15.4874  -19.4576 C   0  0  0  0  0  0  0  0  0  0  0  0
   20.6334  -14.3334  -18.6798 C   0  0  2  0  0  0  0  0  0  0  0  0
   21.0883  -13.2678  -19.6352 C   0  0  0  0  0  0  0  0  0  0  0  0
   21.8039  -14.7844  -17.8347 C   0  0  2  0  0  0  0  0  0  0  0  0
   21.3778  -15.8540  -16.9544 N   0  0  0  0  0  0  0  0  0  0  0  0
   22.3396  -13.6353  -17.0217 C   0  0  0  0  0  0  0  0  0  0  0  0
   21.6705  -13.1696  -16.0585 O   0  0  0  0  0  0  0  0  0  0  0  0
   26.3035  -10.7221  -14.7443 C   0  0  0  0  0  0  0  0  0  0  0  0
   26.2295  -10.5493  -16.2652 C   0  0  1  0  0  0  0  0  0  0  0  0
   27.6917  -10.4514  -16.7300 C   0  0  0  0  0  0  0  0  0  0  0  0
   25.5864  -11.7619  -16.8332 C   0  0  0  0  0  0  0  0  0  0  0  0
   24.1212  -11.8841  -16.5868 C   0  0  2  0  0  0  0  0  0  0  0  0
   23.5979  -13.0493  -17.3111 N   0  0  0  0  0  0  0  0  0  0  0  0
   23.3460  -10.6652  -16.9381 C   0  0  0  0  0  0  0  0  0  0  0  0
   23.0707  -10.4230  -18.1394 O   0  0  0  0  0  0  0  0  0  0  0  0
   22.8903   -9.7399  -15.9624 N   0  0  0  0  0  0  0  0  0  0  0  0
   21.9958   -8.6813  -16.3411 C   0  0  1  0  0  0  0  0  0  0  0  0
   20.7470   -9.1799  -16.9995 C   0  0  0  0  0  0  0  0  0  0  0  0
   19.8284   -8.1129  -17.4547 C   0  0  0  0  0  0  0  0  0  0  0  0
   19.9603   -6.7366  -17.3834 C   0  0  0  0  0  0  0  0  0  0  0  0
   18.8586   -6.1904  -17.9134 N   0  0  0  0  0  0  0  0  0  0  0  0
   18.0292   -7.1570  -18.3198 C   0  0  0  0  0  0  0  0  0  0  0  0
   18.6135   -8.3104  -18.0434 N   0  0  0  0  0  0  0  0  0  0  0  0
   21.6812   -7.7835  -15.1896 C   0  0  0  0  0  0  0  0  0  0  0  0
   22.3367   -8.0166  -14.1142 O   0  0  0  0  0  0  0  0  0  0  0  0
   20.7603   -6.7656  -15.2398 O   0  0  0  0  0  0  0  0  0  0  0  0
  1  2  1  0
  2  3  1  0
  3  4  1  6
  5  3  1  0
  5  6  1  1
  7  8  2  0
  7  5  1  0
 10  9  1  1
 10 12  1  0
 11 10  1  0
 13 12  1  6
 13 14  1  0
 14  7  1  0
 15 17  1  0
 15 13  1  0
 16 15  2  0
 18 17  1  0
 18 25  1  0
 19 20  1  0
 18 19  1  1
 20 21  2  0
 21 22  1  0
 23 22  1  0
 24 20  1  0
 24 23  2  0
 25 27  1  0
 26 25  2  0
M  END
$$$$
