ILH.pdb
     RDKit          3D

 27 27  0  0  1  0  0  0  0  0999 V2000
   29.0396  -19.4363  -14.4246 C   0  0  0  0  0  0  0  0  0  0  0  0
   27.5681  -19.1743  -14.5228 C   0  0  0  0  0  0  0  0  0  0  0  0
   27.0345  -19.3809  -15.9233 C   0  0  2  0  0  0  0  0  0  0  0  0
   27.6711  -18.3878  -16.8526 C   0  0  0  0  0  0  0  0  0  0  0  0
   25.5313  -19.2198  -15.9680 C   0  0  2  0  0  0  0  0  0  0  0  0
   25.1800  -17.8711  -15.5701 N   0  0  0  0  0  0  0  0  0  0  0  0
   24.8681  -20.2131  -15.0504 C   0  0  0  0  0  0  0  0  0  0  0  0
   24.8463  -21.4392  -15.3475 O   0  0  0  0  0  0  0  0  0  0  0  0
   25.6131  -20.6637   -9.7646 C   0  0  0  0  0  0  0  0  0  0  0  0
   25.3581  -20.9172  -11.2543 C   0  0  1  0  0  0  0  0  0  0  0  0
   25.5429  -22.4320  -11.4414 C   0  0  0  0  0  0  0  0  0  0  0  0
   23.9562  -20.5267  -11.5520 C   0  0  0  0  0  0  0  0  0  0  0  0
   23.5221  -20.7280  -12.9640 C   0  0  2  0  0  0  0  0  0  0  0  0
   24.2556  -19.8044  -13.8386 N   0  0  0  0  0  0  0  0  0  0  0  0
   22.0571  -20.5844  -13.1718 C   0  0  0  0  0  0  0  0  0  0  0  0
   21.5219  -19.4509  -13.0937 O   0  0  0  0  0  0  0  0  0  0  0  0
   21.2129  -21.6888  -13.4609 N   0  0  0  0  0  0  0  0  0  0  0  0
   19.8152  -21.4750  -13.7158 C   0  0  1  0  0  0  0  0  0  0  0  0
   19.3463  -22.1250  -14.9805 C   0  0  0  0  0  0  0  0  0  0  0  0
   19.8230  -21.4687  -16.2179 C   0  0  0  0  0  0  0  0  0  0  0  0
   20.5159  -20.2817  -16.3840 C   0  0  0  0  0  0  0  0  0  0  0  0
   20.7085  -20.0986  -17.6964 N   0  0  0  0  0  0  0  0  0  0  0  0
   20.1691  -21.1161  -18.3755 C   0  0  0  0  0  0  0  0  0  0  0  0
   19.6381  -21.9374  -17.4859 N   0  0  0  0  0  0  0  0  0  0  0  0
   18.9716  -21.8807  -12.5518 C   0  0  0  0  0  0  0  0  0  0  0  0
   19.5232  -22.6913  -11.7276 O   0  0  0  0  0  0  0  0  0  0  0  0
   17.6888  -21.4367  -12.3425 O   0  0  0  0  0  0  0  0  0  0  0  0
  1  2  1  0
  2  3  1  0
  3  4  1  6
  5  3  1  0
  5  6  1  1
  7  8  2  0
  7  5  1  0
 10  9  1  1
 10 12  1  0
 11 10  1  0
 13 12  1  1
 13 14  1  0
 14  7  1  0
 15 17  1  0
 15 13  1  0
 16 15  2  0
 18 17  1  0
 18 25  1  0
 19 20  1  0
 18 19  1  6
 20 21  2  0
 21 22  1  0
 23 22  1  0
 24 20  1  0
 24 23  2  0
 25 27  1  0
 26 25  2  0
M  END
$$$$
