ILH.pdb
     RDKit          3D

 27 27  0  0  1  0  0  0  0  0999 V2000
   28.9672  -17.5591  -17.4748 C   0  0  0  0  0  0  0  0  0  0  0  0
   27.5777  -17.5809  -16.9158 C   0  0  0  0  0  0  0  0  0  0  0  0
   27.2718  -18.8625  -16.1723 C   0  0  2  0  0  0  0  0  0  0  0  0
   27.5253  -20.0364  -17.0738 C   0  0  0  0  0  0  0  0  0  0  0  0
   25.8360  -18.8933  -15.6979 C   0  0  2  0  0  0  0  0  0  0  0  0
   25.6172  -17.8136  -14.7560 N   0  0  0  0  0  0  0  0  0  0  0  0
   25.5263  -20.2140  -15.0432 C   0  0  0  0  0  0  0  0  0  0  0  0
   25.4473  -21.2656  -15.7361 O   0  0  0  0  0  0  0  0  0  0  0  0
   24.4095  -20.5941   -9.8518 C   0  0  0  0  0  0  0  0  0  0  0  0
   25.5896  -20.4802  -10.8227 C   0  0  1  0  0  0  0  0  0  0  0  0
   26.8417  -20.4485   -9.9311 C   0  0  0  0  0  0  0  0  0  0  0  0
   25.5960  -21.6933  -11.6801 C   0  0  0  0  0  0  0  0  0  0  0  0
   24.8927  -21.5564  -12.9874 C   0  0  2  0  0  0  0  0  0  0  0  0
   25.3170  -20.3136  -13.6444 N   0  0  0  0  0  0  0  0  0  0  0  0
   23.4106  -21.6076  -12.8842 C   0  0  0  0  0  0  0  0  0  0  0  0
   22.8561  -21.4748  -11.7651 O   0  0  0  0  0  0  0  0  0  0  0  0
   22.5708  -21.8032  -14.0123 N   0  0  0  0  0  0  0  0  0  0  0  0
   21.1556  -21.5826  -13.8990 C   0  0  1  0  0  0  0  0  0  0  0  0
   20.8165  -20.2134  -13.3972 C   0  0  0  0  0  0  0  0  0  0  0  0
   19.3657  -19.9359  -13.3117 C   0  0  0  0  0  0  0  0  0  0  0  0
   18.3245  -20.7612  -12.9226 C   0  0  0  0  0  0  0  0  0  0  0  0
   17.1863  -20.0637  -13.0268 N   0  0  0  0  0  0  0  0  0  0  0  0
   17.4547  -18.8295  -13.4653 C   0  0  0  0  0  0  0  0  0  0  0  0
   18.7637  -18.7551  -13.6356 N   0  0  0  0  0  0  0  0  0  0  0  0
   20.4441  -21.8841  -15.1772 C   0  0  0  0  0  0  0  0  0  0  0  0
   19.1737  -21.7223  -15.1519 O   0  0  0  0  0  0  0  0  0  0  0  0
   21.0719  -22.3066  -16.3235 O   0  0  0  0  0  0  0  0  0  0  0  0
  1  2  1  0
  2  3  1  0
  3  4  1  6
  5  3  1  0
  5  6  1  1
  7  8  2  0
  7  5  1  0
 10  9  1  1
 10 12  1  0
 11 10  1  0
 13 12  1  1
 13 14  1  0
 14  7  1  0
 15 17  1  0
 15 13  1  0
 16 15  2  0
 18 17  1  0
 18 25  1  0
 19 20  1  0
 18 19  1  6
 20 21  2  0
 21 22  1  0
 23 22  1  0
 24 20  1  0
 24 23  2  0
 25 27  1  0
 26 25  2  0
M  END
$$$$
