ILH.pdb
     RDKit          3D

 27 27  0  0  1  0  0  0  0  0999 V2000
   17.7199  -11.1547    3.6545 C   0  0  0  0  0  0  0  0  0  0  0  0
   18.5781  -11.0312    4.8759 C   0  0  0  0  0  0  0  0  0  0  0  0
   18.9161  -12.3741    5.4853 C   0  0  2  0  0  0  0  0  0  0  0  0
   17.6499  -13.1390    5.7437 C   0  0  0  0  0  0  0  0  0  0  0  0
   19.6798  -12.2130    6.7809 C   0  0  2  0  0  0  0  0  0  0  0  0
   20.9388  -11.5450    6.5173 N   0  0  0  0  0  0  0  0  0  0  0  0
   19.9357  -13.5567    7.4114 C   0  0  0  0  0  0  0  0  0  0  0  0
   21.0371  -13.7948    7.9792 O   0  0  0  0  0  0  0  0  0  0  0  0
   20.2683  -15.0342   11.7271 C   0  0  0  0  0  0  0  0  0  0  0  0
   20.4370  -15.4530   10.2627 C   0  0  1  0  0  0  0  0  0  0  0  0
   21.0154  -16.8766   10.3162 C   0  0  0  0  0  0  0  0  0  0  0  0
   19.0922  -15.4647    9.6319 C   0  0  0  0  0  0  0  0  0  0  0  0
   19.0685  -15.8114    8.1821 C   0  0  2  0  0  0  0  0  0  0  0  0
   18.9573  -14.5826    7.3861 N   0  0  0  0  0  0  0  0  0  0  0  0
   17.9955  -16.7698    7.8077 C   0  0  0  0  0  0  0  0  0  0  0  0
   16.7911  -16.4214    7.8823 O   0  0  0  0  0  0  0  0  0  0  0  0
   18.2693  -18.0889    7.3594 N   0  0  0  0  0  0  0  0  0  0  0  0
   17.2345  -18.8606    6.7286 C   0  0  1  0  0  0  0  0  0  0  0  0
   17.6738  -19.4828    5.4396 C   0  0  0  0  0  0  0  0  0  0  0  0
   16.6152  -20.2378    4.7335 C   0  0  0  0  0  0  0  0  0  0  0  0
   15.2815  -20.4146    5.0599 C   0  0  0  0  0  0  0  0  0  0  0  0
   14.7283  -21.1926    4.1210 N   0  0  0  0  0  0  0  0  0  0  0  0
   15.6499  -21.5205    3.2096 C   0  0  0  0  0  0  0  0  0  0  0  0
   16.7820  -20.9462    3.5793 N   0  0  0  0  0  0  0  0  0  0  0  0
   16.6611  -19.8812    7.6564 C   0  0  0  0  0  0  0  0  0  0  0  0
   17.5164  -20.5524    8.3335 O   0  0  0  0  0  0  0  0  0  0  0  0
   15.3155  -20.1139    7.8038 O   0  0  0  0  0  0  0  0  0  0  0  0
  1  2  1  0
  2  3  1  0
  3  4  1  1
  5  3  1  0
  5  6  1  6
  7  8  2  0
  7  5  1  0
 10  9  1  1
 10 12  1  0
 11 10  1  0
 13 12  1  1
 13 14  1  0
 14  7  1  0
 15 17  1  0
 15 13  1  0
 16 15  2  0
 18 17  1  0
 18 25  1  0
 19 20  1  0
 18 19  1  6
 20 21  2  0
 21 22  1  0
 23 22  1  0
 24 20  1  0
 24 23  2  0
 25 27  1  0
 26 25  2  0
M  END
$$$$
