ILH.pdb
     RDKit          3D

 27 27  0  0  1  0  0  0  0  0999 V2000
   19.4405  -22.0839   -8.5398 C   0  0  0  0  0  0  0  0  0  0  0  0
   20.0865  -22.0388   -9.8904 C   0  0  0  0  0  0  0  0  0  0  0  0
   21.3203  -21.1635   -9.9142 C   0  0  2  0  0  0  0  0  0  0  0  0
   20.9786  -19.8028   -9.3789 C   0  0  0  0  0  0  0  0  0  0  0  0
   21.8716  -21.0288  -11.3162 C   0  0  2  0  0  0  0  0  0  0  0  0
   21.9628  -22.3407  -11.9255 N   0  0  0  0  0  0  0  0  0  0  0  0
   23.2317  -20.3825  -11.2870 C   0  0  0  0  0  0  0  0  0  0  0  0
   23.3618  -19.1585  -11.5649 O   0  0  0  0  0  0  0  0  0  0  0  0
   26.7940  -20.7252   -7.3580 C   0  0  0  0  0  0  0  0  0  0  0  0
   25.8862  -20.3346   -8.5292 C   0  0  1  0  0  0  0  0  0  0  0  0
   25.8942  -18.7972   -8.5482 C   0  0  0  0  0  0  0  0  0  0  0  0
   26.4908  -20.8702   -9.7758 C   0  0  0  0  0  0  0  0  0  0  0  0
   25.7482  -20.5612  -11.0310 C   0  0  2  0  0  0  0  0  0  0  0  0
   24.3935  -21.1220  -10.9497 N   0  0  0  0  0  0  0  0  0  0  0  0
   26.4291  -21.0298  -12.2666 C   0  0  0  0  0  0  0  0  0  0  0  0
   26.6763  -22.2516  -12.4202 O   0  0  0  0  0  0  0  0  0  0  0  0
   26.8231  -20.1461  -13.3059 N   0  0  0  0  0  0  0  0  0  0  0  0
   26.7197  -20.5614  -14.6773 C   0  0  1  0  0  0  0  0  0  0  0  0
   25.4150  -21.2264  -14.9891 C   0  0  0  0  0  0  0  0  0  0  0  0
   25.5037  -22.6926  -15.1674 C   0  0  0  0  0  0  0  0  0  0  0  0
   26.6003  -23.5334  -15.0826 C   0  0  0  0  0  0  0  0  0  0  0  0
   26.1832  -24.7796  -15.3394 N   0  0  0  0  0  0  0  0  0  0  0  0
   24.8690  -24.7716  -15.5846 C   0  0  0  0  0  0  0  0  0  0  0  0
   24.4631  -23.5176  -15.4808 N   0  0  0  0  0  0  0  0  0  0  0  0
   26.9937  -19.4350  -15.6192 C   0  0  0  0  0  0  0  0  0  0  0  0
   26.4470  -18.3173  -15.3152 O   0  0  0  0  0  0  0  0  0  0  0  0
   27.7737  -19.5481  -16.7441 O   0  0  0  0  0  0  0  0  0  0  0  0
  1  2  1  0
  2  3  1  0
  3  4  1  6
  5  3  1  0
  5  6  1  1
  7  8  2  0
  7  5  1  0
 10  9  1  1
 10 12  1  0
 11 10  1  0
 13 12  1  1
 13 14  1  0
 14  7  1  0
 15 17  1  0
 15 13  1  0
 16 15  2  0
 18 17  1  0
 18 25  1  0
 19 20  1  0
 18 19  1  1
 20 21  2  0
 21 22  1  0
 23 22  1  0
 24 20  1  0
 24 23  2  0
 25 27  1  0
 26 25  2  0
M  END
$$$$
