ILH.pdb
     RDKit          3D

 27 27  0  0  1  0  0  0  0  0999 V2000
   20.2378  -29.8679    4.4283 C   0  0  0  0  0  0  0  0  0  0  0  0
   21.2207  -30.9740    4.1960 C   0  0  0  0  0  0  0  0  0  0  0  0
   22.6374  -30.5737    4.5450 C   0  0  2  0  0  0  0  0  0  0  0  0
   23.0626  -29.4278    3.6726 C   0  0  0  0  0  0  0  0  0  0  0  0
   23.5961  -31.7290    4.3609 C   0  0  2  0  0  0  0  0  0  0  0  0
   23.1748  -32.8406    5.1901 N   0  0  0  0  0  0  0  0  0  0  0  0
   24.9960  -31.3154    4.7323 C   0  0  0  0  0  0  0  0  0  0  0  0
   25.5866  -30.4099    4.0817 O   0  0  0  0  0  0  0  0  0  0  0  0
   28.8590  -29.4201    7.3694 C   0  0  0  0  0  0  0  0  0  0  0  0
   28.3852  -30.6606    8.1341 C   0  0  1  0  0  0  0  0  0  0  0  0
   28.2619  -30.2072    9.5981 C   0  0  0  0  0  0  0  0  0  0  0  0
   27.0547  -31.0481    7.5990 C   0  0  0  0  0  0  0  0  0  0  0  0
   27.0519  -31.5550    6.1970 C   0  0  2  0  0  0  0  0  0  0  0  0
   25.6838  -31.9244    5.8122 N   0  0  0  0  0  0  0  0  0  0  0  0
   27.9802  -32.6925    5.9641 C   0  0  0  0  0  0  0  0  0  0  0  0
   27.7825  -33.7902    6.5416 O   0  0  0  0  0  0  0  0  0  0  0  0
   29.1047  -32.5990    5.1022 N   0  0  0  0  0  0  0  0  0  0  0  0
   29.9899  -33.7210    4.9548 C   0  0  1  0  0  0  0  0  0  0  0  0
   30.2358  -34.0866    3.5239 C   0  0  0  0  0  0  0  0  0  0  0  0
   29.1774  -34.9232    2.9164 C   0  0  0  0  0  0  0  0  0  0  0  0
   28.4208  -35.9410    3.4718 C   0  0  0  0  0  0  0  0  0  0  0  0
   27.6021  -36.4098    2.5216 N   0  0  0  0  0  0  0  0  0  0  0  0
   27.8025  -35.7364    1.3841 C   0  0  0  0  0  0  0  0  0  0  0  0
   28.7487  -34.8444    1.6235 N   0  0  0  0  0  0  0  0  0  0  0  0
   31.2733  -33.5144    5.6906 C   0  0  0  0  0  0  0  0  0  0  0  0
   32.0916  -34.4992    5.6582 O   0  0  0  0  0  0  0  0  0  0  0  0
   31.5930  -32.3622    6.3666 O   0  0  0  0  0  0  0  0  0  0  0  0
  1  2  1  0
  2  3  1  0
  3  4  1  6
  5  3  1  0
  5  6  1  1
  7  8  2  0
  7  5  1  0
 10  9  1  6
 10 12  1  0
 11 10  1  0
 13 12  1  1
 13 14  1  0
 14  7  1  0
 15 17  1  0
 15 13  1  0
 16 15  2  0
 18 17  1  0
 18 25  1  0
 19 20  1  0
 18 19  1  6
 20 21  2  0
 21 22  1  0
 23 22  1  0
 24 20  1  0
 24 23  2  0
 25 27  1  0
 26 25  2  0
M  END
$$$$
