ILH.pdb
     RDKit          3D

 27 27  0  0  1  0  0  0  0  0999 V2000
   19.5733  -15.0631  -21.3899 C   0  0  0  0  0  0  0  0  0  0  0  0
   20.2493  -14.3216  -20.2777 C   0  0  0  0  0  0  0  0  0  0  0  0
   19.3110  -13.3816  -19.5531 C   0  0  2  0  0  0  0  0  0  0  0  0
   18.7406  -12.3935  -20.5294 C   0  0  0  0  0  0  0  0  0  0  0  0
   20.0242  -12.6396  -18.4448 C   0  0  2  0  0  0  0  0  0  0  0  0
   20.6137  -13.5949  -17.5280 N   0  0  0  0  0  0  0  0  0  0  0  0
   19.0623  -11.7472  -17.7052 C   0  0  0  0  0  0  0  0  0  0  0  0
   18.4829  -10.7998  -18.3043 O   0  0  0  0  0  0  0  0  0  0  0  0
   15.8593  -13.9143  -13.9019 C   0  0  0  0  0  0  0  0  0  0  0  0
   16.1998  -12.9633  -15.0542 C   0  0  1  0  0  0  0  0  0  0  0  0
   14.8661  -12.2999  -15.4351 C   0  0  0  0  0  0  0  0  0  0  0  0
   17.1550  -11.9472  -14.5425 C   0  0  0  0  0  0  0  0  0  0  0  0
   17.8244  -11.1166  -15.5839 C   0  0  2  0  0  0  0  0  0  0  0  0
   18.7822  -11.9433  -16.3292 N   0  0  0  0  0  0  0  0  0  0  0  0
   18.4949   -9.9024  -15.0492 C   0  0  0  0  0  0  0  0  0  0  0  0
   19.7049   -9.9509  -14.7159 O   0  0  0  0  0  0  0  0  0  0  0  0
   17.8217   -8.6621  -14.8927 N   0  0  0  0  0  0  0  0  0  0  0  0
   18.5625   -7.4851  -14.5323 C   0  0  1  0  0  0  0  0  0  0  0  0
   19.7630   -7.2627  -15.3988 C   0  0  0  0  0  0  0  0  0  0  0  0
   20.5341   -6.0427  -15.0732 C   0  0  0  0  0  0  0  0  0  0  0  0
   20.2500   -4.7142  -15.3398 C   0  0  0  0  0  0  0  0  0  0  0  0
   21.2589   -3.9744  -14.8624 N   0  0  0  0  0  0  0  0  0  0  0  0
   22.1746   -4.7719  -14.3029 C   0  0  0  0  0  0  0  0  0  0  0  0
   21.7374   -6.0131  -14.4306 N   0  0  0  0  0  0  0  0  0  0  0  0
   17.6906   -6.2729  -14.4912 C   0  0  0  0  0  0  0  0  0  0  0  0
   16.4860   -6.4470  -14.8901 O   0  0  0  0  0  0  0  0  0  0  0  0
   18.1126   -5.0387  -14.0607 O   0  0  0  0  0  0  0  0  0  0  0  0
  1  2  1  0
  2  3  1  0
  3  4  1  6
  5  3  1  0
  5  6  1  1
  7  8  2  0
  7  5  1  0
 10  9  1  1
 10 12  1  0
 11 10  1  0
 13 12  1  1
 13 14  1  0
 14  7  1  0
 15 17  1  0
 15 13  1  0
 16 15  2  0
 18 17  1  0
 18 25  1  0
 19 20  1  0
 18 19  1  6
 20 21  2  0
 21 22  1  0
 23 22  1  0
 24 20  1  0
 24 23  2  0
 25 27  1  0
 26 25  2  0
M  END
$$$$
