RNF.pdb
     RDKit          3D

 31 31  0  0  1  0  0  0  0  0999 V2000
   25.9234  -24.5460  -16.2285 N   0  0  0  0  0  0  0  0  0  0  0  0
   26.1209  -25.4381  -17.3145 C   0  0  0  0  0  0  0  0  0  0  0  0
   27.2190  -26.1407  -17.3347 N   0  0  0  0  0  0  0  0  0  0  0  0
   25.1894  -25.5980  -18.3671 N   0  0  0  0  0  0  0  0  0  0  0  0
   23.9776  -24.8434  -18.4034 C   0  0  0  0  0  0  0  0  0  0  0  0
   24.1660  -23.3380  -18.3986 C   0  0  0  0  0  0  0  0  0  0  0  0
   23.5984  -22.6380  -17.2170 C   0  0  0  0  0  0  0  0  0  0  0  0
   22.1986  -22.1500  -17.5316 C   0  0  2  0  0  0  0  0  0  0  0  0
   22.2789  -20.7428  -17.9748 N   0  0  0  0  0  0  0  0  0  0  0  0
   21.2754  -22.2580  -16.3847 C   0  0  0  0  0  0  0  0  0  0  0  0
   21.2347  -21.3204  -15.5104 O   0  0  0  0  0  0  0  0  0  0  0  0
   27.4548  -26.6961  -18.1588 N   0  0  0  0  0  0  0  0  0  0  0  0
   16.9916  -22.0280  -13.1899 C   0  0  0  0  0  0  0  0  0  0  0  0
   17.2000  -23.1053  -14.0879 O   0  0  0  0  0  0  0  0  0  0  0  0
   16.6261  -24.1846  -13.9175 C   0  0  0  0  0  0  0  0  0  0  0  0
   18.1448  -22.8313  -15.2241 C   0  0  1  0  0  0  0  0  0  0  0  0
   19.4909  -23.3989  -14.9824 N   0  0  0  0  0  0  0  0  0  0  0  0
   20.3837  -23.3296  -16.1340 C   0  0  0  0  0  0  0  0  0  0  0  0
   19.5676  -24.6629  -14.2434 O   0  0  0  0  0  0  0  0  0  0  0  0
   19.7988  -25.7329  -14.8634 N   0  0  0  0  0  0  0  0  0  0  0  0
   19.3936  -24.7557  -12.8296 C   0  0  1  0  0  0  0  0  0  0  0  0
   19.4503  -26.0832  -12.2308 C   0  0  0  0  0  0  0  0  0  0  0  0
   20.2752  -26.0742  -10.9681 C   0  0  0  0  0  0  0  0  0  0  0  0
   20.3667  -27.4186  -10.3684 C   0  0  0  0  0  0  0  0  0  0  0  0
   21.3755  -28.2395  -10.8207 C   0  0  0  0  0  0  0  0  0  0  0  0
   21.5051  -29.4949  -10.2861 C   0  0  0  0  0  0  0  0  0  0  0  0
   20.6548  -29.9744   -9.3013 C   0  0  0  0  0  0  0  0  0  0  0  0
   19.6628  -29.1230   -8.8803 C   0  0  0  0  0  0  0  0  0  0  0  0
   19.5094  -27.8485   -9.4043 C   0  0  0  0  0  0  0  0  0  0  0  0
   18.0548  -26.5214  -11.8503 O   0  0  0  0  0  0  0  0  0  0  0  0
   17.6550  -27.8424  -11.9427 O   0  0  0  0  0  0  0  0  0  0  0  0
  2  3  2  0
  2  1  1  0
  4  2  1  0
  5  4  1  0
  6  5  1  0
  7  6  1  0
  8  7  1  0
  8  9  1  1
 10 17  1  0
 10  8  1  0
 11 10  2  0
 13 12  1  0
 13 14  2  0
 15 13  1  0
 16 15  1  1
 16 17  1  0
 18 16  1  0
 19 18  2  0
 20 18  1  0
 21 20  1  0
 21 22  1  6
 23 22  1  0
 23 28  2  0
 24 23  1  0
 25 24  2  0
 25 26  1  0
 26 27  2  0
 27 28  1  0
 29 21  1  0
 30 29  1  0
 31 29  2  0
M  END
$$$$
