RNF.pdb
     RDKit          3D

 31 31  0  0  1  0  0  0  0  0999 V2000
   26.8034  -15.8780  -17.8802 N   0  0  0  0  0  0  0  0  0  0  0  0
   26.1367  -14.6263  -17.9345 C   0  0  0  0  0  0  0  0  0  0  0  0
   26.6876  -13.6716  -18.6309 N   0  0  0  0  0  0  0  0  0  0  0  0
   24.9129  -14.3692  -17.2731 N   0  0  0  0  0  0  0  0  0  0  0  0
   24.1705  -15.4213  -16.6556 C   0  0  0  0  0  0  0  0  0  0  0  0
   24.3862  -15.5583  -15.1601 C   0  0  0  0  0  0  0  0  0  0  0  0
   25.3344  -16.6294  -14.7580 C   0  0  0  0  0  0  0  0  0  0  0  0
   24.7654  -17.9850  -15.1261 C   0  0  2  0  0  0  0  0  0  0  0  0
   23.3895  -17.7970  -15.6305 N   0  0  0  0  0  0  0  0  0  0  0  0
   24.7553  -18.9357  -13.9967 C   0  0  0  0  0  0  0  0  0  0  0  0
   23.8212  -18.8719  -13.1200 O   0  0  0  0  0  0  0  0  0  0  0  0
   26.2410  -12.7544  -18.6830 N   0  0  0  0  0  0  0  0  0  0  0  0
   24.3415  -24.1608  -12.1982 C   0  0  0  0  0  0  0  0  0  0  0  0
   25.5282  -23.3872  -12.1384 O   0  0  0  0  0  0  0  0  0  0  0  0
   26.3475  -23.5635  -11.2322 C   0  0  0  0  0  0  0  0  0  0  0  0
   25.6981  -22.3713  -13.2327 C   0  0  1  0  0  0  0  0  0  0  0  0
   25.5696  -20.9833  -12.7332 N   0  0  0  0  0  0  0  0  0  0  0  0
   25.7038  -19.9621  -13.7662 C   0  0  0  0  0  0  0  0  0  0  0  0
   26.2481  -20.6529  -11.4761 O   0  0  0  0  0  0  0  0  0  0  0  0
   27.4702  -20.3542  -11.4887 N   0  0  0  0  0  0  0  0  0  0  0  0
   25.5909  -20.6476  -10.2090 C   0  0  1  0  0  0  0  0  0  0  0  0
   26.4191  -20.8131   -9.0212 C   0  0  0  0  0  0  0  0  0  0  0  0
   26.9084  -19.4808   -8.5107 C   0  0  0  0  0  0  0  0  0  0  0  0
   27.6601  -19.6241   -7.2498 C   0  0  0  0  0  0  0  0  0  0  0  0
   28.3753  -20.7877   -7.0751 C   0  0  0  0  0  0  0  0  0  0  0  0
   29.0965  -20.9617   -5.9226 C   0  0  0  0  0  0  0  0  0  0  0  0
   29.1346  -20.0058   -4.9188 C   0  0  0  0  0  0  0  0  0  0  0  0
   28.4067  -18.8613   -5.1343 C   0  0  0  0  0  0  0  0  0  0  0  0
   27.6686  -18.6602   -6.2907 C   0  0  0  0  0  0  0  0  0  0  0  0
   25.5958  -21.4393   -7.9193 O   0  0  0  0  0  0  0  0  0  0  0  0
   26.1838  -22.0963   -6.8535 O   0  0  0  0  0  0  0  0  0  0  0  0
  2  3  2  0
  2  1  1  0
  4  2  1  0
  5  4  1  0
  6  5  1  0
  7  6  1  0
  8  7  1  0
  8  9  1  1
 10 17  1  0
 10  8  1  0
 11 10  2  0
 13 12  1  0
 13 14  2  0
 15 13  1  0
 16 15  1  6
 16 17  1  0
 18 16  1  0
 19 18  2  0
 20 18  1  0
 21 20  1  0
 21 22  1  1
 23 22  1  0
 23 28  2  0
 24 23  1  0
 25 24  2  0
 25 26  1  0
 26 27  2  0
 27 28  1  0
 29 21  1  0
 30 29  1  0
 31 29  2  0
M  END
$$$$
