RNF.pdb
     RDKit          3D

 31 31  0  0  1  0  0  0  0  0999 V2000
   35.3936  -26.5189  -16.7482 N   0  0  0  0  0  0  0  0  0  0  0  0
   34.4959  -27.6139  -16.6514 C   0  0  0  0  0  0  0  0  0  0  0  0
   34.7966  -28.5779  -15.8265 N   0  0  0  0  0  0  0  0  0  0  0  0
   33.3008  -27.7069  -17.4026 N   0  0  0  0  0  0  0  0  0  0  0  0
   32.6140  -26.5366  -17.8475 C   0  0  0  0  0  0  0  0  0  0  0  0
   32.3182  -25.5211  -16.7598 C   0  0  0  0  0  0  0  0  0  0  0  0
   31.6578  -24.2747  -17.2272 C   0  0  0  0  0  0  0  0  0  0  0  0
   30.2271  -24.2326  -16.7291 C   0  0  2  0  0  0  0  0  0  0  0  0
   29.4608  -25.2984  -17.4072 N   0  0  0  0  0  0  0  0  0  0  0  0
   29.5724  -22.9289  -16.9553 C   0  0  0  0  0  0  0  0  0  0  0  0
   30.1799  -21.8471  -16.6299 O   0  0  0  0  0  0  0  0  0  0  0  0
   34.1974  -29.4029  -15.7651 N   0  0  0  0  0  0  0  0  0  0  0  0
   28.0663  -18.6462  -19.9835 C   0  0  0  0  0  0  0  0  0  0  0  0
   28.1107  -19.1100  -18.6444 O   0  0  0  0  0  0  0  0  0  0  0  0
   27.6861  -18.4077  -17.7225 C   0  0  0  0  0  0  0  0  0  0  0  0
   28.6971  -20.4799  -18.4496 C   0  0  2  0  0  0  0  0  0  0  0  0
   27.7297  -21.4220  -17.8420 N   0  0  0  0  0  0  0  0  0  0  0  0
   28.2902  -22.7306  -17.5236 C   0  0  0  0  0  0  0  0  0  0  0  0
   26.3839  -21.4745  -18.4212 O   0  0  0  0  0  0  0  0  0  0  0  0
   26.1370  -22.2880  -19.3486 N   0  0  0  0  0  0  0  0  0  0  0  0
   25.3105  -20.6402  -17.9858 C   0  0  2  0  0  0  0  0  0  0  0  0
   24.0452  -20.7442  -18.7016 C   0  0  0  0  0  0  0  0  0  0  0  0
   24.2062  -21.5336  -19.9767 C   0  0  0  0  0  0  0  0  0  0  0  0
   24.2250  -20.6554  -21.1616 C   0  0  0  0  0  0  0  0  0  0  0  0
   23.3442  -19.5971  -21.1715 C   0  0  0  0  0  0  0  0  0  0  0  0
   23.3317  -18.7487  -22.2479 C   0  0  0  0  0  0  0  0  0  0  0  0
   24.1768  -18.9152  -23.3347 C   0  0  0  0  0  0  0  0  0  0  0  0
   25.0382  -19.9835  -23.2834 C   0  0  0  0  0  0  0  0  0  0  0  0
   25.0711  -20.8568  -22.2069 C   0  0  0  0  0  0  0  0  0  0  0  0
   23.0427  -21.4808  -17.8431 O   0  0  0  0  0  0  0  0  0  0  0  0
   21.7761  -21.7906  -18.3047 O   0  0  0  0  0  0  0  0  0  0  0  0
  2  3  2  0
  2  1  1  0
  4  2  1  0
  5  4  1  0
  6  5  1  0
  7  6  1  0
  8  7  1  0
  8  9  1  6
 10 17  1  0
 10  8  1  0
 11 10  2  0
 13 12  1  0
 13 14  2  0
 15 13  1  0
 16 15  1  1
 16 17  1  0
 18 16  1  0
 19 18  2  0
 20 18  1  0
 21 20  1  0
 21 22  1  6
 23 22  1  0
 23 28  2  0
 24 23  1  0
 25 24  2  0
 25 26  1  0
 26 27  2  0
 27 28  1  0
 29 21  1  0
 30 29  1  0
 31 29  2  0
M  END
$$$$
