RNF.pdb
     RDKit          3D

 31 31  0  0  1  0  0  0  0  0999 V2000
   26.0261  -19.2846  -19.3913 N   0  0  0  0  0  0  0  0  0  0  0  0
   27.2296  -19.0537  -20.1070 C   0  0  0  0  0  0  0  0  0  0  0  0
   27.1422  -18.8109  -21.3850 N   0  0  0  0  0  0  0  0  0  0  0  0
   28.5086  -19.0754  -19.5028 N   0  0  0  0  0  0  0  0  0  0  0  0
   28.6611  -18.9426  -18.0891 C   0  0  0  0  0  0  0  0  0  0  0  0
   28.0252  -17.6997  -17.4952 C   0  0  0  0  0  0  0  0  0  0  0  0
   27.1090  -17.9484  -16.3520 C   0  0  0  0  0  0  0  0  0  0  0  0
   27.7453  -18.9280  -15.3865 C   0  0  2  0  0  0  0  0  0  0  0  0
   28.3950  -20.0023  -16.1654 N   0  0  0  0  0  0  0  0  0  0  0  0
   26.7801  -19.5165  -14.4371 C   0  0  0  0  0  0  0  0  0  0  0  0
   26.0041  -18.7502  -13.7619 O   0  0  0  0  0  0  0  0  0  0  0  0
   27.9896  -18.6647  -21.9362 N   0  0  0  0  0  0  0  0  0  0  0  0
   25.3529  -23.7221  -15.7631 C   0  0  0  0  0  0  0  0  0  0  0  0
   24.7022  -22.7004  -15.0262 O   0  0  0  0  0  0  0  0  0  0  0  0
   23.9442  -21.9058  -15.5895 C   0  0  0  0  0  0  0  0  0  0  0  0
   25.0026  -22.6684  -13.5541 C   0  0  2  0  0  0  0  0  0  0  0  0
   25.7160  -21.4337  -13.1548 N   0  0  0  0  0  0  0  0  0  0  0  0
   26.6036  -20.8984  -14.1813 C   0  0  0  0  0  0  0  0  0  0  0  0
   26.2734  -21.3847  -11.7996 O   0  0  0  0  0  0  0  0  0  0  0  0
   27.3975  -20.8530  -11.6081 N   0  0  0  0  0  0  0  0  0  0  0  0
   25.6021  -21.9144  -10.6566 C   0  0  2  0  0  0  0  0  0  0  0  0
   25.9972  -21.4061   -9.3491 C   0  0  0  0  0  0  0  0  0  0  0  0
   26.9471  -20.2423   -9.4837 C   0  0  0  0  0  0  0  0  0  0  0  0
   27.4860  -19.8257   -8.1755 C   0  0  0  0  0  0  0  0  0  0  0  0
   26.9731  -18.6727   -7.6245 C   0  0  0  0  0  0  0  0  0  0  0  0
   27.4371  -18.2510   -6.4057 C   0  0  0  0  0  0  0  0  0  0  0  0
   28.4094  -18.9443   -5.7008 C   0  0  0  0  0  0  0  0  0  0  0  0
   28.8933  -20.0879   -6.2872 C   0  0  0  0  0  0  0  0  0  0  0  0
   28.4415  -20.5365   -7.5189 C   0  0  0  0  0  0  0  0  0  0  0  0
   24.7746  -20.9030   -8.6166 O   0  0  0  0  0  0  0  0  0  0  0  0
   24.5226  -21.2431   -7.2997 O   0  0  0  0  0  0  0  0  0  0  0  0
  2  3  2  0
  2  1  1  0
  4  2  1  0
  5  4  1  0
  6  5  1  0
  7  6  1  0
  8  7  1  0
  8  9  1  6
 10 17  1  0
 10  8  1  0
 11 10  2  0
 13 12  1  0
 13 14  2  0
 15 13  1  0
 16 15  1  6
 16 17  1  0
 18 16  1  0
 19 18  2  0
 20 18  1  0
 21 20  1  0
 21 22  1  6
 23 22  1  0
 23 28  2  0
 24 23  1  0
 25 24  2  0
 25 26  1  0
 26 27  2  0
 27 28  1  0
 29 21  1  0
 30 29  1  0
 31 29  2  0
M  END
$$$$
