RNF.pdb
     RDKit          3D

 31 31  0  0  1  0  0  0  0  0999 V2000
   29.7346  -19.8226  -17.3120 N   0  0  0  0  0  0  0  0  0  0  0  0
   29.3720  -18.8830  -18.3118 C   0  0  0  0  0  0  0  0  0  0  0  0
   29.7827  -19.0997  -19.5302 N   0  0  0  0  0  0  0  0  0  0  0  0
   28.5929  -17.7317  -18.0494 N   0  0  0  0  0  0  0  0  0  0  0  0
   27.8617  -17.5956  -16.8303 C   0  0  0  0  0  0  0  0  0  0  0  0
   27.7647  -18.8634  -16.0026 C   0  0  0  0  0  0  0  0  0  0  0  0
   26.3822  -19.2784  -15.6495 C   0  0  0  0  0  0  0  0  0  0  0  0
   25.9463  -20.4254  -16.5391 C   0  0  2  0  0  0  0  0  0  0  0  0
   25.7603  -19.9121  -17.9120 N   0  0  0  0  0  0  0  0  0  0  0  0
   24.7037  -21.0762  -16.0791 C   0  0  0  0  0  0  0  0  0  0  0  0
   23.5679  -20.6283  -16.4722 O   0  0  0  0  0  0  0  0  0  0  0  0
   29.5807  -18.4203  -20.2657 N   0  0  0  0  0  0  0  0  0  0  0  0
   20.7780  -24.9856  -15.8062 C   0  0  0  0  0  0  0  0  0  0  0  0
   21.8652  -24.7823  -14.9190 O   0  0  0  0  0  0  0  0  0  0  0  0
   21.8003  -25.1668  -13.7481 C   0  0  0  0  0  0  0  0  0  0  0  0
   23.0605  -24.0844  -15.5044 C   0  0  1  0  0  0  0  0  0  0  0  0
   23.3716  -22.8199  -14.7994 N   0  0  0  0  0  0  0  0  0  0  0  0
   24.6229  -22.1963  -15.2159 C   0  0  0  0  0  0  0  0  0  0  0  0
   23.1371  -22.7784  -13.3528 O   0  0  0  0  0  0  0  0  0  0  0  0
   24.0738  -23.0620  -12.5623 N   0  0  0  0  0  0  0  0  0  0  0  0
   21.8814  -22.4260  -12.7724 C   0  0  1  0  0  0  0  0  0  0  0  0
   21.7555  -21.0908  -12.2019 C   0  0  0  0  0  0  0  0  0  0  0  0
   23.0255  -20.2988  -12.3885 C   0  0  0  0  0  0  0  0  0  0  0  0
   24.0416  -20.6544  -11.3803 C   0  0  0  0  0  0  0  0  0  0  0  0
   23.6206  -20.7502  -10.0727 C   0  0  0  0  0  0  0  0  0  0  0  0
   24.5278  -21.0868   -9.1020 C   0  0  0  0  0  0  0  0  0  0  0  0
   25.8619  -21.3363   -9.3865 C   0  0  0  0  0  0  0  0  0  0  0  0
   26.2384  -21.2289  -10.7028 C   0  0  0  0  0  0  0  0  0  0  0  0
   25.3411  -20.8899  -11.7041 C   0  0  0  0  0  0  0  0  0  0  0  0
   20.6530  -20.3427  -12.9154 O   0  0  0  0  0  0  0  0  0  0  0  0
   19.9414  -19.3298  -12.2980 O   0  0  0  0  0  0  0  0  0  0  0  0
  2  3  2  0
  2  1  1  0
  4  2  1  0
  5  4  1  0
  6  5  1  0
  7  6  1  0
  8  7  1  0
  8  9  1  6
 10 17  1  0
 10  8  1  0
 11 10  2  0
 13 12  1  0
 13 14  2  0
 15 13  1  0
 16 15  1  6
 16 17  1  0
 18 16  1  0
 19 18  2  0
 20 18  1  0
 21 20  1  0
 21 22  1  1
 23 22  1  0
 23 28  2  0
 24 23  1  0
 25 24  2  0
 25 26  1  0
 26 27  2  0
 27 28  1  0
 29 21  1  0
 30 29  1  0
 31 29  2  0
M  END
$$$$
