RNF.pdb
     RDKit          3D

 31 31  0  0  1  0  0  0  0  0999 V2000
   31.8216  -25.3561  -15.0339 N   0  0  0  0  0  0  0  0  0  0  0  0
   31.5750  -24.9649  -16.3756 C   0  0  0  0  0  0  0  0  0  0  0  0
   31.8462  -25.8215  -17.3204 N   0  0  0  0  0  0  0  0  0  0  0  0
   31.0535  -23.6990  -16.7319 N   0  0  0  0  0  0  0  0  0  0  0  0
   30.4904  -22.8281  -15.7502 C   0  0  0  0  0  0  0  0  0  0  0  0
   29.0028  -22.5734  -15.9051 C   0  0  0  0  0  0  0  0  0  0  0  0
   28.4432  -21.5452  -14.9898 C   0  0  0  0  0  0  0  0  0  0  0  0
   26.9488  -21.4200  -15.2087 C   0  0  2  0  0  0  0  0  0  0  0  0
   26.7161  -20.5674  -16.3927 N   0  0  0  0  0  0  0  0  0  0  0  0
   26.2371  -20.8581  -14.0438 C   0  0  0  0  0  0  0  0  0  0  0  0
   26.1117  -19.5869  -13.9276 O   0  0  0  0  0  0  0  0  0  0  0  0
   31.6840  -25.5724  -18.2976 N   0  0  0  0  0  0  0  0  0  0  0  0
   22.4151  -21.8658  -13.7289 C   0  0  0  0  0  0  0  0  0  0  0  0
   22.8721  -20.7950  -12.9198 O   0  0  0  0  0  0  0  0  0  0  0  0
   22.6646  -19.6245  -13.2516 C   0  0  0  0  0  0  0  0  0  0  0  0
   23.6041  -21.1917  -11.6686 C   0  0  2  0  0  0  0  0  0  0  0  0
   25.0679  -21.0068  -11.7936 N   0  0  0  0  0  0  0  0  0  0  0  0
   25.6447  -21.6020  -12.9941 C   0  0  0  0  0  0  0  0  0  0  0  0
   25.8776  -21.1959  -10.5860 O   0  0  0  0  0  0  0  0  0  0  0  0
   26.3021  -22.3439  -10.2951 N   0  0  0  0  0  0  0  0  0  0  0  0
   26.2234  -20.1315   -9.7000 C   0  0  1  0  0  0  0  0  0  0  0  0
   26.9437  -20.4782   -8.4813 C   0  0  0  0  0  0  0  0  0  0  0  0
   27.8389  -19.3474   -8.0397 C   0  0  0  0  0  0  0  0  0  0  0  0
   28.4776  -19.6343   -6.7415 C   0  0  0  0  0  0  0  0  0  0  0  0
   28.0619  -18.8901   -5.6602 C   0  0  0  0  0  0  0  0  0  0  0  0
   28.6209  -19.1275   -4.4314 C   0  0  0  0  0  0  0  0  0  0  0  0
   29.5952  -20.0941   -4.2329 C   0  0  0  0  0  0  0  0  0  0  0  0
   29.9804  -20.8122   -5.3382 C   0  0  0  0  0  0  0  0  0  0  0  0
   29.4313  -20.5921   -6.5923 C   0  0  0  0  0  0  0  0  0  0  0  0
   25.9532  -20.7258   -7.3669 O   0  0  0  0  0  0  0  0  0  0  0  0
   24.6719  -20.2058   -7.4015 O   0  0  0  0  0  0  0  0  0  0  0  0
  2  3  2  0
  2  1  1  0
  4  2  1  0
  5  4  1  0
  6  5  1  0
  7  6  1  0
  8  7  1  0
  8  9  1  6
 10 17  1  0
 10  8  1  0
 11 10  2  0
 13 12  1  0
 13 14  2  0
 15 13  1  0
 16 15  1  6
 16 17  1  0
 18 16  1  0
 19 18  2  0
 20 18  1  0
 21 20  1  0
 21 22  1  1
 23 22  1  0
 23 28  2  0
 24 23  1  0
 25 24  2  0
 25 26  1  0
 26 27  2  0
 27 28  1  0
 29 21  1  0
 30 29  1  0
 31 29  2  0
M  END
$$$$
