RNF.pdb
     RDKit          3D

 31 31  0  0  1  0  0  0  0  0999 V2000
   11.0650  -14.6197  -10.7783 N   0  0  0  0  0  0  0  0  0  0  0  0
   10.2118  -13.5213  -10.4960 C   0  0  0  0  0  0  0  0  0  0  0  0
    9.1140  -13.7565   -9.8329 N   0  0  0  0  0  0  0  0  0  0  0  0
   10.4949  -12.1949  -10.8980 N   0  0  0  0  0  0  0  0  0  0  0  0
   10.5037  -11.8260  -12.2776 C   0  0  0  0  0  0  0  0  0  0  0  0
   11.7691  -12.1990  -13.0270 C   0  0  0  0  0  0  0  0  0  0  0  0
   13.0170  -11.5957  -12.4913 C   0  0  0  0  0  0  0  0  0  0  0  0
   13.8276  -10.9992  -13.6243 C   0  0  2  0  0  0  0  0  0  0  0  0
   14.4646  -12.0991  -14.3776 N   0  0  0  0  0  0  0  0  0  0  0  0
   14.8598  -10.0504  -13.1621 C   0  0  0  0  0  0  0  0  0  0  0  0
   15.9779  -10.4940  -12.7168 O   0  0  0  0  0  0  0  0  0  0  0  0
    8.4739  -12.9904   -9.6168 N   0  0  0  0  0  0  0  0  0  0  0  0
   18.8231   -6.3305  -12.9771 C   0  0  0  0  0  0  0  0  0  0  0  0
   17.4986   -6.0595  -13.4045 O   0  0  0  0  0  0  0  0  0  0  0  0
   17.0711   -4.9020  -13.4285 C   0  0  0  0  0  0  0  0  0  0  0  0
   16.6887   -7.2581  -13.8117 C   0  0  1  0  0  0  0  0  0  0  0  0
   15.8074   -7.7352  -12.7215 N   0  0  0  0  0  0  0  0  0  0  0  0
   14.7494   -8.6383  -13.1608 C   0  0  0  0  0  0  0  0  0  0  0  0
   15.3759   -6.7518  -11.7233 O   0  0  0  0  0  0  0  0  0  0  0  0
   14.2452   -6.2110  -11.8311 N   0  0  0  0  0  0  0  0  0  0  0  0
   16.1788   -6.3624  -10.6091 C   0  0  1  0  0  0  0  0  0  0  0  0
   15.6287   -5.3652   -9.6997 C   0  0  0  0  0  0  0  0  0  0  0  0
   15.6692   -5.8513   -8.2724 C   0  0  0  0  0  0  0  0  0  0  0  0
   14.5133   -6.7116   -7.9576 C   0  0  0  0  0  0  0  0  0  0  0  0
   13.3536   -6.0835   -7.5619 C   0  0  0  0  0  0  0  0  0  0  0  0
   12.2504   -6.8417   -7.2674 C   0  0  0  0  0  0  0  0  0  0  0  0
   12.2560   -8.2257   -7.3528 C   0  0  0  0  0  0  0  0  0  0  0  0
   13.4332   -8.8105   -7.7507 C   0  0  0  0  0  0  0  0  0  0  0  0
   14.5635   -8.0671   -8.0542 C   0  0  0  0  0  0  0  0  0  0  0  0
   16.4656   -4.1085   -9.7681 O   0  0  0  0  0  0  0  0  0  0  0  0
   16.1227   -2.9654   -9.0686 O   0  0  0  0  0  0  0  0  0  0  0  0
  2  3  2  0
  2  1  1  0
  4  2  1  0
  5  4  1  0
  6  5  1  0
  7  6  1  0
  8  7  1  0
  8  9  1  1
 10 17  1  0
 10  8  1  0
 11 10  2  0
 13 12  1  0
 13 14  2  0
 15 13  1  0
 16 15  1  1
 16 17  1  0
 18 16  1  0
 19 18  2  0
 20 18  1  0
 21 20  1  0
 21 22  1  1
 23 22  1  0
 23 28  2  0
 24 23  1  0
 25 24  2  0
 25 26  1  0
 26 27  2  0
 27 28  1  0
 29 21  1  0
 30 29  1  0
 31 29  2  0
M  END
$$$$
