RNF.pdb
     RDKit          3D

 31 31  0  0  1  0  0  0  0  0999 V2000
   23.2037  -32.4693   -9.7687 N   0  0  0  0  0  0  0  0  0  0  0  0
   22.6127  -31.1799   -9.7235 C   0  0  0  0  0  0  0  0  0  0  0  0
   22.7184  -30.4989   -8.6166 N   0  0  0  0  0  0  0  0  0  0  0  0
   21.9196  -30.6048  -10.8145 N   0  0  0  0  0  0  0  0  0  0  0  0
   22.4626  -30.6358  -12.1349 C   0  0  0  0  0  0  0  0  0  0  0  0
   23.7132  -29.7986  -12.3275 C   0  0  0  0  0  0  0  0  0  0  0  0
   23.4805  -28.3337  -12.4166 C   0  0  0  0  0  0  0  0  0  0  0  0
   23.4395  -27.9068  -13.8701 C   0  0  2  0  0  0  0  0  0  0  0  0
   24.2223  -28.8737  -14.6672 N   0  0  0  0  0  0  0  0  0  0  0  0
   23.9620  -26.5436  -14.0892 C   0  0  0  0  0  0  0  0  0  0  0  0
   25.0194  -26.1609  -13.4721 O   0  0  0  0  0  0  0  0  0  0  0  0
   22.2408  -29.6011   -8.5218 N   0  0  0  0  0  0  0  0  0  0  0  0
   26.2583  -24.6928  -17.5003 C   0  0  0  0  0  0  0  0  0  0  0  0
   24.8591  -24.9082  -17.4220 O   0  0  0  0  0  0  0  0  0  0  0  0
   24.3409  -25.8780  -17.9828 C   0  0  0  0  0  0  0  0  0  0  0  0
   24.0882  -23.8925  -16.6268 C   0  0  2  0  0  0  0  0  0  0  0  0
   23.9937  -24.2568  -15.1946 N   0  0  0  0  0  0  0  0  0  0  0  0
   23.4023  -25.5676  -14.9497 C   0  0  0  0  0  0  0  0  0  0  0  0
   23.5474  -23.2174  -14.2619 O   0  0  0  0  0  0  0  0  0  0  0  0
   22.4008  -23.2919  -13.7495 N   0  0  0  0  0  0  0  0  0  0  0  0
   24.3542  -22.1002  -13.8893 C   0  0  1  0  0  0  0  0  0  0  0  0
   23.7942  -21.1563  -12.9304 C   0  0  0  0  0  0  0  0  0  0  0  0
   24.8501  -20.6663  -11.9713 C   0  0  0  0  0  0  0  0  0  0  0  0
   26.1125  -20.3518  -12.6662 C   0  0  0  0  0  0  0  0  0  0  0  0
   26.2008  -19.1225  -13.2801 C   0  0  0  0  0  0  0  0  0  0  0  0
   27.3582  -18.7825  -13.9309 C   0  0  0  0  0  0  0  0  0  0  0  0
   28.4512  -19.6334  -13.9959 C   0  0  0  0  0  0  0  0  0  0  0  0
   28.3196  -20.8491  -13.3707 C   0  0  0  0  0  0  0  0  0  0  0  0
   27.1601  -21.2179  -12.7058 C   0  0  0  0  0  0  0  0  0  0  0  0
   23.2641  -19.9480  -13.6674 O   0  0  0  0  0  0  0  0  0  0  0  0
   23.4581  -19.7803  -15.0267 O   0  0  0  0  0  0  0  0  0  0  0  0
  2  3  2  0
  2  1  1  0
  4  2  1  0
  5  4  1  0
  6  5  1  0
  7  6  1  0
  8  7  1  0
  8  9  1  6
 10 17  1  0
 10  8  1  0
 11 10  2  0
 13 12  1  0
 13 14  2  0
 15 13  1  0
 16 15  1  6
 16 17  1  0
 18 16  1  0
 19 18  2  0
 20 18  1  0
 21 20  1  0
 21 22  1  1
 23 22  1  0
 23 28  2  0
 24 23  1  0
 25 24  2  0
 25 26  1  0
 26 27  2  0
 27 28  1  0
 29 21  1  0
 30 29  1  0
 31 29  2  0
M  END
$$$$
