RNF.pdb
     RDKit          3D

 31 31  0  0  1  0  0  0  0  0999 V2000
   30.3884  -27.1610  -17.8552 N   0  0  0  0  0  0  0  0  0  0  0  0
   30.9791  -26.3293  -18.8418 C   0  0  0  0  0  0  0  0  0  0  0  0
   31.1010  -26.8070  -20.0489 N   0  0  0  0  0  0  0  0  0  0  0  0
   31.4383  -25.0176  -18.5779 N   0  0  0  0  0  0  0  0  0  0  0  0
   30.8659  -24.2297  -17.5334 C   0  0  0  0  0  0  0  0  0  0  0  0
   30.2650  -22.9126  -17.9874 C   0  0  0  0  0  0  0  0  0  0  0  0
   28.7798  -22.8783  -18.0201 C   0  0  0  0  0  0  0  0  0  0  0  0
   28.2333  -22.9069  -16.6068 C   0  0  2  0  0  0  0  0  0  0  0  0
   28.3994  -24.2715  -16.0652 N   0  0  0  0  0  0  0  0  0  0  0  0
   26.8140  -22.5092  -16.5256 C   0  0  0  0  0  0  0  0  0  0  0  0
   26.4657  -21.3220  -16.8639 O   0  0  0  0  0  0  0  0  0  0  0  0
   31.6533  -26.3025  -20.7445 N   0  0  0  0  0  0  0  0  0  0  0  0
   24.3606  -22.5533  -18.6735 C   0  0  0  0  0  0  0  0  0  0  0  0
   23.4931  -23.5833  -18.2296 O   0  0  0  0  0  0  0  0  0  0  0  0
   22.8722  -24.2745  -19.0420 C   0  0  0  0  0  0  0  0  0  0  0  0
   23.3973  -23.7558  -16.7398 C   0  0  2  0  0  0  0  0  0  0  0  0
   24.3556  -22.8919  -16.0132 N   0  0  0  0  0  0  0  0  0  0  0  0
   25.7432  -23.3336  -16.1012 C   0  0  0  0  0  0  0  0  0  0  0  0
   23.9632  -22.4198  -14.6818 O   0  0  0  0  0  0  0  0  0  0  0  0
   24.1108  -23.1740  -13.6857 N   0  0  0  0  0  0  0  0  0  0  0  0
   23.4124  -21.1251  -14.4405 C   0  0  1  0  0  0  0  0  0  0  0  0
   22.9644  -20.8267  -13.0861 C   0  0  0  0  0  0  0  0  0  0  0  0
   23.7600  -19.6931  -12.4887 C   0  0  0  0  0  0  0  0  0  0  0  0
   25.1167  -20.1246  -12.1029 C   0  0  0  0  0  0  0  0  0  0  0  0
   25.3039  -20.5086  -10.7939 C   0  0  0  0  0  0  0  0  0  0  0  0
   26.5459  -20.9258  -10.3914 C   0  0  0  0  0  0  0  0  0  0  0  0
   27.6287  -20.9768  -11.2562 C   0  0  0  0  0  0  0  0  0  0  0  0
   27.3974  -20.5845  -12.5518 C   0  0  0  0  0  0  0  0  0  0  0  0
   26.1512  -20.1581  -12.9849 C   0  0  0  0  0  0  0  0  0  0  0  0
   21.5185  -20.3883  -13.1215 O   0  0  0  0  0  0  0  0  0  0  0  0
   20.7764  -20.2292  -11.9650 O   0  0  0  0  0  0  0  0  0  0  0  0
  2  3  2  0
  2  1  1  0
  4  2  1  0
  5  4  1  0
  6  5  1  0
  7  6  1  0
  8  7  1  0
  8  9  1  6
 10 17  1  0
 10  8  1  0
 11 10  2  0
 13 12  1  0
 13 14  2  0
 15 13  1  0
 16 15  1  6
 16 17  1  0
 18 16  1  0
 19 18  2  0
 20 18  1  0
 21 20  1  0
 21 22  1  1
 23 22  1  0
 23 28  2  0
 24 23  1  0
 25 24  2  0
 25 26  1  0
 26 27  2  0
 27 28  1  0
 29 21  1  0
 30 29  1  0
 31 29  2  0
M  END
$$$$
