RNF.pdb
     RDKit          3D

 31 31  0  0  1  0  0  0  0  0999 V2000
   29.9969  -28.2082  -17.3190 N   0  0  0  0  0  0  0  0  0  0  0  0
   29.9455  -27.3148  -18.4205 C   0  0  0  0  0  0  0  0  0  0  0  0
   30.9567  -27.3025  -19.2435 N   0  0  0  0  0  0  0  0  0  0  0  0
   28.8573  -26.4442  -18.6639 N   0  0  0  0  0  0  0  0  0  0  0  0
   27.6248  -26.5851  -17.9565 C   0  0  0  0  0  0  0  0  0  0  0  0
   27.6072  -25.9515  -16.5781 C   0  0  0  0  0  0  0  0  0  0  0  0
   26.5742  -24.9012  -16.3830 C   0  0  0  0  0  0  0  0  0  0  0  0
   25.3591  -25.4953  -15.6994 C   0  0  2  0  0  0  0  0  0  0  0  0
   25.0660  -26.8060  -16.3153 N   0  0  0  0  0  0  0  0  0  0  0  0
   24.1662  -24.6296  -15.7815 C   0  0  0  0  0  0  0  0  0  0  0  0
   23.3652  -24.7432  -16.7769 O   0  0  0  0  0  0  0  0  0  0  0  0
   30.9517  -26.6747  -20.0492 N   0  0  0  0  0  0  0  0  0  0  0  0
   19.5085  -23.2265  -15.0711 C   0  0  0  0  0  0  0  0  0  0  0  0
   20.0934  -24.0013  -14.0377 O   0  0  0  0  0  0  0  0  0  0  0  0
   19.4468  -24.2901  -13.0269 C   0  0  0  0  0  0  0  0  0  0  0  0
   21.5162  -24.4261  -14.2693 C   0  0  1  0  0  0  0  0  0  0  0  0
   22.4058  -23.2757  -14.5486 N   0  0  0  0  0  0  0  0  0  0  0  0
   23.7874  -23.6452  -14.8362 C   0  0  0  0  0  0  0  0  0  0  0  0
   22.2705  -22.0942  -13.6910 O   0  0  0  0  0  0  0  0  0  0  0  0
   22.8353  -22.0733  -12.5670 N   0  0  0  0  0  0  0  0  0  0  0  0
   21.5207  -20.9379  -14.0630 C   0  0  1  0  0  0  0  0  0  0  0  0
   22.2677  -19.7452  -14.4419 C   0  0  0  0  0  0  0  0  0  0  0  0
   23.0527  -19.2026  -13.2739 C   0  0  0  0  0  0  0  0  0  0  0  0
   24.0277  -20.1875  -12.7691 C   0  0  0  0  0  0  0  0  0  0  0  0
   23.6806  -20.8894  -11.6364 C   0  0  0  0  0  0  0  0  0  0  0  0
   24.5514  -21.8218  -11.1354 C   0  0  0  0  0  0  0  0  0  0  0  0
   25.7765  -22.0880  -11.7281 C   0  0  0  0  0  0  0  0  0  0  0  0
   26.0823  -21.3649  -12.8549 C   0  0  0  0  0  0  0  0  0  0  0  0
   25.2198  -20.4160  -13.3822 C   0  0  0  0  0  0  0  0  0  0  0  0
   23.2623  -20.0993  -15.5234 O   0  0  0  0  0  0  0  0  0  0  0  0
   23.8565  -19.1311  -16.3127 O   0  0  0  0  0  0  0  0  0  0  0  0
  2  3  2  0
  2  1  1  0
  4  2  1  0
  5  4  1  0
  6  5  1  0
  7  6  1  0
  8  7  1  0
  8  9  1  6
 10 17  1  0
 10  8  1  0
 11 10  2  0
 13 12  1  0
 13 14  2  0
 15 13  1  0
 16 15  1  6
 16 17  1  0
 18 16  1  0
 19 18  2  0
 20 18  1  0
 21 20  1  0
 21 22  1  1
 23 22  1  0
 23 28  2  0
 24 23  1  0
 25 24  2  0
 25 26  1  0
 26 27  2  0
 27 28  1  0
 29 21  1  0
 30 29  1  0
 31 29  2  0
M  END
$$$$
