RNF.pdb
     RDKit          3D

 31 31  0  0  1  0  0  0  0  0999 V2000
   18.7999  -20.3816  -17.1938 N   0  0  0  0  0  0  0  0  0  0  0  0
   17.9560  -21.1714  -16.3703 C   0  0  0  0  0  0  0  0  0  0  0  0
   16.9840  -21.8254  -16.9426 N   0  0  0  0  0  0  0  0  0  0  0  0
   18.1191  -21.2801  -14.9693 N   0  0  0  0  0  0  0  0  0  0  0  0
   19.2306  -20.6778  -14.3051 C   0  0  0  0  0  0  0  0  0  0  0  0
   20.4668  -20.5021  -15.1669 C   0  0  0  0  0  0  0  0  0  0  0  0
   21.5936  -21.4148  -14.8419 C   0  0  0  0  0  0  0  0  0  0  0  0
   22.0293  -21.2031  -13.4059 C   0  0  2  0  0  0  0  0  0  0  0  0
   21.6255  -19.8452  -12.9865 N   0  0  0  0  0  0  0  0  0  0  0  0
   23.4826  -21.3724  -13.2098 C   0  0  0  0  0  0  0  0  0  0  0  0
   24.0891  -22.3565  -13.7655 O   0  0  0  0  0  0  0  0  0  0  0  0
   16.3600  -22.4075  -16.3812 N   0  0  0  0  0  0  0  0  0  0  0  0
   29.0550  -20.9668  -13.1758 C   0  0  0  0  0  0  0  0  0  0  0  0
   27.9890  -20.0742  -12.8978 O   0  0  0  0  0  0  0  0  0  0  0  0
   28.2031  -18.9963  -12.3361 C   0  0  0  0  0  0  0  0  0  0  0  0
   26.6254  -20.5351  -13.3299 C   0  0  1  0  0  0  0  0  0  0  0  0
   25.7308  -20.7940  -12.1786 N   0  0  0  0  0  0  0  0  0  0  0  0
   24.3219  -20.5257  -12.4450 C   0  0  0  0  0  0  0  0  0  0  0  0
   26.1839  -20.3467  -10.8579 O   0  0  0  0  0  0  0  0  0  0  0  0
   25.6781  -19.3164  -10.3427 N   0  0  0  0  0  0  0  0  0  0  0  0
   27.1866  -21.0258  -10.1021 C   0  0  2  0  0  0  0  0  0  0  0  0
   27.1760  -20.8453   -8.6559 C   0  0  0  0  0  0  0  0  0  0  0  0
   27.9595  -19.6201   -8.2562 C   0  0  0  0  0  0  0  0  0  0  0  0
   28.2958  -19.6339   -6.8201 C   0  0  0  0  0  0  0  0  0  0  0  0
   29.5401  -20.1101   -6.4722 C   0  0  0  0  0  0  0  0  0  0  0  0
   29.9004  -20.1338   -5.1500 C   0  0  0  0  0  0  0  0  0  0  0  0
   29.0556  -19.6944   -4.1419 C   0  0  0  0  0  0  0  0  0  0  0  0
   27.8246  -19.2284   -4.5336 C   0  0  0  0  0  0  0  0  0  0  0  0
   27.4351  -19.1937   -5.8639 C   0  0  0  0  0  0  0  0  0  0  0  0
   25.7540  -20.6396   -8.1869 O   0  0  0  0  0  0  0  0  0  0  0  0
   25.3275  -21.0687   -6.9429 O   0  0  0  0  0  0  0  0  0  0  0  0
  2  3  2  0
  2  1  1  0
  4  2  1  0
  5  4  1  0
  6  5  1  0
  7  6  1  0
  8  7  1  0
  8  9  1  6
 10 17  1  0
 10  8  1  0
 11 10  2  0
 13 12  1  0
 13 14  2  0
 15 13  1  0
 16 15  1  6
 16 17  1  0
 18 16  1  0
 19 18  2  0
 20 18  1  0
 21 20  1  0
 21 22  1  6
 23 22  1  0
 23 28  2  0
 24 23  1  0
 25 24  2  0
 25 26  1  0
 26 27  2  0
 27 28  1  0
 29 21  1  0
 30 29  1  0
 31 29  2  0
M  END
$$$$
