RNF.pdb
     RDKit          3D

 31 31  0  0  1  0  0  0  0  0999 V2000
   29.1810  -23.6689  -17.3804 N   0  0  0  0  0  0  0  0  0  0  0  0
   28.1934  -23.4833  -16.3782 C   0  0  0  0  0  0  0  0  0  0  0  0
   27.4220  -24.4935  -16.0876 N   0  0  0  0  0  0  0  0  0  0  0  0
   28.0088  -22.2631  -15.6867 N   0  0  0  0  0  0  0  0  0  0  0  0
   28.1879  -21.0071  -16.3421 C   0  0  0  0  0  0  0  0  0  0  0  0
   27.8387  -19.7949  -15.4991 C   0  0  0  0  0  0  0  0  0  0  0  0
   26.6943  -19.9846  -14.5704 C   0  0  0  0  0  0  0  0  0  0  0  0
   25.3943  -19.6787  -15.2868 C   0  0  2  0  0  0  0  0  0  0  0  0
   25.3834  -18.2472  -15.6523 N   0  0  0  0  0  0  0  0  0  0  0  0
   24.1991  -19.9948  -14.4799 C   0  0  0  0  0  0  0  0  0  0  0  0
   24.3326  -20.3236  -13.2473 O   0  0  0  0  0  0  0  0  0  0  0  0
   26.7324  -24.4106  -15.3387 N   0  0  0  0  0  0  0  0  0  0  0  0
   19.7703  -19.9118  -12.2023 C   0  0  0  0  0  0  0  0  0  0  0  0
   20.7559  -18.9216  -11.9605 O   0  0  0  0  0  0  0  0  0  0  0  0
   20.6639  -18.1689  -10.9867 C   0  0  0  0  0  0  0  0  0  0  0  0
   21.8817  -18.8683  -12.9546 C   0  0  2  0  0  0  0  0  0  0  0  0
   21.6989  -19.8361  -14.0603 N   0  0  0  0  0  0  0  0  0  0  0  0
   22.8583  -19.9686  -14.9357 C   0  0  0  0  0  0  0  0  0  0  0  0
   20.4155  -19.8168  -14.7689 O   0  0  0  0  0  0  0  0  0  0  0  0
   20.1250  -18.8373  -15.5031 N   0  0  0  0  0  0  0  0  0  0  0  0
   19.4533  -20.8671  -14.6759 C   0  0  1  0  0  0  0  0  0  0  0  0
   18.2240  -20.7229  -15.4454 C   0  0  0  0  0  0  0  0  0  0  0  0
   17.9147  -21.9825  -16.2153 C   0  0  0  0  0  0  0  0  0  0  0  0
   18.7405  -22.0928  -17.4324 C   0  0  0  0  0  0  0  0  0  0  0  0
   18.1458  -21.7519  -18.6267 C   0  0  0  0  0  0  0  0  0  0  0  0
   18.8770  -21.8303  -19.7833 C   0  0  0  0  0  0  0  0  0  0  0  0
   20.2010  -22.2421  -19.7985 C   0  0  0  0  0  0  0  0  0  0  0  0
   20.7540  -22.5730  -18.5858 C   0  0  0  0  0  0  0  0  0  0  0  0
   20.0367  -22.5028  -17.4013 C   0  0  0  0  0  0  0  0  0  0  0  0
   17.0680  -20.4798  -14.5026 O   0  0  0  0  0  0  0  0  0  0  0  0
   15.7697  -20.3456  -14.9606 O   0  0  0  0  0  0  0  0  0  0  0  0
  2  3  2  0
  2  1  1  0
  4  2  1  0
  5  4  1  0
  6  5  1  0
  7  6  1  0
  8  7  1  0
  8  9  1  1
 10 17  1  0
 10  8  1  0
 11 10  2  0
 13 12  1  0
 13 14  2  0
 15 13  1  0
 16 15  1  1
 16 17  1  0
 18 16  1  0
 19 18  2  0
 20 18  1  0
 21 20  1  0
 21 22  1  6
 23 22  1  0
 23 28  2  0
 24 23  1  0
 25 24  2  0
 25 26  1  0
 26 27  2  0
 27 28  1  0
 29 21  1  0
 30 29  1  0
 31 29  2  0
M  END
$$$$
