RNF.pdb
     RDKit          3D

 31 31  0  0  1  0  0  0  0  0999 V2000
   32.2809  -25.9560  -16.0065 N   0  0  0  0  0  0  0  0  0  0  0  0
   32.5453  -25.4792  -17.3168 C   0  0  0  0  0  0  0  0  0  0  0  0
   33.1106  -26.2966  -18.1607 N   0  0  0  0  0  0  0  0  0  0  0  0
   32.2270  -24.1691  -17.7452 N   0  0  0  0  0  0  0  0  0  0  0  0
   31.4892  -23.2765  -16.9097 C   0  0  0  0  0  0  0  0  0  0  0  0
   29.9949  -23.5355  -16.8664 C   0  0  0  0  0  0  0  0  0  0  0  0
   29.1473  -22.3158  -16.8196 C   0  0  0  0  0  0  0  0  0  0  0  0
   27.6884  -22.7075  -16.6972 C   0  0  2  0  0  0  0  0  0  0  0  0
   27.1905  -23.0929  -18.0338 N   0  0  0  0  0  0  0  0  0  0  0  0
   26.8435  -21.6312  -16.1433 C   0  0  0  0  0  0  0  0  0  0  0  0
   26.8495  -20.4718  -16.6919 O   0  0  0  0  0  0  0  0  0  0  0  0
   33.3454  -25.9770  -19.1020 N   0  0  0  0  0  0  0  0  0  0  0  0
   21.9484  -19.3591  -15.4034 C   0  0  0  0  0  0  0  0  0  0  0  0
   23.3254  -19.0440  -15.2813 O   0  0  0  0  0  0  0  0  0  0  0  0
   23.6820  -17.9561  -14.8202 C   0  0  0  0  0  0  0  0  0  0  0  0
   24.2796  -20.1088  -15.7440 C   0  0  2  0  0  0  0  0  0  0  0  0
   25.0277  -20.7172  -14.6201 N   0  0  0  0  0  0  0  0  0  0  0  0
   25.9823  -21.7435  -15.0244 C   0  0  0  0  0  0  0  0  0  0  0  0
   24.2727  -21.0490  -13.4079 O   0  0  0  0  0  0  0  0  0  0  0  0
   23.4845  -22.0296  -13.4149 N   0  0  0  0  0  0  0  0  0  0  0  0
   24.3811  -20.3111  -12.1908 C   0  0  1  0  0  0  0  0  0  0  0  0
   23.6925  -20.8399  -11.0203 C   0  0  0  0  0  0  0  0  0  0  0  0
   24.2999  -20.3073   -9.7466 C   0  0  0  0  0  0  0  0  0  0  0  0
   25.7663  -20.4656   -9.7355 C   0  0  0  0  0  0  0  0  0  0  0  0
   26.5198  -19.3192   -9.6162 C   0  0  0  0  0  0  0  0  0  0  0  0
   27.8866  -19.4178   -9.5924 C   0  0  0  0  0  0  0  0  0  0  0  0
   28.5453  -20.6347   -9.6844 C   0  0  0  0  0  0  0  0  0  0  0  0
   27.7553  -21.7518   -9.8026 C   0  0  0  0  0  0  0  0  0  0  0  0
   26.3709  -21.6800   -9.8294 C   0  0  0  0  0  0  0  0  0  0  0  0
   22.2477  -20.3970  -11.0460 O   0  0  0  0  0  0  0  0  0  0  0  0
   21.3005  -20.9502  -10.2032 O   0  0  0  0  0  0  0  0  0  0  0  0
  2  3  2  0
  2  1  1  0
  4  2  1  0
  5  4  1  0
  6  5  1  0
  7  6  1  0
  8  7  1  0
  8  9  1  6
 10 17  1  0
 10  8  1  0
 11 10  2  0
 13 12  1  0
 13 14  2  0
 15 13  1  0
 16 15  1  6
 16 17  1  0
 18 16  1  0
 19 18  2  0
 20 18  1  0
 21 20  1  0
 21 22  1  1
 23 22  1  0
 23 28  2  0
 24 23  1  0
 25 24  2  0
 25 26  1  0
 26 27  2  0
 27 28  1  0
 29 21  1  0
 30 29  1  0
 31 29  2  0
M  END
$$$$
