GAF.pdb
     RDKit          3D

 21 21  0  0  1  0  0  0  0  0999 V2000
    8.2384  -12.0958   18.8601 N   0  0  0  0  0  0  0  0  0  0  0  0
    8.8633  -13.3727   19.0832 C   0  0  0  0  0  0  0  0  0  0  0  0
    8.1558  -14.1298   20.1785 C   0  0  0  0  0  0  0  0  0  0  0  0
    7.3462  -13.5406   20.9170 O   0  0  0  0  0  0  0  0  0  0  0  0
    7.8239  -17.7942   21.0480 C   0  0  0  0  0  0  0  0  0  0  0  0
    7.7453  -16.3175   21.3712 C   0  0  2  0  0  0  0  0  0  0  0  0
    8.4151  -15.5154   20.3653 N   0  0  0  0  0  0  0  0  0  0  0  0
    8.3730  -16.0164   22.6899 C   0  0  0  0  0  0  0  0  0  0  0  0
    9.5779  -15.6488   22.7608 O   0  0  0  0  0  0  0  0  0  0  0  0
    7.6682  -16.1229   23.9170 N   0  0  0  0  0  0  0  0  0  0  0  0
    8.3004  -15.7435   25.1989 C   0  0  1  0  0  0  0  0  0  0  0  0
    7.2793  -15.3764   26.2105 C   0  0  0  0  0  0  0  0  0  0  0  0
    7.0508  -13.9182   26.2063 C   0  0  0  0  0  0  0  0  0  0  0  0
    5.8092  -13.3964   26.5966 C   0  0  0  0  0  0  0  0  0  0  0  0
    5.5444  -12.0459   26.6393 C   0  0  0  0  0  0  0  0  0  0  0  0
    6.5311  -11.1762   26.2871 C   0  0  0  0  0  0  0  0  0  0  0  0
    7.7695  -11.6265   25.8957 C   0  0  0  0  0  0  0  0  0  0  0  0
    8.0171  -12.9807   25.8589 C   0  0  0  0  0  0  0  0  0  0  0  0
    9.1138  -16.8726   25.6461 C   0  0  0  0  0  0  0  0  0  0  0  0
    8.8394  -18.0365   25.2621 O   0  0  0  0  0  0  0  0  0  0  0  0
   10.2040  -16.7032   26.4996 O   0  0  0  0  0  0  0  0  0  0  0  0
  1  2  1  0
  3  2  1  0
  3  4  2  0
  6  5  1  6
  6  7  1  0
  7  3  1  0
  8 10  1  0
  8  6  1  0
  9  8  2  0
 11 10  1  0
 11 12  1  1
 12 13  1  0
 13 14  2  0
 13 18  1  0
 14 15  1  0
 15 16  2  0
 17 16  1  0
 18 17  2  0
 19 11  1  0
 20 19  2  0
 21 19  1  0
M  END
$$$$
