GAF.pdb
     RDKit          3D

 21 21  0  0  1  0  0  0  0  0999 V2000
    6.9963  -13.0017   19.5828 N   0  0  0  0  0  0  0  0  0  0  0  0
    8.1901  -13.2534   20.3459 C   0  0  0  0  0  0  0  0  0  0  0  0
    8.0103  -14.4552   21.2385 C   0  0  0  0  0  0  0  0  0  0  0  0
    6.9361  -14.6238   21.8433 O   0  0  0  0  0  0  0  0  0  0  0  0
    9.9090  -17.6536   21.8273 C   0  0  0  0  0  0  0  0  0  0  0  0
    8.9944  -16.5352   22.2788 C   0  0  2  0  0  0  0  0  0  0  0  0
    9.0684  -15.3934   21.3874 N   0  0  0  0  0  0  0  0  0  0  0  0
    9.3445  -16.0684   23.6511 C   0  0  0  0  0  0  0  0  0  0  0  0
   10.2747  -15.2350   23.8303 O   0  0  0  0  0  0  0  0  0  0  0  0
    8.6673  -16.5236   24.8122 N   0  0  0  0  0  0  0  0  0  0  0  0
    9.0640  -16.0634   26.1604 C   0  0  1  0  0  0  0  0  0  0  0  0
    7.8764  -15.7062   26.9743 C   0  0  0  0  0  0  0  0  0  0  0  0
    7.4040  -14.3511   26.6292 C   0  0  0  0  0  0  0  0  0  0  0  0
    8.1802  -13.2287   26.9516 C   0  0  0  0  0  0  0  0  0  0  0  0
    7.8063  -11.9427   26.6322 C   0  0  0  0  0  0  0  0  0  0  0  0
    6.6302  -11.7497   25.9737 C   0  0  0  0  0  0  0  0  0  0  0  0
    5.8255  -12.8099   25.6300 C   0  0  0  0  0  0  0  0  0  0  0  0
    6.2151  -14.0896   25.9572 C   0  0  0  0  0  0  0  0  0  0  0  0
    9.8387  -17.1333   26.7865 C   0  0  0  0  0  0  0  0  0  0  0  0
    9.8069  -18.2947   26.3096 O   0  0  0  0  0  0  0  0  0  0  0  0
   10.6269  -16.9088   27.9152 O   0  0  0  0  0  0  0  0  0  0  0  0
  1  2  1  0
  3  2  1  0
  3  4  2  0
  6  5  1  6
  6  7  1  0
  7  3  1  0
  8 10  1  0
  8  6  1  0
  9  8  2  0
 11 10  1  0
 11 12  1  1
 12 13  1  0
 13 14  2  0
 13 18  1  0
 14 15  1  0
 15 16  2  0
 17 16  1  0
 18 17  2  0
 19 11  1  0
 20 19  2  0
 21 19  1  0
M  END
$$$$
