GAF.pdb
     RDKit          3D

 21 21  0  0  1  0  0  0  0  0999 V2000
    8.0918  -14.1622   15.7510 N   0  0  0  0  0  0  0  0  0  0  0  0
    9.3497  -14.7274   16.1620 C   0  0  0  0  0  0  0  0  0  0  0  0
    9.1635  -15.6402   17.3476 C   0  0  0  0  0  0  0  0  0  0  0  0
    8.1322  -15.5572   18.0387 O   0  0  0  0  0  0  0  0  0  0  0  0
   10.9679  -18.7147   18.6058 C   0  0  0  0  0  0  0  0  0  0  0  0
   10.0412  -17.5297   18.7746 C   0  0  2  0  0  0  0  0  0  0  0  0
   10.1665  -16.5940   17.6735 N   0  0  0  0  0  0  0  0  0  0  0  0
   10.3285  -16.7917   20.0380 C   0  0  0  0  0  0  0  0  0  0  0  0
   11.2816  -15.9672   20.0999 O   0  0  0  0  0  0  0  0  0  0  0  0
    9.5640  -16.9684   21.2205 N   0  0  0  0  0  0  0  0  0  0  0  0
    9.8488  -16.1841   22.4413 C   0  0  1  0  0  0  0  0  0  0  0  0
    8.6028  -15.6244   23.0199 C   0  0  0  0  0  0  0  0  0  0  0  0
    8.0024  -14.6414   22.0971 C   0  0  0  0  0  0  0  0  0  0  0  0
    8.5306  -13.3459   22.0032 C   0  0  0  0  0  0  0  0  0  0  0  0
    8.0316  -12.3942   21.1424 C   0  0  0  0  0  0  0  0  0  0  0  0
    6.9779  -12.7236   20.3455 C   0  0  0  0  0  0  0  0  0  0  0  0
    6.4165  -13.9775   20.3914 C   0  0  0  0  0  0  0  0  0  0  0  0
    6.9283  -14.9173   21.2582 C   0  0  0  0  0  0  0  0  0  0  0  0
   10.5290  -17.0652   23.3886 C   0  0  0  0  0  0  0  0  0  0  0  0
   10.4926  -18.3102   23.2272 O   0  0  0  0  0  0  0  0  0  0  0  0
   11.2305  -16.5662   24.4862 O   0  0  0  0  0  0  0  0  0  0  0  0
  1  2  1  0
  3  2  1  0
  3  4  2  0
  6  5  1  6
  6  7  1  0
  7  3  1  0
  8 10  1  0
  8  6  1  0
  9  8  2  0
 11 10  1  0
 11 12  1  1
 12 13  1  0
 13 14  2  0
 13 18  1  0
 14 15  1  0
 15 16  2  0
 17 16  1  0
 18 17  2  0
 19 11  1  0
 20 19  2  0
 21 19  1  0
M  END
$$$$
