GAF.pdb
     RDKit          3D

 21 21  0  0  1  0  0  0  0  0999 V2000
    7.6471  -11.9151   19.1083 N   0  0  0  0  0  0  0  0  0  0  0  0
    8.5758  -12.9760   19.3962 C   0  0  0  0  0  0  0  0  0  0  0  0
    8.0832  -13.8206   20.5440 C   0  0  0  0  0  0  0  0  0  0  0  0
    7.3564  -13.3158   21.4187 O   0  0  0  0  0  0  0  0  0  0  0  0
    8.0522  -17.5436   21.1908 C   0  0  0  0  0  0  0  0  0  0  0  0
    7.9095  -16.0989   21.6193 C   0  0  2  0  0  0  0  0  0  0  0  0
    8.4500  -15.1920   20.6248 N   0  0  0  0  0  0  0  0  0  0  0  0
    8.6173  -15.8421   22.9064 C   0  0  0  0  0  0  0  0  0  0  0  0
    9.8216  -15.4659   22.9153 O   0  0  0  0  0  0  0  0  0  0  0  0
    7.9926  -16.0020   24.1706 N   0  0  0  0  0  0  0  0  0  0  0  0
    8.7393  -15.7803   25.4276 C   0  0  1  0  0  0  0  0  0  0  0  0
    7.8264  -15.3900   26.5299 C   0  0  0  0  0  0  0  0  0  0  0  0
    7.4255  -13.9764   26.3907 C   0  0  0  0  0  0  0  0  0  0  0  0
    8.3986  -12.9760   26.2556 C   0  0  0  0  0  0  0  0  0  0  0  0
    8.0867  -11.6445   26.0954 C   0  0  0  0  0  0  0  0  0  0  0  0
    6.7750  -11.2806   26.0665 C   0  0  0  0  0  0  0  0  0  0  0  0
    5.7750  -12.2152   26.1936 C   0  0  0  0  0  0  0  0  0  0  0  0
    6.1050  -13.5427   26.3530 C   0  0  0  0  0  0  0  0  0  0  0  0
    9.4595  -17.0129   25.7414 C   0  0  0  0  0  0  0  0  0  0  0  0
    9.0851  -18.1040   25.2447 O   0  0  0  0  0  0  0  0  0  0  0  0
   10.5682  -17.0235   26.5878 O   0  0  0  0  0  0  0  0  0  0  0  0
  1  2  1  0
  3  2  1  0
  3  4  2  0
  6  5  1  6
  6  7  1  0
  7  3  1  0
  8 10  1  0
  8  6  1  0
  9  8  2  0
 11 10  1  0
 11 12  1  1
 12 13  1  0
 13 14  2  0
 13 18  1  0
 14 15  1  0
 15 16  2  0
 17 16  1  0
 18 17  2  0
 19 11  1  0
 20 19  2  0
 21 19  1  0
M  END
$$$$
