GAF.pdb
     RDKit          3D

 21 21  0  0  1  0  0  0  0  0999 V2000
    8.0518  -12.5654   18.4706 N   0  0  0  0  0  0  0  0  0  0  0  0
    8.2602  -13.9774   18.6535 C   0  0  0  0  0  0  0  0  0  0  0  0
    7.8703  -14.3990   20.0477 C   0  0  0  0  0  0  0  0  0  0  0  0
    7.8179  -13.5541   20.9596 O   0  0  0  0  0  0  0  0  0  0  0  0
    6.6111  -17.6525   21.5521 C   0  0  0  0  0  0  0  0  0  0  0  0
    7.1282  -16.2314   21.6188 C   0  0  2  0  0  0  0  0  0  0  0  0
    7.5634  -15.7609   20.3177 N   0  0  0  0  0  0  0  0  0  0  0  0
    8.2819  -16.1172   22.5567 C   0  0  0  0  0  0  0  0  0  0  0  0
    9.4560  -16.3649   22.1667 O   0  0  0  0  0  0  0  0  0  0  0  0
    8.1317  -15.7315   23.9141 N   0  0  0  0  0  0  0  0  0  0  0  0
    9.3078  -15.5199   24.7850 C   0  0  1  0  0  0  0  0  0  0  0  0
    9.5471  -14.0746   25.0185 C   0  0  0  0  0  0  0  0  0  0  0  0
    8.3564  -13.4465   25.6238 C   0  0  0  0  0  0  0  0  0  0  0  0
    7.2715  -13.0682   24.8202 C   0  0  0  0  0  0  0  0  0  0  0  0
    6.1236  -12.5033   25.3291 C   0  0  0  0  0  0  0  0  0  0  0  0
    6.0358  -12.3022   26.6729 C   0  0  0  0  0  0  0  0  0  0  0  0
    7.0659  -12.6523   27.5130 C   0  0  0  0  0  0  0  0  0  0  0  0
    8.2069  -13.2163   26.9869 C   0  0  0  0  0  0  0  0  0  0  0  0
    9.0674  -16.2311   26.0393 C   0  0  0  0  0  0  0  0  0  0  0  0
    9.9452  -16.2366   26.9374 O   0  0  0  0  0  0  0  0  0  0  0  0
    7.8771  -16.9171   26.2810 O   0  0  0  0  0  0  0  0  0  0  0  0
  1  2  1  0
  3  2  1  0
  3  4  2  0
  6  5  1  6
  6  7  1  0
  7  3  1  0
  8 10  1  0
  8  6  1  0
  9  8  2  0
 11 10  1  0
 11 12  1  1
 12 13  1  0
 13 14  2  0
 13 18  1  0
 14 15  1  0
 15 16  2  0
 17 16  1  0
 18 17  2  0
 19 11  1  0
 20 19  2  0
 21 19  1  0
M  END
$$$$
