GAF.pdb
     RDKit          3D

 21 21  0  0  1  0  0  0  0  0999 V2000
    7.9491  -12.3862   18.8198 N   0  0  0  0  0  0  0  0  0  0  0  0
    8.0513  -13.8173   18.9299 C   0  0  0  0  0  0  0  0  0  0  0  0
    7.6595  -14.2762   20.3116 C   0  0  0  0  0  0  0  0  0  0  0  0
    7.6455  -13.4644   21.2545 O   0  0  0  0  0  0  0  0  0  0  0  0
    6.1386  -17.4841   21.6424 C   0  0  0  0  0  0  0  0  0  0  0  0
    6.7747  -16.1190   21.7944 C   0  0  2  0  0  0  0  0  0  0  0  0
    7.3067  -15.6356   20.5347 N   0  0  0  0  0  0  0  0  0  0  0  0
    7.8912  -16.1475   22.7824 C   0  0  0  0  0  0  0  0  0  0  0  0
    9.0487  -16.5114   22.4361 O   0  0  0  0  0  0  0  0  0  0  0  0
    7.7226  -15.7754   24.1415 N   0  0  0  0  0  0  0  0  0  0  0  0
    8.8392  -15.8713   25.1062 C   0  0  1  0  0  0  0  0  0  0  0  0
    9.3370  -14.5257   25.4833 C   0  0  0  0  0  0  0  0  0  0  0  0
    8.2210  -13.6708   25.9329 C   0  0  0  0  0  0  0  0  0  0  0  0
    7.4672  -12.9442   25.0002 C   0  0  0  0  0  0  0  0  0  0  0  0
    6.3987  -12.1517   25.3552 C   0  0  0  0  0  0  0  0  0  0  0  0
    6.0568  -12.0684   26.6705 C   0  0  0  0  0  0  0  0  0  0  0  0
    6.7571  -12.7571   27.6321 C   0  0  0  0  0  0  0  0  0  0  0  0
    7.8231  -13.5452   27.2593 C   0  0  0  0  0  0  0  0  0  0  0  0
    8.3581  -16.6092   26.2727 C   0  0  0  0  0  0  0  0  0  0  0  0
    7.1449  -16.9208   26.3634 O   0  0  0  0  0  0  0  0  0  0  0  0
    9.2119  -16.9876   27.3088 O   0  0  0  0  0  0  0  0  0  0  0  0
  1  2  1  0
  3  2  1  0
  3  4  2  0
  6  5  1  6
  6  7  1  0
  7  3  1  0
  8 10  1  0
  8  6  1  0
  9  8  2  0
 11 10  1  0
 11 12  1  1
 12 13  1  0
 13 14  2  0
 13 18  1  0
 14 15  1  0
 15 16  2  0
 17 16  1  0
 18 17  2  0
 19 11  1  0
 20 19  2  0
 21 19  1  0
M  END
$$$$
