GAF.pdb
     RDKit          3D

 21 21  0  0  1  0  0  0  0  0999 V2000
    5.0479  -19.4204   21.6779 N   0  0  0  0  0  0  0  0  0  0  0  0
    5.0397  -18.0469   22.1072 C   0  0  0  0  0  0  0  0  0  0  0  0
    6.3481  -17.3753   21.7750 C   0  0  0  0  0  0  0  0  0  0  0  0
    7.3340  -18.0624   21.4527 O   0  0  0  0  0  0  0  0  0  0  0  0
    7.4705  -13.8287   21.1690 C   0  0  0  0  0  0  0  0  0  0  0  0
    7.7032  -15.2488   21.6387 C   0  0  2  0  0  0  0  0  0  0  0  0
    6.4529  -15.9583   21.8307 N   0  0  0  0  0  0  0  0  0  0  0  0
    8.4495  -15.2782   22.9293 C   0  0  0  0  0  0  0  0  0  0  0  0
    9.6379  -14.8596   22.9959 O   0  0  0  0  0  0  0  0  0  0  0  0
    7.8804  -15.7678   24.1336 N   0  0  0  0  0  0  0  0  0  0  0  0
    8.5917  -15.6418   25.4238 C   0  0  1  0  0  0  0  0  0  0  0  0
    7.6499  -15.3227   26.5247 C   0  0  0  0  0  0  0  0  0  0  0  0
    7.2490  -13.9036   26.4645 C   0  0  0  0  0  0  0  0  0  0  0  0
    5.8991  -13.5566   26.3112 C   0  0  0  0  0  0  0  0  0  0  0  0
    5.4605  -12.2519   26.2753 C   0  0  0  0  0  0  0  0  0  0  0  0
    6.3771  -11.2520   26.3939 C   0  0  0  0  0  0  0  0  0  0  0  0
    7.7150  -11.5285   26.5469 C   0  0  0  0  0  0  0  0  0  0  0  0
    8.1361  -12.8392   26.5807 C   0  0  0  0  0  0  0  0  0  0  0  0
    9.2947  -16.8996   25.6699 C   0  0  0  0  0  0  0  0  0  0  0  0
   10.0100  -17.0304   26.6938 O   0  0  0  0  0  0  0  0  0  0  0  0
    9.1992  -17.9808   24.7937 O   0  0  0  0  0  0  0  0  0  0  0  0
  1  2  1  0
  3  2  1  0
  3  4  2  0
  6  5  1  1
  6  7  1  0
  7  3  1  0
  8 10  1  0
  8  6  1  0
  9  8  2  0
 11 10  1  0
 11 12  1  1
 12 13  1  0
 13 14  2  0
 13 18  1  0
 14 15  1  0
 15 16  2  0
 17 16  1  0
 18 17  2  0
 19 11  1  0
 20 19  2  0
 21 19  1  0
M  END
$$$$
