GAF.pdb
     RDKit          3D

 21 21  0  0  1  0  0  0  0  0999 V2000
    7.3642  -12.5383   18.7286 N   0  0  0  0  0  0  0  0  0  0  0  0
    8.4874  -12.8825   19.5597 C   0  0  0  0  0  0  0  0  0  0  0  0
    8.1345  -14.0120   20.4941 C   0  0  0  0  0  0  0  0  0  0  0  0
    6.9533  -14.1788   20.8477 O   0  0  0  0  0  0  0  0  0  0  0  0
    9.5969  -17.2805   21.2316 C   0  0  0  0  0  0  0  0  0  0  0  0
    8.8750  -16.0629   21.7679 C   0  0  2  0  0  0  0  0  0  0  0  0
    9.1520  -14.8843   20.9693 N   0  0  0  0  0  0  0  0  0  0  0  0
    9.2771  -15.7689   23.1734 C   0  0  0  0  0  0  0  0  0  0  0  0
   10.3687  -15.1875   23.4229 O   0  0  0  0  0  0  0  0  0  0  0  0
    8.4737  -16.1177   24.2900 N   0  0  0  0  0  0  0  0  0  0  0  0
    8.9042  -15.8073   25.6703 C   0  0  1  0  0  0  0  0  0  0  0  0
    7.7427  -15.4706   26.5295 C   0  0  0  0  0  0  0  0  0  0  0  0
    7.4110  -14.0375   26.4090 C   0  0  0  0  0  0  0  0  0  0  0  0
    6.0942  -13.6370   26.1414 C   0  0  0  0  0  0  0  0  0  0  0  0
    5.7181  -12.3161   26.0445 C   0  0  0  0  0  0  0  0  0  0  0  0
    6.6658  -11.3536   26.2159 C   0  0  0  0  0  0  0  0  0  0  0  0
    7.9739  -11.6831   26.4807 C   0  0  0  0  0  0  0  0  0  0  0  0
    8.3325  -13.0094   26.5744 C   0  0  0  0  0  0  0  0  0  0  0  0
    9.6291  -16.9686   26.1828 C   0  0  0  0  0  0  0  0  0  0  0  0
   10.2139  -16.9053   27.2924 O   0  0  0  0  0  0  0  0  0  0  0  0
    9.6973  -18.1671   25.4725 O   0  0  0  0  0  0  0  0  0  0  0  0
  1  2  1  0
  3  2  1  0
  3  4  2  0
  6  5  1  6
  6  7  1  0
  7  3  1  0
  8 10  1  0
  8  6  1  0
  9  8  2  0
 11 10  1  0
 11 12  1  1
 12 13  1  0
 13 14  2  0
 13 18  1  0
 14 15  1  0
 15 16  2  0
 17 16  1  0
 18 17  2  0
 19 11  1  0
 20 19  2  0
 21 19  1  0
M  END
$$$$
