GAF.pdb
     RDKit          3D

 21 21  0  0  1  0  0  0  0  0999 V2000
    6.1786  -19.1469   20.6011 N   0  0  0  0  0  0  0  0  0  0  0  0
    5.8889  -17.8629   21.1826 C   0  0  0  0  0  0  0  0  0  0  0  0
    7.0596  -16.9266   21.0205 C   0  0  0  0  0  0  0  0  0  0  0  0
    8.1577  -17.3668   20.6353 O   0  0  0  0  0  0  0  0  0  0  0  0
    7.5442  -13.1900   21.0476 C   0  0  0  0  0  0  0  0  0  0  0  0
    8.0140  -14.6059   21.3043 C   0  0  2  0  0  0  0  0  0  0  0  0
    6.9065  -15.5424   21.3082 N   0  0  0  0  0  0  0  0  0  0  0  0
    8.7121  -14.7164   22.6173 C   0  0  0  0  0  0  0  0  0  0  0  0
    9.8489  -14.1961   22.7882 O   0  0  0  0  0  0  0  0  0  0  0  0
    8.1522  -15.3983   23.7288 N   0  0  0  0  0  0  0  0  0  0  0  0
    8.8453  -15.4331   25.0346 C   0  0  1  0  0  0  0  0  0  0  0  0
    7.8766  -15.3634   26.1560 C   0  0  0  0  0  0  0  0  0  0  0  0
    7.3792  -13.9838   26.3220 C   0  0  0  0  0  0  0  0  0  0  0  0
    8.2806  -12.9232   26.4918 C   0  0  0  0  0  0  0  0  0  0  0  0
    7.8791  -11.6129   26.6245 C   0  0  0  0  0  0  0  0  0  0  0  0
    6.5473  -11.3320   26.5896 C   0  0  0  0  0  0  0  0  0  0  0  0
    5.6145  -12.3284   26.4257 C   0  0  0  0  0  0  0  0  0  0  0  0
    6.0338  -13.6335   26.2943 C   0  0  0  0  0  0  0  0  0  0  0  0
    9.6357  -16.6616   25.0870 C   0  0  0  0  0  0  0  0  0  0  0  0
   10.3431  -16.9118   26.0941 O   0  0  0  0  0  0  0  0  0  0  0  0
    9.6341  -17.5841   24.0407 O   0  0  0  0  0  0  0  0  0  0  0  0
  1  2  1  0
  3  2  1  0
  3  4  2  0
  6  5  1  1
  6  7  1  0
  7  3  1  0
  8 10  1  0
  8  6  1  0
  9  8  2  0
 11 10  1  0
 11 12  1  1
 12 13  1  0
 13 14  2  0
 13 18  1  0
 14 15  1  0
 15 16  2  0
 17 16  1  0
 18 17  2  0
 19 11  1  0
 20 19  2  0
 21 19  1  0
M  END
$$$$
