SLP.pdb
     RDKit          3D

 22 22  0  0  1  0  0  0  0  0999 V2000
    7.1515  -17.7834   20.6824 O   0  0  0  0  0  0  0  0  0  0  0  0
    6.0661  -16.8904   20.6913 C   0  0  0  0  0  0  0  0  0  0  0  0
    6.6442  -15.5150   20.6963 C   0  0  2  0  0  0  0  0  0  0  0  0
    7.4046  -15.3615   19.4666 N   0  0  0  0  0  0  0  0  0  0  0  0
    7.4601  -15.1835   21.8759 C   0  0  0  0  0  0  0  0  0  0  0  0
    8.7054  -15.1526   21.7565 O   0  0  0  0  0  0  0  0  0  0  0  0
    8.0827  -13.4936   27.1133 C   0  0  0  0  0  0  0  0  0  0  0  0
    7.4524  -12.6859   25.9616 C   0  0  2  0  0  0  0  0  0  0  0  0
    6.5681  -11.6661   26.5869 C   0  0  0  0  0  0  0  0  0  0  0  0
    6.7756  -13.6790   25.1058 C   0  0  0  0  0  0  0  0  0  0  0  0
    7.6881  -14.5494   24.2461 C   0  0  2  0  0  0  0  0  0  0  0  0
    6.8557  -14.9013   23.1229 N   0  0  0  0  0  0  0  0  0  0  0  0
    8.3324  -15.5984   24.9551 C   0  0  0  0  0  0  0  0  0  0  0  0
    7.6371  -16.3361   25.7305 O   0  0  0  0  0  0  0  0  0  0  0  0
    9.7313  -15.9333   24.8921 N   0  0  0  0  0  0  0  0  0  0  0  0
   10.7767  -15.2617   24.1997 C   0  0  0  0  0  0  0  0  0  0  0  0
   12.0552  -15.6161   24.9154 C   0  0  0  0  0  0  0  0  0  0  0  0
   11.7517  -17.0924   25.2216 C   0  0  0  0  0  0  0  0  0  0  0  0
   10.3162  -17.0814   25.5896 C   0  0  1  0  0  0  0  0  0  0  0  0
   10.0720  -17.0102   27.0448 C   0  0  0  0  0  0  0  0  0  0  0  0
   10.1498  -18.1030   27.8617 O   0  0  0  0  0  0  0  0  0  0  0  0
    9.7811  -15.8938   27.5413 O   0  0  0  0  0  0  0  0  0  0  0  0
  1  2  1  0
  2  3  1  0
  3  4  1  6
  3  5  1  0
  5  6  2  0
  8  7  1  1
  9  8  1  0
 11 10  1  1
 10  8  1  0
 11 13  1  0
 12  5  1  0
 12 11  1  0
 13 15  1  0
 14 13  2  0
 15 19  1  0
 15 16  1  0
 16 17  1  0
 18 17  1  0
 19 20  1  1
 19 18  1  0
 20 22  2  0
 20 21  1  0
M  END
$$$$
