SLP.pdb
     RDKit          3D

 22 22  0  0  1  0  0  0  0  0999 V2000
    9.9318  -18.0532   22.4038 O   0  0  0  0  0  0  0  0  0  0  0  0
    8.9820  -17.5605   21.4924 C   0  0  0  0  0  0  0  0  0  0  0  0
    9.2055  -16.0886   21.3959 C   0  0  2  0  0  0  0  0  0  0  0  0
   10.3854  -15.8839   20.5713 N   0  0  0  0  0  0  0  0  0  0  0  0
    9.3246  -15.3880   22.6852 C   0  0  0  0  0  0  0  0  0  0  0  0
   10.4655  -15.0934   23.1065 O   0  0  0  0  0  0  0  0  0  0  0  0
    5.3598  -13.0034   26.6207 C   0  0  0  0  0  0  0  0  0  0  0  0
    6.8639  -13.1254   26.3063 C   0  0  2  0  0  0  0  0  0  0  0  0
    7.3829  -11.7401   26.1493 C   0  0  0  0  0  0  0  0  0  0  0  0
    6.9493  -13.9787   25.1057 C   0  0  0  0  0  0  0  0  0  0  0  0
    8.3374  -14.5156   24.7675 C   0  0  2  0  0  0  0  0  0  0  0  0
    8.1764  -15.0483   23.4376 N   0  0  0  0  0  0  0  0  0  0  0  0
    8.8951  -15.3614   25.7633 C   0  0  0  0  0  0  0  0  0  0  0  0
    8.5639  -16.5939   25.7813 O   0  0  0  0  0  0  0  0  0  0  0  0
    9.8259  -14.9682   26.7890 N   0  0  0  0  0  0  0  0  0  0  0  0
   10.2565  -13.6603   27.1458 C   0  0  0  0  0  0  0  0  0  0  0  0
   10.7083  -13.7397   28.5818 C   0  0  0  0  0  0  0  0  0  0  0  0
   11.3935  -15.1159   28.5368 C   0  0  0  0  0  0  0  0  0  0  0  0
   10.4947  -15.9221   27.6776 C   0  0  1  0  0  0  0  0  0  0  0  0
    9.5172  -16.7347   28.4304 C   0  0  0  0  0  0  0  0  0  0  0  0
    9.8853  -17.7783   29.2322 O   0  0  0  0  0  0  0  0  0  0  0  0
    8.2999  -16.4457   28.3213 O   0  0  0  0  0  0  0  0  0  0  0  0
  1  2  1  0
  2  3  1  0
  3  4  1  6
  3  5  1  0
  5  6  2  0
  8  7  1  6
  9  8  1  0
 11 10  1  1
 10  8  1  0
 11 13  1  0
 12  5  1  0
 12 11  1  0
 13 15  1  0
 14 13  2  0
 15 19  1  0
 15 16  1  0
 16 17  1  0
 18 17  1  0
 19 20  1  1
 19 18  1  0
 20 22  2  0
 20 21  1  0
M  END
$$$$
