SLP.pdb
     RDKit          3D

 22 22  0  0  1  0  0  0  0  0999 V2000
    7.0903  -20.5644   24.1562 O   0  0  0  0  0  0  0  0  0  0  0  0
    5.9616  -20.1614   24.8905 C   0  0  0  0  0  0  0  0  0  0  0  0
    5.3022  -19.0802   24.1018 C   0  0  2  0  0  0  0  0  0  0  0  0
    4.9533  -19.6415   22.8068 N   0  0  0  0  0  0  0  0  0  0  0  0
    6.0880  -17.8439   23.9561 C   0  0  0  0  0  0  0  0  0  0  0  0
    6.6232  -17.5981   22.8519 O   0  0  0  0  0  0  0  0  0  0  0  0
    8.3059  -13.4801   27.0428 C   0  0  0  0  0  0  0  0  0  0  0  0
    7.2340  -13.4985   25.9353 C   0  0  2  0  0  0  0  0  0  0  0  0
    6.2971  -12.3803   26.2268 C   0  0  0  0  0  0  0  0  0  0  0  0
    6.6458  -14.8510   25.9762 C   0  0  0  0  0  0  0  0  0  0  0  0
    7.1290  -15.8202   24.9008 C   0  0  2  0  0  0  0  0  0  0  0  0
    6.2374  -16.9448   25.0373 N   0  0  0  0  0  0  0  0  0  0  0  0
    8.5275  -16.0691   24.9245 C   0  0  0  0  0  0  0  0  0  0  0  0
    9.0501  -16.5493   25.9853 O   0  0  0  0  0  0  0  0  0  0  0  0
    9.4517  -15.8325   23.8461 N   0  0  0  0  0  0  0  0  0  0  0  0
    9.2614  -15.0655   22.6634 C   0  0  0  0  0  0  0  0  0  0  0  0
   10.6347  -14.6442   22.2060 C   0  0  0  0  0  0  0  0  0  0  0  0
   11.3978  -15.9399   22.5289 C   0  0  0  0  0  0  0  0  0  0  0  0
   10.8133  -16.3731   23.8199 C   0  0  1  0  0  0  0  0  0  0  0  0
   11.5875  -15.9424   25.0020 C   0  0  0  0  0  0  0  0  0  0  0  0
   12.8224  -16.4460   25.3003 O   0  0  0  0  0  0  0  0  0  0  0  0
   11.0800  -15.0770   25.7576 O   0  0  0  0  0  0  0  0  0  0  0  0
  1  2  1  0
  2  3  1  0
  3  4  1  6
  3  5  1  0
  5  6  2  0
  8  7  1  1
  9  8  1  0
 11 10  1  1
 10  8  1  0
 11 13  1  0
 12  5  1  0
 12 11  1  0
 13 15  1  0
 14 13  2  0
 15 19  1  0
 15 16  1  0
 16 17  1  0
 18 17  1  0
 19 20  1  1
 19 18  1  0
 20 22  2  0
 20 21  1  0
M  END
$$$$
