SLP.pdb
     RDKit          3D

 22 22  0  0  1  0  0  0  0  0999 V2000
   10.3506  -18.1210   22.2822 O   0  0  0  0  0  0  0  0  0  0  0  0
    9.1797  -17.6772   21.6439 C   0  0  0  0  0  0  0  0  0  0  0  0
    9.3183  -16.2014   21.4744 C   0  0  2  0  0  0  0  0  0  0  0  0
   10.4510  -15.9723   20.5922 N   0  0  0  0  0  0  0  0  0  0  0  0
    9.4504  -15.4375   22.7259 C   0  0  0  0  0  0  0  0  0  0  0  0
   10.5943  -15.1060   23.1102 O   0  0  0  0  0  0  0  0  0  0  0  0
    5.5476  -12.8823   26.6118 C   0  0  0  0  0  0  0  0  0  0  0  0
    7.0465  -13.0308   26.2844 C   0  0  2  0  0  0  0  0  0  0  0  0
    7.5742  -11.6582   26.0595 C   0  0  0  0  0  0  0  0  0  0  0  0
    7.1098  -13.9373   25.1220 C   0  0  0  0  0  0  0  0  0  0  0  0
    8.4885  -14.5032   24.7931 C   0  0  2  0  0  0  0  0  0  0  0  0
    8.3114  -15.0789   23.4833 N   0  0  0  0  0  0  0  0  0  0  0  0
    9.0426  -15.3216   25.8136 C   0  0  0  0  0  0  0  0  0  0  0  0
    8.8078  -16.5760   25.7930 O   0  0  0  0  0  0  0  0  0  0  0  0
    9.8694  -14.8768   26.9052 N   0  0  0  0  0  0  0  0  0  0  0  0
   10.1337  -13.5475   27.3368 C   0  0  0  0  0  0  0  0  0  0  0  0
   10.5158  -13.6424   28.7920 C   0  0  0  0  0  0  0  0  0  0  0  0
   11.3502  -14.9330   28.7323 C   0  0  0  0  0  0  0  0  0  0  0  0
   10.5920  -15.7920   27.7924 C   0  0  1  0  0  0  0  0  0  0  0  0
    9.6721  -16.7386   28.4560 C   0  0  0  0  0  0  0  0  0  0  0  0
   10.1112  -17.7868   29.2148 O   0  0  0  0  0  0  0  0  0  0  0  0
    8.4371  -16.5634   28.3096 O   0  0  0  0  0  0  0  0  0  0  0  0
  1  2  1  0
  2  3  1  0
  3  4  1  6
  3  5  1  0
  5  6  2  0
  8  7  1  6
  9  8  1  0
 11 10  1  1
 10  8  1  0
 11 13  1  0
 12  5  1  0
 12 11  1  0
 13 15  1  0
 14 13  2  0
 15 19  1  0
 15 16  1  0
 16 17  1  0
 18 17  1  0
 19 20  1  1
 19 18  1  0
 20 22  2  0
 20 21  1  0
M  END
$$$$
