SLP.pdb
     RDKit          3D

 22 22  0  0  1  0  0  0  0  0999 V2000
   10.3117  -18.0693   22.3164 O   0  0  0  0  0  0  0  0  0  0  0  0
    9.2017  -17.6555   21.5599 C   0  0  0  0  0  0  0  0  0  0  0  0
    9.3270  -16.1786   21.3897 C   0  0  2  0  0  0  0  0  0  0  0  0
   10.4633  -15.9395   20.5148 N   0  0  0  0  0  0  0  0  0  0  0  0
    9.4433  -15.4122   22.6411 C   0  0  0  0  0  0  0  0  0  0  0  0
   10.5715  -14.9988   22.9906 O   0  0  0  0  0  0  0  0  0  0  0  0
    5.5269  -13.0258   26.5819 C   0  0  0  0  0  0  0  0  0  0  0  0
    7.0270  -13.0732   26.2302 C   0  0  2  0  0  0  0  0  0  0  0  0
    7.4823  -11.6627   26.1028 C   0  0  0  0  0  0  0  0  0  0  0  0
    7.1203  -13.8873   25.0033 C   0  0  0  0  0  0  0  0  0  0  0  0
    8.4802  -14.5229   24.7276 C   0  0  2  0  0  0  0  0  0  0  0  0
    8.3062  -15.1415   23.4371 N   0  0  0  0  0  0  0  0  0  0  0  0
    8.9773  -15.3232   25.7909 C   0  0  0  0  0  0  0  0  0  0  0  0
    8.6530  -16.5568   25.8375 O   0  0  0  0  0  0  0  0  0  0  0  0
    9.8372  -14.8811   26.8578 N   0  0  0  0  0  0  0  0  0  0  0  0
   10.1475  -13.5517   27.2575 C   0  0  0  0  0  0  0  0  0  0  0  0
   10.5545  -13.6291   28.7070 C   0  0  0  0  0  0  0  0  0  0  0  0
   11.3506  -14.9441   28.6577 C   0  0  0  0  0  0  0  0  0  0  0  0
   10.5504  -15.7991   27.7496 C   0  0  1  0  0  0  0  0  0  0  0  0
    9.6169  -16.7057   28.4491 C   0  0  0  0  0  0  0  0  0  0  0  0
   10.0407  -17.7337   29.2434 O   0  0  0  0  0  0  0  0  0  0  0  0
    8.3845  -16.5146   28.3002 O   0  0  0  0  0  0  0  0  0  0  0  0
  1  2  1  0
  2  3  1  0
  3  4  1  6
  3  5  1  0
  5  6  2  0
  8  7  1  6
  9  8  1  0
 11 10  1  1
 10  8  1  0
 11 13  1  0
 12  5  1  0
 12 11  1  0
 13 15  1  0
 14 13  2  0
 15 19  1  0
 15 16  1  0
 16 17  1  0
 18 17  1  0
 19 20  1  1
 19 18  1  0
 20 22  2  0
 20 21  1  0
M  END
$$$$
