SLP.pdb
     RDKit          3D

 22 22  0  0  1  0  0  0  0  0999 V2000
    8.3401  -19.8690   24.9973 O   0  0  0  0  0  0  0  0  0  0  0  0
    7.1697  -20.3832   24.4131 C   0  0  0  0  0  0  0  0  0  0  0  0
    6.0371  -19.5611   24.9300 C   0  0  2  0  0  0  0  0  0  0  0  0
    4.8056  -20.2060   24.5042 N   0  0  0  0  0  0  0  0  0  0  0  0
    6.0631  -18.1427   24.5369 C   0  0  0  0  0  0  0  0  0  0  0  0
    5.7069  -17.8332   23.3778 O   0  0  0  0  0  0  0  0  0  0  0  0
    8.2157  -13.0889   26.9124 C   0  0  0  0  0  0  0  0  0  0  0  0
    7.0594  -13.5314   25.9941 C   0  0  2  0  0  0  0  0  0  0  0  0
    5.8776  -12.7079   26.3656 C   0  0  0  0  0  0  0  0  0  0  0  0
    6.9177  -14.9843   26.2082 C   0  0  0  0  0  0  0  0  0  0  0  0
    6.8344  -15.8385   24.9462 C   0  0  2  0  0  0  0  0  0  0  0  0
    6.4783  -17.1428   25.4466 N   0  0  0  0  0  0  0  0  0  0  0  0
    7.9673  -15.7354   24.0953 C   0  0  0  0  0  0  0  0  0  0  0  0
    9.0413  -16.3425   24.4227 O   0  0  0  0  0  0  0  0  0  0  0  0
    8.0395  -14.9974   22.8612 N   0  0  0  0  0  0  0  0  0  0  0  0
    7.1650  -13.9852   22.3774 C   0  0  0  0  0  0  0  0  0  0  0  0
    7.9718  -13.1533   21.4132 C   0  0  0  0  0  0  0  0  0  0  0  0
    8.7750  -14.2816   20.7444 C   0  0  0  0  0  0  0  0  0  0  0  0
    9.1019  -15.1879   21.8704 C   0  0  1  0  0  0  0  0  0  0  0  0
   10.4366  -14.9540   22.4589 C   0  0  0  0  0  0  0  0  0  0  0  0
   11.5962  -15.1548   21.7642 O   0  0  0  0  0  0  0  0  0  0  0  0
   10.4963  -14.5543   23.6480 O   0  0  0  0  0  0  0  0  0  0  0  0
  1  2  1  0
  2  3  1  0
  3  4  1  6
  3  5  1  0
  5  6  2  0
  8  7  1  1
  9  8  1  0
 11 10  1  1
 10  8  1  0
 11 13  1  0
 12  5  1  0
 12 11  1  0
 13 15  1  0
 14 13  2  0
 15 19  1  0
 15 16  1  0
 16 17  1  0
 18 17  1  0
 19 20  1  1
 19 18  1  0
 20 22  2  0
 20 21  1  0
M  END
$$$$
