SLP.pdb
     RDKit          3D

 22 22  0  0  1  0  0  0  0  0999 V2000
   10.3035  -18.1665   22.2113 O   0  0  0  0  0  0  0  0  0  0  0  0
    9.2167  -17.6492   21.4855 C   0  0  0  0  0  0  0  0  0  0  0  0
    9.4318  -16.1762   21.3854 C   0  0  2  0  0  0  0  0  0  0  0  0
   10.6165  -15.9671   20.5691 N   0  0  0  0  0  0  0  0  0  0  0  0
    9.5366  -15.4703   22.6730 C   0  0  0  0  0  0  0  0  0  0  0  0
   10.6688  -15.1254   23.0795 O   0  0  0  0  0  0  0  0  0  0  0  0
    6.0786  -14.0797   26.9796 C   0  0  0  0  0  0  0  0  0  0  0  0
    7.0155  -13.1334   26.2031 C   0  0  2  0  0  0  0  0  0  0  0  0
    6.3516  -11.8025   26.1731 C   0  0  0  0  0  0  0  0  0  0  0  0
    7.2238  -13.7725   24.8897 C   0  0  0  0  0  0  0  0  0  0  0  0
    8.5341  -14.5367   24.7212 C   0  0  2  0  0  0  0  0  0  0  0  0
    8.3844  -15.1812   23.4404 N   0  0  0  0  0  0  0  0  0  0  0  0
    8.8888  -15.3412   25.8370 C   0  0  0  0  0  0  0  0  0  0  0  0
    8.3894  -16.5116   25.9365 O   0  0  0  0  0  0  0  0  0  0  0  0
    9.7812  -14.9695   26.9040 N   0  0  0  0  0  0  0  0  0  0  0  0
   10.1648  -13.6678   27.3302 C   0  0  0  0  0  0  0  0  0  0  0  0
   10.5815  -13.7999   28.7730 C   0  0  0  0  0  0  0  0  0  0  0  0
   11.3069  -15.1532   28.6851 C   0  0  0  0  0  0  0  0  0  0  0  0
   10.4539  -15.9440   27.7669 C   0  0  1  0  0  0  0  0  0  0  0  0
    9.4811  -16.8164   28.4560 C   0  0  0  0  0  0  0  0  0  0  0  0
    9.8568  -17.9003   29.1987 O   0  0  0  0  0  0  0  0  0  0  0  0
    8.2604  -16.5414   28.3478 O   0  0  0  0  0  0  0  0  0  0  0  0
  1  2  1  0
  2  3  1  0
  3  4  1  6
  3  5  1  0
  5  6  2  0
  8  7  1  1
  9  8  1  0
 11 10  1  1
 10  8  1  0
 11 13  1  0
 12  5  1  0
 12 11  1  0
 13 15  1  0
 14 13  2  0
 15 19  1  0
 15 16  1  0
 16 17  1  0
 18 17  1  0
 19 20  1  1
 19 18  1  0
 20 22  2  0
 20 21  1  0
M  END
$$$$
