SLP.pdb
     RDKit          3D

 22 22  0  0  1  0  0  0  0  0999 V2000
    6.9804  -21.3711   24.2090 O   0  0  0  0  0  0  0  0  0  0  0  0
    7.2510  -20.0382   24.5635 C   0  0  0  0  0  0  0  0  0  0  0  0
    5.9307  -19.3676   24.7449 C   0  0  2  0  0  0  0  0  0  0  0  0
    4.9680  -20.0784   23.9192 N   0  0  0  0  0  0  0  0  0  0  0  0
    5.9181  -17.9233   24.4602 C   0  0  0  0  0  0  0  0  0  0  0  0
    5.3907  -17.5243   23.3978 O   0  0  0  0  0  0  0  0  0  0  0  0
    8.3723  -13.0670   27.0142 C   0  0  0  0  0  0  0  0  0  0  0  0
    7.2945  -13.4383   25.9766 C   0  0  2  0  0  0  0  0  0  0  0  0
    6.1311  -12.5462   26.2289 C   0  0  0  0  0  0  0  0  0  0  0  0
    7.0453  -14.8805   26.1636 C   0  0  0  0  0  0  0  0  0  0  0  0
    6.8949  -15.7015   24.8859 C   0  0  2  0  0  0  0  0  0  0  0  0
    6.4863  -16.9980   25.3661 N   0  0  0  0  0  0  0  0  0  0  0  0
    8.0138  -15.6342   24.0132 C   0  0  0  0  0  0  0  0  0  0  0  0
    9.0835  -16.2522   24.3337 O   0  0  0  0  0  0  0  0  0  0  0  0
    8.0757  -14.9221   22.7633 N   0  0  0  0  0  0  0  0  0  0  0  0
    7.1945  -13.9235   22.2636 C   0  0  0  0  0  0  0  0  0  0  0  0
    7.9923  -13.1094   21.2771 C   0  0  0  0  0  0  0  0  0  0  0  0
    8.7956  -14.2487   20.6274 C   0  0  0  0  0  0  0  0  0  0  0  0
    9.1328  -15.1298   21.7702 C   0  0  1  0  0  0  0  0  0  0  0  0
   10.4702  -14.8787   22.3453 C   0  0  0  0  0  0  0  0  0  0  0  0
   11.6275  -15.1570   21.6741 O   0  0  0  0  0  0  0  0  0  0  0  0
   10.5344  -14.3891   23.5001 O   0  0  0  0  0  0  0  0  0  0  0  0
  1  2  1  0
  2  3  1  0
  3  4  1  6
  3  5  1  0
  5  6  2  0
  8  7  1  1
  9  8  1  0
 11 10  1  1
 10  8  1  0
 11 13  1  0
 12  5  1  0
 12 11  1  0
 13 15  1  0
 14 13  2  0
 15 19  1  0
 15 16  1  0
 16 17  1  0
 18 17  1  0
 19 20  1  1
 19 18  1  0
 20 22  2  0
 20 21  1  0
M  END
$$$$
