SLP.pdb
     RDKit          3D

 22 22  0  0  1  0  0  0  0  0999 V2000
    7.7366  -19.8235   23.5914 O   0  0  0  0  0  0  0  0  0  0  0  0
    6.9480  -20.3000   24.6528 C   0  0  0  0  0  0  0  0  0  0  0  0
    5.7715  -19.3881   24.7542 C   0  0  2  0  0  0  0  0  0  0  0  0
    4.6941  -19.9854   23.9819 N   0  0  0  0  0  0  0  0  0  0  0  0
    6.0203  -17.9974   24.3404 C   0  0  0  0  0  0  0  0  0  0  0  0
    5.6906  -17.6452   23.1858 O   0  0  0  0  0  0  0  0  0  0  0  0
    8.5959  -13.1914   25.9571 C   0  0  0  0  0  0  0  0  0  0  0  0
    7.0800  -13.4497   25.8511 C   0  0  2  0  0  0  0  0  0  0  0  0
    6.4263  -12.5930   26.8767 C   0  0  0  0  0  0  0  0  0  0  0  0
    6.9126  -14.9042   26.0337 C   0  0  0  0  0  0  0  0  0  0  0  0
    6.9175  -15.7406   24.7571 C   0  0  2  0  0  0  0  0  0  0  0  0
    6.6173  -17.0704   25.2259 N   0  0  0  0  0  0  0  0  0  0  0  0
    8.0701  -15.5620   23.9462 C   0  0  0  0  0  0  0  0  0  0  0  0
    9.1769  -16.0707   24.3275 O   0  0  0  0  0  0  0  0  0  0  0  0
    8.1292  -14.8468   22.6979 N   0  0  0  0  0  0  0  0  0  0  0  0
    7.2238  -13.8774   22.1842 C   0  0  0  0  0  0  0  0  0  0  0  0
    8.0105  -13.0362   21.2116 C   0  0  0  0  0  0  0  0  0  0  0  0
    8.8617  -14.1475   20.5747 C   0  0  0  0  0  0  0  0  0  0  0  0
    9.2089  -15.0182   21.7224 C   0  0  1  0  0  0  0  0  0  0  0  0
   10.5275  -14.7236   22.3199 C   0  0  0  0  0  0  0  0  0  0  0  0
   11.7006  -14.8839   21.6375 O   0  0  0  0  0  0  0  0  0  0  0  0
   10.5600  -14.3094   23.5051 O   0  0  0  0  0  0  0  0  0  0  0  0
  1  2  1  0
  2  3  1  0
  3  4  1  6
  3  5  1  0
  5  6  2  0
  8  7  1  1
  9  8  1  0
 11 10  1  1
 10  8  1  0
 11 13  1  0
 12  5  1  0
 12 11  1  0
 13 15  1  0
 14 13  2  0
 15 19  1  0
 15 16  1  0
 16 17  1  0
 18 17  1  0
 19 20  1  1
 19 18  1  0
 20 22  2  0
 20 21  1  0
M  END
$$$$
