SLP.pdb
     RDKit          3D

 22 22  0  0  1  0  0  0  0  0999 V2000
   10.1902  -18.0999   22.2935 O   0  0  0  0  0  0  0  0  0  0  0  0
    9.0407  -17.7329   21.5728 C   0  0  0  0  0  0  0  0  0  0  0  0
    9.1070  -16.2542   21.3862 C   0  0  2  0  0  0  0  0  0  0  0  0
   10.1748  -15.9861   20.4365 N   0  0  0  0  0  0  0  0  0  0  0  0
    9.2812  -15.4746   22.6227 C   0  0  0  0  0  0  0  0  0  0  0  0
   10.4256  -15.0637   22.9185 O   0  0  0  0  0  0  0  0  0  0  0  0
    5.5450  -12.6752   26.4501 C   0  0  0  0  0  0  0  0  0  0  0  0
    7.0317  -12.9327   26.1348 C   0  0  2  0  0  0  0  0  0  0  0  0
    7.6150  -11.6277   25.7230 C   0  0  0  0  0  0  0  0  0  0  0  0
    7.0406  -13.9892   25.1049 C   0  0  0  0  0  0  0  0  0  0  0  0
    8.4124  -14.5452   24.7330 C   0  0  2  0  0  0  0  0  0  0  0  0
    8.1809  -15.1889   23.4640 N   0  0  0  0  0  0  0  0  0  0  0  0
    9.0350  -15.3010   25.7622 C   0  0  0  0  0  0  0  0  0  0  0  0
    8.9199  -16.5721   25.7491 O   0  0  0  0  0  0  0  0  0  0  0  0
    9.8092  -14.7731   26.8553 N   0  0  0  0  0  0  0  0  0  0  0  0
    9.9476  -13.4215   27.2764 C   0  0  0  0  0  0  0  0  0  0  0  0
   10.3254  -13.4685   28.7350 C   0  0  0  0  0  0  0  0  0  0  0  0
   11.2746  -14.6779   28.6931 C   0  0  0  0  0  0  0  0  0  0  0  0
   10.6054  -15.6106   27.7561 C   0  0  1  0  0  0  0  0  0  0  0  0
    9.7707  -16.6316   28.4220 C   0  0  0  0  0  0  0  0  0  0  0  0
    8.4052  -16.5789   28.4308 O   0  0  0  0  0  0  0  0  0  0  0  0
   10.3507  -17.5831   29.0013 O   0  0  0  0  0  0  0  0  0  0  0  0
  1  2  1  0
  2  3  1  0
  3  4  1  6
  3  5  1  0
  5  6  2  0
  8  7  1  6
  9  8  1  0
 11 10  1  1
 10  8  1  0
 11 13  1  0
 12  5  1  0
 12 11  1  0
 13 15  1  0
 14 13  2  0
 15 19  1  0
 15 16  1  0
 16 17  1  0
 18 17  1  0
 19 20  1  1
 19 18  1  0
 20 22  2  0
 20 21  1  0
M  END
$$$$
