SLP.pdb
     RDKit          3D

 22 22  0  0  1  0  0  0  0  0999 V2000
    9.3222  -18.3465   22.7111 O   0  0  0  0  0  0  0  0  0  0  0  0
    9.9544  -17.7508   21.6061 C   0  0  0  0  0  0  0  0  0  0  0  0
    9.3568  -16.3924   21.4526 C   0  0  2  0  0  0  0  0  0  0  0  0
    9.9820  -15.7737   20.2950 N   0  0  0  0  0  0  0  0  0  0  0  0
    9.4543  -15.5282   22.6404 C   0  0  0  0  0  0  0  0  0  0  0  0
   10.5462  -14.9704   22.8904 O   0  0  0  0  0  0  0  0  0  0  0  0
    5.5917  -12.8961   26.4514 C   0  0  0  0  0  0  0  0  0  0  0  0
    7.0913  -13.0897   26.1519 C   0  0  2  0  0  0  0  0  0  0  0  0
    7.6487  -11.7408   25.8642 C   0  0  0  0  0  0  0  0  0  0  0  0
    7.1509  -14.0556   25.0382 C   0  0  0  0  0  0  0  0  0  0  0  0
    8.5248  -14.6538   24.7483 C   0  0  2  0  0  0  0  0  0  0  0  0
    8.3391  -15.3248   23.4859 N   0  0  0  0  0  0  0  0  0  0  0  0
    9.0774  -15.3971   25.8255 C   0  0  0  0  0  0  0  0  0  0  0  0
    8.8106  -16.6419   25.9162 O   0  0  0  0  0  0  0  0  0  0  0  0
    9.9359  -14.8834   26.8609 N   0  0  0  0  0  0  0  0  0  0  0  0
   10.2467  -13.5300   27.1690 C   0  0  0  0  0  0  0  0  0  0  0  0
   10.6513  -13.5079   28.6210 C   0  0  0  0  0  0  0  0  0  0  0  0
   11.4462  -14.8239   28.6635 C   0  0  0  0  0  0  0  0  0  0  0  0
   10.6467  -15.7386   27.8150 C   0  0  1  0  0  0  0  0  0  0  0  0
    9.7112  -16.5942   28.5734 C   0  0  0  0  0  0  0  0  0  0  0  0
    8.3876  -16.2894   28.7243 O   0  0  0  0  0  0  0  0  0  0  0  0
   10.1618  -17.6428   29.0975 O   0  0  0  0  0  0  0  0  0  0  0  0
  1  2  1  0
  2  3  1  0
  3  4  1  6
  3  5  1  0
  5  6  2  0
  8  7  1  6
  9  8  1  0
 11 10  1  1
 10  8  1  0
 11 13  1  0
 12  5  1  0
 12 11  1  0
 13 15  1  0
 14 13  2  0
 15 19  1  0
 15 16  1  0
 16 17  1  0
 18 17  1  0
 19 20  1  1
 19 18  1  0
 20 22  2  0
 20 21  1  0
M  END
$$$$
