SLP.pdb
     RDKit          3D

 22 22  0  0  1  0  0  0  0  0999 V2000
    7.9581  -19.8610   23.8088 O   0  0  0  0  0  0  0  0  0  0  0  0
    7.3288  -20.0188   25.0556 C   0  0  0  0  0  0  0  0  0  0  0  0
    6.0355  -19.2788   24.9785 C   0  0  2  0  0  0  0  0  0  0  0  0
    5.1523  -20.0419   24.1117 N   0  0  0  0  0  0  0  0  0  0  0  0
    6.1413  -17.8784   24.5371 C   0  0  0  0  0  0  0  0  0  0  0  0
    5.7452  -17.5783   23.3886 O   0  0  0  0  0  0  0  0  0  0  0  0
    8.2470  -12.7388   26.9056 C   0  0  0  0  0  0  0  0  0  0  0  0
    7.2119  -13.2604   25.8894 C   0  0  2  0  0  0  0  0  0  0  0  0
    5.9518  -12.5097   26.1372 C   0  0  0  0  0  0  0  0  0  0  0  0
    7.1405  -14.7175   26.1097 C   0  0  0  0  0  0  0  0  0  0  0  0
    6.9440  -15.5712   24.8599 C   0  0  2  0  0  0  0  0  0  0  0  0
    6.6764  -16.8851   25.3896 N   0  0  0  0  0  0  0  0  0  0  0  0
    7.9762  -15.4378   23.8931 C   0  0  0  0  0  0  0  0  0  0  0  0
    9.0923  -16.0220   24.0984 O   0  0  0  0  0  0  0  0  0  0  0  0
    7.8990  -14.6915   22.6642 N   0  0  0  0  0  0  0  0  0  0  0  0
    6.9508  -13.7025   22.2820 C   0  0  0  0  0  0  0  0  0  0  0  0
    7.6293  -12.8427   21.2462 C   0  0  0  0  0  0  0  0  0  0  0  0
    8.3903  -13.9437   20.4886 C   0  0  0  0  0  0  0  0  0  0  0  0
    8.8578  -14.8460   21.5671 C   0  0  1  0  0  0  0  0  0  0  0  0
   10.2392  -14.5766   22.0160 C   0  0  0  0  0  0  0  0  0  0  0  0
   11.3316  -14.8172   21.2310 O   0  0  0  0  0  0  0  0  0  0  0  0
   10.4050  -14.1072   23.1691 O   0  0  0  0  0  0  0  0  0  0  0  0
  1  2  1  0
  2  3  1  0
  3  4  1  6
  3  5  1  0
  5  6  2  0
  8  7  1  1
  9  8  1  0
 11 10  1  1
 10  8  1  0
 11 13  1  0
 12  5  1  0
 12 11  1  0
 13 15  1  0
 14 13  2  0
 15 19  1  0
 15 16  1  0
 16 17  1  0
 18 17  1  0
 19 20  1  1
 19 18  1  0
 20 22  2  0
 20 21  1  0
M  END
$$$$
