SLP.pdb
     RDKit          3D

 22 22  0  0  1  0  0  0  0  0999 V2000
   10.5672  -18.0219   22.1503 O   0  0  0  0  0  0  0  0  0  0  0  0
    9.3241  -17.6920   21.5835 C   0  0  0  0  0  0  0  0  0  0  0  0
    9.3160  -16.2110   21.4031 C   0  0  2  0  0  0  0  0  0  0  0  0
   10.3984  -15.8810   20.4903 N   0  0  0  0  0  0  0  0  0  0  0  0
    9.4065  -15.4288   22.6469 C   0  0  0  0  0  0  0  0  0  0  0  0
   10.5270  -15.0089   23.0132 O   0  0  0  0  0  0  0  0  0  0  0  0
    5.3955  -13.0212   26.5052 C   0  0  0  0  0  0  0  0  0  0  0  0
    6.9014  -13.1123   26.1890 C   0  0  2  0  0  0  0  0  0  0  0  0
    7.3803  -11.7197   25.9787 C   0  0  0  0  0  0  0  0  0  0  0  0
    7.0070  -14.0068   25.0204 C   0  0  0  0  0  0  0  0  0  0  0  0
    8.4032  -14.5425   24.7157 C   0  0  2  0  0  0  0  0  0  0  0  0
    8.2535  -15.1504   23.4171 N   0  0  0  0  0  0  0  0  0  0  0  0
    8.9695  -15.3238   25.7583 C   0  0  0  0  0  0  0  0  0  0  0  0
    8.7086  -16.5724   25.8040 O   0  0  0  0  0  0  0  0  0  0  0  0
    9.8361  -14.8463   26.8042 N   0  0  0  0  0  0  0  0  0  0  0  0
   10.1278  -13.5042   27.1745 C   0  0  0  0  0  0  0  0  0  0  0  0
   10.5564  -13.5468   28.6192 C   0  0  0  0  0  0  0  0  0  0  0  0
   11.3753  -14.8481   28.5831 C   0  0  0  0  0  0  0  0  0  0  0  0
   10.5781  -15.7344   27.7028 C   0  0  1  0  0  0  0  0  0  0  0  0
    9.6710  -16.6439   28.4325 C   0  0  0  0  0  0  0  0  0  0  0  0
    8.3137  -16.4853   28.4393 O   0  0  0  0  0  0  0  0  0  0  0  0
   10.1792  -17.5993   29.0699 O   0  0  0  0  0  0  0  0  0  0  0  0
  1  2  1  0
  2  3  1  0
  3  4  1  6
  3  5  1  0
  5  6  2  0
  8  7  1  6
  9  8  1  0
 11 10  1  1
 10  8  1  0
 11 13  1  0
 12  5  1  0
 12 11  1  0
 13 15  1  0
 14 13  2  0
 15 19  1  0
 15 16  1  0
 16 17  1  0
 18 17  1  0
 19 20  1  1
 19 18  1  0
 20 22  2  0
 20 21  1  0
M  END
$$$$
