SLP.pdb
     RDKit          3D

 22 22  0  0  1  0  0  0  0  0999 V2000
    9.8098  -17.6855   21.7211 O   0  0  0  0  0  0  0  0  0  0  0  0
    8.4965  -17.1910   21.6422 C   0  0  0  0  0  0  0  0  0  0  0  0
    8.5964  -15.7031   21.6875 C   0  0  2  0  0  0  0  0  0  0  0  0
    9.5465  -15.3025   20.6625 N   0  0  0  0  0  0  0  0  0  0  0  0
    8.9542  -15.1397   22.9996 C   0  0  0  0  0  0  0  0  0  0  0  0
   10.1324  -14.7645   23.1921 O   0  0  0  0  0  0  0  0  0  0  0  0
    7.6442  -11.8096   25.8941 C   0  0  0  0  0  0  0  0  0  0  0  0
    6.5489  -12.8440   25.5680 C   0  0  2  0  0  0  0  0  0  0  0  0
    5.3167  -12.4007   26.2738 C   0  0  0  0  0  0  0  0  0  0  0  0
    7.0951  -14.1466   25.9945 C   0  0  0  0  0  0  0  0  0  0  0  0
    8.4039  -14.5688   25.3327 C   0  0  2  0  0  0  0  0  0  0  0  0
    7.9900  -15.0186   24.0271 N   0  0  0  0  0  0  0  0  0  0  0  0
    9.2008  -15.4430   26.1193 C   0  0  0  0  0  0  0  0  0  0  0  0
    9.1398  -16.6987   25.8987 O   0  0  0  0  0  0  0  0  0  0  0  0
   10.1017  -15.0552   27.1734 N   0  0  0  0  0  0  0  0  0  0  0  0
   10.3508  -13.7568   27.6980 C   0  0  0  0  0  0  0  0  0  0  0  0
   10.8617  -13.9578   29.1021 C   0  0  0  0  0  0  0  0  0  0  0  0
   11.7372  -15.1985   28.8582 C   0  0  0  0  0  0  0  0  0  0  0  0
   10.9339  -16.0083   27.9122 C   0  0  1  0  0  0  0  0  0  0  0  0
   10.1128  -17.0497   28.5633 C   0  0  0  0  0  0  0  0  0  0  0  0
   10.6576  -18.1141   29.2249 O   0  0  0  0  0  0  0  0  0  0  0  0
    8.8631  -16.9426   28.4996 O   0  0  0  0  0  0  0  0  0  0  0  0
  1  2  1  0
  2  3  1  0
  3  4  1  6
  3  5  1  0
  5  6  2  0
  8  7  1  1
  9  8  1  0
 11 10  1  1
 10  8  1  0
 11 13  1  0
 12  5  1  0
 12 11  1  0
 13 15  1  0
 14 13  2  0
 15 19  1  0
 15 16  1  0
 16 17  1  0
 18 17  1  0
 19 20  1  1
 19 18  1  0
 20 22  2  0
 20 21  1  0
M  END
$$$$
