LGI.pdb
     RDKit          3D

 21 20  0  0  1  0  0  0  0  0999 V2000
    9.3222  -13.0532   19.2929 C   0  0  0  0  0  0  0  0  0  0  0  0
    8.2014  -13.5234   18.3898 C   0  0  2  0  0  0  0  0  0  0  0  0
    7.3408  -12.3531   17.9557 C   0  0  0  0  0  0  0  0  0  0  0  0
    7.3622  -14.5389   19.1598 C   0  0  0  0  0  0  0  0  0  0  0  0
    8.3323  -15.3305   20.0138 C   0  0  2  0  0  0  0  0  0  0  0  0
    8.4989  -16.6325   19.4114 N   0  0  0  0  0  0  0  0  0  0  0  0
    7.7979  -15.4274   21.3820 C   0  0  0  0  0  0  0  0  0  0  0  0
    7.6510  -14.4019   22.0854 O   0  0  0  0  0  0  0  0  0  0  0  0
    7.4508  -16.7048   21.8931 N   0  0  0  0  0  0  0  0  0  0  0  0
    6.9071  -16.9014   23.2169 C   0  0  0  0  0  0  0  0  0  0  0  0
    7.8344  -16.2738   24.1901 C   0  0  0  0  0  0  0  0  0  0  0  0
    9.0756  -16.4374   24.1013 O   0  0  0  0  0  0  0  0  0  0  0  0
    6.1740  -11.8242   27.5999 C   0  0  0  0  0  0  0  0  0  0  0  0
    6.4723  -13.2332   27.1163 C   0  0  0  0  0  0  0  0  0  0  0  0
    7.6785  -13.2789   26.2330 C   0  0  2  0  0  0  0  0  0  0  0  0
    7.5220  -12.4944   24.9700 C   0  0  0  0  0  0  0  0  0  0  0  0
    8.1603  -14.6796   26.0796 C   0  0  2  0  0  0  0  0  0  0  0  0
    7.2963  -15.4809   25.2298 N   0  0  0  0  0  0  0  0  0  0  0  0
    8.4513  -15.3827   27.3580 C   0  0  0  0  0  0  0  0  0  0  0  0
    7.7272  -16.5359   27.7278 O   0  0  0  0  0  0  0  0  0  0  0  0
    9.3262  -15.0287   28.1823 O   0  0  0  0  0  0  0  0  0  0  0  0
  2  4  1  0
  2  1  1  1
  3  2  1  0
  5  7  1  0
  5  4  1  0
  5  6  1  6
  7  9  1  0
  8  7  2  0
  9 10  1  0
 10 11  1  0
 11 12  2  0
 11 18  1  0
 14 13  1  0
 15 16  1  6
 15 14  1  0
 17 15  1  0
 17 18  1  1
 19 20  1  0
 19 17  1  0
 21 19  2  0
M  END
$$$$
