LGI.pdb
     RDKit          3D

 21 20  0  0  1  0  0  0  0  0999 V2000
    8.2511  -12.1927   19.0678 C   0  0  0  0  0  0  0  0  0  0  0  0
    7.9444  -13.6585   18.8441 C   0  0  2  0  0  0  0  0  0  0  0  0
    7.0013  -13.8322   17.6697 C   0  0  0  0  0  0  0  0  0  0  0  0
    7.3108  -14.2132   20.1167 C   0  0  0  0  0  0  0  0  0  0  0  0
    8.3536  -15.1095   20.7539 C   0  0  2  0  0  0  0  0  0  0  0  0
    8.4147  -16.3356   19.9930 N   0  0  0  0  0  0  0  0  0  0  0  0
    7.9812  -15.3566   22.1565 C   0  0  0  0  0  0  0  0  0  0  0  0
    7.7158  -14.4042   22.9250 O   0  0  0  0  0  0  0  0  0  0  0  0
    7.9274  -16.6946   22.6256 N   0  0  0  0  0  0  0  0  0  0  0  0
    7.5907  -17.0378   23.9878 C   0  0  0  0  0  0  0  0  0  0  0  0
    8.5871  -16.3969   24.8806 C   0  0  0  0  0  0  0  0  0  0  0  0
    9.8101  -16.4045   24.5986 O   0  0  0  0  0  0  0  0  0  0  0  0
    6.6960  -12.0895   27.3751 C   0  0  0  0  0  0  0  0  0  0  0  0
    7.4766  -13.1883   26.6740 C   0  0  0  0  0  0  0  0  0  0  0  0
    8.4213  -13.8840   27.6018 C   0  0  2  0  0  0  0  0  0  0  0  0
    9.3447  -12.9530   28.3199 C   0  0  0  0  0  0  0  0  0  0  0  0
    9.0589  -15.0458   26.9227 C   0  0  2  0  0  0  0  0  0  0  0  0
    8.1366  -15.7709   26.0658 N   0  0  0  0  0  0  0  0  0  0  0  0
    9.7877  -15.9746   27.8279 C   0  0  0  0  0  0  0  0  0  0  0  0
    9.1791  -17.1633   28.2834 O   0  0  0  0  0  0  0  0  0  0  0  0
   10.9544  -15.7913   28.2471 O   0  0  0  0  0  0  0  0  0  0  0  0
  2  4  1  0
  2  1  1  1
  3  2  1  0
  5  7  1  0
  5  4  1  0
  5  6  1  6
  7  9  1  0
  8  7  2  0
  9 10  1  0
 10 11  1  0
 11 12  2  0
 11 18  1  0
 14 13  1  0
 15 16  1  6
 15 14  1  0
 17 15  1  0
 17 18  1  1
 19 20  1  0
 19 17  1  0
 21 19  2  0
M  END
$$$$
