LGI.pdb
     RDKit          3D

 21 20  0  0  1  0  0  0  0  0999 V2000
    9.2607  -12.9710   18.9601 C   0  0  0  0  0  0  0  0  0  0  0  0
    8.0577  -13.6255   18.3143 C   0  0  2  0  0  0  0  0  0  0  0  0
    7.1871  -12.5867   17.6347 C   0  0  0  0  0  0  0  0  0  0  0  0
    7.2668  -14.3481   19.4009 C   0  0  0  0  0  0  0  0  0  0  0  0
    8.2682  -15.1909   20.1651 C   0  0  2  0  0  0  0  0  0  0  0  0
    8.3233  -16.4933   19.5432 N   0  0  0  0  0  0  0  0  0  0  0  0
    7.8474  -15.2766   21.5731 C   0  0  0  0  0  0  0  0  0  0  0  0
    7.8186  -14.2541   22.2954 O   0  0  0  0  0  0  0  0  0  0  0  0
    7.4739  -16.5396   22.1009 N   0  0  0  0  0  0  0  0  0  0  0  0
    6.8891  -16.7029   23.4116 C   0  0  0  0  0  0  0  0  0  0  0  0
    7.8489  -16.1713   24.4101 C   0  0  0  0  0  0  0  0  0  0  0  0
    9.0778  -16.1136   24.1616 O   0  0  0  0  0  0  0  0  0  0  0  0
    5.8755  -12.0565   26.9315 C   0  0  0  0  0  0  0  0  0  0  0  0
    6.7532  -13.1009   26.2630 C   0  0  0  0  0  0  0  0  0  0  0  0
    7.5530  -13.8807   27.2578 C   0  0  2  0  0  0  0  0  0  0  0  0
    8.4184  -13.0264   28.1274 C   0  0  0  0  0  0  0  0  0  0  0  0
    8.2228  -15.0358   26.5985 C   0  0  2  0  0  0  0  0  0  0  0  0
    7.3563  -15.7258   25.6584 N   0  0  0  0  0  0  0  0  0  0  0  0
    8.8700  -15.9972   27.5313 C   0  0  0  0  0  0  0  0  0  0  0  0
   10.2009  -15.8033   27.9579 O   0  0  0  0  0  0  0  0  0  0  0  0
    8.3150  -17.0186   27.9995 O   0  0  0  0  0  0  0  0  0  0  0  0
  2  4  1  0
  2  1  1  1
  3  2  1  0
  5  7  1  0
  5  4  1  0
  5  6  1  6
  7  9  1  0
  8  7  2  0
  9 10  1  0
 10 11  1  0
 11 12  2  0
 11 18  1  0
 14 13  1  0
 15 16  1  6
 15 14  1  0
 17 15  1  0
 17 18  1  1
 19 20  1  0
 19 17  1  0
 21 19  2  0
M  END
$$$$
