LGI.pdb
     RDKit          3D

 21 20  0  0  1  0  0  0  0  0999 V2000
    8.1586  -13.8964   17.6645 C   0  0  0  0  0  0  0  0  0  0  0  0
    7.5300  -13.5987   19.0094 C   0  0  2  0  0  0  0  0  0  0  0  0
    7.3098  -12.1078   19.1762 C   0  0  0  0  0  0  0  0  0  0  0  0
    8.4635  -14.1196   20.0984 C   0  0  0  0  0  0  0  0  0  0  0  0
    8.2702  -15.6222   20.1396 C   0  0  2  0  0  0  0  0  0  0  0  0
    6.8512  -15.8901   20.1628 N   0  0  0  0  0  0  0  0  0  0  0  0
    8.9459  -16.1601   21.3318 C   0  0  0  0  0  0  0  0  0  0  0  0
   10.1908  -16.0907   21.4472 O   0  0  0  0  0  0  0  0  0  0  0  0
    8.1623  -16.7601   22.3512 N   0  0  0  0  0  0  0  0  0  0  0  0
    8.7359  -17.3668   23.5300 C   0  0  0  0  0  0  0  0  0  0  0  0
    9.2022  -16.2784   24.4238 C   0  0  0  0  0  0  0  0  0  0  0  0
   10.3862  -15.8644   24.3781 O   0  0  0  0  0  0  0  0  0  0  0  0
    5.8267  -12.3977   27.0853 C   0  0  0  0  0  0  0  0  0  0  0  0
    6.5765  -13.7033   26.8824 C   0  0  0  0  0  0  0  0  0  0  0  0
    7.9381  -13.4836   26.3035 C   0  0  2  0  0  0  0  0  0  0  0  0
    7.9205  -12.7480   25.0021 C   0  0  0  0  0  0  0  0  0  0  0  0
    8.7276  -14.7459   26.3327 C   0  0  2  0  0  0  0  0  0  0  0  0
    8.2862  -15.7076   25.3372 N   0  0  0  0  0  0  0  0  0  0  0  0
    8.8402  -15.3804   27.6736 C   0  0  0  0  0  0  0  0  0  0  0  0
    9.5052  -14.7218   28.7295 O   0  0  0  0  0  0  0  0  0  0  0  0
    8.3751  -16.5056   27.9703 O   0  0  0  0  0  0  0  0  0  0  0  0
  2  4  1  0
  2  1  1  6
  3  2  1  0
  5  7  1  0
  5  4  1  0
  5  6  1  1
  7  9  1  0
  8  7  2  0
  9 10  1  0
 10 11  1  0
 11 12  2  0
 11 18  1  0
 14 13  1  0
 15 16  1  6
 15 14  1  0
 17 15  1  0
 17 18  1  6
 19 20  1  0
 19 17  1  0
 21 19  2  0
M  END
$$$$
