LGI.pdb
     RDKit          3D

 21 20  0  0  1  0  0  0  0  0999 V2000
   10.0374  -13.5302   19.4755 C   0  0  0  0  0  0  0  0  0  0  0  0
    8.8293  -13.4525   18.5661 C   0  0  2  0  0  0  0  0  0  0  0  0
    8.3710  -12.0155   18.4109 C   0  0  0  0  0  0  0  0  0  0  0  0
    7.7162  -14.2984   19.1777 C   0  0  0  0  0  0  0  0  0  0  0  0
    8.3085  -15.6736   19.4118 C   0  0  2  0  0  0  0  0  0  0  0  0
    8.2212  -16.4145   18.1752 N   0  0  0  0  0  0  0  0  0  0  0  0
    7.5677  -16.3363   20.4977 C   0  0  0  0  0  0  0  0  0  0  0  0
    6.4175  -16.7911   20.3024 O   0  0  0  0  0  0  0  0  0  0  0  0
    8.1791  -16.4523   21.7729 N   0  0  0  0  0  0  0  0  0  0  0  0
    7.4275  -16.4793   23.0062 C   0  0  0  0  0  0  0  0  0  0  0  0
    8.2165  -15.7631   24.0384 C   0  0  0  0  0  0  0  0  0  0  0  0
    9.4067  -15.4260   23.8267 O   0  0  0  0  0  0  0  0  0  0  0  0
    5.7633  -11.9911   26.6259 C   0  0  0  0  0  0  0  0  0  0  0  0
    6.6902  -13.0037   25.9751 C   0  0  0  0  0  0  0  0  0  0  0  0
    7.5515  -13.7015   26.9793 C   0  0  2  0  0  0  0  0  0  0  0  0
    8.3163  -12.7667   27.8603 C   0  0  0  0  0  0  0  0  0  0  0  0
    8.3416  -14.7826   26.3277 C   0  0  2  0  0  0  0  0  0  0  0  0
    7.6038  -15.4620   25.2767 N   0  0  0  0  0  0  0  0  0  0  0  0
    8.9539  -15.7606   27.2669 C   0  0  0  0  0  0  0  0  0  0  0  0
   10.2371  -15.5344   27.8082 O   0  0  0  0  0  0  0  0  0  0  0  0
    8.4082  -16.8240   27.6433 O   0  0  0  0  0  0  0  0  0  0  0  0
  2  4  1  0
  2  1  1  1
  3  2  1  0
  5  7  1  0
  5  4  1  0
  5  6  1  6
  7  9  1  0
  8  7  2  0
  9 10  1  0
 10 11  1  0
 11 12  2  0
 11 18  1  0
 14 13  1  0
 15 16  1  6
 15 14  1  0
 17 15  1  0
 17 18  1  6
 19 20  1  0
 19 17  1  0
 21 19  2  0
M  END
$$$$
