LGI.pdb
     RDKit          3D

 21 20  0  0  1  0  0  0  0  0999 V2000
    3.4575  -19.6990   20.4756 C   0  0  0  0  0  0  0  0  0  0  0  0
    3.2615  -19.2746   21.9158 C   0  0  2  0  0  0  0  0  0  0  0  0
    1.8138  -18.9017   22.1688 C   0  0  0  0  0  0  0  0  0  0  0  0
    4.1701  -18.0794   22.1890 C   0  0  0  0  0  0  0  0  0  0  0  0
    5.5639  -18.5015   21.7692 C   0  0  2  0  0  0  0  0  0  0  0  0
    6.0947  -19.3717   22.7923 N   0  0  0  0  0  0  0  0  0  0  0  0
    6.3953  -17.2999   21.5904 C   0  0  0  0  0  0  0  0  0  0  0  0
    6.0949  -16.4357   20.7355 O   0  0  0  0  0  0  0  0  0  0  0  0
    7.5459  -17.1357   22.4042 N   0  0  0  0  0  0  0  0  0  0  0  0
    8.6332  -16.2491   22.0598 C   0  0  0  0  0  0  0  0  0  0  0  0
    9.0275  -15.5114   23.2850 C   0  0  0  0  0  0  0  0  0  0  0  0
   10.1142  -14.8862   23.3439 O   0  0  0  0  0  0  0  0  0  0  0  0
    6.0229  -12.2299   25.7501 C   0  0  0  0  0  0  0  0  0  0  0  0
    7.1604  -13.0989   25.2413 C   0  0  0  0  0  0  0  0  0  0  0  0
    7.6527  -14.0473   26.2879 C   0  0  2  0  0  0  0  0  0  0  0  0
    8.1132  -13.3684   27.5377 C   0  0  0  0  0  0  0  0  0  0  0  0
    8.5936  -15.0372   25.6943 C   0  0  2  0  0  0  0  0  0  0  0  0
    8.1543  -15.5218   24.3971 N   0  0  0  0  0  0  0  0  0  0  0  0
    8.9571  -16.1677   26.5905 C   0  0  0  0  0  0  0  0  0  0  0  0
    8.4810  -17.4713   26.3362 O   0  0  0  0  0  0  0  0  0  0  0  0
    9.6856  -16.0663   27.6051 O   0  0  0  0  0  0  0  0  0  0  0  0
  2  4  1  0
  2  1  1  6
  3  2  1  0
  5  7  1  0
  5  4  1  0
  5  6  1  1
  7  9  1  0
  8  7  2  0
  9 10  1  0
 10 11  1  0
 11 12  2  0
 11 18  1  0
 14 13  1  0
 15 16  1  1
 15 14  1  0
 17 15  1  0
 17 18  1  6
 19 20  1  0
 19 17  1  0
 21 19  2  0
M  END
$$$$
