LGI.pdb
     RDKit          3D

 21 20  0  0  1  0  0  0  0  0999 V2000
    8.4790  -13.7292   20.4215 C   0  0  0  0  0  0  0  0  0  0  0  0
    8.1857  -13.7993   18.9377 C   0  0  2  0  0  0  0  0  0  0  0  0
    7.6370  -12.4763   18.4402 C   0  0  0  0  0  0  0  0  0  0  0  0
    7.1698  -14.9136   18.7041 C   0  0  0  0  0  0  0  0  0  0  0  0
    7.7306  -16.1478   19.3818 C   0  0  2  0  0  0  0  0  0  0  0  0
    7.6048  -17.2571   18.4655 N   0  0  0  0  0  0  0  0  0  0  0  0
    6.9905  -16.3867   20.6317 C   0  0  0  0  0  0  0  0  0  0  0  0
    5.8056  -16.7909   20.6061 O   0  0  0  0  0  0  0  0  0  0  0  0
    7.6426  -16.1512   21.8697 N   0  0  0  0  0  0  0  0  0  0  0  0
    6.9845  -16.3021   23.1467 C   0  0  0  0  0  0  0  0  0  0  0  0
    7.9394  -15.8905   24.2048 C   0  0  0  0  0  0  0  0  0  0  0  0
    9.1779  -15.9064   24.0024 O   0  0  0  0  0  0  0  0  0  0  0  0
    5.8721  -11.8340   26.8411 C   0  0  0  0  0  0  0  0  0  0  0  0
    6.7087  -12.8928   26.1432 C   0  0  0  0  0  0  0  0  0  0  0  0
    7.5484  -13.6691   27.1074 C   0  0  2  0  0  0  0  0  0  0  0  0
    8.3734  -12.8064   28.0075 C   0  0  0  0  0  0  0  0  0  0  0  0
    8.2719  -14.7647   26.4048 C   0  0  2  0  0  0  0  0  0  0  0  0
    7.4309  -15.4759   25.4574 N   0  0  0  0  0  0  0  0  0  0  0  0
    8.9874  -15.7139   27.2995 C   0  0  0  0  0  0  0  0  0  0  0  0
    8.3887  -16.9317   27.6855 O   0  0  0  0  0  0  0  0  0  0  0  0
   10.1340  -15.5238   27.7682 O   0  0  0  0  0  0  0  0  0  0  0  0
  2  4  1  0
  2  1  1  1
  3  2  1  0
  5  7  1  0
  5  4  1  0
  5  6  1  6
  7  9  1  0
  8  7  2  0
  9 10  1  0
 10 11  1  0
 11 12  2  0
 11 18  1  0
 14 13  1  0
 15 16  1  6
 15 14  1  0
 17 15  1  0
 17 18  1  1
 19 20  1  0
 19 17  1  0
 21 19  2  0
M  END
$$$$
