LGI.pdb
     RDKit          3D

 21 20  0  0  1  0  0  0  0  0999 V2000
    1.9750  -20.7423   20.7401 C   0  0  0  0  0  0  0  0  0  0  0  0
    1.9293  -20.1958   22.1515 C   0  0  2  0  0  0  0  0  0  0  0  0
    0.5058  -20.1872   22.6735 C   0  0  0  0  0  0  0  0  0  0  0  0
    2.4934  -18.7781   22.1329 C   0  0  0  0  0  0  0  0  0  0  0  0
    3.9336  -18.9005   21.6769 C   0  0  2  0  0  0  0  0  0  0  0  0
    4.6731  -19.5865   22.7105 N   0  0  0  0  0  0  0  0  0  0  0  0
    4.4724  -17.5543   21.4234 C   0  0  0  0  0  0  0  0  0  0  0  0
    3.9425  -16.8030   20.5732 O   0  0  0  0  0  0  0  0  0  0  0  0
    5.6049  -17.1198   22.1595 N   0  0  0  0  0  0  0  0  0  0  0  0
    6.1340  -15.7786   22.0703 C   0  0  0  0  0  0  0  0  0  0  0  0
    7.2618  -15.6672   23.0277 C   0  0  0  0  0  0  0  0  0  0  0  0
    8.4369  -15.9379   22.6798 O   0  0  0  0  0  0  0  0  0  0  0  0
    6.5260  -11.9270   27.3696 C   0  0  0  0  0  0  0  0  0  0  0  0
    6.6007  -13.2424   26.6132 C   0  0  0  0  0  0  0  0  0  0  0  0
    7.6595  -13.2221   25.5568 C   0  0  2  0  0  0  0  0  0  0  0  0
    7.3715  -12.2671   24.4432 C   0  0  0  0  0  0  0  0  0  0  0  0
    8.0216  -14.6093   25.1541 C   0  0  2  0  0  0  0  0  0  0  0  0
    6.9929  -15.2476   24.3510 N   0  0  0  0  0  0  0  0  0  0  0  0
    8.4489  -15.4922   26.2727 C   0  0  0  0  0  0  0  0  0  0  0  0
    7.7720  -16.7019   26.5356 O   0  0  0  0  0  0  0  0  0  0  0  0
    9.4052  -15.2500   27.0455 O   0  0  0  0  0  0  0  0  0  0  0  0
  2  4  1  0
  2  1  1  6
  3  2  1  0
  5  7  1  0
  5  4  1  0
  5  6  1  1
  7  9  1  0
  8  7  2  0
  9 10  1  0
 10 11  1  0
 11 12  2  0
 11 18  1  0
 14 13  1  0
 15 16  1  6
 15 14  1  0
 17 15  1  0
 17 18  1  1
 19 20  1  0
 19 17  1  0
 21 19  2  0
M  END
$$$$
