LGI.pdb
     RDKit          3D

 21 20  0  0  1  0  0  0  0  0999 V2000
    8.9509  -14.3762   19.7760 C   0  0  0  0  0  0  0  0  0  0  0  0
    7.5709  -13.8491   20.1082 C   0  0  2  0  0  0  0  0  0  0  0  0
    7.5038  -12.3515   19.8808 C   0  0  0  0  0  0  0  0  0  0  0  0
    7.2744  -14.1751   21.5691 C   0  0  0  0  0  0  0  0  0  0  0  0
    7.4256  -15.6767   21.7078 C   0  0  2  0  0  0  0  0  0  0  0  0
    6.1594  -16.2863   21.3745 N   0  0  0  0  0  0  0  0  0  0  0  0
    7.8364  -15.9921   23.0858 C   0  0  0  0  0  0  0  0  0  0  0  0
    7.3111  -15.4061   24.0597 O   0  0  0  0  0  0  0  0  0  0  0  0
    8.8399  -16.9734   23.2939 N   0  0  0  0  0  0  0  0  0  0  0  0
   10.2504  -16.6627   23.3215 C   0  0  0  0  0  0  0  0  0  0  0  0
   10.5138  -15.8389   24.5268 C   0  0  0  0  0  0  0  0  0  0  0  0
   11.5326  -15.1099   24.6039 O   0  0  0  0  0  0  0  0  0  0  0  0
    7.5348  -12.3568   26.3229 C   0  0  0  0  0  0  0  0  0  0  0  0
    8.6151  -13.3834   26.0274 C   0  0  0  0  0  0  0  0  0  0  0  0
    8.9836  -14.1746   27.2421 C   0  0  2  0  0  0  0  0  0  0  0  0
    9.3910  -13.3269   28.4042 C   0  0  0  0  0  0  0  0  0  0  0  0
    9.9107  -15.2828   26.8816 C   0  0  2  0  0  0  0  0  0  0  0  0
    9.5929  -15.8861   25.5987 N   0  0  0  0  0  0  0  0  0  0  0  0
   10.0788  -16.3223   27.9325 C   0  0  0  0  0  0  0  0  0  0  0  0
   11.0564  -16.1781   28.9397 O   0  0  0  0  0  0  0  0  0  0  0  0
    9.3975  -17.3710   28.0122 O   0  0  0  0  0  0  0  0  0  0  0  0
  2  4  1  0
  2  1  1  1
  3  2  1  0
  5  7  1  0
  5  4  1  0
  5  6  1  1
  7  9  1  0
  8  7  2  0
  9 10  1  0
 10 11  1  0
 11 12  2  0
 11 18  1  0
 14 13  1  0
 15 16  1  1
 15 14  1  0
 17 15  1  0
 17 18  1  6
 19 20  1  0
 19 17  1  0
 21 19  2  0
M  END
$$$$
