LGI.pdb
     RDKit          3D

 21 20  0  0  1  0  0  0  0  0999 V2000
    9.1612  -12.9202   19.3117 C   0  0  0  0  0  0  0  0  0  0  0  0
    8.1096  -13.5434   18.4182 C   0  0  2  0  0  0  0  0  0  0  0  0
    7.2759  -12.4691   17.7475 C   0  0  0  0  0  0  0  0  0  0  0  0
    7.2230  -14.4397   19.2780 C   0  0  0  0  0  0  0  0  0  0  0  0
    8.1608  -15.2873   20.1141 C   0  0  2  0  0  0  0  0  0  0  0  0
    8.2068  -16.6089   19.5333 N   0  0  0  0  0  0  0  0  0  0  0  0
    7.6703  -15.3187   21.5017 C   0  0  0  0  0  0  0  0  0  0  0  0
    7.6648  -14.2804   22.2016 O   0  0  0  0  0  0  0  0  0  0  0  0
    7.2024  -16.5473   22.0354 N   0  0  0  0  0  0  0  0  0  0  0  0
    6.6249  -16.6630   23.3544 C   0  0  0  0  0  0  0  0  0  0  0  0
    7.6609  -16.2752   24.3430 C   0  0  0  0  0  0  0  0  0  0  0  0
    8.8799  -16.2907   24.0447 O   0  0  0  0  0  0  0  0  0  0  0  0
    6.0161  -12.1070   26.8964 C   0  0  0  0  0  0  0  0  0  0  0  0
    6.7638  -13.2473   26.2265 C   0  0  0  0  0  0  0  0  0  0  0  0
    7.5871  -14.0271   27.2019 C   0  0  2  0  0  0  0  0  0  0  0  0
    8.5279  -13.1808   27.9979 C   0  0  0  0  0  0  0  0  0  0  0  0
    8.1787  -15.2253   26.5447 C   0  0  2  0  0  0  0  0  0  0  0  0
    7.2530  -15.8837   25.6390 N   0  0  0  0  0  0  0  0  0  0  0  0
    8.8003  -16.2047   27.4763 C   0  0  0  0  0  0  0  0  0  0  0  0
   10.1600  -16.0944   27.8366 O   0  0  0  0  0  0  0  0  0  0  0  0
    8.1979  -17.1709   27.9998 O   0  0  0  0  0  0  0  0  0  0  0  0
  2  4  1  0
  2  1  1  1
  3  2  1  0
  5  7  1  0
  5  4  1  0
  5  6  1  6
  7  9  1  0
  8  7  2  0
  9 10  1  0
 10 11  1  0
 11 12  2  0
 11 18  1  0
 14 13  1  0
 15 16  1  6
 15 14  1  0
 17 15  1  0
 17 18  1  1
 19 20  1  0
 19 17  1  0
 21 19  2  0
M  END
$$$$
