TRL.pdb
     RDKit          3D

 27 26  0  0  1  0  0  0  0  0999 V2000
   37.2976   -7.7832   -9.5468 C   0  0  0  0  0  0  0  0  0  0  0  0
   38.6144   -8.4029   -9.1644 C   0  0  1  0  0  0  0  0  0  0  0  0
   39.4797   -7.3969   -8.7441 O   0  0  0  0  0  0  0  0  0  0  0  0
   38.4317   -9.4250   -8.0477 C   0  0  2  0  0  0  0  0  0  0  0  0
   37.9491   -8.7429   -6.8684 N   0  0  0  0  0  0  0  0  0  0  0  0
   39.7150  -10.0818   -7.7037 C   0  0  0  0  0  0  0  0  0  0  0  0
   40.2325   -9.8021   -6.6077 O   0  0  0  0  0  0  0  0  0  0  0  0
   43.4619  -17.5017   -7.7314 N   0  0  0  0  0  0  0  0  0  0  0  0
   44.6312  -16.6723   -7.9120 C   0  0  0  0  0  0  0  0  0  0  0  0
   45.7342  -16.9792   -7.3178 N   0  0  0  0  0  0  0  0  0  0  0  0
   44.5989  -15.5209   -8.7237 N   0  0  0  0  0  0  0  0  0  0  0  0
   43.3327  -14.9808   -9.1566 C   0  0  0  0  0  0  0  0  0  0  0  0
   43.1660  -13.6310   -8.5427 C   0  0  0  0  0  0  0  0  0  0  0  0
   41.8576  -12.9634   -8.7964 C   0  0  0  0  0  0  0  0  0  0  0  0
   41.6357  -11.6355   -8.2118 C   0  0  2  0  0  0  0  0  0  0  0  0
   40.3913  -10.9940   -8.5185 N   0  0  0  0  0  0  0  0  0  0  0  0
   42.6970  -10.6866   -8.6618 C   0  0  0  0  0  0  0  0  0  0  0  0
   42.4741   -9.8236   -9.5528 O   0  0  0  0  0  0  0  0  0  0  0  0
   46.5781  -16.3975   -7.4413 C   0  0  0  0  0  0  0  0  0  0  0  0
   45.1544   -6.7063   -9.4846 C   0  0  2  0  0  0  0  0  0  0  0  0
   45.1229   -7.0563   -7.9509 C   0  0  0  0  0  0  0  0  0  0  0  0
   44.4730   -5.8489   -7.3387 C   0  0  0  0  0  0  0  0  0  0  0  0
   44.3977   -8.3308   -7.8732 C   0  0  1  0  0  0  0  0  0  0  0  0
   44.9740   -9.6038   -8.3045 N   0  0  0  0  0  0  0  0  0  0  0  0
   44.0082  -10.7053   -8.1127 C   0  0  0  0  0  0  0  0  0  0  0  0
   46.2644   -9.9274   -7.7394 O   0  0  0  0  0  0  0  0  0  0  0  0
   47.5034   -9.6172   -8.2264 O   0  0  0  0  0  0  0  0  0  0  0  0
  2  1  1  1
  2  4  1  0
  3  2  1  0
  4  5  1  1
  6  7  2  0
  6  4  1  0
  8  9  1  0
  9 11  1  0
 10  9  2  0
 11 12  1  0
 12 13  1  0
 13 14  1  0
 15 14  1  6
 15 16  1  0
 16  6  1  0
 17 18  2  0
 17 15  1  0
 20 19  1  1
 20 22  1  0
 21 20  1  0
 23 22  1  6
 23 24  1  0
 24 17  1  0
 25 26  1  0
 25 23  1  0
 27 25  2  0
M  END
$$$$
