TRL.pdb
     RDKit          3D

 27 26  0  0  1  0  0  0  0  0999 V2000
   28.0978  -21.4024  -15.7729 C   0  0  0  0  0  0  0  0  0  0  0  0
   27.6005  -20.4617  -16.8369 C   0  0  1  0  0  0  0  0  0  0  0  0
   28.6215  -20.2438  -17.7575 O   0  0  0  0  0  0  0  0  0  0  0  0
   26.3808  -21.0386  -17.5474 C   0  0  2  0  0  0  0  0  0  0  0  0
   25.9679  -20.1180  -18.5823 N   0  0  0  0  0  0  0  0  0  0  0  0
   25.2454  -21.2141  -16.6112 C   0  0  0  0  0  0  0  0  0  0  0  0
   24.6281  -20.1953  -16.2530 O   0  0  0  0  0  0  0  0  0  0  0  0
   20.4442  -28.2532  -16.6253 N   0  0  0  0  0  0  0  0  0  0  0  0
   20.2790  -27.1538  -17.5482 C   0  0  0  0  0  0  0  0  0  0  0  0
   19.5341  -27.2974  -18.5914 N   0  0  0  0  0  0  0  0  0  0  0  0
   20.9209  -25.9165  -17.3418 N   0  0  0  0  0  0  0  0  0  0  0  0
   21.7075  -25.7035  -16.1508 C   0  0  0  0  0  0  0  0  0  0  0  0
   22.3294  -24.3498  -16.2373 C   0  0  0  0  0  0  0  0  0  0  0  0
   23.1440  -23.9371  -15.0591 C   0  0  0  0  0  0  0  0  0  0  0  0
   23.8008  -22.6251  -15.1000 C   0  0  2  0  0  0  0  0  0  0  0  0
   24.8132  -22.4400  -16.0975 N   0  0  0  0  0  0  0  0  0  0  0  0
   24.4671  -22.3375  -13.7952 C   0  0  0  0  0  0  0  0  0  0  0  0
   25.6454  -22.7176  -13.5595 O   0  0  0  0  0  0  0  0  0  0  0  0
   19.4177  -26.5243  -19.2656 C   0  0  0  0  0  0  0  0  0  0  0  0
   27.8672  -19.4781  -12.7342 C   0  0  1  0  0  0  0  0  0  0  0  0
   26.9996  -20.7277  -12.3326 C   0  0  0  0  0  0  0  0  0  0  0  0
   27.7300  -21.2820  -11.1433 C   0  0  0  0  0  0  0  0  0  0  0  0
   25.6508  -20.1909  -12.1117 C   0  0  2  0  0  0  0  0  0  0  0  0
   24.5378  -21.0058  -11.6258 N   0  0  0  0  0  0  0  0  0  0  0  0
   23.8122  -21.6239  -12.7546 C   0  0  0  0  0  0  0  0  0  0  0  0
   23.6326  -20.3444  -10.7136 O   0  0  0  0  0  0  0  0  0  0  0  0
   23.8825  -19.9042   -9.4438 O   0  0  0  0  0  0  0  0  0  0  0  0
  2  1  1  1
  2  4  1  0
  3  2  1  0
  4  5  1  6
  6  7  2  0
  6  4  1  0
  8  9  1  0
  9 11  1  0
 10  9  2  0
 11 12  1  0
 12 13  1  0
 13 14  1  0
 15 14  1  1
 15 16  1  0
 16  6  1  0
 17 18  2  0
 17 15  1  0
 20 19  1  6
 20 22  1  0
 21 20  1  0
 23 22  1  1
 23 24  1  0
 24 17  1  0
 25 26  1  0
 25 23  1  0
 27 25  2  0
M  END
$$$$
