TRL.pdb
     RDKit          3D

 27 26  0  0  1  0  0  0  0  0999 V2000
   24.8161  -15.9387  -18.7161 C   0  0  0  0  0  0  0  0  0  0  0  0
   24.1044  -17.0587  -18.0067 C   0  0  1  0  0  0  0  0  0  0  0  0
   22.7317  -16.8911  -18.1651 O   0  0  0  0  0  0  0  0  0  0  0  0
   24.5259  -18.4131  -18.5664 C   0  0  2  0  0  0  0  0  0  0  0  0
   24.0693  -18.5127  -19.9340 N   0  0  0  0  0  0  0  0  0  0  0  0
   23.9181  -19.5256  -17.7986 C   0  0  0  0  0  0  0  0  0  0  0  0
   22.8060  -19.9433  -18.1675 O   0  0  0  0  0  0  0  0  0  0  0  0
   25.3789  -26.5629  -16.4399 N   0  0  0  0  0  0  0  0  0  0  0  0
   26.5668  -26.0153  -17.0537 C   0  0  0  0  0  0  0  0  0  0  0  0
   27.0974  -26.6092  -18.0684 N   0  0  0  0  0  0  0  0  0  0  0  0
   27.1728  -24.8404  -16.5659 N   0  0  0  0  0  0  0  0  0  0  0  0
   26.5135  -24.0603  -15.5465 C   0  0  0  0  0  0  0  0  0  0  0  0
   25.5681  -23.1198  -16.2161 C   0  0  0  0  0  0  0  0  0  0  0  0
   24.8594  -22.1666  -15.3155 C   0  0  0  0  0  0  0  0  0  0  0  0
   23.9256  -21.2098  -15.9211 C   0  0  2  0  0  0  0  0  0  0  0  0
   24.4996  -20.1438  -16.6882 N   0  0  0  0  0  0  0  0  0  0  0  0
   23.1049  -20.5462  -14.8650 C   0  0  0  0  0  0  0  0  0  0  0  0
   23.5236  -19.5312  -14.2463 O   0  0  0  0  0  0  0  0  0  0  0  0
   28.0023  -26.2914  -18.4503 C   0  0  0  0  0  0  0  0  0  0  0  0
   18.4307  -18.4802  -13.5511 C   0  0  2  0  0  0  0  0  0  0  0  0
   19.8892  -17.9672  -13.2591 C   0  0  0  0  0  0  0  0  0  0  0  0
   19.9519  -17.9534  -11.7588 C   0  0  0  0  0  0  0  0  0  0  0  0
   20.7655  -18.9090  -13.9670 C   0  0  2  0  0  0  0  0  0  0  0  0
   20.9319  -20.3037  -13.5596 N   0  0  0  0  0  0  0  0  0  0  0  0
   21.8148  -21.0208  -14.5026 C   0  0  0  0  0  0  0  0  0  0  0  0
   19.7076  -21.0341  -13.3217 O   0  0  0  0  0  0  0  0  0  0  0  0
   18.9415  -21.0560  -12.1897 O   0  0  0  0  0  0  0  0  0  0  0  0
  2  1  1  6
  2  4  1  0
  3  2  1  0
  4  5  1  6
  6  7  2  0
  6  4  1  0
  8  9  1  0
  9 11  1  0
 10  9  2  0
 11 12  1  0
 12 13  1  0
 13 14  1  0
 15 14  1  1
 15 16  1  0
 16  6  1  0
 17 18  2  0
 17 15  1  0
 20 19  1  1
 20 22  1  0
 21 20  1  0
 23 22  1  1
 23 24  1  0
 24 17  1  0
 25 26  1  0
 25 23  1  0
 27 25  2  0
M  END
$$$$
