TRL.pdb
     RDKit          3D

 27 26  0  0  1  0  0  0  0  0999 V2000
   26.5908  -17.7566  -15.4401 C   0  0  0  0  0  0  0  0  0  0  0  0
   26.7576  -18.7060  -14.2846 C   0  0  1  0  0  0  0  0  0  0  0  0
   25.4984  -19.0969  -13.8383 O   0  0  0  0  0  0  0  0  0  0  0  0
   27.5609  -19.9338  -14.6998 C   0  0  2  0  0  0  0  0  0  0  0  0
   26.8380  -20.6321  -15.7383 N   0  0  0  0  0  0  0  0  0  0  0  0
   27.7444  -20.8667  -13.5629 C   0  0  0  0  0  0  0  0  0  0  0  0
   26.9626  -21.8301  -13.4731 O   0  0  0  0  0  0  0  0  0  0  0  0
   32.5598  -23.7724  -13.8763 N   0  0  0  0  0  0  0  0  0  0  0  0
   33.4296  -23.9828  -12.7418 C   0  0  0  0  0  0  0  0  0  0  0  0
   34.4005  -24.8279  -12.8249 N   0  0  0  0  0  0  0  0  0  0  0  0
   33.2414  -23.2872  -11.5309 N   0  0  0  0  0  0  0  0  0  0  0  0
   32.7719  -21.9227  -11.5501 C   0  0  0  0  0  0  0  0  0  0  0  0
   31.3702  -21.9180  -12.0619 C   0  0  0  0  0  0  0  0  0  0  0  0
   30.3037  -21.8460  -11.0229 C   0  0  0  0  0  0  0  0  0  0  0  0
   28.9216  -21.6294  -11.4668 C   0  0  2  0  0  0  0  0  0  0  0  0
   28.7311  -20.7474  -12.5803 N   0  0  0  0  0  0  0  0  0  0  0  0
   28.1040  -21.0556  -10.3570 C   0  0  0  0  0  0  0  0  0  0  0  0
   28.0151  -19.8110  -10.1800 O   0  0  0  0  0  0  0  0  0  0  0  0
   35.0332  -24.9831  -12.0240 C   0  0  0  0  0  0  0  0  0  0  0  0
   28.3280  -19.9849   -5.1717 C   0  0  2  0  0  0  0  0  0  0  0  0
   27.0780  -20.0157   -6.1268 C   0  0  0  0  0  0  0  0  0  0  0  0
   26.7187  -18.5643   -6.2655 C   0  0  0  0  0  0  0  0  0  0  0  0
   27.5437  -20.7181   -7.3294 C   0  0  1  0  0  0  0  0  0  0  0  0
   26.6347  -21.3335   -8.2958 N   0  0  0  0  0  0  0  0  0  0  0  0
   27.3862  -21.8773   -9.4457 C   0  0  0  0  0  0  0  0  0  0  0  0
   25.5314  -20.5061   -8.7284 O   0  0  0  0  0  0  0  0  0  0  0  0
   24.2158  -20.5933   -8.3676 O   0  0  0  0  0  0  0  0  0  0  0  0
  2  1  1  6
  2  4  1  0
  3  2  1  0
  4  5  1  6
  6  7  2  0
  6  4  1  0
  8  9  1  0
  9 11  1  0
 10  9  2  0
 11 12  1  0
 12 13  1  0
 13 14  1  0
 15 14  1  1
 15 16  1  0
 16  6  1  0
 17 18  2  0
 17 15  1  0
 20 19  1  1
 20 22  1  0
 21 20  1  0
 23 22  1  1
 23 24  1  0
 24 17  1  0
 25 26  1  0
 25 23  1  0
 27 25  2  0
M  END
$$$$
