TRL.pdb
     RDKit          3D

 27 26  0  0  1  0  0  0  0  0999 V2000
   20.1065  -18.9233  -11.8500 C   0  0  0  0  0  0  0  0  0  0  0  0
   19.3028  -20.1944  -11.7991 C   0  0  1  0  0  0  0  0  0  0  0  0
   17.9643  -19.8722  -11.5938 O   0  0  0  0  0  0  0  0  0  0  0  0
   19.4496  -20.9841  -13.0953 C   0  0  2  0  0  0  0  0  0  0  0  0
   18.5810  -22.1377  -13.0369 N   0  0  0  0  0  0  0  0  0  0  0  0
   20.8392  -21.4660  -13.2776 C   0  0  0  0  0  0  0  0  0  0  0  0
   21.2277  -22.3992  -12.5527 O   0  0  0  0  0  0  0  0  0  0  0  0
   28.2912  -21.4347  -16.0659 N   0  0  0  0  0  0  0  0  0  0  0  0
   27.8078  -22.4619  -16.9597 C   0  0  0  0  0  0  0  0  0  0  0  0
   28.5397  -23.4950  -17.2065 N   0  0  0  0  0  0  0  0  0  0  0  0
   26.5471  -22.3633  -17.5815 N   0  0  0  0  0  0  0  0  0  0  0  0
   25.6757  -21.2559  -17.2701 C   0  0  0  0  0  0  0  0  0  0  0  0
   25.1434  -21.4538  -15.8902 C   0  0  0  0  0  0  0  0  0  0  0  0
   23.6808  -21.2198  -15.7227 C   0  0  0  0  0  0  0  0  0  0  0  0
   23.1049  -21.3838  -14.3826 C   0  0  2  0  0  0  0  0  0  0  0  0
   21.7503  -20.9511  -14.2040 N   0  0  0  0  0  0  0  0  0  0  0  0
   23.9044  -20.6223  -13.3775 C   0  0  0  0  0  0  0  0  0  0  0  0
   23.9299  -19.3623  -13.3741 O   0  0  0  0  0  0  0  0  0  0  0  0
   28.2511  -24.1871  -17.9161 C   0  0  0  0  0  0  0  0  0  0  0  0
   26.1897  -21.0520   -7.8567 C   0  0  2  0  0  0  0  0  0  0  0  0
   26.6799  -20.4599   -9.2296 C   0  0  0  0  0  0  0  0  0  0  0  0
   28.1097  -20.9126   -9.3053 C   0  0  0  0  0  0  0  0  0  0  0  0
   25.7434  -20.9981  -10.2244 C   0  0  1  0  0  0  0  0  0  0  0  0
   25.7576  -20.5984  -11.6312 N   0  0  0  0  0  0  0  0  0  0  0  0
   24.6752  -21.2737  -12.3762 C   0  0  0  0  0  0  0  0  0  0  0  0
   27.0288  -20.7347  -12.3053 O   0  0  0  0  0  0  0  0  0  0  0  0
   27.7149  -21.8812  -12.5941 O   0  0  0  0  0  0  0  0  0  0  0  0
  2  1  1  6
  2  4  1  0
  3  2  1  0
  4  5  1  1
  6  7  2  0
  6  4  1  0
  8  9  1  0
  9 11  1  0
 10  9  2  0
 11 12  1  0
 12 13  1  0
 13 14  1  0
 15 14  1  6
 15 16  1  0
 16  6  1  0
 17 18  2  0
 17 15  1  0
 20 19  1  1
 20 22  1  0
 21 20  1  0
 23 22  1  1
 23 24  1  0
 24 17  1  0
 25 26  1  0
 25 23  1  0
 27 25  2  0
M  END
$$$$
