TRL.pdb
     RDKit          3D

 27 26  0  0  1  0  0  0  0  0999 V2000
   26.9887  -26.2169  -17.9800 C   0  0  0  0  0  0  0  0  0  0  0  0
   26.7096  -24.9797  -17.1702 C   0  0  1  0  0  0  0  0  0  0  0  0
   26.5788  -25.3384  -15.8316 O   0  0  0  0  0  0  0  0  0  0  0  0
   27.8356  -23.9629  -17.3232 C   0  0  2  0  0  0  0  0  0  0  0  0
   29.0675  -24.5614  -16.8619 N   0  0  0  0  0  0  0  0  0  0  0  0
   27.5815  -22.7516  -16.5078 C   0  0  0  0  0  0  0  0  0  0  0  0
   28.3187  -22.5498  -15.5264 O   0  0  0  0  0  0  0  0  0  0  0  0
   26.1779  -15.6160  -15.1103 N   0  0  0  0  0  0  0  0  0  0  0  0
   26.2812  -15.6249  -16.5515 C   0  0  0  0  0  0  0  0  0  0  0  0
   27.1971  -14.9281  -17.1341 N   0  0  0  0  0  0  0  0  0  0  0  0
   25.3956  -16.3775  -17.3485 N   0  0  0  0  0  0  0  0  0  0  0  0
   24.4712  -17.2952  -16.7274 C   0  0  0  0  0  0  0  0  0  0  0  0
   25.2592  -18.3126  -15.9719 C   0  0  0  0  0  0  0  0  0  0  0  0
   25.6803  -19.5117  -16.7508 C   0  0  0  0  0  0  0  0  0  0  0  0
   26.3589  -20.5973  -16.0329 C   0  0  2  0  0  0  0  0  0  0  0  0
   26.5742  -21.8154  -16.7569 N   0  0  0  0  0  0  0  0  0  0  0  0
   25.5787  -20.9848  -14.8204 C   0  0  0  0  0  0  0  0  0  0  0  0
   24.5412  -21.6954  -14.9041 O   0  0  0  0  0  0  0  0  0  0  0  0
   27.2814  -14.9248  -18.1630 C   0  0  0  0  0  0  0  0  0  0  0  0
   25.6237  -22.1231   -9.3688 C   0  0  2  0  0  0  0  0  0  0  0  0
   25.3208  -20.6268   -9.7498 C   0  0  0  0  0  0  0  0  0  0  0  0
   25.9671  -19.8538   -8.6363 C   0  0  0  0  0  0  0  0  0  0  0  0
   25.8752  -20.4652  -11.0999 C   0  0  1  0  0  0  0  0  0  0  0  0
   25.1796  -20.9116  -12.3064 N   0  0  0  0  0  0  0  0  0  0  0  0
   25.9617  -20.5755  -13.5139 C   0  0  0  0  0  0  0  0  0  0  0  0
   23.8054  -20.4807  -12.4292 O   0  0  0  0  0  0  0  0  0  0  0  0
   22.6689  -21.1865  -12.1486 O   0  0  0  0  0  0  0  0  0  0  0  0
  2  1  1  6
  2  4  1  0
  3  2  1  0
  4  5  1  1
  6  7  2  0
  6  4  1  0
  8  9  1  0
  9 11  1  0
 10  9  2  0
 11 12  1  0
 12 13  1  0
 13 14  1  0
 15 14  1  6
 15 16  1  0
 16  6  1  0
 17 18  2  0
 17 15  1  0
 20 19  1  1
 20 22  1  0
 21 20  1  0
 23 22  1  1
 23 24  1  0
 24 17  1  0
 25 26  1  0
 25 23  1  0
 27 25  2  0
M  END
$$$$
