TRL.pdb
     RDKit          3D

 27 26  0  0  1  0  0  0  0  0999 V2000
   19.4754   -9.3211  -17.1754 C   0  0  0  0  0  0  0  0  0  0  0  0
   19.5772  -10.6728  -16.5221 C   0  0  1  0  0  0  0  0  0  0  0  0
   20.3463  -10.5576  -15.3677 O   0  0  0  0  0  0  0  0  0  0  0  0
   18.1955  -11.2126  -16.1688 C   0  0  2  0  0  0  0  0  0  0  0  0
   17.4519  -11.4205  -17.3905 N   0  0  0  0  0  0  0  0  0  0  0  0
   17.4401  -10.2513  -15.3310 C   0  0  0  0  0  0  0  0  0  0  0  0
   16.9557   -9.2518  -15.8911 O   0  0  0  0  0  0  0  0  0  0  0  0
   10.8115  -12.4602  -11.3589 N   0  0  0  0  0  0  0  0  0  0  0  0
   11.2819  -12.7290  -12.6985 C   0  0  0  0  0  0  0  0  0  0  0  0
   10.6154  -13.5233  -13.4658 N   0  0  0  0  0  0  0  0  0  0  0  0
   12.4650  -12.1460  -13.1942 N   0  0  0  0  0  0  0  0  0  0  0  0
   13.2585  -11.2927  -12.3428 C   0  0  0  0  0  0  0  0  0  0  0  0
   14.4170  -10.7878  -13.1363 C   0  0  0  0  0  0  0  0  0  0  0  0
   15.3682   -9.9066  -12.4010 C   0  0  0  0  0  0  0  0  0  0  0  0
   16.5614   -9.4335  -13.1128 C   0  0  2  0  0  0  0  0  0  0  0  0
   17.2294  -10.3810  -13.9555 N   0  0  0  0  0  0  0  0  0  0  0  0
   17.5934   -8.9644  -12.1412 C   0  0  0  0  0  0  0  0  0  0  0  0
   18.6669   -9.6000  -11.9626 O   0  0  0  0  0  0  0  0  0  0  0  0
   10.9556  -13.7468  -14.4146 C   0  0  0  0  0  0  0  0  0  0  0  0
   20.8410   -4.7650  -11.7563 C   0  0  2  0  0  0  0  0  0  0  0  0
   20.8737   -6.1784  -11.0656 C   0  0  0  0  0  0  0  0  0  0  0  0
   20.9853   -5.8425   -9.6063 C   0  0  0  0  0  0  0  0  0  0  0  0
   19.6452   -6.8438  -11.5175 C   0  0  1  0  0  0  0  0  0  0  0  0
   18.5259   -7.1432  -10.6251 N   0  0  0  0  0  0  0  0  0  0  0  0
   17.4217   -7.7827  -11.3697 C   0  0  0  0  0  0  0  0  0  0  0  0
   18.0531   -6.0364   -9.8249 O   0  0  0  0  0  0  0  0  0  0  0  0
   18.4064   -5.7043   -8.5468 O   0  0  0  0  0  0  0  0  0  0  0  0
  2  1  1  1
  2  4  1  0
  3  2  1  0
  4  5  1  6
  6  7  2  0
  6  4  1  0
  8  9  1  0
  9 11  1  0
 10  9  2  0
 11 12  1  0
 12 13  1  0
 13 14  1  0
 15 14  1  1
 15 16  1  0
 16  6  1  0
 17 18  2  0
 17 15  1  0
 20 19  1  6
 20 22  1  0
 21 20  1  0
 23 22  1  1
 23 24  1  0
 24 17  1  0
 25 26  1  0
 25 23  1  0
 27 25  2  0
M  END
$$$$
