TRL.pdb
     RDKit          3D

 27 26  0  0  1  0  0  0  0  0999 V2000
   29.3048  -20.6879  -14.9442 C   0  0  0  0  0  0  0  0  0  0  0  0
   28.6003  -20.3010  -13.6721 C   0  0  1  0  0  0  0  0  0  0  0  0
   28.9715  -19.0041  -13.3289 O   0  0  0  0  0  0  0  0  0  0  0  0
   27.0868  -20.3754  -13.8432 C   0  0  2  0  0  0  0  0  0  0  0  0
   26.6915  -19.4539  -14.8840 N   0  0  0  0  0  0  0  0  0  0  0  0
   26.3846  -19.9873  -12.5971 C   0  0  0  0  0  0  0  0  0  0  0  0
   25.8800  -18.8514  -12.5471 O   0  0  0  0  0  0  0  0  0  0  0  0
   21.0470  -21.1740  -11.6067 N   0  0  0  0  0  0  0  0  0  0  0  0
   20.6566  -20.1122  -10.7078 C   0  0  0  0  0  0  0  0  0  0  0  0
   19.9316  -19.1376  -11.1416 N   0  0  0  0  0  0  0  0  0  0  0  0
   21.0552  -20.1080   -9.3562 N   0  0  0  0  0  0  0  0  0  0  0  0
   21.9871  -21.1003   -8.8775 C   0  0  0  0  0  0  0  0  0  0  0  0
   23.3631  -20.5296   -8.9643 C   0  0  0  0  0  0  0  0  0  0  0  0
   24.1301  -20.8780  -10.1941 C   0  0  0  0  0  0  0  0  0  0  0  0
   25.5365  -20.4648  -10.2703 C   0  0  2  0  0  0  0  0  0  0  0  0
   26.2450  -20.8016  -11.4698 N   0  0  0  0  0  0  0  0  0  0  0  0
   26.3189  -21.0795   -9.1571 C   0  0  0  0  0  0  0  0  0  0  0  0
   27.3396  -21.7843   -9.3804 O   0  0  0  0  0  0  0  0  0  0  0  0
   19.6204  -18.3883  -10.5032 C   0  0  0  0  0  0  0  0  0  0  0  0
   28.5019  -18.9612   -4.8719 C   0  0  2  0  0  0  0  0  0  0  0  0
   29.1488  -19.5863   -6.1627 C   0  0  0  0  0  0  0  0  0  0  0  0
   29.9220  -20.7558   -5.6247 C   0  0  0  0  0  0  0  0  0  0  0  0
   28.0133  -19.8725   -7.0488 C   0  0  2  0  0  0  0  0  0  0  0  0
   26.9513  -20.8171   -6.7043 N   0  0  0  0  0  0  0  0  0  0  0  0
   25.9569  -20.9039   -7.7936 C   0  0  0  0  0  0  0  0  0  0  0  0
   26.3160  -20.6014   -5.4241 O   0  0  0  0  0  0  0  0  0  0  0  0
   26.6581  -21.1285   -4.2101 O   0  0  0  0  0  0  0  0  0  0  0  0
  2  1  1  6
  2  4  1  0
  3  2  1  0
  4  5  1  6
  6  7  2  0
  6  4  1  0
  8  9  1  0
  9 11  1  0
 10  9  2  0
 11 12  1  0
 12 13  1  0
 13 14  1  0
 15 14  1  6
 15 16  1  0
 16  6  1  0
 17 18  2  0
 17 15  1  0
 20 19  1  1
 20 22  1  0
 21 20  1  0
 23 22  1  6
 23 24  1  0
 24 17  1  0
 25 26  1  0
 25 23  1  0
 27 25  2  0
M  END
$$$$
