TRL.pdb
     RDKit          3D

 27 26  0  0  1  0  0  0  0  0999 V2000
   21.5813  -21.9221  -10.0182 C   0  0  0  0  0  0  0  0  0  0  0  0
   22.5586  -21.0982  -10.8121 C   0  0  1  0  0  0  0  0  0  0  0  0
   22.0964  -19.7866  -10.8723 O   0  0  0  0  0  0  0  0  0  0  0  0
   23.9423  -21.1278  -10.1721 C   0  0  2  0  0  0  0  0  0  0  0  0
   23.8788  -20.4496   -8.8975 N   0  0  0  0  0  0  0  0  0  0  0  0
   24.9402  -20.4269  -11.0145 C   0  0  0  0  0  0  0  0  0  0  0  0
   25.3062  -19.2935  -10.6557 O   0  0  0  0  0  0  0  0  0  0  0  0
   31.8228  -20.5346  -10.4977 N   0  0  0  0  0  0  0  0  0  0  0  0
   31.3209  -21.8591  -10.7836 C   0  0  0  0  0  0  0  0  0  0  0  0
   31.5444  -22.8230   -9.9562 N   0  0  0  0  0  0  0  0  0  0  0  0
   30.5907  -22.1322  -11.9575 N   0  0  0  0  0  0  0  0  0  0  0  0
   30.2596  -21.0602  -12.8650 C   0  0  0  0  0  0  0  0  0  0  0  0
   28.9464  -20.4856  -12.4504 C   0  0  0  0  0  0  0  0  0  0  0  0
   27.7576  -20.9878  -13.1965 C   0  0  0  0  0  0  0  0  0  0  0  0
   26.4797  -20.2908  -13.0076 C   0  0  2  0  0  0  0  0  0  0  0  0
   25.5035  -20.9425  -12.1850 N   0  0  0  0  0  0  0  0  0  0  0  0
   25.8103  -20.0688  -14.3237 C   0  0  0  0  0  0  0  0  0  0  0  0
   25.2106  -21.0013  -14.9231 O   0  0  0  0  0  0  0  0  0  0  0  0
   31.2059  -23.7776  -10.1563 C   0  0  0  0  0  0  0  0  0  0  0  0
   23.2660  -15.3169  -16.1251 C   0  0  1  0  0  0  0  0  0  0  0  0
   23.5245  -16.7936  -15.6474 C   0  0  0  0  0  0  0  0  0  0  0  0
   22.2088  -17.4704  -15.9039 C   0  0  0  0  0  0  0  0  0  0  0  0
   24.6831  -17.2423  -16.4301 C   0  0  2  0  0  0  0  0  0  0  0  0
   25.2505  -18.5854  -16.3164 N   0  0  0  0  0  0  0  0  0  0  0  0
   25.8134  -18.8014  -14.9675 C   0  0  0  0  0  0  0  0  0  0  0  0
   26.1934  -18.9533  -17.3482 O   0  0  0  0  0  0  0  0  0  0  0  0
   27.5346  -19.1871  -17.2248 O   0  0  0  0  0  0  0  0  0  0  0  0
  2  1  1  1
  2  4  1  0
  3  2  1  0
  4  5  1  1
  6  7  2  0
  6  4  1  0
  8  9  1  0
  9 11  1  0
 10  9  2  0
 11 12  1  0
 12 13  1  0
 13 14  1  0
 15 14  1  6
 15 16  1  0
 16  6  1  0
 17 18  2  0
 17 15  1  0
 20 19  1  1
 20 22  1  0
 21 20  1  0
 23 22  1  1
 23 24  1  0
 24 17  1  0
 25 26  1  0
 25 23  1  0
 27 25  2  0
M  END
$$$$
