TRL.pdb
     RDKit          3D

 27 26  0  0  1  0  0  0  0  0999 V2000
   12.4383  -18.5905   -5.5426 C   0  0  0  0  0  0  0  0  0  0  0  0
   12.8811  -19.8673   -4.8809 C   0  0  1  0  0  0  0  0  0  0  0  0
   12.2244  -19.9923   -3.6599 O   0  0  0  0  0  0  0  0  0  0  0  0
   12.5682  -21.0735   -5.7598 C   0  0  2  0  0  0  0  0  0  0  0  0
   11.1350  -21.1742   -5.9167 N   0  0  0  0  0  0  0  0  0  0  0  0
   13.0504  -22.3306   -5.1403 C   0  0  0  0  0  0  0  0  0  0  0  0
   12.2101  -23.0628   -4.5881 O   0  0  0  0  0  0  0  0  0  0  0  0
   19.0561  -26.9734   -8.6646 N   0  0  0  0  0  0  0  0  0  0  0  0
   18.4729  -25.6542   -8.7533 C   0  0  0  0  0  0  0  0  0  0  0  0
   18.8712  -24.8363   -9.6677 N   0  0  0  0  0  0  0  0  0  0  0  0
   17.4741  -25.2289   -7.8550 N   0  0  0  0  0  0  0  0  0  0  0  0
   16.8556  -26.1801   -6.9633 C   0  0  0  0  0  0  0  0  0  0  0  0
   15.6814  -25.5219   -6.3192 C   0  0  0  0  0  0  0  0  0  0  0  0
   15.9933  -24.6303   -5.1660 C   0  0  0  0  0  0  0  0  0  0  0  0
   14.8775  -23.9473   -4.5006 C   0  0  2  0  0  0  0  0  0  0  0  0
   14.3809  -22.7583   -5.1282 N   0  0  0  0  0  0  0  0  0  0  0  0
   15.2696  -23.5371   -3.1196 C   0  0  0  0  0  0  0  0  0  0  0  0
   15.5649  -22.3428   -2.8461 O   0  0  0  0  0  0  0  0  0  0  0  0
   18.4471  -23.8992   -9.7565 C   0  0  0  0  0  0  0  0  0  0  0  0
   15.7360  -20.9870    0.8758 C   0  0  2  0  0  0  0  0  0  0  0  0
   14.8718  -22.2891    1.0584 C   0  0  0  0  0  0  0  0  0  0  0  0
   13.5858  -21.7673    1.6319 C   0  0  0  0  0  0  0  0  0  0  0  0
   14.8229  -22.8958   -0.2779 C   0  0  1  0  0  0  0  0  0  0  0  0
   15.6180  -24.0645   -0.6527 N   0  0  0  0  0  0  0  0  0  0  0  0
   15.3307  -24.4661   -2.0452 C   0  0  0  0  0  0  0  0  0  0  0  0
   15.5359  -25.1902    0.2501 O   0  0  0  0  0  0  0  0  0  0  0  0
   16.3060  -25.4519    1.3488 O   0  0  0  0  0  0  0  0  0  0  0  0
  2  1  1  6
  2  4  1  0
  3  2  1  0
  4  5  1  1
  6  7  2  0
  6  4  1  0
  8  9  1  0
  9 11  1  0
 10  9  2  0
 11 12  1  0
 12 13  1  0
 13 14  1  0
 15 14  1  6
 15 16  1  0
 16  6  1  0
 17 18  2  0
 17 15  1  0
 20 19  1  1
 20 22  1  0
 21 20  1  0
 23 22  1  6
 23 24  1  0
 24 17  1  0
 25 26  1  0
 25 23  1  0
 27 25  2  0
M  END
$$$$
