TRL.pdb
     RDKit          3D

 27 26  0  0  1  0  0  0  0  0999 V2000
   23.5319  -17.1582  -18.6400 C   0  0  0  0  0  0  0  0  0  0  0  0
   24.9259  -16.7399  -18.2581 C   0  0  1  0  0  0  0  0  0  0  0  0
   24.9812  -16.5664  -16.8781 O   0  0  0  0  0  0  0  0  0  0  0  0
   25.9462  -17.7890  -18.6866 C   0  0  2  0  0  0  0  0  0  0  0  0
   25.8734  -17.9486  -20.1211 N   0  0  0  0  0  0  0  0  0  0  0  0
   25.6604  -19.1035  -18.0646 C   0  0  0  0  0  0  0  0  0  0  0  0
   24.6818  -19.7436  -18.4887 O   0  0  0  0  0  0  0  0  0  0  0  0
   28.4323  -26.0358  -16.3312 N   0  0  0  0  0  0  0  0  0  0  0  0
   29.3763  -25.3206  -17.1591 C   0  0  0  0  0  0  0  0  0  0  0  0
   29.8450  -25.8755  -18.2249 N   0  0  0  0  0  0  0  0  0  0  0  0
   29.8090  -24.0211  -16.8279 N   0  0  0  0  0  0  0  0  0  0  0  0
   29.0894  -23.2525  -15.8410 C   0  0  0  0  0  0  0  0  0  0  0  0
   27.9299  -22.5969  -16.5136 C   0  0  0  0  0  0  0  0  0  0  0  0
   27.1824  -21.6044  -15.6901 C   0  0  0  0  0  0  0  0  0  0  0  0
   26.0736  -20.8791  -16.3217 C   0  0  2  0  0  0  0  0  0  0  0  0
   26.4077  -19.6815  -17.0346 N   0  0  0  0  0  0  0  0  0  0  0  0
   25.0710  -20.4674  -15.2948 C   0  0  0  0  0  0  0  0  0  0  0  0
   25.1410  -19.3495  -14.7171 O   0  0  0  0  0  0  0  0  0  0  0  0
   30.4862  -25.3598  -18.8484 C   0  0  0  0  0  0  0  0  0  0  0  0
   21.3273  -17.7155  -14.2358 C   0  0  2  0  0  0  0  0  0  0  0  0
   20.9315  -19.0248  -15.0135 C   0  0  0  0  0  0  0  0  0  0  0  0
   20.1859  -18.5005  -16.2069 C   0  0  0  0  0  0  0  0  0  0  0  0
   22.2049  -19.7142  -15.2572 C   0  0  1  0  0  0  0  0  0  0  0  0
   22.7087  -20.7858  -14.3989 N   0  0  0  0  0  0  0  0  0  0  0  0
   23.9900  -21.3092  -14.9156 C   0  0  0  0  0  0  0  0  0  0  0  0
   21.7747  -21.8532  -14.1210 O   0  0  0  0  0  0  0  0  0  0  0  0
   21.7300  -23.1035  -14.6719 O   0  0  0  0  0  0  0  0  0  0  0  0
  2  1  1  1
  2  4  1  0
  3  2  1  0
  4  5  1  6
  6  7  2  0
  6  4  1  0
  8  9  1  0
  9 11  1  0
 10  9  2  0
 11 12  1  0
 12 13  1  0
 13 14  1  0
 15 14  1  1
 15 16  1  0
 16  6  1  0
 17 18  2  0
 17 15  1  0
 20 19  1  1
 20 22  1  0
 21 20  1  0
 23 22  1  1
 23 24  1  0
 24 17  1  0
 25 26  1  0
 25 23  1  0
 27 25  2  0
M  END
$$$$
