TRL.pdb
     RDKit          3D

 27 26  0  0  1  0  0  0  0  0999 V2000
   25.1733  -27.8570  -16.8421 C   0  0  0  0  0  0  0  0  0  0  0  0
   25.1714  -26.4585  -16.2869 C   0  0  1  0  0  0  0  0  0  0  0  0
   25.5780  -26.5023  -14.9564 O   0  0  0  0  0  0  0  0  0  0  0  0
   26.1079  -25.5553  -17.0822 C   0  0  2  0  0  0  0  0  0  0  0  0
   27.4545  -26.0677  -16.9686 N   0  0  0  0  0  0  0  0  0  0  0  0
   26.0986  -24.1709  -16.5530 C   0  0  0  0  0  0  0  0  0  0  0  0
   27.0536  -23.8185  -15.8381 O   0  0  0  0  0  0  0  0  0  0  0  0
   23.1889  -15.9145  -16.4028 N   0  0  0  0  0  0  0  0  0  0  0  0
   24.2265  -16.2657  -17.3452 C   0  0  0  0  0  0  0  0  0  0  0  0
   25.1036  -15.3858  -17.6921 N   0  0  0  0  0  0  0  0  0  0  0  0
   24.3047  -17.5555  -17.9072 N   0  0  0  0  0  0  0  0  0  0  0  0
   23.3955  -18.5874  -17.4703 C   0  0  0  0  0  0  0  0  0  0  0  0
   24.1471  -19.5318  -16.5928 C   0  0  0  0  0  0  0  0  0  0  0  0
   24.3865  -20.8891  -17.1607 C   0  0  0  0  0  0  0  0  0  0  0  0
   25.0816  -21.8743  -16.3238 C   0  0  2  0  0  0  0  0  0  0  0  0
   25.0964  -23.2276  -16.7957 N   0  0  0  0  0  0  0  0  0  0  0  0
   24.4631  -21.9304  -14.9660 C   0  0  0  0  0  0  0  0  0  0  0  0
   23.3940  -22.5635  -14.7550 O   0  0  0  0  0  0  0  0  0  0  0  0
   25.8677  -15.6320  -18.3411 C   0  0  0  0  0  0  0  0  0  0  0  0
   25.2762  -22.0811   -9.4934 C   0  0  2  0  0  0  0  0  0  0  0  0
   25.0422  -20.6399  -10.0797 C   0  0  0  0  0  0  0  0  0  0  0  0
   25.9317  -19.7778   -9.2309 C   0  0  0  0  0  0  0  0  0  0  0  0
   25.3714  -20.7586  -11.5058 C   0  0  1  0  0  0  0  0  0  0  0  0
   24.4552  -21.3325  -12.4907 N   0  0  0  0  0  0  0  0  0  0  0  0
   25.0434  -21.2767  -13.8449 C   0  0  0  0  0  0  0  0  0  0  0  0
   23.1110  -20.8016  -12.4755 O   0  0  0  0  0  0  0  0  0  0  0  0
   21.9924  -21.3459  -11.9089 O   0  0  0  0  0  0  0  0  0  0  0  0
  2  1  1  6
  2  4  1  0
  3  2  1  0
  4  5  1  1
  6  7  2  0
  6  4  1  0
  8  9  1  0
  9 11  1  0
 10  9  2  0
 11 12  1  0
 12 13  1  0
 13 14  1  0
 15 14  1  6
 15 16  1  0
 16  6  1  0
 17 18  2  0
 17 15  1  0
 20 19  1  1
 20 22  1  0
 21 20  1  0
 23 22  1  1
 23 24  1  0
 24 17  1  0
 25 26  1  0
 25 23  1  0
 27 25  2  0
M  END
$$$$
