TRL.pdb
     RDKit          3D

 27 26  0  0  1  0  0  0  0  0999 V2000
   27.6516  -17.1654  -18.4632 C   0  0  0  0  0  0  0  0  0  0  0  0
   26.7365  -17.9840  -17.5934 C   0  0  1  0  0  0  0  0  0  0  0  0
   25.6844  -18.4603  -18.3703 O   0  0  0  0  0  0  0  0  0  0  0  0
   27.4848  -19.1553  -16.9659 C   0  0  2  0  0  0  0  0  0  0  0  0
   27.9999  -19.9964  -18.0223 N   0  0  0  0  0  0  0  0  0  0  0  0
   26.5862  -19.9783  -16.1224 C   0  0  0  0  0  0  0  0  0  0  0  0
   26.0522  -20.9728  -16.6450 O   0  0  0  0  0  0  0  0  0  0  0  0
   26.1869  -19.7437   -8.1109 N   0  0  0  0  0  0  0  0  0  0  0  0
   25.3230  -20.7371   -8.7066 C   0  0  0  0  0  0  0  0  0  0  0  0
   24.1940  -21.0221   -8.1517 N   0  0  0  0  0  0  0  0  0  0  0  0
   25.6858  -21.4157   -9.8870 N   0  0  0  0  0  0  0  0  0  0  0  0
   26.9335  -21.1041  -10.5418 C   0  0  0  0  0  0  0  0  0  0  0  0
   26.7186  -21.1783  -12.0166 C   0  0  0  0  0  0  0  0  0  0  0  0
   25.5385  -20.4300  -12.5356 C   0  0  0  0  0  0  0  0  0  0  0  0
   25.3168  -20.4116  -13.9864 C   0  0  2  0  0  0  0  0  0  0  0  0
   26.2910  -19.7226  -14.7804 N   0  0  0  0  0  0  0  0  0  0  0  0
   24.0102  -19.7624  -14.3034 C   0  0  0  0  0  0  0  0  0  0  0  0
   23.9536  -18.6187  -14.8300 O   0  0  0  0  0  0  0  0  0  0  0  0
   23.5693  -21.7330   -8.5644 C   0  0  0  0  0  0  0  0  0  0  0  0
   20.9822  -19.2547  -18.3077 C   0  0  2  0  0  0  0  0  0  0  0  0
   20.4403  -19.2456  -16.8306 C   0  0  0  0  0  0  0  0  0  0  0  0
   19.1874  -20.0682  -16.9218 C   0  0  0  0  0  0  0  0  0  0  0  0
   21.5455  -19.7784  -16.0237 C   0  0  1  0  0  0  0  0  0  0  0  0
   21.4815  -19.9048  -14.5681 N   0  0  0  0  0  0  0  0  0  0  0  0
   22.7670  -20.3954  -14.0301 C   0  0  0  0  0  0  0  0  0  0  0  0
   20.3673  -20.6708  -14.0572 O   0  0  0  0  0  0  0  0  0  0  0  0
   19.1031  -20.2373  -13.7700 O   0  0  0  0  0  0  0  0  0  0  0  0
  2  1  1  6
  2  4  1  0
  3  2  1  0
  4  5  1  6
  6  7  2  0
  6  4  1  0
  8  9  1  0
  9 11  1  0
 10  9  2  0
 11 12  1  0
 12 13  1  0
 13 14  1  0
 15 14  1  1
 15 16  1  0
 16  6  1  0
 17 18  2  0
 17 15  1  0
 20 19  1  6
 20 22  1  0
 21 20  1  0
 23 22  1  1
 23 24  1  0
 24 17  1  0
 25 26  1  0
 25 23  1  0
 27 25  2  0
M  END
$$$$
