TRL.pdb
     RDKit          3D

 27 26  0  0  1  0  0  0  0  0999 V2000
   26.2097  -15.6205  -19.5439 C   0  0  0  0  0  0  0  0  0  0  0  0
   25.0939  -16.4412  -18.9560 C   0  0  1  0  0  0  0  0  0  0  0  0
   24.0255  -16.4523  -19.8481 O   0  0  0  0  0  0  0  0  0  0  0  0
   25.5529  -17.8698  -18.6843 C   0  0  2  0  0  0  0  0  0  0  0  0
   25.8699  -18.5030  -19.9441 N   0  0  0  0  0  0  0  0  0  0  0  0
   24.4859  -18.6626  -18.0290 C   0  0  0  0  0  0  0  0  0  0  0  0
   23.5917  -19.1377  -18.7514 O   0  0  0  0  0  0  0  0  0  0  0  0
   23.8258  -24.5736  -14.7988 N   0  0  0  0  0  0  0  0  0  0  0  0
   25.2609  -24.4128  -14.8470 C   0  0  0  0  0  0  0  0  0  0  0  0
   25.9735  -25.2163  -15.5614 N   0  0  0  0  0  0  0  0  0  0  0  0
   25.9125  -23.3949  -14.1224 N   0  0  0  0  0  0  0  0  0  0  0  0
   25.1936  -22.1978  -13.7579 C   0  0  0  0  0  0  0  0  0  0  0  0
   24.5060  -21.6766  -14.9754 C   0  0  0  0  0  0  0  0  0  0  0  0
   23.7502  -20.4045  -14.7952 C   0  0  0  0  0  0  0  0  0  0  0  0
   23.3678  -19.6531  -15.9967 C   0  0  2  0  0  0  0  0  0  0  0  0
   24.4061  -18.9185  -16.6573 N   0  0  0  0  0  0  0  0  0  0  0  0
   22.3140  -18.6482  -15.6668 C   0  0  0  0  0  0  0  0  0  0  0  0
   22.5996  -17.4383  -15.4597 O   0  0  0  0  0  0  0  0  0  0  0  0
   26.9944  -25.0848  -15.6413 C   0  0  0  0  0  0  0  0  0  0  0  0
   18.9465  -15.4653  -18.0261 C   0  0  2  0  0  0  0  0  0  0  0  0
   18.9157  -15.9037  -16.5153 C   0  0  0  0  0  0  0  0  0  0  0  0
   17.4719  -16.2498  -16.2899 C   0  0  0  0  0  0  0  0  0  0  0  0
   19.8975  -16.9915  -16.4216 C   0  0  1  0  0  0  0  0  0  0  0  0
   19.8692  -18.0027  -15.3654 N   0  0  0  0  0  0  0  0  0  0  0  0
   20.9401  -18.9999  -15.5691 C   0  0  0  0  0  0  0  0  0  0  0  0
   18.5898  -18.6379  -15.1445 O   0  0  0  0  0  0  0  0  0  0  0  0
   17.5443  -18.1935  -14.3842 O   0  0  0  0  0  0  0  0  0  0  0  0
  2  1  1  6
  2  4  1  0
  3  2  1  0
  4  5  1  6
  6  7  2  0
  6  4  1  0
  8  9  1  0
  9 11  1  0
 10  9  2  0
 11 12  1  0
 12 13  1  0
 13 14  1  0
 15 14  1  1
 15 16  1  0
 16  6  1  0
 17 18  2  0
 17 15  1  0
 20 19  1  1
 20 22  1  0
 21 20  1  0
 23 22  1  1
 23 24  1  0
 24 17  1  0
 25 26  1  0
 25 23  1  0
 27 25  2  0
M  END
$$$$
