GIS.pdb
     RDKit          3D

 19 18  0  0  1  0  0  0  0  0999 V2000
    8.4644  -17.7548   16.2667 N   0  0  0  0  0  0  0  0  0  0  0  0
    7.8709  -17.9009   17.5575 C   0  0  0  0  0  0  0  0  0  0  0  0
    8.5464  -17.0502   18.5582 C   0  0  0  0  0  0  0  0  0  0  0  0
    9.8242  -17.0821   18.5789 O   0  0  0  0  0  0  0  0  0  0  0  0
    6.9050  -12.0321   20.0436 C   0  0  0  0  0  0  0  0  0  0  0  0
    7.7273  -13.2396   19.7027 C   0  0  0  0  0  0  0  0  0  0  0  0
    7.9194  -14.1995   20.8497 C   0  0  2  0  0  0  0  0  0  0  0  0
    8.7149  -13.5768   21.9757 C   0  0  0  0  0  0  0  0  0  0  0  0
    8.5935  -15.4691   20.4429 C   0  0  2  0  0  0  0  0  0  0  0  0
    7.8414  -16.2219   19.4718 N   0  0  0  0  0  0  0  0  0  0  0  0
    8.8958  -16.3125   21.6393 C   0  0  0  0  0  0  0  0  0  0  0  0
    8.0378  -16.9479   22.2913 O   0  0  0  0  0  0  0  0  0  0  0  0
   11.8222  -18.6837   21.8391 O   0  0  0  0  0  0  0  0  0  0  0  0
   11.8882  -18.0114   23.0413 C   0  0  0  0  0  0  0  0  0  0  0  0
   10.5671  -17.2705   23.2430 C   0  0  2  0  0  0  0  0  0  0  0  0
   10.2543  -16.4298   22.1081 N   0  0  0  0  0  0  0  0  0  0  0  0
   10.6175  -16.4748   24.4865 C   0  0  0  0  0  0  0  0  0  0  0  0
   10.5205  -15.2319   24.4540 O   0  0  0  0  0  0  0  0  0  0  0  0
   10.7738  -17.0875   25.7217 O   0  0  0  0  0  0  0  0  0  0  0  0
  2  3  1  0
  2  1  1  0
  3  4  2  0
  5  6  1  0
  6  7  1  0
  7  8  1  1
  9  7  1  0
 10  3  1  0
  9 10  1  6
 11 16  1  0
 11  9  1  0
 12 11  2  0
 13 14  1  0
 15 16  1  0
 15 14  1  6
 17 19  1  0
 17 15  1  0
 18 17  2  0
M  END
$$$$
