GIS.pdb
     RDKit          3D

 19 18  0  0  1  0  0  0  0  0999 V2000
    4.9018  -19.2718   24.0136 N   0  0  0  0  0  0  0  0  0  0  0  0
    5.4072  -18.5222   25.1192 C   0  0  0  0  0  0  0  0  0  0  0  0
    6.1313  -17.3178   24.6647 C   0  0  0  0  0  0  0  0  0  0  0  0
    6.3068  -17.1872   23.4052 O   0  0  0  0  0  0  0  0  0  0  0  0
    6.0710  -12.3430   27.0269 C   0  0  0  0  0  0  0  0  0  0  0  0
    6.1562  -13.4150   25.9809 C   0  0  0  0  0  0  0  0  0  0  0  0
    7.5110  -14.0689   25.8759 C   0  0  2  0  0  0  0  0  0  0  0  0
    8.5487  -13.1234   25.3125 C   0  0  0  0  0  0  0  0  0  0  0  0
    7.4992  -15.3074   25.0406 C   0  0  2  0  0  0  0  0  0  0  0  0
    6.6245  -16.3288   25.5572 N   0  0  0  0  0  0  0  0  0  0  0  0
    8.8847  -15.8415   24.8700 C   0  0  0  0  0  0  0  0  0  0  0  0
    9.5140  -16.4686   25.7508 O   0  0  0  0  0  0  0  0  0  0  0  0
   10.1297  -16.7041   21.1671 O   0  0  0  0  0  0  0  0  0  0  0  0
   11.2148  -16.2610   21.8937 C   0  0  0  0  0  0  0  0  0  0  0  0
   10.8428  -16.3047   23.3752 C   0  0  2  0  0  0  0  0  0  0  0  0
    9.5801  -15.6435   23.6225 N   0  0  0  0  0  0  0  0  0  0  0  0
   11.9189  -15.6990   24.1856 C   0  0  0  0  0  0  0  0  0  0  0  0
   11.6942  -14.7069   24.9071 O   0  0  0  0  0  0  0  0  0  0  0  0
   13.2065  -16.2164   24.1660 O   0  0  0  0  0  0  0  0  0  0  0  0
  2  3  1  0
  2  1  1  0
  3  4  2  0
  5  6  1  0
  6  7  1  0
  7  8  1  6
  9  7  1  0
 10  3  1  0
  9 10  1  1
 11 16  1  0
 11  9  1  0
 12 11  2  0
 13 14  1  0
 15 16  1  0
 15 14  1  6
 17 19  1  0
 17 15  1  0
 18 17  2  0
M  END
$$$$
