GIS.pdb
     RDKit          3D

 19 18  0  0  1  0  0  0  0  0999 V2000
    4.7244  -18.5363   23.0786 N   0  0  0  0  0  0  0  0  0  0  0  0
    5.0410  -17.9810   24.3557 C   0  0  0  0  0  0  0  0  0  0  0  0
    6.0152  -16.8776   24.2345 C   0  0  0  0  0  0  0  0  0  0  0  0
    6.5213  -16.6749   23.0782 O   0  0  0  0  0  0  0  0  0  0  0  0
    5.9893  -12.1160   26.9289 C   0  0  0  0  0  0  0  0  0  0  0  0
    6.2507  -13.1156   25.8412 C   0  0  0  0  0  0  0  0  0  0  0  0
    7.4605  -13.9840   26.0787 C   0  0  2  0  0  0  0  0  0  0  0  0
    8.7488  -13.2053   25.9291 C   0  0  0  0  0  0  0  0  0  0  0  0
    7.5177  -15.1681   25.1696 C   0  0  2  0  0  0  0  0  0  0  0  0
    6.3965  -16.0583   25.3305 N   0  0  0  0  0  0  0  0  0  0  0  0
    8.8039  -15.9082   25.3480 C   0  0  0  0  0  0  0  0  0  0  0  0
    9.0502  -16.6776   26.3033 O   0  0  0  0  0  0  0  0  0  0  0  0
   11.0577  -16.6269   22.0330 O   0  0  0  0  0  0  0  0  0  0  0  0
   11.8624  -16.4609   23.1405 C   0  0  0  0  0  0  0  0  0  0  0  0
   10.9978  -16.6468   24.3867 C   0  0  2  0  0  0  0  0  0  0  0  0
    9.8592  -15.7546   24.3776 N   0  0  0  0  0  0  0  0  0  0  0  0
   11.8119  -16.4451   25.6026 C   0  0  0  0  0  0  0  0  0  0  0  0
   12.7923  -17.1773   25.8438 O   0  0  0  0  0  0  0  0  0  0  0  0
   11.5084  -15.4376   26.5073 O   0  0  0  0  0  0  0  0  0  0  0  0
  2  3  1  0
  2  1  1  0
  3  4  2  0
  5  6  1  0
  6  7  1  0
  7  8  1  6
  9  7  1  0
 10  3  1  0
  9 10  1  1
 11 16  1  0
 11  9  1  0
 12 11  2  0
 13 14  1  0
 15 16  1  0
 15 14  1  6
 17 19  1  0
 17 15  1  0
 18 17  2  0
M  END
$$$$
