GIS.pdb
     RDKit          3D

 19 18  0  0  1  0  0  0  0  0999 V2000
    3.8334  -18.5545   21.2491 N   0  0  0  0  0  0  0  0  0  0  0  0
    4.2873  -17.4362   22.0126 C   0  0  0  0  0  0  0  0  0  0  0  0
    5.6908  -17.1036   21.6946 C   0  0  0  0  0  0  0  0  0  0  0  0
    6.3515  -17.9630   21.0171 O   0  0  0  0  0  0  0  0  0  0  0  0
    7.2721  -12.2059   20.1570 C   0  0  0  0  0  0  0  0  0  0  0  0
    7.2083  -13.6981   20.2984 C   0  0  0  0  0  0  0  0  0  0  0  0
    7.9999  -14.2424   21.4608 C   0  0  2  0  0  0  0  0  0  0  0  0
    9.4901  -14.1120   21.2354 C   0  0  0  0  0  0  0  0  0  0  0  0
    7.6921  -15.6736   21.7586 C   0  0  2  0  0  0  0  0  0  0  0  0
    6.3114  -15.8938   22.1060 N   0  0  0  0  0  0  0  0  0  0  0  0
    8.5918  -16.1940   22.8327 C   0  0  0  0  0  0  0  0  0  0  0  0
    8.4796  -15.9127   24.0466 O   0  0  0  0  0  0  0  0  0  0  0  0
   10.2282  -19.8710   22.8444 O   0  0  0  0  0  0  0  0  0  0  0  0
   11.2044  -18.9210   23.0597 C   0  0  0  0  0  0  0  0  0  0  0  0
   10.5209  -17.6364   23.5261 C   0  0  2  0  0  0  0  0  0  0  0  0
    9.6747  -17.0826   22.4916 N   0  0  0  0  0  0  0  0  0  0  0  0
   11.5339  -16.6516   23.9574 C   0  0  0  0  0  0  0  0  0  0  0  0
   11.8601  -15.7038   23.2154 O   0  0  0  0  0  0  0  0  0  0  0  0
   12.1486  -16.7544   25.1973 O   0  0  0  0  0  0  0  0  0  0  0  0
  2  3  1  0
  2  1  1  0
  3  4  2  0
  5  6  1  0
  6  7  1  0
  7  8  1  6
  9  7  1  0
 10  3  1  0
  9 10  1  1
 11 16  1  0
 11  9  1  0
 12 11  2  0
 13 14  1  0
 15 16  1  0
 15 14  1  6
 17 19  1  0
 17 15  1  0
 18 17  2  0
M  END
$$$$
