GIS.pdb
     RDKit          3D

 19 18  0  0  1  0  0  0  0  0999 V2000
    4.7313  -18.8339   23.3945 N   0  0  0  0  0  0  0  0  0  0  0  0
    5.1436  -18.2632   24.6370 C   0  0  0  0  0  0  0  0  0  0  0  0
    6.0513  -17.1173   24.4263 C   0  0  0  0  0  0  0  0  0  0  0  0
    6.5455  -16.9763   23.2558 O   0  0  0  0  0  0  0  0  0  0  0  0
    5.8430  -12.0900   26.8775 C   0  0  0  0  0  0  0  0  0  0  0  0
    6.0617  -13.1646   25.8538 C   0  0  0  0  0  0  0  0  0  0  0  0
    7.2851  -14.0114   26.0995 C   0  0  2  0  0  0  0  0  0  0  0  0
    8.5597  -13.2067   25.9723 C   0  0  0  0  0  0  0  0  0  0  0  0
    7.3765  -15.1867   25.1819 C   0  0  2  0  0  0  0  0  0  0  0  0
    6.3829  -16.1939   25.4536 N   0  0  0  0  0  0  0  0  0  0  0  0
    8.7477  -15.7800   25.2199 C   0  0  0  0  0  0  0  0  0  0  0  0
    9.2538  -16.3267   26.2250 O   0  0  0  0  0  0  0  0  0  0  0  0
   11.1779  -15.4975   21.9019 O   0  0  0  0  0  0  0  0  0  0  0  0
   11.1857  -16.7498   22.4794 C   0  0  0  0  0  0  0  0  0  0  0  0
   10.7336  -16.6046   23.9318 C   0  0  2  0  0  0  0  0  0  0  0  0
    9.5776  -15.7418   24.0415 N   0  0  0  0  0  0  0  0  0  0  0  0
   11.8464  -16.0976   24.7603 C   0  0  0  0  0  0  0  0  0  0  0  0
   11.7465  -15.0148   25.3710 O   0  0  0  0  0  0  0  0  0  0  0  0
   13.0306  -16.8109   24.8812 O   0  0  0  0  0  0  0  0  0  0  0  0
  2  3  1  0
  2  1  1  0
  3  4  2  0
  5  6  1  0
  6  7  1  0
  7  8  1  6
  9  7  1  0
 10  3  1  0
  9 10  1  1
 11 16  1  0
 11  9  1  0
 12 11  2  0
 13 14  1  0
 15 16  1  0
 15 14  1  6
 17 19  1  0
 17 15  1  0
 18 17  2  0
M  END
$$$$
