GIS.pdb
     RDKit          3D

 19 18  0  0  1  0  0  0  0  0999 V2000
    4.6767  -18.7650   23.4438 N   0  0  0  0  0  0  0  0  0  0  0  0
    5.2194  -18.2356   24.6541 C   0  0  0  0  0  0  0  0  0  0  0  0
    6.0634  -17.0524   24.3913 C   0  0  0  0  0  0  0  0  0  0  0  0
    6.4787  -16.8906   23.1932 O   0  0  0  0  0  0  0  0  0  0  0  0
    5.9562  -12.1714   26.9875 C   0  0  0  0  0  0  0  0  0  0  0  0
    6.1497  -13.1930   25.9061 C   0  0  0  0  0  0  0  0  0  0  0  0
    7.4335  -13.9761   26.0192 C   0  0  2  0  0  0  0  0  0  0  0  0
    8.6428  -13.1181   25.7195 C   0  0  0  0  0  0  0  0  0  0  0  0
    7.4701  -15.1711   25.1235 C   0  0  2  0  0  0  0  0  0  0  0  0
    6.4179  -16.1157   25.3988 N   0  0  0  0  0  0  0  0  0  0  0  0
    8.8051  -15.8399   25.1910 C   0  0  0  0  0  0  0  0  0  0  0  0
    9.1742  -16.5890   26.1225 O   0  0  0  0  0  0  0  0  0  0  0  0
   10.7924  -16.5578   21.7517 O   0  0  0  0  0  0  0  0  0  0  0  0
   11.6966  -16.2579   22.7488 C   0  0  0  0  0  0  0  0  0  0  0  0
   10.9861  -16.4068   24.0934 C   0  0  2  0  0  0  0  0  0  0  0  0
    9.7628  -15.6356   24.1327 N   0  0  0  0  0  0  0  0  0  0  0  0
   11.8912  -16.0100   25.1911 C   0  0  0  0  0  0  0  0  0  0  0  0
   11.6126  -15.0465   25.9323 O   0  0  0  0  0  0  0  0  0  0  0  0
   13.0736  -16.6972   25.4269 O   0  0  0  0  0  0  0  0  0  0  0  0
  2  3  1  0
  2  1  1  0
  3  4  2  0
  5  6  1  0
  6  7  1  0
  7  8  1  6
  9  7  1  0
 10  3  1  0
  9 10  1  1
 11 16  1  0
 11  9  1  0
 12 11  2  0
 13 14  1  0
 15 16  1  0
 15 14  1  6
 17 19  1  0
 17 15  1  0
 18 17  2  0
M  END
$$$$
