GIS.pdb
     RDKit          3D

 19 18  0  0  1  0  0  0  0  0999 V2000
    7.1138  -19.3546   27.9080 N   0  0  0  0  0  0  0  0  0  0  0  0
    7.7712  -18.0870   27.9339 C   0  0  0  0  0  0  0  0  0  0  0  0
    7.4049  -17.2684   26.7604 C   0  0  0  0  0  0  0  0  0  0  0  0
    6.6895  -17.8299   25.8619 O   0  0  0  0  0  0  0  0  0  0  0  0
    6.5473  -11.8607   26.8891 C   0  0  0  0  0  0  0  0  0  0  0  0
    6.4429  -13.3116   26.5226 C   0  0  0  0  0  0  0  0  0  0  0  0
    7.4503  -13.7628   25.4952 C   0  0  2  0  0  0  0  0  0  0  0  0
    7.1646  -13.1727   24.1319 C   0  0  0  0  0  0  0  0  0  0  0  0
    7.5215  -15.2489   25.3596 C   0  0  2  0  0  0  0  0  0  0  0  0
    7.8107  -15.9162   26.6032 N   0  0  0  0  0  0  0  0  0  0  0  0
    8.5167  -15.6359   24.3138 C   0  0  0  0  0  0  0  0  0  0  0  0
    9.7510  -15.4564   24.4117 O   0  0  0  0  0  0  0  0  0  0  0  0
    7.1632  -16.9892   20.7296 O   0  0  0  0  0  0  0  0  0  0  0  0
    8.3307  -17.6370   21.0747 C   0  0  0  0  0  0  0  0  0  0  0  0
    9.0239  -16.8173   22.1621 C   0  0  2  0  0  0  0  0  0  0  0  0
    8.0680  -16.2608   23.0944 N   0  0  0  0  0  0  0  0  0  0  0  0
    9.8400  -15.7498   21.5487 C   0  0  0  0  0  0  0  0  0  0  0  0
    9.4045  -14.5847   21.4582 O   0  0  0  0  0  0  0  0  0  0  0  0
   11.1108  -16.0140   21.0575 O   0  0  0  0  0  0  0  0  0  0  0  0
  2  3  1  0
  2  1  1  0
  3  4  2  0
  5  6  1  0
  6  7  1  0
  7  8  1  6
  9  7  1  0
 10  3  1  0
  9 10  1  1
 11 16  1  0
 11  9  1  0
 12 11  2  0
 13 14  1  0
 15 16  1  0
 15 14  1  6
 17 19  1  0
 17 15  1  0
 18 17  2  0
M  END
$$$$
