GIS.pdb
     RDKit          3D

 19 18  0  0  1  0  0  0  0  0999 V2000
    4.1422  -19.2324   22.1148 N   0  0  0  0  0  0  0  0  0  0  0  0
    4.6129  -18.0641   22.7878 C   0  0  0  0  0  0  0  0  0  0  0  0
    5.9718  -17.6977   22.3399 C   0  0  0  0  0  0  0  0  0  0  0  0
    6.5800  -18.5338   21.5882 O   0  0  0  0  0  0  0  0  0  0  0  0
    7.8276  -12.3439   22.0079 C   0  0  0  0  0  0  0  0  0  0  0  0
    7.7339  -13.7290   22.5764 C   0  0  0  0  0  0  0  0  0  0  0  0
    8.0138  -14.8255   21.5797 C   0  0  2  0  0  0  0  0  0  0  0  0
    7.0856  -14.7511   20.3876 C   0  0  0  0  0  0  0  0  0  0  0  0
    7.9117  -16.1934   22.1715 C   0  0  2  0  0  0  0  0  0  0  0  0
    6.6057  -16.4807   22.7076 N   0  0  0  0  0  0  0  0  0  0  0  0
    8.9623  -16.3963   23.2151 C   0  0  0  0  0  0  0  0  0  0  0  0
    8.8384  -16.0686   24.4161 O   0  0  0  0  0  0  0  0  0  0  0  0
   10.7150  -19.4072   24.2942 O   0  0  0  0  0  0  0  0  0  0  0  0
   11.7662  -18.6045   23.9039 C   0  0  0  0  0  0  0  0  0  0  0  0
   11.2645  -17.1623   23.8446 C   0  0  2  0  0  0  0  0  0  0  0  0
   10.2185  -17.0071   22.8574 N   0  0  0  0  0  0  0  0  0  0  0  0
   12.3888  -16.2461   23.5651 C   0  0  0  0  0  0  0  0  0  0  0  0
   12.4227  -15.5788   22.5121 O   0  0  0  0  0  0  0  0  0  0  0  0
   13.4357  -16.1034   24.4649 O   0  0  0  0  0  0  0  0  0  0  0  0
  2  3  1  0
  2  1  1  0
  3  4  2  0
  5  6  1  0
  6  7  1  0
  7  8  1  6
  9  7  1  0
 10  3  1  0
  9 10  1  1
 11 16  1  0
 11  9  1  0
 12 11  2  0
 13 14  1  0
 15 16  1  0
 15 14  1  6
 17 19  1  0
 17 15  1  0
 18 17  2  0
M  END
$$$$
