GIS.pdb
     RDKit          3D

 19 18  0  0  1  0  0  0  0  0999 V2000
    7.0251  -14.5975   20.0710 N   0  0  0  0  0  0  0  0  0  0  0  0
    6.3754  -14.8858   21.3097 C   0  0  0  0  0  0  0  0  0  0  0  0
    7.2550  -14.5899   22.4587 C   0  0  0  0  0  0  0  0  0  0  0  0
    8.5036  -14.4626   22.2157 O   0  0  0  0  0  0  0  0  0  0  0  0
    5.7179  -11.4762   26.6381 C   0  0  0  0  0  0  0  0  0  0  0  0
    6.4875  -12.1678   25.5519 C   0  0  0  0  0  0  0  0  0  0  0  0
    7.1569  -13.4468   25.9880 C   0  0  2  0  0  0  0  0  0  0  0  0
    8.2656  -13.1889   26.9844 C   0  0  0  0  0  0  0  0  0  0  0  0
    7.7213  -14.2296   24.8476 C   0  0  2  0  0  0  0  0  0  0  0  0
    6.7712  -14.4466   23.7866 N   0  0  0  0  0  0  0  0  0  0  0  0
    8.2783  -15.5314   25.3260 C   0  0  0  0  0  0  0  0  0  0  0  0
    7.5877  -16.4757   25.7691 O   0  0  0  0  0  0  0  0  0  0  0  0
   11.2277  -17.3275   23.6069 O   0  0  0  0  0  0  0  0  0  0  0  0
   11.5225  -17.3733   24.9533 C   0  0  0  0  0  0  0  0  0  0  0  0
   10.2537  -17.0210   25.7285 C   0  0  2  0  0  0  0  0  0  0  0  0
    9.7021  -15.7568   25.2925 N   0  0  0  0  0  0  0  0  0  0  0  0
   10.5361  -16.9974   27.1782 C   0  0  0  0  0  0  0  0  0  0  0  0
   10.4287  -15.9415   27.8329 O   0  0  0  0  0  0  0  0  0  0  0  0
   10.9277  -18.1473   27.8492 O   0  0  0  0  0  0  0  0  0  0  0  0
  2  3  1  0
  2  1  1  0
  3  4  2  0
  5  6  1  0
  6  7  1  0
  7  8  1  1
  9  7  1  0
 10  3  1  0
  9 10  1  6
 11 16  1  0
 11  9  1  0
 12 11  2  0
 13 14  1  0
 15 16  1  0
 15 14  1  6
 17 19  1  0
 17 15  1  0
 18 17  2  0
M  END
$$$$
