GIS.pdb
     RDKit          3D

 19 18  0  0  1  0  0  0  0  0999 V2000
    5.2447  -19.2505   23.8568 N   0  0  0  0  0  0  0  0  0  0  0  0
    5.5044  -18.4798   25.0308 C   0  0  0  0  0  0  0  0  0  0  0  0
    6.3049  -17.2787   24.7180 C   0  0  0  0  0  0  0  0  0  0  0  0
    6.8258  -17.2160   23.5523 O   0  0  0  0  0  0  0  0  0  0  0  0
    5.6349  -12.3063   26.8329 C   0  0  0  0  0  0  0  0  0  0  0  0
    6.0099  -13.3875   25.8629 C   0  0  0  0  0  0  0  0  0  0  0  0
    7.3781  -13.9776   26.0950 C   0  0  2  0  0  0  0  0  0  0  0  0
    8.4777  -13.0349   25.6584 C   0  0  0  0  0  0  0  0  0  0  0  0
    7.5760  -15.2856   25.4010 C   0  0  2  0  0  0  0  0  0  0  0  0
    6.5084  -16.2216   25.6450 N   0  0  0  0  0  0  0  0  0  0  0  0
    8.8936  -15.8856   25.7724 C   0  0  0  0  0  0  0  0  0  0  0  0
    9.0598  -16.7061   26.7021 O   0  0  0  0  0  0  0  0  0  0  0  0
   10.2267  -18.7648   24.4088 O   0  0  0  0  0  0  0  0  0  0  0  0
   10.2699  -17.5799   23.7047 C   0  0  0  0  0  0  0  0  0  0  0  0
   10.9900  -16.5430   24.5657 C   0  0  2  0  0  0  0  0  0  0  0  0
   10.0789  -15.5225   25.0362 N   0  0  0  0  0  0  0  0  0  0  0  0
   12.1048  -15.9406   23.8066 C   0  0  0  0  0  0  0  0  0  0  0  0
   11.8859  -15.1235   22.8903 O   0  0  0  0  0  0  0  0  0  0  0  0
   13.4230  -16.2669   24.0921 O   0  0  0  0  0  0  0  0  0  0  0  0
  2  3  1  0
  2  1  1  0
  3  4  2  0
  5  6  1  0
  6  7  1  0
  7  8  1  6
  9  7  1  0
 10  3  1  0
  9 10  1  1
 11 16  1  0
 11  9  1  0
 12 11  2  0
 13 14  1  0
 15 16  1  0
 15 14  1  6
 17 19  1  0
 17 15  1  0
 18 17  2  0
M  END
$$$$
