WER.pdb
     RDKit          3D

 35 36  0  0  1  0  0  0  0  0999 V2000
   25.4039  -17.2910  -20.4879 N   0  0  0  0  0  0  0  0  0  0  0  0
   24.6357  -18.4609  -20.0746 C   0  0  1  0  0  0  0  0  0  0  0  0
   25.5590  -19.6089  -20.1403 C   0  0  0  0  0  0  0  0  0  0  0  0
   25.9803  -20.1177  -21.4057 C   0  0  0  0  0  0  0  0  0  0  0  0
   27.2201  -19.9013  -21.9733 C   0  0  0  0  0  0  0  0  0  0  0  0
   27.2675  -20.5332  -23.1617 N   0  0  0  0  0  0  0  0  0  0  0  0
   26.0899  -21.1638  -23.3970 C   0  0  0  0  0  0  0  0  0  0  0  0
   25.6134  -21.9406  -24.4412 C   0  0  0  0  0  0  0  0  0  0  0  0
   24.3313  -22.4384  -24.3518 C   0  0  0  0  0  0  0  0  0  0  0  0
   23.5469  -22.1683  -23.2518 C   0  0  0  0  0  0  0  0  0  0  0  0
   24.0154  -21.4003  -22.2186 C   0  0  0  0  0  0  0  0  0  0  0  0
   25.2913  -20.8981  -22.2937 C   0  0  0  0  0  0  0  0  0  0  0  0
   24.1393  -18.1297  -18.7226 C   0  0  0  0  0  0  0  0  0  0  0  0
   24.8858  -17.5481  -17.9036 O   0  0  0  0  0  0  0  0  0  0  0  0
   22.8297  -18.4432  -18.2926 N   0  0  0  0  0  0  0  0  0  0  0  0
   22.3377  -18.0850  -16.9537 C   0  0  1  0  0  0  0  0  0  0  0  0
   20.9095  -17.6050  -17.0863 C   0  0  0  0  0  0  0  0  0  0  0  0
   20.3175  -17.2460  -15.7588 C   0  0  0  0  0  0  0  0  0  0  0  0
   18.9058  -16.7461  -15.9228 C   0  0  0  0  0  0  0  0  0  0  0  0
   17.9199  -17.5082  -15.8097 O   0  0  0  0  0  0  0  0  0  0  0  0
   22.4558  -19.1967  -16.0229 C   0  0  0  0  0  0  0  0  0  0  0  0
   21.9585  -20.3134  -16.3674 O   0  0  0  0  0  0  0  0  0  0  0  0
   18.6710  -15.4108  -16.2052 O   0  0  0  0  0  0  0  0  0  0  0  0
   22.3005  -20.4092   -9.0867 N   0  0  0  0  0  0  0  0  0  0  0  0
   23.4034  -21.1131   -8.5329 C   0  0  0  0  0  0  0  0  0  0  0  0
   23.3742  -21.5772   -7.3214 N   0  0  0  0  0  0  0  0  0  0  0  0
   24.5974  -21.3529   -9.2717 N   0  0  0  0  0  0  0  0  0  0  0  0
   24.8645  -20.6121  -10.4641 C   0  0  0  0  0  0  0  0  0  0  0  0
   23.9242  -20.8622  -11.5987 C   0  0  0  0  0  0  0  0  0  0  0  0
   24.1775  -19.9458  -12.7800 C   0  0  0  0  0  0  0  0  0  0  0  0
   23.1661  -20.3057  -13.8841 C   0  0  2  0  0  0  0  0  0  0  0  0
   23.0816  -19.1422  -14.7703 N   0  0  0  0  0  0  0  0  0  0  0  0
   21.8740  -20.6110  -13.2541 C   0  0  0  0  0  0  0  0  0  0  0  0
   21.0789  -19.6789  -12.8970 O   0  0  0  0  0  0  0  0  0  0  0  0
   21.4588  -21.9112  -13.0196 O   0  0  0  0  0  0  0  0  0  0  0  0
  2 13  1  0
  2  1  1  1
  3  4  1  0
  3  2  1  0
  4  5  2  0
  6  5  1  0
  7  6  1  0
  8  7  2  0
  9  8  1  0
 10  9  2  0
 10 11  1  0
 11 12  2  0
 12  7  1  0
 12  4  1  0
 13 14  2  0
 15 16  1  0
 15 13  1  0
 17 18  1  0
 16 17  1  6
 19 18  1  0
 20 19  2  0
 21 22  2  0
 21 16  1  0
 23 19  1  0
 24 25  1  0
 25 27  1  0
 26 25  2  0
 27 28  1  0
 29 28  1  0
 30 29  1  0
 31 32  1  0
 31 30  1  1
 32 21  1  0
 33 31  1  0
 34 33  2  0
 35 33  1  0
M  END
$$$$
