WER.pdb
     RDKit          3D

 35 36  0  0  1  0  0  0  0  0999 V2000
   23.1649  -23.7051  -18.8836 N   0  0  0  0  0  0  0  0  0  0  0  0
   22.1057  -22.7033  -18.9479 C   0  0  1  0  0  0  0  0  0  0  0  0
   21.1053  -23.2166  -19.9022 C   0  0  0  0  0  0  0  0  0  0  0  0
   21.3939  -23.2381  -21.2999 C   0  0  0  0  0  0  0  0  0  0  0  0
   22.2827  -22.3963  -21.9381 C   0  0  0  0  0  0  0  0  0  0  0  0
   22.3047  -22.7045  -23.2490 N   0  0  0  0  0  0  0  0  0  0  0  0
   21.4525  -23.7302  -23.4967 C   0  0  0  0  0  0  0  0  0  0  0  0
   21.0983  -24.4230  -24.6437 C   0  0  0  0  0  0  0  0  0  0  0  0
   20.1744  -25.4397  -24.5326 C   0  0  0  0  0  0  0  0  0  0  0  0
   19.6194  -25.7558  -23.3118 C   0  0  0  0  0  0  0  0  0  0  0  0
   19.9676  -25.0721  -22.1768 C   0  0  0  0  0  0  0  0  0  0  0  0
   20.8874  -24.0570  -22.2722 C   0  0  0  0  0  0  0  0  0  0  0  0
   21.6320  -22.5630  -17.5550 C   0  0  0  0  0  0  0  0  0  0  0  0
   21.5086  -23.5741  -16.8279 O   0  0  0  0  0  0  0  0  0  0  0  0
   21.3017  -21.3130  -16.9836 N   0  0  0  0  0  0  0  0  0  0  0  0
   20.9624  -21.1671  -15.5600 C   0  0  1  0  0  0  0  0  0  0  0  0
   21.0612  -19.7022  -15.1969 C   0  0  0  0  0  0  0  0  0  0  0  0
   19.7735  -19.1785  -14.6408 C   0  0  0  0  0  0  0  0  0  0  0  0
   19.8838  -17.7071  -14.3366 C   0  0  0  0  0  0  0  0  0  0  0  0
   20.0180  -17.2848  -13.1665 O   0  0  0  0  0  0  0  0  0  0  0  0
   19.6487  -21.7160  -15.2621 C   0  0  0  0  0  0  0  0  0  0  0  0
   18.7141  -21.5015  -16.0948 O   0  0  0  0  0  0  0  0  0  0  0  0
   19.8390  -16.7808  -15.3651 O   0  0  0  0  0  0  0  0  0  0  0  0
   15.6166  -27.6837  -13.6741 N   0  0  0  0  0  0  0  0  0  0  0  0
   16.0915  -27.8655  -12.3475 C   0  0  0  0  0  0  0  0  0  0  0  0
   15.6384  -28.8148  -11.5877 N   0  0  0  0  0  0  0  0  0  0  0  0
   17.0898  -27.0238  -11.7781 N   0  0  0  0  0  0  0  0  0  0  0  0
   16.7733  -25.6778  -11.4177 C   0  0  0  0  0  0  0  0  0  0  0  0
   16.7700  -24.6959  -12.5448 C   0  0  0  0  0  0  0  0  0  0  0  0
   18.1062  -24.0000  -12.7170 C   0  0  0  0  0  0  0  0  0  0  0  0
   17.9942  -23.0518  -13.9253 C   0  0  2  0  0  0  0  0  0  0  0  0
   19.3243  -22.4726  -14.1280 N   0  0  0  0  0  0  0  0  0  0  0  0
   16.9881  -22.0244  -13.6225 C   0  0  0  0  0  0  0  0  0  0  0  0
   15.8015  -22.1082  -14.0846 O   0  0  0  0  0  0  0  0  0  0  0  0
   17.2739  -20.9261  -12.8288 O   0  0  0  0  0  0  0  0  0  0  0  0
  2 13  1  0
  2  1  1  1
  3  4  1  0
  3  2  1  0
  4  5  2  0
  6  5  1  0
  7  6  1  0
  8  7  2  0
  9  8  1  0
 10  9  2  0
 10 11  1  0
 11 12  2  0
 12  7  1  0
 12  4  1  0
 13 14  2  0
 15 16  1  0
 15 13  1  0
 17 18  1  0
 16 17  1  6
 19 18  1  0
 20 19  2  0
 21 22  2  0
 21 16  1  0
 23 19  1  0
 24 25  1  0
 25 27  1  0
 26 25  2  0
 27 28  1  0
 29 28  1  0
 30 29  1  0
 31 32  1  0
 31 30  1  1
 32 21  1  0
 33 31  1  0
 34 33  2  0
 35 33  1  0
M  END
$$$$
