WER.pdb
     RDKit          3D

 35 36  0  0  1  0  0  0  0  0999 V2000
   22.4380  -20.2515  -15.6711 N   0  0  0  0  0  0  0  0  0  0  0  0
   22.0128  -19.5309  -14.4754 C   0  0  1  0  0  0  0  0  0  0  0  0
   20.5624  -19.3060  -14.6193 C   0  0  0  0  0  0  0  0  0  0  0  0
   20.0811  -18.1333  -15.2753 C   0  0  0  0  0  0  0  0  0  0  0  0
   19.9853  -17.9739  -16.6433 C   0  0  0  0  0  0  0  0  0  0  0  0
   19.4870  -16.7497  -16.9020 N   0  0  0  0  0  0  0  0  0  0  0  0
   19.2495  -16.0926  -15.7394 C   0  0  0  0  0  0  0  0  0  0  0  0
   18.7501  -14.8356  -15.4366 C   0  0  0  0  0  0  0  0  0  0  0  0
   18.6372  -14.4807  -14.1096 C   0  0  0  0  0  0  0  0  0  0  0  0
   19.0123  -15.3551  -13.1131 C   0  0  0  0  0  0  0  0  0  0  0  0
   19.5067  -16.5979  -13.4099 C   0  0  0  0  0  0  0  0  0  0  0  0
   19.6242  -16.9654  -14.7278 C   0  0  0  0  0  0  0  0  0  0  0  0
   22.4053  -20.4025  -13.3484 C   0  0  0  0  0  0  0  0  0  0  0  0
   22.1231  -21.6217  -13.3683 O   0  0  0  0  0  0  0  0  0  0  0  0
   23.1021  -19.9198  -12.2172 N   0  0  0  0  0  0  0  0  0  0  0  0
   23.3695  -20.7635  -11.0425 C   0  0  1  0  0  0  0  0  0  0  0  0
   24.5532  -20.1826  -10.3014 C   0  0  0  0  0  0  0  0  0  0  0  0
   24.8485  -20.9397   -9.0439 C   0  0  0  0  0  0  0  0  0  0  0  0
   26.0590  -20.3701   -8.3510 C   0  0  0  0  0  0  0  0  0  0  0  0
   26.6712  -19.3776   -8.8045 O   0  0  0  0  0  0  0  0  0  0  0  0
   22.1972  -20.8841  -10.1898 C   0  0  0  0  0  0  0  0  0  0  0  0
   21.5403  -19.8281   -9.9326 O   0  0  0  0  0  0  0  0  0  0  0  0
   26.5220  -20.9447   -7.1792 O   0  0  0  0  0  0  0  0  0  0  0  0
   17.1794  -27.4055   -7.0660 N   0  0  0  0  0  0  0  0  0  0  0  0
   16.8322  -26.2798   -6.2718 C   0  0  0  0  0  0  0  0  0  0  0  0
   15.8122  -26.3025   -5.4700 N   0  0  0  0  0  0  0  0  0  0  0  0
   17.5810  -25.0684   -6.3059 N   0  0  0  0  0  0  0  0  0  0  0  0
   18.7215  -24.9536   -7.1590 C   0  0  0  0  0  0  0  0  0  0  0  0
   19.4124  -23.6284   -7.1311 C   0  0  0  0  0  0  0  0  0  0  0  0
   20.5665  -23.5507   -8.1116 C   0  0  0  0  0  0  0  0  0  0  0  0
   20.6549  -22.1016   -8.6253 C   0  0  2  0  0  0  0  0  0  0  0  0
   21.7230  -22.0769   -9.6276 N   0  0  0  0  0  0  0  0  0  0  0  0
   20.9486  -21.2187   -7.4879 C   0  0  0  0  0  0  0  0  0  0  0  0
   20.0189  -20.5740   -6.8975 O   0  0  0  0  0  0  0  0  0  0  0  0
   22.2346  -21.0446   -7.0045 O   0  0  0  0  0  0  0  0  0  0  0  0
  2 13  1  0
  2  1  1  6
  3  4  1  0
  3  2  1  0
  4  5  2  0
  6  5  1  0
  7  6  1  0
  8  7  2  0
  9  8  1  0
 10  9  2  0
 10 11  1  0
 11 12  2  0
 12  7  1  0
 12  4  1  0
 13 14  2  0
 15 16  1  0
 15 13  1  0
 17 18  1  0
 16 17  1  1
 19 18  1  0
 20 19  2  0
 21 22  2  0
 21 16  1  0
 23 19  1  0
 24 25  1  0
 25 27  1  0
 26 25  2  0
 27 28  1  0
 29 28  1  0
 30 29  1  0
 31 32  1  0
 31 30  1  1
 32 21  1  0
 33 31  1  0
 34 33  2  0
 35 33  1  0
M  END
$$$$
