WER.pdb
     RDKit          3D

 35 36  0  0  1  0  0  0  0  0999 V2000
   26.6450  -22.5493  -10.5809 N   0  0  0  0  0  0  0  0  0  0  0  0
   25.9858  -21.2674  -10.3532 C   0  0  1  0  0  0  0  0  0  0  0  0
   27.0540  -20.2513  -10.3161 C   0  0  0  0  0  0  0  0  0  0  0  0
   28.0947  -20.3414   -9.3433 C   0  0  0  0  0  0  0  0  0  0  0  0
   29.4009  -20.6986   -9.6116 C   0  0  0  0  0  0  0  0  0  0  0  0
   30.1012  -20.6722   -8.4616 N   0  0  0  0  0  0  0  0  0  0  0  0
   29.2920  -20.3061   -7.4363 C   0  0  0  0  0  0  0  0  0  0  0  0
   29.4938  -20.1246   -6.0772 C   0  0  0  0  0  0  0  0  0  0  0  0
   28.4204  -19.7372   -5.3043 C   0  0  0  0  0  0  0  0  0  0  0  0
   27.1809  -19.5370   -5.8715 C   0  0  0  0  0  0  0  0  0  0  0  0
   26.9788  -19.7163   -7.2146 C   0  0  0  0  0  0  0  0  0  0  0  0
   28.0394  -20.1016   -7.9973 C   0  0  0  0  0  0  0  0  0  0  0  0
   25.0268  -21.1312  -11.4694 C   0  0  0  0  0  0  0  0  0  0  0  0
   25.3657  -21.4478  -12.6319 O   0  0  0  0  0  0  0  0  0  0  0  0
   23.7102  -20.6491  -11.2897 N   0  0  0  0  0  0  0  0  0  0  0  0
   22.6816  -20.7712  -12.3339 C   0  0  1  0  0  0  0  0  0  0  0  0
   21.3670  -21.1099  -11.6669 C   0  0  0  0  0  0  0  0  0  0  0  0
   21.3431  -22.5216  -11.1689 C   0  0  0  0  0  0  0  0  0  0  0  0
   19.9993  -22.8540  -10.5742 C   0  0  0  0  0  0  0  0  0  0  0  0
   19.7673  -23.9673  -10.0524 O   0  0  0  0  0  0  0  0  0  0  0  0
   22.5895  -19.5644  -13.1407 C   0  0  0  0  0  0  0  0  0  0  0  0
   22.5540  -18.4483  -12.5357 O   0  0  0  0  0  0  0  0  0  0  0  0
   18.9806  -21.9161  -10.5944 O   0  0  0  0  0  0  0  0  0  0  0  0
   26.0202  -15.6237  -20.4653 N   0  0  0  0  0  0  0  0  0  0  0  0
   24.6927  -15.9926  -20.1185 C   0  0  0  0  0  0  0  0  0  0  0  0
   23.6672  -15.3248  -20.5500 N   0  0  0  0  0  0  0  0  0  0  0  0
   24.4108  -17.1128  -19.2848 N   0  0  0  0  0  0  0  0  0  0  0  0
   23.0591  -17.4444  -18.9614 C   0  0  0  0  0  0  0  0  0  0  0  0
   22.6838  -17.2767  -17.5243 C   0  0  0  0  0  0  0  0  0  0  0  0
   22.8382  -18.5572  -16.7270 C   0  0  0  0  0  0  0  0  0  0  0  0
   22.3699  -18.2779  -15.2868 C   0  0  2  0  0  0  0  0  0  0  0  0
   22.5418  -19.5268  -14.5407 N   0  0  0  0  0  0  0  0  0  0  0  0
   20.9644  -17.8507  -15.3260 C   0  0  0  0  0  0  0  0  0  0  0  0
   20.0402  -18.6582  -15.6758 O   0  0  0  0  0  0  0  0  0  0  0  0
   20.5766  -16.5648  -14.9884 O   0  0  0  0  0  0  0  0  0  0  0  0
  2 13  1  0
  2  1  1  6
  3  4  1  0
  3  2  1  0
  4  5  2  0
  6  5  1  0
  7  6  1  0
  8  7  2  0
  9  8  1  0
 10  9  2  0
 10 11  1  0
 11 12  2  0
 12  7  1  0
 12  4  1  0
 13 14  2  0
 15 16  1  0
 15 13  1  0
 17 18  1  0
 16 17  1  1
 19 18  1  0
 20 19  2  0
 21 22  2  0
 21 16  1  0
 23 19  1  0
 24 25  1  0
 25 27  1  0
 26 25  2  0
 27 28  1  0
 29 28  1  0
 30 29  1  0
 31 32  1  0
 31 30  1  6
 32 21  1  0
 33 31  1  0
 34 33  2  0
 35 33  1  0
M  END
$$$$
