WER.pdb
     RDKit          3D

 35 36  0  0  1  0  0  0  0  0999 V2000
   26.7006  -19.4807  -16.9413 N   0  0  0  0  0  0  0  0  0  0  0  0
   26.9602  -19.0011  -15.5877 C   0  0  1  0  0  0  0  0  0  0  0  0
   26.4778  -17.6083  -15.5405 C   0  0  0  0  0  0  0  0  0  0  0  0
   27.2392  -16.5656  -16.1491 C   0  0  0  0  0  0  0  0  0  0  0  0
   26.7764  -15.2891  -16.3985 C   0  0  0  0  0  0  0  0  0  0  0  0
   27.7635  -14.5762  -16.9741 N   0  0  0  0  0  0  0  0  0  0  0  0
   28.8702  -15.3481  -17.1128 C   0  0  0  0  0  0  0  0  0  0  0  0
   30.1362  -15.1200  -17.6290 C   0  0  0  0  0  0  0  0  0  0  0  0
   31.0442  -16.1567  -17.6118 C   0  0  0  0  0  0  0  0  0  0  0  0
   30.6986  -17.3861  -17.0948 C   0  0  0  0  0  0  0  0  0  0  0  0
   29.4478  -17.6142  -16.5845 C   0  0  0  0  0  0  0  0  0  0  0  0
   28.5328  -16.5902  -16.5944 C   0  0  0  0  0  0  0  0  0  0  0  0
   26.2418  -19.9457  -14.7070 C   0  0  0  0  0  0  0  0  0  0  0  0
   25.4019  -20.7392  -15.1879 O   0  0  0  0  0  0  0  0  0  0  0  0
   26.4583  -20.0028  -13.3112 N   0  0  0  0  0  0  0  0  0  0  0  0
   25.5635  -20.7433  -12.4090 C   0  0  1  0  0  0  0  0  0  0  0  0
   26.0033  -20.4818  -10.9856 C   0  0  0  0  0  0  0  0  0  0  0  0
   25.0717  -21.1036   -9.9921 C   0  0  0  0  0  0  0  0  0  0  0  0
   25.5493  -20.8540   -8.5852 C   0  0  0  0  0  0  0  0  0  0  0  0
   26.6217  -20.2536   -8.3507 O   0  0  0  0  0  0  0  0  0  0  0  0
   24.1696  -20.3873  -12.6238 C   0  0  0  0  0  0  0  0  0  0  0  0
   23.8445  -19.1655  -12.5028 O   0  0  0  0  0  0  0  0  0  0  0  0
   24.7957  -21.2914   -7.5089 O   0  0  0  0  0  0  0  0  0  0  0  0
   18.8512  -19.4669  -17.3761 N   0  0  0  0  0  0  0  0  0  0  0  0
   17.7303  -20.1945  -16.8938 C   0  0  0  0  0  0  0  0  0  0  0  0
   16.5157  -19.7886  -17.1028 N   0  0  0  0  0  0  0  0  0  0  0  0
   17.8728  -21.4072  -16.1602 N   0  0  0  0  0  0  0  0  0  0  0  0
   19.1717  -21.8734  -15.7897 C   0  0  0  0  0  0  0  0  0  0  0  0
   19.8192  -21.1379  -14.6609 C   0  0  0  0  0  0  0  0  0  0  0  0
   21.2351  -21.6097  -14.3924 C   0  0  0  0  0  0  0  0  0  0  0  0
   21.7599  -20.8539  -13.1574 C   0  0  2  0  0  0  0  0  0  0  0  0
   23.1467  -21.2836  -12.9615 N   0  0  0  0  0  0  0  0  0  0  0  0
   20.9122  -21.1927  -12.0059 C   0  0  0  0  0  0  0  0  0  0  0  0
   21.0359  -22.3109  -11.4034 O   0  0  0  0  0  0  0  0  0  0  0  0
   19.9477  -20.3248  -11.5217 O   0  0  0  0  0  0  0  0  0  0  0  0
  2 13  1  0
  2  1  1  6
  3  4  1  0
  3  2  1  0
  4  5  2  0
  6  5  1  0
  7  6  1  0
  8  7  2  0
  9  8  1  0
 10  9  2  0
 10 11  1  0
 11 12  2  0
 12  7  1  0
 12  4  1  0
 13 14  2  0
 15 16  1  0
 15 13  1  0
 17 18  1  0
 16 17  1  1
 19 18  1  0
 20 19  2  0
 21 22  2  0
 21 16  1  0
 23 19  1  0
 24 25  1  0
 25 27  1  0
 26 25  2  0
 27 28  1  0
 29 28  1  0
 30 29  1  0
 31 32  1  0
 31 30  1  6
 32 21  1  0
 33 31  1  0
 34 33  2  0
 35 33  1  0
M  END
$$$$
