WER.pdb
     RDKit          3D

 35 36  0  0  1  0  0  0  0  0999 V2000
   26.4755  -21.8679  -11.7095 N   0  0  0  0  0  0  0  0  0  0  0  0
   25.8169  -21.0106  -10.7292 C   0  0  1  0  0  0  0  0  0  0  0  0
   26.8138  -20.0032  -10.3216 C   0  0  0  0  0  0  0  0  0  0  0  0
   27.9349  -20.3862   -9.5255 C   0  0  0  0  0  0  0  0  0  0  0  0
   29.1247  -20.8822  -10.0197 C   0  0  0  0  0  0  0  0  0  0  0  0
   29.9524  -21.1293   -8.9864 N   0  0  0  0  0  0  0  0  0  0  0  0
   29.3415  -20.8093   -7.8184 C   0  0  0  0  0  0  0  0  0  0  0  0
   29.7309  -20.8647   -6.4894 C   0  0  0  0  0  0  0  0  0  0  0  0
   28.8344  -20.4481   -5.5290 C   0  0  0  0  0  0  0  0  0  0  0  0
   27.5847  -19.9898   -5.8847 C   0  0  0  0  0  0  0  0  0  0  0  0
   27.1973  -19.9346   -7.1976 C   0  0  0  0  0  0  0  0  0  0  0  0
   28.0804  -20.3458   -8.1655 C   0  0  0  0  0  0  0  0  0  0  0  0
   24.6316  -20.4746  -11.4305 C   0  0  0  0  0  0  0  0  0  0  0  0
   23.8705  -19.6668  -10.8521 O   0  0  0  0  0  0  0  0  0  0  0  0
   24.3021  -20.8351  -12.7570 N   0  0  0  0  0  0  0  0  0  0  0  0
   23.1107  -20.3079  -13.4395 C   0  0  1  0  0  0  0  0  0  0  0  0
   23.5418  -19.7360  -14.7716 C   0  0  0  0  0  0  0  0  0  0  0  0
   22.3828  -19.1825  -15.5410 C   0  0  0  0  0  0  0  0  0  0  0  0
   22.8411  -18.6127  -16.8582 C   0  0  0  0  0  0  0  0  0  0  0  0
   24.0465  -18.3658  -17.0852 O   0  0  0  0  0  0  0  0  0  0  0  0
   22.0830  -21.3263  -13.5894 C   0  0  0  0  0  0  0  0  0  0  0  0
   22.2708  -22.2345  -14.4571 O   0  0  0  0  0  0  0  0  0  0  0  0
   21.9200  -18.3492  -17.8582 O   0  0  0  0  0  0  0  0  0  0  0  0
   19.0268  -24.9883   -6.5666 N   0  0  0  0  0  0  0  0  0  0  0  0
   17.8667  -24.4835   -7.2130 C   0  0  0  0  0  0  0  0  0  0  0  0
   16.6874  -24.6062   -6.6858 N   0  0  0  0  0  0  0  0  0  0  0  0
   17.9299  -23.8135   -8.4685 N   0  0  0  0  0  0  0  0  0  0  0  0
   19.1339  -23.8421   -9.2374 C   0  0  0  0  0  0  0  0  0  0  0  0
   19.1054  -23.0482  -10.5036 C   0  0  0  0  0  0  0  0  0  0  0  0
   20.3908  -23.1706  -11.2987 C   0  0  0  0  0  0  0  0  0  0  0  0
   20.1234  -22.6332  -12.7169 C   0  0  2  0  0  0  0  0  0  0  0  0
   20.8957  -21.3953  -12.8483 N   0  0  0  0  0  0  0  0  0  0  0  0
   18.6803  -22.3984  -12.8643 C   0  0  0  0  0  0  0  0  0  0  0  0
   17.9160  -23.2890  -13.3656 O   0  0  0  0  0  0  0  0  0  0  0  0
   18.0838  -21.2123  -12.4704 O   0  0  0  0  0  0  0  0  0  0  0  0
  2 13  1  0
  2  1  1  6
  3  4  1  0
  3  2  1  0
  4  5  2  0
  6  5  1  0
  7  6  1  0
  8  7  2  0
  9  8  1  0
 10  9  2  0
 10 11  1  0
 11 12  2  0
 12  7  1  0
 12  4  1  0
 13 14  2  0
 15 16  1  0
 15 13  1  0
 17 18  1  0
 16 17  1  6
 19 18  1  0
 20 19  2  0
 21 22  2  0
 21 16  1  0
 23 19  1  0
 24 25  1  0
 25 27  1  0
 26 25  2  0
 27 28  1  0
 29 28  1  0
 30 29  1  0
 31 32  1  0
 31 30  1  1
 32 21  1  0
 33 31  1  0
 34 33  2  0
 35 33  1  0
M  END
$$$$
