WER.pdb
     RDKit          3D

 35 36  0  0  1  0  0  0  0  0999 V2000
   29.0622  -21.5567  -12.2545 N   0  0  0  0  0  0  0  0  0  0  0  0
   27.8467  -21.4959  -11.4491 C   0  0  1  0  0  0  0  0  0  0  0  0
   28.0080  -20.3464  -10.5394 C   0  0  0  0  0  0  0  0  0  0  0  0
   28.8149  -20.4675   -9.3683 C   0  0  0  0  0  0  0  0  0  0  0  0
   30.1779  -20.6868   -9.3649 C   0  0  0  0  0  0  0  0  0  0  0  0
   30.6040  -20.7403   -8.0884 N   0  0  0  0  0  0  0  0  0  0  0  0
   29.5573  -20.5617   -7.2443 C   0  0  0  0  0  0  0  0  0  0  0  0
   29.4379  -20.5253   -5.8639 C   0  0  0  0  0  0  0  0  0  0  0  0
   28.1878  -20.3168   -5.3225 C   0  0  0  0  0  0  0  0  0  0  0  0
   27.0880  -20.1498   -6.1354 C   0  0  0  0  0  0  0  0  0  0  0  0
   27.2033  -20.1859   -7.5000 C   0  0  0  0  0  0  0  0  0  0  0  0
   28.4430  -20.3922   -8.0536 C   0  0  0  0  0  0  0  0  0  0  0  0
   26.7483  -21.3723  -12.4300 C   0  0  0  0  0  0  0  0  0  0  0  0
   26.8444  -20.5678  -13.3839 O   0  0  0  0  0  0  0  0  0  0  0  0
   25.5614  -22.1356  -12.3467 N   0  0  0  0  0  0  0  0  0  0  0  0
   24.5264  -22.0916  -13.3907 C   0  0  1  0  0  0  0  0  0  0  0  0
   24.1551  -23.5131  -13.7501 C   0  0  0  0  0  0  0  0  0  0  0  0
   23.0898  -23.5613  -14.8010 C   0  0  0  0  0  0  0  0  0  0  0  0
   22.7641  -24.9867  -15.1644 C   0  0  0  0  0  0  0  0  0  0  0  0
   23.3681  -25.9526  -14.6471 O   0  0  0  0  0  0  0  0  0  0  0  0
   23.3707  -21.3155  -12.9689 C   0  0  0  0  0  0  0  0  0  0  0  0
   23.0771  -21.3136  -11.7333 O   0  0  0  0  0  0  0  0  0  0  0  0
   21.7725  -25.2567  -16.0927 O   0  0  0  0  0  0  0  0  0  0  0  0
   19.2645  -17.5068  -18.9760 N   0  0  0  0  0  0  0  0  0  0  0  0
   18.6028  -16.8551  -17.9008 C   0  0  0  0  0  0  0  0  0  0  0  0
   17.8175  -15.8416  -18.1007 N   0  0  0  0  0  0  0  0  0  0  0  0
   18.7584  -17.2757  -16.5488 N   0  0  0  0  0  0  0  0  0  0  0  0
   19.5925  -18.3930  -16.2363 C   0  0  0  0  0  0  0  0  0  0  0  0
   19.7476  -18.6900  -14.7796 C   0  0  0  0  0  0  0  0  0  0  0  0
   21.1923  -18.6329  -14.3225 C   0  0  0  0  0  0  0  0  0  0  0  0
   21.4162  -19.7766  -13.3158 C   0  0  2  0  0  0  0  0  0  0  0  0
   22.5498  -20.5585  -13.8155 N   0  0  0  0  0  0  0  0  0  0  0  0
   20.1875  -20.5789  -13.2377 C   0  0  0  0  0  0  0  0  0  0  0  0
   19.2441  -20.2625  -12.4386 O   0  0  0  0  0  0  0  0  0  0  0  0
   19.9936  -21.7056  -14.0193 O   0  0  0  0  0  0  0  0  0  0  0  0
  2 13  1  0
  2  1  1  6
  3  4  1  0
  3  2  1  0
  4  5  2  0
  6  5  1  0
  7  6  1  0
  8  7  2  0
  9  8  1  0
 10  9  2  0
 10 11  1  0
 11 12  2  0
 12  7  1  0
 12  4  1  0
 13 14  2  0
 15 16  1  0
 15 13  1  0
 17 18  1  0
 16 17  1  1
 19 18  1  0
 20 19  2  0
 21 22  2  0
 21 16  1  0
 23 19  1  0
 24 25  1  0
 25 27  1  0
 26 25  2  0
 27 28  1  0
 29 28  1  0
 30 29  1  0
 31 32  1  0
 31 30  1  6
 32 21  1  0
 33 31  1  0
 34 33  2  0
 35 33  1  0
M  END
$$$$
