WER.pdb
     RDKit          3D

 35 36  0  0  1  0  0  0  0  0999 V2000
   27.3879  -21.6840   -9.2311 N   0  0  0  0  0  0  0  0  0  0  0  0
   26.4202  -20.5986   -9.1084 C   0  0  1  0  0  0  0  0  0  0  0  0
   27.1973  -19.3802   -8.8141 C   0  0  0  0  0  0  0  0  0  0  0  0
   28.0972  -19.3548   -7.7064 C   0  0  0  0  0  0  0  0  0  0  0  0
   29.4238  -18.9783   -7.7722 C   0  0  0  0  0  0  0  0  0  0  0  0
   29.9610  -19.0711   -6.5407 N   0  0  0  0  0  0  0  0  0  0  0  0
   29.0237  -19.4998   -5.6590 C   0  0  0  0  0  0  0  0  0  0  0  0
   29.0399  -19.7599   -4.2977 C   0  0  0  0  0  0  0  0  0  0  0  0
   27.8751  -20.1943   -3.7026 C   0  0  0  0  0  0  0  0  0  0  0  0
   26.7270  -20.3648   -4.4448 C   0  0  0  0  0  0  0  0  0  0  0  0
   26.7086  -20.1089   -5.7906 C   0  0  0  0  0  0  0  0  0  0  0  0
   27.8617  -19.6748   -6.3970 C   0  0  0  0  0  0  0  0  0  0  0  0
   25.6979  -20.5876  -10.3976 C   0  0  0  0  0  0  0  0  0  0  0  0
   25.1716  -19.5315  -10.8148 O   0  0  0  0  0  0  0  0  0  0  0  0
   25.5659  -21.7383  -11.2081 N   0  0  0  0  0  0  0  0  0  0  0  0
   25.0496  -21.6730  -12.5837 C   0  0  1  0  0  0  0  0  0  0  0  0
   25.4082  -22.9635  -13.2862 C   0  0  0  0  0  0  0  0  0  0  0  0
   25.0125  -22.9398  -14.7300 C   0  0  0  0  0  0  0  0  0  0  0  0
   25.3615  -24.2435  -15.3995 C   0  0  0  0  0  0  0  0  0  0  0  0
   26.5380  -24.5258  -15.7184 O   0  0  0  0  0  0  0  0  0  0  0  0
   23.6179  -21.4175  -12.6085 C   0  0  0  0  0  0  0  0  0  0  0  0
   22.8944  -22.0147  -11.7524 O   0  0  0  0  0  0  0  0  0  0  0  0
   24.3688  -25.1683  -15.6773 O   0  0  0  0  0  0  0  0  0  0  0  0
   19.7066  -15.1833  -13.6451 N   0  0  0  0  0  0  0  0  0  0  0  0
   18.4753  -15.7021  -14.1282 C   0  0  0  0  0  0  0  0  0  0  0  0
   17.3399  -15.1537  -13.8215 N   0  0  0  0  0  0  0  0  0  0  0  0
   18.4153  -16.8456  -14.9755 N   0  0  0  0  0  0  0  0  0  0  0  0
   19.6033  -17.5818  -15.2726 C   0  0  0  0  0  0  0  0  0  0  0  0
   20.0611  -18.5196  -14.2025 C   0  0  0  0  0  0  0  0  0  0  0  0
   21.1778  -19.4346  -14.6664 C   0  0  0  0  0  0  0  0  0  0  0  0
   21.5065  -20.4024  -13.5145 C   0  0  2  0  0  0  0  0  0  0  0  0
   22.9632  -20.5569  -13.4999 N   0  0  0  0  0  0  0  0  0  0  0  0
   20.8214  -21.6781  -13.7648 C   0  0  0  0  0  0  0  0  0  0  0  0
   21.2887  -22.5240  -14.5984 O   0  0  0  0  0  0  0  0  0  0  0  0
   19.6479  -22.0229  -13.1154 O   0  0  0  0  0  0  0  0  0  0  0  0
  2 13  1  0
  2  1  1  6
  3  4  1  0
  3  2  1  0
  4  5  2  0
  6  5  1  0
  7  6  1  0
  8  7  2  0
  9  8  1  0
 10  9  2  0
 10 11  1  0
 11 12  2  0
 12  7  1  0
 12  4  1  0
 13 14  2  0
 15 16  1  0
 15 13  1  0
 17 18  1  0
 16 17  1  1
 19 18  1  0
 20 19  2  0
 21 22  2  0
 21 16  1  0
 23 19  1  0
 24 25  1  0
 25 27  1  0
 26 25  2  0
 27 28  1  0
 29 28  1  0
 30 29  1  0
 31 32  1  0
 31 30  1  6
 32 21  1  0
 33 31  1  0
 34 33  2  0
 35 33  1  0
M  END
$$$$
