WER.pdb
     RDKit          3D

 35 36  0  0  1  0  0  0  0  0999 V2000
   26.8346  -19.5526  -11.4835 N   0  0  0  0  0  0  0  0  0  0  0  0
   26.4600  -20.9525  -11.3113 C   0  0  1  0  0  0  0  0  0  0  0  0
   25.6678  -21.0211  -10.0693 C   0  0  0  0  0  0  0  0  0  0  0  0
   26.2269  -20.5665   -8.8371 C   0  0  0  0  0  0  0  0  0  0  0  0
   25.5298  -19.9003   -7.8491 C   0  0  0  0  0  0  0  0  0  0  0  0
   26.3713  -19.6317   -6.8325 N   0  0  0  0  0  0  0  0  0  0  0  0
   27.6099  -20.1032   -7.1213 C   0  0  0  0  0  0  0  0  0  0  0  0
   28.8177  -20.0969   -6.4414 C   0  0  0  0  0  0  0  0  0  0  0  0
   29.9093  -20.6830   -7.0452 C   0  0  0  0  0  0  0  0  0  0  0  0
   29.7989  -21.2585   -8.2921 C   0  0  0  0  0  0  0  0  0  0  0  0
   28.6063  -21.2655   -8.9663 C   0  0  0  0  0  0  0  0  0  0  0  0
   27.5099  -20.6858   -8.3767 C   0  0  0  0  0  0  0  0  0  0  0  0
   25.7262  -21.3027  -12.5453 C   0  0  0  0  0  0  0  0  0  0  0  0
   25.1038  -20.4208  -13.1787 O   0  0  0  0  0  0  0  0  0  0  0  0
   25.6884  -22.6174  -13.0636 N   0  0  0  0  0  0  0  0  0  0  0  0
   25.0570  -22.9334  -14.3537 C   0  0  1  0  0  0  0  0  0  0  0  0
   25.6906  -24.1955  -14.8950 C   0  0  0  0  0  0  0  0  0  0  0  0
   25.2281  -24.4979  -16.2865 C   0  0  0  0  0  0  0  0  0  0  0  0
   25.9169  -25.7263  -16.8217 C   0  0  0  0  0  0  0  0  0  0  0  0
   25.3391  -26.8348  -16.8750 O   0  0  0  0  0  0  0  0  0  0  0  0
   23.6130  -23.0576  -14.2288 C   0  0  0  0  0  0  0  0  0  0  0  0
   23.1601  -23.8052  -13.3074 O   0  0  0  0  0  0  0  0  0  0  0  0
   27.2239  -25.6476  -17.2729 O   0  0  0  0  0  0  0  0  0  0  0  0
   19.0609  -23.5789  -12.5644 N   0  0  0  0  0  0  0  0  0  0  0  0
   17.8119  -22.9185  -12.4160 C   0  0  0  0  0  0  0  0  0  0  0  0
   16.8152  -23.4795  -11.8030 N   0  0  0  0  0  0  0  0  0  0  0  0
   17.5825  -21.6079  -12.9249 N   0  0  0  0  0  0  0  0  0  0  0  0
   18.6364  -20.8967  -13.5769 C   0  0  0  0  0  0  0  0  0  0  0  0
   19.0617  -21.4501  -14.8987 C   0  0  0  0  0  0  0  0  0  0  0  0
   20.5469  -21.2794  -15.1527 C   0  0  0  0  0  0  0  0  0  0  0  0
   21.2296  -22.6365  -14.9003 C   0  0  2  0  0  0  0  0  0  0  0  0
   22.6706  -22.4132  -15.0413 N   0  0  0  0  0  0  0  0  0  0  0  0
   20.7252  -23.6046  -15.8840 C   0  0  0  0  0  0  0  0  0  0  0  0
   21.2906  -23.7451  -17.0194 O   0  0  0  0  0  0  0  0  0  0  0  0
   19.6236  -24.4047  -15.6307 O   0  0  0  0  0  0  0  0  0  0  0  0
  2 13  1  0
  2  1  1  6
  3  4  1  0
  3  2  1  0
  4  5  2  0
  6  5  1  0
  7  6  1  0
  8  7  2  0
  9  8  1  0
 10  9  2  0
 10 11  1  0
 11 12  2  0
 12  7  1  0
 12  4  1  0
 13 14  2  0
 15 16  1  0
 15 13  1  0
 17 18  1  0
 16 17  1  1
 19 18  1  0
 20 19  2  0
 21 22  2  0
 21 16  1  0
 23 19  1  0
 24 25  1  0
 25 27  1  0
 26 25  2  0
 27 28  1  0
 29 28  1  0
 30 29  1  0
 31 32  1  0
 31 30  1  6
 32 21  1  0
 33 31  1  0
 34 33  2  0
 35 33  1  0
M  END
$$$$
