WER.pdb
     RDKit          3D

 35 36  0  0  1  0  0  0  0  0999 V2000
   26.2946  -22.9688  -11.5141 N   0  0  0  0  0  0  0  0  0  0  0  0
   25.8113  -21.7099  -10.9562 C   0  0  1  0  0  0  0  0  0  0  0  0
   26.8669  -20.7113  -11.2079 C   0  0  0  0  0  0  0  0  0  0  0  0
   27.9700  -20.5931  -10.3096 C   0  0  0  0  0  0  0  0  0  0  0  0
   29.2518  -21.0364  -10.5669 C   0  0  0  0  0  0  0  0  0  0  0  0
   30.0283  -20.7545   -9.5032 N   0  0  0  0  0  0  0  0  0  0  0  0
   29.2935  -20.1348   -8.5462 C   0  0  0  0  0  0  0  0  0  0  0  0
   29.5881  -19.6402   -7.2855 C   0  0  0  0  0  0  0  0  0  0  0  0
   28.5728  -19.0532   -6.5613 C   0  0  0  0  0  0  0  0  0  0  0  0
   27.2998  -18.9630   -7.0803 C   0  0  0  0  0  0  0  0  0  0  0  0
   27.0060  -19.4516   -8.3260 C   0  0  0  0  0  0  0  0  0  0  0  0
   28.0078  -20.0385   -9.0593 C   0  0  0  0  0  0  0  0  0  0  0  0
   24.5292  -21.4572  -11.6463 C   0  0  0  0  0  0  0  0  0  0  0  0
   24.3593  -21.8517  -12.8219 O   0  0  0  0  0  0  0  0  0  0  0  0
   23.4539  -20.7750  -11.0327 N   0  0  0  0  0  0  0  0  0  0  0  0
   22.1163  -20.7123  -11.6410 C   0  0  1  0  0  0  0  0  0  0  0  0
   21.1495  -20.1811  -10.6062 C   0  0  0  0  0  0  0  0  0  0  0  0
   19.7547  -20.0899  -11.1427 C   0  0  0  0  0  0  0  0  0  0  0  0
   19.2027  -21.4624  -11.4277 C   0  0  0  0  0  0  0  0  0  0  0  0
   19.5223  -22.4568  -10.7387 O   0  0  0  0  0  0  0  0  0  0  0  0
   22.1147  -19.9084  -12.8533 C   0  0  0  0  0  0  0  0  0  0  0  0
   22.4423  -18.6854  -12.7537 O   0  0  0  0  0  0  0  0  0  0  0  0
   18.3159  -21.6499  -12.4747 O   0  0  0  0  0  0  0  0  0  0  0  0
   24.3052  -20.5567  -18.7326 N   0  0  0  0  0  0  0  0  0  0  0  0
   23.7263  -20.0225  -19.9149 C   0  0  0  0  0  0  0  0  0  0  0  0
   24.4589  -19.5959  -20.8973 N   0  0  0  0  0  0  0  0  0  0  0  0
   22.3160  -19.9277  -20.0920 N   0  0  0  0  0  0  0  0  0  0  0  0
   21.4329  -20.3052  -19.0341 C   0  0  0  0  0  0  0  0  0  0  0  0
   21.5759  -19.5220  -17.7690 C   0  0  0  0  0  0  0  0  0  0  0  0
   21.6476  -20.4065  -16.5395 C   0  0  0  0  0  0  0  0  0  0  0  0
   21.7576  -19.4930  -15.3045 C   0  0  2  0  0  0  0  0  0  0  0  0
   21.7853  -20.3729  -14.1337 N   0  0  0  0  0  0  0  0  0  0  0  0
   20.5985  -18.5899  -15.2855 C   0  0  0  0  0  0  0  0  0  0  0  0
   20.6519  -17.4382  -15.8328 O   0  0  0  0  0  0  0  0  0  0  0  0
   19.4031  -18.9397  -14.6801 O   0  0  0  0  0  0  0  0  0  0  0  0
  2 13  1  0
  2  1  1  6
  3  4  1  0
  3  2  1  0
  4  5  2  0
  6  5  1  0
  7  6  1  0
  8  7  2  0
  9  8  1  0
 10  9  2  0
 10 11  1  0
 11 12  2  0
 12  7  1  0
 12  4  1  0
 13 14  2  0
 15 16  1  0
 15 13  1  0
 17 18  1  0
 16 17  1  1
 19 18  1  0
 20 19  2  0
 21 22  2  0
 21 16  1  0
 23 19  1  0
 24 25  1  0
 25 27  1  0
 26 25  2  0
 27 28  1  0
 29 28  1  0
 30 29  1  0
 31 32  1  0
 31 30  1  6
 32 21  1  0
 33 31  1  0
 34 33  2  0
 35 33  1  0
M  END
$$$$
