EHK.pdb
     RDKit          3D

 29 29  0  0  1  0  0  0  0  0999 V2000
   11.8366  -19.3833   19.4550 N   0  0  0  0  0  0  0  0  0  0  0  0
   12.8674  -18.4598   20.0127 C   0  0  1  0  0  0  0  0  0  0  0  0
   13.9245  -18.2270   19.0450 C   0  0  0  0  0  0  0  0  0  0  0  0
   13.5771  -18.5626   17.6209 C   0  0  0  0  0  0  0  0  0  0  0  0
   13.9106  -17.4473   16.6724 C   0  0  0  0  0  0  0  0  0  0  0  0
   12.9336  -16.8612   16.1507 O   0  0  0  0  0  0  0  0  0  0  0  0
   12.1104  -17.3689   20.5914 C   0  0  0  0  0  0  0  0  0  0  0  0
   12.8152  -16.3316   20.9000 O   0  0  0  0  0  0  0  0  0  0  0  0
   15.1794  -17.0438   16.3517 O   0  0  0  0  0  0  0  0  0  0  0  0
   10.7549  -17.2602   20.8705 N   0  0  0  0  0  0  0  0  0  0  0  0
   10.1785  -16.0786   21.6179 C   0  0  1  0  0  0  0  0  0  0  0  0
    8.7924  -16.0241   21.0827 C   0  0  0  0  0  0  0  0  0  0  0  0
    8.4022  -14.9566   20.1859 C   0  0  0  0  0  0  0  0  0  0  0  0
    9.0886  -13.9365   19.5810 C   0  0  0  0  0  0  0  0  0  0  0  0
    8.2096  -13.2864   18.7879 N   0  0  0  0  0  0  0  0  0  0  0  0
    7.0063  -13.8696   18.8812 C   0  0  0  0  0  0  0  0  0  0  0  0
    7.0967  -14.8958   19.7309 N   0  0  0  0  0  0  0  0  0  0  0  0
   10.2186  -16.6154   23.0257 C   0  0  0  0  0  0  0  0  0  0  0  0
   10.4003  -17.8734   23.2414 O   0  0  0  0  0  0  0  0  0  0  0  0
   10.0724  -15.8199   24.1276 N   0  0  0  0  0  0  0  0  0  0  0  0
   10.1366  -16.4252   25.5325 C   0  0  1  0  0  0  0  0  0  0  0  0
   10.3461  -15.2104   26.3618 C   0  0  0  0  0  0  0  0  0  0  0  0
   10.5223  -15.2513   27.8063 C   0  0  0  0  0  0  0  0  0  0  0  0
   10.7997  -14.0189   28.5883 C   0  0  0  0  0  0  0  0  0  0  0  0
   10.8870  -14.5090   30.0722 C   0  0  0  0  0  0  0  0  0  0  0  0
   11.1880  -13.3143   30.8338 N   0  0  0  0  0  0  0  0  0  0  0  0
    8.8255  -17.0765   25.6197 C   0  0  0  0  0  0  0  0  0  0  0  0
    8.5786  -18.1532   26.4196 O   0  0  0  0  0  0  0  0  0  0  0  0
    7.8618  -16.6550   24.9369 O   0  0  0  0  0  0  0  0  0  0  0  0
  2  1  1  6
  2  3  1  0
  3  4  1  0
  4  5  1  0
  5  9  1  0
  6  5  2  0
  7  2  1  0
  7  8  2  0
 10  7  1  0
 11 10  1  0
 12 13  1  0
 11 12  1  6
 13 14  2  0
 14 15  1  0
 16 15  1  0
 17 13  1  0
 17 16  2  0
 18 11  1  0
 19 18  2  0
 20 18  1  0
 21 20  1  0
 21 22  1  1
 22 23  1  0
 24 25  1  0
 24 23  1  0
 25 26  1  0
 27 21  1  0
 28 27  1  0
 29 27  2  0
M  END
$$$$
