EHK.pdb
     RDKit          3D

 29 29  0  0  1  0  0  0  0  0999 V2000
   11.2526  -18.6605   16.7397 N   0  0  0  0  0  0  0  0  0  0  0  0
   12.4621  -17.7925   16.8399 C   0  0  1  0  0  0  0  0  0  0  0  0
   12.8307  -17.2741   15.5347 C   0  0  0  0  0  0  0  0  0  0  0  0
   11.6786  -16.9031   14.6421 C   0  0  0  0  0  0  0  0  0  0  0  0
   12.1320  -16.3960   13.3034 C   0  0  0  0  0  0  0  0  0  0  0  0
   13.1116  -15.6147   13.3166 O   0  0  0  0  0  0  0  0  0  0  0  0
   12.1941  -16.9146   17.9604 C   0  0  0  0  0  0  0  0  0  0  0  0
   13.1732  -16.1337   18.2759 O   0  0  0  0  0  0  0  0  0  0  0  0
   11.5572  -16.7248   12.1047 O   0  0  0  0  0  0  0  0  0  0  0  0
   11.0601  -16.7805   18.7497 N   0  0  0  0  0  0  0  0  0  0  0  0
   10.9780  -15.7772   19.8782 C   0  0  1  0  0  0  0  0  0  0  0  0
    9.5103  -15.5745   20.0019 C   0  0  0  0  0  0  0  0  0  0  0  0
    8.8687  -14.4751   19.3123 C   0  0  0  0  0  0  0  0  0  0  0  0
    9.3098  -13.5445   18.4085 C   0  0  0  0  0  0  0  0  0  0  0  0
    8.2387  -12.8027   18.0524 N   0  0  0  0  0  0  0  0  0  0  0  0
    7.1529  -13.2434   18.7032 C   0  0  0  0  0  0  0  0  0  0  0  0
    7.5110  -14.2676   19.4815 N   0  0  0  0  0  0  0  0  0  0  0  0
   11.5296  -16.6088   21.0077 C   0  0  0  0  0  0  0  0  0  0  0  0
   11.3234  -17.8810   21.0448 O   0  0  0  0  0  0  0  0  0  0  0  0
   12.2648  -16.0775   22.0301 N   0  0  0  0  0  0  0  0  0  0  0  0
   12.8221  -16.9813   23.1331 C   0  0  1  0  0  0  0  0  0  0  0  0
   14.2225  -16.4940   23.2268 C   0  0  0  0  0  0  0  0  0  0  0  0
   15.2372  -17.1363   24.0496 C   0  0  0  0  0  0  0  0  0  0  0  0
   16.6448  -16.6608   24.0559 C   0  0  0  0  0  0  0  0  0  0  0  0
   17.3981  -17.6819   24.9722 C   0  0  0  0  0  0  0  0  0  0  0  0
   18.7643  -17.2019   25.0069 N   0  0  0  0  0  0  0  0  0  0  0  0
   11.9246  -16.6549   24.2461 C   0  0  0  0  0  0  0  0  0  0  0  0
   11.1603  -15.5259   24.2822 O   0  0  0  0  0  0  0  0  0  0  0  0
   11.8323  -17.4238   25.2324 O   0  0  0  0  0  0  0  0  0  0  0  0
  2  1  1  6
  2  3  1  0
  3  4  1  0
  4  5  1  0
  5  9  1  0
  6  5  2  0
  7  2  1  0
  7  8  2  0
 10  7  1  0
 11 10  1  0
 12 13  1  0
 11 12  1  1
 13 14  2  0
 14 15  1  0
 16 15  1  0
 17 13  1  0
 17 16  2  0
 18 11  1  0
 19 18  2  0
 20 18  1  0
 21 20  1  0
 21 22  1  1
 22 23  1  0
 24 25  1  0
 24 23  1  0
 25 26  1  0
 27 21  1  0
 28 27  1  0
 29 27  2  0
M  END
$$$$
