EHK.pdb
     RDKit          3D

 29 29  0  0  1  0  0  0  0  0999 V2000
   11.1594  -17.4980   18.1276 N   0  0  0  0  0  0  0  0  0  0  0  0
   11.8398  -17.7260   19.4358 C   0  0  1  0  0  0  0  0  0  0  0  0
   13.2810  -17.7650   19.2640 C   0  0  0  0  0  0  0  0  0  0  0  0
   13.7584  -18.3841   17.9794 C   0  0  0  0  0  0  0  0  0  0  0  0
   15.2093  -18.7671   18.0332 C   0  0  0  0  0  0  0  0  0  0  0  0
   16.0161  -17.9228   17.5789 O   0  0  0  0  0  0  0  0  0  0  0  0
   11.2061  -16.7963   20.3479 C   0  0  0  0  0  0  0  0  0  0  0  0
   11.7742  -15.6384   20.4138 O   0  0  0  0  0  0  0  0  0  0  0  0
   15.6905  -19.9479   18.5329 O   0  0  0  0  0  0  0  0  0  0  0  0
   10.0928  -16.9498   21.1629 N   0  0  0  0  0  0  0  0  0  0  0  0
    9.4589  -15.7844   21.8887 C   0  0  1  0  0  0  0  0  0  0  0  0
    8.1603  -15.6501   21.1774 C   0  0  0  0  0  0  0  0  0  0  0  0
    7.9891  -14.6287   20.1656 C   0  0  0  0  0  0  0  0  0  0  0  0
    8.8185  -13.6702   19.6453 C   0  0  0  0  0  0  0  0  0  0  0  0
    8.1307  -13.0434   18.6664 N   0  0  0  0  0  0  0  0  0  0  0  0
    6.9074  -13.5819   18.5637 C   0  0  0  0  0  0  0  0  0  0  0  0
    6.7948  -14.5555   19.4706 N   0  0  0  0  0  0  0  0  0  0  0  0
    9.2914  -16.3899   23.2587 C   0  0  0  0  0  0  0  0  0  0  0  0
    9.2621  -17.6700   23.4091 O   0  0  0  0  0  0  0  0  0  0  0  0
    9.1680  -15.6370   24.3928 N   0  0  0  0  0  0  0  0  0  0  0  0
    9.0105  -16.3136   25.7572 C   0  0  1  0  0  0  0  0  0  0  0  0
    9.4541  -15.2294   26.6709 C   0  0  0  0  0  0  0  0  0  0  0  0
    9.6197  -15.4133   28.1056 C   0  0  0  0  0  0  0  0  0  0  0  0
   10.1381  -14.3232   28.9718 C   0  0  0  0  0  0  0  0  0  0  0  0
   10.1974  -14.9555   30.4023 C   0  0  0  0  0  0  0  0  0  0  0  0
   10.7483  -13.9104   31.2404 N   0  0  0  0  0  0  0  0  0  0  0  0
    7.5802  -16.6375   25.7484 C   0  0  0  0  0  0  0  0  0  0  0  0
    6.7002  -16.1070   24.8515 O   0  0  0  0  0  0  0  0  0  0  0  0
    7.1051  -17.4323   26.5941 O   0  0  0  0  0  0  0  0  0  0  0  0
  2  1  1  6
  2  3  1  0
  3  4  1  0
  4  5  1  0
  5  9  1  0
  6  5  2  0
  7  2  1  0
  7  8  2  0
 10  7  1  0
 11 10  1  0
 12 13  1  0
 11 12  1  6
 13 14  2  0
 14 15  1  0
 16 15  1  0
 17 13  1  0
 17 16  2  0
 18 11  1  0
 19 18  2  0
 20 18  1  0
 21 20  1  0
 21 22  1  1
 22 23  1  0
 24 25  1  0
 24 23  1  0
 25 26  1  0
 27 21  1  0
 28 27  1  0
 29 27  2  0
M  END
$$$$
