EHK.pdb
     RDKit          3D

 29 29  0  0  1  0  0  0  0  0999 V2000
    9.8317  -16.2632   18.9772 N   0  0  0  0  0  0  0  0  0  0  0  0
    8.7480  -16.7650   19.8717 C   0  0  1  0  0  0  0  0  0  0  0  0
    8.6061  -18.2046   19.7473 C   0  0  0  0  0  0  0  0  0  0  0  0
    9.8625  -18.9967   19.9828 C   0  0  0  0  0  0  0  0  0  0  0  0
    9.6343  -20.4770   19.8757 C   0  0  0  0  0  0  0  0  0  0  0  0
   10.4620  -21.2037   20.4731 O   0  0  0  0  0  0  0  0  0  0  0  0
    9.0022  -16.1320   21.1495 C   0  0  0  0  0  0  0  0  0  0  0  0
   10.2524  -16.0251   21.4556 O   0  0  0  0  0  0  0  0  0  0  0  0
    8.6077  -21.0641   19.1850 O   0  0  0  0  0  0  0  0  0  0  0  0
    8.1220  -15.6271   22.0968 N   0  0  0  0  0  0  0  0  0  0  0  0
    8.6007  -14.9569   23.3650 C   0  0  1  0  0  0  0  0  0  0  0  0
    7.3651  -14.2789   23.8385 C   0  0  0  0  0  0  0  0  0  0  0  0
    7.4063  -13.4310   25.0113 C   0  0  0  0  0  0  0  0  0  0  0  0
    8.4110  -13.0445   25.8591 C   0  0  0  0  0  0  0  0  0  0  0  0
    7.8691  -12.1791   26.7432 N   0  0  0  0  0  0  0  0  0  0  0  0
    6.5668  -12.0173   26.4703 C   0  0  0  0  0  0  0  0  0  0  0  0
    6.2575  -12.7729   25.4136 N   0  0  0  0  0  0  0  0  0  0  0  0
    8.9303  -16.1717   24.1940 C   0  0  0  0  0  0  0  0  0  0  0  0
    8.3615  -17.3031   23.9517 O   0  0  0  0  0  0  0  0  0  0  0  0
    9.8311  -16.1467   25.2217 N   0  0  0  0  0  0  0  0  0  0  0  0
   10.2530  -17.4465   25.9123 C   0  0  1  0  0  0  0  0  0  0  0  0
   11.6379  -17.6102   25.3999 C   0  0  0  0  0  0  0  0  0  0  0  0
   12.5228  -18.6861   25.8226 C   0  0  0  0  0  0  0  0  0  0  0  0
   13.9070  -18.8030   25.2958 C   0  0  0  0  0  0  0  0  0  0  0  0
   14.5316  -19.9925   26.0988 C   0  0  0  0  0  0  0  0  0  0  0  0
   15.8992  -20.0721   25.6282 N   0  0  0  0  0  0  0  0  0  0  0  0
   10.1013  -17.0784   27.3238 C   0  0  0  0  0  0  0  0  0  0  0  0
   10.0005  -17.9961   28.3278 O   0  0  0  0  0  0  0  0  0  0  0  0
   10.0525  -15.8720   27.6626 O   0  0  0  0  0  0  0  0  0  0  0  0
  2  1  1  6
  2  3  1  0
  3  4  1  0
  4  5  1  0
  5  9  1  0
  6  5  2  0
  7  2  1  0
  7  8  2  0
 10  7  1  0
 11 10  1  0
 12 13  1  0
 11 12  1  1
 13 14  2  0
 14 15  1  0
 16 15  1  0
 17 13  1  0
 17 16  2  0
 18 11  1  0
 19 18  2  0
 20 18  1  0
 21 20  1  0
 21 22  1  1
 22 23  1  0
 24 25  1  0
 24 23  1  0
 25 26  1  0
 27 21  1  0
 28 27  1  0
 29 27  2  0
M  END
$$$$
