EHK.pdb
     RDKit          3D

 29 29  0  0  1  0  0  0  0  0999 V2000
   11.3480  -16.6823   18.5611 N   0  0  0  0  0  0  0  0  0  0  0  0
   10.6046  -17.4990   19.5645 C   0  0  1  0  0  0  0  0  0  0  0  0
   11.2220  -18.8037   19.7222 C   0  0  0  0  0  0  0  0  0  0  0  0
   12.7155  -18.8329   19.5484 C   0  0  0  0  0  0  0  0  0  0  0  0
   13.4041  -19.5966   20.6427 C   0  0  0  0  0  0  0  0  0  0  0  0
   13.2231  -20.8365   20.6432 O   0  0  0  0  0  0  0  0  0  0  0  0
   10.4059  -16.6090   20.6898 C   0  0  0  0  0  0  0  0  0  0  0  0
   11.1465  -15.5511   20.6739 O   0  0  0  0  0  0  0  0  0  0  0  0
   14.1938  -19.0374   21.6118 O   0  0  0  0  0  0  0  0  0  0  0  0
    9.5539  -16.7112   21.7810 N   0  0  0  0  0  0  0  0  0  0  0  0
    9.4145  -15.6034   22.8008 C   0  0  1  0  0  0  0  0  0  0  0  0
    7.9445  -15.5741   23.0224 C   0  0  0  0  0  0  0  0  0  0  0  0
    7.3819  -14.7208   24.0478 C   0  0  0  0  0  0  0  0  0  0  0  0
    7.9244  -13.8157   24.9219 C   0  0  0  0  0  0  0  0  0  0  0  0
    6.8977  -13.2614   25.6024 N   0  0  0  0  0  0  0  0  0  0  0  0
    5.7418  -13.7914   25.1784 C   0  0  0  0  0  0  0  0  0  0  0  0
    6.0100  -14.6880   24.2259 N   0  0  0  0  0  0  0  0  0  0  0  0
   10.1476  -16.2240   23.9623 C   0  0  0  0  0  0  0  0  0  0  0  0
   10.3627  -17.4947   23.9966 O   0  0  0  0  0  0  0  0  0  0  0  0
   10.6184  -15.4944   25.0179 N   0  0  0  0  0  0  0  0  0  0  0  0
   11.2242  -16.1977   26.2355 C   0  0  1  0  0  0  0  0  0  0  0  0
   11.2000  -15.1057   27.2424 C   0  0  0  0  0  0  0  0  0  0  0  0
   11.4503  -15.3222   28.6601 C   0  0  0  0  0  0  0  0  0  0  0  0
   11.4146  -14.2003   29.6335 C   0  0  0  0  0  0  0  0  0  0  0  0
   11.6258  -14.8839   31.0256 C   0  0  0  0  0  0  0  0  0  0  0  0
   11.5559  -13.7967   31.9801 N   0  0  0  0  0  0  0  0  0  0  0  0
   10.2776  -17.3020   26.4237 C   0  0  0  0  0  0  0  0  0  0  0  0
   10.6408  -18.5206   26.9168 O   0  0  0  0  0  0  0  0  0  0  0  0
    9.0686  -17.1586   26.1231 O   0  0  0  0  0  0  0  0  0  0  0  0
  2  1  1  6
  2  3  1  0
  3  4  1  0
  4  5  1  0
  5  9  1  0
  6  5  2  0
  7  2  1  0
  7  8  2  0
 10  7  1  0
 11 10  1  0
 12 13  1  0
 11 12  1  1
 13 14  2  0
 14 15  1  0
 16 15  1  0
 17 13  1  0
 17 16  2  0
 18 11  1  0
 19 18  2  0
 20 18  1  0
 21 20  1  0
 21 22  1  1
 22 23  1  0
 24 25  1  0
 24 23  1  0
 25 26  1  0
 27 21  1  0
 28 27  1  0
 29 27  2  0
M  END
$$$$
