EHK.pdb
     RDKit          3D

 29 29  0  0  1  0  0  0  0  0999 V2000
    8.5439  -18.9461   17.9320 N   0  0  0  0  0  0  0  0  0  0  0  0
    9.9240  -18.3862   17.8410 C   0  0  1  0  0  0  0  0  0  0  0  0
   10.1961  -17.9092   16.4969 C   0  0  0  0  0  0  0  0  0  0  0  0
    9.1242  -18.1996   15.4829 C   0  0  0  0  0  0  0  0  0  0  0  0
    9.4297  -17.6013   14.1399 C   0  0  0  0  0  0  0  0  0  0  0  0
   10.3348  -18.1652   13.4820 O   0  0  0  0  0  0  0  0  0  0  0  0
   10.0476  -17.5211   18.9961 C   0  0  0  0  0  0  0  0  0  0  0  0
   11.1351  -16.8254   19.0309 O   0  0  0  0  0  0  0  0  0  0  0  0
    8.7989  -16.5091   13.6063 O   0  0  0  0  0  0  0  0  0  0  0  0
    9.1907  -17.3227   20.0700 N   0  0  0  0  0  0  0  0  0  0  0  0
    9.5490  -16.4223   21.2310 C   0  0  1  0  0  0  0  0  0  0  0  0
    8.2761  -15.6866   21.4523 C   0  0  0  0  0  0  0  0  0  0  0  0
    7.9112  -14.5890   20.5815 C   0  0  0  0  0  0  0  0  0  0  0  0
    6.8834  -14.3898   19.6975 C   0  0  0  0  0  0  0  0  0  0  0  0
    7.0151  -13.1344   19.2169 N   0  0  0  0  0  0  0  0  0  0  0  0
    8.0864  -12.5521   19.7737 C   0  0  0  0  0  0  0  0  0  0  0  0
    8.6533  -13.4215   20.6139 N   0  0  0  0  0  0  0  0  0  0  0  0
    9.7947  -17.4577   22.2983 C   0  0  0  0  0  0  0  0  0  0  0  0
    9.0288  -18.4901   22.3971 O   0  0  0  0  0  0  0  0  0  0  0  0
   10.8196  -17.3671   23.1981 N   0  0  0  0  0  0  0  0  0  0  0  0
   11.0818  -18.5044   24.1890 C   0  0  1  0  0  0  0  0  0  0  0  0
   12.4533  -18.9196   23.7970 C   0  0  0  0  0  0  0  0  0  0  0  0
   13.1804  -19.9947   24.4563 C   0  0  0  0  0  0  0  0  0  0  0  0
   14.4968  -20.4634   23.9516 C   0  0  0  0  0  0  0  0  0  0  0  0
   14.9824  -21.4940   25.0247 C   0  0  0  0  0  0  0  0  0  0  0  0
   16.1873  -22.0672   24.4609 N   0  0  0  0  0  0  0  0  0  0  0  0
   10.9354  -17.8033   25.4688 C   0  0  0  0  0  0  0  0  0  0  0  0
   10.6643  -18.4420   26.6431 O   0  0  0  0  0  0  0  0  0  0  0  0
   11.0529  -16.5561   25.5253 O   0  0  0  0  0  0  0  0  0  0  0  0
  2  1  1  6
  2  3  1  0
  3  4  1  0
  4  5  1  0
  5  9  1  0
  6  5  2  0
  7  2  1  0
  7  8  2  0
 10  7  1  0
 11 10  1  0
 12 13  1  0
 11 12  1  1
 13 14  2  0
 14 15  1  0
 16 15  1  0
 17 13  1  0
 17 16  2  0
 18 11  1  0
 19 18  2  0
 20 18  1  0
 21 20  1  0
 21 22  1  6
 22 23  1  0
 24 25  1  0
 24 23  1  0
 25 26  1  0
 27 21  1  0
 28 27  1  0
 29 27  2  0
M  END
$$$$
