EHK.pdb
     RDKit          3D

 29 29  0  0  1  0  0  0  0  0999 V2000
    9.3121  -19.0161   17.4318 N   0  0  0  0  0  0  0  0  0  0  0  0
    8.2981  -18.7710   18.4986 C   0  0  1  0  0  0  0  0  0  0  0  0
    7.7920  -20.0268   19.0231 C   0  0  0  0  0  0  0  0  0  0  0  0
    8.7838  -21.1568   19.0527 C   0  0  0  0  0  0  0  0  0  0  0  0
    8.1845  -22.4307   19.5751 C   0  0  0  0  0  0  0  0  0  0  0  0
    8.1685  -23.3964   18.7769 O   0  0  0  0  0  0  0  0  0  0  0  0
    8.9015  -17.7740   19.3587 C   0  0  0  0  0  0  0  0  0  0  0  0
   10.1930  -17.7675   19.3479 O   0  0  0  0  0  0  0  0  0  0  0  0
    7.6691  -22.5965   20.8330 O   0  0  0  0  0  0  0  0  0  0  0  0
    8.3180  -16.8303   20.1928 N   0  0  0  0  0  0  0  0  0  0  0  0
    9.1405  -15.8808   21.0348 C   0  0  1  0  0  0  0  0  0  0  0  0
    8.2011  -14.7434   21.2202 C   0  0  0  0  0  0  0  0  0  0  0  0
    8.0311  -13.7635   20.1681 C   0  0  0  0  0  0  0  0  0  0  0  0
    8.5029  -12.4907   19.9813 C   0  0  0  0  0  0  0  0  0  0  0  0
    8.0690  -12.0838   18.7687 N   0  0  0  0  0  0  0  0  0  0  0  0
    7.3477  -13.0604   18.2007 C   0  0  0  0  0  0  0  0  0  0  0  0
    7.3090  -14.1008   19.0368 N   0  0  0  0  0  0  0  0  0  0  0  0
    9.2852  -16.7030   22.2897 C   0  0  0  0  0  0  0  0  0  0  0  0
    8.3152  -17.4466   22.7001 O   0  0  0  0  0  0  0  0  0  0  0  0
   10.4248  -16.7111   23.0442 N   0  0  0  0  0  0  0  0  0  0  0  0
   10.5710  -17.6879   24.2141 C   0  0  1  0  0  0  0  0  0  0  0  0
   11.2131  -18.8481   23.5441 C   0  0  0  0  0  0  0  0  0  0  0  0
   11.6199  -20.0533   24.2521 C   0  0  0  0  0  0  0  0  0  0  0  0
   12.2210  -21.2076   23.5354 C   0  0  0  0  0  0  0  0  0  0  0  0
   12.5570  -22.2372   24.6652 C   0  0  0  0  0  0  0  0  0  0  0  0
   13.0995  -23.3832   23.9648 N   0  0  0  0  0  0  0  0  0  0  0  0
   11.4008  -16.9039   25.1347 C   0  0  0  0  0  0  0  0  0  0  0  0
   11.4455  -17.1328   26.4785 O   0  0  0  0  0  0  0  0  0  0  0  0
   12.1132  -15.9662   24.7037 O   0  0  0  0  0  0  0  0  0  0  0  0
  2  1  1  6
  2  3  1  0
  3  4  1  0
  4  5  1  0
  5  9  1  0
  6  5  2  0
  7  2  1  0
  7  8  2  0
 10  7  1  0
 11 10  1  0
 12 13  1  0
 11 12  1  1
 13 14  2  0
 14 15  1  0
 16 15  1  0
 17 13  1  0
 17 16  2  0
 18 11  1  0
 19 18  2  0
 20 18  1  0
 21 20  1  0
 21 22  1  6
 22 23  1  0
 24 25  1  0
 24 23  1  0
 25 26  1  0
 27 21  1  0
 28 27  1  0
 29 27  2  0
M  END
$$$$
