EHK.pdb
     RDKit          3D

 29 29  0  0  1  0  0  0  0  0999 V2000
   13.4239  -17.8877   15.0544 N   0  0  0  0  0  0  0  0  0  0  0  0
   12.0420  -18.2086   15.5170 C   0  0  1  0  0  0  0  0  0  0  0  0
   11.8920  -19.6367   15.7318 C   0  0  0  0  0  0  0  0  0  0  0  0
   12.7575  -20.2178   16.8156 C   0  0  0  0  0  0  0  0  0  0  0  0
   12.5082  -21.6840   17.0226 C   0  0  0  0  0  0  0  0  0  0  0  0
   13.4473  -22.4499   16.7040 O   0  0  0  0  0  0  0  0  0  0  0  0
   11.7725  -17.2477   16.5668 C   0  0  0  0  0  0  0  0  0  0  0  0
   12.8271  -16.7489   17.1208 O   0  0  0  0  0  0  0  0  0  0  0  0
   11.3512  -22.2196   17.5227 O   0  0  0  0  0  0  0  0  0  0  0  0
   10.5677  -16.7811   17.0746 N   0  0  0  0  0  0  0  0  0  0  0  0
   10.5037  -15.7176   18.1479 C   0  0  1  0  0  0  0  0  0  0  0  0
    9.1361  -15.1678   17.9532 C   0  0  0  0  0  0  0  0  0  0  0  0
    8.6191  -14.1684   18.8642 C   0  0  0  0  0  0  0  0  0  0  0  0
    9.1355  -13.5447   19.9696 C   0  0  0  0  0  0  0  0  0  0  0  0
    8.2175  -12.6416   20.3771 N   0  0  0  0  0  0  0  0  0  0  0  0
    7.1543  -12.6853   19.5619 C   0  0  0  0  0  0  0  0  0  0  0  0
    7.3747  -13.6121   18.6262 N   0  0  0  0  0  0  0  0  0  0  0  0
   10.5938  -16.5829   19.3786 C   0  0  0  0  0  0  0  0  0  0  0  0
   10.0891  -17.7693   19.3827 O   0  0  0  0  0  0  0  0  0  0  0  0
   11.2032  -16.1726   20.5312 N   0  0  0  0  0  0  0  0  0  0  0  0
   11.2597  -17.0995   21.7486 C   0  0  1  0  0  0  0  0  0  0  0  0
   12.6713  -16.9269   22.1786 C   0  0  0  0  0  0  0  0  0  0  0  0
   13.5894  -18.0407   22.3678 C   0  0  0  0  0  0  0  0  0  0  0  0
   14.9808  -17.8260   22.8425 C   0  0  0  0  0  0  0  0  0  0  0  0
   15.6181  -19.2555   22.8442 C   0  0  0  0  0  0  0  0  0  0  0  0
   16.9869  -19.0441   23.2681 N   0  0  0  0  0  0  0  0  0  0  0  0
   10.2236  -16.5086   22.6019 C   0  0  0  0  0  0  0  0  0  0  0  0
    9.6413  -17.1754   23.6394 O   0  0  0  0  0  0  0  0  0  0  0  0
    9.8241  -15.3380   22.3954 O   0  0  0  0  0  0  0  0  0  0  0  0
  2  1  1  1
  2  3  1  0
  3  4  1  0
  4  5  1  0
  5  9  1  0
  6  5  2  0
  7  2  1  0
  7  8  2  0
 10  7  1  0
 11 10  1  0
 12 13  1  0
 11 12  1  1
 13 14  2  0
 14 15  1  0
 16 15  1  0
 17 13  1  0
 17 16  2  0
 18 11  1  0
 19 18  2  0
 20 18  1  0
 21 20  1  0
 21 22  1  1
 22 23  1  0
 24 25  1  0
 24 23  1  0
 25 26  1  0
 27 21  1  0
 28 27  1  0
 29 27  2  0
M  END
$$$$
