EHK.pdb
     RDKit          3D

 29 29  0  0  1  0  0  0  0  0999 V2000
   15.7266  -13.5541   16.9149 N   0  0  0  0  0  0  0  0  0  0  0  0
   15.4060  -14.8431   17.5946 C   0  0  1  0  0  0  0  0  0  0  0  0
   16.5986  -15.4201   18.1885 C   0  0  0  0  0  0  0  0  0  0  0  0
   16.5057  -16.8830   18.5244 C   0  0  0  0  0  0  0  0  0  0  0  0
   17.7629  -17.6296   18.1828 C   0  0  0  0  0  0  0  0  0  0  0  0
   18.4249  -18.0618   19.1549 O   0  0  0  0  0  0  0  0  0  0  0  0
   14.2233  -14.5604   18.3816 C   0  0  0  0  0  0  0  0  0  0  0  0
   14.4011  -13.6971   19.3256 O   0  0  0  0  0  0  0  0  0  0  0  0
   18.2173  -17.8596   16.9115 O   0  0  0  0  0  0  0  0  0  0  0  0
   12.9350  -15.0690   18.2880 N   0  0  0  0  0  0  0  0  0  0  0  0
   11.8052  -14.5664   19.1586 C   0  0  1  0  0  0  0  0  0  0  0  0
   10.6951  -14.4405   18.1776 C   0  0  0  0  0  0  0  0  0  0  0  0
    9.4223  -13.8865   18.5890 C   0  0  0  0  0  0  0  0  0  0  0  0
    8.9529  -13.3838   19.7740 C   0  0  0  0  0  0  0  0  0  0  0  0
    7.6980  -12.9402   19.5441 N   0  0  0  0  0  0  0  0  0  0  0  0
    7.3774  -13.1502   18.2596 C   0  0  0  0  0  0  0  0  0  0  0  0
    8.4164  -13.7286   17.6519 N   0  0  0  0  0  0  0  0  0  0  0  0
   11.6245  -15.7570   20.0650 C   0  0  0  0  0  0  0  0  0  0  0  0
   12.0074  -16.9294   19.6893 O   0  0  0  0  0  0  0  0  0  0  0  0
   11.0622  -15.6652   21.3074 N   0  0  0  0  0  0  0  0  0  0  0  0
   10.7404  -16.9311   22.1062 C   0  0  1  0  0  0  0  0  0  0  0  0
   11.3112  -16.5884   23.4343 C   0  0  0  0  0  0  0  0  0  0  0  0
   11.2190  -17.4654   24.5926 C   0  0  0  0  0  0  0  0  0  0  0  0
   11.7524  -17.0575   25.9179 C   0  0  0  0  0  0  0  0  0  0  0  0
   11.3480  -18.2254   26.8782 C   0  0  0  0  0  0  0  0  0  0  0  0
   11.8280  -17.8098   28.1802 N   0  0  0  0  0  0  0  0  0  0  0  0
    9.2784  -16.9702   21.9965 C   0  0  0  0  0  0  0  0  0  0  0  0
    8.5440  -18.1001   22.2071 O   0  0  0  0  0  0  0  0  0  0  0  0
    8.6378  -15.9363   21.6911 O   0  0  0  0  0  0  0  0  0  0  0  0
  2  1  1  1
  2  3  1  0
  3  4  1  0
  4  5  1  0
  5  9  1  0
  6  5  2  0
  7  2  1  0
  7  8  2  0
 10  7  1  0
 11 10  1  0
 12 13  1  0
 11 12  1  6
 13 14  2  0
 14 15  1  0
 16 15  1  0
 17 13  1  0
 17 16  2  0
 18 11  1  0
 19 18  2  0
 20 18  1  0
 21 20  1  0
 21 22  1  1
 22 23  1  0
 24 25  1  0
 24 23  1  0
 25 26  1  0
 27 21  1  0
 28 27  1  0
 29 27  2  0
M  END
$$$$
