EHK.pdb
     RDKit          3D

 29 29  0  0  1  0  0  0  0  0999 V2000
   13.7525  -14.0742   18.3973 N   0  0  0  0  0  0  0  0  0  0  0  0
   13.0791  -15.3778   18.6681 C   0  0  1  0  0  0  0  0  0  0  0  0
   14.0543  -16.4498   18.7579 C   0  0  0  0  0  0  0  0  0  0  0  0
   15.3652  -16.0742   19.3921 C   0  0  0  0  0  0  0  0  0  0  0  0
   16.3379  -17.2178   19.4157 C   0  0  0  0  0  0  0  0  0  0  0  0
   17.4097  -17.0385   18.7919 O   0  0  0  0  0  0  0  0  0  0  0  0
   12.1535  -15.0975   19.7464 C   0  0  0  0  0  0  0  0  0  0  0  0
   12.5475  -14.1809   20.5665 O   0  0  0  0  0  0  0  0  0  0  0  0
   16.1312  -18.4098   20.0577 O   0  0  0  0  0  0  0  0  0  0  0  0
   10.9174  -15.6559   20.0419 N   0  0  0  0  0  0  0  0  0  0  0  0
   10.0388  -15.1258   21.1527 C   0  0  1  0  0  0  0  0  0  0  0  0
    8.6846  -15.2276   20.5472 C   0  0  0  0  0  0  0  0  0  0  0  0
    8.3332  -14.4010   19.4118 C   0  0  0  0  0  0  0  0  0  0  0  0
    8.1396  -13.0540   19.2516 C   0  0  0  0  0  0  0  0  0  0  0  0
    7.8970  -12.8443   17.9395 N   0  0  0  0  0  0  0  0  0  0  0  0
    7.9353  -14.0134   17.2849 C   0  0  0  0  0  0  0  0  0  0  0  0
    8.2010  -14.9833   18.1635 N   0  0  0  0  0  0  0  0  0  0  0  0
   10.2704  -16.1868   22.1977 C   0  0  0  0  0  0  0  0  0  0  0  0
   11.1104  -17.1417   21.9858 O   0  0  0  0  0  0  0  0  0  0  0  0
    9.6232  -16.1964   23.4016 N   0  0  0  0  0  0  0  0  0  0  0  0
   10.4170  -16.3133   24.7056 C   0  0  1  0  0  0  0  0  0  0  0  0
    9.6467  -15.4068   25.5956 C   0  0  0  0  0  0  0  0  0  0  0  0
    9.9080  -15.2780   27.0220 C   0  0  0  0  0  0  0  0  0  0  0  0
   10.2783  -13.9726   27.6272 C   0  0  0  0  0  0  0  0  0  0  0  0
   10.5126  -14.2959   29.1405 C   0  0  0  0  0  0  0  0  0  0  0  0
   10.8140  -13.0145   29.7448 N   0  0  0  0  0  0  0  0  0  0  0  0
   10.3173  -17.7526   24.9689 C   0  0  0  0  0  0  0  0  0  0  0  0
   11.2476  -18.4465   25.6853 O   0  0  0  0  0  0  0  0  0  0  0  0
    9.3472  -18.4123   24.5260 O   0  0  0  0  0  0  0  0  0  0  0  0
  2  1  1  1
  2  3  1  0
  3  4  1  0
  4  5  1  0
  5  9  1  0
  6  5  2  0
  7  2  1  0
  7  8  2  0
 10  7  1  0
 11 10  1  0
 12 13  1  0
 11 12  1  6
 13 14  2  0
 14 15  1  0
 16 15  1  0
 17 13  1  0
 17 16  2  0
 18 11  1  0
 19 18  2  0
 20 18  1  0
 21 20  1  0
 21 22  1  1
 22 23  1  0
 24 25  1  0
 24 23  1  0
 25 26  1  0
 27 21  1  0
 28 27  1  0
 29 27  2  0
M  END
$$$$
