EHK.pdb
     RDKit          3D

 29 29  0  0  1  0  0  0  0  0999 V2000
    9.1886  -17.6341   21.2535 N   0  0  0  0  0  0  0  0  0  0  0  0
   10.3012  -17.7677   22.2387 C   0  0  1  0  0  0  0  0  0  0  0  0
   11.5713  -17.9424   21.5571 C   0  0  0  0  0  0  0  0  0  0  0  0
   11.7659  -17.0906   20.3331 C   0  0  0  0  0  0  0  0  0  0  0  0
   13.1369  -17.2453   19.7404 C   0  0  0  0  0  0  0  0  0  0  0  0
   13.8375  -16.2072   19.7017 O   0  0  0  0  0  0  0  0  0  0  0  0
   10.0861  -16.6929   23.1855 C   0  0  0  0  0  0  0  0  0  0  0  0
   11.1238  -16.3823   23.8889 O   0  0  0  0  0  0  0  0  0  0  0  0
   13.6529  -18.4167   19.2533 O   0  0  0  0  0  0  0  0  0  0  0  0
    8.9475  -15.9481   23.4609 N   0  0  0  0  0  0  0  0  0  0  0  0
    8.9336  -14.8536   24.5044 C   0  0  1  0  0  0  0  0  0  0  0  0
    7.5888  -14.2531   24.3007 C   0  0  0  0  0  0  0  0  0  0  0  0
    7.1103  -13.2229   25.1984 C   0  0  0  0  0  0  0  0  0  0  0  0
    6.0851  -13.1663   26.1058 C   0  0  0  0  0  0  0  0  0  0  0  0
    6.1621  -11.9619   26.7122 N   0  0  0  0  0  0  0  0  0  0  0  0
    7.1986  -11.2745   26.2122 C   0  0  0  0  0  0  0  0  0  0  0  0
    7.7967  -12.0244   25.2833 N   0  0  0  0  0  0  0  0  0  0  0  0
    8.9947  -15.6875   25.7584 C   0  0  0  0  0  0  0  0  0  0  0  0
    8.2569  -16.7376   25.8824 O   0  0  0  0  0  0  0  0  0  0  0  0
    9.8172  -15.3894   26.8085 N   0  0  0  0  0  0  0  0  0  0  0  0
    9.7764  -16.2318   28.0864 C   0  0  1  0  0  0  0  0  0  0  0  0
   10.7024  -17.3386   27.7332 C   0  0  0  0  0  0  0  0  0  0  0  0
   11.1456  -18.3434   28.6888 C   0  0  0  0  0  0  0  0  0  0  0  0
   12.0960  -19.4171   28.2997 C   0  0  0  0  0  0  0  0  0  0  0  0
   12.3644  -20.2014   29.6272 C   0  0  0  0  0  0  0  0  0  0  0  0
   13.2372  -21.2898   29.2376 N   0  0  0  0  0  0  0  0  0  0  0  0
   10.2440  -15.2600   29.0803 C   0  0  0  0  0  0  0  0  0  0  0  0
   10.5610  -13.9700   28.7712 O   0  0  0  0  0  0  0  0  0  0  0  0
   10.3766  -15.5956   30.2813 O   0  0  0  0  0  0  0  0  0  0  0  0
  2  1  1  6
  2  3  1  0
  3  4  1  0
  4  5  1  0
  5  9  1  0
  6  5  2  0
  7  2  1  0
  7  8  2  0
 10  7  1  0
 11 10  1  0
 12 13  1  0
 11 12  1  1
 13 14  2  0
 14 15  1  0
 16 15  1  0
 17 13  1  0
 17 16  2  0
 18 11  1  0
 19 18  2  0
 20 18  1  0
 21 20  1  0
 21 22  1  6
 22 23  1  0
 24 25  1  0
 24 23  1  0
 25 26  1  0
 27 21  1  0
 28 27  1  0
 29 27  2  0
M  END
$$$$
