EHK.pdb
     RDKit          3D

 29 29  0  0  1  0  0  0  0  0999 V2000
   14.2940  -17.8266   15.9800 N   0  0  0  0  0  0  0  0  0  0  0  0
   12.8481  -18.1567   16.1441 C   0  0  1  0  0  0  0  0  0  0  0  0
   12.6595  -19.5919   16.2564 C   0  0  0  0  0  0  0  0  0  0  0  0
   13.3982  -20.2503   17.3888 C   0  0  0  0  0  0  0  0  0  0  0  0
   13.2056  -21.7394   17.4086 C   0  0  0  0  0  0  0  0  0  0  0  0
   13.6321  -22.3604   16.4074 O   0  0  0  0  0  0  0  0  0  0  0  0
   12.3752  -17.2439   17.1645 C   0  0  0  0  0  0  0  0  0  0  0  0
   13.2732  -16.8849   18.0206 O   0  0  0  0  0  0  0  0  0  0  0  0
   12.6093  -22.4394   18.4235 O   0  0  0  0  0  0  0  0  0  0  0  0
   11.1161  -16.6977   17.3725 N   0  0  0  0  0  0  0  0  0  0  0  0
   10.8237  -15.7630   18.5247 C   0  0  1  0  0  0  0  0  0  0  0  0
    9.5347  -15.1526   18.1046 C   0  0  0  0  0  0  0  0  0  0  0  0
    8.8386  -14.2442   18.9913 C   0  0  0  0  0  0  0  0  0  0  0  0
    9.1239  -13.7346   20.2309 C   0  0  0  0  0  0  0  0  0  0  0  0
    8.1326  -12.8706   20.5392 N   0  0  0  0  0  0  0  0  0  0  0  0
    7.2471  -12.8282   19.5338 C   0  0  0  0  0  0  0  0  0  0  0  0
    7.6560  -13.6602   18.5727 N   0  0  0  0  0  0  0  0  0  0  0  0
   10.6375  -16.7662   19.6340 C   0  0  0  0  0  0  0  0  0  0  0  0
   10.3662  -17.9974   19.3640 O   0  0  0  0  0  0  0  0  0  0  0  0
   10.7463  -16.4389   20.9566 N   0  0  0  0  0  0  0  0  0  0  0  0
   10.5338  -17.5030   22.0368 C   0  0  1  0  0  0  0  0  0  0  0  0
   11.8695  -18.1526   22.0699 C   0  0  0  0  0  0  0  0  0  0  0  0
   12.2240  -19.1996   23.0173 C   0  0  0  0  0  0  0  0  0  0  0  0
   13.5509  -19.8666   22.9746 C   0  0  0  0  0  0  0  0  0  0  0  0
   13.5275  -20.8611   24.1829 C   0  0  0  0  0  0  0  0  0  0  0  0
   14.7322  -21.6505   24.0289 N   0  0  0  0  0  0  0  0  0  0  0  0
   10.1670  -16.6692   23.1862 C   0  0  0  0  0  0  0  0  0  0  0  0
    9.5303  -17.1570   24.2893 O   0  0  0  0  0  0  0  0  0  0  0  0
   10.4301  -15.4431   23.1895 O   0  0  0  0  0  0  0  0  0  0  0  0
  2  1  1  1
  2  3  1  0
  3  4  1  0
  4  5  1  0
  5  9  1  0
  6  5  2  0
  7  2  1  0
  7  8  2  0
 10  7  1  0
 11 10  1  0
 12 13  1  0
 11 12  1  6
 13 14  2  0
 14 15  1  0
 16 15  1  0
 17 13  1  0
 17 16  2  0
 18 11  1  0
 19 18  2  0
 20 18  1  0
 21 20  1  0
 21 22  1  1
 22 23  1  0
 24 25  1  0
 24 23  1  0
 25 26  1  0
 27 21  1  0
 28 27  1  0
 29 27  2  0
M  END
$$$$
