EHK.pdb
     RDKit          3D

 29 29  0  0  1  0  0  0  0  0999 V2000
    9.3825  -18.6977   18.5365 N   0  0  0  0  0  0  0  0  0  0  0  0
   10.6962  -18.0060   18.6855 C   0  0  1  0  0  0  0  0  0  0  0  0
   11.2159  -17.6079   17.3895 C   0  0  0  0  0  0  0  0  0  0  0  0
   12.5526  -18.1933   17.0260 C   0  0  0  0  0  0  0  0  0  0  0  0
   13.0154  -17.7610   15.6645 C   0  0  0  0  0  0  0  0  0  0  0  0
   14.2018  -17.3650   15.5892 O   0  0  0  0  0  0  0  0  0  0  0  0
   10.4889  -17.0467   19.7507 C   0  0  0  0  0  0  0  0  0  0  0  0
   11.5611  -16.4455   20.1469 O   0  0  0  0  0  0  0  0  0  0  0  0
   12.2430  -17.7721   14.5337 O   0  0  0  0  0  0  0  0  0  0  0  0
    9.3285  -16.6733   20.4149 N   0  0  0  0  0  0  0  0  0  0  0  0
    9.3046  -15.5472   21.4240 C   0  0  1  0  0  0  0  0  0  0  0  0
    8.0019  -14.8958   21.1254 C   0  0  0  0  0  0  0  0  0  0  0  0
    7.8600  -14.0613   19.9508 C   0  0  0  0  0  0  0  0  0  0  0  0
    8.2022  -12.7646   19.6700 C   0  0  0  0  0  0  0  0  0  0  0  0
    7.8878  -12.5460   18.3747 N   0  0  0  0  0  0  0  0  0  0  0  0
    7.3653  -13.6618   17.8466 C   0  0  0  0  0  0  0  0  0  0  0  0
    7.3372  -14.6055   18.7909 N   0  0  0  0  0  0  0  0  0  0  0  0
    9.2569  -16.3435   22.7028 C   0  0  0  0  0  0  0  0  0  0  0  0
    8.3718  -17.2667   22.8660 O   0  0  0  0  0  0  0  0  0  0  0  0
   10.1289  -16.1414   23.7358 N   0  0  0  0  0  0  0  0  0  0  0  0
   10.1434  -17.0950   24.9336 C   0  0  1  0  0  0  0  0  0  0  0  0
   11.4726  -17.7392   24.7746 C   0  0  0  0  0  0  0  0  0  0  0  0
   11.9543  -18.8001   25.6474 C   0  0  0  0  0  0  0  0  0  0  0  0
   13.2900  -19.4200   25.4494 C   0  0  0  0  0  0  0  0  0  0  0  0
   13.4048  -20.4763   26.5985 C   0  0  0  0  0  0  0  0  0  0  0  0
   14.5650  -21.2703   26.2495 N   0  0  0  0  0  0  0  0  0  0  0  0
    9.9856  -16.1529   26.0464 C   0  0  0  0  0  0  0  0  0  0  0  0
    9.5687  -16.5291   27.2894 O   0  0  0  0  0  0  0  0  0  0  0  0
   10.2311  -14.9339   25.8846 O   0  0  0  0  0  0  0  0  0  0  0  0
  2  1  1  6
  2  3  1  0
  3  4  1  0
  4  5  1  0
  5  9  1  0
  6  5  2  0
  7  2  1  0
  7  8  2  0
 10  7  1  0
 11 10  1  0
 12 13  1  0
 11 12  1  6
 13 14  2  0
 14 15  1  0
 16 15  1  0
 17 13  1  0
 17 16  2  0
 18 11  1  0
 19 18  2  0
 20 18  1  0
 21 20  1  0
 21 22  1  1
 22 23  1  0
 24 25  1  0
 24 23  1  0
 25 26  1  0
 27 21  1  0
 28 27  1  0
 29 27  2  0
M  END
$$$$
