EHK.pdb
     RDKit          3D

 29 29  0  0  1  0  0  0  0  0999 V2000
   11.2143  -16.2319   19.1033 N   0  0  0  0  0  0  0  0  0  0  0  0
   10.1101  -16.9130   19.8404 C   0  0  1  0  0  0  0  0  0  0  0  0
   10.1750  -18.3506   19.6471 C   0  0  0  0  0  0  0  0  0  0  0  0
   11.5425  -18.9579   19.7980 C   0  0  0  0  0  0  0  0  0  0  0  0
   11.5419  -20.4385   19.5472 C   0  0  0  0  0  0  0  0  0  0  0  0
   12.0139  -20.8080   18.4469 O   0  0  0  0  0  0  0  0  0  0  0  0
   10.1286  -16.3204   21.1619 C   0  0  0  0  0  0  0  0  0  0  0  0
   11.2981  -15.9527   21.5683 O   0  0  0  0  0  0  0  0  0  0  0  0
   11.0704  -21.3816   20.4212 O   0  0  0  0  0  0  0  0  0  0  0  0
    9.0965  -16.0882   22.0607 N   0  0  0  0  0  0  0  0  0  0  0  0
    9.3249  -15.4070   23.3913 C   0  0  1  0  0  0  0  0  0  0  0  0
    8.0066  -14.7648   23.6371 C   0  0  0  0  0  0  0  0  0  0  0  0
    7.7980  -13.9681   24.8278 C   0  0  0  0  0  0  0  0  0  0  0  0
    8.6188  -13.5699   25.8502 C   0  0  0  0  0  0  0  0  0  0  0  0
    7.8852  -12.7720   26.6561 N   0  0  0  0  0  0  0  0  0  0  0  0
    6.6421  -12.6630   26.1666 C   0  0  0  0  0  0  0  0  0  0  0  0
    6.5619  -13.3858   25.0468 N   0  0  0  0  0  0  0  0  0  0  0  0
    9.5368  -16.6135   24.2694 C   0  0  0  0  0  0  0  0  0  0  0  0
    8.9740  -17.7377   23.9836 O   0  0  0  0  0  0  0  0  0  0  0  0
   10.3206  -16.5881   25.3889 N   0  0  0  0  0  0  0  0  0  0  0  0
   10.4748  -17.8420   26.2538 C   0  0  1  0  0  0  0  0  0  0  0  0
   11.8557  -17.6675   26.7732 C   0  0  0  0  0  0  0  0  0  0  0  0
   12.4746  -18.5860   27.7180 C   0  0  0  0  0  0  0  0  0  0  0  0
   13.8718  -18.3928   28.1847 C   0  0  0  0  0  0  0  0  0  0  0  0
   14.1120  -19.5640   29.1947 C   0  0  0  0  0  0  0  0  0  0  0  0
   15.4697  -19.3708   29.6611 N   0  0  0  0  0  0  0  0  0  0  0  0
    9.3744  -17.6646   27.2070 C   0  0  0  0  0  0  0  0  0  0  0  0
    8.9060  -16.4413   27.5871 O   0  0  0  0  0  0  0  0  0  0  0  0
    8.8156  -18.6617   27.7228 O   0  0  0  0  0  0  0  0  0  0  0  0
  2  1  1  6
  2  3  1  0
  3  4  1  0
  4  5  1  0
  5  9  1  0
  6  5  2  0
  7  2  1  0
  7  8  2  0
 10  7  1  0
 11 10  1  0
 12 13  1  0
 11 12  1  1
 13 14  2  0
 14 15  1  0
 16 15  1  0
 17 13  1  0
 17 16  2  0
 18 11  1  0
 19 18  2  0
 20 18  1  0
 21 20  1  0
 21 22  1  1
 22 23  1  0
 24 25  1  0
 24 23  1  0
 25 26  1  0
 27 21  1  0
 28 27  1  0
 29 27  2  0
M  END
$$$$
