APL.pdb
     RDKit          3D

 21 21  0  0  1  0  0  0  0  0999 V2000
   24.1748  -21.1266  -17.4142 C   0  0  0  0  0  0  0  0  0  0  0  0
   25.6287  -21.6136  -17.4063 C   0  0  2  0  0  0  0  0  0  0  0  0
   25.6915  -22.8643  -18.0778 N   0  0  0  0  0  0  0  0  0  0  0  0
   26.2050  -21.5427  -16.0703 C   0  0  0  0  0  0  0  0  0  0  0  0
   26.1053  -22.5894  -15.3376 O   0  0  0  0  0  0  0  0  0  0  0  0
   26.8594  -20.4294  -15.5128 N   0  0  0  0  0  0  0  0  0  0  0  0
   27.0808  -19.1731  -16.1963 C   0  0  0  0  0  0  0  0  0  0  0  0
   28.2735  -18.5633  -15.4757 C   0  0  0  0  0  0  0  0  0  0  0  0
   28.0133  -19.0039  -14.0661 C   0  0  0  0  0  0  0  0  0  0  0  0
   27.3994  -20.3425  -14.2024 C   0  0  1  0  0  0  0  0  0  0  0  0
   26.4096  -20.6357  -13.1318 C   0  0  0  0  0  0  0  0  0  0  0  0
   25.1833  -20.5158  -13.4537 O   0  0  0  0  0  0  0  0  0  0  0  0
   27.3961  -19.9217   -7.6256 C   0  0  0  0  0  0  0  0  0  0  0  0
   26.1784  -20.0044   -8.5690 C   0  0  2  0  0  0  0  0  0  0  0  0
   24.9466  -20.0592   -7.6942 C   0  0  0  0  0  0  0  0  0  0  0  0
   26.3377  -21.2063   -9.4396 C   0  0  0  0  0  0  0  0  0  0  0  0
   25.6808  -21.1583  -10.7736 C   0  0  2  0  0  0  0  0  0  0  0  0
   26.6975  -21.0267  -11.8241 N   0  0  0  0  0  0  0  0  0  0  0  0
   24.6962  -20.0867  -10.8422 C   0  0  0  0  0  0  0  0  0  0  0  0
   25.0224  -18.9290  -11.1704 O   0  0  0  0  0  0  0  0  0  0  0  0
   23.3400  -20.3107  -10.5424 O   0  0  0  0  0  0  0  0  0  0  0  0
  2  1  1  1
  3  2  1  0
  4  5  2  0
  4  2  1  0
  6  4  1  0
  7  6  1  0
  8  7  1  0
  9  8  1  0
  9 10  1  0
 10 11  1  1
 10  6  1  0
 11 18  1  0
 12 11  2  0
 14 13  1  1
 14 15  1  0
 16 14  1  0
 17 16  1  1
 18 17  1  0
 19 21  1  0
 19 17  1  0
 20 19  2  0
M  END
$$$$
