APL.pdb
     RDKit          3D

 21 21  0  0  1  0  0  0  0  0999 V2000
   15.4566  -11.7716  -15.8962 C   0  0  0  0  0  0  0  0  0  0  0  0
   16.4186  -12.0683  -17.0528 C   0  0  2  0  0  0  0  0  0  0  0  0
   16.8845  -13.4045  -16.9237 N   0  0  0  0  0  0  0  0  0  0  0  0
   17.4218  -11.0211  -17.1907 C   0  0  0  0  0  0  0  0  0  0  0  0
   18.5774  -11.2529  -16.6875 O   0  0  0  0  0  0  0  0  0  0  0  0
   17.2356   -9.7795  -17.8250 N   0  0  0  0  0  0  0  0  0  0  0  0
   16.0336   -9.3816  -18.5260 C   0  0  0  0  0  0  0  0  0  0  0  0
   16.5057   -8.3049  -19.4911 C   0  0  0  0  0  0  0  0  0  0  0  0
   17.5617   -7.6265  -18.6705 C   0  0  0  0  0  0  0  0  0  0  0  0
   18.1746   -8.7157  -17.8796 C   0  0  1  0  0  0  0  0  0  0  0  0
   18.6403   -8.2657  -16.5408 C   0  0  0  0  0  0  0  0  0  0  0  0
   17.8571   -8.5040  -15.5652 O   0  0  0  0  0  0  0  0  0  0  0  0
   22.7984   -6.7179  -13.1046 C   0  0  0  0  0  0  0  0  0  0  0  0
   21.9797   -8.0246  -13.1466 C   0  0  2  0  0  0  0  0  0  0  0  0
   22.9136   -9.1424  -12.7415 C   0  0  0  0  0  0  0  0  0  0  0  0
   21.4249   -8.1889  -14.5225 C   0  0  0  0  0  0  0  0  0  0  0  0
   20.2937   -7.2987  -14.8986 C   0  0  2  0  0  0  0  0  0  0  0  0
   19.8422   -7.6162  -16.2587 N   0  0  0  0  0  0  0  0  0  0  0  0
   20.6572   -5.8941  -14.7677 C   0  0  0  0  0  0  0  0  0  0  0  0
   21.2441   -5.2897  -15.6869 O   0  0  0  0  0  0  0  0  0  0  0  0
   20.3631   -5.1613  -13.6033 O   0  0  0  0  0  0  0  0  0  0  0  0
  2  1  1  1
  3  2  1  0
  4  5  2  0
  4  2  1  0
  6  4  1  0
  7  6  1  0
  8  7  1  0
  9  8  1  0
  9 10  1  0
 10 11  1  1
 10  6  1  0
 11 18  1  0
 12 11  2  0
 14 13  1  6
 14 15  1  0
 16 14  1  0
 17 16  1  6
 18 17  1  0
 19 21  1  0
 19 17  1  0
 20 19  2  0
M  END
$$$$
