APL.pdb
     RDKit          3D

 21 21  0  0  1  0  0  0  0  0999 V2000
   22.6357  -18.4380  -13.0412 C   0  0  0  0  0  0  0  0  0  0  0  0
   22.4431  -19.9345  -12.7684 C   0  0  2  0  0  0  0  0  0  0  0  0
   21.0602  -20.1821  -12.5549 N   0  0  0  0  0  0  0  0  0  0  0  0
   23.3721  -20.4130  -11.7536 C   0  0  0  0  0  0  0  0  0  0  0  0
   23.0245  -20.2620  -10.5293 O   0  0  0  0  0  0  0  0  0  0  0  0
   24.6154  -21.0242  -11.9966 N   0  0  0  0  0  0  0  0  0  0  0  0
   25.1740  -21.2680  -13.3093 C   0  0  0  0  0  0  0  0  0  0  0  0
   26.1504  -22.4135  -13.0907 C   0  0  0  0  0  0  0  0  0  0  0  0
   26.6800  -22.0832  -11.7272 C   0  0  0  0  0  0  0  0  0  0  0  0
   25.5271  -21.4923  -11.0137 C   0  0  1  0  0  0  0  0  0  0  0  0
   25.9282  -20.4500  -10.0316 C   0  0  0  0  0  0  0  0  0  0  0  0
   26.0424  -19.2657  -10.4859 O   0  0  0  0  0  0  0  0  0  0  0  0
   27.8987  -20.1226   -4.1625 C   0  0  0  0  0  0  0  0  0  0  0  0
   28.1376  -19.5967   -5.5928 C   0  0  2  0  0  0  0  0  0  0  0  0
   28.1279  -18.0870   -5.5141 C   0  0  0  0  0  0  0  0  0  0  0  0
   27.0727  -20.1480   -6.4815 C   0  0  0  0  0  0  0  0  0  0  0  0
   27.2634  -19.9678   -7.9459 C   0  0  2  0  0  0  0  0  0  0  0  0
   26.1859  -20.6475   -8.6750 N   0  0  0  0  0  0  0  0  0  0  0  0
   28.5765  -20.4335   -8.3716 C   0  0  0  0  0  0  0  0  0  0  0  0
   29.5717  -19.6834   -8.3350 O   0  0  0  0  0  0  0  0  0  0  0  0
   28.7780  -21.7445   -8.8405 O   0  0  0  0  0  0  0  0  0  0  0  0
  2  1  1  1
  3  2  1  0
  4  5  2  0
  4  2  1  0
  6  4  1  0
  7  6  1  0
  8  7  1  0
  9  8  1  0
  9 10  1  0
 10 11  1  1
 10  6  1  0
 11 18  1  0
 12 11  2  0
 14 13  1  1
 14 15  1  0
 16 14  1  0
 17 16  1  1
 18 17  1  0
 19 21  1  0
 19 17  1  0
 20 19  2  0
M  END
$$$$
