APL.pdb
     RDKit          3D

 21 21  0  0  1  0  0  0  0  0999 V2000
   27.3961  -23.1333  -15.7480 C   0  0  0  0  0  0  0  0  0  0  0  0
   27.0079  -21.6802  -16.0458 C   0  0  2  0  0  0  0  0  0  0  0  0
   28.0622  -21.0700  -16.7774 N   0  0  0  0  0  0  0  0  0  0  0  0
   26.5454  -20.9976  -14.8450 C   0  0  0  0  0  0  0  0  0  0  0  0
   27.4259  -20.3702  -14.1569 O   0  0  0  0  0  0  0  0  0  0  0  0
   25.2207  -20.9662  -14.3730 N   0  0  0  0  0  0  0  0  0  0  0  0
   24.0932  -21.5886  -15.0332 C   0  0  0  0  0  0  0  0  0  0  0  0
   22.8888  -20.8130  -14.5219 C   0  0  0  0  0  0  0  0  0  0  0  0
   23.3046  -20.5361  -13.1080 C   0  0  0  0  0  0  0  0  0  0  0  0
   24.7682  -20.3370  -13.1832 C   0  0  1  0  0  0  0  0  0  0  0  0
   25.4776  -20.7992  -11.9605 C   0  0  0  0  0  0  0  0  0  0  0  0
   25.7555  -22.0410  -11.9091 O   0  0  0  0  0  0  0  0  0  0  0  0
   27.6073  -18.6374   -6.5835 C   0  0  0  0  0  0  0  0  0  0  0  0
   27.4423  -19.9188   -7.4262 C   0  0  2  0  0  0  0  0  0  0  0  0
   28.7780  -20.6268   -7.4171 C   0  0  0  0  0  0  0  0  0  0  0  0
   26.9910  -19.5280   -8.7942 C   0  0  0  0  0  0  0  0  0  0  0  0
   26.2341  -20.5498   -9.5666 C   0  0  2  0  0  0  0  0  0  0  0  0
   25.8633  -20.0071  -10.8790 N   0  0  0  0  0  0  0  0  0  0  0  0
   25.0673  -21.0158   -8.8293 C   0  0  0  0  0  0  0  0  0  0  0  0
   23.9603  -20.4548   -8.9490 O   0  0  0  0  0  0  0  0  0  0  0  0
   25.1383  -22.1148   -7.9536 O   0  0  0  0  0  0  0  0  0  0  0  0
  2  1  1  1
  3  2  1  0
  4  5  2  0
  4  2  1  0
  6  4  1  0
  7  6  1  0
  8  7  1  0
  9  8  1  0
  9 10  1  0
 10 11  1  1
 10  6  1  0
 11 18  1  0
 12 11  2  0
 14 13  1  1
 14 15  1  0
 16 14  1  0
 17 16  1  1
 18 17  1  0
 19 21  1  0
 19 17  1  0
 20 19  2  0
M  END
$$$$
