APL.pdb
     RDKit          3D

 21 21  0  0  1  0  0  0  0  0999 V2000
   24.6858  -19.2836  -13.1101 C   0  0  0  0  0  0  0  0  0  0  0  0
   24.8738  -20.7790  -12.8286 C   0  0  2  0  0  0  0  0  0  0  0  0
   23.6460  -21.4466  -13.0853 N   0  0  0  0  0  0  0  0  0  0  0  0
   25.4962  -21.0006  -11.5303 C   0  0  0  0  0  0  0  0  0  0  0  0
   24.7170  -21.0613  -10.5146 O   0  0  0  0  0  0  0  0  0  0  0  0
   26.8740  -21.1527  -11.2917 N   0  0  0  0  0  0  0  0  0  0  0  0
   27.9022  -21.0742  -12.3072 C   0  0  0  0  0  0  0  0  0  0  0  0
   29.0645  -21.8605  -11.7206 C   0  0  0  0  0  0  0  0  0  0  0  0
   28.9422  -21.5125  -10.2671 C   0  0  0  0  0  0  0  0  0  0  0  0
   27.4863  -21.3966  -10.0339 C   0  0  1  0  0  0  0  0  0  0  0  0
   27.1457  -20.3820   -9.0012 C   0  0  0  0  0  0  0  0  0  0  0  0
   25.9068  -20.1282   -8.8515 O   0  0  0  0  0  0  0  0  0  0  0  0
   28.9859  -21.8815   -3.9523 C   0  0  0  0  0  0  0  0  0  0  0  0
   28.2683  -20.6395   -4.5198 C   0  0  2  0  0  0  0  0  0  0  0  0
   26.8562  -20.6620   -3.9802 C   0  0  0  0  0  0  0  0  0  0  0  0
   28.3315  -20.6987   -6.0099 C   0  0  0  0  0  0  0  0  0  0  0  0
   27.8571  -19.4972   -6.7481 C   0  0  2  0  0  0  0  0  0  0  0  0
   28.0475  -19.6926   -8.1904 N   0  0  0  0  0  0  0  0  0  0  0  0
   28.5209  -18.2888   -6.2778 C   0  0  0  0  0  0  0  0  0  0  0  0
   27.9475  -17.4944   -5.5067 O   0  0  0  0  0  0  0  0  0  0  0  0
   29.8326  -17.9666   -6.6716 O   0  0  0  0  0  0  0  0  0  0  0  0
  2  1  1  1
  3  2  1  0
  4  5  2  0
  4  2  1  0
  6  4  1  0
  7  6  1  0
  8  7  1  0
  9  8  1  0
  9 10  1  0
 10 11  1  1
 10  6  1  0
 11 18  1  0
 12 11  2  0
 14 13  1  1
 14 15  1  0
 16 14  1  0
 17 16  1  1
 18 17  1  0
 19 21  1  0
 19 17  1  0
 20 19  2  0
M  END
$$$$
