APL.pdb
     RDKit          3D

 21 21  0  0  1  0  0  0  0  0999 V2000
   38.2759  -12.2634  -15.1901 C   0  0  0  0  0  0  0  0  0  0  0  0
   38.6083  -11.8479  -16.6281 C   0  0  2  0  0  0  0  0  0  0  0  0
   39.8992  -11.2540  -16.6415 N   0  0  0  0  0  0  0  0  0  0  0  0
   37.5179  -11.0904  -17.2273 C   0  0  0  0  0  0  0  0  0  0  0  0
   37.5470   -9.8171  -17.0846 O   0  0  0  0  0  0  0  0  0  0  0  0
   36.4366  -11.6306  -17.9467 N   0  0  0  0  0  0  0  0  0  0  0  0
   36.2639  -13.0356  -18.2479 C   0  0  0  0  0  0  0  0  0  0  0  0
   35.3624  -13.0448  -19.4729 C   0  0  0  0  0  0  0  0  0  0  0  0
   34.4684  -11.8769  -19.1804 C   0  0  0  0  0  0  0  0  0  0  0  0
   35.3411  -10.9056  -18.4858 C   0  0  1  0  0  0  0  0  0  0  0  0
   34.6120  -10.0935  -17.4755 C   0  0  0  0  0  0  0  0  0  0  0  0
   34.9028  -10.3216  -16.2567 O   0  0  0  0  0  0  0  0  0  0  0  0
   35.5585   -5.1621  -15.6578 C   0  0  0  0  0  0  0  0  0  0  0  0
   34.3158   -6.0713  -15.5662 C   0  0  2  0  0  0  0  0  0  0  0  0
   34.1829   -6.4910  -14.1199 C   0  0  0  0  0  0  0  0  0  0  0  0
   34.5035   -7.2211  -16.4993 C   0  0  0  0  0  0  0  0  0  0  0  0
   33.3021   -8.0483  -16.7923 C   0  0  2  0  0  0  0  0  0  0  0  0
   33.6519   -9.1159  -17.7370 N   0  0  0  0  0  0  0  0  0  0  0  0
   32.2031   -7.2310  -17.2887 C   0  0  0  0  0  0  0  0  0  0  0  0
   32.1449   -6.8830  -18.4845 O   0  0  0  0  0  0  0  0  0  0  0  0
   31.1636   -6.8006  -16.4439 O   0  0  0  0  0  0  0  0  0  0  0  0
  2  1  1  1
  3  2  1  0
  4  5  2  0
  4  2  1  0
  6  4  1  0
  7  6  1  0
  8  7  1  0
  9  8  1  0
  9 10  1  0
 10 11  1  1
 10  6  1  0
 11 18  1  0
 12 11  2  0
 14 13  1  1
 14 15  1  0
 16 14  1  0
 17 16  1  6
 18 17  1  0
 19 21  1  0
 19 17  1  0
 20 19  2  0
M  END
$$$$
