APL.pdb
     RDKit          3D

 21 21  0  0  1  0  0  0  0  0999 V2000
   22.1782  -13.2399  -20.0650 C   0  0  0  0  0  0  0  0  0  0  0  0
   22.2063  -13.9944  -18.7305 C   0  0  2  0  0  0  0  0  0  0  0  0
   21.2811  -15.0708  -18.7986 N   0  0  0  0  0  0  0  0  0  0  0  0
   22.0872  -13.0813  -17.6018 C   0  0  0  0  0  0  0  0  0  0  0  0
   20.9086  -12.6761  -17.3033 O   0  0  0  0  0  0  0  0  0  0  0  0
   23.1487  -12.6042  -16.8118 N   0  0  0  0  0  0  0  0  0  0  0  0
   24.5340  -12.9934  -16.9666 C   0  0  0  0  0  0  0  0  0  0  0  0
   25.1505  -12.7228  -15.6028 C   0  0  0  0  0  0  0  0  0  0  0  0
   24.4071  -11.4871  -15.1915 C   0  0  0  0  0  0  0  0  0  0  0  0
   23.0492  -11.6675  -15.7492 C   0  0  1  0  0  0  0  0  0  0  0  0
   22.4131  -10.3835  -16.1474 C   0  0  0  0  0  0  0  0  0  0  0  0
   22.1922  -10.2293  -17.3921 O   0  0  0  0  0  0  0  0  0  0  0  0
   17.6436   -8.1756  -17.0075 C   0  0  0  0  0  0  0  0  0  0  0  0
   19.0572   -7.5801  -16.8442 C   0  0  2  0  0  0  0  0  0  0  0  0
   19.4883   -7.0890  -18.2075 C   0  0  0  0  0  0  0  0  0  0  0  0
   19.9522   -8.6370  -16.2877 C   0  0  0  0  0  0  0  0  0  0  0  0
   21.2520   -8.1841  -15.7229 C   0  0  2  0  0  0  0  0  0  0  0  0
   22.0393   -9.3460  -15.2931 N   0  0  0  0  0  0  0  0  0  0  0  0
   21.0564   -7.2358  -14.6345 C   0  0  0  0  0  0  0  0  0  0  0  0
   20.8431   -7.6241  -13.4691 O   0  0  0  0  0  0  0  0  0  0  0  0
   21.0994   -5.8462  -14.8500 O   0  0  0  0  0  0  0  0  0  0  0  0
  2  1  1  6
  3  2  1  0
  4  5  2  0
  4  2  1  0
  6  4  1  0
  7  6  1  0
  8  7  1  0
  9  8  1  0
  9 10  1  0
 10 11  1  6
 10  6  1  0
 11 18  1  0
 12 11  2  0
 14 13  1  6
 14 15  1  0
 16 14  1  0
 17 16  1  1
 18 17  1  0
 19 21  1  0
 19 17  1  0
 20 19  2  0
M  END
$$$$
