APL.pdb
     RDKit          3D

 21 21  0  0  1  0  0  0  0  0999 V2000
   14.4583  -19.1370    3.1375 C   0  0  0  0  0  0  0  0  0  0  0  0
   15.7096  -19.0742    2.2536 C   0  0  2  0  0  0  0  0  0  0  0  0
   15.9562  -20.3696    1.7242 N   0  0  0  0  0  0  0  0  0  0  0  0
   16.8110  -18.4117    2.9392 C   0  0  0  0  0  0  0  0  0  0  0  0
   17.6392  -19.1606    3.5682 O   0  0  0  0  0  0  0  0  0  0  0  0
   17.0461  -17.0253    2.9734 N   0  0  0  0  0  0  0  0  0  0  0  0
   16.2527  -16.0351    2.2774 C   0  0  0  0  0  0  0  0  0  0  0  0
   17.1912  -14.8481    2.1237 C   0  0  0  0  0  0  0  0  0  0  0  0
   17.9576  -14.9195    3.4107 C   0  0  0  0  0  0  0  0  0  0  0  0
   18.0792  -16.3666    3.6911 C   0  0  1  0  0  0  0  0  0  0  0  0
   18.0810  -16.6748    5.1460 C   0  0  0  0  0  0  0  0  0  0  0  0
   16.9868  -17.1137    5.6276 O   0  0  0  0  0  0  0  0  0  0  0  0
   21.7766  -18.6957    9.4950 C   0  0  0  0  0  0  0  0  0  0  0  0
   20.3523  -18.1634    9.2346 C   0  0  2  0  0  0  0  0  0  0  0  0
   19.3960  -19.2895    9.5553 C   0  0  0  0  0  0  0  0  0  0  0  0
   20.2720  -17.7072    7.8157 C   0  0  0  0  0  0  0  0  0  0  0  0
   19.0973  -16.8720    7.4468 C   0  0  2  0  0  0  0  0  0  0  0  0
   19.1582  -16.5308    6.0204 N   0  0  0  0  0  0  0  0  0  0  0  0
   19.0101  -15.6807    8.2806 C   0  0  0  0  0  0  0  0  0  0  0  0
   19.4232  -14.5762    7.8755 O   0  0  0  0  0  0  0  0  0  0  0  0
   18.4580  -15.7241    9.5739 O   0  0  0  0  0  0  0  0  0  0  0  0
  2  1  1  1
  3  2  1  0
  4  5  2  0
  4  2  1  0
  6  4  1  0
  7  6  1  0
  8  7  1  0
  9  8  1  0
  9 10  1  0
 10 11  1  1
 10  6  1  0
 11 18  1  0
 12 11  2  0
 14 13  1  6
 14 15  1  0
 16 14  1  0
 17 16  1  1
 18 17  1  0
 19 21  1  0
 19 17  1  0
 20 19  2  0
M  END
$$$$
