APL.pdb
     RDKit          3D

 21 21  0  0  1  0  0  0  0  0999 V2000
   26.3372  -16.6011  -13.8328 C   0  0  0  0  0  0  0  0  0  0  0  0
   26.1384  -17.7946  -14.7747 C   0  0  2  0  0  0  0  0  0  0  0  0
   25.0502  -17.5105  -15.6432 N   0  0  0  0  0  0  0  0  0  0  0  0
   26.0953  -19.0506  -14.0382 C   0  0  0  0  0  0  0  0  0  0  0  0
   24.9714  -19.3824  -13.5195 O   0  0  0  0  0  0  0  0  0  0  0  0
   27.1757  -19.9303  -13.8448 N   0  0  0  0  0  0  0  0  0  0  0  0
   28.4706  -19.8009  -14.4781 C   0  0  0  0  0  0  0  0  0  0  0  0
   29.0401  -21.2109  -14.4508 C   0  0  0  0  0  0  0  0  0  0  0  0
   28.5169  -21.7066  -13.1358 C   0  0  0  0  0  0  0  0  0  0  0  0
   27.1870  -21.0734  -13.0024 C   0  0  1  0  0  0  0  0  0  0  0  0
   26.8289  -20.7739  -11.5904 C   0  0  0  0  0  0  0  0  0  0  0  0
   27.7966  -20.7289  -10.7638 O   0  0  0  0  0  0  0  0  0  0  0  0
   27.1718  -21.2348   -7.4527 C   0  0  0  0  0  0  0  0  0  0  0  0
   27.1501  -19.9878   -8.3605 C   0  0  2  0  0  0  0  0  0  0  0  0
   27.7091  -18.8420   -7.5479 C   0  0  0  0  0  0  0  0  0  0  0  0
   25.7466  -19.7597   -8.8142 C   0  0  0  0  0  0  0  0  0  0  0  0
   25.1542  -20.7949   -9.7035 C   0  0  2  0  0  0  0  0  0  0  0  0
   25.5463  -20.5389  -11.0946 N   0  0  0  0  0  0  0  0  0  0  0  0
   23.7061  -20.8556   -9.5564 C   0  0  0  0  0  0  0  0  0  0  0  0
   22.9474  -20.5734  -10.5048 O   0  0  0  0  0  0  0  0  0  0  0  0
   23.1029  -21.2336   -8.3429 O   0  0  0  0  0  0  0  0  0  0  0  0
  2  1  1  1
  3  2  1  0
  4  5  2  0
  4  2  1  0
  6  4  1  0
  7  6  1  0
  8  7  1  0
  9  8  1  0
  9 10  1  0
 10 11  1  1
 10  6  1  0
 11 18  1  0
 12 11  2  0
 14 13  1  1
 14 15  1  0
 16 14  1  0
 17 16  1  1
 18 17  1  0
 19 21  1  0
 19 17  1  0
 20 19  2  0
M  END
$$$$
