APL.pdb
     RDKit          3D

 21 21  0  0  1  0  0  0  0  0999 V2000
   18.8060   -8.3930  -16.3701 C   0  0  0  0  0  0  0  0  0  0  0  0
   19.9539   -8.8474  -15.4608 C   0  0  2  0  0  0  0  0  0  0  0  0
   20.1064  -10.2541  -15.5919 N   0  0  0  0  0  0  0  0  0  0  0  0
   19.8068   -8.3139  -14.1134 C   0  0  0  0  0  0  0  0  0  0  0  0
   19.1387   -9.0197  -13.2780 O   0  0  0  0  0  0  0  0  0  0  0  0
   20.3309   -7.0944  -13.6479 N   0  0  0  0  0  0  0  0  0  0  0  0
   21.1941   -6.2201  -14.4128 C   0  0  0  0  0  0  0  0  0  0  0  0
   21.9386   -5.4169  -13.3573 C   0  0  0  0  0  0  0  0  0  0  0  0
   20.8725   -5.2537  -12.3155 C   0  0  0  0  0  0  0  0  0  0  0  0
   20.1014   -6.5145  -12.3721 C   0  0  1  0  0  0  0  0  0  0  0  0
   18.6604   -6.3249  -12.0568 C   0  0  0  0  0  0  0  0  0  0  0  0
   17.8818   -6.1842  -13.0547 O   0  0  0  0  0  0  0  0  0  0  0  0
   14.6984   -6.9112   -7.3870 C   0  0  0  0  0  0  0  0  0  0  0  0
   14.8199   -6.4904   -8.8661 C   0  0  2  0  0  0  0  0  0  0  0  0
   13.8029   -7.2992   -9.6388 C   0  0  0  0  0  0  0  0  0  0  0  0
   16.2247   -6.7298   -9.3100 C   0  0  0  0  0  0  0  0  0  0  0  0
   16.6686   -6.0181  -10.5389 C   0  0  2  0  0  0  0  0  0  0  0  0
   18.0902   -6.2892  -10.7842 N   0  0  0  0  0  0  0  0  0  0  0  0
   16.4022   -4.5887  -10.4501 C   0  0  0  0  0  0  0  0  0  0  0  0
   17.1939   -3.8180   -9.8724 O   0  0  0  0  0  0  0  0  0  0  0  0
   15.2447   -4.0178  -11.0102 O   0  0  0  0  0  0  0  0  0  0  0  0
  2  1  1  6
  3  2  1  0
  4  5  2  0
  4  2  1  0
  6  4  1  0
  7  6  1  0
  8  7  1  0
  9  8  1  0
  9 10  1  0
 10 11  1  6
 10  6  1  0
 11 18  1  0
 12 11  2  0
 14 13  1  1
 14 15  1  0
 16 14  1  0
 17 16  1  1
 18 17  1  0
 19 21  1  0
 19 17  1  0
 20 19  2  0
M  END
$$$$
