APL.pdb
     RDKit          3D

 21 21  0  0  1  0  0  0  0  0999 V2000
   19.9093  -19.4594  -12.3803 C   0  0  0  0  0  0  0  0  0  0  0  0
   21.0914  -20.4330  -12.4563 C   0  0  2  0  0  0  0  0  0  0  0  0
   21.0998  -21.0366  -13.7426 N   0  0  0  0  0  0  0  0  0  0  0  0
   21.1233  -21.3204  -11.3015 C   0  0  0  0  0  0  0  0  0  0  0  0
   20.5033  -22.4368  -11.4086 O   0  0  0  0  0  0  0  0  0  0  0  0
   21.7719  -21.0614  -10.0805 N   0  0  0  0  0  0  0  0  0  0  0  0
   22.5647  -19.8838   -9.7993 C   0  0  0  0  0  0  0  0  0  0  0  0
   23.4918  -20.3198   -8.6751 C   0  0  0  0  0  0  0  0  0  0  0  0
   22.5925  -21.2364   -7.9005 C   0  0  0  0  0  0  0  0  0  0  0  0
   21.7548  -21.8914   -8.9284 C   0  0  1  0  0  0  0  0  0  0  0  0
   20.3845  -22.2049   -8.4429 C   0  0  0  0  0  0  0  0  0  0  0  0
   19.5040  -21.3037   -8.6281 O   0  0  0  0  0  0  0  0  0  0  0  0
   16.3493  -26.4258   -8.7727 C   0  0  0  0  0  0  0  0  0  0  0  0
   16.5684  -24.9708   -8.3096 C   0  0  2  0  0  0  0  0  0  0  0  0
   15.6764  -24.0981   -9.1629 C   0  0  0  0  0  0  0  0  0  0  0  0
   18.0186  -24.6458   -8.4479 C   0  0  0  0  0  0  0  0  0  0  0  0
   18.5843  -23.6796   -7.4682 C   0  0  2  0  0  0  0  0  0  0  0  0
   19.9797  -23.3817   -7.8126 N   0  0  0  0  0  0  0  0  0  0  0  0
   18.4621  -24.1744   -6.1034 C   0  0  0  0  0  0  0  0  0  0  0  0
   19.4046  -24.7692   -5.5444 O   0  0  0  0  0  0  0  0  0  0  0  0
   17.2801  -24.0034   -5.3597 O   0  0  0  0  0  0  0  0  0  0  0  0
  2  1  1  1
  3  2  1  0
  4  5  2  0
  4  2  1  0
  6  4  1  0
  7  6  1  0
  8  7  1  0
  9  8  1  0
  9 10  1  0
 10 11  1  1
 10  6  1  0
 11 18  1  0
 12 11  2  0
 14 13  1  6
 14 15  1  0
 16 14  1  0
 17 16  1  6
 18 17  1  0
 19 21  1  0
 19 17  1  0
 20 19  2  0
M  END
$$$$
