APL.pdb
     RDKit          3D

 21 21  0  0  1  0  0  0  0  0999 V2000
   15.7562  -13.2457  -15.7731 C   0  0  0  0  0  0  0  0  0  0  0  0
   16.4693  -13.4819  -17.1098 C   0  0  2  0  0  0  0  0  0  0  0  0
   16.8720  -14.8431  -17.1746 N   0  0  0  0  0  0  0  0  0  0  0  0
   17.4895  -12.4709  -17.3530 C   0  0  0  0  0  0  0  0  0  0  0  0
   18.6882  -12.7581  -17.0024 O   0  0  0  0  0  0  0  0  0  0  0  0
   17.2768  -11.2089  -17.9366 N   0  0  0  0  0  0  0  0  0  0  0  0
   16.0077  -10.7386  -18.4492 C   0  0  0  0  0  0  0  0  0  0  0  0
   16.3890   -9.6664  -19.4584 C   0  0  0  0  0  0  0  0  0  0  0  0
   17.5861   -9.0572  -18.7917 C   0  0  0  0  0  0  0  0  0  0  0  0
   18.2509  -10.1909  -18.1134 C   0  0  1  0  0  0  0  0  0  0  0  0
   18.9284   -9.7919  -16.8511 C   0  0  0  0  0  0  0  0  0  0  0  0
   18.2380   -9.8982  -15.7862 O   0  0  0  0  0  0  0  0  0  0  0  0
   24.1963  -10.1278  -14.0322 C   0  0  0  0  0  0  0  0  0  0  0  0
   22.8533   -9.3708  -13.9783 C   0  0  2  0  0  0  0  0  0  0  0  0
   22.1651   -9.7859  -12.6979 C   0  0  0  0  0  0  0  0  0  0  0  0
   22.0723   -9.7091  -15.2044 C   0  0  0  0  0  0  0  0  0  0  0  0
   20.8361   -8.9186  -15.4498 C   0  0  2  0  0  0  0  0  0  0  0  0
   20.2350   -9.3193  -16.7276 N   0  0  0  0  0  0  0  0  0  0  0  0
   21.1042   -7.4873  -15.4080 C   0  0  0  0  0  0  0  0  0  0  0  0
   21.4192   -6.8581  -16.4374 O   0  0  0  0  0  0  0  0  0  0  0  0
   21.0197   -6.7555  -14.2094 O   0  0  0  0  0  0  0  0  0  0  0  0
  2  1  1  1
  3  2  1  0
  4  5  2  0
  4  2  1  0
  6  4  1  0
  7  6  1  0
  8  7  1  0
  9  8  1  0
  9 10  1  0
 10 11  1  1
 10  6  1  0
 11 18  1  0
 12 11  2  0
 14 13  1  6
 14 15  1  0
 16 14  1  0
 17 16  1  6
 18 17  1  0
 19 21  1  0
 19 17  1  0
 20 19  2  0
M  END
$$$$
