APL.pdb
     RDKit          3D

 21 21  0  0  1  0  0  0  0  0999 V2000
   22.8403  -19.2222  -14.5195 C   0  0  0  0  0  0  0  0  0  0  0  0
   23.3599  -20.0991  -15.6650 C   0  0  2  0  0  0  0  0  0  0  0  0
   23.1036  -19.4364  -16.8955 N   0  0  0  0  0  0  0  0  0  0  0  0
   22.8927  -21.4728  -15.5359 C   0  0  0  0  0  0  0  0  0  0  0  0
   21.7503  -21.7490  -16.0468 O   0  0  0  0  0  0  0  0  0  0  0  0
   23.5818  -22.5216  -14.9005 N   0  0  0  0  0  0  0  0  0  0  0  0
   24.8907  -22.4030  -14.2946 C   0  0  0  0  0  0  0  0  0  0  0  0
   25.4323  -23.8243  -14.2992 C   0  0  0  0  0  0  0  0  0  0  0  0
   24.1811  -24.6094  -14.0410 C   0  0  0  0  0  0  0  0  0  0  0  0
   23.1178  -23.8538  -14.7381 C   0  0  1  0  0  0  0  0  0  0  0  0
   21.8009  -23.9443  -14.0529 C   0  0  0  0  0  0  0  0  0  0  0  0
   21.6326  -23.1692  -13.0566 O   0  0  0  0  0  0  0  0  0  0  0  0
   17.3911  -23.4247  -15.0733 C   0  0  0  0  0  0  0  0  0  0  0  0
   17.9749  -24.7567  -15.5876 C   0  0  2  0  0  0  0  0  0  0  0  0
   16.8788  -25.4455  -16.3684 C   0  0  0  0  0  0  0  0  0  0  0  0
   18.4495  -25.5474  -14.4140 C   0  0  0  0  0  0  0  0  0  0  0  0
   19.5293  -24.9400  -13.5903 C   0  0  2  0  0  0  0  0  0  0  0  0
   20.7455  -24.7886  -14.3981 N   0  0  0  0  0  0  0  0  0  0  0  0
   19.7790  -25.7186  -12.3846 C   0  0  0  0  0  0  0  0  0  0  0  0
   20.7192  -26.5354  -12.3255 O   0  0  0  0  0  0  0  0  0  0  0  0
   18.9736  -25.5833  -11.2390 O   0  0  0  0  0  0  0  0  0  0  0  0
  2  1  1  1
  3  2  1  0
  4  5  2  0
  4  2  1  0
  6  4  1  0
  7  6  1  0
  8  7  1  0
  9  8  1  0
  9 10  1  0
 10 11  1  1
 10  6  1  0
 11 18  1  0
 12 11  2  0
 14 13  1  1
 14 15  1  0
 16 14  1  0
 17 16  1  6
 18 17  1  0
 19 21  1  0
 19 17  1  0
 20 19  2  0
M  END
$$$$
