APL.pdb
     RDKit          3D

 21 21  0  0  1  0  0  0  0  0999 V2000
   26.7730  -19.2490  -12.1375 C   0  0  0  0  0  0  0  0  0  0  0  0
   26.8824  -20.7724  -12.0030 C   0  0  2  0  0  0  0  0  0  0  0  0
   25.6239  -21.3477  -12.3263 N   0  0  0  0  0  0  0  0  0  0  0  0
   27.4834  -21.1513  -10.7313 C   0  0  0  0  0  0  0  0  0  0  0  0
   26.6879  -21.3326   -9.7432 O   0  0  0  0  0  0  0  0  0  0  0  0
   28.8572  -21.3346  -10.4909 N   0  0  0  0  0  0  0  0  0  0  0  0
   29.8948  -21.2141  -11.4925 C   0  0  0  0  0  0  0  0  0  0  0  0
   31.0419  -22.0469  -10.9411 C   0  0  0  0  0  0  0  0  0  0  0  0
   30.9117  -21.7778   -9.4716 C   0  0  0  0  0  0  0  0  0  0  0  0
   29.4555  -21.6554   -9.2437 C   0  0  1  0  0  0  0  0  0  0  0  0
   29.1193  -20.6948   -8.1593 C   0  0  0  0  0  0  0  0  0  0  0  0
   28.9356  -19.4866   -8.5175 O   0  0  0  0  0  0  0  0  0  0  0  0
   25.6322  -20.0440   -5.8731 C   0  0  0  0  0  0  0  0  0  0  0  0
   26.5222  -21.1566   -5.2817 C   0  0  2  0  0  0  0  0  0  0  0  0
   25.7096  -21.8473   -4.2101 C   0  0  0  0  0  0  0  0  0  0  0  0
   27.7742  -20.5319   -4.7620 C   0  0  0  0  0  0  0  0  0  0  0  0
   28.7171  -19.9819   -5.7728 C   0  0  2  0  0  0  0  0  0  0  0  0
   28.9867  -20.9922   -6.8030 N   0  0  0  0  0  0  0  0  0  0  0  0
   29.9463  -19.5088   -5.1502 C   0  0  0  0  0  0  0  0  0  0  0  0
   31.0123  -20.1465   -5.2572 O   0  0  0  0  0  0  0  0  0  0  0  0
   29.9839  -18.3166   -4.4041 O   0  0  0  0  0  0  0  0  0  0  0  0
  2  1  1  1
  3  2  1  0
  4  5  2  0
  4  2  1  0
  6  4  1  0
  7  6  1  0
  8  7  1  0
  9  8  1  0
  9 10  1  0
 10 11  1  1
 10  6  1  0
 11 18  1  0
 12 11  2  0
 14 13  1  1
 14 15  1  0
 16 14  1  0
 17 16  1  1
 18 17  1  0
 19 21  1  0
 19 17  1  0
 20 19  2  0
M  END
$$$$
