YLG.pdb
     RDKit          3D

 25 25  0  0  1  0  0  0  0  0999 V2000
   24.1739   -0.9879  -16.7678 O   0  0  0  0  0  0  0  0  0  0  0  0
   24.2855   -2.3849  -16.7482 C   0  0  0  0  0  0  0  0  0  0  0  0
   23.1595   -3.1661  -16.9011 C   0  0  0  0  0  0  0  0  0  0  0  0
   23.2812   -4.5511  -16.8801 C   0  0  0  0  0  0  0  0  0  0  0  0
   24.5040   -5.1666  -16.7097 C   0  0  0  0  0  0  0  0  0  0  0  0
   24.5545   -6.6430  -16.6985 C   0  0  0  0  0  0  0  0  0  0  0  0
   25.7665   -7.1753  -17.4358 C   0  0  2  0  0  0  0  0  0  0  0  0
   25.6321   -6.7804  -18.8257 N   0  0  0  0  0  0  0  0  0  0  0  0
   25.7044   -8.6769  -17.3205 C   0  0  0  0  0  0  0  0  0  0  0  0
   25.2832   -9.3672  -18.2842 O   0  0  0  0  0  0  0  0  0  0  0  0
   25.6306   -4.3762  -16.5568 C   0  0  0  0  0  0  0  0  0  0  0  0
   25.5025   -3.0036  -16.5786 C   0  0  0  0  0  0  0  0  0  0  0  0
   28.7880  -11.8648  -17.0500 C   0  0  0  0  0  0  0  0  0  0  0  0
   28.1393  -12.2927  -15.7670 C   0  0  2  0  0  0  0  0  0  0  0  0
   27.5843  -13.6972  -15.8624 C   0  0  0  0  0  0  0  0  0  0  0  0
   27.2000  -11.3291  -15.1560 C   0  0  0  0  0  0  0  0  0  0  0  0
   26.1110  -10.7588  -15.9681 C   0  0  2  0  0  0  0  0  0  0  0  0
   26.1192   -9.3289  -16.1266 N   0  0  0  0  0  0  0  0  0  0  0  0
   24.7580  -11.3340  -15.7436 C   0  0  0  0  0  0  0  0  0  0  0  0
   24.6915  -12.5929  -15.7446 O   0  0  0  0  0  0  0  0  0  0  0  0
   23.6106  -10.5410  -15.5463 N   0  0  0  0  0  0  0  0  0  0  0  0
   22.3398  -11.1386  -15.2633 C   0  0  0  0  0  0  0  0  0  0  0  0
   21.4920  -11.3418  -16.4526 C   0  0  0  0  0  0  0  0  0  0  0  0
   20.2091  -11.8376  -16.4583 O   0  0  0  0  0  0  0  0  0  0  0  0
   21.9581  -11.0396  -17.6119 O   0  0  0  0  0  0  0  0  0  0  0  0
  2  1  1  0
  3  2  2  0
  4  3  1  0
  5 11  1  0
  5  4  2  0
  6  5  1  0
  7  9  1  0
  7  6  1  0
  7  8  1  6
  9 18  1  0
  9 10  2  0
 11 12  2  0
 12  2  1  0
 14 13  1  6
 14 15  1  0
 16 14  1  0
 17 16  1  1
 18 17  1  0
 19 21  1  0
 19 17  1  0
 20 19  2  0
 22 21  1  0
 23 24  1  0
 23 22  1  0
 25 23  2  0
M  END
$$$$
