YLG.pdb
     RDKit          3D

 25 25  0  0  1  0  0  0  0  0999 V2000
   23.9542  -28.1309  -20.9780 O   0  0  0  0  0  0  0  0  0  0  0  0
   23.9366  -27.2762  -19.8673 C   0  0  0  0  0  0  0  0  0  0  0  0
   24.0479  -25.9136  -20.0474 C   0  0  0  0  0  0  0  0  0  0  0  0
   24.0293  -25.0743  -18.9389 C   0  0  0  0  0  0  0  0  0  0  0  0
   23.9020  -25.5714  -17.6583 C   0  0  0  0  0  0  0  0  0  0  0  0
   23.8901  -24.6178  -16.5301 C   0  0  0  0  0  0  0  0  0  0  0  0
   25.2740  -24.0807  -16.2261 C   0  0  2  0  0  0  0  0  0  0  0  0
   26.0525  -25.1794  -15.6852 N   0  0  0  0  0  0  0  0  0  0  0  0
   25.0915  -23.0151  -15.1757 C   0  0  0  0  0  0  0  0  0  0  0  0
   24.9736  -23.3357  -13.9650 O   0  0  0  0  0  0  0  0  0  0  0  0
   23.7907  -26.9406  -17.4845 C   0  0  0  0  0  0  0  0  0  0  0  0
   23.8098  -27.7667  -18.5883 C   0  0  0  0  0  0  0  0  0  0  0  0
   28.0697  -20.4334  -13.9803 C   0  0  0  0  0  0  0  0  0  0  0  0
   27.3365  -19.6825  -15.0521 C   0  0  2  0  0  0  0  0  0  0  0  0
   28.0951  -18.4481  -15.4885 C   0  0  0  0  0  0  0  0  0  0  0  0
   25.8995  -19.4358  -14.8114 C   0  0  0  0  0  0  0  0  0  0  0  0
   24.9947  -20.5743  -14.5747 C   0  0  2  0  0  0  0  0  0  0  0  0
   25.0506  -21.6406  -15.5388 N   0  0  0  0  0  0  0  0  0  0  0  0
   23.6171  -20.2329  -14.1305 C   0  0  0  0  0  0  0  0  0  0  0  0
   23.5349  -19.3644  -13.2204 O   0  0  0  0  0  0  0  0  0  0  0  0
   22.4649  -20.8338  -14.6743 N   0  0  0  0  0  0  0  0  0  0  0  0
   21.1547  -20.4079  -14.2816 C   0  0  0  0  0  0  0  0  0  0  0  0
   20.4558  -21.3537  -13.3920 C   0  0  0  0  0  0  0  0  0  0  0  0
   19.1808  -21.2096  -12.8971 O   0  0  0  0  0  0  0  0  0  0  0  0
   21.0599  -22.4261  -13.0209 O   0  0  0  0  0  0  0  0  0  0  0  0
  2  1  1  0
  3  2  2  0
  4  3  1  0
  5 11  1  0
  5  4  2  0
  6  5  1  0
  7  9  1  0
  7  6  1  0
  7  8  1  1
  9 18  1  0
  9 10  2  0
 11 12  2  0
 12  2  1  0
 14 13  1  1
 14 15  1  0
 16 14  1  0
 17 16  1  6
 18 17  1  0
 19 21  1  0
 19 17  1  0
 20 19  2  0
 22 21  1  0
 23 24  1  0
 23 22  1  0
 25 23  2  0
M  END
$$$$
