YLG.pdb
     RDKit          3D

 25 25  0  0  1  0  0  0  0  0999 V2000
   27.8892  -15.7100  -17.9201 O   0  0  0  0  0  0  0  0  0  0  0  0
   27.4446  -16.6207  -16.9519 C   0  0  0  0  0  0  0  0  0  0  0  0
   27.4655  -16.2701  -15.6184 C   0  0  0  0  0  0  0  0  0  0  0  0
   27.0222  -17.1808  -14.6657 C   0  0  0  0  0  0  0  0  0  0  0  0
   26.5601  -18.4311  -15.0213 C   0  0  0  0  0  0  0  0  0  0  0  0
   26.1054  -19.3445  -13.9529 C   0  0  0  0  0  0  0  0  0  0  0  0
   27.2605  -19.8671  -13.1231 C   0  0  2  0  0  0  0  0  0  0  0  0
   28.0425  -20.7418  -13.9771 N   0  0  0  0  0  0  0  0  0  0  0  0
   26.6465  -20.6621  -11.9991 C   0  0  0  0  0  0  0  0  0  0  0  0
   26.6625  -21.9195  -12.0330 O   0  0  0  0  0  0  0  0  0  0  0  0
   26.5418  -18.7767  -16.3620 C   0  0  0  0  0  0  0  0  0  0  0  0
   26.9828  -17.8687  -17.3011 C   0  0  0  0  0  0  0  0  0  0  0  0
   28.0626  -21.0213   -7.9296 C   0  0  0  0  0  0  0  0  0  0  0  0
   27.1400  -19.8443   -8.0463 C   0  0  2  0  0  0  0  0  0  0  0  0
   27.2433  -18.9316   -6.8438 C   0  0  0  0  0  0  0  0  0  0  0  0
   25.7474  -20.1417   -8.4414 C   0  0  0  0  0  0  0  0  0  0  0  0
   25.4734  -20.7070   -9.7742 C   0  0  2  0  0  0  0  0  0  0  0  0
   26.0445  -20.0035  -10.8917 N   0  0  0  0  0  0  0  0  0  0  0  0
   24.0854  -21.1869  -10.0079 C   0  0  0  0  0  0  0  0  0  0  0  0
   23.5378  -21.7728   -9.0351 O   0  0  0  0  0  0  0  0  0  0  0  0
   23.4097  -21.0135  -11.2317 N   0  0  0  0  0  0  0  0  0  0  0  0
   22.0896  -21.5346  -11.4266 C   0  0  0  0  0  0  0  0  0  0  0  0
   21.0243  -20.5176  -11.3538 C   0  0  0  0  0  0  0  0  0  0  0  0
   19.6705  -20.7592  -11.3723 O   0  0  0  0  0  0  0  0  0  0  0  0
   21.3491  -19.2770  -11.2637 O   0  0  0  0  0  0  0  0  0  0  0  0
  2  1  1  0
  3  2  2  0
  4  3  1  0
  5 11  1  0
  5  4  2  0
  6  5  1  0
  7  9  1  0
  7  6  1  0
  7  8  1  6
  9 18  1  0
  9 10  2  0
 11 12  2  0
 12  2  1  0
 14 13  1  1
 14 15  1  0
 16 14  1  0
 17 16  1  1
 18 17  1  0
 19 21  1  0
 19 17  1  0
 20 19  2  0
 22 21  1  0
 23 24  1  0
 23 22  1  0
 25 23  2  0
M  END
$$$$
