YLG.pdb
     RDKit          3D

 25 25  0  0  1  0  0  0  0  0999 V2000
   20.2946  -13.6138  -24.4647 O   0  0  0  0  0  0  0  0  0  0  0  0
   20.6400  -12.9935  -23.2562 C   0  0  0  0  0  0  0  0  0  0  0  0
   19.6608  -12.6986  -22.3312 C   0  0  0  0  0  0  0  0  0  0  0  0
   20.0139  -12.0831  -21.1353 C   0  0  0  0  0  0  0  0  0  0  0  0
   21.3238  -11.7585  -20.8490 C   0  0  0  0  0  0  0  0  0  0  0  0
   21.6222  -11.1061  -19.5576 C   0  0  0  0  0  0  0  0  0  0  0  0
   22.5260  -11.9558  -18.6876 C   0  0  2  0  0  0  0  0  0  0  0  0
   21.7532  -13.1075  -18.2606 N   0  0  0  0  0  0  0  0  0  0  0  0
   22.8833  -11.1065  -17.4946 C   0  0  0  0  0  0  0  0  0  0  0  0
   22.1448  -11.1060  -16.4762 O   0  0  0  0  0  0  0  0  0  0  0  0
   22.3021  -12.0574  -21.7822 C   0  0  0  0  0  0  0  0  0  0  0  0
   21.9447  -12.6677  -22.9658 C   0  0  0  0  0  0  0  0  0  0  0  0
   26.3609  -11.2846  -14.8269 C   0  0  0  0  0  0  0  0  0  0  0  0
   26.6702  -10.3975  -15.9963 C   0  0  2  0  0  0  0  0  0  0  0  0
   28.1495  -10.0936  -16.0916 C   0  0  0  0  0  0  0  0  0  0  0  0
   25.8128   -9.2045  -16.1569 C   0  0  0  0  0  0  0  0  0  0  0  0
   24.3796   -9.3724  -16.4545 C   0  0  2  0  0  0  0  0  0  0  0  0
   24.0540  -10.2992  -17.5056 N   0  0  0  0  0  0  0  0  0  0  0  0
   23.5657   -8.1278  -16.4727 C   0  0  0  0  0  0  0  0  0  0  0  0
   23.6596   -7.4278  -17.5170 O   0  0  0  0  0  0  0  0  0  0  0  0
   22.7411   -7.7349  -15.4004 N   0  0  0  0  0  0  0  0  0  0  0  0
   22.0601   -6.4747  -15.4159 C   0  0  0  0  0  0  0  0  0  0  0  0
   20.7386   -6.5127  -16.0692 C   0  0  0  0  0  0  0  0  0  0  0  0
   19.8230   -5.4872  -16.1060 O   0  0  0  0  0  0  0  0  0  0  0  0
   20.3697   -7.5865  -16.6720 O   0  0  0  0  0  0  0  0  0  0  0  0
  2  1  1  0
  3  2  2  0
  4  3  1  0
  5 11  1  0
  5  4  2  0
  6  5  1  0
  7  9  1  0
  7  6  1  0
  7  8  1  1
  9 18  1  0
  9 10  2  0
 11 12  2  0
 12  2  1  0
 14 13  1  1
 14 15  1  0
 16 14  1  0
 17 16  1  6
 18 17  1  0
 19 21  1  0
 19 17  1  0
 20 19  2  0
 22 21  1  0
 23 24  1  0
 23 22  1  0
 25 23  2  0
M  END
$$$$
