YLG.pdb
     RDKit          3D

 25 25  0  0  1  0  0  0  0  0999 V2000
   17.9471  -22.0378   -9.4073 O   0  0  0  0  0  0  0  0  0  0  0  0
   19.2236  -21.9504   -9.9795 C   0  0  0  0  0  0  0  0  0  0  0  0
   19.4485  -21.0826  -11.0273 C   0  0  0  0  0  0  0  0  0  0  0  0
   20.7186  -21.0035  -11.5880 C   0  0  0  0  0  0  0  0  0  0  0  0
   21.7637  -21.7736  -11.1213 C   0  0  0  0  0  0  0  0  0  0  0  0
   23.0849  -21.6346  -11.7673 C   0  0  0  0  0  0  0  0  0  0  0  0
   24.1129  -21.0292  -10.8330 C   0  0  2  0  0  0  0  0  0  0  0  0
   23.5220  -19.8341  -10.2599 N   0  0  0  0  0  0  0  0  0  0  0  0
   25.2949  -20.6565  -11.6910 C   0  0  0  0  0  0  0  0  0  0  0  0
   25.4113  -19.4834  -12.1301 O   0  0  0  0  0  0  0  0  0  0  0  0
   21.5309  -22.6429  -10.0689 C   0  0  0  0  0  0  0  0  0  0  0  0
   20.2691  -22.7161   -9.5179 C   0  0  0  0  0  0  0  0  0  0  0  0
   29.5356  -19.5504  -11.3307 C   0  0  0  0  0  0  0  0  0  0  0  0
   29.3258  -21.0247  -11.1503 C   0  0  2  0  0  0  0  0  0  0  0  0
   30.5536  -21.6981  -10.5771 C   0  0  0  0  0  0  0  0  0  0  0  0
   28.7406  -21.7472  -12.2990 C   0  0  0  0  0  0  0  0  0  0  0  0
   27.4330  -21.3282  -12.8334 C   0  0  2  0  0  0  0  0  0  0  0  0
   26.2883  -21.6218  -12.0130 N   0  0  0  0  0  0  0  0  0  0  0  0
   27.2134  -21.5667  -14.2848 C   0  0  0  0  0  0  0  0  0  0  0  0
   28.1749  -21.2622  -15.0412 O   0  0  0  0  0  0  0  0  0  0  0  0
   26.0135  -22.0925  -14.8027 N   0  0  0  0  0  0  0  0  0  0  0  0
   25.8869  -22.4121  -16.1934 C   0  0  0  0  0  0  0  0  0  0  0  0
   25.2049  -21.3751  -16.9896 C   0  0  0  0  0  0  0  0  0  0  0  0
   25.1434  -21.3171  -18.3623 O   0  0  0  0  0  0  0  0  0  0  0  0
   24.5987  -20.4180  -16.3821 O   0  0  0  0  0  0  0  0  0  0  0  0
  2  1  1  0
  3  2  2  0
  4  3  1  0
  5 11  1  0
  5  4  2  0
  6  5  1  0
  7  9  1  0
  7  6  1  0
  7  8  1  6
  9 18  1  0
  9 10  2  0
 11 12  2  0
 12  2  1  0
 14 13  1  6
 14 15  1  0
 16 14  1  0
 17 16  1  1
 18 17  1  0
 19 21  1  0
 19 17  1  0
 20 19  2  0
 22 21  1  0
 23 24  1  0
 23 22  1  0
 25 23  2  0
M  END
$$$$
