YLG.pdb
     RDKit          3D

 25 25  0  0  1  0  0  0  0  0999 V2000
   13.8378  -10.2309  -21.2311 O   0  0  0  0  0  0  0  0  0  0  0  0
   14.6147   -9.7204  -20.1822 C   0  0  0  0  0  0  0  0  0  0  0  0
   15.9845   -9.6392  -20.3185 C   0  0  0  0  0  0  0  0  0  0  0  0
   16.7461   -9.1312  -19.2718 C   0  0  0  0  0  0  0  0  0  0  0  0
   16.1646   -8.7044  -18.0958 C   0  0  0  0  0  0  0  0  0  0  0  0
   17.0388   -8.1764  -17.0284 C   0  0  0  0  0  0  0  0  0  0  0  0
   17.7870   -9.2805  -16.3093 C   0  0  2  0  0  0  0  0  0  0  0  0
   16.8087  -10.0431  -15.5562 N   0  0  0  0  0  0  0  0  0  0  0  0
   18.7422   -8.5967  -15.3647 C   0  0  0  0  0  0  0  0  0  0  0  0
   18.3660   -8.2782  -14.2073 O   0  0  0  0  0  0  0  0  0  0  0  0
   14.7886   -8.7887  -17.9656 C   0  0  0  0  0  0  0  0  0  0  0  0
   14.0398   -9.2935  -19.0075 C   0  0  0  0  0  0  0  0  0  0  0  0
   21.7244   -9.7319  -12.6534 C   0  0  0  0  0  0  0  0  0  0  0  0
   22.3024   -9.6877  -14.0368 C   0  0  2  0  0  0  0  0  0  0  0  0
   23.6351  -10.4008  -14.1089 C   0  0  0  0  0  0  0  0  0  0  0  0
   22.3040   -8.3686  -14.7031 C   0  0  0  0  0  0  0  0  0  0  0  0
   21.0311   -7.6565  -14.9116 C   0  0  2  0  0  0  0  0  0  0  0  0
   20.0742   -8.3045  -15.7685 N   0  0  0  0  0  0  0  0  0  0  0  0
   21.1305   -6.1873  -15.1194 C   0  0  0  0  0  0  0  0  0  0  0  0
   21.8913   -5.5723  -14.3242 O   0  0  0  0  0  0  0  0  0  0  0  0
   20.4240   -5.5060  -16.1299 N   0  0  0  0  0  0  0  0  0  0  0  0
   20.4914   -4.0797  -16.2448 C   0  0  0  0  0  0  0  0  0  0  0  0
   19.4676   -3.3637  -15.4616 C   0  0  0  0  0  0  0  0  0  0  0  0
   19.3197   -1.9990  -15.3766 O   0  0  0  0  0  0  0  0  0  0  0  0
   18.6140   -4.0417  -14.7802 O   0  0  0  0  0  0  0  0  0  0  0  0
  2  1  1  0
  3  2  2  0
  4  3  1  0
  5 11  1  0
  5  4  2  0
  6  5  1  0
  7  9  1  0
  7  6  1  0
  7  8  1  1
  9 18  1  0
  9 10  2  0
 11 12  2  0
 12  2  1  0
 14 13  1  1
 14 15  1  0
 16 14  1  0
 17 16  1  6
 18 17  1  0
 19 21  1  0
 19 17  1  0
 20 19  2  0
 22 21  1  0
 23 24  1  0
 23 22  1  0
 25 23  2  0
M  END
$$$$
