YLG.pdb
     RDKit          3D

 25 25  0  0  1  0  0  0  0  0999 V2000
   22.3581  -18.5901  -17.1919 O   0  0  0  0  0  0  0  0  0  0  0  0
   22.7762  -19.1836  -15.9930 C   0  0  0  0  0  0  0  0  0  0  0  0
   22.5794  -18.5270  -14.7965 C   0  0  0  0  0  0  0  0  0  0  0  0
   22.9980  -19.1245  -13.6127 C   0  0  0  0  0  0  0  0  0  0  0  0
   23.6074  -20.3622  -13.6040 C   0  0  0  0  0  0  0  0  0  0  0  0
   24.0247  -20.9332  -12.3070 C   0  0  0  0  0  0  0  0  0  0  0  0
   25.4335  -20.5204  -11.9319 C   0  0  2  0  0  0  0  0  0  0  0  0
   26.3355  -21.1765  -12.8604 N   0  0  0  0  0  0  0  0  0  0  0  0
   25.6675  -21.0391  -10.5361 C   0  0  0  0  0  0  0  0  0  0  0  0
   25.7921  -22.2746  -10.3343 O   0  0  0  0  0  0  0  0  0  0  0  0
   23.8019  -21.0160  -14.8090 C   0  0  0  0  0  0  0  0  0  0  0  0
   23.3844  -20.4175  -15.9789 C   0  0  0  0  0  0  0  0  0  0  0  0
   28.5582  -20.6938   -6.9440 C   0  0  0  0  0  0  0  0  0  0  0  0
   27.6888  -19.4821   -7.1048 C   0  0  2  0  0  0  0  0  0  0  0  0
   28.1530  -18.3404   -6.2270 C   0  0  0  0  0  0  0  0  0  0  0  0
   26.2300  -19.7119   -7.0488 C   0  0  0  0  0  0  0  0  0  0  0  0
   25.5866  -20.5594   -8.0680 C   0  0  2  0  0  0  0  0  0  0  0  0
   25.7497  -20.1425   -9.4352 N   0  0  0  0  0  0  0  0  0  0  0  0
   24.2196  -21.0473   -7.7441 C   0  0  0  0  0  0  0  0  0  0  0  0
   23.2693  -20.3621   -8.2096 O   0  0  0  0  0  0  0  0  0  0  0  0
   23.9799  -22.1955   -6.9639 N   0  0  0  0  0  0  0  0  0  0  0  0
   22.6446  -22.6165   -6.6606 C   0  0  0  0  0  0  0  0  0  0  0  0
   22.1592  -22.1740   -5.3404 C   0  0  0  0  0  0  0  0  0  0  0  0
   20.9594  -22.5161   -4.7616 O   0  0  0  0  0  0  0  0  0  0  0  0
   22.8966  -21.3949   -4.6319 O   0  0  0  0  0  0  0  0  0  0  0  0
  2  1  1  0
  3  2  2  0
  4  3  1  0
  5 11  1  0
  5  4  2  0
  6  5  1  0
  7  9  1  0
  7  6  1  0
  7  8  1  6
  9 18  1  0
  9 10  2  0
 11 12  2  0
 12  2  1  0
 14 13  1  1
 14 15  1  0
 16 14  1  0
 17 16  1  1
 18 17  1  0
 19 21  1  0
 19 17  1  0
 20 19  2  0
 22 21  1  0
 23 24  1  0
 23 22  1  0
 25 23  2  0
M  END
$$$$
