YLG.pdb
     RDKit          3D

 25 25  0  0  1  0  0  0  0  0999 V2000
   15.8941  -24.8223  -13.5917 O   0  0  0  0  0  0  0  0  0  0  0  0
   17.1055  -24.1226  -13.6781 C   0  0  0  0  0  0  0  0  0  0  0  0
   17.1739  -22.9556  -14.4095 C   0  0  0  0  0  0  0  0  0  0  0  0
   18.3805  -22.2690  -14.4888 C   0  0  0  0  0  0  0  0  0  0  0  0
   19.5156  -22.7268  -13.8523 C   0  0  0  0  0  0  0  0  0  0  0  0
   20.7612  -21.9431  -13.9823 C   0  0  0  0  0  0  0  0  0  0  0  0
   21.1766  -21.3149  -12.6675 C   0  0  2  0  0  0  0  0  0  0  0  0
   20.1715  -20.3249  -12.3274 N   0  0  0  0  0  0  0  0  0  0  0  0
   22.4986  -20.6374  -12.9228 C   0  0  0  0  0  0  0  0  0  0  0  0
   22.5690  -19.3818  -12.9532 O   0  0  0  0  0  0  0  0  0  0  0  0
   19.4400  -23.8993  -13.1196 C   0  0  0  0  0  0  0  0  0  0  0  0
   18.2403  -24.5748  -13.0453 C   0  0  0  0  0  0  0  0  0  0  0  0
   27.7615  -19.6113  -12.4516 C   0  0  0  0  0  0  0  0  0  0  0  0
   27.4814  -21.0210  -12.8810 C   0  0  2  0  0  0  0  0  0  0  0  0
   28.0083  -21.2968  -14.2724 C   0  0  0  0  0  0  0  0  0  0  0  0
   26.1028  -21.5083  -12.6665 C   0  0  0  0  0  0  0  0  0  0  0  0
   24.9765  -20.8170  -13.3179 C   0  0  2  0  0  0  0  0  0  0  0  0
   23.6771  -21.4057  -13.1315 N   0  0  0  0  0  0  0  0  0  0  0  0
   25.2235  -20.3228  -14.6987 C   0  0  0  0  0  0  0  0  0  0  0  0
   26.0930  -19.4165  -14.8082 O   0  0  0  0  0  0  0  0  0  0  0  0
   24.5367  -20.8176  -15.8247 N   0  0  0  0  0  0  0  0  0  0  0  0
   24.8805  -20.3872  -17.1472 C   0  0  0  0  0  0  0  0  0  0  0  0
   26.0943  -21.0240  -17.6909 C   0  0  0  0  0  0  0  0  0  0  0  0
   27.1203  -20.3848  -18.3467 O   0  0  0  0  0  0  0  0  0  0  0  0
   26.2463  -22.2938  -17.5604 O   0  0  0  0  0  0  0  0  0  0  0  0
  2  1  1  0
  3  2  2  0
  4  3  1  0
  5 11  1  0
  5  4  2  0
  6  5  1  0
  7  9  1  0
  7  6  1  0
  7  8  1  6
  9 18  1  0
  9 10  2  0
 11 12  2  0
 12  2  1  0
 14 13  1  6
 14 15  1  0
 16 14  1  0
 17 16  1  6
 18 17  1  0
 19 21  1  0
 19 17  1  0
 20 19  2  0
 22 21  1  0
 23 24  1  0
 23 22  1  0
 25 23  2  0
M  END
$$$$
