YLG.pdb
     RDKit          3D

 25 25  0  0  1  0  0  0  0  0999 V2000
   39.3805  -37.8527   -8.3087 O   0  0  0  0  0  0  0  0  0  0  0  0
   38.3462  -37.3507   -7.5070 C   0  0  0  0  0  0  0  0  0  0  0  0
   37.1690  -36.9297   -8.0887 C   0  0  0  0  0  0  0  0  0  0  0  0
   36.1490  -36.4334   -7.2844 C   0  0  0  0  0  0  0  0  0  0  0  0
   36.2847  -36.3508   -5.9141 C   0  0  0  0  0  0  0  0  0  0  0  0
   35.1574  -35.8125   -5.1254 C   0  0  0  0  0  0  0  0  0  0  0  0
   34.3461  -36.9122   -4.4709 C   0  0  2  0  0  0  0  0  0  0  0  0
   33.6442  -37.6161   -5.5282 N   0  0  0  0  0  0  0  0  0  0  0  0
   33.3554  -36.2243   -3.5668 C   0  0  0  0  0  0  0  0  0  0  0  0
   33.7603  -35.5269   -2.6013 O   0  0  0  0  0  0  0  0  0  0  0  0
   37.4693  -36.7752   -5.3364 C   0  0  0  0  0  0  0  0  0  0  0  0
   38.4764  -37.2663   -6.1400 C   0  0  0  0  0  0  0  0  0  0  0  0
   30.7802  -32.9141   -4.2118 C   0  0  0  0  0  0  0  0  0  0  0  0
   29.9968  -34.1189   -4.6415 C   0  0  2  0  0  0  0  0  0  0  0  0
   28.7251  -33.7304   -5.3638 C   0  0  0  0  0  0  0  0  0  0  0  0
   29.7962  -35.1672   -3.6193 C   0  0  0  0  0  0  0  0  0  0  0  0
   30.9641  -35.7564   -2.9414 C   0  0  2  0  0  0  0  0  0  0  0  0
   31.9574  -36.3546   -3.7930 N   0  0  0  0  0  0  0  0  0  0  0  0
   30.6793  -36.5344   -1.7064 C   0  0  0  0  0  0  0  0  0  0  0  0
   30.5376  -37.7773   -1.8630 O   0  0  0  0  0  0  0  0  0  0  0  0
   30.5650  -35.9397   -0.4345 N   0  0  0  0  0  0  0  0  0  0  0  0
   30.2437  -36.7234    0.7208 C   0  0  0  0  0  0  0  0  0  0  0  0
   28.8476  -37.1967    0.7578 C   0  0  0  0  0  0  0  0  0  0  0  0
   28.3329  -38.1362    1.6203 O   0  0  0  0  0  0  0  0  0  0  0  0
   28.0001  -36.7106   -0.0778 O   0  0  0  0  0  0  0  0  0  0  0  0
  2  1  1  0
  3  2  2  0
  4  3  1  0
  5 11  1  0
  5  4  2  0
  6  5  1  0
  7  9  1  0
  7  6  1  0
  7  8  1  6
  9 18  1  0
  9 10  2  0
 11 12  2  0
 12  2  1  0
 14 13  1  1
 14 15  1  0
 16 14  1  0
 17 16  1  6
 18 17  1  0
 19 21  1  0
 19 17  1  0
 20 19  2  0
 22 21  1  0
 23 24  1  0
 23 22  1  0
 25 23  2  0
M  END
$$$$
