YLG.pdb
     RDKit          3D

 25 25  0  0  1  0  0  0  0  0999 V2000
   23.4931  -12.3444  -24.1866 O   0  0  0  0  0  0  0  0  0  0  0  0
   22.9935  -11.6546  -23.0735 C   0  0  0  0  0  0  0  0  0  0  0  0
   21.7356  -11.0916  -23.1222 C   0  0  0  0  0  0  0  0  0  0  0  0
   21.2492  -10.4093  -22.0124 C   0  0  0  0  0  0  0  0  0  0  0  0
   21.9954  -10.2804  -20.8592 C   0  0  0  0  0  0  0  0  0  0  0  0
   21.4116   -9.5414  -19.7210 C   0  0  0  0  0  0  0  0  0  0  0  0
   21.2960  -10.4061  -18.4821 C   0  0  2  0  0  0  0  0  0  0  0  0
   20.2128  -11.3440  -18.7118 N   0  0  0  0  0  0  0  0  0  0  0  0
   20.9386   -9.4763  -17.3507 C   0  0  0  0  0  0  0  0  0  0  0  0
   19.7344   -9.1914  -17.1242 O   0  0  0  0  0  0  0  0  0  0  0  0
   23.2576  -10.8481  -20.8171 C   0  0  0  0  0  0  0  0  0  0  0  0
   23.7334  -11.5231  -21.9211 C   0  0  0  0  0  0  0  0  0  0  0  0
   20.6957  -10.1629  -12.9734 C   0  0  0  0  0  0  0  0  0  0  0  0
   21.9897   -9.8602  -13.6691 C   0  0  2  0  0  0  0  0  0  0  0  0
   23.1746  -10.4252  -12.9164 C   0  0  0  0  0  0  0  0  0  0  0  0
   22.1842   -8.4630  -14.1095 C   0  0  0  0  0  0  0  0  0  0  0  0
   21.6730   -8.0358  -15.4236 C   0  0  2  0  0  0  0  0  0  0  0  0
   21.9534   -8.9124  -16.5294 N   0  0  0  0  0  0  0  0  0  0  0  0
   21.8221   -6.5914  -15.7448 C   0  0  0  0  0  0  0  0  0  0  0  0
   23.0062   -6.1796  -15.8773 O   0  0  0  0  0  0  0  0  0  0  0  0
   20.7243   -5.7207  -15.8900 N   0  0  0  0  0  0  0  0  0  0  0  0
   20.9088   -4.3633  -16.3091 C   0  0  0  0  0  0  0  0  0  0  0  0
   21.0824   -3.4088  -15.1985 C   0  0  0  0  0  0  0  0  0  0  0  0
   20.6178   -2.1149  -15.1619 O   0  0  0  0  0  0  0  0  0  0  0  0
   21.7219   -3.7817  -14.1476 O   0  0  0  0  0  0  0  0  0  0  0  0
  2  1  1  0
  3  2  2  0
  4  3  1  0
  5 11  1  0
  5  4  2  0
  6  5  1  0
  7  9  1  0
  7  6  1  0
  7  8  1  6
  9 18  1  0
  9 10  2  0
 11 12  2  0
 12  2  1  0
 14 13  1  1
 14 15  1  0
 16 14  1  0
 17 16  1  1
 18 17  1  0
 19 21  1  0
 19 17  1  0
 20 19  2  0
 22 21  1  0
 23 24  1  0
 23 22  1  0
 25 23  2  0
M  END
$$$$
