YLG.pdb
     RDKit          3D

 25 25  0  0  1  0  0  0  0  0999 V2000
   18.0679  -15.1860  -16.4781 O   0  0  0  0  0  0  0  0  0  0  0  0
   17.7281  -13.9303  -15.9563 C   0  0  0  0  0  0  0  0  0  0  0  0
   17.0160  -13.0360  -16.7274 C   0  0  0  0  0  0  0  0  0  0  0  0
   16.6839  -11.7928  -16.2004 C   0  0  0  0  0  0  0  0  0  0  0  0
   17.0499  -11.4293  -14.9209 C   0  0  0  0  0  0  0  0  0  0  0  0
   16.6610  -10.0913  -14.4299 C   0  0  0  0  0  0  0  0  0  0  0  0
   15.5840  -10.1677  -13.3668 C   0  0  2  0  0  0  0  0  0  0  0  0
   14.3563  -10.5718  -14.0266 N   0  0  0  0  0  0  0  0  0  0  0  0
   15.4353   -8.7724  -12.8160 C   0  0  0  0  0  0  0  0  0  0  0  0
   14.5985   -7.9803  -13.3208 O   0  0  0  0  0  0  0  0  0  0  0  0
   17.7649  -12.3320  -14.1520 C   0  0  0  0  0  0  0  0  0  0  0  0
   18.0906  -13.5629  -14.6811 C   0  0  0  0  0  0  0  0  0  0  0  0
   13.6090   -6.4476   -9.5618 C   0  0  0  0  0  0  0  0  0  0  0  0
   14.8139   -7.1746   -9.0423 C   0  0  2  0  0  0  0  0  0  0  0  0
   14.9051   -7.0989   -7.5338 C   0  0  0  0  0  0  0  0  0  0  0  0
   16.0937   -6.8901   -9.7243 C   0  0  0  0  0  0  0  0  0  0  0  0
   16.1777   -7.0014  -11.1911 C   0  0  2  0  0  0  0  0  0  0  0  0
   16.2355   -8.3364  -11.7241 N   0  0  0  0  0  0  0  0  0  0  0  0
   17.0887   -6.0405  -11.8683 C   0  0  0  0  0  0  0  0  0  0  0  0
   18.3176   -6.3150  -11.8065 O   0  0  0  0  0  0  0  0  0  0  0  0
   16.6292   -4.8885  -12.5362 N   0  0  0  0  0  0  0  0  0  0  0  0
   17.5369   -4.0298  -13.2368 C   0  0  0  0  0  0  0  0  0  0  0  0
   17.8701   -4.4883  -14.5981 C   0  0  0  0  0  0  0  0  0  0  0  0
   18.7264   -3.8660  -15.4761 O   0  0  0  0  0  0  0  0  0  0  0  0
   17.3309   -5.5667  -15.0442 O   0  0  0  0  0  0  0  0  0  0  0  0
  2  1  1  0
  3  2  2  0
  4  3  1  0
  5 11  1  0
  5  4  2  0
  6  5  1  0
  7  9  1  0
  7  6  1  0
  7  8  1  6
  9 18  1  0
  9 10  2  0
 11 12  2  0
 12  2  1  0
 14 13  1  6
 14 15  1  0
 16 14  1  0
 17 16  1  1
 18 17  1  0
 19 21  1  0
 19 17  1  0
 20 19  2  0
 22 21  1  0
 23 24  1  0
 23 22  1  0
 25 23  2  0
M  END
$$$$
