YLG.pdb
     RDKit          3D

 25 25  0  0  1  0  0  0  0  0999 V2000
   17.7859  -14.2813  -22.2972 O   0  0  0  0  0  0  0  0  0  0  0  0
   18.5632  -13.7973  -21.2361 C   0  0  0  0  0  0  0  0  0  0  0  0
   18.2737  -14.1785  -19.9430 C   0  0  0  0  0  0  0  0  0  0  0  0
   19.0510  -13.6927  -18.8973 C   0  0  0  0  0  0  0  0  0  0  0  0
   20.1086  -12.8356  -19.1209 C   0  0  0  0  0  0  0  0  0  0  0  0
   20.8890  -12.3613  -17.9597 C   0  0  0  0  0  0  0  0  0  0  0  0
   22.3431  -12.7788  -18.0441 C   0  0  2  0  0  0  0  0  0  0  0  0
   22.3816  -14.2259  -17.9425 N   0  0  0  0  0  0  0  0  0  0  0  0
   23.0289  -12.1623  -16.8518 C   0  0  0  0  0  0  0  0  0  0  0  0
   23.0676  -12.7800  -15.7565 O   0  0  0  0  0  0  0  0  0  0  0  0
   20.3939  -12.4567  -20.4219 C   0  0  0  0  0  0  0  0  0  0  0  0
   19.6189  -12.9424  -21.4537 C   0  0  0  0  0  0  0  0  0  0  0  0
   26.8396  -12.1433  -15.4038 C   0  0  0  0  0  0  0  0  0  0  0  0
   26.7593  -11.0678  -16.4463 C   0  0  2  0  0  0  0  0  0  0  0  0
   28.1329  -10.5847  -16.8581 C   0  0  0  0  0  0  0  0  0  0  0  0
   25.8044   -9.9712  -16.1825 C   0  0  0  0  0  0  0  0  0  0  0  0
   24.3972  -10.2875  -15.8816 C   0  0  2  0  0  0  0  0  0  0  0  0
   23.6376  -10.8807  -16.9498 N   0  0  0  0  0  0  0  0  0  0  0  0
   23.6490   -9.2640  -15.1042 C   0  0  0  0  0  0  0  0  0  0  0  0
   24.2436   -8.8024  -14.0929 O   0  0  0  0  0  0  0  0  0  0  0  0
   22.3559   -8.8287  -15.4546 N   0  0  0  0  0  0  0  0  0  0  0  0
   21.6893   -7.8108  -14.6984 C   0  0  0  0  0  0  0  0  0  0  0  0
   21.9362   -6.4408  -15.1847 C   0  0  0  0  0  0  0  0  0  0  0  0
   21.4308   -5.2838  -14.6393 O   0  0  0  0  0  0  0  0  0  0  0  0
   22.6891   -6.2681  -16.2124 O   0  0  0  0  0  0  0  0  0  0  0  0
  2  1  1  0
  3  2  2  0
  4  3  1  0
  5 11  1  0
  5  4  2  0
  6  5  1  0
  7  9  1  0
  7  6  1  0
  7  8  1  1
  9 18  1  0
  9 10  2  0
 11 12  2  0
 12  2  1  0
 14 13  1  1
 14 15  1  0
 16 14  1  0
 17 16  1  6
 18 17  1  0
 19 21  1  0
 19 17  1  0
 20 19  2  0
 22 21  1  0
 23 24  1  0
 23 22  1  0
 25 23  2  0
M  END
$$$$
