YLG.pdb
     RDKit          3D

 25 25  0  0  1  0  0  0  0  0999 V2000
   20.8408  -22.1486  -14.1052 O   0  0  0  0  0  0  0  0  0  0  0  0
   20.9174  -20.7812  -14.4033 C   0  0  0  0  0  0  0  0  0  0  0  0
   21.7942  -20.3373  -15.3706 C   0  0  0  0  0  0  0  0  0  0  0  0
   21.8624  -18.9786  -15.6588 C   0  0  0  0  0  0  0  0  0  0  0  0
   21.0726  -18.0595  -14.9995 C   0  0  0  0  0  0  0  0  0  0  0  0
   21.2009  -16.6327  -15.3601 C   0  0  0  0  0  0  0  0  0  0  0  0
   19.9419  -16.0961  -16.0105 C   0  0  2  0  0  0  0  0  0  0  0  0
   19.7387  -16.8448  -17.2369 N   0  0  0  0  0  0  0  0  0  0  0  0
   20.2171  -14.6493  -16.3321 C   0  0  0  0  0  0  0  0  0  0  0  0
   20.6087  -13.8654  -15.4295 O   0  0  0  0  0  0  0  0  0  0  0  0
   20.1944  -18.5121  -14.0293 C   0  0  0  0  0  0  0  0  0  0  0  0
   20.1320  -19.8606  -13.7488 C   0  0  0  0  0  0  0  0  0  0  0  0
   23.1455  -12.7101  -19.0952 C   0  0  0  0  0  0  0  0  0  0  0  0
   21.9079  -13.0736  -19.8609 C   0  0  2  0  0  0  0  0  0  0  0  0
   22.1087  -12.9215  -21.3529 C   0  0  0  0  0  0  0  0  0  0  0  0
   20.6419  -12.4863  -19.3746 C   0  0  0  0  0  0  0  0  0  0  0  0
   20.1891  -12.7672  -18.0009 C   0  0  2  0  0  0  0  0  0  0  0  0
   20.0383  -14.1552  -17.6536 N   0  0  0  0  0  0  0  0  0  0  0  0
   19.1059  -11.8925  -17.4781 C   0  0  0  0  0  0  0  0  0  0  0  0
   17.9366  -12.1931  -17.8409 O   0  0  0  0  0  0  0  0  0  0  0  0
   19.3498  -10.7903  -16.6355 N   0  0  0  0  0  0  0  0  0  0  0  0
   18.2884   -9.9116  -16.2432 C   0  0  0  0  0  0  0  0  0  0  0  0
   18.7050   -8.8384  -15.3218 C   0  0  0  0  0  0  0  0  0  0  0  0
   17.8898   -7.8699  -14.7844 O   0  0  0  0  0  0  0  0  0  0  0  0
   19.9371   -8.7660  -14.9623 O   0  0  0  0  0  0  0  0  0  0  0  0
  2  1  1  0
  3  2  2  0
  4  3  1  0
  5 11  1  0
  5  4  2  0
  6  5  1  0
  7  9  1  0
  7  6  1  0
  7  8  1  6
  9 18  1  0
  9 10  2  0
 11 12  2  0
 12  2  1  0
 14 13  1  1
 14 15  1  0
 16 14  1  0
 17 16  1  6
 18 17  1  0
 19 21  1  0
 19 17  1  0
 20 19  2  0
 22 21  1  0
 23 24  1  0
 23 22  1  0
 25 23  2  0
M  END
$$$$
