YLG.pdb
     RDKit          3D

 25 25  0  0  1  0  0  0  0  0999 V2000
   23.2632   -9.9187  -25.4284 O   0  0  0  0  0  0  0  0  0  0  0  0
   22.4822  -10.1437  -24.2866 C   0  0  0  0  0  0  0  0  0  0  0  0
   22.9125   -9.6860  -23.0591 C   0  0  0  0  0  0  0  0  0  0  0  0
   22.1302   -9.9145  -21.9324 C   0  0  0  0  0  0  0  0  0  0  0  0
   20.9299  -10.5899  -22.0110 C   0  0  0  0  0  0  0  0  0  0  0  0
   20.1537  -10.7944  -20.7708 C   0  0  0  0  0  0  0  0  0  0  0  0
   20.8821  -11.6862  -19.7857 C   0  0  2  0  0  0  0  0  0  0  0  0
   20.3194  -13.0177  -19.9136 N   0  0  0  0  0  0  0  0  0  0  0  0
   20.5844  -11.1326  -18.4157 C   0  0  0  0  0  0  0  0  0  0  0  0
   19.5661  -11.5191  -17.7862 O   0  0  0  0  0  0  0  0  0  0  0  0
   20.5037  -11.0468  -23.2467 C   0  0  0  0  0  0  0  0  0  0  0  0
   21.2845  -10.8167  -24.3595 C   0  0  0  0  0  0  0  0  0  0  0  0
   23.3657   -9.6654  -13.2325 C   0  0  0  0  0  0  0  0  0  0  0  0
   22.1938   -9.4218  -14.1365 C   0  0  2  0  0  0  0  0  0  0  0  0
   20.8896   -9.8204  -13.4808 C   0  0  0  0  0  0  0  0  0  0  0  0
   22.3270   -9.9086  -15.5255 C   0  0  0  0  0  0  0  0  0  0  0  0
   21.2475   -9.6503  -16.4944 C   0  0  2  0  0  0  0  0  0  0  0  0
   21.4469  -10.1711  -17.8206 N   0  0  0  0  0  0  0  0  0  0  0  0
   20.6540   -8.2871  -16.4636 C   0  0  0  0  0  0  0  0  0  0  0  0
   21.3435   -7.3777  -16.9993 O   0  0  0  0  0  0  0  0  0  0  0  0
   19.4059   -8.0072  -15.8735 N   0  0  0  0  0  0  0  0  0  0  0  0
   18.8683   -6.6793  -15.8778 C   0  0  0  0  0  0  0  0  0  0  0  0
   19.5767   -5.7403  -14.9886 C   0  0  0  0  0  0  0  0  0  0  0  0
   19.4741   -5.6881  -13.6181 O   0  0  0  0  0  0  0  0  0  0  0  0
   20.3745   -4.8732  -15.5027 O   0  0  0  0  0  0  0  0  0  0  0  0
  2  1  1  0
  3  2  2  0
  4  3  1  0
  5 11  1  0
  5  4  2  0
  6  5  1  0
  7  9  1  0
  7  6  1  0
  7  8  1  1
  9 18  1  0
  9 10  2  0
 11 12  2  0
 12  2  1  0
 14 13  1  1
 14 15  1  0
 16 14  1  0
 17 16  1  6
 18 17  1  0
 19 21  1  0
 19 17  1  0
 20 19  2  0
 22 21  1  0
 23 24  1  0
 23 22  1  0
 25 23  2  0
M  END
$$$$
