YLG.pdb
     RDKit          3D

 25 25  0  0  1  0  0  0  0  0999 V2000
   27.8932  -14.5547  -18.2143 O   0  0  0  0  0  0  0  0  0  0  0  0
   27.4269  -15.6064  -17.4137 C   0  0  0  0  0  0  0  0  0  0  0  0
   27.4194  -15.4736  -16.0412 C   0  0  0  0  0  0  0  0  0  0  0  0
   26.9547  -16.5229  -15.2559 C   0  0  0  0  0  0  0  0  0  0  0  0
   26.4992  -17.6982  -15.8165 C   0  0  0  0  0  0  0  0  0  0  0  0
   26.0206  -18.7687  -14.9178 C   0  0  0  0  0  0  0  0  0  0  0  0
   27.1589  -19.4343  -14.1713 C   0  0  2  0  0  0  0  0  0  0  0  0
   27.8932  -20.2358  -15.1327 N   0  0  0  0  0  0  0  0  0  0  0  0
   26.5206  -20.3282  -13.1390 C   0  0  0  0  0  0  0  0  0  0  0  0
   26.2366  -21.5199  -13.4247 O   0  0  0  0  0  0  0  0  0  0  0  0
   26.5095  -17.8250  -17.1953 C   0  0  0  0  0  0  0  0  0  0  0  0
   26.9716  -16.7805  -17.9677 C   0  0  0  0  0  0  0  0  0  0  0  0
   28.5277  -21.7694  -10.0811 C   0  0  0  0  0  0  0  0  0  0  0  0
   27.8518  -20.5996   -9.4294 C   0  0  2  0  0  0  0  0  0  0  0  0
   28.4072  -20.3317   -8.0475 C   0  0  0  0  0  0  0  0  0  0  0  0
   26.3750  -20.5844   -9.4832 C   0  0  0  0  0  0  0  0  0  0  0  0
   25.6930  -20.6615  -10.7869 C   0  0  2  0  0  0  0  0  0  0  0  0
   26.2329  -19.8376  -11.8355 N   0  0  0  0  0  0  0  0  0  0  0  0
   24.2066  -20.6907  -10.7462 C   0  0  0  0  0  0  0  0  0  0  0  0
   23.6979  -21.3465   -9.7972 O   0  0  0  0  0  0  0  0  0  0  0  0
   23.4003  -20.0395  -11.7002 N   0  0  0  0  0  0  0  0  0  0  0  0
   21.9710  -20.0959  -11.6209 C   0  0  0  0  0  0  0  0  0  0  0  0
   21.3424  -20.9232  -12.6672 C   0  0  0  0  0  0  0  0  0  0  0  0
   19.9921  -21.0632  -12.8874 O   0  0  0  0  0  0  0  0  0  0  0  0
   22.0914  -21.5922  -13.4697 O   0  0  0  0  0  0  0  0  0  0  0  0
  2  1  1  0
  3  2  2  0
  4  3  1  0
  5 11  1  0
  5  4  2  0
  6  5  1  0
  7  9  1  0
  7  6  1  0
  7  8  1  6
  9 18  1  0
  9 10  2  0
 11 12  2  0
 12  2  1  0
 14 13  1  1
 14 15  1  0
 16 14  1  0
 17 16  1  1
 18 17  1  0
 19 21  1  0
 19 17  1  0
 20 19  2  0
 22 21  1  0
 23 24  1  0
 23 22  1  0
 25 23  2  0
M  END
$$$$
