NPN.pdb
     RDKit          3D

 24 24  0  0  1  0  0  0  0  0999 V2000
    9.6187  -17.6575   16.8110 N   0  0  0  0  0  0  0  0  0  0  0  0
    8.2529  -17.3374   16.6401 C   0  0  0  0  0  0  0  0  0  0  0  0
    7.4148  -18.2820   16.5874 O   0  0  0  0  0  0  0  0  0  0  0  0
    7.7191  -15.9612   16.5165 C   0  0  0  0  0  0  0  0  0  0  0  0
    8.8972  -14.9810   16.5743 C   0  0  2  0  0  0  0  0  0  0  0  0
    9.9135  -15.3395   15.6343 N   0  0  0  0  0  0  0  0  0  0  0  0
    9.4111  -14.8804   17.9609 C   0  0  0  0  0  0  0  0  0  0  0  0
   10.5604  -15.4287   18.1334 O   0  0  0  0  0  0  0  0  0  0  0  0
    8.7483  -14.2541   19.0349 N   0  0  0  0  0  0  0  0  0  0  0  0
    7.4491  -13.6351   18.9625 C   0  0  0  0  0  0  0  0  0  0  0  0
    7.1021  -13.1584   20.3543 C   0  0  0  0  0  0  0  0  0  0  0  0
    8.4708  -12.9511   20.9782 C   0  0  0  0  0  0  0  0  0  0  0  0
    9.2333  -14.1215   20.3676 C   0  0  1  0  0  0  0  0  0  0  0  0
    8.9072  -15.2903   21.2308 C   0  0  0  0  0  0  0  0  0  0  0  0
    8.1945  -16.1854   20.7088 O   0  0  0  0  0  0  0  0  0  0  0  0
   11.8869  -18.7315   23.6981 N   0  0  0  0  0  0  0  0  0  0  0  0
   12.2413  -17.8556   22.6289 C   0  0  0  0  0  0  0  0  0  0  0  0
   13.3310  -18.1020   22.0616 O   0  0  0  0  0  0  0  0  0  0  0  0
   11.3738  -16.7364   22.2258 C   0  0  0  0  0  0  0  0  0  0  0  0
   10.1330  -16.5758   23.0464 C   0  0  2  0  0  0  0  0  0  0  0  0
    9.3398  -15.4407   22.5506 N   0  0  0  0  0  0  0  0  0  0  0  0
   10.4062  -16.3375   24.4947 C   0  0  0  0  0  0  0  0  0  0  0  0
   10.2951  -17.2698   25.4927 O   0  0  0  0  0  0  0  0  0  0  0  0
   10.7745  -15.1484   24.8022 O   0  0  0  0  0  0  0  0  0  0  0  0
  2  3  2  0
  2  1  1  0
  4  2  1  0
  5  6  1  6
  5  4  1  0
  7  5  1  0
  8  7  2  0
  9 13  1  0
  9  7  1  0
 10 11  1  0
 10  9  1  0
 11 12  1  0
 12 13  1  0
 14 15  2  0
 13 14  1  1
 16 17  1  0
 17 18  2  0
 17 19  1  0
 20 19  1  6
 20 21  1  0
 20 22  1  0
 21 14  1  0
 22 23  1  0
 24 22  2  0
M  END
$$$$
