NPN.pdb
     RDKit          3D

 24 24  0  0  1  0  0  0  0  0999 V2000
    7.7330  -18.2853   13.8228 N   0  0  0  0  0  0  0  0  0  0  0  0
    7.3578  -17.1545   14.5829 C   0  0  0  0  0  0  0  0  0  0  0  0
    6.4398  -16.4078   14.1391 O   0  0  0  0  0  0  0  0  0  0  0  0
    7.9653  -16.7708   15.8783 C   0  0  0  0  0  0  0  0  0  0  0  0
    8.6799  -15.4262   15.6952 C   0  0  2  0  0  0  0  0  0  0  0  0
    9.5829  -15.4683   14.5872 N   0  0  0  0  0  0  0  0  0  0  0  0
    9.3432  -15.0235   16.9580 C   0  0  0  0  0  0  0  0  0  0  0  0
   10.5821  -15.3573   17.0272 O   0  0  0  0  0  0  0  0  0  0  0  0
    8.7266  -14.3359   18.0221 N   0  0  0  0  0  0  0  0  0  0  0  0
    7.3461  -13.9244   18.0568 C   0  0  0  0  0  0  0  0  0  0  0  0
    7.1021  -13.2891   19.4064 C   0  0  0  0  0  0  0  0  0  0  0  0
    8.4864  -12.7967   19.7896 C   0  0  0  0  0  0  0  0  0  0  0  0
    9.3452  -13.9295   19.2391 C   0  0  1  0  0  0  0  0  0  0  0  0
    9.3202  -14.9828   20.2915 C   0  0  0  0  0  0  0  0  0  0  0  0
    8.4510  -15.8818   20.1578 O   0  0  0  0  0  0  0  0  0  0  0  0
   12.1734  -18.5289   22.9362 N   0  0  0  0  0  0  0  0  0  0  0  0
   12.8590  -17.5928   22.1057 C   0  0  0  0  0  0  0  0  0  0  0  0
   14.0593  -17.8576   21.8625 O   0  0  0  0  0  0  0  0  0  0  0  0
   12.1886  -16.3951   21.5732 C   0  0  0  0  0  0  0  0  0  0  0  0
   10.7502  -16.2551   21.9610 C   0  0  2  0  0  0  0  0  0  0  0  0
   10.1869  -15.0239   21.3864 N   0  0  0  0  0  0  0  0  0  0  0  0
   10.5362  -16.2035   23.4377 C   0  0  0  0  0  0  0  0  0  0  0  0
   10.4856  -17.2860   24.2761 O   0  0  0  0  0  0  0  0  0  0  0  0
   10.3897  -15.0315   23.9370 O   0  0  0  0  0  0  0  0  0  0  0  0
  2  3  2  0
  2  1  1  0
  4  2  1  0
  5  6  1  6
  5  4  1  0
  7  5  1  0
  8  7  2  0
  9 13  1  0
  9  7  1  0
 10 11  1  0
 10  9  1  0
 11 12  1  0
 12 13  1  0
 14 15  2  0
 13 14  1  1
 16 17  1  0
 17 18  2  0
 17 19  1  0
 20 19  1  1
 20 21  1  0
 20 22  1  0
 21 14  1  0
 22 23  1  0
 24 22  2  0
M  END
$$$$
