NPN.pdb
     RDKit          3D

 24 24  0  0  1  0  0  0  0  0999 V2000
    5.5637  -20.1979   17.5340 N   0  0  0  0  0  0  0  0  0  0  0  0
    5.6088  -18.7870   17.6018 C   0  0  0  0  0  0  0  0  0  0  0  0
    4.8560  -18.1226   16.8341 O   0  0  0  0  0  0  0  0  0  0  0  0
    6.4819  -18.0148   18.5160 C   0  0  0  0  0  0  0  0  0  0  0  0
    7.3012  -17.0258   17.6778 C   0  0  2  0  0  0  0  0  0  0  0  0
    7.8185  -17.6515   16.5006 N   0  0  0  0  0  0  0  0  0  0  0  0
    8.3612  -16.4068   18.5086 C   0  0  0  0  0  0  0  0  0  0  0  0
    9.5282  -16.9140   18.3301 O   0  0  0  0  0  0  0  0  0  0  0  0
    8.1702  -15.3559   19.4276 N   0  0  0  0  0  0  0  0  0  0  0  0
    6.9220  -14.6767   19.6660 C   0  0  0  0  0  0  0  0  0  0  0  0
    7.1607  -13.6772   20.7744 C   0  0  0  0  0  0  0  0  0  0  0  0
    8.6471  -13.3955   20.6444 C   0  0  0  0  0  0  0  0  0  0  0  0
    9.1604  -14.7830   20.2763 C   0  0  1  0  0  0  0  0  0  0  0  0
    9.3086  -15.4992   21.5734 C   0  0  0  0  0  0  0  0  0  0  0  0
    8.2462  -15.9103   22.1062 O   0  0  0  0  0  0  0  0  0  0  0  0
   13.4963  -17.6680   21.3866 N   0  0  0  0  0  0  0  0  0  0  0  0
   12.4130  -17.9961   22.2552 C   0  0  0  0  0  0  0  0  0  0  0  0
   11.7716  -19.0309   21.9590 O   0  0  0  0  0  0  0  0  0  0  0  0
   12.0789  -17.1645   23.4234 C   0  0  0  0  0  0  0  0  0  0  0  0
   10.7037  -16.5753   23.4029 C   0  0  2  0  0  0  0  0  0  0  0  0
   10.5301  -15.7326   22.2100 N   0  0  0  0  0  0  0  0  0  0  0  0
   10.4009  -15.7338   24.5984 C   0  0  0  0  0  0  0  0  0  0  0  0
   10.1248  -16.2023   25.8561 O   0  0  0  0  0  0  0  0  0  0  0  0
   10.4061  -14.4668   24.4014 O   0  0  0  0  0  0  0  0  0  0  0  0
  2  3  2  0
  2  1  1  0
  4  2  1  0
  5  6  1  6
  5  4  1  0
  7  5  1  0
  8  7  2  0
  9 13  1  0
  9  7  1  0
 10 11  1  0
 10  9  1  0
 11 12  1  0
 12 13  1  0
 14 15  2  0
 13 14  1  1
 16 17  1  0
 17 18  2  0
 17 19  1  0
 20 19  1  1
 20 21  1  0
 20 22  1  0
 21 14  1  0
 22 23  1  0
 24 22  2  0
M  END
$$$$
