NPN.pdb
     RDKit          3D

 24 24  0  0  1  0  0  0  0  0999 V2000
    6.5004  -20.5001   17.6169 N   0  0  0  0  0  0  0  0  0  0  0  0
    6.4266  -19.1208   17.9158 C   0  0  0  0  0  0  0  0  0  0  0  0
    5.5735  -18.4167   17.3044 O   0  0  0  0  0  0  0  0  0  0  0  0
    7.2833  -18.4259   18.9045 C   0  0  0  0  0  0  0  0  0  0  0  0
    7.8308  -17.1495   18.2540 C   0  0  2  0  0  0  0  0  0  0  0  0
    8.4976  -17.4425   17.0234 N   0  0  0  0  0  0  0  0  0  0  0  0
    8.6936  -16.4173   19.2112 C   0  0  0  0  0  0  0  0  0  0  0  0
    9.9482  -16.6588   19.0744 O   0  0  0  0  0  0  0  0  0  0  0  0
    8.2403  -15.5247   20.2026 N   0  0  0  0  0  0  0  0  0  0  0  0
    6.8663  -15.1464   20.4152 C   0  0  0  0  0  0  0  0  0  0  0  0
    6.8344  -14.2331   21.6191 C   0  0  0  0  0  0  0  0  0  0  0  0
    8.2310  -13.6373   21.6130 C   0  0  0  0  0  0  0  0  0  0  0  0
    9.0448  -14.8448   21.1615 C   0  0  1  0  0  0  0  0  0  0  0  0
    9.2814  -15.6386   22.3990 C   0  0  0  0  0  0  0  0  0  0  0  0
    8.3654  -16.4325   22.7340 O   0  0  0  0  0  0  0  0  0  0  0  0
   12.7973  -18.8024   24.7577 N   0  0  0  0  0  0  0  0  0  0  0  0
   13.3935  -17.7477   24.0040 C   0  0  0  0  0  0  0  0  0  0  0  0
   14.6332  -17.8285   23.8407 O   0  0  0  0  0  0  0  0  0  0  0  0
   12.5932  -16.6396   23.4569 C   0  0  0  0  0  0  0  0  0  0  0  0
   11.1325  -16.7025   23.7748 C   0  0  2  0  0  0  0  0  0  0  0  0
   10.4341  -15.5510   23.1834 N   0  0  0  0  0  0  0  0  0  0  0  0
   10.8436  -16.7025   25.2396 C   0  0  0  0  0  0  0  0  0  0  0  0
   10.2002  -15.7071   25.9271 O   0  0  0  0  0  0  0  0  0  0  0  0
   11.2442  -17.7358   25.8847 O   0  0  0  0  0  0  0  0  0  0  0  0
  2  3  2  0
  2  1  1  0
  4  2  1  0
  5  6  1  6
  5  4  1  0
  7  5  1  0
  8  7  2  0
  9 13  1  0
  9  7  1  0
 10 11  1  0
 10  9  1  0
 11 12  1  0
 12 13  1  0
 14 15  2  0
 13 14  1  1
 16 17  1  0
 17 18  2  0
 17 19  1  0
 20 19  1  1
 20 21  1  0
 20 22  1  0
 21 14  1  0
 22 23  1  0
 24 22  2  0
M  END
$$$$
