NPN.pdb
     RDKit          3D

 24 24  0  0  1  0  0  0  0  0999 V2000
    5.0643  -19.0819   17.9263 N   0  0  0  0  0  0  0  0  0  0  0  0
    6.4342  -19.4286   17.9078 C   0  0  0  0  0  0  0  0  0  0  0  0
    6.8150  -20.3375   17.1164 O   0  0  0  0  0  0  0  0  0  0  0  0
    7.4738  -18.8005   18.7558 C   0  0  0  0  0  0  0  0  0  0  0  0
    7.7774  -17.4070   18.1921 C   0  0  2  0  0  0  0  0  0  0  0  0
    8.3470  -17.4925   16.8833 N   0  0  0  0  0  0  0  0  0  0  0  0
    8.6293  -16.6473   19.1376 C   0  0  0  0  0  0  0  0  0  0  0  0
    9.8870  -16.7248   18.8859 O   0  0  0  0  0  0  0  0  0  0  0  0
    8.1633  -15.8905   20.2308 N   0  0  0  0  0  0  0  0  0  0  0  0
    6.7841  -15.7693   20.6303 C   0  0  0  0  0  0  0  0  0  0  0  0
    6.7537  -14.9268   21.8848 C   0  0  0  0  0  0  0  0  0  0  0  0
    8.0166  -14.0947   21.7490 C   0  0  0  0  0  0  0  0  0  0  0  0
    8.9580  -15.1201   21.1275 C   0  0  1  0  0  0  0  0  0  0  0  0
    9.4835  -15.9107   22.2748 C   0  0  0  0  0  0  0  0  0  0  0  0
    8.7797  -16.8837   22.6483 O   0  0  0  0  0  0  0  0  0  0  0  0
   13.4308  -18.3745   24.8320 N   0  0  0  0  0  0  0  0  0  0  0  0
   13.8955  -17.2319   24.1149 C   0  0  0  0  0  0  0  0  0  0  0  0
   15.1371  -17.0634   24.1044 O   0  0  0  0  0  0  0  0  0  0  0  0
   12.9662  -16.3156   23.4334 C   0  0  0  0  0  0  0  0  0  0  0  0
   11.5173  -16.6462   23.6068 C   0  0  2  0  0  0  0  0  0  0  0  0
   10.6825  -15.6369   22.9374 N   0  0  0  0  0  0  0  0  0  0  0  0
   11.0902  -16.7099   25.0360 C   0  0  0  0  0  0  0  0  0  0  0  0
   11.2282  -17.7931   25.8636 O   0  0  0  0  0  0  0  0  0  0  0  0
   10.5501  -15.6444   25.5022 O   0  0  0  0  0  0  0  0  0  0  0  0
  2  3  2  0
  2  1  1  0
  4  2  1  0
  5  6  1  6
  5  4  1  0
  7  5  1  0
  8  7  2  0
  9 13  1  0
  9  7  1  0
 10 11  1  0
 10  9  1  0
 11 12  1  0
 12 13  1  0
 14 15  2  0
 13 14  1  1
 16 17  1  0
 17 18  2  0
 17 19  1  0
 20 19  1  1
 20 21  1  0
 20 22  1  0
 21 14  1  0
 22 23  1  0
 24 22  2  0
M  END
$$$$
