NPN.pdb
     RDKit          3D

 24 24  0  0  1  0  0  0  0  0999 V2000
    7.4533  -17.3508   13.5941 N   0  0  0  0  0  0  0  0  0  0  0  0
    7.0807  -17.3154   14.9568 C   0  0  0  0  0  0  0  0  0  0  0  0
    5.8583  -17.4455   15.2507 O   0  0  0  0  0  0  0  0  0  0  0  0
    8.0247  -17.1353   16.0841 C   0  0  0  0  0  0  0  0  0  0  0  0
    8.8000  -15.8314   15.8589 C   0  0  2  0  0  0  0  0  0  0  0  0
    9.7867  -15.9878   14.8357 N   0  0  0  0  0  0  0  0  0  0  0  0
    9.3744  -15.3505   17.1378 C   0  0  0  0  0  0  0  0  0  0  0  0
   10.5579  -15.7897   17.3772 O   0  0  0  0  0  0  0  0  0  0  0  0
    8.7320  -14.4899   18.0499 N   0  0  0  0  0  0  0  0  0  0  0  0
    7.4253  -13.9108   17.8673 C   0  0  0  0  0  0  0  0  0  0  0  0
    7.1081  -13.1190   19.1151 C   0  0  0  0  0  0  0  0  0  0  0  0
    8.4896  -12.7643   19.6358 C   0  0  0  0  0  0  0  0  0  0  0  0
    9.2485  -14.0431   19.3000 C   0  0  1  0  0  0  0  0  0  0  0  0
    8.9557  -14.9752   20.4239 C   0  0  0  0  0  0  0  0  0  0  0  0
    7.8885  -15.6346   20.3356 O   0  0  0  0  0  0  0  0  0  0  0  0
   10.8250  -19.9012   20.8847 N   0  0  0  0  0  0  0  0  0  0  0  0
   11.0051  -18.7205   21.6652 C   0  0  0  0  0  0  0  0  0  0  0  0
   11.4791  -18.8929   22.8122 O   0  0  0  0  0  0  0  0  0  0  0  0
   10.6532  -17.3886   21.1457 C   0  0  0  0  0  0  0  0  0  0  0  0
   10.0796  -16.4497   22.1598 C   0  0  2  0  0  0  0  0  0  0  0  0
    9.7805  -15.1510   21.5375 N   0  0  0  0  0  0  0  0  0  0  0  0
   10.9896  -16.1976   23.3164 C   0  0  0  0  0  0  0  0  0  0  0  0
   12.1706  -15.5047   23.2676 O   0  0  0  0  0  0  0  0  0  0  0  0
   10.6076  -16.6836   24.4398 O   0  0  0  0  0  0  0  0  0  0  0  0
  2  3  2  0
  2  1  1  0
  4  2  1  0
  5  6  1  6
  5  4  1  0
  7  5  1  0
  8  7  2  0
  9 13  1  0
  9  7  1  0
 10 11  1  0
 10  9  1  0
 11 12  1  0
 12 13  1  0
 14 15  2  0
 13 14  1  1
 16 17  1  0
 17 18  2  0
 17 19  1  0
 20 19  1  6
 20 21  1  0
 20 22  1  0
 21 14  1  0
 22 23  1  0
 24 22  2  0
M  END
$$$$
