NPN.pdb
     RDKit          3D

 24 24  0  0  1  0  0  0  0  0999 V2000
    8.4241  -14.9023   12.2987 N   0  0  0  0  0  0  0  0  0  0  0  0
    9.2105  -15.5715   13.2636 C   0  0  0  0  0  0  0  0  0  0  0  0
    9.5143  -16.7812   13.0595 O   0  0  0  0  0  0  0  0  0  0  0  0
    9.7141  -14.9566   14.5136 C   0  0  0  0  0  0  0  0  0  0  0  0
    9.0383  -15.6552   15.6999 C   0  0  2  0  0  0  0  0  0  0  0  0
    7.6156  -15.5270   15.6321 N   0  0  0  0  0  0  0  0  0  0  0  0
    9.5973  -15.1508   16.9766 C   0  0  0  0  0  0  0  0  0  0  0  0
   10.8375  -15.4368   17.1533 O   0  0  0  0  0  0  0  0  0  0  0  0
    8.8859  -14.4190   17.9479 N   0  0  0  0  0  0  0  0  0  0  0  0
    7.5482  -13.9075   17.7886 C   0  0  0  0  0  0  0  0  0  0  0  0
    7.1598  -13.2548   19.0953 C   0  0  0  0  0  0  0  0  0  0  0  0
    8.5068  -12.8646   19.6775 C   0  0  0  0  0  0  0  0  0  0  0  0
    9.3513  -14.0578   19.2448 C   0  0  1  0  0  0  0  0  0  0  0  0
    9.0992  -15.1054   20.2727 C   0  0  0  0  0  0  0  0  0  0  0  0
    8.0802  -15.8216   20.0983 O   0  0  0  0  0  0  0  0  0  0  0  0
   11.9603  -19.0773   22.0066 N   0  0  0  0  0  0  0  0  0  0  0  0
   12.0333  -18.3883   20.7592 C   0  0  0  0  0  0  0  0  0  0  0  0
   12.7179  -18.9444   19.8692 O   0  0  0  0  0  0  0  0  0  0  0  0
   11.3436  -17.1058   20.5423 C   0  0  0  0  0  0  0  0  0  0  0  0
   10.5512  -16.6126   21.7118 C   0  0  2  0  0  0  0  0  0  0  0  0
    9.9119  -15.3285   21.3868 N   0  0  0  0  0  0  0  0  0  0  0  0
   11.3727  -16.4097   22.9419 C   0  0  0  0  0  0  0  0  0  0  0  0
   12.3393  -15.4530   23.1084 O   0  0  0  0  0  0  0  0  0  0  0  0
   11.1315  -17.2153   23.9100 O   0  0  0  0  0  0  0  0  0  0  0  0
  2  3  2  0
  2  1  1  0
  4  2  1  0
  5  6  1  1
  5  4  1  0
  7  5  1  0
  8  7  2  0
  9 13  1  0
  9  7  1  0
 10 11  1  0
 10  9  1  0
 11 12  1  0
 12 13  1  0
 14 15  2  0
 13 14  1  1
 16 17  1  0
 17 18  2  0
 17 19  1  0
 20 19  1  6
 20 21  1  0
 20 22  1  0
 21 14  1  0
 22 23  1  0
 24 22  2  0
M  END
$$$$
