NPN.pdb
     RDKit          3D

 24 24  0  0  1  0  0  0  0  0999 V2000
    8.1254  -16.3506   14.2294 N   0  0  0  0  0  0  0  0  0  0  0  0
    7.7475  -17.0355   15.4064 C   0  0  0  0  0  0  0  0  0  0  0  0
    7.0838  -18.1052   15.2941 O   0  0  0  0  0  0  0  0  0  0  0  0
    8.0738  -16.5913   16.7814 C   0  0  0  0  0  0  0  0  0  0  0  0
    8.9544  -15.3393   16.6864 C   0  0  2  0  0  0  0  0  0  0  0  0
    9.9625  -15.4923   15.6838 N   0  0  0  0  0  0  0  0  0  0  0  0
    9.5173  -15.0079   18.0168 C   0  0  0  0  0  0  0  0  0  0  0  0
   10.7327  -15.3914   18.1804 O   0  0  0  0  0  0  0  0  0  0  0  0
    8.8337  -14.3356   19.0493 N   0  0  0  0  0  0  0  0  0  0  0  0
    7.5281  -13.7378   18.9298 C   0  0  0  0  0  0  0  0  0  0  0  0
    7.1581  -13.1947   20.2909 C   0  0  0  0  0  0  0  0  0  0  0  0
    8.5163  -12.9381   20.9194 C   0  0  0  0  0  0  0  0  0  0  0  0
    9.3004  -14.1286   20.3790 C   0  0  1  0  0  0  0  0  0  0  0  0
    8.9778  -15.2555   21.2974 C   0  0  0  0  0  0  0  0  0  0  0  0
    8.0087  -15.9845   20.9640 O   0  0  0  0  0  0  0  0  0  0  0  0
   13.0651  -18.9190   22.0902 N   0  0  0  0  0  0  0  0  0  0  0  0
   11.6528  -18.7242   22.0341 C   0  0  0  0  0  0  0  0  0  0  0  0
   10.9539  -19.7447   22.2345 O   0  0  0  0  0  0  0  0  0  0  0  0
   11.0644  -17.4031   21.7580 C   0  0  0  0  0  0  0  0  0  0  0  0
   10.1875  -16.8660   22.8448 C   0  0  2  0  0  0  0  0  0  0  0  0
    9.6754  -15.5378   22.4743 N   0  0  0  0  0  0  0  0  0  0  0  0
   10.8852  -16.7310   24.1578 C   0  0  0  0  0  0  0  0  0  0  0  0
   10.7108  -17.5489   25.2432 O   0  0  0  0  0  0  0  0  0  0  0  0
   11.7131  -15.7561   24.2491 O   0  0  0  0  0  0  0  0  0  0  0  0
  2  3  2  0
  2  1  1  0
  4  2  1  0
  5  6  1  6
  5  4  1  0
  7  5  1  0
  8  7  2  0
  9 13  1  0
  9  7  1  0
 10 11  1  0
 10  9  1  0
 11 12  1  0
 12 13  1  0
 14 15  2  0
 13 14  1  1
 16 17  1  0
 17 18  2  0
 17 19  1  0
 20 19  1  6
 20 21  1  0
 20 22  1  0
 21 14  1  0
 22 23  1  0
 24 22  2  0
M  END
$$$$
