NPN.pdb
     RDKit          3D

 24 24  0  0  1  0  0  0  0  0999 V2000
    7.5716  -14.8528   14.8966 N   0  0  0  0  0  0  0  0  0  0  0  0
    7.8589  -16.0093   15.6564 C   0  0  0  0  0  0  0  0  0  0  0  0
    7.6340  -17.1407   15.1399 O   0  0  0  0  0  0  0  0  0  0  0  0
    8.4112  -15.9988   17.0308 C   0  0  0  0  0  0  0  0  0  0  0  0
    8.5357  -14.5403   17.4883 C   0  0  2  0  0  0  0  0  0  0  0  0
    9.3250  -13.7774   16.5718 N   0  0  0  0  0  0  0  0  0  0  0  0
    9.0546  -14.4819   18.8754 C   0  0  0  0  0  0  0  0  0  0  0  0
   10.3371  -14.4797   18.9541 O   0  0  0  0  0  0  0  0  0  0  0  0
    8.2658  -14.4314   20.0418 N   0  0  0  0  0  0  0  0  0  0  0  0
    6.8284  -14.3342   20.0696 C   0  0  0  0  0  0  0  0  0  0  0  0
    6.4044  -14.3817   21.5196 C   0  0  0  0  0  0  0  0  0  0  0  0
    7.6334  -13.8507   22.2359 C   0  0  0  0  0  0  0  0  0  0  0  0
    8.7377  -14.4681   21.3853 C   0  0  1  0  0  0  0  0  0  0  0  0
    8.9063  -15.8508   21.9116 C   0  0  0  0  0  0  0  0  0  0  0  0
    8.3847  -16.7718   21.2322 O   0  0  0  0  0  0  0  0  0  0  0  0
   13.0500  -18.7449   23.2698 N   0  0  0  0  0  0  0  0  0  0  0  0
   12.8968  -17.7833   22.2268 C   0  0  0  0  0  0  0  0  0  0  0  0
   13.8174  -17.7501   21.3773 O   0  0  0  0  0  0  0  0  0  0  0  0
   11.7269  -16.8919   22.1621 C   0  0  0  0  0  0  0  0  0  0  0  0
   10.6664  -17.1719   23.1798 C   0  0  2  0  0  0  0  0  0  0  0  0
    9.5943  -16.1693   23.0850 N   0  0  0  0  0  0  0  0  0  0  0  0
   11.1736  -17.1594   24.5840 C   0  0  0  0  0  0  0  0  0  0  0  0
   10.7761  -16.2944   25.5694 O   0  0  0  0  0  0  0  0  0  0  0  0
   12.0573  -18.0456   24.8632 O   0  0  0  0  0  0  0  0  0  0  0  0
  2  3  2  0
  2  1  1  0
  4  2  1  0
  5  6  1  6
  5  4  1  0
  7  5  1  0
  8  7  2  0
  9 13  1  0
  9  7  1  0
 10 11  1  0
 10  9  1  0
 11 12  1  0
 12 13  1  0
 14 15  2  0
 13 14  1  1
 16 17  1  0
 17 18  2  0
 17 19  1  0
 20 19  1  6
 20 21  1  0
 20 22  1  0
 21 14  1  0
 22 23  1  0
 24 22  2  0
M  END
$$$$
