NPN.pdb
     RDKit          3D

 24 24  0  0  1  0  0  0  0  0999 V2000
    5.2160  -17.9919   23.4017 N   0  0  0  0  0  0  0  0  0  0  0  0
    5.5564  -17.0628   22.3926 C   0  0  0  0  0  0  0  0  0  0  0  0
    4.6434  -16.3309   21.9149 O   0  0  0  0  0  0  0  0  0  0  0  0
    6.9195  -16.8770   21.8435 C   0  0  0  0  0  0  0  0  0  0  0  0
    7.1780  -15.3725   21.6962 C   0  0  2  0  0  0  0  0  0  0  0  0
    7.6064  -15.0497   20.3706 N   0  0  0  0  0  0  0  0  0  0  0  0
    8.1330  -14.9139   22.7328 C   0  0  0  0  0  0  0  0  0  0  0  0
    9.3648  -15.1393   22.4452 O   0  0  0  0  0  0  0  0  0  0  0  0
    7.7844  -14.2821   23.9431 N   0  0  0  0  0  0  0  0  0  0  0  0
    6.4389  -14.0735   24.4144 C   0  0  0  0  0  0  0  0  0  0  0  0
    6.5370  -13.4285   25.7778 C   0  0  0  0  0  0  0  0  0  0  0  0
    7.8817  -12.7266   25.7101 C   0  0  0  0  0  0  0  0  0  0  0  0
    8.6845  -13.7438   24.9070 C   0  0  1  0  0  0  0  0  0  0  0  0
    9.1475  -14.7481   25.9042 C   0  0  0  0  0  0  0  0  0  0  0  0
    8.2722  -15.5337   26.3496 O   0  0  0  0  0  0  0  0  0  0  0  0
   10.8236  -13.5914   29.2343 N   0  0  0  0  0  0  0  0  0  0  0  0
    9.9971  -14.7291   29.4761 C   0  0  0  0  0  0  0  0  0  0  0  0
    9.3565  -14.7179   30.5529 O   0  0  0  0  0  0  0  0  0  0  0  0
    9.9096  -15.8402   28.5141 C   0  0  0  0  0  0  0  0  0  0  0  0
   10.9119  -15.7911   27.4042 C   0  0  2  0  0  0  0  0  0  0  0  0
   10.4644  -14.8607   26.3566 N   0  0  0  0  0  0  0  0  0  0  0  0
   11.1489  -17.1169   26.7598 C   0  0  0  0  0  0  0  0  0  0  0  0
   10.3110  -17.7328   25.8676 O   0  0  0  0  0  0  0  0  0  0  0  0
   12.2385  -17.7075   27.0887 O   0  0  0  0  0  0  0  0  0  0  0  0
  2  3  2  0
  2  1  1  0
  4  2  1  0
  5  6  1  6
  5  4  1  0
  7  5  1  0
  8  7  2  0
  9 13  1  0
  9  7  1  0
 10 11  1  0
 10  9  1  0
 11 12  1  0
 12 13  1  0
 14 15  2  0
 13 14  1  1
 16 17  1  0
 17 18  2  0
 17 19  1  0
 20 19  1  1
 20 21  1  0
 20 22  1  0
 21 14  1  0
 22 23  1  0
 24 22  2  0
M  END
$$$$
