NPN.pdb
     RDKit          3D

 24 24  0  0  1  0  0  0  0  0999 V2000
    6.7924  -16.4566   20.4916 N   0  0  0  0  0  0  0  0  0  0  0  0
    6.2036  -16.4480   21.7763 C   0  0  0  0  0  0  0  0  0  0  0  0
    5.7511  -17.5337   22.2388 O   0  0  0  0  0  0  0  0  0  0  0  0
    6.0738  -15.2485   22.6357 C   0  0  0  0  0  0  0  0  0  0  0  0
    7.2981  -14.3548   22.4026 C   0  0  2  0  0  0  0  0  0  0  0  0
    7.9630  -14.6978   21.1839 N   0  0  0  0  0  0  0  0  0  0  0  0
    8.1989  -14.4044   23.5785 C   0  0  0  0  0  0  0  0  0  0  0  0
    9.2824  -15.0658   23.3794 O   0  0  0  0  0  0  0  0  0  0  0  0
    7.9471  -13.8021   24.8271 N   0  0  0  0  0  0  0  0  0  0  0  0
    6.7833  -13.0170   25.1517 C   0  0  0  0  0  0  0  0  0  0  0  0
    6.8944  -12.6331   26.6093 C   0  0  0  0  0  0  0  0  0  0  0  0
    8.3948  -12.6635   26.8407 C   0  0  0  0  0  0  0  0  0  0  0  0
    8.7834  -13.8594   25.9788 C   0  0  1  0  0  0  0  0  0  0  0  0
    8.5277  -15.0527   26.8321 C   0  0  0  0  0  0  0  0  0  0  0  0
    7.3211  -15.3516   27.0229 O   0  0  0  0  0  0  0  0  0  0  0  0
   12.1925  -17.1101   26.6194 N   0  0  0  0  0  0  0  0  0  0  0  0
   11.2519  -17.8319   25.8254 C   0  0  0  0  0  0  0  0  0  0  0  0
   11.7135  -18.3781   24.7965 O   0  0  0  0  0  0  0  0  0  0  0  0
    9.8313  -17.9231   26.2010 C   0  0  0  0  0  0  0  0  0  0  0  0
    9.4882  -17.3017   27.5182 C   0  0  2  0  0  0  0  0  0  0  0  0
    9.5284  -15.8351   27.4136 N   0  0  0  0  0  0  0  0  0  0  0  0
   10.4117  -17.7013   28.6212 C   0  0  0  0  0  0  0  0  0  0  0  0
   11.2860  -16.8707   29.2717 O   0  0  0  0  0  0  0  0  0  0  0  0
   10.3611  -18.9346   28.9685 O   0  0  0  0  0  0  0  0  0  0  0  0
  2  3  2  0
  2  1  1  0
  4  2  1  0
  5  6  1  6
  5  4  1  0
  7  5  1  0
  8  7  2  0
  9 13  1  0
  9  7  1  0
 10 11  1  0
 10  9  1  0
 11 12  1  0
 12 13  1  0
 14 15  2  0
 13 14  1  1
 16 17  1  0
 17 18  2  0
 17 19  1  0
 20 19  1  6
 20 21  1  0
 20 22  1  0
 21 14  1  0
 22 23  1  0
 24 22  2  0
M  END
$$$$
