NPN.pdb
     RDKit          3D

 24 24  0  0  1  0  0  0  0  0999 V2000
    8.3712  -18.6519   17.1913 N   0  0  0  0  0  0  0  0  0  0  0  0
    7.1499  -18.1915   17.7332 C   0  0  0  0  0  0  0  0  0  0  0  0
    6.4596  -18.9908   18.4275 O   0  0  0  0  0  0  0  0  0  0  0  0
    6.6080  -16.8253   17.5485 C   0  0  0  0  0  0  0  0  0  0  0  0
    7.6565  -15.9880   16.8059 C   0  0  2  0  0  0  0  0  0  0  0  0
    8.1515  -16.6812   15.6573 N   0  0  0  0  0  0  0  0  0  0  0  0
    8.7360  -15.5788   17.7354 C   0  0  0  0  0  0  0  0  0  0  0  0
    9.8327  -16.2306   17.5823 O   0  0  0  0  0  0  0  0  0  0  0  0
    8.6314  -14.5745   18.7181 N   0  0  0  0  0  0  0  0  0  0  0  0
    7.4427  -13.8119   19.0040 C   0  0  0  0  0  0  0  0  0  0  0  0
    7.7622  -12.9053   20.1705 C   0  0  0  0  0  0  0  0  0  0  0  0
    9.2666  -12.7380   20.0505 C   0  0  0  0  0  0  0  0  0  0  0  0
    9.6650  -14.1373   19.5953 C   0  0  1  0  0  0  0  0  0  0  0  0
    9.7545  -14.9418   20.8453 C   0  0  0  0  0  0  0  0  0  0  0  0
    8.6925  -15.0581   21.5088 O   0  0  0  0  0  0  0  0  0  0  0  0
    8.8459  -18.2081   21.6110 N   0  0  0  0  0  0  0  0  0  0  0  0
   10.2128  -18.5399   21.3715 C   0  0  0  0  0  0  0  0  0  0  0  0
   10.4131  -19.4603   20.5453 O   0  0  0  0  0  0  0  0  0  0  0  0
   11.3107  -17.8383   22.0570 C   0  0  0  0  0  0  0  0  0  0  0  0
   10.9947  -16.4384   22.4803 C   0  0  2  0  0  0  0  0  0  0  0  0
   10.9214  -15.5568   21.3052 N   0  0  0  0  0  0  0  0  0  0  0  0
   12.0033  -15.8598   23.4169 C   0  0  0  0  0  0  0  0  0  0  0  0
   12.1069  -16.1422   24.7536 O   0  0  0  0  0  0  0  0  0  0  0  0
   12.8310  -15.0293   22.8977 O   0  0  0  0  0  0  0  0  0  0  0  0
  2  3  2  0
  2  1  1  0
  4  2  1  0
  5  6  1  6
  5  4  1  0
  7  5  1  0
  8  7  2  0
  9 13  1  0
  9  7  1  0
 10 11  1  0
 10  9  1  0
 11 12  1  0
 12 13  1  0
 14 15  2  0
 13 14  1  1
 16 17  1  0
 17 18  2  0
 17 19  1  0
 20 19  1  6
 20 21  1  0
 20 22  1  0
 21 14  1  0
 22 23  1  0
 24 22  2  0
M  END
$$$$
