NPN.pdb
     RDKit          3D

 24 24  0  0  1  0  0  0  0  0999 V2000
    5.3572  -12.5372   26.7462 N   0  0  0  0  0  0  0  0  0  0  0  0
    6.7649  -12.5003   26.6269 C   0  0  0  0  0  0  0  0  0  0  0  0
    7.3941  -11.5679   27.2033 O   0  0  0  0  0  0  0  0  0  0  0  0
    7.5723  -13.4836   25.8683 C   0  0  0  0  0  0  0  0  0  0  0  0
    6.6201  -14.5188   25.2570 C   0  0  2  0  0  0  0  0  0  0  0  0
    6.0073  -15.3188   26.2716 N   0  0  0  0  0  0  0  0  0  0  0  0
    7.3312  -15.3306   24.2411 C   0  0  0  0  0  0  0  0  0  0  0  0
    7.6431  -16.5115   24.6403 O   0  0  0  0  0  0  0  0  0  0  0  0
    7.6635  -14.9038   22.9401 N   0  0  0  0  0  0  0  0  0  0  0  0
    7.3370  -13.6176   22.3785 C   0  0  0  0  0  0  0  0  0  0  0  0
    7.9450  -13.5654   20.9957 C   0  0  0  0  0  0  0  0  0  0  0  0
    8.0113  -15.0334   20.6134 C   0  0  0  0  0  0  0  0  0  0  0  0
    8.3728  -15.6534   21.9583 C   0  0  1  0  0  0  0  0  0  0  0  0
    9.8514  -15.5126   22.0662 C   0  0  0  0  0  0  0  0  0  0  0  0
   10.2738  -14.4211   22.5263 O   0  0  0  0  0  0  0  0  0  0  0  0
   12.3756  -19.1020   25.3869 N   0  0  0  0  0  0  0  0  0  0  0  0
   12.5196  -17.8273   24.7622 C   0  0  0  0  0  0  0  0  0  0  0  0
   13.5910  -17.2225   24.9995 O   0  0  0  0  0  0  0  0  0  0  0  0
   11.4696  -17.2678   23.8950 C   0  0  0  0  0  0  0  0  0  0  0  0
   11.9164  -16.9235   22.5091 C   0  0  2  0  0  0  0  0  0  0  0  0
   10.7665  -16.5008   21.6952 N   0  0  0  0  0  0  0  0  0  0  0  0
   12.5788  -18.0584   21.8002 C   0  0  0  0  0  0  0  0  0  0  0  0
   11.9491  -19.1751   21.3167 O   0  0  0  0  0  0  0  0  0  0  0  0
   13.8472  -17.9518   21.6450 O   0  0  0  0  0  0  0  0  0  0  0  0
  2  3  2  0
  2  1  1  0
  4  2  1  0
  5  6  1  1
  5  4  1  0
  7  5  1  0
  8  7  2  0
  9 13  1  0
  9  7  1  0
 10 11  1  0
 10  9  1  0
 11 12  1  0
 12 13  1  0
 14 15  2  0
 13 14  1  1
 16 17  1  0
 17 18  2  0
 17 19  1  0
 20 19  1  1
 20 21  1  0
 20 22  1  0
 21 14  1  0
 22 23  1  0
 24 22  2  0
M  END
$$$$
