NPN.pdb
     RDKit          3D

 24 24  0  0  1  0  0  0  0  0999 V2000
    6.8567  -19.6888   16.2941 N   0  0  0  0  0  0  0  0  0  0  0  0
    6.7257  -18.3389   16.6912 C   0  0  0  0  0  0  0  0  0  0  0  0
    5.9756  -17.5813   16.0123 O   0  0  0  0  0  0  0  0  0  0  0  0
    7.4085  -17.7338   17.8582 C   0  0  0  0  0  0  0  0  0  0  0  0
    8.3375  -16.6243   17.3502 C   0  0  2  0  0  0  0  0  0  0  0  0
    9.2308  -17.1174   16.3484 N   0  0  0  0  0  0  0  0  0  0  0  0
    9.0472  -15.9912   18.4870 C   0  0  0  0  0  0  0  0  0  0  0  0
   10.2330  -16.4462   18.6816 O   0  0  0  0  0  0  0  0  0  0  0  0
    8.5240  -14.9788   19.3156 N   0  0  0  0  0  0  0  0  0  0  0  0
    7.2866  -14.2761   19.0891 C   0  0  0  0  0  0  0  0  0  0  0  0
    7.0857  -13.3358   20.2553 C   0  0  0  0  0  0  0  0  0  0  0  0
    8.5087  -13.0907   20.7249 C   0  0  0  0  0  0  0  0  0  0  0  0
    9.1129  -14.4738   20.5102 C   0  0  1  0  0  0  0  0  0  0  0  0
    8.7413  -15.2528   21.7236 C   0  0  0  0  0  0  0  0  0  0  0  0
    7.6509  -15.8774   21.6710 O   0  0  0  0  0  0  0  0  0  0  0  0
   10.7206  -19.3390   23.2720 N   0  0  0  0  0  0  0  0  0  0  0  0
   11.2749  -18.5230   22.2411 C   0  0  0  0  0  0  0  0  0  0  0  0
   11.9223  -19.1289   21.3558 O   0  0  0  0  0  0  0  0  0  0  0  0
   11.0913  -17.0622   22.2279 C   0  0  0  0  0  0  0  0  0  0  0  0
   10.2374  -16.5261   23.3335 C   0  0  2  0  0  0  0  0  0  0  0  0
    9.5179  -15.3251   22.8826 N   0  0  0  0  0  0  0  0  0  0  0  0
   11.0117  -16.1567   24.5554 C   0  0  0  0  0  0  0  0  0  0  0  0
   12.0229  -15.2339   24.6119 O   0  0  0  0  0  0  0  0  0  0  0  0
   10.6804  -16.7727   25.6302 O   0  0  0  0  0  0  0  0  0  0  0  0
  2  3  2  0
  2  1  1  0
  4  2  1  0
  5  6  1  6
  5  4  1  0
  7  5  1  0
  8  7  2  0
  9 13  1  0
  9  7  1  0
 10 11  1  0
 10  9  1  0
 11 12  1  0
 12 13  1  0
 14 15  2  0
 13 14  1  1
 16 17  1  0
 17 18  2  0
 17 19  1  0
 20 19  1  6
 20 21  1  0
 20 22  1  0
 21 14  1  0
 22 23  1  0
 24 22  2  0
M  END
$$$$
