NPN.pdb
     RDKit          3D

 24 24  0  0  1  0  0  0  0  0999 V2000
    2.3956  -18.0464   21.0007 N   0  0  0  0  0  0  0  0  0  0  0  0
    3.4784  -18.6587   21.6714 C   0  0  0  0  0  0  0  0  0  0  0  0
    3.3276  -19.8340   22.1112 O   0  0  0  0  0  0  0  0  0  0  0  0
    4.7955  -18.0213   21.9023 C   0  0  0  0  0  0  0  0  0  0  0  0
    5.5192  -17.9104   20.5547 C   0  0  2  0  0  0  0  0  0  0  0  0
    5.5979  -19.1817   19.9049 N   0  0  0  0  0  0  0  0  0  0  0  0
    6.8477  -17.2792   20.7382 C   0  0  0  0  0  0  0  0  0  0  0  0
    7.8184  -18.1175   20.8158 O   0  0  0  0  0  0  0  0  0  0  0  0
    7.0894  -15.8939   20.8265 N   0  0  0  0  0  0  0  0  0  0  0  0
    6.0827  -14.8671   20.7348 C   0  0  0  0  0  0  0  0  0  0  0  0
    6.7745  -13.5411   20.9533 C   0  0  0  0  0  0  0  0  0  0  0  0
    8.1958  -13.8381   20.5090 C   0  0  0  0  0  0  0  0  0  0  0  0
    8.3528  -15.2656   21.0206 C   0  0  1  0  0  0  0  0  0  0  0  0
    8.7252  -15.1252   22.4556 C   0  0  0  0  0  0  0  0  0  0  0  0
    7.8279  -14.6923   23.2231 O   0  0  0  0  0  0  0  0  0  0  0  0
    8.4163  -18.4090   26.5511 N   0  0  0  0  0  0  0  0  0  0  0  0
    9.5226  -17.8949   25.8110 C   0  0  0  0  0  0  0  0  0  0  0  0
   10.6506  -18.0644   26.3294 O   0  0  0  0  0  0  0  0  0  0  0  0
    9.3389  -17.2107   24.5203 C   0  0  0  0  0  0  0  0  0  0  0  0
   10.2116  -16.0130   24.3140 C   0  0  2  0  0  0  0  0  0  0  0  0
    9.9815  -15.4410   22.9786 N   0  0  0  0  0  0  0  0  0  0  0  0
   11.6693  -16.3139   24.4315 C   0  0  0  0  0  0  0  0  0  0  0  0
   12.4342  -16.9429   23.4846 O   0  0  0  0  0  0  0  0  0  0  0  0
   12.2272  -15.9403   25.5240 O   0  0  0  0  0  0  0  0  0  0  0  0
  2  3  2  0
  2  1  1  0
  4  2  1  0
  5  6  1  1
  5  4  1  0
  7  5  1  0
  8  7  2  0
  9 13  1  0
  9  7  1  0
 10 11  1  0
 10  9  1  0
 11 12  1  0
 12 13  1  0
 14 15  2  0
 13 14  1  1
 16 17  1  0
 17 18  2  0
 17 19  1  0
 20 19  1  6
 20 21  1  0
 20 22  1  0
 21 14  1  0
 22 23  1  0
 24 22  2  0
M  END
$$$$
