NPN.pdb
     RDKit          3D

 24 24  0  0  1  0  0  0  0  0999 V2000
    7.3755  -14.7560   15.1193 N   0  0  0  0  0  0  0  0  0  0  0  0
    7.7894  -15.9039   15.8323 C   0  0  0  0  0  0  0  0  0  0  0  0
    7.5779  -17.0399   15.3202 O   0  0  0  0  0  0  0  0  0  0  0  0
    8.4617  -15.8792   17.1520 C   0  0  0  0  0  0  0  0  0  0  0  0
    8.4291  -14.4403   17.6818 C   0  0  2  0  0  0  0  0  0  0  0  0
    9.0835  -13.5435   16.7806 N   0  0  0  0  0  0  0  0  0  0  0  0
    8.9931  -14.3868   19.0514 C   0  0  0  0  0  0  0  0  0  0  0  0
   10.2687  -14.2363   19.0859 O   0  0  0  0  0  0  0  0  0  0  0  0
    8.2514  -14.4856   20.2453 N   0  0  0  0  0  0  0  0  0  0  0  0
    6.8180  -14.6092   20.3256 C   0  0  0  0  0  0  0  0  0  0  0  0
    6.4625  -14.7561   21.7873 C   0  0  0  0  0  0  0  0  0  0  0  0
    7.6237  -14.0616   22.4763 C   0  0  0  0  0  0  0  0  0  0  0  0
    8.7750  -14.4827   21.5700 C   0  0  1  0  0  0  0  0  0  0  0  0
    9.1712  -15.8360   22.0485 C   0  0  0  0  0  0  0  0  0  0  0  0
    8.7743  -16.8085   21.3568 O   0  0  0  0  0  0  0  0  0  0  0  0
   12.2040  -19.3675   22.0430 N   0  0  0  0  0  0  0  0  0  0  0  0
   12.6900  -18.0506   21.7874 C   0  0  0  0  0  0  0  0  0  0  0  0
   13.6273  -17.9671   20.9601 O   0  0  0  0  0  0  0  0  0  0  0  0
   12.1187  -16.8713   22.4586 C   0  0  0  0  0  0  0  0  0  0  0  0
   10.9298  -17.1539   23.3219 C   0  0  2  0  0  0  0  0  0  0  0  0
    9.9390  -16.0748   23.1909 N   0  0  0  0  0  0  0  0  0  0  0  0
   11.2663  -17.2847   24.7707 C   0  0  0  0  0  0  0  0  0  0  0  0
   11.4690  -18.4625   25.4407 O   0  0  0  0  0  0  0  0  0  0  0  0
   11.3674  -16.1830   25.4190 O   0  0  0  0  0  0  0  0  0  0  0  0
  2  3  2  0
  2  1  1  0
  4  2  1  0
  5  6  1  6
  5  4  1  0
  7  5  1  0
  8  7  2  0
  9 13  1  0
  9  7  1  0
 10 11  1  0
 10  9  1  0
 11 12  1  0
 12 13  1  0
 14 15  2  0
 13 14  1  1
 16 17  1  0
 17 18  2  0
 17 19  1  0
 20 19  1  6
 20 21  1  0
 20 22  1  0
 21 14  1  0
 22 23  1  0
 24 22  2  0
M  END
$$$$
