NPN.pdb
     RDKit          3D

 24 24  0  0  1  0  0  0  0  0999 V2000
    9.0628  -15.7051   26.9794 N   0  0  0  0  0  0  0  0  0  0  0  0
    8.7616  -14.9013   25.8567 C   0  0  0  0  0  0  0  0  0  0  0  0
    8.3719  -13.7150   26.0522 O   0  0  0  0  0  0  0  0  0  0  0  0
    8.8688  -15.3471   24.4481 C   0  0  0  0  0  0  0  0  0  0  0  0
    7.4656  -15.3292   23.8295 C   0  0  2  0  0  0  0  0  0  0  0  0
    6.5906  -16.2337   24.5086 N   0  0  0  0  0  0  0  0  0  0  0  0
    7.5451  -15.5958   22.3737 C   0  0  0  0  0  0  0  0  0  0  0  0
    7.3965  -16.8330   22.0600 O   0  0  0  0  0  0  0  0  0  0  0  0
    7.7613  -14.6252   21.3755 N   0  0  0  0  0  0  0  0  0  0  0  0
    7.8328  -13.2036   21.6001 C   0  0  0  0  0  0  0  0  0  0  0  0
    8.1467  -12.5557   20.2711 C   0  0  0  0  0  0  0  0  0  0  0  0
    7.5943  -13.5635   19.2788 C   0  0  0  0  0  0  0  0  0  0  0  0
    7.9469  -14.8681   19.9843 C   0  0  1  0  0  0  0  0  0  0  0  0
    9.3652  -15.1366   19.6186 C   0  0  0  0  0  0  0  0  0  0  0  0
   10.2329  -14.4490   20.2152 O   0  0  0  0  0  0  0  0  0  0  0  0
   12.6665  -19.1636   19.5450 N   0  0  0  0  0  0  0  0  0  0  0  0
   11.6112  -18.8590   20.4557 C   0  0  0  0  0  0  0  0  0  0  0  0
   11.5737  -19.5539   21.4978 O   0  0  0  0  0  0  0  0  0  0  0  0
   10.6339  -17.7933   20.1788 C   0  0  0  0  0  0  0  0  0  0  0  0
   10.8443  -17.0676   18.8874 C   0  0  2  0  0  0  0  0  0  0  0  0
    9.7704  -16.0850   18.6762 N   0  0  0  0  0  0  0  0  0  0  0  0
   10.8717  -17.9694   17.6978 C   0  0  0  0  0  0  0  0  0  0  0  0
   11.9954  -18.3666   17.0219 O   0  0  0  0  0  0  0  0  0  0  0  0
    9.7301  -18.3931   17.2957 O   0  0  0  0  0  0  0  0  0  0  0  0
  2  3  2  0
  2  1  1  0
  4  2  1  0
  5  6  1  1
  5  4  1  0
  7  5  1  0
  8  7  2  0
  9 13  1  0
  9  7  1  0
 10 11  1  0
 10  9  1  0
 11 12  1  0
 12 13  1  0
 14 15  2  0
 13 14  1  1
 16 17  1  0
 17 18  2  0
 17 19  1  0
 20 19  1  1
 20 21  1  0
 20 22  1  0
 21 14  1  0
 22 23  1  0
 24 22  2  0
M  END
$$$$
