NPN.pdb
     RDKit          3D

 24 24  0  0  1  0  0  0  0  0999 V2000
    4.9920  -18.9039   18.2915 N   0  0  0  0  0  0  0  0  0  0  0  0
    6.3909  -18.7750   18.1374 C   0  0  0  0  0  0  0  0  0  0  0  0
    6.9260  -19.2321   17.0875 O   0  0  0  0  0  0  0  0  0  0  0  0
    7.2921  -18.1365   19.1246 C   0  0  0  0  0  0  0  0  0  0  0  0
    8.1549  -17.1028   18.3904 C   0  0  2  0  0  0  0  0  0  0  0  0
    9.0842  -17.7387   17.5090 N   0  0  0  0  0  0  0  0  0  0  0  0
    8.8160  -16.2034   19.3655 C   0  0  0  0  0  0  0  0  0  0  0  0
    9.9062  -16.6749   19.8558 O   0  0  0  0  0  0  0  0  0  0  0  0
    8.3429  -14.9362   19.7600 N   0  0  0  0  0  0  0  0  0  0  0  0
    7.1221  -14.3246   19.2998 C   0  0  0  0  0  0  0  0  0  0  0  0
    6.9768  -13.0098   20.0310 C   0  0  0  0  0  0  0  0  0  0  0  0
    8.4171  -12.6589   20.3597 C   0  0  0  0  0  0  0  0  0  0  0  0
    8.9745  -14.0430   20.6722 C   0  0  1  0  0  0  0  0  0  0  0  0
    8.6081  -14.2976   22.0930 C   0  0  0  0  0  0  0  0  0  0  0  0
    7.4644  -13.9149   22.4494 O   0  0  0  0  0  0  0  0  0  0  0  0
    6.4640  -17.3410   25.7093 N   0  0  0  0  0  0  0  0  0  0  0  0
    7.5806  -17.6325   24.8702 C   0  0  0  0  0  0  0  0  0  0  0  0
    8.1775  -18.7074   25.1119 O   0  0  0  0  0  0  0  0  0  0  0  0
    7.9962  -16.7211   23.7912 C   0  0  0  0  0  0  0  0  0  0  0  0
    8.9736  -15.6653   24.2018 C   0  0  2  0  0  0  0  0  0  0  0  0
    9.4432  -14.9219   23.0227 N   0  0  0  0  0  0  0  0  0  0  0  0
   10.1754  -16.2090   24.9012 C   0  0  0  0  0  0  0  0  0  0  0  0
   11.2802  -16.7439   24.2925 O   0  0  0  0  0  0  0  0  0  0  0  0
   10.1427  -16.1585   26.1821 O   0  0  0  0  0  0  0  0  0  0  0  0
  2  3  2  0
  2  1  1  0
  4  2  1  0
  5  6  1  1
  5  4  1  0
  7  5  1  0
  8  7  2  0
  9 13  1  0
  9  7  1  0
 10 11  1  0
 10  9  1  0
 11 12  1  0
 12 13  1  0
 14 15  2  0
 13 14  1  1
 16 17  1  0
 17 18  2  0
 17 19  1  0
 20 19  1  6
 20 21  1  0
 20 22  1  0
 21 14  1  0
 22 23  1  0
 24 22  2  0
M  END
$$$$
