NPN.pdb
     RDKit          3D

 24 24  0  0  1  0  0  0  0  0999 V2000
    6.7337  -16.7661   14.3125 N   0  0  0  0  0  0  0  0  0  0  0  0
    7.7305  -17.4485   15.0459 C   0  0  0  0  0  0  0  0  0  0  0  0
    8.1660  -18.5456   14.5940 O   0  0  0  0  0  0  0  0  0  0  0  0
    8.3134  -16.9713   16.3213 C   0  0  0  0  0  0  0  0  0  0  0  0
    8.9794  -15.6134   16.0678 C   0  0  2  0  0  0  0  0  0  0  0  0
    9.9303  -15.6957   15.0030 N   0  0  0  0  0  0  0  0  0  0  0  0
    9.5706  -15.0915   17.3227 C   0  0  0  0  0  0  0  0  0  0  0  0
   10.8180  -15.3646   17.4660 O   0  0  0  0  0  0  0  0  0  0  0  0
    8.8810  -14.3564   18.3073 N   0  0  0  0  0  0  0  0  0  0  0  0
    7.4720  -14.0555   18.2853 C   0  0  0  0  0  0  0  0  0  0  0  0
    7.1523  -13.3150   19.5636 C   0  0  0  0  0  0  0  0  0  0  0  0
    8.4858  -12.6785   19.9135 C   0  0  0  0  0  0  0  0  0  0  0  0
    9.4417  -13.7866   19.4862 C   0  0  1  0  0  0  0  0  0  0  0  0
    9.4789  -14.7323   20.6359 C   0  0  0  0  0  0  0  0  0  0  0  0
    8.6438  -15.6723   20.6099 O   0  0  0  0  0  0  0  0  0  0  0  0
   13.6749  -17.6401   22.0519 N   0  0  0  0  0  0  0  0  0  0  0  0
   13.6682  -16.2856   22.5005 C   0  0  0  0  0  0  0  0  0  0  0  0
   14.5462  -15.9866   23.3429 O   0  0  0  0  0  0  0  0  0  0  0  0
   12.6875  -15.3092   21.9982 C   0  0  0  0  0  0  0  0  0  0  0  0
   11.2565  -15.7150   22.1609 C   0  0  2  0  0  0  0  0  0  0  0  0
   10.3675  -14.6337   21.7093 N   0  0  0  0  0  0  0  0  0  0  0  0
   10.8894  -16.0426   23.5706 C   0  0  0  0  0  0  0  0  0  0  0  0
    9.9400  -15.3982   24.3194 O   0  0  0  0  0  0  0  0  0  0  0  0
   11.5351  -17.0153   24.1009 O   0  0  0  0  0  0  0  0  0  0  0  0
  2  3  2  0
  2  1  1  0
  4  2  1  0
  5  6  1  6
  5  4  1  0
  7  5  1  0
  8  7  2  0
  9 13  1  0
  9  7  1  0
 10 11  1  0
 10  9  1  0
 11 12  1  0
 12 13  1  0
 14 15  2  0
 13 14  1  1
 16 17  1  0
 17 18  2  0
 17 19  1  0
 20 19  1  1
 20 21  1  0
 20 22  1  0
 21 14  1  0
 22 23  1  0
 24 22  2  0
M  END
$$$$
