SYQ.pdb
     RDKit          3D

 28 28  0  0  1  0  0  0  0  0999 V2000
   13.1625  -24.1417   -6.0164 O   0  0  0  0  0  0  0  0  0  0  0  0
   13.7740  -23.0159   -5.4936 C   0  0  0  0  0  0  0  0  0  0  0  0
   15.0468  -23.4495   -4.7991 C   0  0  2  0  0  0  0  0  0  0  0  0
   15.5091  -24.7170   -5.2986 N   0  0  0  0  0  0  0  0  0  0  0  0
   14.8454  -23.5837   -3.3280 C   0  0  0  0  0  0  0  0  0  0  0  0
   14.7111  -24.7350   -2.8012 O   0  0  0  0  0  0  0  0  0  0  0  0
   15.4734  -21.7972    5.3059 O   0  0  0  0  0  0  0  0  0  0  0  0
   15.5147  -21.8135    3.9170 C   0  0  0  0  0  0  0  0  0  0  0  0
   15.9140  -22.9059    3.1827 C   0  0  0  0  0  0  0  0  0  0  0  0
   15.9393  -22.8769    1.8033 C   0  0  0  0  0  0  0  0  0  0  0  0
   15.5627  -21.7458    1.1230 C   0  0  0  0  0  0  0  0  0  0  0  0
   15.5529  -21.6098   -0.3339 C   0  0  0  0  0  0  0  0  0  0  0  0
   14.6074  -22.5645   -1.0233 C   0  0  2  0  0  0  0  0  0  0  0  0
   14.7933  -22.4625   -2.4533 N   0  0  0  0  0  0  0  0  0  0  0  0
   13.2294  -22.1179   -0.6952 C   0  0  0  0  0  0  0  0  0  0  0  0
   12.7768  -21.1333   -1.3365 O   0  0  0  0  0  0  0  0  0  0  0  0
   15.1645  -20.6578    1.8731 C   0  0  0  0  0  0  0  0  0  0  0  0
   15.1345  -20.6730    3.2511 C   0  0  0  0  0  0  0  0  0  0  0  0
    8.1888  -25.2711    0.3214 N   0  0  0  0  0  0  0  0  0  0  0  0
    8.6774  -24.7044   -0.9093 C   0  0  0  0  0  0  0  0  0  0  0  0
    8.2123  -25.1896   -1.9470 O   0  0  0  0  0  0  0  0  0  0  0  0
    9.6679  -23.6209   -0.7924 C   0  0  0  0  0  0  0  0  0  0  0  0
   10.1103  -23.3025    0.5928 C   0  0  0  0  0  0  0  0  0  0  0  0
   11.1420  -22.2302    0.6121 C   0  0  2  0  0  0  0  0  0  0  0  0
   12.4686  -22.7793    0.2978 N   0  0  0  0  0  0  0  0  0  0  0  0
   11.2305  -21.6069    1.9477 C   0  0  0  0  0  0  0  0  0  0  0  0
   10.2298  -20.9949    2.4362 O   0  0  0  0  0  0  0  0  0  0  0  0
   12.3851  -21.6719    2.6961 O   0  0  0  0  0  0  0  0  0  0  0  0
  1  2  1  0
  2  3  1  0
  3  4  1  6
  5  3  1  0
  6  5  2  0
  7  8  1  0
  8 18  2  0
  9 10  2  0
  9  8  1  0
 10 11  1  0
 11 12  1  0
 11 17  2  0
 13 12  1  1
 13 15  1  0
 13 14  1  0
 14  5  1  0
 15 16  2  0
 18 17  1  0
 19 20  1  0
 20 22  1  0
 21 20  2  0
 22 23  1  0
 24 23  1  1
 25 24  1  0
 25 15  1  0
 26 28  1  0
 26 24  1  0
 27 26  2  0
M  END
$$$$
