SYQ.pdb
     RDKit          3D

 28 28  0  0  1  0  0  0  0  0999 V2000
   25.6089  -14.1108  -17.6462 O   0  0  0  0  0  0  0  0  0  0  0  0
   24.9373  -15.3189  -17.5823 C   0  0  0  0  0  0  0  0  0  0  0  0
   25.9631  -16.4220  -17.4362 C   0  0  2  0  0  0  0  0  0  0  0  0
   26.7388  -16.5772  -18.6378 N   0  0  0  0  0  0  0  0  0  0  0  0
   25.3154  -17.7312  -17.1378 C   0  0  0  0  0  0  0  0  0  0  0  0
   24.9174  -18.4812  -18.0866 O   0  0  0  0  0  0  0  0  0  0  0  0
   29.6398  -22.8013  -17.4302 O   0  0  0  0  0  0  0  0  0  0  0  0
   28.5751  -22.2296  -16.7439 C   0  0  0  0  0  0  0  0  0  0  0  0
   27.3773  -22.8715  -16.5316 C   0  0  0  0  0  0  0  0  0  0  0  0
   26.3464  -22.2644  -15.8438 C   0  0  0  0  0  0  0  0  0  0  0  0
   26.4924  -20.9922  -15.3496 C   0  0  0  0  0  0  0  0  0  0  0  0
   25.4654  -20.2591  -14.6087 C   0  0  0  0  0  0  0  0  0  0  0  0
   24.5191  -19.4841  -15.4944 C   0  0  2  0  0  0  0  0  0  0  0  0
   25.1111  -18.2038  -15.8112 N   0  0  0  0  0  0  0  0  0  0  0  0
   23.2844  -19.2485  -14.7034 C   0  0  0  0  0  0  0  0  0  0  0  0
   23.4252  -18.7634  -13.5498 O   0  0  0  0  0  0  0  0  0  0  0  0
   27.6998  -20.3609  -15.5704 C   0  0  0  0  0  0  0  0  0  0  0  0
   28.7377  -20.9553  -16.2556 C   0  0  0  0  0  0  0  0  0  0  0  0
   18.5711  -16.5311  -16.8381 N   0  0  0  0  0  0  0  0  0  0  0  0
   18.4954  -17.9332  -17.1592 C   0  0  0  0  0  0  0  0  0  0  0  0
   17.8050  -18.2234  -18.1428 O   0  0  0  0  0  0  0  0  0  0  0  0
   19.2425  -18.8540  -16.2858 C   0  0  0  0  0  0  0  0  0  0  0  0
   19.9837  -18.2151  -15.1641 C   0  0  0  0  0  0  0  0  0  0  0  0
   20.8343  -19.1937  -14.4335 C   0  0  2  0  0  0  0  0  0  0  0  0
   22.0106  -19.5601  -15.2349 N   0  0  0  0  0  0  0  0  0  0  0  0
   20.0882  -20.4371  -14.1555 C   0  0  0  0  0  0  0  0  0  0  0  0
   20.3092  -21.4834  -14.8418 O   0  0  0  0  0  0  0  0  0  0  0  0
   19.1441  -20.5003  -13.1546 O   0  0  0  0  0  0  0  0  0  0  0  0
  1  2  1  0
  2  3  1  0
  3  4  1  6
  5  3  1  0
  6  5  2  0
  7  8  1  0
  8 18  2  0
  9 10  2  0
  9  8  1  0
 10 11  1  0
 11 12  1  0
 11 17  2  0
 13 12  1  1
 13 15  1  0
 13 14  1  0
 14  5  1  0
 15 16  2  0
 18 17  1  0
 19 20  1  0
 20 22  1  0
 21 20  2  0
 22 23  1  0
 24 23  1  6
 25 24  1  0
 25 15  1  0
 26 28  1  0
 26 24  1  0
 27 26  2  0
M  END
$$$$
