SYQ.pdb
     RDKit          3D

 28 28  0  0  1  0  0  0  0  0999 V2000
   27.4485  -20.0560  -18.6982 O   0  0  0  0  0  0  0  0  0  0  0  0
   26.5369  -20.7845  -17.9548 C   0  0  0  0  0  0  0  0  0  0  0  0
   27.3074  -21.6781  -17.0070 C   0  0  2  0  0  0  0  0  0  0  0  0
   27.5710  -22.9630  -17.5980 N   0  0  0  0  0  0  0  0  0  0  0  0
   26.5557  -21.9034  -15.7394 C   0  0  0  0  0  0  0  0  0  0  0  0
   25.7919  -22.9146  -15.6175 O   0  0  0  0  0  0  0  0  0  0  0  0
   23.8610  -20.9737   -7.3795 O   0  0  0  0  0  0  0  0  0  0  0  0
   24.5656  -20.8319   -8.5689 C   0  0  0  0  0  0  0  0  0  0  0  0
   25.9098  -21.0972   -8.6906 C   0  0  0  0  0  0  0  0  0  0  0  0
   26.5690  -20.9422   -9.8930 C   0  0  0  0  0  0  0  0  0  0  0  0
   25.8928  -20.5152  -11.0085 C   0  0  0  0  0  0  0  0  0  0  0  0
   26.4945  -20.3182  -12.3276 C   0  0  0  0  0  0  0  0  0  0  0  0
   25.8924  -21.1914  -13.4026 C   0  0  2  0  0  0  0  0  0  0  0  0
   26.6472  -21.0242  -14.6242 N   0  0  0  0  0  0  0  0  0  0  0  0
   24.5101  -20.6995  -13.6329 C   0  0  0  0  0  0  0  0  0  0  0  0
   24.3802  -19.6508  -14.3177 O   0  0  0  0  0  0  0  0  0  0  0  0
   24.5446  -20.2530  -10.8711 C   0  0  0  0  0  0  0  0  0  0  0  0
   23.8738  -20.4035   -9.6764 C   0  0  0  0  0  0  0  0  0  0  0  0
   19.5936  -19.9472  -17.5486 N   0  0  0  0  0  0  0  0  0  0  0  0
   20.1435  -21.0445  -16.7949 C   0  0  0  0  0  0  0  0  0  0  0  0
   20.2882  -22.1041  -17.4151 O   0  0  0  0  0  0  0  0  0  0  0  0
   20.4676  -20.7815  -15.3826 C   0  0  0  0  0  0  0  0  0  0  0  0
   21.8493  -21.1432  -14.9630 C   0  0  0  0  0  0  0  0  0  0  0  0
   22.0588  -20.9315  -13.5049 C   0  0  2  0  0  0  0  0  0  0  0  0
   23.3954  -21.3893  -13.0999 N   0  0  0  0  0  0  0  0  0  0  0  0
   21.0746  -21.6967  -12.7137 C   0  0  0  0  0  0  0  0  0  0  0  0
   21.3291  -22.8887  -12.3552 O   0  0  0  0  0  0  0  0  0  0  0  0
   19.8672  -21.1470  -12.3428 O   0  0  0  0  0  0  0  0  0  0  0  0
  1  2  1  0
  2  3  1  0
  3  4  1  6
  5  3  1  0
  6  5  2  0
  7  8  1  0
  8 18  2  0
  9 10  2  0
  9  8  1  0
 10 11  1  0
 11 12  1  0
 11 17  2  0
 13 12  1  1
 13 15  1  0
 13 14  1  0
 14  5  1  0
 15 16  2  0
 18 17  1  0
 19 20  1  0
 20 22  1  0
 21 20  2  0
 22 23  1  0
 24 23  1  6
 25 24  1  0
 25 15  1  0
 26 28  1  0
 26 24  1  0
 27 26  2  0
M  END
$$$$
