SYQ.pdb
     RDKit          3D

 28 28  0  0  1  0  0  0  0  0999 V2000
   23.0967  -34.8997  -17.7121 O   0  0  0  0  0  0  0  0  0  0  0  0
   23.2439  -34.1893  -16.5339 C   0  0  0  0  0  0  0  0  0  0  0  0
   23.4873  -32.7375  -16.8853 C   0  0  2  0  0  0  0  0  0  0  0  0
   24.8234  -32.5361  -17.3794 N   0  0  0  0  0  0  0  0  0  0  0  0
   23.2998  -31.8521  -15.7006 C   0  0  0  0  0  0  0  0  0  0  0  0
   24.3065  -31.3174  -15.1334 O   0  0  0  0  0  0  0  0  0  0  0  0
   19.0660  -26.4940  -10.0143 O   0  0  0  0  0  0  0  0  0  0  0  0
   19.4574  -27.2886  -11.0851 C   0  0  0  0  0  0  0  0  0  0  0  0
   20.3216  -26.8652  -12.0679 C   0  0  0  0  0  0  0  0  0  0  0  0
   20.6828  -27.6896  -13.1140 C   0  0  0  0  0  0  0  0  0  0  0  0
   20.1837  -28.9652  -13.2005 C   0  0  0  0  0  0  0  0  0  0  0  0
   20.5012  -29.9178  -14.2649 C   0  0  0  0  0  0  0  0  0  0  0  0
   21.8024  -30.6531  -14.0490 C   0  0  2  0  0  0  0  0  0  0  0  0
   22.0192  -31.5624  -15.1517 N   0  0  0  0  0  0  0  0  0  0  0  0
   21.6452  -31.4505  -12.8059 C   0  0  0  0  0  0  0  0  0  0  0  0
   21.0791  -32.5705  -12.9096 O   0  0  0  0  0  0  0  0  0  0  0  0
   19.3178  -29.3760  -12.2072 C   0  0  0  0  0  0  0  0  0  0  0  0
   18.9486  -28.5633  -11.1569 C   0  0  0  0  0  0  0  0  0  0  0  0
   25.6536  -32.1151   -8.1849 N   0  0  0  0  0  0  0  0  0  0  0  0
   24.5173  -32.8442   -7.6832 C   0  0  0  0  0  0  0  0  0  0  0  0
   24.7205  -33.5298   -6.6746 O   0  0  0  0  0  0  0  0  0  0  0  0
   23.2532  -32.6920   -8.4232 C   0  0  0  0  0  0  0  0  0  0  0  0
   23.3213  -31.8388   -9.6411 C   0  0  0  0  0  0  0  0  0  0  0  0
   22.0468  -31.8668  -10.4091 C   0  0  2  0  0  0  0  0  0  0  0  0
   22.1161  -30.9610  -11.5645 N   0  0  0  0  0  0  0  0  0  0  0  0
   20.9155  -31.4227   -9.5707 C   0  0  0  0  0  0  0  0  0  0  0  0
   19.9030  -32.1736   -9.4117 O   0  0  0  0  0  0  0  0  0  0  0  0
   20.9250  -30.1975   -8.9413 O   0  0  0  0  0  0  0  0  0  0  0  0
  1  2  1  0
  2  3  1  0
  3  4  1  1
  5  3  1  0
  6  5  2  0
  7  8  1  0
  8 18  2  0
  9 10  2  0
  9  8  1  0
 10 11  1  0
 11 12  1  0
 11 17  2  0
 13 12  1  6
 13 15  1  0
 13 14  1  0
 14  5  1  0
 15 16  2  0
 18 17  1  0
 19 20  1  0
 20 22  1  0
 21 20  2  0
 22 23  1  0
 24 23  1  1
 25 24  1  0
 25 15  1  0
 26 28  1  0
 26 24  1  0
 27 26  2  0
M  END
$$$$
