SYQ.pdb
     RDKit          3D

 28 28  0  0  1  0  0  0  0  0999 V2000
   24.2238  -24.5994  -18.0017 O   0  0  0  0  0  0  0  0  0  0  0  0
   25.0388  -23.4863  -17.8956 C   0  0  0  0  0  0  0  0  0  0  0  0
   25.8365  -23.6056  -16.6151 C   0  0  2  0  0  0  0  0  0  0  0  0
   26.4166  -24.9152  -16.4806 N   0  0  0  0  0  0  0  0  0  0  0  0
   24.9836  -23.3582  -15.4176 C   0  0  0  0  0  0  0  0  0  0  0  0
   24.9329  -24.2155  -14.4777 O   0  0  0  0  0  0  0  0  0  0  0  0
   20.3269  -18.9288   -9.3541 O   0  0  0  0  0  0  0  0  0  0  0  0
   20.9778  -19.2803  -10.5305 C   0  0  0  0  0  0  0  0  0  0  0  0
   20.3749  -19.2586  -11.7666 C   0  0  0  0  0  0  0  0  0  0  0  0
   21.0608  -19.6164  -12.9094 C   0  0  0  0  0  0  0  0  0  0  0  0
   22.3749  -20.0067  -12.8400 C   0  0  0  0  0  0  0  0  0  0  0  0
   23.1913  -20.4049  -13.9871 C   0  0  0  0  0  0  0  0  0  0  0  0
   23.3957  -21.8973  -14.0940 C   0  0  2  0  0  0  0  0  0  0  0  0
   24.1990  -22.1812  -15.2619 N   0  0  0  0  0  0  0  0  0  0  0  0
   22.0536  -22.5030  -14.2878 C   0  0  0  0  0  0  0  0  0  0  0  0
   21.5956  -22.5212  -15.4607 O   0  0  0  0  0  0  0  0  0  0  0  0
   22.9663  -20.0235  -11.5930 C   0  0  0  0  0  0  0  0  0  0  0  0
   22.2932  -19.6687  -10.4436 C   0  0  0  0  0  0  0  0  0  0  0  0
   19.3060  -27.0617  -10.9710 N   0  0  0  0  0  0  0  0  0  0  0  0
   18.2791  -26.6984  -11.9133 C   0  0  0  0  0  0  0  0  0  0  0  0
   17.2685  -27.4105  -11.9089 O   0  0  0  0  0  0  0  0  0  0  0  0
   18.5480  -25.5299  -12.7683 C   0  0  0  0  0  0  0  0  0  0  0  0
   19.8537  -24.8531  -12.5381 C   0  0  0  0  0  0  0  0  0  0  0  0
   20.0687  -23.7267  -13.4866 C   0  0  2  0  0  0  0  0  0  0  0  0
   21.3309  -23.0333  -13.1929 N   0  0  0  0  0  0  0  0  0  0  0  0
   18.9848  -22.7300  -13.3766 C   0  0  0  0  0  0  0  0  0  0  0  0
   18.9687  -21.9058  -12.4098 O   0  0  0  0  0  0  0  0  0  0  0  0
   17.9729  -22.6629  -14.3087 O   0  0  0  0  0  0  0  0  0  0  0  0
  1  2  1  0
  2  3  1  0
  3  4  1  1
  5  3  1  0
  6  5  2  0
  7  8  1  0
  8 18  2  0
  9 10  2  0
  9  8  1  0
 10 11  1  0
 11 12  1  0
 11 17  2  0
 13 12  1  6
 13 15  1  0
 13 14  1  0
 14  5  1  0
 15 16  2  0
 18 17  1  0
 19 20  1  0
 20 22  1  0
 21 20  2  0
 22 23  1  0
 24 23  1  1
 25 24  1  0
 25 15  1  0
 26 28  1  0
 26 24  1  0
 27 26  2  0
M  END
$$$$
