SYQ.pdb
     RDKit          3D

 28 28  0  0  1  0  0  0  0  0999 V2000
   26.6511  -20.8435  -18.8544 O   0  0  0  0  0  0  0  0  0  0  0  0
   27.6226  -19.9634  -18.4116 C   0  0  0  0  0  0  0  0  0  0  0  0
   28.6054  -20.7354  -17.5581 C   0  0  2  0  0  0  0  0  0  0  0  0
   29.1663  -21.8455  -18.2812 N   0  0  0  0  0  0  0  0  0  0  0  0
   27.9543  -21.2723  -16.3292 C   0  0  0  0  0  0  0  0  0  0  0  0
   27.9840  -22.5206  -16.0804 O   0  0  0  0  0  0  0  0  0  0  0  0
   24.0008  -21.1294   -8.3535 O   0  0  0  0  0  0  0  0  0  0  0  0
   24.7212  -20.8400   -9.5061 C   0  0  0  0  0  0  0  0  0  0  0  0
   26.0337  -21.2069   -9.6924 C   0  0  0  0  0  0  0  0  0  0  0  0
   26.7103  -20.8979  -10.8548 C   0  0  0  0  0  0  0  0  0  0  0  0
   26.0840  -20.2098  -11.8638 C   0  0  0  0  0  0  0  0  0  0  0  0
   26.7081  -19.8327  -13.1324 C   0  0  0  0  0  0  0  0  0  0  0  0
   26.6789  -20.9300  -14.1696 C   0  0  2  0  0  0  0  0  0  0  0  0
   27.2808  -20.4420  -15.3900 N   0  0  0  0  0  0  0  0  0  0  0  0
   25.2495  -21.2311  -14.4379 C   0  0  0  0  0  0  0  0  0  0  0  0
   24.6529  -20.4936  -15.2660 O   0  0  0  0  0  0  0  0  0  0  0  0
   24.7672  -19.8484  -11.6625 C   0  0  0  0  0  0  0  0  0  0  0  0
   24.0794  -20.1505  -10.5068 C   0  0  0  0  0  0  0  0  0  0  0  0
   20.7436  -19.0807  -13.6246 N   0  0  0  0  0  0  0  0  0  0  0  0
   20.0679  -20.3406  -13.7997 C   0  0  0  0  0  0  0  0  0  0  0  0
   18.8331  -20.2891  -13.8316 O   0  0  0  0  0  0  0  0  0  0  0  0
   20.9181  -21.5372  -13.9192 C   0  0  0  0  0  0  0  0  0  0  0  0
   22.3779  -21.3078  -13.7396 C   0  0  0  0  0  0  0  0  0  0  0  0
   23.1751  -22.5161  -14.0849 C   0  0  2  0  0  0  0  0  0  0  0  0
   24.5980  -22.3036  -13.7840 N   0  0  0  0  0  0  0  0  0  0  0  0
   23.0723  -22.8221  -15.5257 C   0  0  0  0  0  0  0  0  0  0  0  0
   22.7159  -23.9793  -15.9106 O   0  0  0  0  0  0  0  0  0  0  0  0
   23.3536  -21.8733  -16.4838 O   0  0  0  0  0  0  0  0  0  0  0  0
  1  2  1  0
  2  3  1  0
  3  4  1  6
  5  3  1  0
  6  5  2  0
  7  8  1  0
  8 18  2  0
  9 10  2  0
  9  8  1  0
 10 11  1  0
 11 12  1  0
 11 17  2  0
 13 12  1  1
 13 15  1  0
 13 14  1  0
 14  5  1  0
 15 16  2  0
 18 17  1  0
 19 20  1  0
 20 22  1  0
 21 20  2  0
 22 23  1  0
 24 23  1  6
 25 24  1  0
 25 15  1  0
 26 28  1  0
 26 24  1  0
 27 26  2  0
M  END
$$$$
