SYQ.pdb
     RDKit          3D

 28 28  0  0  1  0  0  0  0  0999 V2000
   26.3523  -17.1930  -17.4925 O   0  0  0  0  0  0  0  0  0  0  0  0
   27.5101  -17.3630  -16.7541 C   0  0  0  0  0  0  0  0  0  0  0  0
   28.5442  -18.0203  -17.6423 C   0  0  2  0  0  0  0  0  0  0  0  0
   28.6268  -17.3662  -18.9210 N   0  0  0  0  0  0  0  0  0  0  0  0
   28.2214  -19.4557  -17.8830 C   0  0  0  0  0  0  0  0  0  0  0  0
   27.7111  -19.8216  -18.9906 O   0  0  0  0  0  0  0  0  0  0  0  0
   28.4349  -28.2653  -17.0782 O   0  0  0  0  0  0  0  0  0  0  0  0
   28.5260  -26.9004  -16.8337 C   0  0  0  0  0  0  0  0  0  0  0  0
   27.6541  -26.2157  -16.0195 C   0  0  0  0  0  0  0  0  0  0  0  0
   27.7831  -24.8585  -15.8053 C   0  0  0  0  0  0  0  0  0  0  0  0
   28.7948  -24.1513  -16.4054 C   0  0  0  0  0  0  0  0  0  0  0  0
   29.0203  -22.7143  -16.2459 C   0  0  0  0  0  0  0  0  0  0  0  0
   28.1165  -21.8621  -17.1047 C   0  0  2  0  0  0  0  0  0  0  0  0
   28.4591  -20.4706  -16.9142 N   0  0  0  0  0  0  0  0  0  0  0  0
   26.7305  -22.0764  -16.6161 C   0  0  0  0  0  0  0  0  0  0  0  0
   26.4971  -21.7979  -15.4104 O   0  0  0  0  0  0  0  0  0  0  0  0
   29.6618  -24.8517  -17.2195 C   0  0  0  0  0  0  0  0  0  0  0  0
   29.5447  -26.2070  -17.4423 C   0  0  0  0  0  0  0  0  0  0  0  0
   23.2158  -19.1732  -14.9599 N   0  0  0  0  0  0  0  0  0  0  0  0
   22.6734  -19.4145  -16.2722 C   0  0  0  0  0  0  0  0  0  0  0  0
   21.9469  -18.5232  -16.7263 O   0  0  0  0  0  0  0  0  0  0  0  0
   23.0425  -20.6855  -16.9180 C   0  0  0  0  0  0  0  0  0  0  0  0
   23.9649  -21.5568  -16.1396 C   0  0  0  0  0  0  0  0  0  0  0  0
   24.3798  -22.7571  -16.9155 C   0  0  2  0  0  0  0  0  0  0  0  0
   25.7247  -22.5728  -17.4788 N   0  0  0  0  0  0  0  0  0  0  0  0
   23.4603  -22.9990  -18.0452 C   0  0  0  0  0  0  0  0  0  0  0  0
   23.8694  -22.8740  -19.2416 O   0  0  0  0  0  0  0  0  0  0  0  0
   22.1488  -23.3657  -17.8386 O   0  0  0  0  0  0  0  0  0  0  0  0
  1  2  1  0
  2  3  1  0
  3  4  1  6
  5  3  1  0
  6  5  2  0
  7  8  1  0
  8 18  2  0
  9 10  2  0
  9  8  1  0
 10 11  1  0
 11 12  1  0
 11 17  2  0
 13 12  1  1
 13 15  1  0
 13 14  1  0
 14  5  1  0
 15 16  2  0
 18 17  1  0
 19 20  1  0
 20 22  1  0
 21 20  2  0
 22 23  1  0
 24 23  1  6
 25 24  1  0
 25 15  1  0
 26 28  1  0
 26 24  1  0
 27 26  2  0
M  END
$$$$
