SYQ.pdb
     RDKit          3D

 28 28  0  0  1  0  0  0  0  0999 V2000
   28.5732  -20.3548  -19.0989 O   0  0  0  0  0  0  0  0  0  0  0  0
   27.6283  -20.9160  -18.2582 C   0  0  0  0  0  0  0  0  0  0  0  0
   28.3558  -21.6931  -17.1824 C   0  0  2  0  0  0  0  0  0  0  0  0
   28.8774  -22.9322  -17.6947 N   0  0  0  0  0  0  0  0  0  0  0  0
   27.4542  -22.0144  -16.0394 C   0  0  0  0  0  0  0  0  0  0  0  0
   26.8280  -23.1225  -16.0079 O   0  0  0  0  0  0  0  0  0  0  0  0
   22.9166  -20.8679   -8.4823 O   0  0  0  0  0  0  0  0  0  0  0  0
   23.8492  -20.7742   -9.5083 C   0  0  0  0  0  0  0  0  0  0  0  0
   25.1011  -21.3411   -9.4497 C   0  0  0  0  0  0  0  0  0  0  0  0
   25.9956  -21.2223  -10.4937 C   0  0  0  0  0  0  0  0  0  0  0  0
   25.6548  -20.5284  -11.6279 C   0  0  0  0  0  0  0  0  0  0  0  0
   26.5259  -20.3428  -12.7889 C   0  0  0  0  0  0  0  0  0  0  0  0
   26.3088  -21.3675  -13.8767 C   0  0  2  0  0  0  0  0  0  0  0  0
   27.2482  -21.1244  -14.9483 N   0  0  0  0  0  0  0  0  0  0  0  0
   24.9346  -21.1564  -14.3992 C   0  0  0  0  0  0  0  0  0  0  0  0
   24.7520  -20.1619  -15.1497 O   0  0  0  0  0  0  0  0  0  0  0  0
   24.3955  -19.9651  -11.6722 C   0  0  0  0  0  0  0  0  0  0  0  0
   23.4922  -20.0760  -10.6369 C   0  0  0  0  0  0  0  0  0  0  0  0
   21.5755  -24.4436  -17.8237 N   0  0  0  0  0  0  0  0  0  0  0  0
   20.6332  -23.3971  -17.5211 C   0  0  0  0  0  0  0  0  0  0  0  0
   19.6176  -23.3674  -18.2254 O   0  0  0  0  0  0  0  0  0  0  0  0
   20.9845  -22.4885  -16.4166 C   0  0  0  0  0  0  0  0  0  0  0  0
   22.3057  -22.7364  -15.7772 C   0  0  0  0  0  0  0  0  0  0  0  0
   22.5660  -21.7900  -14.6585 C   0  0  2  0  0  0  0  0  0  0  0  0
   23.8846  -22.0423  -14.0602 N   0  0  0  0  0  0  0  0  0  0  0  0
   21.5611  -21.9486  -13.5884 C   0  0  0  0  0  0  0  0  0  0  0  0
   21.8140  -22.6718  -12.5748 O   0  0  0  0  0  0  0  0  0  0  0  0
   20.3358  -21.3229  -13.6547 O   0  0  0  0  0  0  0  0  0  0  0  0
  1  2  1  0
  2  3  1  0
  3  4  1  6
  5  3  1  0
  6  5  2  0
  7  8  1  0
  8 18  2  0
  9 10  2  0
  9  8  1  0
 10 11  1  0
 11 12  1  0
 11 17  2  0
 13 12  1  1
 13 15  1  0
 13 14  1  0
 14  5  1  0
 15 16  2  0
 18 17  1  0
 19 20  1  0
 20 22  1  0
 21 20  2  0
 22 23  1  0
 24 23  1  6
 25 24  1  0
 25 15  1  0
 26 28  1  0
 26 24  1  0
 27 26  2  0
M  END
$$$$
