SYQ.pdb
     RDKit          3D

 28 28  0  0  1  0  0  0  0  0999 V2000
   18.2064  -11.3887  -12.3444 O   0  0  0  0  0  0  0  0  0  0  0  0
   17.6647  -10.1240  -12.1968 C   0  0  0  0  0  0  0  0  0  0  0  0
   16.4086  -10.2431  -11.3611 C   0  0  2  0  0  0  0  0  0  0  0  0
   15.3639  -10.9212  -12.0812 N   0  0  0  0  0  0  0  0  0  0  0  0
   15.8923   -8.9031  -10.9606 C   0  0  0  0  0  0  0  0  0  0  0  0
   15.0758   -8.2792  -11.7124 O   0  0  0  0  0  0  0  0  0  0  0  0
   10.0330   -8.5028   -7.1637 O   0  0  0  0  0  0  0  0  0  0  0  0
   11.3405   -8.0644   -7.3348 C   0  0  0  0  0  0  0  0  0  0  0  0
   11.7166   -6.7447   -7.2399 C   0  0  0  0  0  0  0  0  0  0  0  0
   13.0284   -6.3547   -7.4175 C   0  0  0  0  0  0  0  0  0  0  0  0
   14.0000   -7.2833   -7.6961 C   0  0  0  0  0  0  0  0  0  0  0  0
   15.4159   -6.9772   -7.9020 C   0  0  0  0  0  0  0  0  0  0  0  0
   15.8221   -6.9465   -9.3562 C   0  0  2  0  0  0  0  0  0  0  0  0
   16.2730   -8.2629   -9.7481 N   0  0  0  0  0  0  0  0  0  0  0  0
   16.9664   -6.0060   -9.4639 C   0  0  0  0  0  0  0  0  0  0  0  0
   17.9423   -6.1980   -8.6916 O   0  0  0  0  0  0  0  0  0  0  0  0
   13.6076   -8.6034   -7.7883 C   0  0  0  0  0  0  0  0  0  0  0  0
   12.3012   -9.0069   -7.6132 C   0  0  0  0  0  0  0  0  0  0  0  0
   20.4461   -7.5613  -12.8899 N   0  0  0  0  0  0  0  0  0  0  0  0
   21.0260   -6.2432  -12.8586 C   0  0  0  0  0  0  0  0  0  0  0  0
   22.1534   -6.1396  -13.3553 O   0  0  0  0  0  0  0  0  0  0  0  0
   20.2169   -5.1780  -12.2428 C   0  0  0  0  0  0  0  0  0  0  0  0
   18.9757   -5.6302  -11.5567 C   0  0  0  0  0  0  0  0  0  0  0  0
   18.2394   -4.4943  -10.9382 C   0  0  2  0  0  0  0  0  0  0  0  0
   16.9482   -4.9438  -10.3987 N   0  0  0  0  0  0  0  0  0  0  0  0
   17.9560   -3.4433  -11.9358 C   0  0  0  0  0  0  0  0  0  0  0  0
   16.8294   -3.4041  -12.5220 O   0  0  0  0  0  0  0  0  0  0  0  0
   18.8918   -2.4842  -12.2549 O   0  0  0  0  0  0  0  0  0  0  0  0
  1  2  1  0
  2  3  1  0
  3  4  1  6
  5  3  1  0
  6  5  2  0
  7  8  1  0
  8 18  2  0
  9 10  2  0
  9  8  1  0
 10 11  1  0
 11 12  1  0
 11 17  2  0
 13 12  1  1
 13 15  1  0
 13 14  1  0
 14  5  1  0
 15 16  2  0
 18 17  1  0
 19 20  1  0
 20 22  1  0
 21 20  2  0
 22 23  1  0
 24 23  1  6
 25 24  1  0
 25 15  1  0
 26 28  1  0
 26 24  1  0
 27 26  2  0
M  END
$$$$
