SYQ.pdb
     RDKit          3D

 28 28  0  0  1  0  0  0  0  0999 V2000
   27.1905  -10.5063  -16.7950 O   0  0  0  0  0  0  0  0  0  0  0  0
   26.6971  -11.0626  -15.6281 C   0  0  0  0  0  0  0  0  0  0  0  0
   25.3995  -11.7699  -15.9542 C   0  0  2  0  0  0  0  0  0  0  0  0
   25.5636  -12.6825  -17.0542 N   0  0  0  0  0  0  0  0  0  0  0  0
   24.3283  -10.8000  -16.3207 C   0  0  0  0  0  0  0  0  0  0  0  0
   24.0348  -10.5999  -17.5433 O   0  0  0  0  0  0  0  0  0  0  0  0
   17.9717  -13.4989  -16.9601 O   0  0  0  0  0  0  0  0  0  0  0  0
   18.7896  -12.4742  -16.4994 C   0  0  0  0  0  0  0  0  0  0  0  0
   19.1334  -11.3790  -17.2572 C   0  0  0  0  0  0  0  0  0  0  0  0
   19.9493  -10.3844  -16.7578 C   0  0  0  0  0  0  0  0  0  0  0  0
   20.4431  -10.4643  -15.4796 C   0  0  0  0  0  0  0  0  0  0  0  0
   21.3136   -9.4679  -14.8549 C   0  0  0  0  0  0  0  0  0  0  0  0
   22.5355   -9.1331  -15.6769 C   0  0  2  0  0  0  0  0  0  0  0  0
   23.5932  -10.0629  -15.3505 N   0  0  0  0  0  0  0  0  0  0  0  0
   22.9660   -7.7703  -15.2729 C   0  0  0  0  0  0  0  0  0  0  0  0
   23.6652   -7.6744  -14.2300 O   0  0  0  0  0  0  0  0  0  0  0  0
   20.0897  -11.5689  -14.7313 C   0  0  0  0  0  0  0  0  0  0  0  0
   19.2756  -12.5695  -15.2174 C   0  0  0  0  0  0  0  0  0  0  0  0
   23.3839   -2.5230  -18.8117 N   0  0  0  0  0  0  0  0  0  0  0  0
   23.7491   -2.0649  -17.4960 C   0  0  0  0  0  0  0  0  0  0  0  0
   24.0711   -0.8742  -17.4111 O   0  0  0  0  0  0  0  0  0  0  0  0
   23.6985   -3.0589  -16.4107 C   0  0  0  0  0  0  0  0  0  0  0  0
   23.2391   -4.4184  -16.8064 C   0  0  0  0  0  0  0  0  0  0  0  0
   23.1691   -5.3407  -15.6406 C   0  0  2  0  0  0  0  0  0  0  0  0
   22.5994   -6.6365  -16.0362 N   0  0  0  0  0  0  0  0  0  0  0  0
   22.3038   -4.7865  -14.5803 C   0  0  0  0  0  0  0  0  0  0  0  0
   21.0840   -5.1334  -14.5029 O   0  0  0  0  0  0  0  0  0  0  0  0
   22.7877   -3.8900  -13.6532 O   0  0  0  0  0  0  0  0  0  0  0  0
  1  2  1  0
  2  3  1  0
  3  4  1  6
  5  3  1  0
  6  5  2  0
  7  8  1  0
  8 18  2  0
  9 10  2  0
  9  8  1  0
 10 11  1  0
 11 12  1  0
 11 17  2  0
 13 12  1  1
 13 15  1  0
 13 14  1  0
 14  5  1  0
 15 16  2  0
 18 17  1  0
 19 20  1  0
 20 22  1  0
 21 20  2  0
 22 23  1  0
 24 23  1  6
 25 24  1  0
 25 15  1  0
 26 28  1  0
 26 24  1  0
 27 26  2  0
M  END
$$$$
