SYQ.pdb
     RDKit          3D

 28 28  0  0  1  0  0  0  0  0999 V2000
   26.9478  -21.0865  -18.6402 O   0  0  0  0  0  0  0  0  0  0  0  0
   28.1962  -20.7787  -18.1288 C   0  0  0  0  0  0  0  0  0  0  0  0
   28.5844  -21.8627  -17.1466 C   0  0  2  0  0  0  0  0  0  0  0  0
   28.7328  -23.1343  -17.8030 N   0  0  0  0  0  0  0  0  0  0  0  0
   27.5597  -22.0182  -16.0749 C   0  0  0  0  0  0  0  0  0  0  0  0
   26.7971  -23.0376  -16.0594 O   0  0  0  0  0  0  0  0  0  0  0  0
   23.5610  -20.6997   -8.2470 O   0  0  0  0  0  0  0  0  0  0  0  0
   24.3083  -20.5488   -9.4089 C   0  0  0  0  0  0  0  0  0  0  0  0
   23.8797  -19.8262  -10.4980 C   0  0  0  0  0  0  0  0  0  0  0  0
   24.6563  -19.7032  -11.6321 C   0  0  0  0  0  0  0  0  0  0  0  0
   25.8880  -20.3049  -11.7021 C   0  0  0  0  0  0  0  0  0  0  0  0
   26.7881  -20.2376  -12.8537 C   0  0  0  0  0  0  0  0  0  0  0  0
   26.4439  -21.2203  -13.9475 C   0  0  2  0  0  0  0  0  0  0  0  0
   27.3812  -21.0616  -15.0366 N   0  0  0  0  0  0  0  0  0  0  0  0
   25.0885  -20.8619  -14.4376 C   0  0  0  0  0  0  0  0  0  0  0  0
   25.0113  -19.9364  -15.2880 O   0  0  0  0  0  0  0  0  0  0  0  0
   26.3045  -21.0265  -10.6017 C   0  0  0  0  0  0  0  0  0  0  0  0
   25.5392  -21.1577   -9.4627 C   0  0  0  0  0  0  0  0  0  0  0  0
   21.0704  -24.3260  -17.0088 N   0  0  0  0  0  0  0  0  0  0  0  0
   20.3908  -23.0564  -17.0378 C   0  0  0  0  0  0  0  0  0  0  0  0
   19.4168  -22.9847  -17.7958 O   0  0  0  0  0  0  0  0  0  0  0  0
   20.9297  -21.9966  -16.1688 C   0  0  0  0  0  0  0  0  0  0  0  0
   22.1816  -22.3391  -15.4398 C   0  0  0  0  0  0  0  0  0  0  0  0
   22.6527  -21.2130  -14.5885 C   0  0  2  0  0  0  0  0  0  0  0  0
   23.9411  -21.5393  -13.9610 N   0  0  0  0  0  0  0  0  0  0  0  0
   21.6929  -20.9360  -13.5012 C   0  0  0  0  0  0  0  0  0  0  0  0
   21.1741  -19.7821  -13.3837 O   0  0  0  0  0  0  0  0  0  0  0  0
   21.3335  -21.9088  -12.5947 O   0  0  0  0  0  0  0  0  0  0  0  0
  1  2  1  0
  2  3  1  0
  3  4  1  6
  5  3  1  0
  6  5  2  0
  7  8  1  0
  8 18  2  0
  9 10  2  0
  9  8  1  0
 10 11  1  0
 11 12  1  0
 11 17  2  0
 13 12  1  1
 13 15  1  0
 13 14  1  0
 14  5  1  0
 15 16  2  0
 18 17  1  0
 19 20  1  0
 20 22  1  0
 21 20  2  0
 22 23  1  0
 24 23  1  1
 25 24  1  0
 25 15  1  0
 26 28  1  0
 26 24  1  0
 27 26  2  0
M  END
$$$$
