AKE.pdb
     RDKit          3D

 24 23  0  0  1  0  0  0  0  0999 V2000
   23.6756  -19.1842  -16.4886 C   0  0  0  0  0  0  0  0  0  0  0  0
   22.5825  -18.6990  -15.5669 C   0  0  2  0  0  0  0  0  0  0  0  0
   21.6339  -19.7889  -15.3910 N   0  0  0  0  0  0  0  0  0  0  0  0
   21.8570  -17.5346  -16.1343 C   0  0  0  0  0  0  0  0  0  0  0  0
   22.4645  -16.4499  -16.4264 O   0  0  0  0  0  0  0  0  0  0  0  0
   20.4713  -17.5394  -16.3880 N   0  0  0  0  0  0  0  0  0  0  0  0
   19.7379  -16.5195  -17.0650 C   0  0  1  0  0  0  0  0  0  0  0  0
   18.6202  -17.0593  -17.9215 C   0  0  0  0  0  0  0  0  0  0  0  0
   19.0751  -17.8245  -19.1092 C   0  0  0  0  0  0  0  0  0  0  0  0
   18.3466  -19.1498  -19.1396 C   0  0  0  0  0  0  0  0  0  0  0  0
   18.7202  -20.0166  -20.2997 C   0  0  0  0  0  0  0  0  0  0  0  0
   18.0899  -21.3269  -20.0791 N   0  0  0  0  0  0  0  0  0  0  0  0
   19.3270  -15.3913  -16.1990 C   0  0  0  0  0  0  0  0  0  0  0  0
   19.0542  -15.5017  -14.9737 O   0  0  0  0  0  0  0  0  0  0  0  0
   19.2131  -14.0721  -16.7205 N   0  0  0  0  0  0  0  0  0  0  0  0
   18.8836  -12.9293  -15.9009 C   0  0  1  0  0  0  0  0  0  0  0  0
   19.3462  -11.6628  -16.5443 C   0  0  0  0  0  0  0  0  0  0  0  0
   19.0966  -10.4138  -15.7771 C   0  0  0  0  0  0  0  0  0  0  0  0
   19.4651   -9.1853  -16.5175 C   0  0  0  0  0  0  0  0  0  0  0  0
   19.5966   -9.1644  -17.7663 O   0  0  0  0  0  0  0  0  0  0  0  0
   17.4050  -12.8303  -15.7663 C   0  0  0  0  0  0  0  0  0  0  0  0
   16.7764  -12.4389  -14.6062 O   0  0  0  0  0  0  0  0  0  0  0  0
   19.6797   -7.9983  -15.8341 O   0  0  0  0  0  0  0  0  0  0  0  0
   16.6895  -13.1156  -16.7532 O   0  0  0  0  0  0  0  0  0  0  0  0
  2  1  1  6
  2  3  1  0
  4  5  2  0
  4  2  1  0
  6  4  1  0
  7  6  1  0
  7  8  1  1
  9 10  1  0
  9  8  1  0
 10 11  1  0
 11 12  1  0
 13  7  1  0
 13 15  1  0
 14 13  2  0
 16 15  1  0
 16 21  1  0
 16 17  1  6
 18 17  1  0
 19 20  2  0
 19 18  1  0
 21 24  2  0
 21 22  1  0
 23 19  1  0
M  END
$$$$
