AKE.pdb
     RDKit          3D

 24 23  0  0  1  0  0  0  0  0999 V2000
   15.5550  -12.1528  -14.7438 C   0  0  0  0  0  0  0  0  0  0  0  0
   16.3431  -11.8327  -13.4963 C   0  0  2  0  0  0  0  0  0  0  0  0
   16.3268  -13.0138  -12.6457 N   0  0  0  0  0  0  0  0  0  0  0  0
   15.7461  -10.7033  -12.7397 C   0  0  0  0  0  0  0  0  0  0  0  0
   15.6148   -9.5464  -13.2643 O   0  0  0  0  0  0  0  0  0  0  0  0
   15.2889  -10.8215  -11.4124 N   0  0  0  0  0  0  0  0  0  0  0  0
   14.6588   -9.7953  -10.6467 C   0  0  1  0  0  0  0  0  0  0  0  0
   13.7223  -10.3297   -9.5924 C   0  0  0  0  0  0  0  0  0  0  0  0
   12.2881  -10.2918   -9.9727 C   0  0  0  0  0  0  0  0  0  0  0  0
   11.4718  -10.8797   -8.8431 C   0  0  0  0  0  0  0  0  0  0  0  0
   10.0018  -10.9146   -9.1162 C   0  0  0  0  0  0  0  0  0  0  0  0
    9.3683  -11.5990   -7.9789 N   0  0  0  0  0  0  0  0  0  0  0  0
   15.5870   -8.7582  -10.1422 C   0  0  0  0  0  0  0  0  0  0  0  0
   16.6559   -9.0053   -9.5225 O   0  0  0  0  0  0  0  0  0  0  0  0
   15.3140   -7.3750  -10.3359 N   0  0  0  0  0  0  0  0  0  0  0  0
   16.1977   -6.3285   -9.8777 C   0  0  1  0  0  0  0  0  0  0  0  0
   16.4753   -5.3502  -10.9722 C   0  0  0  0  0  0  0  0  0  0  0  0
   17.3011   -4.1716  -10.5982 C   0  0  0  0  0  0  0  0  0  0  0  0
   17.5191   -3.2271  -11.7179 C   0  0  0  0  0  0  0  0  0  0  0  0
   18.3808   -3.4258  -12.6097 O   0  0  0  0  0  0  0  0  0  0  0  0
   15.5371   -5.5721   -8.7798 C   0  0  0  0  0  0  0  0  0  0  0  0
   16.2169   -4.7394   -7.9203 O   0  0  0  0  0  0  0  0  0  0  0  0
   16.7591   -2.0716  -11.8122 O   0  0  0  0  0  0  0  0  0  0  0  0
   14.3010   -5.6937   -8.6231 O   0  0  0  0  0  0  0  0  0  0  0  0
  2  1  1  6
  2  3  1  0
  4  5  2  0
  4  2  1  0
  6  4  1  0
  7  6  1  0
  7  8  1  1
  9 10  1  0
  9  8  1  0
 10 11  1  0
 11 12  1  0
 13  7  1  0
 13 15  1  0
 14 13  2  0
 16 15  1  0
 16 21  1  0
 16 17  1  6
 18 17  1  0
 19 20  2  0
 19 18  1  0
 21 24  2  0
 21 22  1  0
 23 19  1  0
M  END
$$$$
