AKE.pdb
     RDKit          3D

 24 23  0  0  1  0  0  0  0  0999 V2000
   21.3200  -16.7209  -19.2861 C   0  0  0  0  0  0  0  0  0  0  0  0
   22.5354  -17.5073  -18.8569 C   0  0  2  0  0  0  0  0  0  0  0  0
   23.4686  -17.5269  -19.9739 N   0  0  0  0  0  0  0  0  0  0  0  0
   22.1926  -18.9094  -18.5094 C   0  0  0  0  0  0  0  0  0  0  0  0
   21.3960  -19.5983  -19.2319 O   0  0  0  0  0  0  0  0  0  0  0  0
   22.7104  -19.5716  -17.3789 N   0  0  0  0  0  0  0  0  0  0  0  0
   22.4579  -20.9270  -17.0107 C   0  0  1  0  0  0  0  0  0  0  0  0
   23.7125  -21.7560  -16.8966 C   0  0  0  0  0  0  0  0  0  0  0  0
   23.4749  -23.1808  -16.5556 C   0  0  0  0  0  0  0  0  0  0  0  0
   24.7943  -23.9185  -16.6102 C   0  0  0  0  0  0  0  0  0  0  0  0
   24.6628  -25.4010  -16.4633 C   0  0  0  0  0  0  0  0  0  0  0  0
   26.0147  -25.9675  -16.5828 N   0  0  0  0  0  0  0  0  0  0  0  0
   21.5402  -21.0821  -15.8595 C   0  0  0  0  0  0  0  0  0  0  0  0
   21.7797  -20.6516  -14.6997 O   0  0  0  0  0  0  0  0  0  0  0  0
   20.2917  -21.7498  -16.0036 N   0  0  0  0  0  0  0  0  0  0  0  0
   19.3987  -21.9931  -14.8949 C   0  0  1  0  0  0  0  0  0  0  0  0
   18.5180  -23.1682  -15.1698 C   0  0  0  0  0  0  0  0  0  0  0  0
   17.3907  -23.3730  -14.2221 C   0  0  0  0  0  0  0  0  0  0  0  0
   16.5785  -24.5738  -14.5251 C   0  0  0  0  0  0  0  0  0  0  0  0
   16.9007  -25.3989  -15.4153 O   0  0  0  0  0  0  0  0  0  0  0  0
   20.1968  -22.3255  -13.6839 C   0  0  0  0  0  0  0  0  0  0  0  0
   19.9210  -21.8184  -12.4345 O   0  0  0  0  0  0  0  0  0  0  0  0
   15.4134  -24.8234  -13.8164 O   0  0  0  0  0  0  0  0  0  0  0  0
   21.1698  -23.1048  -13.7986 O   0  0  0  0  0  0  0  0  0  0  0  0
  2  1  1  6
  2  3  1  0
  4  5  2  0
  4  2  1  0
  6  4  1  0
  7  6  1  0
  7  8  1  1
  9 10  1  0
  9  8  1  0
 10 11  1  0
 11 12  1  0
 13  7  1  0
 13 15  1  0
 14 13  2  0
 16 15  1  0
 16 21  1  0
 16 17  1  6
 18 17  1  0
 19 20  2  0
 19 18  1  0
 21 24  2  0
 21 22  1  0
 23 19  1  0
M  END
$$$$
