AKE.pdb
     RDKit          3D

 24 23  0  0  1  0  0  0  0  0999 V2000
   26.5377  -24.5292  -17.1183 C   0  0  0  0  0  0  0  0  0  0  0  0
   26.6913  -23.0735  -16.7480 C   0  0  2  0  0  0  0  0  0  0  0  0
   28.0446  -22.8835  -16.2467 N   0  0  0  0  0  0  0  0  0  0  0  0
   25.7376  -22.6699  -15.6842 C   0  0  0  0  0  0  0  0  0  0  0  0
   24.4827  -22.8746  -15.8028 O   0  0  0  0  0  0  0  0  0  0  0  0
   26.1382  -22.0432  -14.4878 N   0  0  0  0  0  0  0  0  0  0  0  0
   25.2754  -21.6109  -13.4365 C   0  0  1  0  0  0  0  0  0  0  0  0
   25.9935  -21.3963  -12.1278 C   0  0  0  0  0  0  0  0  0  0  0  0
   25.1005  -21.0807  -10.9851 C   0  0  0  0  0  0  0  0  0  0  0  0
   25.9293  -21.0369   -9.7205 C   0  0  0  0  0  0  0  0  0  0  0  0
   25.1395  -20.7107   -8.4930 C   0  0  0  0  0  0  0  0  0  0  0  0
   26.0800  -20.7125   -7.3624 N   0  0  0  0  0  0  0  0  0  0  0  0
   24.3784  -20.4936  -13.8086 C   0  0  0  0  0  0  0  0  0  0  0  0
   24.7733  -19.3276  -14.0777 O   0  0  0  0  0  0  0  0  0  0  0  0
   22.9697  -20.6807  -13.8862 N   0  0  0  0  0  0  0  0  0  0  0  0
   22.0560  -19.6236  -14.2518 C   0  0  1  0  0  0  0  0  0  0  0  0
   21.6508  -19.7433  -15.6848 C   0  0  0  0  0  0  0  0  0  0  0  0
   20.6752  -18.7327  -16.1723 C   0  0  0  0  0  0  0  0  0  0  0  0
   20.3449  -18.8790  -17.6085 C   0  0  0  0  0  0  0  0  0  0  0  0
   20.7849  -19.8242  -18.3088 O   0  0  0  0  0  0  0  0  0  0  0  0
   20.8145  -19.7437  -13.4405 C   0  0  0  0  0  0  0  0  0  0  0  0
   19.8867  -18.7336  -13.3249 O   0  0  0  0  0  0  0  0  0  0  0  0
   19.5217  -17.9539  -18.2316 O   0  0  0  0  0  0  0  0  0  0  0  0
   20.5953  -20.8139  -12.8291 O   0  0  0  0  0  0  0  0  0  0  0  0
  2  1  1  1
  2  3  1  0
  4  5  2  0
  4  2  1  0
  6  4  1  0
  7  6  1  0
  7  8  1  1
  9 10  1  0
  9  8  1  0
 10 11  1  0
 11 12  1  0
 13  7  1  0
 13 15  1  0
 14 13  2  0
 16 15  1  0
 16 21  1  0
 16 17  1  6
 18 17  1  0
 19 20  2  0
 19 18  1  0
 21 24  2  0
 21 22  1  0
 23 19  1  0
M  END
$$$$
