AKE.pdb
     RDKit          3D

 24 23  0  0  1  0  0  0  0  0999 V2000
   14.9855  -12.9311  -13.9123 C   0  0  0  0  0  0  0  0  0  0  0  0
   16.0410  -12.4613  -12.9402 C   0  0  2  0  0  0  0  0  0  0  0  0
   15.9975  -13.3386  -11.7795 N   0  0  0  0  0  0  0  0  0  0  0  0
   15.7932  -11.0703  -12.4844 C   0  0  0  0  0  0  0  0  0  0  0  0
   15.9218  -10.0773  -13.2772 O   0  0  0  0  0  0  0  0  0  0  0  0
   15.4053  -10.7482  -11.1690 N   0  0  0  0  0  0  0  0  0  0  0  0
   15.1241   -9.4400  -10.6728 C   0  0  1  0  0  0  0  0  0  0  0  0
   13.9208   -9.3940   -9.7650 C   0  0  0  0  0  0  0  0  0  0  0  0
   13.6010   -8.0423   -9.2419 C   0  0  0  0  0  0  0  0  0  0  0  0
   12.3500   -8.1336   -8.3966 C   0  0  0  0  0  0  0  0  0  0  0  0
   11.8319   -6.8066   -7.9411 C   0  0  0  0  0  0  0  0  0  0  0  0
   10.6086   -7.0644   -7.1666 N   0  0  0  0  0  0  0  0  0  0  0  0
   16.3039   -8.7318  -10.1269 C   0  0  0  0  0  0  0  0  0  0  0  0
   17.0013   -9.1537   -9.1659 O   0  0  0  0  0  0  0  0  0  0  0  0
   16.7315   -7.4907  -10.6766 N   0  0  0  0  0  0  0  0  0  0  0  0
   17.9661   -6.8461  -10.2940 C   0  0  1  0  0  0  0  0  0  0  0  0
   18.9519   -6.8772  -11.4161 C   0  0  0  0  0  0  0  0  0  0  0  0
   20.2342   -6.1638  -11.1763 C   0  0  0  0  0  0  0  0  0  0  0  0
   21.1494   -6.1917  -12.3404 C   0  0  0  0  0  0  0  0  0  0  0  0
   20.9979   -6.9897  -13.2983 O   0  0  0  0  0  0  0  0  0  0  0  0
   17.7003   -5.4135   -9.9922 C   0  0  0  0  0  0  0  0  0  0  0  0
   18.4981   -4.6545   -9.1667 O   0  0  0  0  0  0  0  0  0  0  0  0
   22.2226   -5.3166  -12.4036 O   0  0  0  0  0  0  0  0  0  0  0  0
   16.7028   -4.8633  -10.5114 O   0  0  0  0  0  0  0  0  0  0  0  0
  2  1  1  6
  2  3  1  0
  4  5  2  0
  4  2  1  0
  6  4  1  0
  7  6  1  0
  7  8  1  1
  9 10  1  0
  9  8  1  0
 10 11  1  0
 11 12  1  0
 13  7  1  0
 13 15  1  0
 14 13  2  0
 16 15  1  0
 16 21  1  0
 16 17  1  6
 18 17  1  0
 19 20  2  0
 19 18  1  0
 21 24  2  0
 21 22  1  0
 23 19  1  0
M  END
$$$$
