AKE.pdb
     RDKit          3D

 24 23  0  0  1  0  0  0  0  0999 V2000
   14.7249  -12.8808  -13.0861 C   0  0  0  0  0  0  0  0  0  0  0  0
   15.9417  -12.3134  -12.3952 C   0  0  2  0  0  0  0  0  0  0  0  0
   16.1774  -13.1007  -11.1938 N   0  0  0  0  0  0  0  0  0  0  0  0
   15.7405  -10.8980  -11.9948 C   0  0  0  0  0  0  0  0  0  0  0  0
   15.6412   -9.9680  -12.8644 O   0  0  0  0  0  0  0  0  0  0  0  0
   15.6460  -10.4834  -10.6518 N   0  0  0  0  0  0  0  0  0  0  0  0
   15.4737   -9.1416  -10.1972 C   0  0  1  0  0  0  0  0  0  0  0  0
   14.4432   -9.0117   -9.1039 C   0  0  0  0  0  0  0  0  0  0  0  0
   13.0576   -9.3322   -9.5285 C   0  0  0  0  0  0  0  0  0  0  0  0
   12.1239   -9.0792   -8.3657 C   0  0  0  0  0  0  0  0  0  0  0  0
   10.6894   -9.3740   -8.6692 C   0  0  0  0  0  0  0  0  0  0  0  0
    9.9140   -9.0210   -7.4704 N   0  0  0  0  0  0  0  0  0  0  0  0
   16.7400   -8.4334   -9.9032 C   0  0  0  0  0  0  0  0  0  0  0  0
   17.7856   -8.9968   -9.4825 O   0  0  0  0  0  0  0  0  0  0  0  0
   16.8511   -7.0264  -10.0861 N   0  0  0  0  0  0  0  0  0  0  0  0
   18.0941   -6.3090   -9.9234 C   0  0  1  0  0  0  0  0  0  0  0  0
   19.0799   -6.7095  -10.9720 C   0  0  0  0  0  0  0  0  0  0  0  0
   20.4062   -6.0402  -10.9085 C   0  0  0  0  0  0  0  0  0  0  0  0
   21.3671   -6.5419  -11.9175 C   0  0  0  0  0  0  0  0  0  0  0  0
   21.6697   -7.7569  -12.0150 O   0  0  0  0  0  0  0  0  0  0  0  0
   17.8475   -4.8519  -10.0964 C   0  0  0  0  0  0  0  0  0  0  0  0
   16.7893   -4.3446  -10.8154 O   0  0  0  0  0  0  0  0  0  0  0  0
   21.9717   -5.6616  -12.8015 O   0  0  0  0  0  0  0  0  0  0  0  0
   18.6377   -4.0396   -9.5642 O   0  0  0  0  0  0  0  0  0  0  0  0
  2  1  1  1
  2  3  1  0
  4  5  2  0
  4  2  1  0
  6  4  1  0
  7  6  1  0
  7  8  1  1
  9 10  1  0
  9  8  1  0
 10 11  1  0
 11 12  1  0
 13  7  1  0
 13 15  1  0
 14 13  2  0
 16 15  1  0
 16 21  1  0
 16 17  1  6
 18 17  1  0
 19 20  2  0
 19 18  1  0
 21 24  2  0
 21 22  1  0
 23 19  1  0
M  END
$$$$
