AKE.pdb
     RDKit          3D

 24 23  0  0  1  0  0  0  0  0999 V2000
   25.1825  -12.4761  -18.4422 C   0  0  0  0  0  0  0  0  0  0  0  0
   24.6252  -12.4902  -17.0389 C   0  0  2  0  0  0  0  0  0  0  0  0
   24.2074  -13.8523  -16.7409 N   0  0  0  0  0  0  0  0  0  0  0  0
   23.4456  -11.5990  -16.9034 C   0  0  0  0  0  0  0  0  0  0  0  0
   23.5477  -10.3337  -17.0440 O   0  0  0  0  0  0  0  0  0  0  0  0
   22.1508  -12.0734  -16.6153 N   0  0  0  0  0  0  0  0  0  0  0  0
   20.9751  -11.2760  -16.4795 C   0  0  1  0  0  0  0  0  0  0  0  0
   19.6996  -12.0717  -16.5981 C   0  0  0  0  0  0  0  0  0  0  0  0
   19.3542  -12.4701  -17.9855 C   0  0  0  0  0  0  0  0  0  0  0  0
   18.0656  -13.2616  -17.9556 C   0  0  0  0  0  0  0  0  0  0  0  0
   17.5707  -13.6591  -19.3098 C   0  0  0  0  0  0  0  0  0  0  0  0
   16.4341  -14.5692  -19.1032 N   0  0  0  0  0  0  0  0  0  0  0  0
   20.9944  -10.3598  -15.3168 C   0  0  0  0  0  0  0  0  0  0  0  0
   21.4528  -10.6637  -14.1831 O   0  0  0  0  0  0  0  0  0  0  0  0
   20.4779   -9.0376  -15.4183 N   0  0  0  0  0  0  0  0  0  0  0  0
   20.4685   -8.1109  -14.3104 C   0  0  1  0  0  0  0  0  0  0  0  0
   21.2962   -6.9059  -14.6185 C   0  0  0  0  0  0  0  0  0  0  0  0
   21.3903   -5.8874  -13.5393 C   0  0  0  0  0  0  0  0  0  0  0  0
   22.2526   -4.7358  -13.8911 C   0  0  0  0  0  0  0  0  0  0  0  0
   23.1944   -4.8260  -14.7171 O   0  0  0  0  0  0  0  0  0  0  0  0
   19.0784   -7.6328  -14.0806 C   0  0  0  0  0  0  0  0  0  0  0  0
   18.6058   -7.2487  -12.8463 O   0  0  0  0  0  0  0  0  0  0  0  0
   22.0368   -3.4990  -13.3033 O   0  0  0  0  0  0  0  0  0  0  0  0
   18.2927   -7.5739  -15.0534 O   0  0  0  0  0  0  0  0  0  0  0  0
  2  1  1  6
  2  3  1  0
  4  5  2  0
  4  2  1  0
  6  4  1  0
  7  6  1  0
  7  8  1  1
  9 10  1  0
  9  8  1  0
 10 11  1  0
 11 12  1  0
 13  7  1  0
 13 15  1  0
 14 13  2  0
 16 15  1  0
 16 21  1  0
 16 17  1  6
 18 17  1  0
 19 20  2  0
 19 18  1  0
 21 24  2  0
 21 22  1  0
 23 19  1  0
M  END
$$$$
