AKE.pdb
     RDKit          3D

 24 23  0  0  1  0  0  0  0  0999 V2000
   19.8733  -14.6784  -17.2446 C   0  0  0  0  0  0  0  0  0  0  0  0
   19.4004  -13.8716  -16.0592 C   0  0  2  0  0  0  0  0  0  0  0  0
   18.0556  -14.3182  -15.7263 N   0  0  0  0  0  0  0  0  0  0  0  0
   19.3489  -12.4194  -16.3638 C   0  0  0  0  0  0  0  0  0  0  0  0
   20.4132  -11.7448  -16.5714 O   0  0  0  0  0  0  0  0  0  0  0  0
   18.1455  -11.6916  -16.4450 N   0  0  0  0  0  0  0  0  0  0  0  0
   18.0166  -10.3212  -16.8218 C   0  0  1  0  0  0  0  0  0  0  0  0
   16.7408  -10.0274  -17.5701 C   0  0  0  0  0  0  0  0  0  0  0  0
   16.7129  -10.5490  -18.9594 C   0  0  0  0  0  0  0  0  0  0  0  0
   15.3855  -10.1852  -19.5868 C   0  0  0  0  0  0  0  0  0  0  0  0
   15.2246  -10.6825  -20.9881 C   0  0  0  0  0  0  0  0  0  0  0  0
   13.9008  -10.2411  -21.4526 N   0  0  0  0  0  0  0  0  0  0  0  0
   18.2947   -9.3627  -15.7284 C   0  0  0  0  0  0  0  0  0  0  0  0
   18.0129   -9.5681  -14.5175 O   0  0  0  0  0  0  0  0  0  0  0  0
   18.9182   -8.1111  -15.9933 N   0  0  0  0  0  0  0  0  0  0  0  0
   19.2050   -7.1425  -14.9610 C   0  0  1  0  0  0  0  0  0  0  0  0
   20.6325   -6.7062  -15.0233 C   0  0  0  0  0  0  0  0  0  0  0  0
   21.0335   -5.6503  -14.0563 C   0  0  0  0  0  0  0  0  0  0  0  0
   22.4677   -5.2905  -14.1396 C   0  0  0  0  0  0  0  0  0  0  0  0
   23.3468   -6.1058  -14.5135 O   0  0  0  0  0  0  0  0  0  0  0  0
   18.3725   -5.9288  -15.1801 C   0  0  0  0  0  0  0  0  0  0  0  0
   17.9616   -5.1003  -14.1608 O   0  0  0  0  0  0  0  0  0  0  0  0
   22.8863   -4.0137  -13.7985 O   0  0  0  0  0  0  0  0  0  0  0  0
   18.0241   -5.6396  -16.3472 O   0  0  0  0  0  0  0  0  0  0  0  0
  2  1  1  6
  2  3  1  0
  4  5  2  0
  4  2  1  0
  6  4  1  0
  7  6  1  0
  7  8  1  1
  9 10  1  0
  9  8  1  0
 10 11  1  0
 11 12  1  0
 13  7  1  0
 13 15  1  0
 14 13  2  0
 16 15  1  0
 16 21  1  0
 16 17  1  6
 18 17  1  0
 19 20  2  0
 19 18  1  0
 21 24  2  0
 21 22  1  0
 23 19  1  0
M  END
$$$$
