AKE.pdb
     RDKit          3D

 24 23  0  0  1  0  0  0  0  0999 V2000
   17.6920  -20.9380  -13.2523 C   0  0  0  0  0  0  0  0  0  0  0  0
   19.0372  -21.6176  -13.3444 C   0  0  2  0  0  0  0  0  0  0  0  0
   19.3575  -22.1481  -12.0274 N   0  0  0  0  0  0  0  0  0  0  0  0
   20.1094  -20.6700  -13.7403 C   0  0  0  0  0  0  0  0  0  0  0  0
   20.1657  -19.4892  -13.2572 O   0  0  0  0  0  0  0  0  0  0  0  0
   21.1250  -20.9966  -14.6604 N   0  0  0  0  0  0  0  0  0  0  0  0
   22.2038  -20.1503  -15.0559 C   0  0  1  0  0  0  0  0  0  0  0  0
   23.5189  -20.8789  -15.1742 C   0  0  0  0  0  0  0  0  0  0  0  0
   24.6830  -19.9990  -15.4457 C   0  0  0  0  0  0  0  0  0  0  0  0
   25.9273  -20.8547  -15.5312 C   0  0  0  0  0  0  0  0  0  0  0  0
   27.1774  -20.0765  -15.7924 C   0  0  0  0  0  0  0  0  0  0  0  0
   28.2909  -21.0373  -15.7937 N   0  0  0  0  0  0  0  0  0  0  0  0
   21.9011  -19.2844  -16.2179 C   0  0  0  0  0  0  0  0  0  0  0  0
   21.4065  -19.6987  -17.3002 O   0  0  0  0  0  0  0  0  0  0  0  0
   22.1610  -17.8859  -16.1757 N   0  0  0  0  0  0  0  0  0  0  0  0
   21.8198  -16.9908  -17.2567 C   0  0  1  0  0  0  0  0  0  0  0  0
   21.9702  -15.5657  -16.8343 C   0  0  0  0  0  0  0  0  0  0  0  0
   21.5666  -14.5435  -17.8358 C   0  0  0  0  0  0  0  0  0  0  0  0
   21.6332  -13.1567  -17.3204 C   0  0  0  0  0  0  0  0  0  0  0  0
   22.0495  -12.8852  -16.1671 O   0  0  0  0  0  0  0  0  0  0  0  0
   22.7596  -17.2069  -18.3898 C   0  0  0  0  0  0  0  0  0  0  0  0
   22.4168  -16.9977  -19.7063 O   0  0  0  0  0  0  0  0  0  0  0  0
   21.2277  -12.0974  -18.1174 O   0  0  0  0  0  0  0  0  0  0  0  0
   23.9226  -17.5985  -18.1420 O   0  0  0  0  0  0  0  0  0  0  0  0
  2  1  1  1
  2  3  1  0
  4  5  2  0
  4  2  1  0
  6  4  1  0
  7  6  1  0
  7  8  1  6
  9 10  1  0
  9  8  1  0
 10 11  1  0
 11 12  1  0
 13  7  1  0
 13 15  1  0
 14 13  2  0
 16 15  1  0
 16 21  1  0
 16 17  1  1
 18 17  1  0
 19 20  2  0
 19 18  1  0
 21 24  2  0
 21 22  1  0
 23 19  1  0
M  END
$$$$
