AKE.pdb
     RDKit          3D

 24 23  0  0  1  0  0  0  0  0999 V2000
   25.4994  -25.6844  -16.2482 C   0  0  0  0  0  0  0  0  0  0  0  0
   24.7334  -24.8336  -17.2327 C   0  0  2  0  0  0  0  0  0  0  0  0
   25.6028  -24.5822  -18.3727 N   0  0  0  0  0  0  0  0  0  0  0  0
   24.3412  -23.5270  -16.6466 C   0  0  0  0  0  0  0  0  0  0  0  0
   23.5790  -23.4582  -15.6242 O   0  0  0  0  0  0  0  0  0  0  0  0
   24.7724  -22.2900  -17.1646 N   0  0  0  0  0  0  0  0  0  0  0  0
   24.4597  -21.0025  -16.6341 C   0  0  1  0  0  0  0  0  0  0  0  0
   25.5542  -19.9880  -16.8509 C   0  0  0  0  0  0  0  0  0  0  0  0
   26.7692  -20.2144  -16.0291 C   0  0  0  0  0  0  0  0  0  0  0  0
   27.6980  -21.1403  -16.7827 C   0  0  0  0  0  0  0  0  0  0  0  0
   28.9570  -21.4641  -16.0432 C   0  0  0  0  0  0  0  0  0  0  0  0
   29.7127  -22.4136  -16.8740 N   0  0  0  0  0  0  0  0  0  0  0  0
   23.1133  -20.5068  -16.9991 C   0  0  0  0  0  0  0  0  0  0  0  0
   22.6494  -20.5137  -18.1706 O   0  0  0  0  0  0  0  0  0  0  0  0
   22.2366  -19.9758  -16.0117 N   0  0  0  0  0  0  0  0  0  0  0  0
   20.9366  -19.4312  -16.3271 C   0  0  1  0  0  0  0  0  0  0  0  0
   19.8792  -20.4806  -16.2145 C   0  0  0  0  0  0  0  0  0  0  0  0
   19.4268  -20.8038  -14.8354 C   0  0  0  0  0  0  0  0  0  0  0  0
   18.3625  -21.8327  -14.7916 C   0  0  0  0  0  0  0  0  0  0  0  0
   18.3943  -22.8666  -15.5040 O   0  0  0  0  0  0  0  0  0  0  0  0
   20.5965  -18.3681  -15.3431 C   0  0  0  0  0  0  0  0  0  0  0  0
   19.5226  -17.5196  -15.4883 O   0  0  0  0  0  0  0  0  0  0  0  0
   17.2778  -21.6770  -13.9425 O   0  0  0  0  0  0  0  0  0  0  0  0
   21.3184  -18.2319  -14.3294 O   0  0  0  0  0  0  0  0  0  0  0  0
  2  1  1  1
  2  3  1  0
  4  5  2  0
  4  2  1  0
  6  4  1  0
  7  6  1  0
  7  8  1  6
  9 10  1  0
  9  8  1  0
 10 11  1  0
 11 12  1  0
 13  7  1  0
 13 15  1  0
 14 13  2  0
 16 15  1  0
 16 21  1  0
 16 17  1  1
 18 17  1  0
 19 20  2  0
 19 18  1  0
 21 24  2  0
 21 22  1  0
 23 19  1  0
M  END
$$$$
