AKE.pdb
     RDKit          3D

 24 23  0  0  1  0  0  0  0  0999 V2000
   20.8194  -10.8213  -20.5240 C   0  0  0  0  0  0  0  0  0  0  0  0
   21.7617  -10.5710  -19.3711 C   0  0  2  0  0  0  0  0  0  0  0  0
   21.9272  -11.8261  -18.6527 N   0  0  0  0  0  0  0  0  0  0  0  0
   21.2240   -9.5593  -18.4270 C   0  0  0  0  0  0  0  0  0  0  0  0
   20.9925   -8.3594  -18.7982 O   0  0  0  0  0  0  0  0  0  0  0  0
   20.9347   -9.8419  -17.0776 N   0  0  0  0  0  0  0  0  0  0  0  0
   20.3452   -8.9429  -16.1390 C   0  0  1  0  0  0  0  0  0  0  0  0
   19.3877   -9.6179  -15.1894 C   0  0  0  0  0  0  0  0  0  0  0  0
   18.0371   -9.8626  -15.7542 C   0  0  0  0  0  0  0  0  0  0  0  0
   17.2094  -10.6028  -14.7272 C   0  0  0  0  0  0  0  0  0  0  0  0
   15.8279  -10.9363  -15.1930 C   0  0  0  0  0  0  0  0  0  0  0  0
   15.2628  -11.8848  -14.2215 N   0  0  0  0  0  0  0  0  0  0  0  0
   21.3134   -8.0481  -15.4655 C   0  0  0  0  0  0  0  0  0  0  0  0
   22.4436   -8.4148  -15.0461 O   0  0  0  0  0  0  0  0  0  0  0  0
   21.0109   -6.6749  -15.2464 N   0  0  0  0  0  0  0  0  0  0  0  0
   21.9703   -5.7343  -14.7163 C   0  0  1  0  0  0  0  0  0  0  0  0
   21.6142   -4.3363  -15.1046 C   0  0  0  0  0  0  0  0  0  0  0  0
   21.6601   -4.0328  -16.5595 C   0  0  0  0  0  0  0  0  0  0  0  0
   21.2090   -2.6611  -16.8887 C   0  0  0  0  0  0  0  0  0  0  0  0
   20.0138   -2.2960  -16.7636 O   0  0  0  0  0  0  0  0  0  0  0  0
   21.9439   -5.7896  -13.2296 C   0  0  0  0  0  0  0  0  0  0  0  0
   21.0375   -6.5415  -12.5174 O   0  0  0  0  0  0  0  0  0  0  0  0
   22.1166   -1.7225  -17.3546 O   0  0  0  0  0  0  0  0  0  0  0  0
   22.7852   -5.1216  -12.5867 O   0  0  0  0  0  0  0  0  0  0  0  0
  2  1  1  6
  2  3  1  0
  4  5  2  0
  4  2  1  0
  6  4  1  0
  7  6  1  0
  7  8  1  1
  9 10  1  0
  9  8  1  0
 10 11  1  0
 11 12  1  0
 13  7  1  0
 13 15  1  0
 14 13  2  0
 16 15  1  0
 16 21  1  0
 16 17  1  1
 18 17  1  0
 19 20  2  0
 19 18  1  0
 21 24  2  0
 21 22  1  0
 23 19  1  0
M  END
$$$$
