AKE.pdb
     RDKit          3D

 24 23  0  0  1  0  0  0  0  0999 V2000
   24.1359  -17.5650  -20.5773 C   0  0  0  0  0  0  0  0  0  0  0  0
   24.6678  -18.4341  -19.4630 C   0  0  2  0  0  0  0  0  0  0  0  0
   25.9155  -19.0280  -19.9203 N   0  0  0  0  0  0  0  0  0  0  0  0
   23.7268  -19.5297  -19.1190 C   0  0  0  0  0  0  0  0  0  0  0  0
   22.6802  -19.7515  -19.8164 O   0  0  0  0  0  0  0  0  0  0  0  0
   23.9147  -20.3897  -18.0191 N   0  0  0  0  0  0  0  0  0  0  0  0
   23.0806  -21.4912  -17.6623 C   0  0  1  0  0  0  0  0  0  0  0  0
   23.8254  -22.5981  -16.9592 C   0  0  0  0  0  0  0  0  0  0  0  0
   24.7210  -23.3881  -17.8405 C   0  0  0  0  0  0  0  0  0  0  0  0
   25.4001  -24.4546  -17.0101 C   0  0  0  0  0  0  0  0  0  0  0  0
   26.3611  -25.3001  -17.7836 C   0  0  0  0  0  0  0  0  0  0  0  0
   26.9684  -26.2427  -16.8319 N   0  0  0  0  0  0  0  0  0  0  0  0
   21.8210  -21.1047  -16.9873 C   0  0  0  0  0  0  0  0  0  0  0  0
   21.7417  -20.2330  -16.0809 O   0  0  0  0  0  0  0  0  0  0  0  0
   20.5853  -21.7179  -17.3371 N   0  0  0  0  0  0  0  0  0  0  0  0
   19.3338  -21.3827  -16.6988 C   0  0  1  0  0  0  0  0  0  0  0  0
   18.3296  -20.9246  -17.7057 C   0  0  0  0  0  0  0  0  0  0  0  0
   16.9993  -20.5347  -17.1679 C   0  0  0  0  0  0  0  0  0  0  0  0
   16.0397  -20.1192  -18.2166 C   0  0  0  0  0  0  0  0  0  0  0  0
   15.7907  -18.9132  -18.4632 O   0  0  0  0  0  0  0  0  0  0  0  0
   18.7713  -22.5978  -16.0498 C   0  0  0  0  0  0  0  0  0  0  0  0
   18.0794  -22.5676  -14.8605 O   0  0  0  0  0  0  0  0  0  0  0  0
   15.3758  -21.0742  -18.9709 O   0  0  0  0  0  0  0  0  0  0  0  0
   18.9311  -23.7074  -16.6071 O   0  0  0  0  0  0  0  0  0  0  0  0
  2  1  1  6
  2  3  1  0
  4  5  2  0
  4  2  1  0
  6  4  1  0
  7  6  1  0
  7  8  1  1
  9 10  1  0
  9  8  1  0
 10 11  1  0
 11 12  1  0
 13  7  1  0
 13 15  1  0
 14 13  2  0
 16 15  1  0
 16 21  1  0
 16 17  1  6
 18 17  1  0
 19 20  2  0
 19 18  1  0
 21 24  2  0
 21 22  1  0
 23 19  1  0
M  END
$$$$
