AKE.pdb
     RDKit          3D

 24 23  0  0  1  0  0  0  0  0999 V2000
   26.2745  -17.9153  -19.7381 C   0  0  0  0  0  0  0  0  0  0  0  0
   26.1470  -17.6731  -18.2532 C   0  0  2  0  0  0  0  0  0  0  0  0
   27.4642  -17.8507  -17.6598 N   0  0  0  0  0  0  0  0  0  0  0  0
   25.2129  -18.6341  -17.6144 C   0  0  0  0  0  0  0  0  0  0  0  0
   23.9905  -18.7140  -17.9754 O   0  0  0  0  0  0  0  0  0  0  0  0
   25.5980  -19.5125  -16.5826 N   0  0  0  0  0  0  0  0  0  0  0  0
   24.7853  -20.5301  -15.9990 C   0  0  1  0  0  0  0  0  0  0  0  0
   25.5530  -21.7830  -15.6597 C   0  0  0  0  0  0  0  0  0  0  0  0
   25.3471  -22.9029  -16.6117 C   0  0  0  0  0  0  0  0  0  0  0  0
   26.1810  -24.0815  -16.1607 C   0  0  0  0  0  0  0  0  0  0  0  0
   25.9779  -25.3138  -16.9835 C   0  0  0  0  0  0  0  0  0  0  0  0
   26.9261  -26.3233  -16.4890 N   0  0  0  0  0  0  0  0  0  0  0  0
   23.9140  -20.0550  -14.9005 C   0  0  0  0  0  0  0  0  0  0  0  0
   24.3153  -19.3635  -13.9266 O   0  0  0  0  0  0  0  0  0  0  0  0
   22.5248  -20.3637  -14.8826 N   0  0  0  0  0  0  0  0  0  0  0  0
   21.6310  -19.9021  -13.8461 C   0  0  1  0  0  0  0  0  0  0  0  0
   20.8405  -18.7233  -14.3123 C   0  0  0  0  0  0  0  0  0  0  0  0
   19.9900  -18.9428  -15.5120 C   0  0  0  0  0  0  0  0  0  0  0  0
   19.1866  -17.7570  -15.8884 C   0  0  0  0  0  0  0  0  0  0  0  0
   19.2064  -16.6908  -15.2249 O   0  0  0  0  0  0  0  0  0  0  0  0
   20.6541  -20.9772  -13.5240 C   0  0  0  0  0  0  0  0  0  0  0  0
   20.5291  -22.1311  -14.2637 O   0  0  0  0  0  0  0  0  0  0  0  0
   18.3724  -17.7947  -17.0098 O   0  0  0  0  0  0  0  0  0  0  0  0
   19.9045  -20.8328  -12.5318 O   0  0  0  0  0  0  0  0  0  0  0  0
  2  1  1  6
  2  3  1  0
  4  5  2  0
  4  2  1  0
  6  4  1  0
  7  6  1  0
  7  8  1  1
  9 10  1  0
  9  8  1  0
 10 11  1  0
 11 12  1  0
 13  7  1  0
 13 15  1  0
 14 13  2  0
 16 15  1  0
 16 21  1  0
 16 17  1  6
 18 17  1  0
 19 20  2  0
 19 18  1  0
 21 24  2  0
 21 22  1  0
 23 19  1  0
M  END
$$$$
