QMH.pdb
     RDKit          3D

 28 28  0  0  1  0  0  0  0  0999 V2000
   18.1915  -27.2042  -12.7060 N   0  0  0  0  0  0  0  0  0  0  0  0
   19.3135  -26.2942  -12.6560 C   0  0  0  0  0  0  0  0  0  0  0  0
   19.0392  -25.0934  -12.8847 O   0  0  0  0  0  0  0  0  0  0  0  0
   20.6517  -26.8180  -12.3542 C   0  0  0  0  0  0  0  0  0  0  0  0
   20.8005  -28.2808  -12.2426 C   0  0  0  0  0  0  0  0  0  0  0  0
   21.6434  -28.7788  -11.1205 C   0  0  2  0  0  0  0  0  0  0  0  0
   23.0504  -28.7959  -11.3957 N   0  0  0  0  0  0  0  0  0  0  0  0
   21.2351  -30.1792  -10.7578 C   0  0  0  0  0  0  0  0  0  0  0  0
   20.0879  -30.3739  -10.3024 O   0  0  0  0  0  0  0  0  0  0  0  0
   20.3814  -34.3445  -15.8067 C   0  0  0  0  0  0  0  0  0  0  0  0
   21.4433  -34.5514  -14.3518 S   0  0  0  0  0  0  0  0  0  0  0  0
   21.0257  -33.2934  -13.0795 C   0  0  0  0  0  0  0  0  0  0  0  0
   21.9845  -33.4740  -11.9416 C   0  0  0  0  0  0  0  0  0  0  0  0
   21.7028  -32.6784  -10.7095 C   0  0  2  0  0  0  0  0  0  0  0  0
   22.1074  -31.2770  -10.9163 N   0  0  0  0  0  0  0  0  0  0  0  0
   22.2943  -33.1876   -9.4624 C   0  0  0  0  0  0  0  0  0  0  0  0
   23.5303  -32.9297   -9.2396 O   0  0  0  0  0  0  0  0  0  0  0  0
   21.6516  -33.9349   -8.4629 N   0  0  0  0  0  0  0  0  0  0  0  0
   22.4277  -34.4537   -7.2902 C   0  0  1  0  0  0  0  0  0  0  0  0
   21.5776  -34.0961   -6.1131 C   0  0  0  0  0  0  0  0  0  0  0  0
   22.0259  -34.6494   -4.8237 C   0  0  0  0  0  0  0  0  0  0  0  0
   23.2486  -35.2672   -4.5568 C   0  0  0  0  0  0  0  0  0  0  0  0
   23.2515  -35.6186   -3.2787 N   0  0  0  0  0  0  0  0  0  0  0  0
   22.0953  -35.2539   -2.7298 C   0  0  0  0  0  0  0  0  0  0  0  0
   21.3603  -34.6697   -3.6668 N   0  0  0  0  0  0  0  0  0  0  0  0
   22.6148  -35.8990   -7.4545 C   0  0  0  0  0  0  0  0  0  0  0  0
   23.6861  -36.5466   -6.8775 O   0  0  0  0  0  0  0  0  0  0  0  0
   21.8173  -36.5830   -8.1161 O   0  0  0  0  0  0  0  0  0  0  0  0
  2  1  1  0
  2  3  2  0
  4  2  1  0
  5  4  1  0
  5  6  1  0
  6  7  1  6
  8  6  1  0
  8  9  2  0
 10 11  1  0
 11 12  1  0
 14 13  1  6
 13 12  1  0
 14 15  1  0
 15  8  1  0
 16 14  1  0
 17 16  2  0
 18 16  1  0
 19 18  1  0
 19 20  1  1
 20 21  1  0
 21 25  1  0
 21 22  2  0
 22 23  1  0
 24 23  1  0
 25 24  2  0
 26 19  1  0
 27 26  1  0
 28 26  2  0
M  END
$$$$
