QMH.pdb
     RDKit          3D

 28 28  0  0  1  0  0  0  0  0999 V2000
   17.6178  -14.1644  -19.3043 N   0  0  0  0  0  0  0  0  0  0  0  0
   16.9179  -15.0722  -18.4237 C   0  0  0  0  0  0  0  0  0  0  0  0
   16.1768  -15.9060  -18.9938 O   0  0  0  0  0  0  0  0  0  0  0  0
   17.1122  -14.9598  -16.9725 C   0  0  0  0  0  0  0  0  0  0  0  0
   18.0243  -13.9074  -16.4877 C   0  0  0  0  0  0  0  0  0  0  0  0
   19.4721  -14.2528  -16.4421 C   0  0  2  0  0  0  0  0  0  0  0  0
   19.7730  -15.4618  -15.7326 N   0  0  0  0  0  0  0  0  0  0  0  0
   20.2420  -13.1396  -15.7883 C   0  0  0  0  0  0  0  0  0  0  0  0
   20.1966  -13.0243  -14.5449 O   0  0  0  0  0  0  0  0  0  0  0  0
   27.0205   -9.3981  -15.6526 C   0  0  0  0  0  0  0  0  0  0  0  0
   25.8591  -10.6933  -16.1631 S   0  0  0  0  0  0  0  0  0  0  0  0
   24.1427  -10.2179  -15.7117 C   0  0  0  0  0  0  0  0  0  0  0  0
   23.2330  -11.2961  -16.2183 C   0  0  0  0  0  0  0  0  0  0  0  0
   21.7776  -11.1179  -15.9348 C   0  0  2  0  0  0  0  0  0  0  0  0
   21.0123  -12.2238  -16.5360 N   0  0  0  0  0  0  0  0  0  0  0  0
   21.1933   -9.8303  -16.3416 C   0  0  0  0  0  0  0  0  0  0  0  0
   21.0106   -9.6274  -17.5943 O   0  0  0  0  0  0  0  0  0  0  0  0
   20.7989   -8.7760  -15.5030 N   0  0  0  0  0  0  0  0  0  0  0  0
   20.2486   -7.5104  -16.0879 C   0  0  1  0  0  0  0  0  0  0  0  0
   19.1469   -7.1331  -15.1498 C   0  0  0  0  0  0  0  0  0  0  0  0
   17.8541   -7.7923  -15.4021 C   0  0  0  0  0  0  0  0  0  0  0  0
   17.5725   -8.7321  -16.3947 C   0  0  0  0  0  0  0  0  0  0  0  0
   16.2966   -9.0718  -16.2770 N   0  0  0  0  0  0  0  0  0  0  0  0
   15.7631   -8.3949  -15.2631 C   0  0  0  0  0  0  0  0  0  0  0  0
   16.7076   -7.6248  -14.7393 N   0  0  0  0  0  0  0  0  0  0  0  0
   21.3250   -6.5162  -16.1503 C   0  0  0  0  0  0  0  0  0  0  0  0
   21.2571   -5.4496  -17.0207 O   0  0  0  0  0  0  0  0  0  0  0  0
   22.3283   -6.6032  -15.4239 O   0  0  0  0  0  0  0  0  0  0  0  0
  2  1  1  0
  2  3  2  0
  4  2  1  0
  5  4  1  0
  5  6  1  0
  6  7  1  1
  8  6  1  0
  8  9  2  0
 10 11  1  0
 11 12  1  0
 14 13  1  6
 13 12  1  0
 14 15  1  0
 15  8  1  0
 16 14  1  0
 17 16  2  0
 18 16  1  0
 19 18  1  0
 19 20  1  1
 20 21  1  0
 21 25  1  0
 21 22  2  0
 22 23  1  0
 24 23  1  0
 25 24  2  0
 26 19  1  0
 27 26  1  0
 28 26  2  0
M  END
$$$$
