QMH.pdb
     RDKit          3D

 28 28  0  0  1  0  0  0  0  0999 V2000
   12.3503  -15.0562    4.9839 N   0  0  0  0  0  0  0  0  0  0  0  0
   12.0901  -13.6374    5.0780 C   0  0  0  0  0  0  0  0  0  0  0  0
   10.8795  -13.3162    5.1081 O   0  0  0  0  0  0  0  0  0  0  0  0
   13.2197  -12.7005    5.1274 C   0  0  0  0  0  0  0  0  0  0  0  0
   14.5753  -13.2606    4.9746 C   0  0  0  0  0  0  0  0  0  0  0  0
   15.7040  -12.2906    5.0252 C   0  0  2  0  0  0  0  0  0  0  0  0
   15.9503  -11.5999    3.7932 N   0  0  0  0  0  0  0  0  0  0  0  0
   16.9717  -13.0021    5.4076 C   0  0  0  0  0  0  0  0  0  0  0  0
   17.6580  -13.5355    4.5098 O   0  0  0  0  0  0  0  0  0  0  0  0
   22.1857   -9.6105    7.1022 C   0  0  0  0  0  0  0  0  0  0  0  0
   21.3164  -10.8658    8.0799 S   0  0  0  0  0  0  0  0  0  0  0  0
   20.2319  -11.8751    6.9931 C   0  0  0  0  0  0  0  0  0  0  0  0
   19.5572  -12.8954    7.8594 C   0  0  0  0  0  0  0  0  0  0  0  0
   18.6105  -13.8226    7.1706 C   0  0  2  0  0  0  0  0  0  0  0  0
   17.4078  -13.0848    6.7470 N   0  0  0  0  0  0  0  0  0  0  0  0
   18.2173  -15.0225    7.9257 C   0  0  0  0  0  0  0  0  0  0  0  0
   17.0139  -15.0838    8.3639 O   0  0  0  0  0  0  0  0  0  0  0  0
   19.0186  -16.1350    8.2265 N   0  0  0  0  0  0  0  0  0  0  0  0
   18.3938  -17.4798    8.4450 C   0  0  1  0  0  0  0  0  0  0  0  0
   17.7153  -17.7737    7.1452 C   0  0  0  0  0  0  0  0  0  0  0  0
   17.0502  -19.0857    7.0667 C   0  0  0  0  0  0  0  0  0  0  0  0
   17.0284  -20.0742    8.0518 C   0  0  0  0  0  0  0  0  0  0  0  0
   16.3236  -21.0942    7.5828 N   0  0  0  0  0  0  0  0  0  0  0  0
   15.9024  -20.7978    6.3557 C   0  0  0  0  0  0  0  0  0  0  0  0
   16.3439  -19.5849    6.0501 N   0  0  0  0  0  0  0  0  0  0  0  0
   19.4515  -18.4394    8.7787 C   0  0  0  0  0  0  0  0  0  0  0  0
   19.1651  -19.6048    9.4567 O   0  0  0  0  0  0  0  0  0  0  0  0
   20.6344  -18.2335    8.4625 O   0  0  0  0  0  0  0  0  0  0  0  0
  2  1  1  0
  2  3  2  0
  4  2  1  0
  5  4  1  0
  5  6  1  0
  6  7  1  6
  8  6  1  0
  8  9  2  0
 10 11  1  0
 11 12  1  0
 14 13  1  1
 13 12  1  0
 14 15  1  0
 15  8  1  0
 16 14  1  0
 17 16  2  0
 18 16  1  0
 19 18  1  0
 19 20  1  6
 20 21  1  0
 21 25  1  0
 21 22  2  0
 22 23  1  0
 24 23  1  0
 25 24  2  0
 26 19  1  0
 27 26  1  0
 28 26  2  0
M  END
$$$$
