QMH.pdb
     RDKit          3D

 28 28  0  0  1  0  0  0  0  0999 V2000
   27.7068  -16.1209  -14.4265 N   0  0  0  0  0  0  0  0  0  0  0  0
   27.9614  -16.2041  -15.8470 C   0  0  0  0  0  0  0  0  0  0  0  0
   28.6404  -15.2660  -16.3247 O   0  0  0  0  0  0  0  0  0  0  0  0
   27.4250  -17.3392  -16.6088 C   0  0  0  0  0  0  0  0  0  0  0  0
   26.7906  -18.4308  -15.8470 C   0  0  0  0  0  0  0  0  0  0  0  0
   27.7018  -19.3107  -15.0639 C   0  0  2  0  0  0  0  0  0  0  0  0
   28.6118  -20.0824  -15.8589 N   0  0  0  0  0  0  0  0  0  0  0  0
   26.8959  -20.2718  -14.2355 C   0  0  0  0  0  0  0  0  0  0  0  0
   26.5717  -21.3715  -14.7325 O   0  0  0  0  0  0  0  0  0  0  0  0
   26.2947  -19.1471   -8.0454 C   0  0  0  0  0  0  0  0  0  0  0  0
   25.4486  -20.7498   -7.9917 S   0  0  0  0  0  0  0  0  0  0  0  0
   24.9574  -21.2631   -9.6862 C   0  0  0  0  0  0  0  0  0  0  0  0
   25.8654  -20.5570  -10.6473 C   0  0  0  0  0  0  0  0  0  0  0  0
   25.6515  -20.8535  -12.0953 C   0  0  2  0  0  0  0  0  0  0  0  0
   26.4960  -19.9688  -12.9165 N   0  0  0  0  0  0  0  0  0  0  0  0
   24.2598  -20.7920  -12.5686 C   0  0  0  0  0  0  0  0  0  0  0  0
   23.7481  -19.6334  -12.7674 O   0  0  0  0  0  0  0  0  0  0  0  0
   23.4079  -21.8744  -12.8387 N   0  0  0  0  0  0  0  0  0  0  0  0
   21.9954  -21.6332  -13.2785 C   0  0  1  0  0  0  0  0  0  0  0  0
   21.5350  -22.9746  -13.7523 C   0  0  0  0  0  0  0  0  0  0  0  0
   20.1380  -23.0312  -14.2161 C   0  0  0  0  0  0  0  0  0  0  0  0
   19.1856  -22.0145  -14.1322 C   0  0  0  0  0  0  0  0  0  0  0  0
   18.0604  -22.4723  -14.6625 N   0  0  0  0  0  0  0  0  0  0  0  0
   18.2566  -23.7224  -15.0746 C   0  0  0  0  0  0  0  0  0  0  0  0
   19.5118  -24.0537  -14.8026 N   0  0  0  0  0  0  0  0  0  0  0  0
   21.2290  -21.1257  -12.1356 C   0  0  0  0  0  0  0  0  0  0  0  0
   20.1603  -20.2747  -12.3188 O   0  0  0  0  0  0  0  0  0  0  0  0
   21.5172  -21.4451  -10.9710 O   0  0  0  0  0  0  0  0  0  0  0  0
  2  1  1  0
  2  3  2  0
  4  2  1  0
  5  4  1  0
  5  6  1  0
  6  7  1  6
  8  6  1  0
  8  9  2  0
 10 11  1  0
 11 12  1  0
 14 13  1  1
 13 12  1  0
 14 15  1  0
 15  8  1  0
 16 14  1  0
 17 16  2  0
 18 16  1  0
 19 18  1  0
 19 20  1  1
 20 21  1  0
 21 25  1  0
 21 22  2  0
 22 23  1  0
 24 23  1  0
 25 24  2  0
 26 19  1  0
 27 26  1  0
 28 26  2  0
M  END
$$$$
