QMH.pdb
     RDKit          3D

 28 28  0  0  1  0  0  0  0  0999 V2000
   19.9791   -9.8514  -20.3024 N   0  0  0  0  0  0  0  0  0  0  0  0
   18.6735  -10.4641  -20.2052 C   0  0  0  0  0  0  0  0  0  0  0  0
   18.1897  -10.8673  -21.2882 O   0  0  0  0  0  0  0  0  0  0  0  0
   18.0232  -10.5674  -18.8927 C   0  0  0  0  0  0  0  0  0  0  0  0
   18.7424  -10.0119  -17.7314 C   0  0  0  0  0  0  0  0  0  0  0  0
   19.8051  -10.8689  -17.1366 C   0  0  2  0  0  0  0  0  0  0  0  0
   19.3229  -12.0628  -16.5062 N   0  0  0  0  0  0  0  0  0  0  0  0
   20.5717  -10.0892  -16.1052 C   0  0  0  0  0  0  0  0  0  0  0  0
   20.0818   -9.9556  -14.9634 O   0  0  0  0  0  0  0  0  0  0  0  0
   27.0030  -11.8922  -14.8781 C   0  0  0  0  0  0  0  0  0  0  0  0
   26.3310  -10.2923  -15.4035 S   0  0  0  0  0  0  0  0  0  0  0  0
   24.5211  -10.2335  -15.0929 C   0  0  0  0  0  0  0  0  0  0  0  0
   24.0292   -8.9007  -15.5708 C   0  0  0  0  0  0  0  0  0  0  0  0
   22.5623   -8.6534  -15.4394 C   0  0  2  0  0  0  0  0  0  0  0  0
   21.8249   -9.5056  -16.3882 N   0  0  0  0  0  0  0  0  0  0  0  0
   22.1272   -7.2555  -15.5850 C   0  0  0  0  0  0  0  0  0  0  0  0
   22.0828   -6.7650  -16.7687 O   0  0  0  0  0  0  0  0  0  0  0  0
   21.7420   -6.3767  -14.5605 N   0  0  0  0  0  0  0  0  0  0  0  0
   21.4382   -4.9419  -14.8699 C   0  0  1  0  0  0  0  0  0  0  0  0
   20.0256   -4.7690  -14.4107 C   0  0  0  0  0  0  0  0  0  0  0  0
   18.9954   -5.1630  -15.3870 C   0  0  0  0  0  0  0  0  0  0  0  0
   19.2068   -5.7116  -16.6528 C   0  0  0  0  0  0  0  0  0  0  0  0
   18.0197   -5.9199  -17.2045 N   0  0  0  0  0  0  0  0  0  0  0  0
   17.0749   -5.5308  -16.3519 C   0  0  0  0  0  0  0  0  0  0  0  0
   17.6698   -5.0752  -15.2574 N   0  0  0  0  0  0  0  0  0  0  0  0
   22.3923   -4.0945  -14.1470 C   0  0  0  0  0  0  0  0  0  0  0  0
   22.4572   -2.7379  -14.3821 O   0  0  0  0  0  0  0  0  0  0  0  0
   23.1693   -4.5702  -13.3034 O   0  0  0  0  0  0  0  0  0  0  0  0
  2  1  1  0
  2  3  2  0
  4  2  1  0
  5  4  1  0
  5  6  1  0
  6  7  1  1
  8  6  1  0
  8  9  2  0
 10 11  1  0
 11 12  1  0
 14 13  1  6
 13 12  1  0
 14 15  1  0
 15  8  1  0
 16 14  1  0
 17 16  2  0
 18 16  1  0
 19 18  1  0
 19 20  1  1
 20 21  1  0
 21 25  1  0
 21 22  2  0
 22 23  1  0
 24 23  1  0
 25 24  2  0
 26 19  1  0
 27 26  1  0
 28 26  2  0
M  END
$$$$
