QMH.pdb
     RDKit          3D

 28 28  0  0  1  0  0  0  0  0999 V2000
   19.2097  -18.4043  -14.1166 N   0  0  0  0  0  0  0  0  0  0  0  0
   20.1369  -18.8032  -15.1513 C   0  0  0  0  0  0  0  0  0  0  0  0
   20.0655  -20.0044  -15.4998 O   0  0  0  0  0  0  0  0  0  0  0  0
   21.0688  -17.8117  -15.7035 C   0  0  0  0  0  0  0  0  0  0  0  0
   21.0202  -16.4476  -15.1455 C   0  0  0  0  0  0  0  0  0  0  0  0
   21.1009  -15.3271  -16.1230 C   0  0  2  0  0  0  0  0  0  0  0  0
   21.7780  -15.6511  -17.3446 N   0  0  0  0  0  0  0  0  0  0  0  0
   21.8170  -14.1598  -15.5034 C   0  0  0  0  0  0  0  0  0  0  0  0
   21.4325  -13.7377  -14.3918 O   0  0  0  0  0  0  0  0  0  0  0  0
   28.2967  -13.2583  -15.1130 C   0  0  0  0  0  0  0  0  0  0  0  0
   27.6822  -11.7604  -15.9290 S   0  0  0  0  0  0  0  0  0  0  0  0
   25.9686  -11.3957  -15.3751 C   0  0  0  0  0  0  0  0  0  0  0  0
   25.0838  -12.4755  -15.9207 C   0  0  0  0  0  0  0  0  0  0  0  0
   23.6361  -12.3839  -15.5654 C   0  0  2  0  0  0  0  0  0  0  0  0
   22.9075  -13.5287  -16.1387 N   0  0  0  0  0  0  0  0  0  0  0  0
   22.9592  -11.1300  -15.9318 C   0  0  0  0  0  0  0  0  0  0  0  0
   22.5428  -11.0074  -17.1382 O   0  0  0  0  0  0  0  0  0  0  0  0
   22.7051  -10.0293  -15.0986 N   0  0  0  0  0  0  0  0  0  0  0  0
   21.8562   -8.8936  -15.5844 C   0  0  1  0  0  0  0  0  0  0  0  0
   20.5240   -9.5251  -15.8345 C   0  0  0  0  0  0  0  0  0  0  0  0
   19.4337   -8.5865  -16.1509 C   0  0  0  0  0  0  0  0  0  0  0  0
   19.4821   -7.5175  -17.0469 C   0  0  0  0  0  0  0  0  0  0  0  0
   18.2942   -6.9293  -17.0362 N   0  0  0  0  0  0  0  0  0  0  0  0
   17.5034   -7.5728  -16.1809 C   0  0  0  0  0  0  0  0  0  0  0  0
   18.1965   -8.5715  -15.6501 N   0  0  0  0  0  0  0  0  0  0  0  0
   21.8225   -7.8568  -14.5476 C   0  0  0  0  0  0  0  0  0  0  0  0
   22.0766   -8.1635  -13.2280 O   0  0  0  0  0  0  0  0  0  0  0  0
   21.5650   -6.6741  -14.8242 O   0  0  0  0  0  0  0  0  0  0  0  0
  2  1  1  0
  2  3  2  0
  4  2  1  0
  5  4  1  0
  5  6  1  0
  6  7  1  6
  8  6  1  0
  8  9  2  0
 10 11  1  0
 11 12  1  0
 14 13  1  6
 13 12  1  0
 14 15  1  0
 15  8  1  0
 16 14  1  0
 17 16  2  0
 18 16  1  0
 19 18  1  0
 19 20  1  1
 20 21  1  0
 21 25  1  0
 21 22  2  0
 22 23  1  0
 24 23  1  0
 25 24  2  0
 26 19  1  0
 27 26  1  0
 28 26  2  0
M  END
$$$$
