QMH.pdb
     RDKit          3D

 28 28  0  0  1  0  0  0  0  0999 V2000
   21.3232  -12.9785  -19.9582 N   0  0  0  0  0  0  0  0  0  0  0  0
   19.9034  -13.2479  -19.9241 C   0  0  0  0  0  0  0  0  0  0  0  0
   19.4911  -14.0560  -20.7880 O   0  0  0  0  0  0  0  0  0  0  0  0
   19.0683  -12.5794  -18.9180 C   0  0  0  0  0  0  0  0  0  0  0  0
   19.7497  -11.7299  -17.9238 C   0  0  0  0  0  0  0  0  0  0  0  0
   20.4191  -12.4346  -16.7956 C   0  0  2  0  0  0  0  0  0  0  0  0
   19.5224  -13.0783  -15.8807 N   0  0  0  0  0  0  0  0  0  0  0  0
   21.2503  -11.4615  -16.0073 C   0  0  0  0  0  0  0  0  0  0  0  0
   20.7239  -10.8574  -15.0484 O   0  0  0  0  0  0  0  0  0  0  0  0
   27.5901  -10.8845  -17.2988 C   0  0  0  0  0  0  0  0  0  0  0  0
   27.5580  -10.2887  -15.5868 S   0  0  0  0  0  0  0  0  0  0  0  0
   25.8833   -9.6601  -15.1669 C   0  0  0  0  0  0  0  0  0  0  0  0
   24.8880  -10.6172  -15.7499 C   0  0  0  0  0  0  0  0  0  0  0  0
   23.4488  -10.2574  -15.5786 C   0  0  2  0  0  0  0  0  0  0  0  0
   22.6039  -11.2112  -16.3178 N   0  0  0  0  0  0  0  0  0  0  0  0
   23.0795   -8.8805  -15.9426 C   0  0  0  0  0  0  0  0  0  0  0  0
   23.0013   -8.5939  -17.1898 O   0  0  0  0  0  0  0  0  0  0  0  0
   22.7917   -7.8209  -15.0681 N   0  0  0  0  0  0  0  0  0  0  0  0
   22.4641   -6.4621  -15.6091 C   0  0  1  0  0  0  0  0  0  0  0  0
   21.8745   -5.7439  -14.4375 C   0  0  0  0  0  0  0  0  0  0  0  0
   21.5046   -4.3394  -14.6833 C   0  0  0  0  0  0  0  0  0  0  0  0
   20.7614   -3.8441  -15.7557 C   0  0  0  0  0  0  0  0  0  0  0  0
   20.6550   -2.5321  -15.5998 N   0  0  0  0  0  0  0  0  0  0  0  0
   21.2922   -2.1782  -14.4863 C   0  0  0  0  0  0  0  0  0  0  0  0
   21.8026   -3.2729  -13.9380 N   0  0  0  0  0  0  0  0  0  0  0  0
   23.6982   -5.8461  -16.1076 C   0  0  0  0  0  0  0  0  0  0  0  0
   23.6956   -5.0734  -17.2490 O   0  0  0  0  0  0  0  0  0  0  0  0
   24.7809   -6.0005  -15.5197 O   0  0  0  0  0  0  0  0  0  0  0  0
  2  1  1  0
  2  3  2  0
  4  2  1  0
  5  4  1  0
  5  6  1  0
  6  7  1  1
  8  6  1  0
  8  9  2  0
 10 11  1  0
 11 12  1  0
 14 13  1  6
 13 12  1  0
 14 15  1  0
 15  8  1  0
 16 14  1  0
 17 16  2  0
 18 16  1  0
 19 18  1  0
 19 20  1  1
 20 21  1  0
 21 25  1  0
 21 22  2  0
 22 23  1  0
 24 23  1  0
 25 24  2  0
 26 19  1  0
 27 26  1  0
 28 26  2  0
M  END
$$$$
