QMH.pdb
     RDKit          3D

 28 28  0  0  1  0  0  0  0  0999 V2000
   32.4935  -24.5818  -15.0267 N   0  0  0  0  0  0  0  0  0  0  0  0
   32.0006  -25.3083  -16.1751 C   0  0  0  0  0  0  0  0  0  0  0  0
   30.8477  -24.9948  -16.5521 O   0  0  0  0  0  0  0  0  0  0  0  0
   32.8509  -26.3297  -16.7995 C   0  0  0  0  0  0  0  0  0  0  0  0
   34.1905  -26.5456  -16.2220 C   0  0  0  0  0  0  0  0  0  0  0  0
   35.3105  -26.7161  -17.1885 C   0  0  2  0  0  0  0  0  0  0  0  0
   35.3570  -25.7272  -18.2255 N   0  0  0  0  0  0  0  0  0  0  0  0
   35.2136  -28.0626  -17.8496 C   0  0  0  0  0  0  0  0  0  0  0  0
   35.5372  -28.1685  -19.0519 O   0  0  0  0  0  0  0  0  0  0  0  0
   38.8802  -33.9140  -19.5608 C   0  0  0  0  0  0  0  0  0  0  0  0
   38.4418  -32.3040  -18.8519 S   0  0  0  0  0  0  0  0  0  0  0  0
   36.6414  -32.2408  -18.4905 C   0  0  0  0  0  0  0  0  0  0  0  0
   36.3275  -30.8501  -18.0278 C   0  0  0  0  0  0  0  0  0  0  0  0
   34.9029  -30.5801  -17.6700 C   0  0  2  0  0  0  0  0  0  0  0  0
   34.7690  -29.2069  -17.1539 N   0  0  0  0  0  0  0  0  0  0  0  0
   34.2823  -31.5270  -16.7304 C   0  0  0  0  0  0  0  0  0  0  0  0
   34.3750  -31.2712  -15.4775 O   0  0  0  0  0  0  0  0  0  0  0  0
   33.5812  -32.7006  -17.0491 N   0  0  0  0  0  0  0  0  0  0  0  0
   32.2695  -33.0004  -16.3888 C   0  0  1  0  0  0  0  0  0  0  0  0
   31.4349  -31.7967  -16.6897 C   0  0  0  0  0  0  0  0  0  0  0  0
   30.0257  -31.8890  -16.2708 C   0  0  0  0  0  0  0  0  0  0  0  0
   29.3978  -32.9859  -15.6789 C   0  0  0  0  0  0  0  0  0  0  0  0
   28.1326  -32.6561  -15.4609 N   0  0  0  0  0  0  0  0  0  0  0  0
   27.9338  -31.4104  -15.8848 C   0  0  0  0  0  0  0  0  0  0  0  0
   29.0794  -30.9531  -16.3723 N   0  0  0  0  0  0  0  0  0  0  0  0
   31.7300  -34.2392  -16.9592 C   0  0  0  0  0  0  0  0  0  0  0  0
   30.9734  -35.1020  -16.1957 O   0  0  0  0  0  0  0  0  0  0  0  0
   31.9369  -34.5493  -18.1435 O   0  0  0  0  0  0  0  0  0  0  0  0
  2  1  1  0
  2  3  2  0
  4  2  1  0
  5  4  1  0
  5  6  1  0
  6  7  1  6
  8  6  1  0
  8  9  2  0
 10 11  1  0
 11 12  1  0
 14 13  1  1
 13 12  1  0
 14 15  1  0
 15  8  1  0
 16 14  1  0
 17 16  2  0
 18 16  1  0
 19 18  1  0
 19 20  1  6
 20 21  1  0
 21 25  1  0
 21 22  2  0
 22 23  1  0
 24 23  1  0
 25 24  2  0
 26 19  1  0
 27 26  1  0
 28 26  2  0
M  END
$$$$
