QMH.pdb
     RDKit          3D

 28 28  0  0  1  0  0  0  0  0999 V2000
   28.9368  -23.8159  -16.7528 N   0  0  0  0  0  0  0  0  0  0  0  0
   29.5675  -22.5316  -16.9586 C   0  0  0  0  0  0  0  0  0  0  0  0
   30.2795  -22.4435  -17.9857 O   0  0  0  0  0  0  0  0  0  0  0  0
   29.3428  -21.4555  -15.9850 C   0  0  0  0  0  0  0  0  0  0  0  0
   28.5133  -21.7668  -14.8063 C   0  0  0  0  0  0  0  0  0  0  0  0
   27.3602  -20.8606  -14.5479 C   0  0  2  0  0  0  0  0  0  0  0  0
   27.7250  -19.5226  -14.1844 N   0  0  0  0  0  0  0  0  0  0  0  0
   26.5124  -21.4170  -13.4384 C   0  0  0  0  0  0  0  0  0  0  0  0
   25.9993  -22.5474  -13.5805 O   0  0  0  0  0  0  0  0  0  0  0  0
   28.0724  -19.3724   -7.5722 C   0  0  0  0  0  0  0  0  0  0  0  0
   26.7857  -20.6496   -7.5824 S   0  0  0  0  0  0  0  0  0  0  0  0
   26.5864  -21.3337   -9.2760 C   0  0  0  0  0  0  0  0  0  0  0  0
   25.5022  -20.5483   -9.9500 C   0  0  0  0  0  0  0  0  0  0  0  0
   25.1493  -20.9691  -11.3388 C   0  0  2  0  0  0  0  0  0  0  0  0
   26.2800  -20.7016  -12.2444 N   0  0  0  0  0  0  0  0  0  0  0  0
   23.9177  -20.3886  -11.8963 C   0  0  0  0  0  0  0  0  0  0  0  0
   24.0278  -19.3299  -12.6110 O   0  0  0  0  0  0  0  0  0  0  0  0
   22.6081  -20.8687  -11.7396 N   0  0  0  0  0  0  0  0  0  0  0  0
   21.4719  -20.2173  -12.4687 C   0  0  1  0  0  0  0  0  0  0  0  0
   21.8017  -20.4349  -13.9109 C   0  0  0  0  0  0  0  0  0  0  0  0
   20.7818  -19.9676  -14.8656 C   0  0  0  0  0  0  0  0  0  0  0  0
   20.2389  -18.6847  -14.9503 C   0  0  0  0  0  0  0  0  0  0  0  0
   19.3581  -18.6850  -15.9408 N   0  0  0  0  0  0  0  0  0  0  0  0
   19.3197  -19.9003  -16.4818 C   0  0  0  0  0  0  0  0  0  0  0  0
   20.1808  -20.6694  -15.8288 N   0  0  0  0  0  0  0  0  0  0  0  0
   20.2201  -20.8598  -12.0552 C   0  0  0  0  0  0  0  0  0  0  0  0
   19.0113  -20.2107  -12.1872 O   0  0  0  0  0  0  0  0  0  0  0  0
   20.2089  -22.0047  -11.5748 O   0  0  0  0  0  0  0  0  0  0  0  0
  2  1  1  0
  2  3  2  0
  4  2  1  0
  5  4  1  0
  5  6  1  0
  6  7  1  1
  8  6  1  0
  8  9  2  0
 10 11  1  0
 11 12  1  0
 14 13  1  1
 13 12  1  0
 14 15  1  0
 15  8  1  0
 16 14  1  0
 17 16  2  0
 18 16  1  0
 19 18  1  0
 19 20  1  6
 20 21  1  0
 21 25  1  0
 21 22  2  0
 22 23  1  0
 24 23  1  0
 25 24  2  0
 26 19  1  0
 27 26  1  0
 28 26  2  0
M  END
$$$$
