QMH.pdb
     RDKit          3D

 28 28  0  0  1  0  0  0  0  0999 V2000
   29.3763   -6.9445  -19.2932 N   0  0  0  0  0  0  0  0  0  0  0  0
   29.1338   -8.1664  -18.5599 C   0  0  0  0  0  0  0  0  0  0  0  0
   27.9332   -8.3968  -18.2859 O   0  0  0  0  0  0  0  0  0  0  0  0
   30.2687   -9.0241  -18.1956 C   0  0  0  0  0  0  0  0  0  0  0  0
   31.6175   -8.5660  -18.5768 C   0  0  0  0  0  0  0  0  0  0  0  0
   32.7524   -9.4498  -18.1916 C   0  0  2  0  0  0  0  0  0  0  0  0
   32.4699  -10.8527  -18.2789 N   0  0  0  0  0  0  0  0  0  0  0  0
   33.1691   -9.1581  -16.7771 C   0  0  0  0  0  0  0  0  0  0  0  0
   32.3658   -9.3974  -15.8504 O   0  0  0  0  0  0  0  0  0  0  0  0
   38.0704  -11.2430  -13.0114 C   0  0  0  0  0  0  0  0  0  0  0  0
   37.3998  -11.7236  -14.6259 S   0  0  0  0  0  0  0  0  0  0  0  0
   36.7011  -10.2563  -15.4831 C   0  0  0  0  0  0  0  0  0  0  0  0
   35.5788   -9.7369  -14.6361 C   0  0  0  0  0  0  0  0  0  0  0  0
   34.9430   -8.4648  -15.0920 C   0  0  2  0  0  0  0  0  0  0  0  0
   34.4376   -8.6235  -16.4666 N   0  0  0  0  0  0  0  0  0  0  0  0
   35.7795   -7.2576  -15.0062 C   0  0  0  0  0  0  0  0  0  0  0  0
   36.5012   -6.9585  -16.0229 O   0  0  0  0  0  0  0  0  0  0  0  0
   35.8807   -6.3719  -13.9220 N   0  0  0  0  0  0  0  0  0  0  0  0
   36.7969   -5.1879  -13.9961 C   0  0  1  0  0  0  0  0  0  0  0  0
   36.0959   -4.1429  -13.1883 C   0  0  0  0  0  0  0  0  0  0  0  0
   34.9719   -3.4744  -13.8661 C   0  0  0  0  0  0  0  0  0  0  0  0
   34.5524   -3.6690  -15.1829 C   0  0  0  0  0  0  0  0  0  0  0  0
   33.5111   -2.8766  -15.3949 N   0  0  0  0  0  0  0  0  0  0  0  0
   33.2554   -2.1953  -14.2807 C   0  0  0  0  0  0  0  0  0  0  0  0
   34.1399   -2.5603  -13.3622 N   0  0  0  0  0  0  0  0  0  0  0  0
   38.1016   -5.5699  -13.4458 C   0  0  0  0  0  0  0  0  0  0  0  0
   38.2739   -6.7737  -12.7970 O   0  0  0  0  0  0  0  0  0  0  0  0
   39.0890   -4.8239  -13.5463 O   0  0  0  0  0  0  0  0  0  0  0  0
  2  1  1  0
  2  3  2  0
  4  2  1  0
  5  4  1  0
  5  6  1  0
  6  7  1  1
  8  6  1  0
  8  9  2  0
 10 11  1  0
 11 12  1  0
 14 13  1  6
 13 12  1  0
 14 15  1  0
 15  8  1  0
 16 14  1  0
 17 16  2  0
 18 16  1  0
 19 18  1  0
 19 20  1  1
 20 21  1  0
 21 25  1  0
 21 22  2  0
 22 23  1  0
 24 23  1  0
 25 24  2  0
 26 19  1  0
 27 26  1  0
 28 26  2  0
M  END
$$$$
