QMH.pdb
     RDKit          3D

 28 28  0  0  1  0  0  0  0  0999 V2000
   16.6270  -25.2075   -6.0592 N   0  0  0  0  0  0  0  0  0  0  0  0
   15.6208  -25.2722   -5.0235 C   0  0  0  0  0  0  0  0  0  0  0  0
   15.2838  -24.1688   -4.5351 O   0  0  0  0  0  0  0  0  0  0  0  0
   15.0817  -26.5786   -4.6247 C   0  0  0  0  0  0  0  0  0  0  0  0
   15.8566  -27.3645   -3.6467 C   0  0  0  0  0  0  0  0  0  0  0  0
   17.2347  -27.7566   -4.0526 C   0  0  2  0  0  0  0  0  0  0  0  0
   17.3042  -28.9470   -4.8486 N   0  0  0  0  0  0  0  0  0  0  0  0
   18.0830  -27.9773   -2.8316 C   0  0  0  0  0  0  0  0  0  0  0  0
   18.0824  -29.1047   -2.2926 O   0  0  0  0  0  0  0  0  0  0  0  0
   23.7128  -24.3667    1.5389 C   0  0  0  0  0  0  0  0  0  0  0  0
   22.7695  -24.6239    0.0121 S   0  0  0  0  0  0  0  0  0  0  0  0
   21.5193  -25.9481    0.2562 C   0  0  0  0  0  0  0  0  0  0  0  0
   20.8041  -26.1327   -1.0481 C   0  0  0  0  0  0  0  0  0  0  0  0
   19.6721  -27.1068   -1.0471 C   0  0  2  0  0  0  0  0  0  0  0  0
   18.8778  -26.9510   -2.2780 N   0  0  0  0  0  0  0  0  0  0  0  0
   18.7847  -27.0647    0.1257 C   0  0  0  0  0  0  0  0  0  0  0  0
   17.8776  -26.1591    0.1551 O   0  0  0  0  0  0  0  0  0  0  0  0
   18.8102  -27.9195    1.2388 N   0  0  0  0  0  0  0  0  0  0  0  0
   17.9408  -27.6392    2.4272 C   0  0  1  0  0  0  0  0  0  0  0  0
   17.6699  -28.9941    2.9990 C   0  0  0  0  0  0  0  0  0  0  0  0
   16.8141  -29.0100    4.1978 C   0  0  0  0  0  0  0  0  0  0  0  0
   16.1830  -27.9158    4.7912 C   0  0  0  0  0  0  0  0  0  0  0  0
   15.5119  -28.3606    5.8442 N   0  0  0  0  0  0  0  0  0  0  0  0
   15.6888  -29.6759    5.9426 C   0  0  0  0  0  0  0  0  0  0  0  0
   16.4752  -30.0617    4.9466 N   0  0  0  0  0  0  0  0  0  0  0  0
   18.6701  -26.7566    3.3437 C   0  0  0  0  0  0  0  0  0  0  0  0
   20.0438  -26.8141    3.4424 O   0  0  0  0  0  0  0  0  0  0  0  0
   18.0759  -25.9326    4.0575 O   0  0  0  0  0  0  0  0  0  0  0  0
  2  1  1  0
  2  3  2  0
  4  2  1  0
  5  4  1  0
  5  6  1  0
  6  7  1  1
  8  6  1  0
  8  9  2  0
 10 11  1  0
 11 12  1  0
 14 13  1  1
 13 12  1  0
 14 15  1  0
 15  8  1  0
 16 14  1  0
 17 16  2  0
 18 16  1  0
 19 18  1  0
 19 20  1  1
 20 21  1  0
 21 25  1  0
 21 22  2  0
 22 23  1  0
 24 23  1  0
 25 24  2  0
 26 19  1  0
 27 26  1  0
 28 26  2  0
M  END
$$$$
