QMH.pdb
     RDKit          3D

 28 28  0  0  1  0  0  0  0  0999 V2000
   16.8900  -14.3782  -15.5774 N   0  0  0  0  0  0  0  0  0  0  0  0
   17.3652  -15.0336  -16.7751 C   0  0  0  0  0  0  0  0  0  0  0  0
   16.5466  -15.8084  -17.3218 O   0  0  0  0  0  0  0  0  0  0  0  0
   18.7266  -14.7603  -17.2527 C   0  0  0  0  0  0  0  0  0  0  0  0
   19.5487  -13.8232  -16.4650 C   0  0  0  0  0  0  0  0  0  0  0  0
   20.8929  -13.4950  -17.0154 C   0  0  2  0  0  0  0  0  0  0  0  0
   21.8256  -14.5837  -16.9959 N   0  0  0  0  0  0  0  0  0  0  0  0
   21.5011  -12.3627  -16.2360 C   0  0  0  0  0  0  0  0  0  0  0  0
   21.6949  -12.5102  -15.0103 O   0  0  0  0  0  0  0  0  0  0  0  0
   23.7713   -7.1584  -19.2559 C   0  0  0  0  0  0  0  0  0  0  0  0
   24.6160   -6.9390  -17.6667 S   0  0  0  0  0  0  0  0  0  0  0  0
   23.7328   -7.8642  -16.3476 C   0  0  0  0  0  0  0  0  0  0  0  0
   23.1980   -9.1209  -16.9654 C   0  0  0  0  0  0  0  0  0  0  0  0
   22.3148   -9.9573  -16.0990 C   0  0  2  0  0  0  0  0  0  0  0  0
   21.8583  -11.1417  -16.8465 N   0  0  0  0  0  0  0  0  0  0  0  0
   21.1590   -9.2709  -15.5011 C   0  0  0  0  0  0  0  0  0  0  0  0
   20.1003   -9.1537  -16.2148 O   0  0  0  0  0  0  0  0  0  0  0  0
   21.0734   -8.7208  -14.2126 N   0  0  0  0  0  0  0  0  0  0  0  0
   19.8134   -8.0463  -13.7608 C   0  0  1  0  0  0  0  0  0  0  0  0
   19.4255   -8.8017  -12.5300 C   0  0  0  0  0  0  0  0  0  0  0  0
   18.3429   -8.1954  -11.7362 C   0  0  0  0  0  0  0  0  0  0  0  0
   17.6493   -7.0194  -12.0257 C   0  0  0  0  0  0  0  0  0  0  0  0
   16.7595   -6.8293  -11.0618 N   0  0  0  0  0  0  0  0  0  0  0  0
   16.8584   -7.8237  -10.1830 C   0  0  0  0  0  0  0  0  0  0  0  0
   17.8152   -8.6445  -10.5953 N   0  0  0  0  0  0  0  0  0  0  0  0
   20.1043   -6.6314  -13.5070 C   0  0  0  0  0  0  0  0  0  0  0  0
   19.1258   -5.6699  -13.6414 O   0  0  0  0  0  0  0  0  0  0  0  0
   21.2370   -6.2557  -13.1645 O   0  0  0  0  0  0  0  0  0  0  0  0
  2  1  1  0
  2  3  2  0
  4  2  1  0
  5  4  1  0
  5  6  1  0
  6  7  1  1
  8  6  1  0
  8  9  2  0
 10 11  1  0
 11 12  1  0
 14 13  1  6
 13 12  1  0
 14 15  1  0
 15  8  1  0
 16 14  1  0
 17 16  2  0
 18 16  1  0
 19 18  1  0
 19 20  1  1
 20 21  1  0
 21 25  1  0
 21 22  2  0
 22 23  1  0
 24 23  1  0
 25 24  2  0
 26 19  1  0
 27 26  1  0
 28 26  2  0
M  END
$$$$
