QMH.pdb
     RDKit          3D

 28 28  0  0  1  0  0  0  0  0999 V2000
  -63.5588  -17.1475   10.8627 N   0  0  0  0  0  0  0  0  0  0  0  0
  -62.5130  -17.6217   11.7407 C   0  0  0  0  0  0  0  0  0  0  0  0
  -62.0481  -18.7503   11.4584 O   0  0  0  0  0  0  0  0  0  0  0  0
  -62.0821  -16.7819   12.8656 C   0  0  0  0  0  0  0  0  0  0  0  0
  -60.6395  -16.5053   12.9947 C   0  0  0  0  0  0  0  0  0  0  0  0
  -60.2580  -15.3657   13.8741 C   0  0  2  0  0  0  0  0  0  0  0  0
  -59.4160  -14.3880   13.2490 N   0  0  0  0  0  0  0  0  0  0  0  0
  -59.5346  -15.8777   15.0882 C   0  0  0  0  0  0  0  0  0  0  0  0
  -58.7421  -15.1166   15.6834 O   0  0  0  0  0  0  0  0  0  0  0  0
  -62.2924  -13.8774   18.5705 C   0  0  0  0  0  0  0  0  0  0  0  0
  -61.8487  -15.2176   19.7081 S   0  0  0  0  0  0  0  0  0  0  0  0
  -61.6171  -16.7857   18.7790 C   0  0  0  0  0  0  0  0  0  0  0  0
  -61.1095  -16.4258   17.4153 C   0  0  0  0  0  0  0  0  0  0  0  0
  -60.8021  -17.5680   16.5036 C   0  0  2  0  0  0  0  0  0  0  0  0
  -59.7242  -17.1890   15.5738 N   0  0  0  0  0  0  0  0  0  0  0  0
  -61.9398  -18.1162   15.7487 C   0  0  0  0  0  0  0  0  0  0  0  0
  -63.0512  -18.2659   16.3700 O   0  0  0  0  0  0  0  0  0  0  0  0
  -61.9553  -18.4991   14.3984 N   0  0  0  0  0  0  0  0  0  0  0  0
  -62.5148  -19.8303   13.9965 C   0  0  1  0  0  0  0  0  0  0  0  0
  -61.3582  -20.5232   13.3499 C   0  0  0  0  0  0  0  0  0  0  0  0
  -61.7057  -21.7069   12.5449 C   0  0  0  0  0  0  0  0  0  0  0  0
  -62.8477  -22.4993   12.6700 C   0  0  0  0  0  0  0  0  0  0  0  0
  -62.7741  -23.4583   11.7579 N   0  0  0  0  0  0  0  0  0  0  0  0
  -61.6462  -23.3093   11.0673 C   0  0  0  0  0  0  0  0  0  0  0  0
  -61.0062  -22.2511   11.5468 N   0  0  0  0  0  0  0  0  0  0  0  0
  -63.0048  -20.5145   15.1977 C   0  0  0  0  0  0  0  0  0  0  0  0
  -62.8023  -21.8660   15.3775 O   0  0  0  0  0  0  0  0  0  0  0  0
  -63.6154  -19.9007   16.0876 O   0  0  0  0  0  0  0  0  0  0  0  0
  2  1  1  0
  2  3  2  0
  4  2  1  0
  5  4  1  0
  5  6  1  0
  6  7  1  6
  8  6  1  0
  8  9  2  0
 10 11  1  0
 11 12  1  0
 14 13  1  6
 13 12  1  0
 14 15  1  0
 15  8  1  0
 16 14  1  0
 17 16  2  0
 18 16  1  0
 19 18  1  0
 19 20  1  1
 20 21  1  0
 21 25  1  0
 21 22  2  0
 22 23  1  0
 24 23  1  0
 25 24  2  0
 26 19  1  0
 27 26  1  0
 28 26  2  0
M  END
$$$$
