QMH.pdb
     RDKit          3D

 28 28  0  0  1  0  0  0  0  0999 V2000
   19.3647  -17.5789  -16.0221 N   0  0  0  0  0  0  0  0  0  0  0  0
   17.9773  -17.6188  -16.4260 C   0  0  0  0  0  0  0  0  0  0  0  0
   17.4211  -18.7363  -16.3202 O   0  0  0  0  0  0  0  0  0  0  0  0
   17.3358  -16.3930  -16.9180 C   0  0  0  0  0  0  0  0  0  0  0  0
   18.1668  -15.1779  -17.0047 C   0  0  0  0  0  0  0  0  0  0  0  0
   18.0338  -14.2015  -15.8883 C   0  0  2  0  0  0  0  0  0  0  0  0
   16.8747  -14.3920  -15.0664 N   0  0  0  0  0  0  0  0  0  0  0  0
   17.9758  -12.8033  -16.4372 C   0  0  0  0  0  0  0  0  0  0  0  0
   18.8506  -12.4386  -17.2515 O   0  0  0  0  0  0  0  0  0  0  0  0
   12.6133   -7.2322  -18.0877 C   0  0  0  0  0  0  0  0  0  0  0  0
   13.1413   -8.8936  -17.5893 S   0  0  0  0  0  0  0  0  0  0  0  0
   14.9712   -8.9564  -17.4356 C   0  0  0  0  0  0  0  0  0  0  0  0
   15.3281  -10.3110  -16.9023 C   0  0  0  0  0  0  0  0  0  0  0  0
   16.7823  -10.5714  -16.6838 C   0  0  2  0  0  0  0  0  0  0  0  0
   16.9651  -11.8936  -16.0605 N   0  0  0  0  0  0  0  0  0  0  0  0
   17.5121   -9.5531  -15.9125 C   0  0  0  0  0  0  0  0  0  0  0  0
   17.4093   -9.5854  -14.6349 O   0  0  0  0  0  0  0  0  0  0  0  0
   18.3294   -8.5305  -16.4192 N   0  0  0  0  0  0  0  0  0  0  0  0
   18.9197   -7.5075  -15.4964 C   0  0  1  0  0  0  0  0  0  0  0  0
   20.1016   -6.9867  -16.2500 C   0  0  0  0  0  0  0  0  0  0  0  0
   20.7829   -5.8360  -15.6322 C   0  0  0  0  0  0  0  0  0  0  0  0
   21.1761   -5.7122  -14.2989 C   0  0  0  0  0  0  0  0  0  0  0  0
   21.7530   -4.5272  -14.1578 N   0  0  0  0  0  0  0  0  0  0  0  0
   21.7425   -3.9012  -15.3321 C   0  0  0  0  0  0  0  0  0  0  0  0
   21.1560   -4.6958  -16.2175 N   0  0  0  0  0  0  0  0  0  0  0  0
   17.9068   -6.4826  -15.2234 C   0  0  0  0  0  0  0  0  0  0  0  0
   17.8298   -5.8708  -13.9906 O   0  0  0  0  0  0  0  0  0  0  0  0
   17.0891   -6.1347  -16.0905 O   0  0  0  0  0  0  0  0  0  0  0  0
  2  1  1  0
  2  3  2  0
  4  2  1  0
  5  4  1  0
  5  6  1  0
  6  7  1  6
  8  6  1  0
  8  9  2  0
 10 11  1  0
 11 12  1  0
 14 13  1  1
 13 12  1  0
 14 15  1  0
 15  8  1  0
 16 14  1  0
 17 16  2  0
 18 16  1  0
 19 18  1  0
 19 20  1  6
 20 21  1  0
 21 25  1  0
 21 22  2  0
 22 23  1  0
 24 23  1  0
 25 24  2  0
 26 19  1  0
 27 26  1  0
 28 26  2  0
M  END
$$$$
