QMH.pdb
     RDKit          3D

 28 28  0  0  1  0  0  0  0  0999 V2000
   22.8949  -21.5488  -16.2960 N   0  0  0  0  0  0  0  0  0  0  0  0
   23.9240  -20.8592  -17.0410 C   0  0  0  0  0  0  0  0  0  0  0  0
   23.7914  -20.8852  -18.2865 O   0  0  0  0  0  0  0  0  0  0  0  0
   25.0179  -20.2004  -16.3161 C   0  0  0  0  0  0  0  0  0  0  0  0
   24.9903  -20.2592  -14.8429 C   0  0  0  0  0  0  0  0  0  0  0  0
   26.1814  -20.8585  -14.1799 C   0  0  2  0  0  0  0  0  0  0  0  0
   26.7137  -22.0126  -14.8435 N   0  0  0  0  0  0  0  0  0  0  0  0
   25.8336  -21.2635  -12.7747 C   0  0  0  0  0  0  0  0  0  0  0  0
   25.8046  -22.4792  -12.4873 O   0  0  0  0  0  0  0  0  0  0  0  0
   28.2505  -19.6304   -6.6579 C   0  0  0  0  0  0  0  0  0  0  0  0
   26.7412  -18.7213   -7.0853 S   0  0  0  0  0  0  0  0  0  0  0  0
   25.5819  -19.8142   -8.0004 C   0  0  0  0  0  0  0  0  0  0  0  0
   25.8831  -19.6615   -9.4607 C   0  0  0  0  0  0  0  0  0  0  0  0
   25.2554  -20.6647  -10.3717 C   0  0  2  0  0  0  0  0  0  0  0  0
   25.5397  -20.3132  -11.7738 N   0  0  0  0  0  0  0  0  0  0  0  0
   23.8108  -20.8813  -10.1968 C   0  0  0  0  0  0  0  0  0  0  0  0
   23.0118  -20.1913  -10.9242 O   0  0  0  0  0  0  0  0  0  0  0  0
   23.1890  -21.7764   -9.3121 N   0  0  0  0  0  0  0  0  0  0  0  0
   21.7000  -21.9469   -9.3317 C   0  0  1  0  0  0  0  0  0  0  0  0
   21.4219  -22.7951   -8.1320 C   0  0  0  0  0  0  0  0  0  0  0  0
   20.0063  -23.1460   -7.9256 C   0  0  0  0  0  0  0  0  0  0  0  0
   18.9109  -22.6671   -8.6458 C   0  0  0  0  0  0  0  0  0  0  0  0
   17.8214  -23.2307   -8.1434 N   0  0  0  0  0  0  0  0  0  0  0  0
   18.1755  -24.0377   -7.1462 C   0  0  0  0  0  0  0  0  0  0  0  0
   19.4947  -23.9823   -7.0198 N   0  0  0  0  0  0  0  0  0  0  0  0
   21.0757  -20.6215   -9.2639 C   0  0  0  0  0  0  0  0  0  0  0  0
   19.9151  -20.3470   -9.9550 O   0  0  0  0  0  0  0  0  0  0  0  0
   21.5707  -19.7077   -8.5846 O   0  0  0  0  0  0  0  0  0  0  0  0
  2  1  1  0
  2  3  2  0
  4  2  1  0
  5  4  1  0
  5  6  1  0
  6  7  1  6
  8  6  1  0
  8  9  2  0
 10 11  1  0
 11 12  1  0
 14 13  1  1
 13 12  1  0
 14 15  1  0
 15  8  1  0
 16 14  1  0
 17 16  2  0
 18 16  1  0
 19 18  1  0
 19 20  1  1
 20 21  1  0
 21 25  1  0
 21 22  2  0
 22 23  1  0
 24 23  1  0
 25 24  2  0
 26 19  1  0
 27 26  1  0
 28 26  2  0
M  END
$$$$
