QMH.pdb
     RDKit          3D

 28 28  0  0  1  0  0  0  0  0999 V2000
   19.8259  -12.0243  -20.6262 N   0  0  0  0  0  0  0  0  0  0  0  0
   18.9757  -12.9302  -19.8872 C   0  0  0  0  0  0  0  0  0  0  0  0
   18.1694  -13.5928  -20.5802 O   0  0  0  0  0  0  0  0  0  0  0  0
   19.1062  -13.0092  -18.4267 C   0  0  0  0  0  0  0  0  0  0  0  0
   20.1168  -12.1471  -17.7863 C   0  0  0  0  0  0  0  0  0  0  0  0
   21.0576  -12.8141  -16.8442 C   0  0  2  0  0  0  0  0  0  0  0  0
   20.4514  -13.7974  -15.9949 N   0  0  0  0  0  0  0  0  0  0  0  0
   21.7063  -11.7875  -15.9584 C   0  0  0  0  0  0  0  0  0  0  0  0
   21.1663  -11.5049  -14.8675 O   0  0  0  0  0  0  0  0  0  0  0  0
   28.5633  -12.4646  -15.5944 C   0  0  0  0  0  0  0  0  0  0  0  0
   27.5116  -11.0735  -16.0905 S   0  0  0  0  0  0  0  0  0  0  0  0
   25.8129  -11.2961  -15.4265 C   0  0  0  0  0  0  0  0  0  0  0  0
   25.0247  -10.0769  -15.7991 C   0  0  0  0  0  0  0  0  0  0  0  0
   23.5643  -10.1158  -15.4892 C   0  0  2  0  0  0  0  0  0  0  0  0
   22.9038  -11.1356  -16.3221 N   0  0  0  0  0  0  0  0  0  0  0  0
   22.8451   -8.8376  -15.6047 C   0  0  0  0  0  0  0  0  0  0  0  0
   22.5189   -8.4408  -16.7795 O   0  0  0  0  0  0  0  0  0  0  0  0
   22.4607   -7.9838  -14.5589 N   0  0  0  0  0  0  0  0  0  0  0  0
   21.7677   -6.6885  -14.8565 C   0  0  1  0  0  0  0  0  0  0  0  0
   20.6155   -6.6729  -13.9036 C   0  0  0  0  0  0  0  0  0  0  0  0
   19.4504   -7.4755  -14.3139 C   0  0  0  0  0  0  0  0  0  0  0  0
   19.3075   -8.2004  -15.4979 C   0  0  0  0  0  0  0  0  0  0  0  0
   18.1146   -8.7777  -15.4749 N   0  0  0  0  0  0  0  0  0  0  0  0
   17.5016   -8.4531  -14.3392 C   0  0  0  0  0  0  0  0  0  0  0  0
   18.3125   -7.6675  -13.6431 N   0  0  0  0  0  0  0  0  0  0  0  0
   22.7151   -5.5899  -14.6411 C   0  0  0  0  0  0  0  0  0  0  0  0
   24.0198   -5.8391  -14.2727 O   0  0  0  0  0  0  0  0  0  0  0  0
   22.3737   -4.4047  -14.7831 O   0  0  0  0  0  0  0  0  0  0  0  0
  2  1  1  0
  2  3  2  0
  4  2  1  0
  5  4  1  0
  5  6  1  0
  6  7  1  1
  8  6  1  0
  8  9  2  0
 10 11  1  0
 11 12  1  0
 14 13  1  6
 13 12  1  0
 14 15  1  0
 15  8  1  0
 16 14  1  0
 17 16  2  0
 18 16  1  0
 19 18  1  0
 19 20  1  1
 20 21  1  0
 21 25  1  0
 21 22  2  0
 22 23  1  0
 24 23  1  0
 25 24  2  0
 26 19  1  0
 27 26  1  0
 28 26  2  0
M  END
$$$$
