ATM.pdb
     RDKit          3D

 21 20  0  0  1  0  0  0  0  0999 V2000
   27.4286  -18.6945  -15.3296 C   0  0  0  0  0  0  0  0  0  0  0  0
   27.9717  -19.8785  -14.5580 C   0  0  2  0  0  0  0  0  0  0  0  0
   28.8452  -20.6224  -15.4280 N   0  0  0  0  0  0  0  0  0  0  0  0
   26.8639  -20.7206  -14.0309 C   0  0  0  0  0  0  0  0  0  0  0  0
   26.5912  -21.8317  -14.5568 O   0  0  0  0  0  0  0  0  0  0  0  0
   26.3968  -21.4689  -10.3217 C   0  0  0  0  0  0  0  0  0  0  0  0
   25.0268  -21.1231  -10.8674 C   0  0  1  0  0  0  0  0  0  0  0  0
   24.7637  -19.7960  -10.4952 O   0  0  0  0  0  0  0  0  0  0  0  0
   25.0232  -21.2044  -12.3842 C   0  0  2  0  0  0  0  0  0  0  0  0
   26.0534  -20.3371  -12.9211 N   0  0  0  0  0  0  0  0  0  0  0  0
   23.6832  -20.8662  -12.9259 C   0  0  0  0  0  0  0  0  0  0  0  0
   23.3901  -19.6703  -13.0880 O   0  0  0  0  0  0  0  0  0  0  0  0
   19.6203  -25.5000  -15.3269 C   0  0  0  0  0  0  0  0  0  0  0  0
   18.6976  -23.9847  -15.7706 S   0  0  0  0  0  0  0  0  0  0  0  0
   19.5036  -22.5226  -15.0637 C   0  0  0  0  0  0  0  0  0  0  0  0
   20.8152  -22.8297  -14.4146 C   0  0  0  0  0  0  0  0  0  0  0  0
   21.4235  -21.6150  -13.7660 C   0  0  2  0  0  0  0  0  0  0  0  0
   22.7349  -21.8479  -13.2618 N   0  0  0  0  0  0  0  0  0  0  0  0
   20.6015  -20.9877  -12.7350 C   0  0  0  0  0  0  0  0  0  0  0  0
   20.6963  -21.2008  -11.4955 O   0  0  0  0  0  0  0  0  0  0  0  0
   19.6235  -20.0756  -13.1048 O   0  0  0  0  0  0  0  0  0  0  0  0
  2  3  1  0
  2  1  1  6
  4  2  1  0
  5  4  2  0
  7  6  1  6
  7  8  1  0
  7  9  1  0
  9 11  1  0
  9 10  1  6
 10  4  1  0
 11 18  1  0
 12 11  2  0
 13 14  1  0
 15 14  1  0
 16 15  1  0
 17 16  1  1
 18 17  1  0
 19 21  1  0
 19 17  1  0
 20 19  2  0
M  END
$$$$
