ATM.pdb
     RDKit          3D

 21 20  0  0  1  0  0  0  0  0999 V2000
   11.8165  -11.7188  -12.0936 C   0  0  0  0  0  0  0  0  0  0  0  0
   13.1535  -12.4143  -12.2382 C   0  0  2  0  0  0  0  0  0  0  0  0
   13.0780  -13.6835  -11.5624 N   0  0  0  0  0  0  0  0  0  0  0  0
   14.2528  -11.5654  -11.7043 C   0  0  0  0  0  0  0  0  0  0  0  0
   14.4258  -11.4382  -10.4636 O   0  0  0  0  0  0  0  0  0  0  0  0
   18.5287   -9.1654  -12.4223 C   0  0  0  0  0  0  0  0  0  0  0  0
   17.3851   -9.9829  -12.9864 C   0  0  1  0  0  0  0  0  0  0  0  0
   17.8717  -11.2850  -13.1781 O   0  0  0  0  0  0  0  0  0  0  0  0
   16.2354  -10.0427  -11.9955 C   0  0  2  0  0  0  0  0  0  0  0  0
   15.1643  -10.8537  -12.5401 N   0  0  0  0  0  0  0  0  0  0  0  0
   15.7685   -8.6770  -11.6487 C   0  0  0  0  0  0  0  0  0  0  0  0
   15.1435   -8.0260  -12.5018 O   0  0  0  0  0  0  0  0  0  0  0  0
   13.3098   -6.8245   -5.8221 C   0  0  0  0  0  0  0  0  0  0  0  0
   14.3700   -5.3963   -6.2473 S   0  0  0  0  0  0  0  0  0  0  0  0
   14.8166   -5.4399   -8.0040 C   0  0  0  0  0  0  0  0  0  0  0  0
   15.3114   -6.7778   -8.4525 C   0  0  0  0  0  0  0  0  0  0  0  0
   15.5206   -6.8333   -9.9422 C   0  0  2  0  0  0  0  0  0  0  0  0
   16.0070   -8.0939  -10.3920 N   0  0  0  0  0  0  0  0  0  0  0  0
   16.3455   -5.7607  -10.4910 C   0  0  0  0  0  0  0  0  0  0  0  0
   17.6016   -5.7891  -10.6016 O   0  0  0  0  0  0  0  0  0  0  0  0
   15.7389   -4.5964  -10.9399 O   0  0  0  0  0  0  0  0  0  0  0  0
  2  3  1  0
  2  1  1  1
  4  2  1  0
  5  4  2  0
  7  6  1  1
  7  8  1  0
  7  9  1  0
  9 11  1  0
  9 10  1  6
 10  4  1  0
 11 18  1  0
 12 11  2  0
 13 14  1  0
 15 14  1  0
 16 15  1  0
 17 16  1  1
 18 17  1  0
 19 21  1  0
 19 17  1  0
 20 19  2  0
M  END
$$$$
