ATM.pdb
     RDKit          3D

 21 20  0  0  1  0  0  0  0  0999 V2000
   21.2874  -31.5771   -9.1971 C   0  0  0  0  0  0  0  0  0  0  0  0
   22.4786  -32.1056   -9.9678 C   0  0  2  0  0  0  0  0  0  0  0  0
   22.0030  -32.6660  -11.2061 N   0  0  0  0  0  0  0  0  0  0  0  0
   23.2322  -33.1027   -9.1602 C   0  0  0  0  0  0  0  0  0  0  0  0
   22.7380  -34.2321   -8.9041 O   0  0  0  0  0  0  0  0  0  0  0  0
   26.7231  -34.4005   -9.8890 C   0  0  0  0  0  0  0  0  0  0  0  0
   26.7076  -33.9192   -8.4529 C   0  0  1  0  0  0  0  0  0  0  0  0
   27.2213  -32.6134   -8.4560 O   0  0  0  0  0  0  0  0  0  0  0  0
   25.2846  -33.8724   -7.9237 C   0  0  2  0  0  0  0  0  0  0  0  0
   24.5343  -32.8544   -8.6325 N   0  0  0  0  0  0  0  0  0  0  0  0
   25.2760  -33.6402   -6.4576 C   0  0  0  0  0  0  0  0  0  0  0  0
   25.3074  -32.4715   -6.0389 O   0  0  0  0  0  0  0  0  0  0  0  0
   24.3107  -36.7642    0.7937 C   0  0  0  0  0  0  0  0  0  0  0  0
   24.3578  -37.1177   -1.0000 S   0  0  0  0  0  0  0  0  0  0  0  0
   25.0331  -35.7006   -1.9072 C   0  0  0  0  0  0  0  0  0  0  0  0
   24.9039  -35.8358   -3.3908 C   0  0  0  0  0  0  0  0  0  0  0  0
   25.2737  -34.5654   -4.1089 C   0  0  2  0  0  0  0  0  0  0  0  0
   25.2337  -34.6926   -5.5267 N   0  0  0  0  0  0  0  0  0  0  0  0
   26.5442  -33.9722   -3.7013 C   0  0  0  0  0  0  0  0  0  0  0  0
   27.6708  -34.2466   -4.1976 O   0  0  0  0  0  0  0  0  0  0  0  0
   26.5596  -33.0241   -2.6884 O   0  0  0  0  0  0  0  0  0  0  0  0
  2  3  1  0
  2  1  1  1
  4  2  1  0
  5  4  2  0
  7  6  1  6
  7  8  1  0
  7  9  1  0
  9 11  1  0
  9 10  1  6
 10  4  1  0
 11 18  1  0
 12 11  2  0
 13 14  1  0
 15 14  1  0
 16 15  1  0
 17 16  1  1
 18 17  1  0
 19 21  1  0
 19 17  1  0
 20 19  2  0
M  END
$$$$
