ATM.pdb
     RDKit          3D

 21 20  0  0  1  0  0  0  0  0999 V2000
   23.0983  -20.6706  -13.8634 C   0  0  0  0  0  0  0  0  0  0  0  0
   21.6884  -20.5673  -14.4055 C   0  0  2  0  0  0  0  0  0  0  0  0
   21.4328  -21.7249  -15.2229 N   0  0  0  0  0  0  0  0  0  0  0  0
   21.5038  -19.3002  -15.1637 C   0  0  0  0  0  0  0  0  0  0  0  0
   21.8863  -19.2018  -16.3593 O   0  0  0  0  0  0  0  0  0  0  0  0
   18.1963  -17.5689  -15.6393 C   0  0  0  0  0  0  0  0  0  0  0  0
   19.1709  -16.5197  -15.1455 C   0  0  1  0  0  0  0  0  0  0  0  0
   18.9815  -16.4086  -13.7597 O   0  0  0  0  0  0  0  0  0  0  0  0
   20.6016  -16.9626  -15.3990 C   0  0  2  0  0  0  0  0  0  0  0  0
   20.8963  -18.1375  -14.6026 N   0  0  0  0  0  0  0  0  0  0  0  0
   21.5518  -15.8570  -15.1195 C   0  0  0  0  0  0  0  0  0  0  0  0
   21.9901  -15.7251  -13.9650 O   0  0  0  0  0  0  0  0  0  0  0  0
   27.9816  -12.8844  -16.7937 C   0  0  0  0  0  0  0  0  0  0  0  0
   26.4292  -12.8115  -17.7577 S   0  0  0  0  0  0  0  0  0  0  0  0
   24.9957  -12.7774  -16.6481 C   0  0  0  0  0  0  0  0  0  0  0  0
   24.0763  -13.9412  -16.8385 C   0  0  0  0  0  0  0  0  0  0  0  0
   22.8758  -13.8676  -15.9332 C   0  0  2  0  0  0  0  0  0  0  0  0
   21.9735  -14.9549  -16.1116 N   0  0  0  0  0  0  0  0  0  0  0  0
   22.1438  -12.6050  -15.9783 C   0  0  0  0  0  0  0  0  0  0  0  0
   21.0674  -12.4069  -16.6051 O   0  0  0  0  0  0  0  0  0  0  0  0
   22.6371  -11.5065  -15.2890 O   0  0  0  0  0  0  0  0  0  0  0  0
  2  3  1  0
  2  1  1  6
  4  2  1  0
  5  4  2  0
  7  6  1  1
  7  8  1  0
  7  9  1  0
  9 11  1  0
  9 10  1  1
 10  4  1  0
 11 18  1  0
 12 11  2  0
 13 14  1  0
 15 14  1  0
 16 15  1  0
 17 16  1  6
 18 17  1  0
 19 21  1  0
 19 17  1  0
 20 19  2  0
M  END
$$$$
