ATM.pdb
     RDKit          3D

 21 20  0  0  1  0  0  0  0  0999 V2000
   25.0829  -23.4936  -13.7545 C   0  0  0  0  0  0  0  0  0  0  0  0
   25.3974  -22.0491  -14.0813 C   0  0  2  0  0  0  0  0  0  0  0  0
   26.3008  -21.5456  -13.0794 N   0  0  0  0  0  0  0  0  0  0  0  0
   24.1508  -21.2405  -14.1618 C   0  0  0  0  0  0  0  0  0  0  0  0
   23.5018  -20.9496  -13.1228 O   0  0  0  0  0  0  0  0  0  0  0  0
   20.9791  -18.4776  -16.8246 C   0  0  0  0  0  0  0  0  0  0  0  0
   22.2757  -19.2576  -16.7546 C   0  0  1  0  0  0  0  0  0  0  0  0
   23.3173  -18.3176  -16.7729 O   0  0  0  0  0  0  0  0  0  0  0  0
   22.3571  -20.0369  -15.4533 C   0  0  2  0  0  0  0  0  0  0  0  0
   23.6171  -20.7513  -15.3913 N   0  0  0  0  0  0  0  0  0  0  0  0
   21.1983  -20.9543  -15.3162 C   0  0  0  0  0  0  0  0  0  0  0  0
   21.2030  -22.0202  -15.9536 O   0  0  0  0  0  0  0  0  0  0  0  0
   18.7536  -25.9511  -12.1434 C   0  0  0  0  0  0  0  0  0  0  0  0
   17.9306  -24.4115  -11.5986 S   0  0  0  0  0  0  0  0  0  0  0  0
   17.8110  -23.2364  -12.9741 C   0  0  0  0  0  0  0  0  0  0  0  0
   19.0146  -22.3589  -13.1049 C   0  0  0  0  0  0  0  0  0  0  0  0
   18.9379  -21.4704  -14.3177 C   0  0  2  0  0  0  0  0  0  0  0  0
   20.0971  -20.6619  -14.4929 N   0  0  0  0  0  0  0  0  0  0  0  0
   17.7392  -20.6409  -14.4016 C   0  0  0  0  0  0  0  0  0  0  0  0
   16.6406  -20.9944  -14.9106 O   0  0  0  0  0  0  0  0  0  0  0  0
   17.7664  -19.3508  -13.8917 O   0  0  0  0  0  0  0  0  0  0  0  0
  2  3  1  0
  2  1  1  1
  4  2  1  0
  5  4  2  0
  7  6  1  1
  7  8  1  0
  7  9  1  0
  9 11  1  0
  9 10  1  6
 10  4  1  0
 11 18  1  0
 12 11  2  0
 13 14  1  0
 15 14  1  0
 16 15  1  0
 17 16  1  1
 18 17  1  0
 19 21  1  0
 19 17  1  0
 20 19  2  0
M  END
$$$$
