ATM.pdb
     RDKit          3D

 21 20  0  0  1  0  0  0  0  0999 V2000
   15.2869  -12.0941  -14.5532 C   0  0  0  0  0  0  0  0  0  0  0  0
   14.7680  -10.6843  -14.7414 C   0  0  2  0  0  0  0  0  0  0  0  0
   13.5728  -10.7459  -15.5422 N   0  0  0  0  0  0  0  0  0  0  0  0
   15.8063   -9.8157  -15.3592 C   0  0  0  0  0  0  0  0  0  0  0  0
   16.2974  -10.0968  -16.4840 O   0  0  0  0  0  0  0  0  0  0  0  0
   15.6318   -6.3011  -16.4347 C   0  0  0  0  0  0  0  0  0  0  0  0
   16.7965   -6.3730  -15.4690 C   0  0  1  0  0  0  0  0  0  0  0  0
   16.3077   -5.9845  -14.2124 O   0  0  0  0  0  0  0  0  0  0  0  0
   17.3110   -7.7982  -15.3626 C   0  0  2  0  0  0  0  0  0  0  0  0
   16.3058   -8.6336  -14.7354 N   0  0  0  0  0  0  0  0  0  0  0  0
   18.5979   -7.8391  -14.6240 C   0  0  0  0  0  0  0  0  0  0  0  0
   18.5760   -8.0406  -13.3987 O   0  0  0  0  0  0  0  0  0  0  0  0
   26.0417  -10.1421  -14.5345 C   0  0  0  0  0  0  0  0  0  0  0  0
   24.4967   -9.9781  -15.4992 S   0  0  0  0  0  0  0  0  0  0  0  0
   23.3942   -8.7631  -14.7275 C   0  0  0  0  0  0  0  0  0  0  0  0
   22.0088   -8.7850  -15.2896 C   0  0  0  0  0  0  0  0  0  0  0  0
   21.1208   -7.7538  -14.6459 C   0  0  2  0  0  0  0  0  0  0  0  0
   19.8389   -7.6586  -15.2590 N   0  0  0  0  0  0  0  0  0  0  0  0
   21.7089   -6.4233  -14.5202 C   0  0  0  0  0  0  0  0  0  0  0  0
   21.5468   -5.4734  -15.3339 O   0  0  0  0  0  0  0  0  0  0  0  0
   22.5193   -6.1367  -13.4310 O   0  0  0  0  0  0  0  0  0  0  0  0
  2  3  1  0
  2  1  1  6
  4  2  1  0
  5  4  2  0
  7  6  1  6
  7  8  1  0
  7  9  1  0
  9 11  1  0
  9 10  1  1
 10  4  1  0
 11 18  1  0
 12 11  2  0
 13 14  1  0
 15 14  1  0
 16 15  1  0
 17 16  1  6
 18 17  1  0
 19 21  1  0
 19 17  1  0
 20 19  2  0
M  END
$$$$
