ATM.pdb
     RDKit          3D

 21 20  0  0  1  0  0  0  0  0999 V2000
   17.1570  -13.0502  -18.3382 C   0  0  0  0  0  0  0  0  0  0  0  0
   18.2968  -12.9628  -19.3309 C   0  0  2  0  0  0  0  0  0  0  0  0
   18.7996  -14.2926  -19.5596 N   0  0  0  0  0  0  0  0  0  0  0  0
   19.3590  -12.0444  -18.8385 C   0  0  0  0  0  0  0  0  0  0  0  0
   20.3369  -12.4836  -18.1781 O   0  0  0  0  0  0  0  0  0  0  0  0
   20.7894   -9.0495  -20.9675 C   0  0  0  0  0  0  0  0  0  0  0  0
   20.5396   -8.5798  -19.5493 C   0  0  1  0  0  0  0  0  0  0  0  0
   19.3196   -7.8867  -19.5593 O   0  0  0  0  0  0  0  0  0  0  0  0
   20.4075   -9.7677  -18.6119 C   0  0  2  0  0  0  0  0  0  0  0  0
   19.3436  -10.6372  -19.0742 N   0  0  0  0  0  0  0  0  0  0  0  0
   20.1792   -9.3142  -17.2171 C   0  0  0  0  0  0  0  0  0  0  0  0
   19.0193   -9.3114  -16.7733 O   0  0  0  0  0  0  0  0  0  0  0  0
   22.3928   -9.6014   -9.7943 C   0  0  0  0  0  0  0  0  0  0  0  0
   22.7426  -10.0501  -11.5323 S   0  0  0  0  0  0  0  0  0  0  0  0
   21.7912   -8.9982  -12.6617 C   0  0  0  0  0  0  0  0  0  0  0  0
   21.9417   -9.3888  -14.0972 C   0  0  0  0  0  0  0  0  0  0  0  0
   21.1127   -8.5238  -15.0087 C   0  0  2  0  0  0  0  0  0  0  0  0
   21.2258   -8.8883  -16.3808 N   0  0  0  0  0  0  0  0  0  0  0  0
   21.3252   -7.0869  -14.8596 C   0  0  0  0  0  0  0  0  0  0  0  0
   22.0639   -6.3777  -15.5959 O   0  0  0  0  0  0  0  0  0  0  0  0
   20.6808   -6.4054  -13.8371 O   0  0  0  0  0  0  0  0  0  0  0  0
  2  3  1  0
  2  1  1  1
  4  2  1  0
  5  4  2  0
  7  6  1  6
  7  8  1  0
  7  9  1  0
  9 11  1  0
  9 10  1  6
 10  4  1  0
 11 18  1  0
 12 11  2  0
 13 14  1  0
 15 14  1  0
 16 15  1  0
 17 16  1  1
 18 17  1  0
 19 21  1  0
 19 17  1  0
 20 19  2  0
M  END
$$$$
