ATM.pdb
     RDKit          3D

 21 20  0  0  1  0  0  0  0  0999 V2000
   20.7457  -17.7616  -14.0492 C   0  0  0  0  0  0  0  0  0  0  0  0
   21.1404  -19.0690  -14.7027 C   0  0  2  0  0  0  0  0  0  0  0  0
   19.9439  -19.7194  -15.1706 N   0  0  0  0  0  0  0  0  0  0  0  0
   21.9040  -19.9256  -13.7554 C   0  0  0  0  0  0  0  0  0  0  0  0
   21.3264  -20.4998  -12.7951 O   0  0  0  0  0  0  0  0  0  0  0  0
   23.8197  -22.9257  -14.5984 C   0  0  0  0  0  0  0  0  0  0  0  0
   24.7786  -22.0792  -13.7870 C   0  0  1  0  0  0  0  0  0  0  0  0
   25.5998  -21.4038  -14.7026 O   0  0  0  0  0  0  0  0  0  0  0  0
   24.0177  -21.0461  -12.9740 C   0  0  2  0  0  0  0  0  0  0  0  0
   23.3087  -20.1499  -13.8660 N   0  0  0  0  0  0  0  0  0  0  0  0
   24.9352  -20.3087  -12.0696 C   0  0  0  0  0  0  0  0  0  0  0  0
   24.6714  -19.1289  -11.7854 O   0  0  0  0  0  0  0  0  0  0  0  0
   27.9033  -18.5503   -5.9657 C   0  0  0  0  0  0  0  0  0  0  0  0
   27.1261  -18.7350   -7.6108 S   0  0  0  0  0  0  0  0  0  0  0  0
   26.4641  -20.4106   -7.8139 C   0  0  0  0  0  0  0  0  0  0  0  0
   25.7599  -20.6112   -9.1177 C   0  0  0  0  0  0  0  0  0  0  0  0
   26.7062  -20.5501  -10.2870 C   0  0  2  0  0  0  0  0  0  0  0  0
   26.0900  -20.8953  -11.5236 N   0  0  0  0  0  0  0  0  0  0  0  0
   27.9428  -21.3089  -10.1219 C   0  0  0  0  0  0  0  0  0  0  0  0
   28.0191  -22.5607   -9.9882 O   0  0  0  0  0  0  0  0  0  0  0  0
   29.1569  -20.6375  -10.1050 O   0  0  0  0  0  0  0  0  0  0  0  0
  2  3  1  0
  2  1  1  1
  4  2  1  0
  5  4  2  0
  7  6  1  6
  7  8  1  0
  7  9  1  0
  9 11  1  0
  9 10  1  6
 10  4  1  0
 11 18  1  0
 12 11  2  0
 13 14  1  0
 15 14  1  0
 16 15  1  0
 17 16  1  1
 18 17  1  0
 19 21  1  0
 19 17  1  0
 20 19  2  0
M  END
$$$$
