ATM.pdb
     RDKit          3D

 21 20  0  0  1  0  0  0  0  0999 V2000
   17.5613  -11.8880  -18.0829 C   0  0  0  0  0  0  0  0  0  0  0  0
   18.7947  -11.0811  -18.4293 C   0  0  2  0  0  0  0  0  0  0  0  0
   19.6894  -11.9234  -19.1801 N   0  0  0  0  0  0  0  0  0  0  0  0
   19.4385  -10.5434  -17.2001 C   0  0  0  0  0  0  0  0  0  0  0  0
   18.7754   -9.8764  -16.3631 O   0  0  0  0  0  0  0  0  0  0  0  0
   23.3665  -10.2482  -14.1647 C   0  0  0  0  0  0  0  0  0  0  0  0
   22.6528  -10.9271  -15.3154 C   0  0  1  0  0  0  0  0  0  0  0  0
   22.1952  -12.1643  -14.8371 O   0  0  0  0  0  0  0  0  0  0  0  0
   21.4501  -10.1082  -15.7517 C   0  0  2  0  0  0  0  0  0  0  0  0
   20.8177  -10.7410  -16.8924 N   0  0  0  0  0  0  0  0  0  0  0  0
   21.8465   -8.7091  -16.0495 C   0  0  0  0  0  0  0  0  0  0  0  0
   22.3860   -8.4616  -17.1404 O   0  0  0  0  0  0  0  0  0  0  0  0
   20.3858   -1.5229  -17.6217 C   0  0  0  0  0  0  0  0  0  0  0  0
   19.9163   -3.2741  -17.3821 S   0  0  0  0  0  0  0  0  0  0  0  0
   21.1721   -4.1378  -16.4002 C   0  0  0  0  0  0  0  0  0  0  0  0
   20.8351   -5.5720  -16.1439 C   0  0  0  0  0  0  0  0  0  0  0  0
   21.9175   -6.2783  -15.3721 C   0  0  2  0  0  0  0  0  0  0  0  0
   21.6341   -7.6551  -15.1439 N   0  0  0  0  0  0  0  0  0  0  0  0
   22.3005   -5.6377  -14.1171 C   0  0  0  0  0  0  0  0  0  0  0  0
   22.0468   -6.0808  -12.9638 O   0  0  0  0  0  0  0  0  0  0  0  0
   23.0027   -4.4414  -14.1494 O   0  0  0  0  0  0  0  0  0  0  0  0
  2  3  1  0
  2  1  1  1
  4  2  1  0
  5  4  2  0
  7  6  1  1
  7  8  1  0
  7  9  1  0
  9 11  1  0
  9 10  1  6
 10  4  1  0
 11 18  1  0
 12 11  2  0
 13 14  1  0
 15 14  1  0
 16 15  1  0
 17 16  1  1
 18 17  1  0
 19 21  1  0
 19 17  1  0
 20 19  2  0
M  END
$$$$
