ATM.pdb
     RDKit          3D

 21 20  0  0  1  0  0  0  0  0999 V2000
   18.7914  -13.3723  -16.1719 C   0  0  0  0  0  0  0  0  0  0  0  0
   18.2728  -12.5334  -17.3206 C   0  0  2  0  0  0  0  0  0  0  0  0
   18.4822  -13.2636  -18.5439 N   0  0  0  0  0  0  0  0  0  0  0  0
   18.9381  -11.2026  -17.3474 C   0  0  0  0  0  0  0  0  0  0  0  0
   19.9791  -11.0150  -18.0303 O   0  0  0  0  0  0  0  0  0  0  0  0
   17.0410   -7.8474  -17.7188 C   0  0  0  0  0  0  0  0  0  0  0  0
   18.0621   -7.6801  -16.6125 C   0  0  1  0  0  0  0  0  0  0  0  0
   17.3701   -7.8034  -15.3981 O   0  0  0  0  0  0  0  0  0  0  0  0
   19.1061   -8.7811  -16.6823 C   0  0  2  0  0  0  0  0  0  0  0  0
   18.4550  -10.0748  -16.6190 N   0  0  0  0  0  0  0  0  0  0  0  0
   20.1135   -8.6199  -15.6042 C   0  0  0  0  0  0  0  0  0  0  0  0
   20.3273   -9.5754  -14.8401 O   0  0  0  0  0  0  0  0  0  0  0  0
   26.7972   -9.9466  -14.3499 C   0  0  0  0  0  0  0  0  0  0  0  0
   25.7068   -9.2591  -15.6471 S   0  0  0  0  0  0  0  0  0  0  0  0
   24.4997   -8.1179  -14.9205 C   0  0  0  0  0  0  0  0  0  0  0  0
   23.1198   -8.2930  -15.4693 C   0  0  0  0  0  0  0  0  0  0  0  0
   22.1455   -7.3122  -14.8735 C   0  0  2  0  0  0  0  0  0  0  0  0
   20.8338   -7.4275  -15.4160 N   0  0  0  0  0  0  0  0  0  0  0  0
   22.5739   -5.9167  -14.9080 C   0  0  0  0  0  0  0  0  0  0  0  0
   22.3480   -5.1064  -15.8477 O   0  0  0  0  0  0  0  0  0  0  0  0
   23.2911   -5.3977  -13.8396 O   0  0  0  0  0  0  0  0  0  0  0  0
  2  3  1  0
  2  1  1  1
  4  2  1  0
  5  4  2  0
  7  6  1  6
  7  8  1  0
  7  9  1  0
  9 11  1  0
  9 10  1  1
 10  4  1  0
 11 18  1  0
 12 11  2  0
 13 14  1  0
 15 14  1  0
 16 15  1  0
 17 16  1  6
 18 17  1  0
 19 21  1  0
 19 17  1  0
 20 19  2  0
M  END
$$$$
