ATM.pdb
     RDKit          3D

 21 20  0  0  1  0  0  0  0  0999 V2000
   28.7564  -18.0242  -14.6487 C   0  0  0  0  0  0  0  0  0  0  0  0
   27.5910  -18.9307  -14.9840 C   0  0  2  0  0  0  0  0  0  0  0  0
   26.9617  -18.4338  -16.1801 N   0  0  0  0  0  0  0  0  0  0  0  0
   26.6360  -19.0090  -13.8455 C   0  0  0  0  0  0  0  0  0  0  0  0
   25.9303  -18.0166  -13.5255 O   0  0  0  0  0  0  0  0  0  0  0  0
   23.6646  -20.7276  -13.5651 C   0  0  0  0  0  0  0  0  0  0  0  0
   24.3801  -21.1935  -12.3140 C   0  0  1  0  0  0  0  0  0  0  0  0
   24.9353  -22.4485  -12.6064 O   0  0  0  0  0  0  0  0  0  0  0  0
   25.5095  -20.2408  -11.9620 C   0  0  2  0  0  0  0  0  0  0  0  0
   26.4584  -20.1845  -13.0565 N   0  0  0  0  0  0  0  0  0  0  0  0
   26.1608  -20.6440  -10.6906 C   0  0  0  0  0  0  0  0  0  0  0  0
   27.0471  -21.5132  -10.7242 O   0  0  0  0  0  0  0  0  0  0  0  0
   30.0690  -19.6535   -4.9766 C   0  0  0  0  0  0  0  0  0  0  0  0
   28.3858  -18.9439   -5.0647 S   0  0  0  0  0  0  0  0  0  0  0  0
   27.2824  -20.0442   -5.9915 C   0  0  0  0  0  0  0  0  0  0  0  0
   27.0427  -19.5906   -7.3960 C   0  0  0  0  0  0  0  0  0  0  0  0
   26.1926  -20.5643   -8.1676 C   0  0  2  0  0  0  0  0  0  0  0  0
   25.8121  -20.0793   -9.4514 N   0  0  0  0  0  0  0  0  0  0  0  0
   25.0162  -21.0566   -7.4564 C   0  0  0  0  0  0  0  0  0  0  0  0
   25.0307  -21.6482   -6.3426 O   0  0  0  0  0  0  0  0  0  0  0  0
   23.7586  -20.8801   -8.0156 O   0  0  0  0  0  0  0  0  0  0  0  0
  2  3  1  0
  2  1  1  1
  4  2  1  0
  5  4  2  0
  7  6  1  6
  7  8  1  0
  7  9  1  0
  9 11  1  0
  9 10  1  6
 10  4  1  0
 11 18  1  0
 12 11  2  0
 13 14  1  0
 15 14  1  0
 16 15  1  0
 17 16  1  1
 18 17  1  0
 19 21  1  0
 19 17  1  0
 20 19  2  0
M  END
$$$$
