KLP.pdb
     RDKit          3D

 25 25  0  0  1  0  0  0  0  0999 V2000
    9.4347  -15.6620   20.4938 N   0  0  0  0  0  0  0  0  0  0  0  0
    8.9497  -16.3315   21.6360 C   0  0  1  0  0  0  0  0  0  0  0  0
    9.2795  -17.7705   21.7638 C   0  0  0  0  0  0  0  0  0  0  0  0
    8.8204  -18.5426   20.5730 C   0  0  0  0  0  0  0  0  0  0  0  0
    7.4135  -19.0083   20.5399 C   0  0  0  0  0  0  0  0  0  0  0  0
    7.0127  -19.8366   19.3648 C   0  0  0  0  0  0  0  0  0  0  0  0
    5.6452  -20.1874   19.2587 N   0  0  0  0  0  0  0  0  0  0  0  0
    9.2353  -15.5491   22.8673 C   0  0  0  0  0  0  0  0  0  0  0  0
   10.3717  -15.0192   23.0730 O   0  0  0  0  0  0  0  0  0  0  0  0
    7.4287  -11.9924   25.1013 C   0  0  0  0  0  0  0  0  0  0  0  0
    6.4655  -13.1333   25.0860 C   0  0  2  0  0  0  0  0  0  0  0  0
    5.2140  -12.7900   25.8707 C   0  0  0  0  0  0  0  0  0  0  0  0
    7.0620  -14.3618   25.7007 C   0  0  0  0  0  0  0  0  0  0  0  0
    8.3912  -14.7366   25.0767 C   0  0  2  0  0  0  0  0  0  0  0  0
    8.2047  -15.3990   23.8288 N   0  0  0  0  0  0  0  0  0  0  0  0
    9.1695  -15.4610   26.0609 C   0  0  0  0  0  0  0  0  0  0  0  0
    9.2206  -16.7439   25.8831 O   0  0  0  0  0  0  0  0  0  0  0  0
    9.8569  -14.9401   27.1666 N   0  0  0  0  0  0  0  0  0  0  0  0
    9.9006  -13.5530   27.5605 C   0  0  0  0  0  0  0  0  0  0  0  0
   11.0184  -13.4484   28.6018 C   0  0  0  0  0  0  0  0  0  0  0  0
   10.8577  -14.7790   29.2801 C   0  0  0  0  0  0  0  0  0  0  0  0
   10.6480  -15.7197   28.1259 C   0  0  1  0  0  0  0  0  0  0  0  0
    9.9255  -16.9405   28.5888 C   0  0  0  0  0  0  0  0  0  0  0  0
   10.6360  -17.8531   29.3204 O   0  0  0  0  0  0  0  0  0  0  0  0
    8.7308  -17.1456   28.3357 O   0  0  0  0  0  0  0  0  0  0  0  0
  2  1  1  6
  2  3  1  0
  4  5  1  0
  4  3  1  0
  6  5  1  0
  7  6  1  0
  8  2  1  0
  9  8  2  0
 11 10  1  1
 11 13  1  0
 12 11  1  0
 14 13  1  1
 14 15  1  0
 15  8  1  0
 16 14  1  0
 16 17  2  0
 18 16  1  0
 19 18  1  0
 20 19  1  0
 21 20  1  0
 21 22  1  0
 22 23  1  1
 22 18  1  0
 23 24  1  0
 25 23  2  0
M  END
$$$$
