KLP.pdb
     RDKit          3D

 25 25  0  0  1  0  0  0  0  0999 V2000
    9.4172  -15.5120   20.6392 N   0  0  0  0  0  0  0  0  0  0  0  0
    8.8057  -16.1702   21.7259 C   0  0  1  0  0  0  0  0  0  0  0  0
    8.9467  -17.6441   21.7861 C   0  0  0  0  0  0  0  0  0  0  0  0
    9.0660  -18.2363   20.4223 C   0  0  0  0  0  0  0  0  0  0  0  0
    9.0969  -19.7133   20.3003 C   0  0  0  0  0  0  0  0  0  0  0  0
    9.1002  -20.2680   18.9147 C   0  0  0  0  0  0  0  0  0  0  0  0
    9.1317  -21.6773   18.7837 N   0  0  0  0  0  0  0  0  0  0  0  0
    9.1365  -15.4929   23.0071 C   0  0  0  0  0  0  0  0  0  0  0  0
   10.2953  -15.0239   23.2345 O   0  0  0  0  0  0  0  0  0  0  0  0
    7.3012  -12.0046   25.2917 C   0  0  0  0  0  0  0  0  0  0  0  0
    6.3675  -13.1699   25.2947 C   0  0  2  0  0  0  0  0  0  0  0  0
    5.1207  -12.8570   26.0993 C   0  0  0  0  0  0  0  0  0  0  0  0
    7.0056  -14.3812   25.9018 C   0  0  0  0  0  0  0  0  0  0  0  0
    8.3267  -14.7314   25.2473 C   0  0  2  0  0  0  0  0  0  0  0  0
    8.1240  -15.3750   23.9921 N   0  0  0  0  0  0  0  0  0  0  0  0
    9.1306  -15.4635   26.2048 C   0  0  0  0  0  0  0  0  0  0  0  0
    9.1119  -16.7520   26.0647 O   0  0  0  0  0  0  0  0  0  0  0  0
    9.9084  -14.9446   27.2499 N   0  0  0  0  0  0  0  0  0  0  0  0
   10.0955  -13.5468   27.5533 C   0  0  0  0  0  0  0  0  0  0  0  0
   11.2606  -13.4858   28.5451 C   0  0  0  0  0  0  0  0  0  0  0  0
   11.0069  -14.7525   29.3115 C   0  0  0  0  0  0  0  0  0  0  0  0
   10.6640  -15.7365   28.2276 C   0  0  1  0  0  0  0  0  0  0  0  0
    9.8525  -16.8541   28.7925 C   0  0  0  0  0  0  0  0  0  0  0  0
   10.5036  -17.7768   29.5655 O   0  0  0  0  0  0  0  0  0  0  0  0
    8.6366  -16.9669   28.5865 O   0  0  0  0  0  0  0  0  0  0  0  0
  2  1  1  6
  2  3  1  0
  4  5  1  0
  4  3  1  0
  6  5  1  0
  7  6  1  0
  8  2  1  0
  9  8  2  0
 11 10  1  1
 11 13  1  0
 12 11  1  0
 14 13  1  1
 14 15  1  0
 15  8  1  0
 16 14  1  0
 16 17  2  0
 18 16  1  0
 19 18  1  0
 20 19  1  0
 21 20  1  0
 21 22  1  0
 22 23  1  1
 22 18  1  0
 23 24  1  0
 25 23  2  0
M  END
$$$$
