KLP.pdb
     RDKit          3D

 25 25  0  0  1  0  0  0  0  0999 V2000
    9.8628  -15.9609   20.6860 N   0  0  0  0  0  0  0  0  0  0  0  0
    9.1085  -16.4350   21.7789 C   0  0  1  0  0  0  0  0  0  0  0  0
    9.1136  -17.8977   22.0165 C   0  0  0  0  0  0  0  0  0  0  0  0
    8.8284  -18.6544   20.7631 C   0  0  0  0  0  0  0  0  0  0  0  0
    9.6816  -19.8230   20.4408 C   0  0  0  0  0  0  0  0  0  0  0  0
    8.9799  -21.0466   19.9533 C   0  0  0  0  0  0  0  0  0  0  0  0
    8.3183  -20.9571   18.7048 N   0  0  0  0  0  0  0  0  0  0  0  0
    9.3916  -15.6377   23.0012 C   0  0  0  0  0  0  0  0  0  0  0  0
   10.4910  -15.0196   23.1552 O   0  0  0  0  0  0  0  0  0  0  0  0
    7.5365  -12.1273   25.2153 C   0  0  0  0  0  0  0  0  0  0  0  0
    6.6192  -13.3053   25.1969 C   0  0  2  0  0  0  0  0  0  0  0  0
    5.3331  -12.9962   25.9387 C   0  0  0  0  0  0  0  0  0  0  0  0
    7.2450  -14.4969   25.8537 C   0  0  0  0  0  0  0  0  0  0  0  0
    8.5790  -14.8662   25.2369 C   0  0  2  0  0  0  0  0  0  0  0  0
    8.4013  -15.5747   24.0133 N   0  0  0  0  0  0  0  0  0  0  0  0
    9.3756  -15.5405   26.2419 C   0  0  0  0  0  0  0  0  0  0  0  0
    9.4772  -16.8239   26.0905 O   0  0  0  0  0  0  0  0  0  0  0  0
   10.0328  -14.9718   27.3423 N   0  0  0  0  0  0  0  0  0  0  0  0
    9.9910  -13.5826   27.7290 C   0  0  0  0  0  0  0  0  0  0  0  0
   11.1036  -13.4028   28.7656 C   0  0  0  0  0  0  0  0  0  0  0  0
   11.0286  -14.7372   29.4513 C   0  0  0  0  0  0  0  0  0  0  0  0
   10.8743  -15.6953   28.3027 C   0  0  1  0  0  0  0  0  0  0  0  0
   10.2311  -16.9564   28.7745 C   0  0  0  0  0  0  0  0  0  0  0  0
    8.9213  -17.1606   28.4345 O   0  0  0  0  0  0  0  0  0  0  0  0
   10.8346  -17.8021   29.4484 O   0  0  0  0  0  0  0  0  0  0  0  0
  2  1  1  6
  2  3  1  0
  4  5  1  0
  4  3  1  0
  6  5  1  0
  7  6  1  0
  8  2  1  0
  9  8  2  0
 11 10  1  1
 11 13  1  0
 12 11  1  0
 14 13  1  1
 14 15  1  0
 15  8  1  0
 16 14  1  0
 16 17  2  0
 18 16  1  0
 19 18  1  0
 20 19  1  0
 21 20  1  0
 21 22  1  0
 22 23  1  1
 22 18  1  0
 23 24  1  0
 25 23  2  0
M  END
$$$$
