KLP.pdb
     RDKit          3D

 25 25  0  0  1  0  0  0  0  0999 V2000
    8.3162  -17.7481   21.4441 N   0  0  0  0  0  0  0  0  0  0  0  0
    9.6465  -17.4164   21.7733 C   0  0  1  0  0  0  0  0  0  0  0  0
   10.5967  -17.2491   20.6486 C   0  0  0  0  0  0  0  0  0  0  0  0
    9.9037  -17.3427   19.3312 C   0  0  0  0  0  0  0  0  0  0  0  0
    9.5199  -16.0830   18.6505 C   0  0  0  0  0  0  0  0  0  0  0  0
   10.0182  -15.9002   17.2557 C   0  0  0  0  0  0  0  0  0  0  0  0
    9.0464  -15.7377   16.2391 N   0  0  0  0  0  0  0  0  0  0  0  0
    9.6850  -16.2964   22.7499 C   0  0  0  0  0  0  0  0  0  0  0  0
   10.6955  -15.5328   22.8505 O   0  0  0  0  0  0  0  0  0  0  0  0
    5.7809  -13.3067   26.4947 C   0  0  0  0  0  0  0  0  0  0  0  0
    7.1405  -13.5020   25.9088 C   0  0  2  0  0  0  0  0  0  0  0  0
    7.5972  -12.2513   25.1829 C   0  0  0  0  0  0  0  0  0  0  0  0
    7.1548  -14.6284   24.9219 C   0  0  0  0  0  0  0  0  0  0  0  0
    8.5509  -15.1599   24.6674 C   0  0  2  0  0  0  0  0  0  0  0  0
    8.5589  -16.0867   23.5849 N   0  0  0  0  0  0  0  0  0  0  0  0
    9.0867  -15.6538   25.9196 C   0  0  0  0  0  0  0  0  0  0  0  0
    8.8647  -16.9092   26.1537 O   0  0  0  0  0  0  0  0  0  0  0  0
    9.8011  -14.9382   26.8912 N   0  0  0  0  0  0  0  0  0  0  0  0
    9.9578  -13.5050   26.9432 C   0  0  0  0  0  0  0  0  0  0  0  0
   11.0663  -13.2418   27.9663 C   0  0  0  0  0  0  0  0  0  0  0  0
   10.7833  -14.3524   28.9373 C   0  0  0  0  0  0  0  0  0  0  0  0
   10.5097  -15.5239   28.0352 C   0  0  1  0  0  0  0  0  0  0  0  0
    9.6793  -16.5355   28.7520 C   0  0  0  0  0  0  0  0  0  0  0  0
   10.3162  -17.3550   29.6440 O   0  0  0  0  0  0  0  0  0  0  0  0
    8.4603  -16.6511   28.5668 O   0  0  0  0  0  0  0  0  0  0  0  0
  2  1  1  6
  2  3  1  0
  4  5  1  0
  4  3  1  0
  6  5  1  0
  7  6  1  0
  8  2  1  0
  9  8  2  0
 11 10  1  6
 11 13  1  0
 12 11  1  0
 14 13  1  1
 14 15  1  0
 15  8  1  0
 16 14  1  0
 16 17  2  0
 18 16  1  0
 19 18  1  0
 20 19  1  0
 21 20  1  0
 21 22  1  0
 22 23  1  1
 22 18  1  0
 23 24  1  0
 25 23  2  0
M  END
$$$$
