KLP.pdb
     RDKit          3D

 25 25  0  0  1  0  0  0  0  0999 V2000
    9.1734  -15.9396   20.4755 N   0  0  0  0  0  0  0  0  0  0  0  0
    9.5829  -16.6757   21.6062 C   0  0  1  0  0  0  0  0  0  0  0  0
   10.7720  -17.5458   21.4487 C   0  0  0  0  0  0  0  0  0  0  0  0
   10.6419  -18.4364   20.2592 C   0  0  0  0  0  0  0  0  0  0  0  0
   11.7600  -18.4741   19.2867 C   0  0  0  0  0  0  0  0  0  0  0  0
   11.6123  -19.4140   18.1369 C   0  0  0  0  0  0  0  0  0  0  0  0
   12.7190  -19.5448   17.2638 N   0  0  0  0  0  0  0  0  0  0  0  0
    9.6442  -15.8047   22.8092 C   0  0  0  0  0  0  0  0  0  0  0  0
   10.7300  -15.2638   23.1870 O   0  0  0  0  0  0  0  0  0  0  0  0
    5.5677  -13.1849   26.6931 C   0  0  0  0  0  0  0  0  0  0  0  0
    6.9514  -13.3623   26.1605 C   0  0  2  0  0  0  0  0  0  0  0  0
    7.4598  -12.0723   25.5463 C   0  0  0  0  0  0  0  0  0  0  0  0
    6.9984  -14.4179   25.0992 C   0  0  0  0  0  0  0  0  0  0  0  0
    8.4144  -14.8384   24.7607 C   0  0  2  0  0  0  0  0  0  0  0  0
    8.4535  -15.5810   23.5450 N   0  0  0  0  0  0  0  0  0  0  0  0
    8.9834  -15.4992   25.9177 C   0  0  0  0  0  0  0  0  0  0  0  0
    8.7993  -16.7815   25.9622 O   0  0  0  0  0  0  0  0  0  0  0  0
    9.6935  -14.9174   26.9776 N   0  0  0  0  0  0  0  0  0  0  0  0
    9.9079  -13.5052   27.1796 C   0  0  0  0  0  0  0  0  0  0  0  0
   10.9909  -13.3958   28.2566 C   0  0  0  0  0  0  0  0  0  0  0  0
   10.6290  -14.5843   29.1009 C   0  0  0  0  0  0  0  0  0  0  0  0
   10.3376  -15.6460   28.0767 C   0  0  1  0  0  0  0  0  0  0  0  0
    9.4419  -16.6860   28.6621 C   0  0  0  0  0  0  0  0  0  0  0  0
   10.0166  -17.6299   29.4695 O   0  0  0  0  0  0  0  0  0  0  0  0
    8.2235  -16.7180   28.4431 O   0  0  0  0  0  0  0  0  0  0  0  0
  2  1  1  6
  2  3  1  0
  4  5  1  0
  4  3  1  0
  6  5  1  0
  7  6  1  0
  8  2  1  0
  9  8  2  0
 11 10  1  6
 11 13  1  0
 12 11  1  0
 14 13  1  1
 14 15  1  0
 15  8  1  0
 16 14  1  0
 16 17  2  0
 18 16  1  0
 19 18  1  0
 20 19  1  0
 21 20  1  0
 21 22  1  0
 22 23  1  1
 22 18  1  0
 23 24  1  0
 25 23  2  0
M  END
$$$$
