KLP.pdb
     RDKit          3D

 25 25  0  0  1  0  0  0  0  0999 V2000
    9.5250  -16.3481   20.5538 N   0  0  0  0  0  0  0  0  0  0  0  0
    9.4099  -17.0069   21.7951 C   0  0  1  0  0  0  0  0  0  0  0  0
   10.2497  -18.2107   21.9989 C   0  0  0  0  0  0  0  0  0  0  0  0
    9.4389  -19.4603   21.9210 C   0  0  0  0  0  0  0  0  0  0  0  0
    9.6590  -20.5034   22.9510 C   0  0  0  0  0  0  0  0  0  0  0  0
    8.9634  -21.8068   22.7393 C   0  0  0  0  0  0  0  0  0  0  0  0
    9.7564  -22.9001   22.3149 N   0  0  0  0  0  0  0  0  0  0  0  0
    9.4889  -16.0355   22.9175 C   0  0  0  0  0  0  0  0  0  0  0  0
   10.5583  -15.3998   23.1762 O   0  0  0  0  0  0  0  0  0  0  0  0
    5.4773  -13.2021   26.6948 C   0  0  0  0  0  0  0  0  0  0  0  0
    6.8622  -13.3948   26.1708 C   0  0  2  0  0  0  0  0  0  0  0  0
    7.3915  -12.1086   25.5663 C   0  0  0  0  0  0  0  0  0  0  0  0
    6.9030  -14.4459   25.1048 C   0  0  0  0  0  0  0  0  0  0  0  0
    8.3085  -14.9426   24.8323 C   0  0  2  0  0  0  0  0  0  0  0  0
    8.3345  -15.8231   23.7121 N   0  0  0  0  0  0  0  0  0  0  0  0
    8.8500  -15.4791   26.0643 C   0  0  0  0  0  0  0  0  0  0  0  0
    8.6141  -16.7379   26.2643 O   0  0  0  0  0  0  0  0  0  0  0  0
    9.5829  -14.8009   27.0488 N   0  0  0  0  0  0  0  0  0  0  0  0
    9.6980  -13.3692   27.1837 C   0  0  0  0  0  0  0  0  0  0  0  0
   10.8404  -13.1325   28.1755 C   0  0  0  0  0  0  0  0  0  0  0  0
   10.6328  -14.3090   29.0859 C   0  0  0  0  0  0  0  0  0  0  0  0
   10.3569  -15.4316   28.1244 C   0  0  1  0  0  0  0  0  0  0  0  0
    9.5890  -16.5119   28.8099 C   0  0  0  0  0  0  0  0  0  0  0  0
   10.3050  -17.4573   29.4929 O   0  0  0  0  0  0  0  0  0  0  0  0
    8.3526  -16.5753   28.7785 O   0  0  0  0  0  0  0  0  0  0  0  0
  2  1  1  6
  2  3  1  0
  4  5  1  0
  4  3  1  0
  6  5  1  0
  7  6  1  0
  8  2  1  0
  9  8  2  0
 11 10  1  6
 11 13  1  0
 12 11  1  0
 14 13  1  1
 14 15  1  0
 15  8  1  0
 16 14  1  0
 16 17  2  0
 18 16  1  0
 19 18  1  0
 20 19  1  0
 21 20  1  0
 21 22  1  0
 22 23  1  1
 22 18  1  0
 23 24  1  0
 25 23  2  0
M  END
$$$$
