KLP.pdb
     RDKit          3D

 25 25  0  0  1  0  0  0  0  0999 V2000
   10.3765  -16.2062   20.6546 N   0  0  0  0  0  0  0  0  0  0  0  0
    9.5561  -16.6443   21.7144 C   0  0  1  0  0  0  0  0  0  0  0  0
    9.6572  -18.0721   22.0982 C   0  0  0  0  0  0  0  0  0  0  0  0
    9.5484  -18.9652   20.9085 C   0  0  0  0  0  0  0  0  0  0  0  0
    8.9029  -20.2882   21.0824 C   0  0  0  0  0  0  0  0  0  0  0  0
    8.7331  -21.1143   19.8512 C   0  0  0  0  0  0  0  0  0  0  0  0
    8.2124  -22.4203   20.0169 N   0  0  0  0  0  0  0  0  0  0  0  0
    9.6463  -15.7147   22.8708 C   0  0  0  0  0  0  0  0  0  0  0  0
   10.7490  -15.1889   23.2202 O   0  0  0  0  0  0  0  0  0  0  0  0
    5.6704  -13.0366   26.8251 C   0  0  0  0  0  0  0  0  0  0  0  0
    7.0521  -13.2078   26.2851 C   0  0  2  0  0  0  0  0  0  0  0  0
    7.6201  -11.8768   25.8315 C   0  0  0  0  0  0  0  0  0  0  0  0
    7.0688  -14.1319   25.1067 C   0  0  0  0  0  0  0  0  0  0  0  0
    8.4570  -14.6562   24.7994 C   0  0  2  0  0  0  0  0  0  0  0  0
    8.4643  -15.4164   23.5940 N   0  0  0  0  0  0  0  0  0  0  0  0
    8.9574  -15.3395   25.9748 C   0  0  0  0  0  0  0  0  0  0  0  0
    8.5891  -16.5772   26.0876 O   0  0  0  0  0  0  0  0  0  0  0  0
    9.7763  -14.8205   26.9878 N   0  0  0  0  0  0  0  0  0  0  0  0
   10.0516  -13.4240   27.2226 C   0  0  0  0  0  0  0  0  0  0  0  0
   11.2286  -13.3879   28.2015 C   0  0  0  0  0  0  0  0  0  0  0  0
   10.9061  -14.5989   29.0296 C   0  0  0  0  0  0  0  0  0  0  0  0
   10.4924  -15.6102   27.9966 C   0  0  1  0  0  0  0  0  0  0  0  0
    9.6202  -16.6478   28.6206 C   0  0  0  0  0  0  0  0  0  0  0  0
   10.2266  -17.5919   29.4040 O   0  0  0  0  0  0  0  0  0  0  0  0
    8.3935  -16.6775   28.4533 O   0  0  0  0  0  0  0  0  0  0  0  0
  2  1  1  6
  2  3  1  0
  4  5  1  0
  4  3  1  0
  6  5  1  0
  7  6  1  0
  8  2  1  0
  9  8  2  0
 11 10  1  6
 11 13  1  0
 12 11  1  0
 14 13  1  1
 14 15  1  0
 15  8  1  0
 16 14  1  0
 16 17  2  0
 18 16  1  0
 19 18  1  0
 20 19  1  0
 21 20  1  0
 21 22  1  0
 22 23  1  1
 22 18  1  0
 23 24  1  0
 25 23  2  0
M  END
$$$$
