KLP.pdb
     RDKit          3D

 25 25  0  0  1  0  0  0  0  0999 V2000
   10.4186  -16.0940   20.5001 N   0  0  0  0  0  0  0  0  0  0  0  0
    9.8644  -16.6983   21.6472 C   0  0  1  0  0  0  0  0  0  0  0  0
   10.3637  -18.0466   22.0058 C   0  0  0  0  0  0  0  0  0  0  0  0
   10.0574  -19.0427   20.9387 C   0  0  0  0  0  0  0  0  0  0  0  0
   10.4173  -20.4604   21.1796 C   0  0  0  0  0  0  0  0  0  0  0  0
   10.0557  -21.4319   20.1059 C   0  0  0  0  0  0  0  0  0  0  0  0
    8.7901  -22.0589   20.2023 N   0  0  0  0  0  0  0  0  0  0  0  0
    9.8546  -15.7491   22.7912 C   0  0  0  0  0  0  0  0  0  0  0  0
   10.8876  -15.0844   23.1159 O   0  0  0  0  0  0  0  0  0  0  0  0
    5.5955  -13.2125   26.5016 C   0  0  0  0  0  0  0  0  0  0  0  0
    7.0173  -13.3536   26.0679 C   0  0  2  0  0  0  0  0  0  0  0  0
    7.5918  -12.0092   25.6651 C   0  0  0  0  0  0  0  0  0  0  0  0
    7.1421  -14.2701   24.8900 C   0  0  0  0  0  0  0  0  0  0  0  0
    8.5573  -14.7756   24.6947 C   0  0  2  0  0  0  0  0  0  0  0  0
    8.6557  -15.5919   23.5308 N   0  0  0  0  0  0  0  0  0  0  0  0
    8.9971  -15.3902   25.9308 C   0  0  0  0  0  0  0  0  0  0  0  0
    8.6818  -16.6405   26.0638 O   0  0  0  0  0  0  0  0  0  0  0  0
    9.7083  -14.7942   26.9821 N   0  0  0  0  0  0  0  0  0  0  0  0
    9.8475  -13.3773   27.2147 C   0  0  0  0  0  0  0  0  0  0  0  0
   10.9586  -13.2313   28.2582 C   0  0  0  0  0  0  0  0  0  0  0  0
   10.6952  -14.4596   29.0817 C   0  0  0  0  0  0  0  0  0  0  0  0
   10.4308  -15.5108   28.0396 C   0  0  1  0  0  0  0  0  0  0  0  0
    9.6173  -16.6158   28.6260 C   0  0  0  0  0  0  0  0  0  0  0  0
   10.2908  -17.6308   29.2498 O   0  0  0  0  0  0  0  0  0  0  0  0
    8.3807  -16.6394   28.5652 O   0  0  0  0  0  0  0  0  0  0  0  0
  2  1  1  6
  2  3  1  0
  4  5  1  0
  4  3  1  0
  6  5  1  0
  7  6  1  0
  8  2  1  0
  9  8  2  0
 11 10  1  6
 11 13  1  0
 12 11  1  0
 14 13  1  1
 14 15  1  0
 15  8  1  0
 16 14  1  0
 16 17  2  0
 18 16  1  0
 19 18  1  0
 20 19  1  0
 21 20  1  0
 21 22  1  0
 22 23  1  1
 22 18  1  0
 23 24  1  0
 25 23  2  0
M  END
$$$$
