KLP.pdb
     RDKit          3D

 25 25  0  0  1  0  0  0  0  0999 V2000
    8.3216  -14.7239   20.3200 N   0  0  0  0  0  0  0  0  0  0  0  0
    8.4781  -15.6407   21.3798 C   0  0  1  0  0  0  0  0  0  0  0  0
    9.3216  -16.8312   21.1212 C   0  0  0  0  0  0  0  0  0  0  0  0
    8.5581  -18.0956   21.3293 C   0  0  0  0  0  0  0  0  0  0  0  0
    8.8316  -19.2364   20.4231 C   0  0  0  0  0  0  0  0  0  0  0  0
    8.0174  -20.4686   20.6376 C   0  0  0  0  0  0  0  0  0  0  0  0
    8.1784  -21.5195   19.7029 N   0  0  0  0  0  0  0  0  0  0  0  0
    8.8246  -14.9348   22.6413 C   0  0  0  0  0  0  0  0  0  0  0  0
    9.8196  -14.1481   22.7145 O   0  0  0  0  0  0  0  0  0  0  0  0
    7.3223  -11.7785   25.1930 C   0  0  0  0  0  0  0  0  0  0  0  0
    6.3476  -12.9096   25.1756 C   0  0  2  0  0  0  0  0  0  0  0  0
    5.1291  -12.5815   26.0166 C   0  0  0  0  0  0  0  0  0  0  0  0
    6.9537  -14.1631   25.7272 C   0  0  0  0  0  0  0  0  0  0  0  0
    8.2552  -14.5291   25.0425 C   0  0  2  0  0  0  0  0  0  0  0  0
    8.0162  -15.1549   23.7847 N   0  0  0  0  0  0  0  0  0  0  0  0
    9.0650  -15.2857   25.9756 C   0  0  0  0  0  0  0  0  0  0  0  0
    9.1028  -16.5630   25.7580 O   0  0  0  0  0  0  0  0  0  0  0  0
    9.7949  -14.8011   27.0704 N   0  0  0  0  0  0  0  0  0  0  0  0
    9.8476  -13.4291   27.5131 C   0  0  0  0  0  0  0  0  0  0  0  0
   11.0071  -13.3550   28.5105 C   0  0  0  0  0  0  0  0  0  0  0  0
   10.8817  -14.7106   29.1453 C   0  0  0  0  0  0  0  0  0  0  0  0
   10.6293  -15.6098   27.9668 C   0  0  1  0  0  0  0  0  0  0  0  0
    9.9331  -16.8516   28.4139 C   0  0  0  0  0  0  0  0  0  0  0  0
   10.6739  -17.7776   29.0971 O   0  0  0  0  0  0  0  0  0  0  0  0
    8.7336  -17.0624   28.1894 O   0  0  0  0  0  0  0  0  0  0  0  0
  2  1  1  6
  2  3  1  0
  4  5  1  0
  4  3  1  0
  6  5  1  0
  7  6  1  0
  8  2  1  0
  9  8  2  0
 11 10  1  1
 11 13  1  0
 12 11  1  0
 14 13  1  1
 14 15  1  0
 15  8  1  0
 16 14  1  0
 16 17  2  0
 18 16  1  0
 19 18  1  0
 20 19  1  0
 21 20  1  0
 21 22  1  0
 22 23  1  1
 22 18  1  0
 23 24  1  0
 25 23  2  0
M  END
$$$$
