KLP.pdb
     RDKit          3D

 25 25  0  0  1  0  0  0  0  0999 V2000
    7.5897  -16.0079   21.2569 N   0  0  0  0  0  0  0  0  0  0  0  0
    8.9649  -15.7107   21.3487 C   0  0  1  0  0  0  0  0  0  0  0  0
    9.5713  -14.9722   20.2160 C   0  0  0  0  0  0  0  0  0  0  0  0
    8.5275  -14.4118   19.3097 C   0  0  0  0  0  0  0  0  0  0  0  0
    8.5956  -12.9706   18.9695 C   0  0  0  0  0  0  0  0  0  0  0  0
    8.2182  -12.5961   17.5750 C   0  0  0  0  0  0  0  0  0  0  0  0
    8.8202  -13.3295   16.5243 N   0  0  0  0  0  0  0  0  0  0  0  0
    9.2912  -15.1267   22.6761 C   0  0  0  0  0  0  0  0  0  0  0  0
   10.3614  -14.4704   22.8719 O   0  0  0  0  0  0  0  0  0  0  0  0
    7.6515  -12.0538   25.4039 C   0  0  0  0  0  0  0  0  0  0  0  0
    6.6589  -13.1625   25.2808 C   0  0  2  0  0  0  0  0  0  0  0  0
    5.4436  -12.8939   26.1474 C   0  0  0  0  0  0  0  0  0  0  0  0
    7.2434  -14.4714   25.7146 C   0  0  0  0  0  0  0  0  0  0  0  0
    8.5696  -14.7662   25.0433 C   0  0  2  0  0  0  0  0  0  0  0  0
    8.3765  -15.3151   23.7425 N   0  0  0  0  0  0  0  0  0  0  0  0
    9.3718  -15.5643   25.9480 C   0  0  0  0  0  0  0  0  0  0  0  0
    9.5182  -16.8048   25.6016 O   0  0  0  0  0  0  0  0  0  0  0  0
    9.9920  -15.1543   27.1369 N   0  0  0  0  0  0  0  0  0  0  0  0
    9.9929  -13.8154   27.6740 C   0  0  0  0  0  0  0  0  0  0  0  0
   11.0529  -13.8082   28.7790 C   0  0  0  0  0  0  0  0  0  0  0  0
   10.8781  -15.2037   29.3064 C   0  0  0  0  0  0  0  0  0  0  0  0
   10.7442  -16.0213   28.0516 C   0  0  1  0  0  0  0  0  0  0  0  0
   10.0180  -17.2911   28.3463 C   0  0  0  0  0  0  0  0  0  0  0  0
   10.7149  -18.2817   28.9835 O   0  0  0  0  0  0  0  0  0  0  0  0
    8.8319  -17.4690   28.0380 O   0  0  0  0  0  0  0  0  0  0  0  0
  2  1  1  6
  2  3  1  0
  4  5  1  0
  4  3  1  0
  6  5  1  0
  7  6  1  0
  8  2  1  0
  9  8  2  0
 11 10  1  1
 11 13  1  0
 12 11  1  0
 14 13  1  1
 14 15  1  0
 15  8  1  0
 16 14  1  0
 16 17  2  0
 18 16  1  0
 19 18  1  0
 20 19  1  0
 21 20  1  0
 21 22  1  0
 22 23  1  1
 22 18  1  0
 23 24  1  0
 25 23  2  0
M  END
$$$$
