KLP.pdb
     RDKit          3D

 25 25  0  0  1  0  0  0  0  0999 V2000
   10.3791  -16.1782   20.7205 N   0  0  0  0  0  0  0  0  0  0  0  0
    9.2958  -16.4276   21.5879 C   0  0  1  0  0  0  0  0  0  0  0  0
    8.8879  -17.8409   21.7667 C   0  0  0  0  0  0  0  0  0  0  0  0
   10.0192  -18.7734   21.4922 C   0  0  0  0  0  0  0  0  0  0  0  0
   10.2879  -19.8555   22.4690 C   0  0  0  0  0  0  0  0  0  0  0  0
    9.4423  -21.0802   22.3569 C   0  0  0  0  0  0  0  0  0  0  0  0
    9.6825  -21.9315   21.2515 N   0  0  0  0  0  0  0  0  0  0  0  0
    9.4677  -15.6963   22.8707 C   0  0  0  0  0  0  0  0  0  0  0  0
   10.6109  -15.3163   23.2745 O   0  0  0  0  0  0  0  0  0  0  0  0
    5.6404  -12.9233   26.8924 C   0  0  0  0  0  0  0  0  0  0  0  0
    7.0022  -13.1173   26.3113 C   0  0  2  0  0  0  0  0  0  0  0  0
    7.5563  -11.8047   25.7919 C   0  0  0  0  0  0  0  0  0  0  0  0
    6.9764  -14.0821   25.1661 C   0  0  0  0  0  0  0  0  0  0  0  0
    8.3503  -14.6312   24.8382 C   0  0  2  0  0  0  0  0  0  0  0  0
    8.3183  -15.4233   23.6540 N   0  0  0  0  0  0  0  0  0  0  0  0
    8.8727  -15.2889   26.0187 C   0  0  0  0  0  0  0  0  0  0  0  0
    8.5508  -16.5389   26.1374 O   0  0  0  0  0  0  0  0  0  0  0  0
    9.6687  -14.7341   27.0311 N   0  0  0  0  0  0  0  0  0  0  0  0
    9.8475  -13.3267   27.2928 C   0  0  0  0  0  0  0  0  0  0  0  0
   11.0345  -13.2272   28.2550 C   0  0  0  0  0  0  0  0  0  0  0  0
   10.8124  -14.4753   29.0607 C   0  0  0  0  0  0  0  0  0  0  0  0
   10.4553  -15.4916   28.0116 C   0  0  1  0  0  0  0  0  0  0  0  0
    9.6693  -16.6019   28.6250 C   0  0  0  0  0  0  0  0  0  0  0  0
   10.3542  -17.5176   29.3768 O   0  0  0  0  0  0  0  0  0  0  0  0
    8.4451  -16.7148   28.4763 O   0  0  0  0  0  0  0  0  0  0  0  0
  2  1  1  1
  2  3  1  0
  4  5  1  0
  4  3  1  0
  6  5  1  0
  7  6  1  0
  8  2  1  0
  9  8  2  0
 11 10  1  6
 11 13  1  0
 12 11  1  0
 14 13  1  1
 14 15  1  0
 15  8  1  0
 16 14  1  0
 16 17  2  0
 18 16  1  0
 19 18  1  0
 20 19  1  0
 21 20  1  0
 21 22  1  0
 22 23  1  1
 22 18  1  0
 23 24  1  0
 25 23  2  0
M  END
$$$$
