LAQ.pdb
     RDKit          3D

 23 22  0  0  1  0  0  0  0  0999 V2000
    6.1053  -14.5156   18.1943 C   0  0  0  0  0  0  0  0  0  0  0  0
    7.5973  -14.7966   18.0184 C   0  0  2  0  0  0  0  0  0  0  0  0
    7.7959  -16.1124   17.2981 C   0  0  0  0  0  0  0  0  0  0  0  0
    8.2069  -14.8465   19.4049 C   0  0  0  0  0  0  0  0  0  0  0  0
    7.9361  -13.5160   20.0839 C   0  0  2  0  0  0  0  0  0  0  0  0
    8.5707  -12.4631   19.3484 N   0  0  0  0  0  0  0  0  0  0  0  0
    8.4350  -13.6334   21.4746 C   0  0  0  0  0  0  0  0  0  0  0  0
    9.6850  -13.5598   21.6366 O   0  0  0  0  0  0  0  0  0  0  0  0
    7.0891  -13.9596   24.9420 C   0  0  0  0  0  0  0  0  0  0  0  0
    8.1883  -13.9988   23.8845 C   0  0  2  0  0  0  0  0  0  0  0  0
    7.5874  -13.8201   22.6006 N   0  0  0  0  0  0  0  0  0  0  0  0
    8.8457  -15.3385   24.0207 C   0  0  0  0  0  0  0  0  0  0  0  0
    8.3032  -16.3204   23.4664 O   0  0  0  0  0  0  0  0  0  0  0  0
   15.3077  -18.4050   23.6707 N   0  0  0  0  0  0  0  0  0  0  0  0
   14.4813  -17.3537   24.1457 C   0  0  0  0  0  0  0  0  0  0  0  0
   14.9160  -16.1952   24.1632 O   0  0  0  0  0  0  0  0  0  0  0  0
   13.1229  -17.6732   24.6078 C   0  0  0  0  0  0  0  0  0  0  0  0
   12.2083  -16.5092   24.5532 C   0  0  0  0  0  0  0  0  0  0  0  0
   10.7868  -16.7352   24.8859 C   0  0  2  0  0  0  0  0  0  0  0  0
   10.0501  -15.5073   24.7541 N   0  0  0  0  0  0  0  0  0  0  0  0
   10.5423  -17.4178   26.1845 C   0  0  0  0  0  0  0  0  0  0  0  0
   10.8935  -18.7474   26.2983 O   0  0  0  0  0  0  0  0  0  0  0  0
   10.0419  -16.8554   27.1708 O   0  0  0  0  0  0  0  0  0  0  0  0
  2  1  1  1
  2  3  1  0
  4  2  1  0
  5  4  1  0
  5  6  1  6
  7  8  2  0
  7  5  1  0
 10  9  1  1
 10 12  1  0
 10 11  1  0
 11  7  1  0
 12 20  1  0
 13 12  2  0
 15 14  1  0
 16 15  2  0
 17 15  1  0
 18 17  1  0
 19 18  1  1
 20 19  1  0
 21 22  1  0
 21 19  1  0
 23 21  2  0
M  END
$$$$
