LAQ.pdb
     RDKit          3D

 23 22  0  0  1  0  0  0  0  0999 V2000
    5.8187  -11.8751   25.4858 C   0  0  0  0  0  0  0  0  0  0  0  0
    6.4063  -12.6873   26.6394 C   0  0  2  0  0  0  0  0  0  0  0  0
    7.2410  -11.7937   27.5306 C   0  0  0  0  0  0  0  0  0  0  0  0
    7.2585  -13.7797   26.0254 C   0  0  0  0  0  0  0  0  0  0  0  0
    6.3613  -14.6394   25.1534 C   0  0  2  0  0  0  0  0  0  0  0  0
    5.5180  -15.4484   25.9820 N   0  0  0  0  0  0  0  0  0  0  0  0
    7.2506  -15.4381   24.2772 C   0  0  0  0  0  0  0  0  0  0  0  0
    7.7612  -16.4763   24.7827 O   0  0  0  0  0  0  0  0  0  0  0  0
    8.5636  -15.3679   20.7772 C   0  0  0  0  0  0  0  0  0  0  0  0
    8.4671  -15.9043   22.2024 C   0  0  2  0  0  0  0  0  0  0  0  0
    7.5433  -15.0923   22.9296 N   0  0  0  0  0  0  0  0  0  0  0  0
    9.8531  -15.8299   22.7671 C   0  0  0  0  0  0  0  0  0  0  0  0
   10.4478  -14.7297   22.7269 O   0  0  0  0  0  0  0  0  0  0  0  0
   11.8362  -19.3465   27.3289 N   0  0  0  0  0  0  0  0  0  0  0  0
   11.0742  -18.1513   27.3955 C   0  0  0  0  0  0  0  0  0  0  0  0
   10.4539  -17.8792   28.4312 O   0  0  0  0  0  0  0  0  0  0  0  0
   11.0422  -17.2645   26.2236 C   0  0  0  0  0  0  0  0  0  0  0  0
   11.8812  -17.7571   25.1065 C   0  0  0  0  0  0  0  0  0  0  0  0
   11.8375  -17.0108   23.8325 C   0  0  2  0  0  0  0  0  0  0  0  0
   10.4889  -16.9656   23.3354 N   0  0  0  0  0  0  0  0  0  0  0  0
   12.8162  -17.4562   22.8049 C   0  0  0  0  0  0  0  0  0  0  0  0
   14.1609  -17.3275   23.0864 O   0  0  0  0  0  0  0  0  0  0  0  0
   12.4883  -17.9392   21.7101 O   0  0  0  0  0  0  0  0  0  0  0  0
  2  1  1  6
  2  3  1  0
  4  2  1  0
  5  4  1  0
  5  6  1  1
  7  8  2  0
  7  5  1  0
 10  9  1  6
 10 12  1  0
 10 11  1  0
 11  7  1  0
 12 20  1  0
 13 12  2  0
 15 14  1  0
 16 15  2  0
 17 15  1  0
 18 17  1  0
 19 18  1  1
 20 19  1  0
 21 22  1  0
 21 19  1  0
 23 21  2  0
M  END
$$$$
