LAQ.pdb
     RDKit          3D

 23 22  0  0  1  0  0  0  0  0999 V2000
    9.6959  -13.5074   18.7767 C   0  0  0  0  0  0  0  0  0  0  0  0
    8.2079  -13.7077   19.0625 C   0  0  2  0  0  0  0  0  0  0  0  0
    7.4826  -12.3818   18.9892 C   0  0  0  0  0  0  0  0  0  0  0  0
    8.0981  -14.3036   20.4515 C   0  0  0  0  0  0  0  0  0  0  0  0
    8.9984  -15.5245   20.5101 C   0  0  2  0  0  0  0  0  0  0  0  0
    8.4531  -16.5636   19.6884 N   0  0  0  0  0  0  0  0  0  0  0  0
    9.1067  -15.9109   21.9369 C   0  0  0  0  0  0  0  0  0  0  0  0
    8.1253  -15.6245   22.6778 O   0  0  0  0  0  0  0  0  0  0  0  0
   11.3280  -17.9876   24.0877 C   0  0  0  0  0  0  0  0  0  0  0  0
   10.1712  -17.0233   23.8424 C   0  0  2  0  0  0  0  0  0  0  0  0
   10.2381  -16.5717   22.4885 N   0  0  0  0  0  0  0  0  0  0  0  0
   10.3509  -15.9040   24.8224 C   0  0  0  0  0  0  0  0  0  0  0  0
   11.1629  -14.9956   24.5373 O   0  0  0  0  0  0  0  0  0  0  0  0
    6.5622  -11.8870   27.5399 N   0  0  0  0  0  0  0  0  0  0  0  0
    6.4498  -12.9733   26.6339 C   0  0  0  0  0  0  0  0  0  0  0  0
    5.6145  -12.9244   25.7221 O   0  0  0  0  0  0  0  0  0  0  0  0
    7.3342  -14.1348   26.8061 C   0  0  0  0  0  0  0  0  0  0  0  0
    8.7696  -13.7685   26.8137 C   0  0  0  0  0  0  0  0  0  0  0  0
    9.7527  -14.8443   27.0554 C   0  0  2  0  0  0  0  0  0  0  0  0
    9.6287  -15.8594   26.0445 N   0  0  0  0  0  0  0  0  0  0  0  0
    9.7543  -15.4011   28.4345 C   0  0  0  0  0  0  0  0  0  0  0  0
   10.0614  -14.5536   29.4793 O   0  0  0  0  0  0  0  0  0  0  0  0
    9.4921  -16.5853   28.6957 O   0  0  0  0  0  0  0  0  0  0  0  0
  2  1  1  1
  2  3  1  0
  4  2  1  0
  5  4  1  0
  5  6  1  6
  7  8  2  0
  7  5  1  0
 10  9  1  6
 10 12  1  0
 10 11  1  0
 11  7  1  0
 12 20  1  0
 13 12  2  0
 15 14  1  0
 16 15  2  0
 17 15  1  0
 18 17  1  0
 19 18  1  1
 20 19  1  0
 21 22  1  0
 21 19  1  0
 23 21  2  0
M  END
$$$$
