LAQ.pdb
     RDKit          3D

 23 22  0  0  1  0  0  0  0  0999 V2000
    8.6610  -13.8247   18.2446 C   0  0  0  0  0  0  0  0  0  0  0  0
    7.6374  -13.3615   19.2807 C   0  0  2  0  0  0  0  0  0  0  0  0
    7.8274  -11.8896   19.5755 C   0  0  0  0  0  0  0  0  0  0  0  0
    7.8608  -14.1920   20.5285 C   0  0  0  0  0  0  0  0  0  0  0  0
    7.6360  -15.6493   20.1679 C   0  0  2  0  0  0  0  0  0  0  0  0
    6.2426  -15.8744   19.9228 N   0  0  0  0  0  0  0  0  0  0  0  0
    8.1643  -16.4571   21.2926 C   0  0  0  0  0  0  0  0  0  0  0  0
    7.5257  -16.4005   22.3803 O   0  0  0  0  0  0  0  0  0  0  0  0
   10.7332  -19.0771   21.9100 C   0  0  0  0  0  0  0  0  0  0  0  0
    9.7390  -18.0069   22.3511 C   0  0  2  0  0  0  0  0  0  0  0  0
    9.3272  -17.2695   21.1986 N   0  0  0  0  0  0  0  0  0  0  0  0
   10.4665  -17.1497   23.3419 C   0  0  0  0  0  0  0  0  0  0  0  0
   11.2752  -16.3006   22.9051 O   0  0  0  0  0  0  0  0  0  0  0  0
    7.9050  -14.1376   27.6036 N   0  0  0  0  0  0  0  0  0  0  0  0
    9.2132  -13.9932   28.1339 C   0  0  0  0  0  0  0  0  0  0  0  0
    9.4031  -13.2361   29.0942 O   0  0  0  0  0  0  0  0  0  0  0  0
   10.3139  -14.7518   27.5224 C   0  0  0  0  0  0  0  0  0  0  0  0
    9.8559  -15.6682   26.4524 C   0  0  0  0  0  0  0  0  0  0  0  0
   10.8760  -16.4834   25.7617 C   0  0  2  0  0  0  0  0  0  0  0  0
   10.2565  -17.2836   24.7401 N   0  0  0  0  0  0  0  0  0  0  0  0
   11.7637  -17.2748   26.6548 C   0  0  0  0  0  0  0  0  0  0  0  0
   11.4032  -18.5744   26.9471 O   0  0  0  0  0  0  0  0  0  0  0  0
   12.8114  -16.8301   27.1487 O   0  0  0  0  0  0  0  0  0  0  0  0
  2  1  1  6
  2  3  1  0
  4  2  1  0
  5  4  1  0
  5  6  1  1
  7  8  2  0
  7  5  1  0
 10  9  1  6
 10 12  1  0
 10 11  1  0
 11  7  1  0
 12 20  1  0
 13 12  2  0
 15 14  1  0
 16 15  2  0
 17 15  1  0
 18 17  1  0
 19 18  1  1
 20 19  1  0
 21 22  1  0
 21 19  1  0
 23 21  2  0
M  END
$$$$
