LAQ.pdb
     RDKit          3D

 23 22  0  0  1  0  0  0  0  0999 V2000
    5.6052  -12.1463   25.5552 C   0  0  0  0  0  0  0  0  0  0  0  0
    6.3418  -12.8314   26.7058 C   0  0  2  0  0  0  0  0  0  0  0  0
    7.0318  -11.7975   27.5687 C   0  0  0  0  0  0  0  0  0  0  0  0
    7.3531  -13.7753   26.0871 C   0  0  0  0  0  0  0  0  0  0  0  0
    6.5908  -14.8469   25.3285 C   0  0  2  0  0  0  0  0  0  0  0  0
    5.9289  -15.7141   26.2570 N   0  0  0  0  0  0  0  0  0  0  0  0
    7.5762  -15.5540   24.4766 C   0  0  0  0  0  0  0  0  0  0  0  0
    8.2439  -16.4739   25.0260 O   0  0  0  0  0  0  0  0  0  0  0  0
    8.8024  -15.4967   20.9447 C   0  0  0  0  0  0  0  0  0  0  0  0
    8.7859  -15.9848   22.3903 C   0  0  2  0  0  0  0  0  0  0  0  0
    7.7933  -15.2469   23.1055 N   0  0  0  0  0  0  0  0  0  0  0  0
   10.1652  -15.7435   22.9240 C   0  0  0  0  0  0  0  0  0  0  0  0
   10.7848  -14.7338   22.5214 O   0  0  0  0  0  0  0  0  0  0  0  0
   11.5625  -16.8182   28.6466 N   0  0  0  0  0  0  0  0  0  0  0  0
   10.9180  -15.6995   28.0578 C   0  0  0  0  0  0  0  0  0  0  0  0
   10.2685  -14.9237   28.7705 O   0  0  0  0  0  0  0  0  0  0  0  0
   11.0399  -15.4931   26.6075 C   0  0  0  0  0  0  0  0  0  0  0  0
   11.9084  -16.4999   25.9544 C   0  0  0  0  0  0  0  0  0  0  0  0
   12.0490  -16.4375   24.4852 C   0  0  2  0  0  0  0  0  0  0  0  0
   10.7674  -16.6252   23.8605 N   0  0  0  0  0  0  0  0  0  0  0  0
   13.1036  -17.3164   23.9131 C   0  0  0  0  0  0  0  0  0  0  0  0
   14.4205  -17.0362   24.2155 O   0  0  0  0  0  0  0  0  0  0  0  0
   12.8626  -18.2887   23.1810 O   0  0  0  0  0  0  0  0  0  0  0  0
  2  1  1  6
  2  3  1  0
  4  2  1  0
  5  4  1  0
  5  6  1  1
  7  8  2  0
  7  5  1  0
 10  9  1  6
 10 12  1  0
 10 11  1  0
 11  7  1  0
 12 20  1  0
 13 12  2  0
 15 14  1  0
 16 15  2  0
 17 15  1  0
 18 17  1  0
 19 18  1  1
 20 19  1  0
 21 22  1  0
 21 19  1  0
 23 21  2  0
M  END
$$$$
