LAQ.pdb
     RDKit          3D

 23 22  0  0  1  0  0  0  0  0999 V2000
    7.4564  -12.3171   21.2704 C   0  0  0  0  0  0  0  0  0  0  0  0
    8.1665  -13.6149   20.8868 C   0  0  2  0  0  0  0  0  0  0  0  0
    8.9833  -13.4073   19.6301 C   0  0  0  0  0  0  0  0  0  0  0  0
    7.0923  -14.6600   20.6621 C   0  0  0  0  0  0  0  0  0  0  0  0
    7.7767  -16.0009   20.4671 C   0  0  2  0  0  0  0  0  0  0  0  0
    6.8173  -16.9712   20.0307 N   0  0  0  0  0  0  0  0  0  0  0  0
    8.4095  -16.3529   21.7602 C   0  0  0  0  0  0  0  0  0  0  0  0
    7.6415  -16.4610   22.7564 O   0  0  0  0  0  0  0  0  0  0  0  0
   11.7276  -17.4931   23.0148 C   0  0  0  0  0  0  0  0  0  0  0  0
   10.2861  -17.0231   23.1855 C   0  0  2  0  0  0  0  0  0  0  0  0
    9.8059  -16.5674   21.9193 N   0  0  0  0  0  0  0  0  0  0  0  0
   10.3270  -15.9249   24.2043 C   0  0  0  0  0  0  0  0  0  0  0  0
   10.4408  -14.7472   23.7973 O   0  0  0  0  0  0  0  0  0  0  0  0
    6.0735  -13.6524   26.0556 N   0  0  0  0  0  0  0  0  0  0  0  0
    6.9388  -12.9022   26.8935 C   0  0  0  0  0  0  0  0  0  0  0  0
    6.5804  -11.7910   27.3035 O   0  0  0  0  0  0  0  0  0  0  0  0
    8.2464  -13.4700   27.2524 C   0  0  0  0  0  0  0  0  0  0  0  0
    8.6609  -14.5724   26.3537 C   0  0  0  0  0  0  0  0  0  0  0  0
    9.9572  -15.2279   26.6219 C   0  0  2  0  0  0  0  0  0  0  0  0
   10.2405  -16.1949   25.5959 N   0  0  0  0  0  0  0  0  0  0  0  0
   10.1145  -15.7801   27.9939 C   0  0  0  0  0  0  0  0  0  0  0  0
   10.3712  -14.9000   29.0253 O   0  0  0  0  0  0  0  0  0  0  0  0
   10.0250  -16.9884   28.2607 O   0  0  0  0  0  0  0  0  0  0  0  0
  2  1  1  6
  2  3  1  0
  4  2  1  0
  5  4  1  0
  5  6  1  1
  7  8  2  0
  7  5  1  0
 10  9  1  6
 10 12  1  0
 10 11  1  0
 11  7  1  0
 12 20  1  0
 13 12  2  0
 15 14  1  0
 16 15  2  0
 17 15  1  0
 18 17  1  0
 19 18  1  6
 20 19  1  0
 21 22  1  0
 21 19  1  0
 23 21  2  0
M  END
$$$$
