LAQ.pdb
     RDKit          3D

 23 22  0  0  1  0  0  0  0  0999 V2000
    7.7445  -13.6920   18.6278 C   0  0  0  0  0  0  0  0  0  0  0  0
    7.9258  -12.9661   19.9604 C   0  0  2  0  0  0  0  0  0  0  0  0
    8.7051  -11.6859   19.7520 C   0  0  0  0  0  0  0  0  0  0  0  0
    8.6762  -13.9073   20.8810 C   0  0  0  0  0  0  0  0  0  0  0  0
    7.8747  -15.1918   20.9923 C   0  0  2  0  0  0  0  0  0  0  0  0
    7.0169  -15.1253   22.1377 N   0  0  0  0  0  0  0  0  0  0  0  0
    8.8521  -16.3037   21.0643 C   0  0  0  0  0  0  0  0  0  0  0  0
    9.4738  -16.4423   22.1544 O   0  0  0  0  0  0  0  0  0  0  0  0
    9.8543  -19.2953   19.1023 C   0  0  0  0  0  0  0  0  0  0  0  0
   10.0724  -18.2334   20.1760 C   0  0  2  0  0  0  0  0  0  0  0  0
    9.1100  -17.1944   19.9867 N   0  0  0  0  0  0  0  0  0  0  0  0
   11.4772  -17.7442   19.9946 C   0  0  0  0  0  0  0  0  0  0  0  0
   11.7131  -16.9696   19.0407 O   0  0  0  0  0  0  0  0  0  0  0  0
   14.2284  -14.3789   18.1198 N   0  0  0  0  0  0  0  0  0  0  0  0
   14.2731  -14.5767   19.5242 C   0  0  0  0  0  0  0  0  0  0  0  0
   15.2972  -14.2770   20.1511 O   0  0  0  0  0  0  0  0  0  0  0  0
   13.0937  -15.1370   20.1994 C   0  0  0  0  0  0  0  0  0  0  0  0
   13.4456  -15.9903   21.3581 C   0  0  0  0  0  0  0  0  0  0  0  0
   13.7442  -17.4136   21.0986 C   0  0  2  0  0  0  0  0  0  0  0  0
   12.5231  -18.1382   20.8708 N   0  0  0  0  0  0  0  0  0  0  0  0
   14.6244  -18.0682   22.1029 C   0  0  0  0  0  0  0  0  0  0  0  0
   15.8865  -18.4606   21.7063 O   0  0  0  0  0  0  0  0  0  0  0  0
   14.2857  -18.2779   23.2779 O   0  0  0  0  0  0  0  0  0  0  0  0
  2  1  1  6
  2  3  1  0
  4  2  1  0
  5  4  1  0
  5  6  1  1
  7  8  2  0
  7  5  1  0
 10  9  1  6
 10 12  1  0
 10 11  1  0
 11  7  1  0
 12 20  1  0
 13 12  2  0
 15 14  1  0
 16 15  2  0
 17 15  1  0
 18 17  1  0
 19 18  1  1
 20 19  1  0
 21 22  1  0
 21 19  1  0
 23 21  2  0
M  END
$$$$
