LAQ.pdb
     RDKit          3D

 23 22  0  0  1  0  0  0  0  0999 V2000
    6.6982  -13.4433   18.6720 C   0  0  0  0  0  0  0  0  0  0  0  0
    7.3739  -13.6094   20.0328 C   0  0  2  0  0  0  0  0  0  0  0  0
    7.8847  -12.2727   20.5247 C   0  0  0  0  0  0  0  0  0  0  0  0
    8.5182  -14.5850   19.8450 C   0  0  0  0  0  0  0  0  0  0  0  0
    8.5261  -15.5317   21.0317 C   0  0  2  0  0  0  0  0  0  0  0  0
    8.1088  -14.8301   22.2090 N   0  0  0  0  0  0  0  0  0  0  0  0
    9.9005  -16.0761   21.1384 C   0  0  0  0  0  0  0  0  0  0  0  0
   10.1555  -17.1089   20.4584 O   0  0  0  0  0  0  0  0  0  0  0  0
   13.2970  -15.2793   21.8065 C   0  0  0  0  0  0  0  0  0  0  0  0
   12.1366  -16.2160   22.1294 C   0  0  2  0  0  0  0  0  0  0  0  0
   10.9136  -15.4989   21.9518 N   0  0  0  0  0  0  0  0  0  0  0  0
   12.3379  -16.6496   23.5496 C   0  0  0  0  0  0  0  0  0  0  0  0
   13.4161  -17.2101   23.8476 O   0  0  0  0  0  0  0  0  0  0  0  0
    9.8916  -13.5682   28.1822 N   0  0  0  0  0  0  0  0  0  0  0  0
   10.3305  -14.6864   28.9375 C   0  0  0  0  0  0  0  0  0  0  0  0
   10.2321  -14.6672   30.1709 O   0  0  0  0  0  0  0  0  0  0  0  0
   10.8946  -15.8438   28.2282 C   0  0  0  0  0  0  0  0  0  0  0  0
   10.9451  -15.6501   26.7604 C   0  0  0  0  0  0  0  0  0  0  0  0
   11.4714  -16.7587   25.9380 C   0  0  2  0  0  0  0  0  0  0  0  0
   11.3441  -16.4383   24.5420 N   0  0  0  0  0  0  0  0  0  0  0  0
   10.9335  -18.1044   26.2722 C   0  0  0  0  0  0  0  0  0  0  0  0
   11.3539  -18.7023   27.4426 O   0  0  0  0  0  0  0  0  0  0  0  0
   10.1256  -18.7165   25.5566 O   0  0  0  0  0  0  0  0  0  0  0  0
  2  1  1  6
  2  3  1  0
  4  2  1  0
  5  4  1  0
  5  6  1  1
  7  8  2  0
  7  5  1  0
 10  9  1  1
 10 12  1  0
 10 11  1  0
 11  7  1  0
 12 20  1  0
 13 12  2  0
 15 14  1  0
 16 15  2  0
 17 15  1  0
 18 17  1  0
 19 18  1  1
 20 19  1  0
 21 22  1  0
 21 19  1  0
 23 21  2  0
M  END
$$$$
