LAQ.pdb
     RDKit          3D

 23 22  0  0  1  0  0  0  0  0999 V2000
    7.8304  -13.2467   18.2925 C   0  0  0  0  0  0  0  0  0  0  0  0
    7.5018  -13.5199   19.7598 C   0  0  2  0  0  0  0  0  0  0  0  0
    7.4163  -12.2165   20.5236 C   0  0  0  0  0  0  0  0  0  0  0  0
    8.6127  -14.3920   20.3094 C   0  0  0  0  0  0  0  0  0  0  0  0
    8.6538  -15.6697   19.4906 C   0  0  2  0  0  0  0  0  0  0  0  0
    7.3760  -16.3153   19.5428 N   0  0  0  0  0  0  0  0  0  0  0  0
    9.7466  -16.5021   20.0470 C   0  0  0  0  0  0  0  0  0  0  0  0
    9.4352  -17.3008   20.9739 O   0  0  0  0  0  0  0  0  0  0  0  0
   12.9678  -17.8275   19.0409 C   0  0  0  0  0  0  0  0  0  0  0  0
   12.0453  -17.3423   20.1553 C   0  0  2  0  0  0  0  0  0  0  0  0
   11.0921  -16.4390   19.5923 N   0  0  0  0  0  0  0  0  0  0  0  0
   12.9305  -16.6755   21.1640 C   0  0  0  0  0  0  0  0  0  0  0  0
   14.1639  -16.6687   20.9529 O   0  0  0  0  0  0  0  0  0  0  0  0
    9.9347  -15.8255   26.1278 N   0  0  0  0  0  0  0  0  0  0  0  0
   10.6131  -17.0108   26.5129 C   0  0  0  0  0  0  0  0  0  0  0  0
   10.6115  -17.3571   27.7010 O   0  0  0  0  0  0  0  0  0  0  0  0
   11.3046  -17.7987   25.4824 C   0  0  0  0  0  0  0  0  0  0  0  0
   11.2987  -17.1409   24.1551 C   0  0  0  0  0  0  0  0  0  0  0  0
   12.5632  -16.5453   23.6770 C   0  0  2  0  0  0  0  0  0  0  0  0
   12.4019  -16.0639   22.3317 N   0  0  0  0  0  0  0  0  0  0  0  0
   13.7677  -17.4020   23.8424 C   0  0  0  0  0  0  0  0  0  0  0  0
   14.7069  -17.0317   24.7831 O   0  0  0  0  0  0  0  0  0  0  0  0
   13.9719  -18.4322   23.1818 O   0  0  0  0  0  0  0  0  0  0  0  0
  2  1  1  6
  2  3  1  0
  4  2  1  0
  5  4  1  0
  5  6  1  1
  7  8  2  0
  7  5  1  0
 10  9  1  6
 10 12  1  0
 10 11  1  0
 11  7  1  0
 12 20  1  0
 13 12  2  0
 15 14  1  0
 16 15  2  0
 17 15  1  0
 18 17  1  0
 19 18  1  6
 20 19  1  0
 21 22  1  0
 21 19  1  0
 23 21  2  0
M  END
$$$$
