LAQ.pdb
     RDKit          3D

 23 22  0  0  1  0  0  0  0  0999 V2000
    8.7231  -14.0856   18.4272 C   0  0  0  0  0  0  0  0  0  0  0  0
    7.8092  -13.4860   19.4954 C   0  0  2  0  0  0  0  0  0  0  0  0
    7.5306  -12.0319   19.1829 C   0  0  0  0  0  0  0  0  0  0  0  0
    8.5278  -13.6216   20.8227 C   0  0  0  0  0  0  0  0  0  0  0  0
    8.6403  -15.1006   21.1456 C   0  0  2  0  0  0  0  0  0  0  0  0
    7.4273  -15.7670   20.7755 N   0  0  0  0  0  0  0  0  0  0  0  0
    8.9390  -15.2032   22.5937 C   0  0  0  0  0  0  0  0  0  0  0  0
   10.0540  -14.7507   22.9760 O   0  0  0  0  0  0  0  0  0  0  0  0
    7.2650  -15.6402   25.8048 C   0  0  0  0  0  0  0  0  0  0  0  0
    8.4717  -15.8782   24.9019 C   0  0  2  0  0  0  0  0  0  0  0  0
    8.0466  -15.7740   23.5418 N   0  0  0  0  0  0  0  0  0  0  0  0
    8.9732  -17.2505   25.2350 C   0  0  0  0  0  0  0  0  0  0  0  0
    8.2589  -18.2303   24.9260 O   0  0  0  0  0  0  0  0  0  0  0  0
   14.6327  -18.8495   24.4607 N   0  0  0  0  0  0  0  0  0  0  0  0
   13.5462  -18.7831   23.5504 C   0  0  0  0  0  0  0  0  0  0  0  0
   13.7659  -18.8197   22.3331 O   0  0  0  0  0  0  0  0  0  0  0  0
   12.1807  -18.6708   24.0830 C   0  0  0  0  0  0  0  0  0  0  0  0
   12.1182  -18.8634   25.5505 C   0  0  0  0  0  0  0  0  0  0  0  0
   10.8018  -18.7268   26.2067 C   0  0  2  0  0  0  0  0  0  0  0  0
   10.2211  -17.4518   25.8825 N   0  0  0  0  0  0  0  0  0  0  0  0
   10.7905  -19.0111   27.6665 C   0  0  0  0  0  0  0  0  0  0  0  0
   10.3518  -18.0197   28.5203 O   0  0  0  0  0  0  0  0  0  0  0  0
   11.1519  -20.0919   28.1570 O   0  0  0  0  0  0  0  0  0  0  0  0
  2  1  1  6
  2  3  1  0
  4  2  1  0
  5  4  1  0
  5  6  1  1
  7  8  2  0
  7  5  1  0
 10  9  1  1
 10 12  1  0
 10 11  1  0
 11  7  1  0
 12 20  1  0
 13 12  2  0
 15 14  1  0
 16 15  2  0
 17 15  1  0
 18 17  1  0
 19 18  1  1
 20 19  1  0
 21 22  1  0
 21 19  1  0
 23 21  2  0
M  END
$$$$
