LAQ.pdb
     RDKit          3D

 23 22  0  0  1  0  0  0  0  0999 V2000
    9.3940  -12.6176   19.2357 C   0  0  0  0  0  0  0  0  0  0  0  0
    8.0987  -13.4230   19.1382 C   0  0  2  0  0  0  0  0  0  0  0  0
    6.9270  -12.4946   18.9043 C   0  0  0  0  0  0  0  0  0  0  0  0
    7.9393  -14.1690   20.4477 C   0  0  0  0  0  0  0  0  0  0  0  0
    9.1719  -15.0321   20.6482 C   0  0  2  0  0  0  0  0  0  0  0  0
    9.4884  -15.7094   19.4262 N   0  0  0  0  0  0  0  0  0  0  0  0
    8.8701  -15.9604   21.7636 C   0  0  0  0  0  0  0  0  0  0  0  0
    8.3106  -15.4624   22.7800 O   0  0  0  0  0  0  0  0  0  0  0  0
    9.2219  -19.5859   22.5967 C   0  0  0  0  0  0  0  0  0  0  0  0
    8.9659  -18.1172   22.9215 C   0  0  2  0  0  0  0  0  0  0  0  0
    9.1763  -17.3484   21.7357 N   0  0  0  0  0  0  0  0  0  0  0  0
    9.9339  -17.7591   24.0079 C   0  0  0  0  0  0  0  0  0  0  0  0
   11.0934  -17.4246   23.6776 O   0  0  0  0  0  0  0  0  0  0  0  0
    8.9235  -13.5983   27.7522 N   0  0  0  0  0  0  0  0  0  0  0  0
    9.9542  -14.1577   28.5512 C   0  0  0  0  0  0  0  0  0  0  0  0
   10.3550  -13.5443   29.5486 O   0  0  0  0  0  0  0  0  0  0  0  0
   10.5214  -15.4586   28.1682 C   0  0  0  0  0  0  0  0  0  0  0  0
    9.8554  -16.0503   26.9846 C   0  0  0  0  0  0  0  0  0  0  0  0
   10.3710  -17.3385   26.4776 C   0  0  2  0  0  0  0  0  0  0  0  0
    9.5628  -17.7928   25.3784 N   0  0  0  0  0  0  0  0  0  0  0  0
   10.5799  -18.3868   27.5117 C   0  0  0  0  0  0  0  0  0  0  0  0
   11.6595  -18.2582   28.3615 O   0  0  0  0  0  0  0  0  0  0  0  0
    9.8345  -19.3686   27.6525 O   0  0  0  0  0  0  0  0  0  0  0  0
  2  1  1  1
  2  3  1  0
  4  2  1  0
  5  4  1  0
  5  6  1  6
  7  8  2  0
  7  5  1  0
 10  9  1  6
 10 12  1  0
 10 11  1  0
 11  7  1  0
 12 20  1  0
 13 12  2  0
 15 14  1  0
 16 15  2  0
 17 15  1  0
 18 17  1  0
 19 18  1  1
 20 19  1  0
 21 22  1  0
 21 19  1  0
 23 21  2  0
M  END
$$$$
