LAQ.pdb
     RDKit          3D

 23 22  0  0  1  0  0  0  0  0999 V2000
    8.1733  -14.2909   17.8127 C   0  0  0  0  0  0  0  0  0  0  0  0
    7.4917  -13.5448   18.9592 C   0  0  2  0  0  0  0  0  0  0  0  0
    7.2660  -12.0987   18.5753 C   0  0  0  0  0  0  0  0  0  0  0  0
    8.4086  -13.6440   20.1617 C   0  0  0  0  0  0  0  0  0  0  0  0
    8.4368  -15.0938   20.6110 C   0  0  2  0  0  0  0  0  0  0  0  0
    7.1127  -15.6384   20.5606 N   0  0  0  0  0  0  0  0  0  0  0  0
    9.0186  -15.1103   21.9740 C   0  0  0  0  0  0  0  0  0  0  0  0
   10.2536  -14.8652   22.0663 O   0  0  0  0  0  0  0  0  0  0  0  0
    7.8671  -15.1948   25.5049 C   0  0  0  0  0  0  0  0  0  0  0  0
    8.9249  -15.3241   24.4128 C   0  0  2  0  0  0  0  0  0  0  0  0
    8.2637  -15.3832   23.1475 N   0  0  0  0  0  0  0  0  0  0  0  0
    9.6810  -16.5818   24.7161 C   0  0  0  0  0  0  0  0  0  0  0  0
    9.1830  -17.6709   24.3536 O   0  0  0  0  0  0  0  0  0  0  0  0
   15.4682  -17.2933   22.6853 N   0  0  0  0  0  0  0  0  0  0  0  0
   14.7996  -16.4831   23.6393 C   0  0  0  0  0  0  0  0  0  0  0  0
   15.4185  -15.5782   24.2134 O   0  0  0  0  0  0  0  0  0  0  0  0
   13.3807  -16.7442   23.9213 C   0  0  0  0  0  0  0  0  0  0  0  0
   13.1645  -17.3804   25.2415 C   0  0  0  0  0  0  0  0  0  0  0  0
   11.7754  -17.6939   25.6347 C   0  0  2  0  0  0  0  0  0  0  0  0
   10.9283  -16.5569   25.3947 N   0  0  0  0  0  0  0  0  0  0  0  0
   11.6167  -18.2525   27.0039 C   0  0  0  0  0  0  0  0  0  0  0  0
   12.2478  -19.4435   27.2993 O   0  0  0  0  0  0  0  0  0  0  0  0
   10.9496  -17.7039   27.8947 O   0  0  0  0  0  0  0  0  0  0  0  0
  2  1  1  6
  2  3  1  0
  4  2  1  0
  5  4  1  0
  5  6  1  1
  7  8  2  0
  7  5  1  0
 10  9  1  1
 10 12  1  0
 10 11  1  0
 11  7  1  0
 12 20  1  0
 13 12  2  0
 15 14  1  0
 16 15  2  0
 17 15  1  0
 18 17  1  0
 19 18  1  1
 20 19  1  0
 21 22  1  0
 21 19  1  0
 23 21  2  0
M  END
$$$$
